EPH_relaxed_0001_pdb2pqr_Repair_267_r2_0001_out
 OpenBabel07272616253D

 82 86  0  0  0  0  0  0  0  0999 V2000
   -1.6900    8.5820   -1.8750 C   0  0  0  0  0  0  0  0  0  0  0  0
   -2.0730    9.1110   -0.4900 C   0  0  2  0  0  0  0  0  0  0  0  0
   -3.5670    9.4820   -0.4020 C   0  0  0  0  0  0  0  0  0  0  0  0
   -4.4950    8.2710   -0.2690 C   0  0  0  0  0  0  0  0  0  0  0  0
   -5.1800    7.9530   -1.5630 C   0  0  2  0  0  0  0  0  0  0  0  0
   -6.3550    8.7320   -1.8260 O   0  0  0  0  0  0  0  0  0  0  0  0
   -6.5570    7.3210   -1.6470 C   0  0  0  0  0  0  0  0  0  0  0  0
   -7.3300    6.9680   -0.4150 C   0  0  0  0  0  0  0  0  0  0  0  0
   -6.9390    6.6030   -2.9040 C   0  0  0  0  0  0  0  0  0  0  0  0
   -1.2140   10.3210   -0.1400 C   0  0  1  0  0  0  0  0  0  0  0  0
   -0.1770   10.0150    0.9740 C   0  0  0  0  0  0  0  0  0  0  0  0
    1.0900   10.8460    0.6450 C   0  0  0  0  0  0  0  0  0  0  0  0
    0.6300   11.8440   -0.4430 C   0  0  1  0  0  0  0  0  0  0  0  0
   -0.0750   12.9950    0.3400 C   0  0  0  0  0  0  0  0  0  0  0  0
    1.7440   12.3910   -1.3940 C   0  0  2  0  0  0  0  0  0  0  0  0
    2.8490   13.2090   -0.7020 C   0  0  0  0  0  0  0  0  0  0  0  0
    2.5960   14.6770   -0.6140 C   0  0  0  0  0  0  0  0  0  0  0  0
    1.6680   15.3550   -1.3160 C   0  0  0  0  0  0  0  0  0  0  0  0
    0.8200   14.6510   -2.3830 C   0  0  1  0  0  0  0  0  0  0  0  0
    0.7850   15.5170   -3.6700 C   0  0  0  0  0  0  0  0  0  0  0  0
    0.3200   16.9450   -3.4020 C   0  0  0  0  0  0  0  0  0  0  0  0
    1.2220   17.6300   -2.3790 C   0  0  2  0  0  0  0  0  0  0  0  0
    2.5210   17.8030   -2.9540 O   0  0  0  0  0  0  0  0  0  0  0  0
    1.3420   16.8440   -1.0440 C   0  0  0  0  0  0  0  0  0  0  0  0
   -0.0000   16.9150   -0.2760 C   0  0  0  0  0  0  0  0  0  0  0  0
    2.3900   17.5680   -0.1560 C   0  0  0  0  0  0  0  0  0  0  0  0
    1.1930   13.1350   -2.6770 C   0  0  1  0  0  0  0  0  0  0  0  0
    2.3210   13.0640   -3.7520 C   0  0  0  0  0  0  0  0  0  0  0  0
   -0.0580   12.4090   -3.2990 C   0  0  0  0  0  0  0  0  0  0  0  0
   -1.0610   11.7850   -2.3100 C   0  0  0  0  0  0  0  0  0  0  0  0
   -0.3400   10.9230   -1.2680 C   0  0  2  0  0  0  0  0  0  0  0  0
    0.3600    9.7440   -2.0250 C   0  0  0  0  0  0  0  0  0  0  0  0
   -1.0482    7.6955   -1.7643 H   0  0  0  0  0  0  0  0  0  0  0  0
   -2.6008    8.3085   -2.4278 H   0  0  0  0  0  0  0  0  0  0  0  0
   -1.1458    9.3619   -2.4278 H   0  0  0  0  0  0  0  0  0  0  0  0
   -1.8908    8.3035    0.2344 H   0  0  0  0  0  0  0  0  0  0  0  0
   -3.7130   10.1295    0.4752 H   0  0  0  0  0  0  0  0  0  0  0  0
   -3.8292    9.9861   -1.3439 H   0  0  0  0  0  0  0  0  0  0  0  0
   -3.9011    7.3994    0.0436 H   0  0  0  0  0  0  0  0  0  0  0  0
   -5.2665    8.5106    0.4776 H   0  0  0  0  0  0  0  0  0  0  0  0
   -4.2202    7.6968   -2.0354 H   0  0  0  0  0  0  0  0  0  0  0  0
   -6.7428    7.2361    0.4757 H   0  0  0  0  0  0  0  0  0  0  0  0
   -8.2807    7.5212   -0.4076 H   0  0  0  0  0  0  0  0  0  0  0  0
   -7.5346    5.8872   -0.4076 H   0  0  0  0  0  0  0  0  0  0  0  0
   -7.4415    5.6585   -2.6485 H   0  0  0  0  0  0  0  0  0  0  0  0
   -7.6210    7.2334   -3.4935 H   0  0  0  0  0  0  0  0  0  0  0  0
   -6.0352    6.3897   -3.4935 H   0  0  0  0  0  0  0  0  0  0  0  0
   -2.0039   11.0320    0.1438 H   0  0  0  0  0  0  0  0  0  0  0  0
   -0.5779   10.3078    1.9556 H   0  0  0  0  0  0  0  0  0  0  0  0
    0.0545    8.9404    1.0142 H   0  0  0  0  0  0  0  0  0  0  0  0
    1.4459   11.3814    1.5376 H   0  0  0  0  0  0  0  0  0  0  0  0
    1.9259   10.2161    0.3068 H   0  0  0  0  0  0  0  0  0  0  0  0
    0.0312   12.8217    1.4211 H   0  0  0  0  0  0  0  0  0  0  0  0
    0.3893   13.9565    0.0755 H   0  0  0  0  0  0  0  0  0  0  0  0
   -1.1425   13.0182    0.0755 H   0  0  0  0  0  0  0  0  0  0  0  0
    2.2295   11.4679   -1.7437 H   0  0  0  0  0  0  0  0  0  0  0  0
    2.9675   12.8227    0.3211 H   0  0  0  0  0  0  0  0  0  0  0  0
    3.7485   13.0923   -1.3243 H   0  0  0  0  0  0  0  0  0  0  0  0
    3.2206   15.2544    0.0835 H   0  0  0  0  0  0  0  0  0  0  0  0
   -0.1924   14.5679   -1.9609 H   0  0  0  0  0  0  0  0  0  0  0  0
    1.7969   15.5506   -4.1000 H   0  0  0  0  0  0  0  0  0  0  0  0
    0.0656   15.0562   -4.3629 H   0  0  0  0  0  0  0  0  0  0  0  0
    0.3457   17.5144   -4.3428 H   0  0  0  0  0  0  0  0  0  0  0  0
   -0.7035   16.9112   -3.0004 H   0  0  0  0  0  0  0  0  0  0  0  0
    0.7641   18.5991   -2.1315 H   0  0  0  0  0  0  0  0  0  0  0  0
    2.5720   18.7110   -3.2990 H   0  0  0  0  0  0  0  0  0  0  0  0
    0.1960   16.9046    0.8064 H   0  0  0  0  0  0  0  0  0  0  0  0
   -0.5274   17.8423   -0.5443 H   0  0  0  0  0  0  0  0  0  0  0  0
   -0.6223   16.0485   -0.5443 H   0  0  0  0  0  0  0  0  0  0  0  0
    2.1495   17.4018    0.9044 H   0  0  0  0  0  0  0  0  0  0  0  0
    3.3920   17.1686   -0.3717 H   0  0  0  0  0  0  0  0  0  0  0  0
    2.3710   18.6465   -0.3717 H   0  0  0  0  0  0  0  0  0  0  0  0
    3.2995   13.0024   -3.2532 H   0  0  0  0  0  0  0  0  0  0  0  0
    2.1731   12.1734   -4.3804 H   0  0  0  0  0  0  0  0  0  0  0  0
    2.2859   13.9661   -4.3804 H   0  0  0  0  0  0  0  0  0  0  0  0
   -0.6037   13.1469   -3.9054 H   0  0  0  0  0  0  0  0  0  0  0  0
    0.3534   11.5608   -3.8658 H   0  0  0  0  0  0  0  0  0  0  0  0
   -1.6071   12.5895   -1.7958 H   0  0  0  0  0  0  0  0  0  0  0  0
   -1.7571   11.1458   -2.8729 H   0  0  0  0  0  0  0  0  0  0  0  0
    0.7798    9.0370   -1.2943 H   0  0  0  0  0  0  0  0  0  0  0  0
   -0.3764    9.2250   -2.6562 H   0  0  0  0  0  0  0  0  0  0  0  0
    1.1682   10.1420   -2.6562 H   0  0  0  0  0  0  0  0  0  0  0  0
  1  2  1  0  0  0  0
  1 33  1  0  0  0  0
  1 34  1  0  0  0  0
  1 35  1  0  0  0  0
  2  3  1  0  0  0  0
  2 10  1  0  0  0  0
  2 36  1  1  0  0  0
  3  4  1  0  0  0  0
  3 37  1  0  0  0  0
  3 38  1  0  0  0  0
  4  5  1  0  0  0  0
  4 39  1  0  0  0  0
  4 40  1  0  0  0  0
  5  6  1  0  0  0  0
  5 41  1  6  0  0  0
  6  7  1  0  0  0  0
  7  8  1  0  0  0  0
  7  9  1  0  0  0  0
  7  5  1  0  0  0  0
  8 42  1  0  0  0  0
  8 43  1  0  0  0  0
  8 44  1  0  0  0  0
  9 45  1  0  0  0  0
  9 46  1  0  0  0  0
  9 47  1  0  0  0  0
 10 11  1  0  0  0  0
 10 48  1  1  0  0  0
 11 12  1  0  0  0  0
 11 49  1  0  0  0  0
 11 50  1  0  0  0  0
 12 13  1  0  0  0  0
 12 51  1  0  0  0  0
 12 52  1  0  0  0  0
 13 14  1  1  0  0  0
 13 15  1  0  0  0  0
 14 53  1  0  0  0  0
 14 54  1  0  0  0  0
 14 55  1  0  0  0  0
 15 16  1  0  0  0  0
 15 56  1  6  0  0  0
 16 17  1  0  0  0  0
 16 57  1  0  0  0  0
 16 58  1  0  0  0  0
 17 18  2  0  0  0  0
 17 59  1  0  0  0  0
 18 19  1  0  0  0  0
 19 20  1  0  0  0  0
 19 27  1  0  0  0  0
 19 60  1  1  0  0  0
 20 21  1  0  0  0  0
 20 61  1  0  0  0  0
 20 62  1  0  0  0  0
 21 22  1  0  0  0  0
 21 63  1  0  0  0  0
 21 64  1  0  0  0  0
 22 23  1  0  0  0  0
 22 24  1  0  0  0  0
 22 65  1  1  0  0  0
 23 66  1  0  0  0  0
 24 25  1  0  0  0  0
 24 26  1  0  0  0  0
 24 18  1  0  0  0  0
 25 67  1  0  0  0  0
 25 68  1  0  0  0  0
 25 69  1  0  0  0  0
 26 70  1  0  0  0  0
 26 71  1  0  0  0  0
 26 72  1  0  0  0  0
 27 28  1  6  0  0  0
 27 29  1  0  0  0  0
 27 15  1  0  0  0  0
 28 73  1  0  0  0  0
 28 74  1  0  0  0  0
 28 75  1  0  0  0  0
 29 30  1  0  0  0  0
 29 76  1  0  0  0  0
 29 77  1  0  0  0  0
 30 31  1  0  0  0  0
 30 78  1  0  0  0  0
 30 79  1  0  0  0  0
 31 32  1  6  0  0  0
 31 10  1  0  0  0  0
 31 13  1  0  0  0  0
 32 80  1  0  0  0  0
 32 81  1  0  0  0  0
 32 82  1  0  0  0  0
M  END
>  <meeko>
{"is_sidechain": [false], "intermolecular_energy": 2.731, "internal_energy": -0.839}

$$$$
