EPH_relaxed_0001_pdb2pqr_Repair_403_r2_0001_out
 OpenBabel07272616253D

 82 86  0  0  0  0  0  0  0  0999 V2000
   -1.6750    8.5610   -1.8540 C   0  0  0  0  0  0  0  0  0  0  0  0
   -2.0580    9.0900   -0.4690 C   0  0  2  0  0  0  0  0  0  0  0  0
   -3.5530    9.4570   -0.3810 C   0  0  0  0  0  0  0  0  0  0  0  0
   -4.4780    8.2440   -0.2550 C   0  0  0  0  0  0  0  0  0  0  0  0
   -5.1660    7.9350   -1.5500 C   0  0  2  0  0  0  0  0  0  0  0  0
   -6.3500    8.7040   -1.7980 O   0  0  0  0  0  0  0  0  0  0  0  0
   -6.5360    7.2890   -1.6370 C   0  0  0  0  0  0  0  0  0  0  0  0
   -7.3000    6.9120   -0.4060 C   0  0  0  0  0  0  0  0  0  0  0  0
   -6.9160    6.5830   -2.9010 C   0  0  0  0  0  0  0  0  0  0  0  0
   -1.2020   10.3030   -0.1210 C   0  0  1  0  0  0  0  0  0  0  0  0
   -0.1690   10.0030    0.9980 C   0  0  0  0  0  0  0  0  0  0  0  0
    1.0980   10.8350    0.6710 C   0  0  0  0  0  0  0  0  0  0  0  0
    0.6410   11.8270   -0.4240 C   0  0  1  0  0  0  0  0  0  0  0  0
   -0.0690   12.9810    0.3520 C   0  0  0  0  0  0  0  0  0  0  0  0
    1.7580   12.3720   -1.3720 C   0  0  2  0  0  0  0  0  0  0  0  0
    2.8590   13.1940   -0.6790 C   0  0  0  0  0  0  0  0  0  0  0  0
    2.6040   14.6620   -0.5980 C   0  0  0  0  0  0  0  0  0  0  0  0
    1.6780   15.3350   -1.3070 C   0  0  0  0  0  0  0  0  0  0  0  0
    0.8350   14.6260   -2.3750 C   0  0  1  0  0  0  0  0  0  0  0  0
    0.8040   15.4870   -3.6650 C   0  0  0  0  0  0  0  0  0  0  0  0
    0.3360   16.9150   -3.4050 C   0  0  0  0  0  0  0  0  0  0  0  0
    1.2340   17.6060   -2.3820 C   0  0  2  0  0  0  0  0  0  0  0  0
    2.5350   17.7780   -2.9530 O   0  0  0  0  0  0  0  0  0  0  0  0
    1.3500   16.8250   -1.0430 C   0  0  0  0  0  0  0  0  0  0  0  0
    0.0040   16.8980   -0.2800 C   0  0  0  0  0  0  0  0  0  0  0  0
    2.3930   17.5550   -0.1540 C   0  0  0  0  0  0  0  0  0  0  0  0
    1.2120   13.1090   -2.6610 C   0  0  1  0  0  0  0  0  0  0  0  0
    2.3440   13.0350   -3.7310 C   0  0  0  0  0  0  0  0  0  0  0  0
   -0.0360   12.3790   -3.2840 C   0  0  0  0  0  0  0  0  0  0  0  0
   -1.0420   11.7580   -2.2970 C   0  0  0  0  0  0  0  0  0  0  0  0
   -0.3250   10.9020   -1.2490 C   0  0  2  0  0  0  0  0  0  0  0  0
    0.3800    9.7200   -1.9970 C   0  0  0  0  0  0  0  0  0  0  0  0
   -1.0332    7.6745   -1.7433 H   0  0  0  0  0  0  0  0  0  0  0  0
   -2.5858    8.2875   -2.4068 H   0  0  0  0  0  0  0  0  0  0  0  0
   -1.1308    9.3409   -2.4068 H   0  0  0  0  0  0  0  0  0  0  0  0
   -1.8728    8.2840    0.2563 H   0  0  0  0  0  0  0  0  0  0  0  0
   -3.7015   10.0999    0.4991 H   0  0  0  0  0  0  0  0  0  0  0  0
   -3.8152    9.9649   -1.3208 H   0  0  0  0  0  0  0  0  0  0  0  0
   -3.8818    7.3711    0.0491 H   0  0  0  0  0  0  0  0  0  0  0  0
   -5.2479    8.4762    0.4955 H   0  0  0  0  0  0  0  0  0  0  0  0
   -4.2054    7.6953   -2.0294 H   0  0  0  0  0  0  0  0  0  0  0  0
   -6.7224    7.1970    0.4857 H   0  0  0  0  0  0  0  0  0  0  0  0
   -8.2669    7.4364   -0.3996 H   0  0  0  0  0  0  0  0  0  0  0  0
   -7.4721    5.8256   -0.3996 H   0  0  0  0  0  0  0  0  0  0  0  0
   -7.4242    5.6389   -2.6551 H   0  0  0  0  0  0  0  0  0  0  0  0
   -7.5924    7.2213   -3.4884 H   0  0  0  0  0  0  0  0  0  0  0  0
   -6.0107    6.3700   -3.4884 H   0  0  0  0  0  0  0  0  0  0  0  0
   -1.9937   11.0143    0.1570 H   0  0  0  0  0  0  0  0  0  0  0  0
   -0.5742   10.2987    1.9770 H   0  0  0  0  0  0  0  0  0  0  0  0
    0.0642    8.9289    1.0430 H   0  0  0  0  0  0  0  0  0  0  0  0
    1.4487   11.3753    1.5627 H   0  0  0  0  0  0  0  0  0  0  0  0
    1.9368   10.2052    0.3397 H   0  0  0  0  0  0  0  0  0  0  0  0
    0.0344   12.8130    1.4342 H   0  0  0  0  0  0  0  0  0  0  0  0
    0.3942   13.9421    0.0843 H   0  0  0  0  0  0  0  0  0  0  0  0
   -1.1357   13.0008    0.0843 H   0  0  0  0  0  0  0  0  0  0  0  0
    2.2463   11.4481   -1.7153 H   0  0  0  0  0  0  0  0  0  0  0  0
    2.9738   12.8120    0.3462 H   0  0  0  0  0  0  0  0  0  0  0  0
    3.7611   13.0759   -1.2972 H   0  0  0  0  0  0  0  0  0  0  0  0
    3.2248   15.2433    0.0997 H   0  0  0  0  0  0  0  0  0  0  0  0
   -0.1794   14.5433   -1.9576 H   0  0  0  0  0  0  0  0  0  0  0  0
    1.8177   15.5204   -4.0909 H   0  0  0  0  0  0  0  0  0  0  0  0
    0.0879   15.0225   -4.3588 H   0  0  0  0  0  0  0  0  0  0  0  0
    0.3637   17.4802   -4.3483 H   0  0  0  0  0  0  0  0  0  0  0  0
   -0.6887   16.8814   -3.0065 H   0  0  0  0  0  0  0  0  0  0  0  0
    0.7746   18.5759   -2.1407 H   0  0  0  0  0  0  0  0  0  0  0  0
    2.6520   17.0910   -3.6310 H   0  0  0  0  0  0  0  0  0  0  0  0
    0.1955   16.8876    0.8032 H   0  0  0  0  0  0  0  0  0  0  0  0
   -0.5210   17.8259   -0.5506 H   0  0  0  0  0  0  0  0  0  0  0  0
   -0.6183   16.0323   -0.5506 H   0  0  0  0  0  0  0  0  0  0  0  0
    2.1528   17.3869    0.9062 H   0  0  0  0  0  0  0  0  0  0  0  0
    3.3975   17.1618   -0.3692 H   0  0  0  0  0  0  0  0  0  0  0  0
    2.3675   18.6334   -0.3692 H   0  0  0  0  0  0  0  0  0  0  0  0
    3.3202   12.9712   -3.2281 H   0  0  0  0  0  0  0  0  0  0  0  0
    2.1965   12.1446   -4.3598 H   0  0  0  0  0  0  0  0  0  0  0  0
    2.3137   13.9370   -4.3598 H   0  0  0  0  0  0  0  0  0  0  0  0
   -0.5802   13.1138   -3.8955 H   0  0  0  0  0  0  0  0  0  0  0  0
    0.3787   11.5286   -3.8451 H   0  0  0  0  0  0  0  0  0  0  0  0
   -1.5914   12.5640   -1.7885 H   0  0  0  0  0  0  0  0  0  0  0  0
   -1.7347   11.1154   -2.8603 H   0  0  0  0  0  0  0  0  0  0  0  0
    0.7987    9.0180   -1.2609 H   0  0  0  0  0  0  0  0  0  0  0  0
   -0.3532    9.1959   -2.6277 H   0  0  0  0  0  0  0  0  0  0  0  0
    1.1895   10.1161   -2.6277 H   0  0  0  0  0  0  0  0  0  0  0  0
  1  2  1  0  0  0  0
  1 33  1  0  0  0  0
  1 34  1  0  0  0  0
  1 35  1  0  0  0  0
  2  3  1  0  0  0  0
  2 10  1  0  0  0  0
  2 36  1  1  0  0  0
  3  4  1  0  0  0  0
  3 37  1  0  0  0  0
  3 38  1  0  0  0  0
  4  5  1  0  0  0  0
  4 39  1  0  0  0  0
  4 40  1  0  0  0  0
  5  6  1  0  0  0  0
  5 41  1  6  0  0  0
  6  7  1  0  0  0  0
  7  8  1  0  0  0  0
  7  9  1  0  0  0  0
  7  5  1  0  0  0  0
  8 42  1  0  0  0  0
  8 43  1  0  0  0  0
  8 44  1  0  0  0  0
  9 45  1  0  0  0  0
  9 46  1  0  0  0  0
  9 47  1  0  0  0  0
 10 11  1  0  0  0  0
 10 48  1  1  0  0  0
 11 12  1  0  0  0  0
 11 49  1  0  0  0  0
 11 50  1  0  0  0  0
 12 13  1  0  0  0  0
 12 51  1  0  0  0  0
 12 52  1  0  0  0  0
 13 14  1  1  0  0  0
 13 15  1  0  0  0  0
 14 53  1  0  0  0  0
 14 54  1  0  0  0  0
 14 55  1  0  0  0  0
 15 16  1  0  0  0  0
 15 56  1  6  0  0  0
 16 17  1  0  0  0  0
 16 57  1  0  0  0  0
 16 58  1  0  0  0  0
 17 18  2  0  0  0  0
 17 59  1  0  0  0  0
 18 19  1  0  0  0  0
 19 20  1  0  0  0  0
 19 27  1  0  0  0  0
 19 60  1  1  0  0  0
 20 21  1  0  0  0  0
 20 61  1  0  0  0  0
 20 62  1  0  0  0  0
 21 22  1  0  0  0  0
 21 63  1  0  0  0  0
 21 64  1  0  0  0  0
 22 23  1  0  0  0  0
 22 24  1  0  0  0  0
 22 65  1  1  0  0  0
 23 66  1  0  0  0  0
 24 25  1  0  0  0  0
 24 26  1  0  0  0  0
 24 18  1  0  0  0  0
 25 67  1  0  0  0  0
 25 68  1  0  0  0  0
 25 69  1  0  0  0  0
 26 70  1  0  0  0  0
 26 71  1  0  0  0  0
 26 72  1  0  0  0  0
 27 28  1  6  0  0  0
 27 29  1  0  0  0  0
 27 15  1  0  0  0  0
 28 73  1  0  0  0  0
 28 74  1  0  0  0  0
 28 75  1  0  0  0  0
 29 30  1  0  0  0  0
 29 76  1  0  0  0  0
 29 77  1  0  0  0  0
 30 31  1  0  0  0  0
 30 78  1  0  0  0  0
 30 79  1  0  0  0  0
 31 32  1  6  0  0  0
 31 10  1  0  0  0  0
 31 13  1  0  0  0  0
 32 80  1  0  0  0  0
 32 81  1  0  0  0  0
 32 82  1  0  0  0  0
M  END
>  <meeko>
{"is_sidechain": [false], "intermolecular_energy": 2.731, "internal_energy": -0.839}

$$$$
