EPH_relaxed_0001_pdb2pqr_Repair_234_r2_0001_out
 OpenBabel07272616253D

 82 86  0  0  0  0  0  0  0  0999 V2000
   -1.6880    8.5840   -1.8890 C   0  0  0  0  0  0  0  0  0  0  0  0
   -2.0650    9.1020   -0.4980 C   0  0  2  0  0  0  0  0  0  0  0  0
   -3.5600    9.4650   -0.3990 C   0  0  0  0  0  0  0  0  0  0  0  0
   -4.4820    8.2480   -0.2770 C   0  0  0  0  0  0  0  0  0  0  0  0
   -5.1730    7.9450   -1.5720 C   0  0  2  0  0  0  0  0  0  0  0  0
   -6.3560    8.7170   -1.8140 O   0  0  0  0  0  0  0  0  0  0  0  0
   -6.5450    7.3020   -1.6570 C   0  0  0  0  0  0  0  0  0  0  0  0
   -7.3070    6.9220   -0.4260 C   0  0  0  0  0  0  0  0  0  0  0  0
   -6.9290    6.6000   -2.9230 C   0  0  0  0  0  0  0  0  0  0  0  0
   -1.2100   10.3140   -0.1460 C   0  0  1  0  0  0  0  0  0  0  0  0
   -0.1740   10.0110    0.9690 C   0  0  0  0  0  0  0  0  0  0  0  0
    1.0910   10.8460    0.6430 C   0  0  0  0  0  0  0  0  0  0  0  0
    0.6300   11.8430   -0.4460 C   0  0  1  0  0  0  0  0  0  0  0  0
   -0.0800   12.9920    0.3360 C   0  0  0  0  0  0  0  0  0  0  0  0
    1.7450   12.3930   -1.3950 C   0  0  2  0  0  0  0  0  0  0  0  0
    2.8460   13.2130   -0.7000 C   0  0  0  0  0  0  0  0  0  0  0  0
    2.5880   14.6810   -0.6120 C   0  0  0  0  0  0  0  0  0  0  0  0
    1.6600   15.3560   -1.3160 C   0  0  0  0  0  0  0  0  0  0  0  0
    0.8160   14.6510   -2.3850 C   0  0  1  0  0  0  0  0  0  0  0  0
    0.7810   15.5170   -3.6720 C   0  0  0  0  0  0  0  0  0  0  0  0
    0.3110   16.9440   -3.4040 C   0  0  0  0  0  0  0  0  0  0  0  0
    1.2100   17.6310   -2.3800 C   0  0  2  0  0  0  0  0  0  0  0  0
    2.5100   17.8080   -2.9520 O   0  0  0  0  0  0  0  0  0  0  0  0
    1.3300   16.8450   -1.0440 C   0  0  0  0  0  0  0  0  0  0  0  0
   -0.0140   16.9120   -0.2780 C   0  0  0  0  0  0  0  0  0  0  0  0
    2.3740   17.5720   -0.1540 C   0  0  0  0  0  0  0  0  0  0  0  0
    1.1940   13.1360   -2.6790 C   0  0  1  0  0  0  0  0  0  0  0  0
    2.3240   13.0680   -3.7510 C   0  0  0  0  0  0  0  0  0  0  0  0
   -0.0540   12.4060   -3.3030 C   0  0  0  0  0  0  0  0  0  0  0  0
   -1.0570   11.7790   -2.3160 C   0  0  0  0  0  0  0  0  0  0  0  0
   -0.3360   10.9190   -1.2730 C   0  0  2  0  0  0  0  0  0  0  0  0
    0.3690    9.7420   -2.0290 C   0  0  0  0  0  0  0  0  0  0  0  0
   -1.0434    7.6984   -1.7882 H   0  0  0  0  0  0  0  0  0  0  0  0
   -2.6011    8.3123   -2.4390 H   0  0  0  0  0  0  0  0  0  0  0  0
   -1.1487    9.3693   -2.4390 H   0  0  0  0  0  0  0  0  0  0  0  0
   -1.8744    8.2910    0.2203 H   0  0  0  0  0  0  0  0  0  0  0  0
   -3.7051   10.1009    0.4868 H   0  0  0  0  0  0  0  0  0  0  0  0
   -3.8286    9.9796   -1.3334 H   0  0  0  0  0  0  0  0  0  0  0  0
   -3.8826    7.3748    0.0202 H   0  0  0  0  0  0  0  0  0  0  0  0
   -5.2502    8.4736    0.4774 H   0  0  0  0  0  0  0  0  0  0  0  0
   -4.2143    7.7053   -2.0551 H   0  0  0  0  0  0  0  0  0  0  0  0
   -6.7304    7.2096    0.4655 H   0  0  0  0  0  0  0  0  0  0  0  0
   -8.2761    7.4423   -0.4194 H   0  0  0  0  0  0  0  0  0  0  0  0
   -7.4745    5.8348   -0.4194 H   0  0  0  0  0  0  0  0  0  0  0  0
   -7.4437    5.6590   -2.6789 H   0  0  0  0  0  0  0  0  0  0  0  0
   -7.6006    7.2437   -3.5100 H   0  0  0  0  0  0  0  0  0  0  0  0
   -6.0247    6.3817   -3.5100 H   0  0  0  0  0  0  0  0  0  0  0  0
   -2.0024   11.0224    0.1373 H   0  0  0  0  0  0  0  0  0  0  0  0
   -0.5774   10.3019    1.9501 H   0  0  0  0  0  0  0  0  0  0  0  0
    0.0610    8.9371    1.0086 H   0  0  0  0  0  0  0  0  0  0  0  0
    1.4433   11.3823    1.5365 H   0  0  0  0  0  0  0  0  0  0  0  0
    1.9297   10.2188    0.3065 H   0  0  0  0  0  0  0  0  0  0  0  0
    0.0264   12.8199    1.4172 H   0  0  0  0  0  0  0  0  0  0  0  0
    0.3807   13.9551    0.0710 H   0  0  0  0  0  0  0  0  0  0  0  0
   -1.1474   13.0108    0.0710 H   0  0  0  0  0  0  0  0  0  0  0  0
    2.2341   11.4719   -1.7447 H   0  0  0  0  0  0  0  0  0  0  0  0
    2.9631   12.8265    0.3232 H   0  0  0  0  0  0  0  0  0  0  0  0
    3.7476   13.0990   -1.3197 H   0  0  0  0  0  0  0  0  0  0  0  0
    3.2089   15.2601    0.0874 H   0  0  0  0  0  0  0  0  0  0  0  0
   -0.1971   14.5659   -1.9650 H   0  0  0  0  0  0  0  0  0  0  0  0
    1.7936   15.5537   -4.1001 H   0  0  0  0  0  0  0  0  0  0  0  0
    0.0646   15.0542   -4.3667 H   0  0  0  0  0  0  0  0  0  0  0  0
    0.3358   17.5138   -4.3446 H   0  0  0  0  0  0  0  0  0  0  0  0
   -0.7129   16.9071   -3.0036 H   0  0  0  0  0  0  0  0  0  0  0  0
    0.7489   18.5990   -2.1341 H   0  0  0  0  0  0  0  0  0  0  0  0
    3.1570   17.7810   -2.2270 H   0  0  0  0  0  0  0  0  0  0  0  0
    0.1802   16.9023    0.8047 H   0  0  0  0  0  0  0  0  0  0  0  0
   -0.5438   17.8377   -0.5473 H   0  0  0  0  0  0  0  0  0  0  0  0
   -0.6332   16.0436   -0.5473 H   0  0  0  0  0  0  0  0  0  0  0  0
    2.1327   17.4040    0.9060 H   0  0  0  0  0  0  0  0  0  0  0  0
    3.3777   17.1765   -0.3687 H   0  0  0  0  0  0  0  0  0  0  0  0
    2.3512   18.6506   -0.3687 H   0  0  0  0  0  0  0  0  0  0  0  0
    3.3016   13.0092   -3.2501 H   0  0  0  0  0  0  0  0  0  0  0  0
    2.1799   12.1769   -4.3796 H   0  0  0  0  0  0  0  0  0  0  0  0
    2.2878   13.9699   -4.3796 H   0  0  0  0  0  0  0  0  0  0  0  0
   -0.6008   13.1422   -3.9105 H   0  0  0  0  0  0  0  0  0  0  0  0
    0.3611   11.5588   -3.8687 H   0  0  0  0  0  0  0  0  0  0  0  0
   -1.6063   12.5819   -1.8027 H   0  0  0  0  0  0  0  0  0  0  0  0
   -1.7501   11.1379   -2.8804 H   0  0  0  0  0  0  0  0  0  0  0  0
    0.7912    9.0371   -1.2976 H   0  0  0  0  0  0  0  0  0  0  0  0
   -0.3651    9.2197   -2.6601 H   0  0  0  0  0  0  0  0  0  0  0  0
    1.1759   10.1427   -2.6601 H   0  0  0  0  0  0  0  0  0  0  0  0
  1  2  1  0  0  0  0
  1 33  1  0  0  0  0
  1 34  1  0  0  0  0
  1 35  1  0  0  0  0
  2  3  1  0  0  0  0
  2 10  1  0  0  0  0
  2 36  1  1  0  0  0
  3  4  1  0  0  0  0
  3 37  1  0  0  0  0
  3 38  1  0  0  0  0
  4  5  1  0  0  0  0
  4 39  1  0  0  0  0
  4 40  1  0  0  0  0
  5  6  1  0  0  0  0
  5 41  1  6  0  0  0
  6  7  1  0  0  0  0
  7  8  1  0  0  0  0
  7  9  1  0  0  0  0
  7  5  1  0  0  0  0
  8 42  1  0  0  0  0
  8 43  1  0  0  0  0
  8 44  1  0  0  0  0
  9 45  1  0  0  0  0
  9 46  1  0  0  0  0
  9 47  1  0  0  0  0
 10 11  1  0  0  0  0
 10 48  1  1  0  0  0
 11 12  1  0  0  0  0
 11 49  1  0  0  0  0
 11 50  1  0  0  0  0
 12 13  1  0  0  0  0
 12 51  1  0  0  0  0
 12 52  1  0  0  0  0
 13 14  1  1  0  0  0
 13 15  1  0  0  0  0
 14 53  1  0  0  0  0
 14 54  1  0  0  0  0
 14 55  1  0  0  0  0
 15 16  1  0  0  0  0
 15 56  1  6  0  0  0
 16 17  1  0  0  0  0
 16 57  1  0  0  0  0
 16 58  1  0  0  0  0
 17 18  2  0  0  0  0
 17 59  1  0  0  0  0
 18 19  1  0  0  0  0
 19 20  1  0  0  0  0
 19 27  1  0  0  0  0
 19 60  1  1  0  0  0
 20 21  1  0  0  0  0
 20 61  1  0  0  0  0
 20 62  1  0  0  0  0
 21 22  1  0  0  0  0
 21 63  1  0  0  0  0
 21 64  1  0  0  0  0
 22 23  1  0  0  0  0
 22 24  1  0  0  0  0
 22 65  1  1  0  0  0
 23 66  1  0  0  0  0
 24 25  1  0  0  0  0
 24 26  1  0  0  0  0
 24 18  1  0  0  0  0
 25 67  1  0  0  0  0
 25 68  1  0  0  0  0
 25 69  1  0  0  0  0
 26 70  1  0  0  0  0
 26 71  1  0  0  0  0
 26 72  1  0  0  0  0
 27 28  1  6  0  0  0
 27 29  1  0  0  0  0
 27 15  1  0  0  0  0
 28 73  1  0  0  0  0
 28 74  1  0  0  0  0
 28 75  1  0  0  0  0
 29 30  1  0  0  0  0
 29 76  1  0  0  0  0
 29 77  1  0  0  0  0
 30 31  1  0  0  0  0
 30 78  1  0  0  0  0
 30 79  1  0  0  0  0
 31 32  1  6  0  0  0
 31 10  1  0  0  0  0
 31 13  1  0  0  0  0
 32 80  1  0  0  0  0
 32 81  1  0  0  0  0
 32 82  1  0  0  0  0
M  END
>  <meeko>
{"is_sidechain": [false], "intermolecular_energy": 2.731, "internal_energy": -0.839}

$$$$
