EPH_relaxed_0001_pdb2pqr_Repair_269_r2_0001_out
 OpenBabel07272616253D

 82 86  0  0  0  0  0  0  0  0999 V2000
   -1.7160    8.5880   -1.8740 C   0  0  0  0  0  0  0  0  0  0  0  0
   -2.0970    9.1080   -0.4850 C   0  0  2  0  0  0  0  0  0  0  0  0
   -3.5920    9.4740   -0.3920 C   0  0  0  0  0  0  0  0  0  0  0  0
   -4.5140    8.2620   -0.2310 C   0  0  0  0  0  0  0  0  0  0  0  0
   -5.2130    7.9230   -1.5120 C   0  0  2  0  0  0  0  0  0  0  0  0
   -6.3520    8.7410   -1.8070 O   0  0  0  0  0  0  0  0  0  0  0  0
   -6.6150    7.3480   -1.5740 C   0  0  0  0  0  0  0  0  0  0  0  0
   -7.4030    7.0770   -0.3300 C   0  0  0  0  0  0  0  0  0  0  0  0
   -7.0280    6.5980   -2.8020 C   0  0  0  0  0  0  0  0  0  0  0  0
   -1.2410   10.3180   -0.1310 C   0  0  1  0  0  0  0  0  0  0  0  0
   -0.2180   10.0170    0.9970 C   0  0  0  0  0  0  0  0  0  0  0  0
    1.0540   10.8440    0.6790 C   0  0  0  0  0  0  0  0  0  0  0  0
    0.6090   11.8380   -0.4200 C   0  0  1  0  0  0  0  0  0  0  0  0
   -0.1040   12.9940    0.3490 C   0  0  0  0  0  0  0  0  0  0  0  0
    1.7360   12.3780   -1.3590 C   0  0  2  0  0  0  0  0  0  0  0  0
    2.8330   13.1970   -0.6580 C   0  0  0  0  0  0  0  0  0  0  0  0
    2.5810   14.6670   -0.5810 C   0  0  0  0  0  0  0  0  0  0  0  0
    1.6630   15.3420   -1.2980 C   0  0  0  0  0  0  0  0  0  0  0  0
    0.8270   14.6340   -2.3720 C   0  0  1  0  0  0  0  0  0  0  0  0
    0.8090   15.4930   -3.6630 C   0  0  0  0  0  0  0  0  0  0  0  0
    0.3420   16.9230   -3.4080 C   0  0  0  0  0  0  0  0  0  0  0  0
    1.2340   17.6120   -2.3780 C   0  0  2  0  0  0  0  0  0  0  0  0
    2.5400   17.7810   -2.9380 O   0  0  0  0  0  0  0  0  0  0  0  0
    1.3360   16.8330   -1.0370 C   0  0  0  0  0  0  0  0  0  0  0  0
   -0.0150   16.9100   -0.2860 C   0  0  0  0  0  0  0  0  0  0  0  0
    2.3740   17.5600   -0.1410 C   0  0  0  0  0  0  0  0  0  0  0  0
    1.2010   13.1160   -2.6540 C   0  0  1  0  0  0  0  0  0  0  0  0
    2.3420   13.0370   -3.7140 C   0  0  0  0  0  0  0  0  0  0  0  0
   -0.0430   12.3880   -3.2860 C   0  0  0  0  0  0  0  0  0  0  0  0
   -1.0590   11.7710   -2.3070 C   0  0  0  0  0  0  0  0  0  0  0  0
   -0.3530   10.9140   -1.2520 C   0  0  2  0  0  0  0  0  0  0  0  0
    0.3550    9.7290   -1.9940 C   0  0  0  0  0  0  0  0  0  0  0  0
   -1.0688    7.7047   -1.7700 H   0  0  0  0  0  0  0  0  0  0  0  0
   -2.6273    8.3121   -2.4249 H   0  0  0  0  0  0  0  0  0  0  0  0
   -1.1783    9.3737   -2.4249 H   0  0  0  0  0  0  0  0  0  0  0  0
   -1.9107    8.2974    0.2349 H   0  0  0  0  0  0  0  0  0  0  0  0
   -3.7341   10.1360    0.4750 H   0  0  0  0  0  0  0  0  0  0  0  0
   -3.8633    9.9603   -1.3406 H   0  0  0  0  0  0  0  0  0  0  0  0
   -3.9134    7.3970    0.0870 H   0  0  0  0  0  0  0  0  0  0  0  0
   -5.2776    8.5098    0.5210 H   0  0  0  0  0  0  0  0  0  0  0  0
   -4.2653    7.6068   -1.9722 H   0  0  0  0  0  0  0  0  0  0  0  0
   -6.7812    7.2909    0.5518 H   0  0  0  0  0  0  0  0  0  0  0  0
   -8.2955    7.7198   -0.3139 H   0  0  0  0  0  0  0  0  0  0  0  0
   -7.7113    6.0212   -0.3139 H   0  0  0  0  0  0  0  0  0  0  0  0
   -7.5395    5.6691   -2.5096 H   0  0  0  0  0  0  0  0  0  0  0  0
   -7.7107    7.2201   -3.3994 H   0  0  0  0  0  0  0  0  0  0  0  0
   -6.1372    6.3537   -3.3994 H   0  0  0  0  0  0  0  0  0  0  0  0
   -2.0335   11.0311    0.1399 H   0  0  0  0  0  0  0  0  0  0  0  0
   -0.6303   10.3159    1.9720 H   0  0  0  0  0  0  0  0  0  0  0  0
    0.0114    8.9423    1.0459 H   0  0  0  0  0  0  0  0  0  0  0  0
    1.4002   11.3832    1.5731 H   0  0  0  0  0  0  0  0  0  0  0  0
    1.8926   10.2108    0.3538 H   0  0  0  0  0  0  0  0  0  0  0  0
   -0.0033   12.8307    1.4321 H   0  0  0  0  0  0  0  0  0  0  0  0
    0.3588   13.9545    0.0784 H   0  0  0  0  0  0  0  0  0  0  0  0
   -1.1701   13.0115    0.0784 H   0  0  0  0  0  0  0  0  0  0  0  0
    2.2256   11.4528   -1.6972 H   0  0  0  0  0  0  0  0  0  0  0  0
    2.9380   12.8160    0.3685 H   0  0  0  0  0  0  0  0  0  0  0  0
    3.7402   13.0754   -1.2681 H   0  0  0  0  0  0  0  0  0  0  0  0
    3.1977   15.2474    0.1210 H   0  0  0  0  0  0  0  0  0  0  0  0
   -0.1906   14.5548   -1.9617 H   0  0  0  0  0  0  0  0  0  0  0  0
    1.8263   15.5234   -4.0805 H   0  0  0  0  0  0  0  0  0  0  0  0
    0.0979   15.0294   -4.3626 H   0  0  0  0  0  0  0  0  0  0  0  0
    0.3788   17.4875   -4.3514 H   0  0  0  0  0  0  0  0  0  0  0  0
   -0.6862   16.8927   -3.0183 H   0  0  0  0  0  0  0  0  0  0  0  0
    0.7752   18.5834   -2.1416 H   0  0  0  0  0  0  0  0  0  0  0  0
    3.1330   18.0620   -2.2210 H   0  0  0  0  0  0  0  0  0  0  0  0
    0.1674   16.8996    0.7987 H   0  0  0  0  0  0  0  0  0  0  0  0
   -0.5352   17.8393   -0.5615 H   0  0  0  0  0  0  0  0  0  0  0  0
   -0.6374   16.0459   -0.5615 H   0  0  0  0  0  0  0  0  0  0  0  0
    2.1288   17.3883    0.9175 H   0  0  0  0  0  0  0  0  0  0  0  0
    3.3797   17.1678   -0.3527 H   0  0  0  0  0  0  0  0  0  0  0  0
    2.3492   18.6391   -0.3527 H   0  0  0  0  0  0  0  0  0  0  0  0
    3.3136   12.9697   -3.2026 H   0  0  0  0  0  0  0  0  0  0  0  0
    2.1966   12.1468   -4.3436 H   0  0  0  0  0  0  0  0  0  0  0  0
    2.3207   13.9388   -4.3436 H   0  0  0  0  0  0  0  0  0  0  0  0
   -0.5802   13.1230   -3.9034 H   0  0  0  0  0  0  0  0  0  0  0  0
    0.3747   11.5356   -3.8418 H   0  0  0  0  0  0  0  0  0  0  0  0
   -1.6104   12.5790   -1.8040 H   0  0  0  0  0  0  0  0  0  0  0  0
   -1.7488   11.1298   -2.8753 H   0  0  0  0  0  0  0  0  0  0  0  0
    0.7725    9.0302   -1.2541 H   0  0  0  0  0  0  0  0  0  0  0  0
   -0.3763    9.2019   -2.6243 H   0  0  0  0  0  0  0  0  0  0  0  0
    1.1657   10.1232   -2.6243 H   0  0  0  0  0  0  0  0  0  0  0  0
  1  2  1  0  0  0  0
  1 33  1  0  0  0  0
  1 34  1  0  0  0  0
  1 35  1  0  0  0  0
  2  3  1  0  0  0  0
  2 10  1  0  0  0  0
  2 36  1  1  0  0  0
  3  4  1  0  0  0  0
  3 37  1  0  0  0  0
  3 38  1  0  0  0  0
  4  5  1  0  0  0  0
  4 39  1  0  0  0  0
  4 40  1  0  0  0  0
  5  6  1  0  0  0  0
  5 41  1  6  0  0  0
  6  7  1  0  0  0  0
  7  8  1  0  0  0  0
  7  9  1  0  0  0  0
  7  5  1  0  0  0  0
  8 42  1  0  0  0  0
  8 43  1  0  0  0  0
  8 44  1  0  0  0  0
  9 45  1  0  0  0  0
  9 46  1  0  0  0  0
  9 47  1  0  0  0  0
 10 11  1  0  0  0  0
 10 48  1  1  0  0  0
 11 12  1  0  0  0  0
 11 49  1  0  0  0  0
 11 50  1  0  0  0  0
 12 13  1  0  0  0  0
 12 51  1  0  0  0  0
 12 52  1  0  0  0  0
 13 14  1  1  0  0  0
 13 15  1  0  0  0  0
 14 53  1  0  0  0  0
 14 54  1  0  0  0  0
 14 55  1  0  0  0  0
 15 16  1  0  0  0  0
 15 56  1  6  0  0  0
 16 17  1  0  0  0  0
 16 57  1  0  0  0  0
 16 58  1  0  0  0  0
 17 18  2  0  0  0  0
 17 59  1  0  0  0  0
 18 19  1  0  0  0  0
 19 20  1  0  0  0  0
 19 27  1  0  0  0  0
 19 60  1  1  0  0  0
 20 21  1  0  0  0  0
 20 61  1  0  0  0  0
 20 62  1  0  0  0  0
 21 22  1  0  0  0  0
 21 63  1  0  0  0  0
 21 64  1  0  0  0  0
 22 23  1  0  0  0  0
 22 24  1  0  0  0  0
 22 65  1  1  0  0  0
 23 66  1  0  0  0  0
 24 25  1  0  0  0  0
 24 26  1  0  0  0  0
 24 18  1  0  0  0  0
 25 67  1  0  0  0  0
 25 68  1  0  0  0  0
 25 69  1  0  0  0  0
 26 70  1  0  0  0  0
 26 71  1  0  0  0  0
 26 72  1  0  0  0  0
 27 28  1  6  0  0  0
 27 29  1  0  0  0  0
 27 15  1  0  0  0  0
 28 73  1  0  0  0  0
 28 74  1  0  0  0  0
 28 75  1  0  0  0  0
 29 30  1  0  0  0  0
 29 76  1  0  0  0  0
 29 77  1  0  0  0  0
 30 31  1  0  0  0  0
 30 78  1  0  0  0  0
 30 79  1  0  0  0  0
 31 32  1  6  0  0  0
 31 10  1  0  0  0  0
 31 13  1  0  0  0  0
 32 80  1  0  0  0  0
 32 81  1  0  0  0  0
 32 82  1  0  0  0  0
M  END
>  <meeko>
{"is_sidechain": [false], "intermolecular_energy": 2.731, "internal_energy": -0.839}

$$$$
