EPH_relaxed_0001_pdb2pqr_Repair_132_r2_0001_out
 OpenBabel07272616253D

 82 86  0  0  0  0  0  0  0  0999 V2000
   -1.6980    8.5850   -1.8990 C   0  0  0  0  0  0  0  0  0  0  0  0
   -2.0690    9.0990   -0.5050 C   0  0  2  0  0  0  0  0  0  0  0  0
   -3.5630    9.4650   -0.4000 C   0  0  0  0  0  0  0  0  0  0  0  0
   -4.4860    8.2500   -0.2650 C   0  0  0  0  0  0  0  0  0  0  0  0
   -5.1780    7.9340   -1.5560 C   0  0  2  0  0  0  0  0  0  0  0  0
   -6.3750    8.6860   -1.7940 O   0  0  0  0  0  0  0  0  0  0  0  0
   -6.5390    7.2680   -1.6340 C   0  0  0  0  0  0  0  0  0  0  0  0
   -7.2890    6.8770   -0.4000 C   0  0  0  0  0  0  0  0  0  0  0  0
   -6.9170    6.5590   -2.8980 C   0  0  0  0  0  0  0  0  0  0  0  0
   -1.2110   10.3080   -0.1520 C   0  0  1  0  0  0  0  0  0  0  0  0
   -0.1770   10.0010    0.9640 C   0  0  0  0  0  0  0  0  0  0  0  0
    1.0910   10.8320    0.6390 C   0  0  0  0  0  0  0  0  0  0  0  0
    0.6350   11.8310   -0.4490 C   0  0  1  0  0  0  0  0  0  0  0  0
   -0.0720   12.9820    0.3340 C   0  0  0  0  0  0  0  0  0  0  0  0
    1.7510   12.3790   -1.3960 C   0  0  2  0  0  0  0  0  0  0  0  0
    2.8550   13.1950   -0.7010 C   0  0  0  0  0  0  0  0  0  0  0  0
    2.6020   14.6640   -0.6120 C   0  0  0  0  0  0  0  0  0  0  0  0
    1.6770   15.3420   -1.3150 C   0  0  0  0  0  0  0  0  0  0  0  0
    0.8300   14.6410   -2.3850 C   0  0  1  0  0  0  0  0  0  0  0  0
    0.7990   15.5080   -3.6710 C   0  0  0  0  0  0  0  0  0  0  0  0
    0.3340   16.9360   -3.4030 C   0  0  0  0  0  0  0  0  0  0  0  0
    1.2340   17.6190   -2.3770 C   0  0  2  0  0  0  0  0  0  0  0  0
    2.5350   17.7920   -2.9490 O   0  0  0  0  0  0  0  0  0  0  0  0
    1.3510   16.8310   -1.0420 C   0  0  0  0  0  0  0  0  0  0  0  0
    0.0060   16.9020   -0.2770 C   0  0  0  0  0  0  0  0  0  0  0  0
    2.3970   17.5540   -0.1510 C   0  0  0  0  0  0  0  0  0  0  0  0
    1.2040   13.1240   -2.6810 C   0  0  1  0  0  0  0  0  0  0  0  0
    2.3350   13.0540   -3.7520 C   0  0  0  0  0  0  0  0  0  0  0  0
   -0.0460   12.3990   -3.3060 C   0  0  0  0  0  0  0  0  0  0  0  0
   -1.0520   11.7750   -2.3200 C   0  0  0  0  0  0  0  0  0  0  0  0
   -0.3340   10.9120   -1.2780 C   0  0  2  0  0  0  0  0  0  0  0  0
    0.3680    9.7330   -2.0340 C   0  0  0  0  0  0  0  0  0  0  0  0
   -1.0566    7.6964   -1.8035 H   0  0  0  0  0  0  0  0  0  0  0  0
   -2.6137    8.3190   -2.4474 H   0  0  0  0  0  0  0  0  0  0  0  0
   -1.1572    9.3703   -2.4474 H   0  0  0  0  0  0  0  0  0  0  0  0
   -1.8773    8.2852    0.2098 H   0  0  0  0  0  0  0  0  0  0  0  0
   -3.7022   10.1068    0.4824 H   0  0  0  0  0  0  0  0  0  0  0  0
   -3.8361    9.9740   -1.3361 H   0  0  0  0  0  0  0  0  0  0  0  0
   -3.8871    7.3795    0.0409 H   0  0  0  0  0  0  0  0  0  0  0  0
   -5.2536    8.4842    0.4873 H   0  0  0  0  0  0  0  0  0  0  0  0
   -4.2175    7.7098   -2.0430 H   0  0  0  0  0  0  0  0  0  0  0  0
   -6.7143    7.1766    0.4888 H   0  0  0  0  0  0  0  0  0  0  0  0
   -8.2673    7.3799   -0.3907 H   0  0  0  0  0  0  0  0  0  0  0  0
   -7.4369    5.7870   -0.3907 H   0  0  0  0  0  0  0  0  0  0  0  0
   -7.4213    5.6131   -2.6511 H   0  0  0  0  0  0  0  0  0  0  0  0
   -7.5962    7.1941   -3.4856 H   0  0  0  0  0  0  0  0  0  0  0  0
   -6.0111    6.3491   -3.4856 H   0  0  0  0  0  0  0  0  0  0  0  0
   -2.0016   11.0187    0.1306 H   0  0  0  0  0  0  0  0  0  0  0  0
   -0.5803   10.2930    1.9449 H   0  0  0  0  0  0  0  0  0  0  0  0
    0.0542    8.9263    1.0037 H   0  0  0  0  0  0  0  0  0  0  0  0
    1.4446   11.3664    1.5331 H   0  0  0  0  0  0  0  0  0  0  0  0
    1.9274   10.2019    0.3023 H   0  0  0  0  0  0  0  0  0  0  0  0
    0.0342   12.8091    1.4151 H   0  0  0  0  0  0  0  0  0  0  0  0
    0.3912   13.9440    0.0693 H   0  0  0  0  0  0  0  0  0  0  0  0
   -1.1394   13.0038    0.0693 H   0  0  0  0  0  0  0  0  0  0  0  0
    2.2367   11.4558   -1.7449 H   0  0  0  0  0  0  0  0  0  0  0  0
    2.9712   12.8075    0.3219 H   0  0  0  0  0  0  0  0  0  0  0  0
    3.7559   13.0783   -1.3213 H   0  0  0  0  0  0  0  0  0  0  0  0
    3.2248   15.2406    0.0877 H   0  0  0  0  0  0  0  0  0  0  0  0
   -0.1835   14.5593   -1.9654 H   0  0  0  0  0  0  0  0  0  0  0  0
    1.8121   15.5414   -4.0982 H   0  0  0  0  0  0  0  0  0  0  0  0
    0.0813   15.0482   -4.3663 H   0  0  0  0  0  0  0  0  0  0  0  0
    0.3625   17.5063   -4.3432 H   0  0  0  0  0  0  0  0  0  0  0  0
   -0.6907   16.9027   -3.0043 H   0  0  0  0  0  0  0  0  0  0  0  0
    0.7757   18.5878   -2.1293 H   0  0  0  0  0  0  0  0  0  0  0  0
    3.0300   18.3990   -2.3730 H   0  0  0  0  0  0  0  0  0  0  0  0
    0.1991   16.8918    0.8059 H   0  0  0  0  0  0  0  0  0  0  0  0
   -0.5208   17.8292   -0.5468 H   0  0  0  0  0  0  0  0  0  0  0  0
   -0.6155   16.0354   -0.5468 H   0  0  0  0  0  0  0  0  0  0  0  0
    2.1544   17.3863    0.9087 H   0  0  0  0  0  0  0  0  0  0  0  0
    3.3995   17.1551   -0.3653 H   0  0  0  0  0  0  0  0  0  0  0  0
    2.3781   18.6328   -0.3653 H   0  0  0  0  0  0  0  0  0  0  0  0
    3.3120   12.9935   -3.2501 H   0  0  0  0  0  0  0  0  0  0  0  0
    2.1900   12.1631   -4.3807 H   0  0  0  0  0  0  0  0  0  0  0  0
    2.3009   13.9560   -4.3807 H   0  0  0  0  0  0  0  0  0  0  0  0
   -0.5898   13.1375   -3.9134 H   0  0  0  0  0  0  0  0  0  0  0  0
    0.3664   11.5506   -3.8718 H   0  0  0  0  0  0  0  0  0  0  0  0
   -1.5987   12.5795   -1.8062 H   0  0  0  0  0  0  0  0  0  0  0  0
   -1.7476   11.1371   -2.8850 H   0  0  0  0  0  0  0  0  0  0  0  0
    0.7883    9.0271   -1.3026 H   0  0  0  0  0  0  0  0  0  0  0  0
   -0.3674    9.2126   -2.6651 H   0  0  0  0  0  0  0  0  0  0  0  0
    1.1760   10.1316   -2.6651 H   0  0  0  0  0  0  0  0  0  0  0  0
  1  2  1  0  0  0  0
  1 33  1  0  0  0  0
  1 34  1  0  0  0  0
  1 35  1  0  0  0  0
  2  3  1  0  0  0  0
  2 10  1  0  0  0  0
  2 36  1  1  0  0  0
  3  4  1  0  0  0  0
  3 37  1  0  0  0  0
  3 38  1  0  0  0  0
  4  5  1  0  0  0  0
  4 39  1  0  0  0  0
  4 40  1  0  0  0  0
  5  6  1  0  0  0  0
  5 41  1  6  0  0  0
  6  7  1  0  0  0  0
  7  8  1  0  0  0  0
  7  9  1  0  0  0  0
  7  5  1  0  0  0  0
  8 42  1  0  0  0  0
  8 43  1  0  0  0  0
  8 44  1  0  0  0  0
  9 45  1  0  0  0  0
  9 46  1  0  0  0  0
  9 47  1  0  0  0  0
 10 11  1  0  0  0  0
 10 48  1  1  0  0  0
 11 12  1  0  0  0  0
 11 49  1  0  0  0  0
 11 50  1  0  0  0  0
 12 13  1  0  0  0  0
 12 51  1  0  0  0  0
 12 52  1  0  0  0  0
 13 14  1  1  0  0  0
 13 15  1  0  0  0  0
 14 53  1  0  0  0  0
 14 54  1  0  0  0  0
 14 55  1  0  0  0  0
 15 16  1  0  0  0  0
 15 56  1  6  0  0  0
 16 17  1  0  0  0  0
 16 57  1  0  0  0  0
 16 58  1  0  0  0  0
 17 18  2  0  0  0  0
 17 59  1  0  0  0  0
 18 19  1  0  0  0  0
 19 20  1  0  0  0  0
 19 27  1  0  0  0  0
 19 60  1  1  0  0  0
 20 21  1  0  0  0  0
 20 61  1  0  0  0  0
 20 62  1  0  0  0  0
 21 22  1  0  0  0  0
 21 63  1  0  0  0  0
 21 64  1  0  0  0  0
 22 23  1  0  0  0  0
 22 24  1  0  0  0  0
 22 65  1  1  0  0  0
 23 66  1  0  0  0  0
 24 25  1  0  0  0  0
 24 26  1  0  0  0  0
 24 18  1  0  0  0  0
 25 67  1  0  0  0  0
 25 68  1  0  0  0  0
 25 69  1  0  0  0  0
 26 70  1  0  0  0  0
 26 71  1  0  0  0  0
 26 72  1  0  0  0  0
 27 28  1  6  0  0  0
 27 29  1  0  0  0  0
 27 15  1  0  0  0  0
 28 73  1  0  0  0  0
 28 74  1  0  0  0  0
 28 75  1  0  0  0  0
 29 30  1  0  0  0  0
 29 76  1  0  0  0  0
 29 77  1  0  0  0  0
 30 31  1  0  0  0  0
 30 78  1  0  0  0  0
 30 79  1  0  0  0  0
 31 32  1  6  0  0  0
 31 10  1  0  0  0  0
 31 13  1  0  0  0  0
 32 80  1  0  0  0  0
 32 81  1  0  0  0  0
 32 82  1  0  0  0  0
M  END
>  <meeko>
{"is_sidechain": [false], "intermolecular_energy": 2.731, "internal_energy": -0.839}

$$$$
