EPH_relaxed_0001_pdb2pqr_Repair_3_r2_0001_out
 OpenBabel07272616253D

 82 86  0  0  0  0  0  0  0  0999 V2000
   -1.7100    8.6000   -1.8730 C   0  0  0  0  0  0  0  0  0  0  0  0
   -2.1010    9.1230   -0.4880 C   0  0  2  0  0  0  0  0  0  0  0  0
   -3.5970    9.4870   -0.4060 C   0  0  0  0  0  0  0  0  0  0  0  0
   -4.5170    8.2750   -0.2320 C   0  0  0  0  0  0  0  0  0  0  0  0
   -5.1970    7.9060   -1.5160 C   0  0  2  0  0  0  0  0  0  0  0  0
   -6.3260    8.7240   -1.8510 O   0  0  0  0  0  0  0  0  0  0  0  0
   -6.6020    7.3390   -1.5850 C   0  0  0  0  0  0  0  0  0  0  0  0
   -7.4120    7.1070   -0.3480 C   0  0  0  0  0  0  0  0  0  0  0  0
   -7.0010    6.5600   -2.8000 C   0  0  0  0  0  0  0  0  0  0  0  0
   -1.2500   10.3350   -0.1310 C   0  0  1  0  0  0  0  0  0  0  0  0
   -0.2340   10.0390    1.0050 C   0  0  0  0  0  0  0  0  0  0  0  0
    1.0390   10.8680    0.6950 C   0  0  0  0  0  0  0  0  0  0  0  0
    0.6000   11.8570   -0.4100 C   0  0  1  0  0  0  0  0  0  0  0  0
   -0.1210   13.0140    0.3510 C   0  0  0  0  0  0  0  0  0  0  0  0
    1.7320   12.3980   -1.3430 C   0  0  2  0  0  0  0  0  0  0  0  0
    2.8230   13.2200   -0.6360 C   0  0  0  0  0  0  0  0  0  0  0  0
    2.5680   14.6900   -0.5630 C   0  0  0  0  0  0  0  0  0  0  0  0
    1.6540   15.3610   -1.2880 C   0  0  0  0  0  0  0  0  0  0  0  0
    0.8270   14.6500   -2.3670 C   0  0  1  0  0  0  0  0  0  0  0  0
    0.8160   15.5060   -3.6600 C   0  0  0  0  0  0  0  0  0  0  0  0
    0.3460   16.9360   -3.4120 C   0  0  0  0  0  0  0  0  0  0  0  0
    1.2290   17.6290   -2.3770 C   0  0  2  0  0  0  0  0  0  0  0  0
    2.5380   17.7980   -2.9280 O   0  0  0  0  0  0  0  0  0  0  0  0
    1.3230   16.8520   -1.0340 C   0  0  0  0  0  0  0  0  0  0  0  0
   -0.0340   16.9290   -0.2920 C   0  0  0  0  0  0  0  0  0  0  0  0
    2.3530   17.5840   -0.1310 C   0  0  0  0  0  0  0  0  0  0  0  0
    1.2060   13.1310   -2.6430 C   0  0  1  0  0  0  0  0  0  0  0  0
    2.3550   13.0530   -3.6940 C   0  0  0  0  0  0  0  0  0  0  0  0
   -0.0330   12.4000   -3.2820 C   0  0  0  0  0  0  0  0  0  0  0  0
   -1.0550   11.7830   -2.3080 C   0  0  0  0  0  0  0  0  0  0  0  0
   -0.3540   10.9300   -1.2470 C   0  0  2  0  0  0  0  0  0  0  0  0
    0.3610    9.7450   -1.9810 C   0  0  0  0  0  0  0  0  0  0  0  0
   -1.0547    7.7235   -1.7624 H   0  0  0  0  0  0  0  0  0  0  0  0
   -2.6166    8.3126   -2.4258 H   0  0  0  0  0  0  0  0  0  0  0  0
   -1.1779    9.3882   -2.4258 H   0  0  0  0  0  0  0  0  0  0  0  0
   -1.9179    8.3144    0.2349 H   0  0  0  0  0  0  0  0  0  0  0  0
   -3.7440   10.1605    0.4512 H   0  0  0  0  0  0  0  0  0  0  0  0
   -3.8656    9.9598   -1.3622 H   0  0  0  0  0  0  0  0  0  0  0  0
   -3.9179    7.4193    0.1128 H   0  0  0  0  0  0  0  0  0  0  0  0
   -5.2920    8.5357    0.5038 H   0  0  0  0  0  0  0  0  0  0  0  0
   -4.2444    7.5713   -1.9525 H   0  0  0  0  0  0  0  0  0  0  0  0
   -6.7864    7.2862    0.5389 H   0  0  0  0  0  0  0  0  0  0  0  0
   -8.2697    7.7956   -0.3369 H   0  0  0  0  0  0  0  0  0  0  0  0
   -7.7751    6.0687   -0.3369 H   0  0  0  0  0  0  0  0  0  0  0  0
   -7.4823    5.6203   -2.4913 H   0  0  0  0  0  0  0  0  0  0  0  0
   -7.7063    7.1532   -3.4006 H   0  0  0  0  0  0  0  0  0  0  0  0
   -6.1075    6.3343   -3.4006 H   0  0  0  0  0  0  0  0  0  0  0  0
   -2.0463   11.0468    0.1321 H   0  0  0  0  0  0  0  0  0  0  0  0
   -0.6540   10.3391    1.9763 H   0  0  0  0  0  0  0  0  0  0  0  0
   -0.0024    8.9649    1.0573 H   0  0  0  0  0  0  0  0  0  0  0  0
    1.3767   11.4107    1.5902 H   0  0  0  0  0  0  0  0  0  0  0  0
    1.8820   10.2360    0.3788 H   0  0  0  0  0  0  0  0  0  0  0  0
   -0.0230   12.8567    1.4353 H   0  0  0  0  0  0  0  0  0  0  0  0
    0.3383   13.9752    0.0769 H   0  0  0  0  0  0  0  0  0  0  0  0
   -1.1863   13.0252    0.0769 H   0  0  0  0  0  0  0  0  0  0  0  0
    2.2248   11.4728   -1.6764 H   0  0  0  0  0  0  0  0  0  0  0  0
    2.9218   12.8408    0.3918 H   0  0  0  0  0  0  0  0  0  0  0  0
    3.7344   13.0990   -1.2399 H   0  0  0  0  0  0  0  0  0  0  0  0
    3.1784   15.2729    0.1424 H   0  0  0  0  0  0  0  0  0  0  0  0
   -0.1935   14.5706   -1.9641 H   0  0  0  0  0  0  0  0  0  0  0  0
    1.8358   15.5365   -4.0712 H   0  0  0  0  0  0  0  0  0  0  0  0
    0.1095   15.0399   -4.3625 H   0  0  0  0  0  0  0  0  0  0  0  0
    0.3895   17.4981   -4.3565 H   0  0  0  0  0  0  0  0  0  0  0  0
   -0.6850   16.9053   -3.0297 H   0  0  0  0  0  0  0  0  0  0  0  0
    0.7672   18.6002   -2.1456 H   0  0  0  0  0  0  0  0  0  0  0  0
    2.5770   17.2900   -3.7560 H   0  0  0  0  0  0  0  0  0  0  0  0
    0.1408   16.9191    0.7940 H   0  0  0  0  0  0  0  0  0  0  0  0
   -0.5525   17.8580   -0.5714 H   0  0  0  0  0  0  0  0  0  0  0  0
   -0.6543   16.0646   -0.5714 H   0  0  0  0  0  0  0  0  0  0  0  0
    2.1047   17.4075    0.9260 H   0  0  0  0  0  0  0  0  0  0  0  0
    3.3622   17.1994   -0.3397 H   0  0  0  0  0  0  0  0  0  0  0  0
    2.3216   18.6636   -0.3397 H   0  0  0  0  0  0  0  0  0  0  0  0
    3.3227   12.9873   -3.1751 H   0  0  0  0  0  0  0  0  0  0  0  0
    2.2156   12.1622   -4.3242 H   0  0  0  0  0  0  0  0  0  0  0  0
    2.3373   13.9544   -4.3242 H   0  0  0  0  0  0  0  0  0  0  0  0
   -0.5672   13.1331   -3.9042 H   0  0  0  0  0  0  0  0  0  0  0  0
    0.3895   11.5472   -3.8336 H   0  0  0  0  0  0  0  0  0  0  0  0
   -1.6113   12.5910   -1.8104 H   0  0  0  0  0  0  0  0  0  0  0  0
   -1.7402   11.1395   -2.8793 H   0  0  0  0  0  0  0  0  0  0  0  0
    0.7794    9.0516   -1.2366 H   0  0  0  0  0  0  0  0  0  0  0  0
   -0.3662    9.2117   -2.6109 H   0  0  0  0  0  0  0  0  0  0  0  0
    1.1718   10.1397   -2.6109 H   0  0  0  0  0  0  0  0  0  0  0  0
  1  2  1  0  0  0  0
  1 33  1  0  0  0  0
  1 34  1  0  0  0  0
  1 35  1  0  0  0  0
  2  3  1  0  0  0  0
  2 10  1  0  0  0  0
  2 36  1  1  0  0  0
  3  4  1  0  0  0  0
  3 37  1  0  0  0  0
  3 38  1  0  0  0  0
  4  5  1  0  0  0  0
  4 39  1  0  0  0  0
  4 40  1  0  0  0  0
  5  6  1  0  0  0  0
  5 41  1  6  0  0  0
  6  7  1  0  0  0  0
  7  8  1  0  0  0  0
  7  9  1  0  0  0  0
  7  5  1  0  0  0  0
  8 42  1  0  0  0  0
  8 43  1  0  0  0  0
  8 44  1  0  0  0  0
  9 45  1  0  0  0  0
  9 46  1  0  0  0  0
  9 47  1  0  0  0  0
 10 11  1  0  0  0  0
 10 48  1  1  0  0  0
 11 12  1  0  0  0  0
 11 49  1  0  0  0  0
 11 50  1  0  0  0  0
 12 13  1  0  0  0  0
 12 51  1  0  0  0  0
 12 52  1  0  0  0  0
 13 14  1  1  0  0  0
 13 15  1  0  0  0  0
 14 53  1  0  0  0  0
 14 54  1  0  0  0  0
 14 55  1  0  0  0  0
 15 16  1  0  0  0  0
 15 56  1  6  0  0  0
 16 17  1  0  0  0  0
 16 57  1  0  0  0  0
 16 58  1  0  0  0  0
 17 18  2  0  0  0  0
 17 59  1  0  0  0  0
 18 19  1  0  0  0  0
 19 20  1  0  0  0  0
 19 27  1  0  0  0  0
 19 60  1  1  0  0  0
 20 21  1  0  0  0  0
 20 61  1  0  0  0  0
 20 62  1  0  0  0  0
 21 22  1  0  0  0  0
 21 63  1  0  0  0  0
 21 64  1  0  0  0  0
 22 23  1  0  0  0  0
 22 24  1  0  0  0  0
 22 65  1  1  0  0  0
 23 66  1  0  0  0  0
 24 25  1  0  0  0  0
 24 26  1  0  0  0  0
 24 18  1  0  0  0  0
 25 67  1  0  0  0  0
 25 68  1  0  0  0  0
 25 69  1  0  0  0  0
 26 70  1  0  0  0  0
 26 71  1  0  0  0  0
 26 72  1  0  0  0  0
 27 28  1  6  0  0  0
 27 29  1  0  0  0  0
 27 15  1  0  0  0  0
 28 73  1  0  0  0  0
 28 74  1  0  0  0  0
 28 75  1  0  0  0  0
 29 30  1  0  0  0  0
 29 76  1  0  0  0  0
 29 77  1  0  0  0  0
 30 31  1  0  0  0  0
 30 78  1  0  0  0  0
 30 79  1  0  0  0  0
 31 32  1  6  0  0  0
 31 10  1  0  0  0  0
 31 13  1  0  0  0  0
 32 80  1  0  0  0  0
 32 81  1  0  0  0  0
 32 82  1  0  0  0  0
M  END
>  <meeko>
{"is_sidechain": [false], "intermolecular_energy": 2.731, "internal_energy": -0.839}

$$$$
