EPH_relaxed_0001_pdb2pqr_Repair_279_r2_0001_out
 OpenBabel07272616253D

 82 86  0  0  0  0  0  0  0  0999 V2000
   -1.7170    8.5830   -1.8760 C   0  0  0  0  0  0  0  0  0  0  0  0
   -2.0970    9.1000   -0.4860 C   0  0  2  0  0  0  0  0  0  0  0  0
   -3.5930    9.4620   -0.3900 C   0  0  0  0  0  0  0  0  0  0  0  0
   -4.5110    8.2470   -0.2290 C   0  0  0  0  0  0  0  0  0  0  0  0
   -5.2180    7.9130   -1.5070 C   0  0  2  0  0  0  0  0  0  0  0  0
   -6.3530    8.7390   -1.7980 O   0  0  0  0  0  0  0  0  0  0  0  0
   -6.6250    7.3480   -1.5630 C   0  0  0  0  0  0  0  0  0  0  0  0
   -7.4100    7.0850   -0.3160 C   0  0  0  0  0  0  0  0  0  0  0  0
   -7.0490    6.6010   -2.7880 C   0  0  0  0  0  0  0  0  0  0  0  0
   -1.2440   10.3120   -0.1310 C   0  0  1  0  0  0  0  0  0  0  0  0
   -0.2250   10.0150    1.0010 C   0  0  0  0  0  0  0  0  0  0  0  0
    1.0470   10.8440    0.6870 C   0  0  0  0  0  0  0  0  0  0  0  0
    0.6040   11.8340   -0.4150 C   0  0  1  0  0  0  0  0  0  0  0  0
   -0.1130   12.9910    0.3490 C   0  0  0  0  0  0  0  0  0  0  0  0
    1.7330   12.3750   -1.3520 C   0  0  2  0  0  0  0  0  0  0  0  0
    2.8270   13.1970   -0.6490 C   0  0  0  0  0  0  0  0  0  0  0  0
    2.5720   14.6660   -0.5740 C   0  0  0  0  0  0  0  0  0  0  0  0
    1.6560   15.3380   -1.2960 C   0  0  0  0  0  0  0  0  0  0  0  0
    0.8240   14.6280   -2.3710 C   0  0  1  0  0  0  0  0  0  0  0  0
    0.8100   15.4850   -3.6640 C   0  0  0  0  0  0  0  0  0  0  0  0
    0.3400   16.9150   -3.4140 C   0  0  0  0  0  0  0  0  0  0  0  0
    1.2270   17.6070   -2.3820 C   0  0  2  0  0  0  0  0  0  0  0  0
    2.5350   17.7760   -2.9370 O   0  0  0  0  0  0  0  0  0  0  0  0
    1.3260   16.8300   -1.0390 C   0  0  0  0  0  0  0  0  0  0  0  0
   -0.0280   16.9060   -0.2920 C   0  0  0  0  0  0  0  0  0  0  0  0
    2.3600   17.5600   -0.1400 C   0  0  0  0  0  0  0  0  0  0  0  0
    1.2020   13.1100   -2.6500 C   0  0  1  0  0  0  0  0  0  0  0  0
    2.3470   13.0310   -3.7050 C   0  0  0  0  0  0  0  0  0  0  0  0
   -0.0390   12.3790   -3.2850 C   0  0  0  0  0  0  0  0  0  0  0  0
   -1.0570   11.7620   -2.3080 C   0  0  0  0  0  0  0  0  0  0  0  0
   -0.3530   10.9070   -1.2490 C   0  0  2  0  0  0  0  0  0  0  0  0
    0.3590    9.7230   -1.9870 C   0  0  0  0  0  0  0  0  0  0  0  0
   -1.0683    7.7005   -1.7743 H   0  0  0  0  0  0  0  0  0  0  0  0
   -2.6285    8.3066   -2.4262 H   0  0  0  0  0  0  0  0  0  0  0  0
   -1.1811    9.3705   -2.4262 H   0  0  0  0  0  0  0  0  0  0  0  0
   -1.9070    8.2887    0.2321 H   0  0  0  0  0  0  0  0  0  0  0  0
   -3.7355   10.1224    0.4780 H   0  0  0  0  0  0  0  0  0  0  0  0
   -3.8674    9.9491   -1.3373 H   0  0  0  0  0  0  0  0  0  0  0  0
   -3.9062    7.3818    0.0804 H   0  0  0  0  0  0  0  0  0  0  0  0
   -5.2700    8.4890    0.5295 H   0  0  0  0  0  0  0  0  0  0  0  0
   -4.2743    7.5901   -1.9709 H   0  0  0  0  0  0  0  0  0  0  0  0
   -6.7830    7.2951    0.5631 H   0  0  0  0  0  0  0  0  0  0  0  0
   -8.2972    7.7350   -0.2973 H   0  0  0  0  0  0  0  0  0  0  0  0
   -7.7266    6.0317   -0.2973 H   0  0  0  0  0  0  0  0  0  0  0  0
   -7.5721    5.6794   -2.4928 H   0  0  0  0  0  0  0  0  0  0  0  0
   -7.7244    7.2305   -3.3859 H   0  0  0  0  0  0  0  0  0  0  0  0
   -6.1622    6.3438   -3.3859 H   0  0  0  0  0  0  0  0  0  0  0  0
   -2.0388   11.0242    0.1355 H   0  0  0  0  0  0  0  0  0  0  0  0
   -0.6417   10.3146    1.9739 H   0  0  0  0  0  0  0  0  0  0  0  0
    0.0064    8.9408    1.0521 H   0  0  0  0  0  0  0  0  0  0  0  0
    1.3883   11.3857    1.5815 H   0  0  0  0  0  0  0  0  0  0  0  0
    1.8887   10.2122    0.3669 H   0  0  0  0  0  0  0  0  0  0  0  0
   -0.0140   12.8313    1.4328 H   0  0  0  0  0  0  0  0  0  0  0  0
    0.3483   13.9516    0.0763 H   0  0  0  0  0  0  0  0  0  0  0  0
   -1.1786   13.0054    0.0763 H   0  0  0  0  0  0  0  0  0  0  0  0
    2.2240   11.4495   -1.6872 H   0  0  0  0  0  0  0  0  0  0  0  0
    2.9303   12.8171    0.3781 H   0  0  0  0  0  0  0  0  0  0  0  0
    3.7359   13.0766   -1.2569 H   0  0  0  0  0  0  0  0  0  0  0  0
    3.1841   15.2482    0.1305 H   0  0  0  0  0  0  0  0  0  0  0  0
   -0.1949   14.5486   -1.9640 H   0  0  0  0  0  0  0  0  0  0  0  0
    1.8289   15.5160   -4.0773 H   0  0  0  0  0  0  0  0  0  0  0  0
    0.1022   15.0191   -4.3654 H   0  0  0  0  0  0  0  0  0  0  0  0
    0.3799   17.4776   -4.3584 H   0  0  0  0  0  0  0  0  0  0  0  0
   -0.6898   16.8843   -3.0285 H   0  0  0  0  0  0  0  0  0  0  0  0
    0.7655   18.5780   -2.1493 H   0  0  0  0  0  0  0  0  0  0  0  0
    2.7580   18.7210   -2.8810 H   0  0  0  0  0  0  0  0  0  0  0  0
    0.1509   16.8960    0.7933 H   0  0  0  0  0  0  0  0  0  0  0  0
   -0.5481   17.8348   -0.5693 H   0  0  0  0  0  0  0  0  0  0  0  0
   -0.6488   16.0413   -0.5693 H   0  0  0  0  0  0  0  0  0  0  0  0
    2.1136   17.3860    0.9178 H   0  0  0  0  0  0  0  0  0  0  0  0
    3.3675   17.1719   -0.3504 H   0  0  0  0  0  0  0  0  0  0  0  0
    2.3315   18.6393   -0.3504 H   0  0  0  0  0  0  0  0  0  0  0  0
    3.3165   12.9641   -3.1896 H   0  0  0  0  0  0  0  0  0  0  0  0
    2.2044   12.1406   -4.3349 H   0  0  0  0  0  0  0  0  0  0  0  0
    2.3280   13.9326   -4.3349 H   0  0  0  0  0  0  0  0  0  0  0  0
   -0.5754   13.1122   -3.9052 H   0  0  0  0  0  0  0  0  0  0  0  0
    0.3816   11.5264   -3.8384 H   0  0  0  0  0  0  0  0  0  0  0  0
   -1.6110   12.5701   -1.8079 H   0  0  0  0  0  0  0  0  0  0  0  0
   -1.7441   11.1190   -2.8776 H   0  0  0  0  0  0  0  0  0  0  0  0
    0.7775    9.0271   -1.2450 H   0  0  0  0  0  0  0  0  0  0  0  0
   -0.3699    9.1924   -2.6171 H   0  0  0  0  0  0  0  0  0  0  0  0
    1.1695   10.1181   -2.6171 H   0  0  0  0  0  0  0  0  0  0  0  0
  1  2  1  0  0  0  0
  1 33  1  0  0  0  0
  1 34  1  0  0  0  0
  1 35  1  0  0  0  0
  2  3  1  0  0  0  0
  2 10  1  0  0  0  0
  2 36  1  1  0  0  0
  3  4  1  0  0  0  0
  3 37  1  0  0  0  0
  3 38  1  0  0  0  0
  4  5  1  0  0  0  0
  4 39  1  0  0  0  0
  4 40  1  0  0  0  0
  5  6  1  0  0  0  0
  5 41  1  6  0  0  0
  6  7  1  0  0  0  0
  7  8  1  0  0  0  0
  7  9  1  0  0  0  0
  7  5  1  0  0  0  0
  8 42  1  0  0  0  0
  8 43  1  0  0  0  0
  8 44  1  0  0  0  0
  9 45  1  0  0  0  0
  9 46  1  0  0  0  0
  9 47  1  0  0  0  0
 10 11  1  0  0  0  0
 10 48  1  1  0  0  0
 11 12  1  0  0  0  0
 11 49  1  0  0  0  0
 11 50  1  0  0  0  0
 12 13  1  0  0  0  0
 12 51  1  0  0  0  0
 12 52  1  0  0  0  0
 13 14  1  1  0  0  0
 13 15  1  0  0  0  0
 14 53  1  0  0  0  0
 14 54  1  0  0  0  0
 14 55  1  0  0  0  0
 15 16  1  0  0  0  0
 15 56  1  6  0  0  0
 16 17  1  0  0  0  0
 16 57  1  0  0  0  0
 16 58  1  0  0  0  0
 17 18  2  0  0  0  0
 17 59  1  0  0  0  0
 18 19  1  0  0  0  0
 19 20  1  0  0  0  0
 19 27  1  0  0  0  0
 19 60  1  1  0  0  0
 20 21  1  0  0  0  0
 20 61  1  0  0  0  0
 20 62  1  0  0  0  0
 21 22  1  0  0  0  0
 21 63  1  0  0  0  0
 21 64  1  0  0  0  0
 22 23  1  0  0  0  0
 22 24  1  0  0  0  0
 22 65  1  1  0  0  0
 23 66  1  0  0  0  0
 24 25  1  0  0  0  0
 24 26  1  0  0  0  0
 24 18  1  0  0  0  0
 25 67  1  0  0  0  0
 25 68  1  0  0  0  0
 25 69  1  0  0  0  0
 26 70  1  0  0  0  0
 26 71  1  0  0  0  0
 26 72  1  0  0  0  0
 27 28  1  6  0  0  0
 27 29  1  0  0  0  0
 27 15  1  0  0  0  0
 28 73  1  0  0  0  0
 28 74  1  0  0  0  0
 28 75  1  0  0  0  0
 29 30  1  0  0  0  0
 29 76  1  0  0  0  0
 29 77  1  0  0  0  0
 30 31  1  0  0  0  0
 30 78  1  0  0  0  0
 30 79  1  0  0  0  0
 31 32  1  6  0  0  0
 31 10  1  0  0  0  0
 31 13  1  0  0  0  0
 32 80  1  0  0  0  0
 32 81  1  0  0  0  0
 32 82  1  0  0  0  0
M  END
>  <meeko>
{"is_sidechain": [false], "intermolecular_energy": 2.731, "internal_energy": -0.839}

$$$$
