EPH_relaxed_0001_pdb2pqr_Repair_47_r2_0001_out
 OpenBabel07272616253D

 82 86  0  0  0  0  0  0  0  0999 V2000
   -1.5960    8.5670   -1.8130 C   0  0  0  0  0  0  0  0  0  0  0  0
   -2.0100    9.1520   -0.4600 C   0  0  2  0  0  0  0  0  0  0  0  0
   -3.4990    9.5540   -0.4320 C   0  0  0  0  0  0  0  0  0  0  0  0
   -4.4550    8.3660   -0.2950 C   0  0  0  0  0  0  0  0  0  0  0  0
   -5.0740    7.9990   -1.6100 C   0  0  2  0  0  0  0  0  0  0  0  0
   -6.3360    8.6280   -1.8730 O   0  0  0  0  0  0  0  0  0  0  0  0
   -6.3570    7.1980   -1.7360 C   0  0  0  0  0  0  0  0  0  0  0  0
   -7.0960    6.7140   -0.5280 C   0  0  0  0  0  0  0  0  0  0  0  0
   -6.6240    6.4730   -3.0180 C   0  0  0  0  0  0  0  0  0  0  0  0
   -1.1390   10.3560   -0.1260 C   0  0  1  0  0  0  0  0  0  0  0  0
   -0.0680   10.0390    0.9520 C   0  0  0  0  0  0  0  0  0  0  0  0
    1.1900   10.8700    0.5910 C   0  0  0  0  0  0  0  0  0  0  0  0
    0.6980   11.8800   -0.4730 C   0  0  1  0  0  0  0  0  0  0  0  0
    0.0200   13.0250    0.3430 C   0  0  0  0  0  0  0  0  0  0  0  0
    1.7830   12.4330   -1.4530 C   0  0  2  0  0  0  0  0  0  0  0  0
    2.9110   13.2420   -0.7880 C   0  0  0  0  0  0  0  0  0  0  0  0
    2.6640   14.7100   -0.6790 C   0  0  0  0  0  0  0  0  0  0  0  0
    1.7160   15.3960   -1.3450 C   0  0  0  0  0  0  0  0  0  0  0  0
    0.8330   14.7040   -2.3920 C   0  0  1  0  0  0  0  0  0  0  0  0
    0.7600   15.5820   -3.6690 C   0  0  0  0  0  0  0  0  0  0  0  0
    0.3060   17.0080   -3.3730 C   0  0  0  0  0  0  0  0  0  0  0  0
    1.2420   17.6820   -2.3730 C   0  0  2  0  0  0  0  0  0  0  0  0
    2.5230   17.8580   -2.9870 O   0  0  0  0  0  0  0  0  0  0  0  0
    1.4020   16.8830   -1.0490 C   0  0  0  0  0  0  0  0  0  0  0  0
    0.0840   16.9500   -0.2380 C   0  0  0  0  0  0  0  0  0  0  0  0
    2.4790   17.5970   -0.1880 C   0  0  0  0  0  0  0  0  0  0  0  0
    1.1940   13.1900   -2.7120 C   0  0  1  0  0  0  0  0  0  0  0  0
    2.2870   13.1270   -3.8210 C   0  0  0  0  0  0  0  0  0  0  0  0
   -0.0780   12.4720   -3.3000 C   0  0  0  0  0  0  0  0  0  0  0  0
   -1.0510   11.8400   -2.2860 C   0  0  0  0  0  0  0  0  0  0  0  0
   -0.3000   10.9680   -1.2760 C   0  0  2  0  0  0  0  0  0  0  0  0
    0.3740    9.7940   -2.0650 C   0  0  0  0  0  0  0  0  0  0  0  0
   -0.9674    7.6788   -1.6516 H   0  0  0  0  0  0  0  0  0  0  0  0
   -2.4947    8.2821   -2.3797 H   0  0  0  0  0  0  0  0  0  0  0  0
   -1.0284    9.3198   -2.3797 H   0  0  0  0  0  0  0  0  0  0  0  0
   -1.8658    8.3677    0.2976 H   0  0  0  0  0  0  0  0  0  0  0  0
   -3.6603   10.2296    0.4209 H   0  0  0  0  0  0  0  0  0  0  0  0
   -3.7202   10.0350   -1.3962 H   0  0  0  0  0  0  0  0  0  0  0  0
   -3.8955    7.5006    0.0897 H   0  0  0  0  0  0  0  0  0  0  0  0
   -5.2615    8.6523    0.3960 H   0  0  0  0  0  0  0  0  0  0  0  0
   -4.0825    7.8814   -2.0716 H   0  0  0  0  0  0  0  0  0  0  0  0
   -6.5768    7.0541    0.3801 H   0  0  0  0  0  0  0  0  0  0  0  0
   -8.1193    7.1174   -0.5381 H   0  0  0  0  0  0  0  0  0  0  0  0
   -7.1351    5.6147   -0.5381 H   0  0  0  0  0  0  0  0  0  0  0  0
   -6.9964    5.4619   -2.7967 H   0  0  0  0  0  0  0  0  0  0  0  0
   -7.3787    7.0225   -3.5997 H   0  0  0  0  0  0  0  0  0  0  0  0
   -5.6931    6.4018   -3.5997 H   0  0  0  0  0  0  0  0  0  0  0  0
   -1.9186   11.0649    0.1896 H   0  0  0  0  0  0  0  0  0  0  0  0
   -0.4373   10.3242    1.9481 H   0  0  0  0  0  0  0  0  0  0  0  0
    0.1625    8.9637    0.9754 H   0  0  0  0  0  0  0  0  0  0  0  0
    1.5754   11.3960    1.4769 H   0  0  0  0  0  0  0  0  0  0  0  0
    2.0132   10.2414    0.2205 H   0  0  0  0  0  0  0  0  0  0  0  0
    0.1370   12.8275    1.4188 H   0  0  0  0  0  0  0  0  0  0  0  0
    0.4954   13.9848    0.0926 H   0  0  0  0  0  0  0  0  0  0  0  0
   -1.0502   13.0696    0.0926 H   0  0  0  0  0  0  0  0  0  0  0  0
    2.2552   11.5123   -1.8262 H   0  0  0  0  0  0  0  0  0  0  0  0
    3.0601   12.8461    0.2274 H   0  0  0  0  0  0  0  0  0  0  0  0
    3.7908   13.1290   -1.4386 H   0  0  0  0  0  0  0  0  0  0  0  0
    3.3116   15.2799    0.0035 H   0  0  0  0  0  0  0  0  0  0  0  0
   -0.1660   14.6193   -1.9395 H   0  0  0  0  0  0  0  0  0  0  0  0
    1.7582   15.6182   -4.1296 H   0  0  0  0  0  0  0  0  0  0  0  0
    0.0190   15.1289   -4.3440 H   0  0  0  0  0  0  0  0  0  0  0  0
    0.3023   17.5862   -4.3088 H   0  0  0  0  0  0  0  0  0  0  0  0
   -0.7042   16.9720   -2.9392 H   0  0  0  0  0  0  0  0  0  0  0  0
    0.7947   18.6500   -2.1028 H   0  0  0  0  0  0  0  0  0  0  0  0
    2.6570   17.1190   -3.6040 H   0  0  0  0  0  0  0  0  0  0  0  0
    0.3143   16.9383    0.8376 H   0  0  0  0  0  0  0  0  0  0  0  0
   -0.4535   17.8766   -0.4878 H   0  0  0  0  0  0  0  0  0  0  0  0
   -0.5447   16.0827   -0.4878 H   0  0  0  0  0  0  0  0  0  0  0  0
    2.2540   17.4478    0.8784 H   0  0  0  0  0  0  0  0  0  0  0  0
    3.4693   17.1759   -0.4162 H   0  0  0  0  0  0  0  0  0  0  0  0
    2.4767   18.6731   -0.4162 H   0  0  0  0  0  0  0  0  0  0  0  0
    3.2810   13.0697   -3.3533 H   0  0  0  0  0  0  0  0  0  0  0  0
    2.1241   12.2368   -4.4462 H   0  0  0  0  0  0  0  0  0  0  0  0
    2.2274   14.0301   -4.4462 H   0  0  0  0  0  0  0  0  0  0  0  0
   -0.6411   13.2166   -3.8817 H   0  0  0  0  0  0  0  0  0  0  0  0
    0.3138   11.6281   -3.8869 H   0  0  0  0  0  0  0  0  0  0  0  0
   -1.5795   12.6404   -1.7475 H   0  0  0  0  0  0  0  0  0  0  0  0
   -1.7653   11.2071   -2.8330 H   0  0  0  0  0  0  0  0  0  0  0  0
    0.7917    9.0664   -1.3536 H   0  0  0  0  0  0  0  0  0  0  0  0
   -0.3772    9.2985   -2.6976 H   0  0  0  0  0  0  0  0  0  0  0  0
    1.1806   10.1929   -2.6976 H   0  0  0  0  0  0  0  0  0  0  0  0
  1  2  1  0  0  0  0
  1 33  1  0  0  0  0
  1 34  1  0  0  0  0
  1 35  1  0  0  0  0
  2  3  1  0  0  0  0
  2 10  1  0  0  0  0
  2 36  1  1  0  0  0
  3  4  1  0  0  0  0
  3 37  1  0  0  0  0
  3 38  1  0  0  0  0
  4  5  1  0  0  0  0
  4 39  1  0  0  0  0
  4 40  1  0  0  0  0
  5  6  1  0  0  0  0
  5 41  1  6  0  0  0
  6  7  1  0  0  0  0
  7  8  1  0  0  0  0
  7  9  1  0  0  0  0
  7  5  1  0  0  0  0
  8 42  1  0  0  0  0
  8 43  1  0  0  0  0
  8 44  1  0  0  0  0
  9 45  1  0  0  0  0
  9 46  1  0  0  0  0
  9 47  1  0  0  0  0
 10 11  1  0  0  0  0
 10 48  1  1  0  0  0
 11 12  1  0  0  0  0
 11 49  1  0  0  0  0
 11 50  1  0  0  0  0
 12 13  1  0  0  0  0
 12 51  1  0  0  0  0
 12 52  1  0  0  0  0
 13 14  1  1  0  0  0
 13 15  1  0  0  0  0
 14 53  1  0  0  0  0
 14 54  1  0  0  0  0
 14 55  1  0  0  0  0
 15 16  1  0  0  0  0
 15 56  1  6  0  0  0
 16 17  1  0  0  0  0
 16 57  1  0  0  0  0
 16 58  1  0  0  0  0
 17 18  2  0  0  0  0
 17 59  1  0  0  0  0
 18 19  1  0  0  0  0
 19 20  1  0  0  0  0
 19 27  1  0  0  0  0
 19 60  1  1  0  0  0
 20 21  1  0  0  0  0
 20 61  1  0  0  0  0
 20 62  1  0  0  0  0
 21 22  1  0  0  0  0
 21 63  1  0  0  0  0
 21 64  1  0  0  0  0
 22 23  1  0  0  0  0
 22 24  1  0  0  0  0
 22 65  1  1  0  0  0
 23 66  1  0  0  0  0
 24 25  1  0  0  0  0
 24 26  1  0  0  0  0
 24 18  1  0  0  0  0
 25 67  1  0  0  0  0
 25 68  1  0  0  0  0
 25 69  1  0  0  0  0
 26 70  1  0  0  0  0
 26 71  1  0  0  0  0
 26 72  1  0  0  0  0
 27 28  1  6  0  0  0
 27 29  1  0  0  0  0
 27 15  1  0  0  0  0
 28 73  1  0  0  0  0
 28 74  1  0  0  0  0
 28 75  1  0  0  0  0
 29 30  1  0  0  0  0
 29 76  1  0  0  0  0
 29 77  1  0  0  0  0
 30 31  1  0  0  0  0
 30 78  1  0  0  0  0
 30 79  1  0  0  0  0
 31 32  1  6  0  0  0
 31 10  1  0  0  0  0
 31 13  1  0  0  0  0
 32 80  1  0  0  0  0
 32 81  1  0  0  0  0
 32 82  1  0  0  0  0
M  END
>  <meeko>
{"is_sidechain": [false], "intermolecular_energy": 2.731, "internal_energy": -0.839}

$$$$
