EPH_relaxed_0001_pdb2pqr_Repair_9_r2_0001_out
 OpenBabel07272616253D

 82 86  0  0  0  0  0  0  0  0999 V2000
   -1.7190    8.5830   -1.8650 C   0  0  0  0  0  0  0  0  0  0  0  0
   -2.1040    9.1070   -0.4780 C   0  0  2  0  0  0  0  0  0  0  0  0
   -3.5980    9.4760   -0.3910 C   0  0  0  0  0  0  0  0  0  0  0  0
   -4.5220    8.2670   -0.2230 C   0  0  0  0  0  0  0  0  0  0  0  0
   -5.2180    7.9190   -1.5040 C   0  0  2  0  0  0  0  0  0  0  0  0
   -6.3520    8.7400   -1.8110 O   0  0  0  0  0  0  0  0  0  0  0  0
   -6.6240    7.3510   -1.5640 C   0  0  0  0  0  0  0  0  0  0  0  0
   -7.4180    7.0980   -0.3210 C   0  0  0  0  0  0  0  0  0  0  0  0
   -7.0370    6.5910   -2.7860 C   0  0  0  0  0  0  0  0  0  0  0  0
   -1.2470   10.3170   -0.1240 C   0  0  1  0  0  0  0  0  0  0  0  0
   -0.2250   10.0150    1.0040 C   0  0  0  0  0  0  0  0  0  0  0  0
    1.0480   10.8420    0.6860 C   0  0  0  0  0  0  0  0  0  0  0  0
    0.6050   11.8340   -0.4130 C   0  0  1  0  0  0  0  0  0  0  0  0
   -0.1080   12.9920    0.3550 C   0  0  0  0  0  0  0  0  0  0  0  0
    1.7320   12.3740   -1.3530 C   0  0  2  0  0  0  0  0  0  0  0  0
    2.8300   13.1920   -0.6520 C   0  0  0  0  0  0  0  0  0  0  0  0
    2.5790   14.6620   -0.5750 C   0  0  0  0  0  0  0  0  0  0  0  0
    1.6620   15.3370   -1.2930 C   0  0  0  0  0  0  0  0  0  0  0  0
    0.8260   14.6300   -2.3670 C   0  0  1  0  0  0  0  0  0  0  0  0
    0.8090   15.4880   -3.6590 C   0  0  0  0  0  0  0  0  0  0  0  0
    0.3440   16.9190   -3.4050 C   0  0  0  0  0  0  0  0  0  0  0  0
    1.2350   17.6080   -2.3750 C   0  0  2  0  0  0  0  0  0  0  0  0
    2.5420   17.7750   -2.9340 O   0  0  0  0  0  0  0  0  0  0  0  0
    1.3370   16.8290   -1.0340 C   0  0  0  0  0  0  0  0  0  0  0  0
   -0.0150   16.9080   -0.2820 C   0  0  0  0  0  0  0  0  0  0  0  0
    2.3750   17.5560   -0.1370 C   0  0  0  0  0  0  0  0  0  0  0  0
    1.1990   13.1110   -2.6480 C   0  0  1  0  0  0  0  0  0  0  0  0
    2.3400   13.0310   -3.7070 C   0  0  0  0  0  0  0  0  0  0  0  0
   -0.0460   12.3840   -3.2810 C   0  0  0  0  0  0  0  0  0  0  0  0
   -1.0630   11.7680   -2.3010 C   0  0  0  0  0  0  0  0  0  0  0  0
   -0.3580   10.9110   -1.2450 C   0  0  2  0  0  0  0  0  0  0  0  0
    0.3500    9.7260   -1.9870 C   0  0  0  0  0  0  0  0  0  0  0  0
   -1.0709    7.7008   -1.7568 H   0  0  0  0  0  0  0  0  0  0  0  0
   -2.6286    8.3041   -2.4171 H   0  0  0  0  0  0  0  0  0  0  0  0
   -1.1811    9.3677   -2.4171 H   0  0  0  0  0  0  0  0  0  0  0  0
   -1.9216    8.2977    0.2443 H   0  0  0  0  0  0  0  0  0  0  0  0
   -3.7409   10.1446    0.4707 H   0  0  0  0  0  0  0  0  0  0  0  0
   -3.8665    9.9557   -1.3438 H   0  0  0  0  0  0  0  0  0  0  0  0
   -3.9236    7.4037    0.1035 H   0  0  0  0  0  0  0  0  0  0  0  0
   -5.2874    8.5217    0.5249 H   0  0  0  0  0  0  0  0  0  0  0  0
   -4.2706    7.5934   -1.9583 H   0  0  0  0  0  0  0  0  0  0  0  0
   -6.7918    7.2975    0.5611 H   0  0  0  0  0  0  0  0  0  0  0  0
   -8.2956    7.7610   -0.3052 H   0  0  0  0  0  0  0  0  0  0  0  0
   -7.7502    6.0495   -0.3052 H   0  0  0  0  0  0  0  0  0  0  0  0
   -7.5423    5.6611   -2.4861 H   0  0  0  0  0  0  0  0  0  0  0  0
   -7.7252    7.2056   -3.3849 H   0  0  0  0  0  0  0  0  0  0  0  0
   -6.1469    6.3479   -3.3849 H   0  0  0  0  0  0  0  0  0  0  0  0
   -2.0386   11.0314    0.1464 H   0  0  0  0  0  0  0  0  0  0  0  0
   -0.6374   10.3139    1.9790 H   0  0  0  0  0  0  0  0  0  0  0  0
    0.0037    8.9402    1.0530 H   0  0  0  0  0  0  0  0  0  0  0  0
    1.3935   11.3819    1.5799 H   0  0  0  0  0  0  0  0  0  0  0  0
    1.8866   10.2082    0.3620 H   0  0  0  0  0  0  0  0  0  0  0  0
   -0.0080   12.8296    1.4383 H   0  0  0  0  0  0  0  0  0  0  0  0
    0.3557   13.9519    0.0838 H   0  0  0  0  0  0  0  0  0  0  0  0
   -1.1739   13.0101    0.0838 H   0  0  0  0  0  0  0  0  0  0  0  0
    2.2199   11.4481   -1.6916 H   0  0  0  0  0  0  0  0  0  0  0  0
    2.9348   12.8108    0.3745 H   0  0  0  0  0  0  0  0  0  0  0  0
    3.7371   13.0696   -1.2621 H   0  0  0  0  0  0  0  0  0  0  0  0
    3.1953   15.2421    0.1276 H   0  0  0  0  0  0  0  0  0  0  0  0
   -0.1919   14.5528   -1.9572 H   0  0  0  0  0  0  0  0  0  0  0  0
    1.8262   15.5167   -4.0767 H   0  0  0  0  0  0  0  0  0  0  0  0
    0.0972   15.0247   -4.3581 H   0  0  0  0  0  0  0  0  0  0  0  0
    0.3825   17.4828   -4.3487 H   0  0  0  0  0  0  0  0  0  0  0  0
   -0.6844   16.8898   -3.0157 H   0  0  0  0  0  0  0  0  0  0  0  0
    0.7759   18.5795   -2.1396 H   0  0  0  0  0  0  0  0  0  0  0  0
    2.4840   18.4660   -3.6150 H   0  0  0  0  0  0  0  0  0  0  0  0
    0.1676   16.8973    0.8027 H   0  0  0  0  0  0  0  0  0  0  0  0
   -0.5339   17.8380   -0.5573 H   0  0  0  0  0  0  0  0  0  0  0  0
   -0.6387   16.0448   -0.5573 H   0  0  0  0  0  0  0  0  0  0  0  0
    2.1294   17.3840    0.9213 H   0  0  0  0  0  0  0  0  0  0  0  0
    3.3808   17.1639   -0.3484 H   0  0  0  0  0  0  0  0  0  0  0  0
    2.3503   18.6352   -0.3484 H   0  0  0  0  0  0  0  0  0  0  0  0
    3.3112   12.9629   -3.1951 H   0  0  0  0  0  0  0  0  0  0  0  0
    2.1942   12.1409   -4.3366 H   0  0  0  0  0  0  0  0  0  0  0  0
    2.3198   13.9328   -4.3366 H   0  0  0  0  0  0  0  0  0  0  0  0
   -0.5824   13.1195   -3.8986 H   0  0  0  0  0  0  0  0  0  0  0  0
    0.3706   11.5314   -3.8373 H   0  0  0  0  0  0  0  0  0  0  0  0
   -1.6139   12.5768   -1.7987 H   0  0  0  0  0  0  0  0  0  0  0  0
   -1.7530   11.1268   -2.8691 H   0  0  0  0  0  0  0  0  0  0  0  0
    0.7675    9.0272   -1.2471 H   0  0  0  0  0  0  0  0  0  0  0  0
   -0.3813    9.1989   -2.6173 H   0  0  0  0  0  0  0  0  0  0  0  0
    1.1607   10.1202   -2.6173 H   0  0  0  0  0  0  0  0  0  0  0  0
  1  2  1  0  0  0  0
  1 33  1  0  0  0  0
  1 34  1  0  0  0  0
  1 35  1  0  0  0  0
  2  3  1  0  0  0  0
  2 10  1  0  0  0  0
  2 36  1  1  0  0  0
  3  4  1  0  0  0  0
  3 37  1  0  0  0  0
  3 38  1  0  0  0  0
  4  5  1  0  0  0  0
  4 39  1  0  0  0  0
  4 40  1  0  0  0  0
  5  6  1  0  0  0  0
  5 41  1  6  0  0  0
  6  7  1  0  0  0  0
  7  8  1  0  0  0  0
  7  9  1  0  0  0  0
  7  5  1  0  0  0  0
  8 42  1  0  0  0  0
  8 43  1  0  0  0  0
  8 44  1  0  0  0  0
  9 45  1  0  0  0  0
  9 46  1  0  0  0  0
  9 47  1  0  0  0  0
 10 11  1  0  0  0  0
 10 48  1  1  0  0  0
 11 12  1  0  0  0  0
 11 49  1  0  0  0  0
 11 50  1  0  0  0  0
 12 13  1  0  0  0  0
 12 51  1  0  0  0  0
 12 52  1  0  0  0  0
 13 14  1  1  0  0  0
 13 15  1  0  0  0  0
 14 53  1  0  0  0  0
 14 54  1  0  0  0  0
 14 55  1  0  0  0  0
 15 16  1  0  0  0  0
 15 56  1  6  0  0  0
 16 17  1  0  0  0  0
 16 57  1  0  0  0  0
 16 58  1  0  0  0  0
 17 18  2  0  0  0  0
 17 59  1  0  0  0  0
 18 19  1  0  0  0  0
 19 20  1  0  0  0  0
 19 27  1  0  0  0  0
 19 60  1  1  0  0  0
 20 21  1  0  0  0  0
 20 61  1  0  0  0  0
 20 62  1  0  0  0  0
 21 22  1  0  0  0  0
 21 63  1  0  0  0  0
 21 64  1  0  0  0  0
 22 23  1  0  0  0  0
 22 24  1  0  0  0  0
 22 65  1  1  0  0  0
 23 66  1  0  0  0  0
 24 25  1  0  0  0  0
 24 26  1  0  0  0  0
 24 18  1  0  0  0  0
 25 67  1  0  0  0  0
 25 68  1  0  0  0  0
 25 69  1  0  0  0  0
 26 70  1  0  0  0  0
 26 71  1  0  0  0  0
 26 72  1  0  0  0  0
 27 28  1  6  0  0  0
 27 29  1  0  0  0  0
 27 15  1  0  0  0  0
 28 73  1  0  0  0  0
 28 74  1  0  0  0  0
 28 75  1  0  0  0  0
 29 30  1  0  0  0  0
 29 76  1  0  0  0  0
 29 77  1  0  0  0  0
 30 31  1  0  0  0  0
 30 78  1  0  0  0  0
 30 79  1  0  0  0  0
 31 32  1  6  0  0  0
 31 10  1  0  0  0  0
 31 13  1  0  0  0  0
 32 80  1  0  0  0  0
 32 81  1  0  0  0  0
 32 82  1  0  0  0  0
M  END
>  <meeko>
{"is_sidechain": [false], "intermolecular_energy": 2.731, "internal_energy": -0.839}

$$$$
