EPH_relaxed_0001_pdb2pqr_Repair_5_r2_0001_out
 OpenBabel07272616253D

 82 86  0  0  0  0  0  0  0  0999 V2000
   -1.7220    8.5970   -1.8720 C   0  0  0  0  0  0  0  0  0  0  0  0
   -2.0900    9.1160   -0.4790 C   0  0  2  0  0  0  0  0  0  0  0  0
   -3.5830    9.4850   -0.3720 C   0  0  0  0  0  0  0  0  0  0  0  0
   -4.5050    8.2760   -0.1940 C   0  0  0  0  0  0  0  0  0  0  0  0
   -5.2070    7.9210   -1.4700 C   0  0  2  0  0  0  0  0  0  0  0  0
   -6.3400    8.7440   -1.7780 O   0  0  0  0  0  0  0  0  0  0  0  0
   -6.6150    7.3570   -1.5210 C   0  0  0  0  0  0  0  0  0  0  0  0
   -7.4040    7.1140   -0.2730 C   0  0  0  0  0  0  0  0  0  0  0  0
   -7.0340    6.5900   -2.7370 C   0  0  0  0  0  0  0  0  0  0  0  0
   -1.2280   10.3240   -0.1300 C   0  0  1  0  0  0  0  0  0  0  0  0
   -0.1960   10.0180    0.9870 C   0  0  0  0  0  0  0  0  0  0  0  0
    1.0750   10.8440    0.6600 C   0  0  0  0  0  0  0  0  0  0  0  0
    0.6220   11.8400   -0.4330 C   0  0  1  0  0  0  0  0  0  0  0  0
   -0.0820   12.9960    0.3460 C   0  0  0  0  0  0  0  0  0  0  0  0
    1.7410   12.3810   -1.3820 C   0  0  2  0  0  0  0  0  0  0  0  0
    2.8460   13.1960   -0.6890 C   0  0  0  0  0  0  0  0  0  0  0  0
    2.5980   14.6660   -0.6060 C   0  0  0  0  0  0  0  0  0  0  0  0
    1.6750   15.3440   -1.3130 C   0  0  0  0  0  0  0  0  0  0  0  0
    0.8270   14.6410   -2.3800 C   0  0  1  0  0  0  0  0  0  0  0  0
    0.7990   15.5030   -3.6700 C   0  0  0  0  0  0  0  0  0  0  0  0
    0.3370   16.9330   -3.4070 C   0  0  0  0  0  0  0  0  0  0  0  0
    1.2400   17.6180   -2.3840 C   0  0  2  0  0  0  0  0  0  0  0  0
    2.5410   17.7850   -2.9560 O   0  0  0  0  0  0  0  0  0  0  0  0
    1.3530   16.8350   -1.0460 C   0  0  0  0  0  0  0  0  0  0  0  0
    0.0090   16.9140   -0.2820 C   0  0  0  0  0  0  0  0  0  0  0  0
    2.4010   17.5590   -0.1570 C   0  0  0  0  0  0  0  0  0  0  0  0
    1.1960   13.1220   -2.6690 C   0  0  1  0  0  0  0  0  0  0  0  0
    2.3270   13.0440   -3.7400 C   0  0  0  0  0  0  0  0  0  0  0  0
   -0.0560   12.3980   -3.2920 C   0  0  0  0  0  0  0  0  0  0  0  0
   -1.0640   11.7810   -2.3040 C   0  0  0  0  0  0  0  0  0  0  0  0
   -0.3490   10.9200   -1.2580 C   0  0  2  0  0  0  0  0  0  0  0  0
    0.3490    9.7360   -2.0090 C   0  0  0  0  0  0  0  0  0  0  0  0
   -1.0882    7.7032   -1.7747 H   0  0  0  0  0  0  0  0  0  0  0  0
   -2.6394    8.3380   -2.4210 H   0  0  0  0  0  0  0  0  0  0  0  0
   -1.1741    9.3770   -2.4210 H   0  0  0  0  0  0  0  0  0  0  0  0
   -1.8992    8.3037    0.2377 H   0  0  0  0  0  0  0  0  0  0  0  0
   -3.7146   10.1523    0.4926 H   0  0  0  0  0  0  0  0  0  0  0  0
   -3.8637    9.9662   -1.3205 H   0  0  0  0  0  0  0  0  0  0  0  0
   -3.9042    7.4148    0.1338 H   0  0  0  0  0  0  0  0  0  0  0  0
   -5.2671    8.5337    0.5562 H   0  0  0  0  0  0  0  0  0  0  0  0
   -4.2624    7.5890   -1.9256 H   0  0  0  0  0  0  0  0  0  0  0  0
   -6.7707    7.3090    0.6050 H   0  0  0  0  0  0  0  0  0  0  0  0
   -8.2750    7.7855   -0.2533 H   0  0  0  0  0  0  0  0  0  0  0  0
   -7.7463    6.0688   -0.2533 H   0  0  0  0  0  0  0  0  0  0  0  0
   -7.5403    5.6631   -2.4295 H   0  0  0  0  0  0  0  0  0  0  0  0
   -7.7229    7.2023   -3.3374 H   0  0  0  0  0  0  0  0  0  0  0  0
   -6.1465    6.3411   -3.3374 H   0  0  0  0  0  0  0  0  0  0  0  0
   -2.0161   11.0386    0.1499 H   0  0  0  0  0  0  0  0  0  0  0  0
   -0.5989   10.3146    1.9666 H   0  0  0  0  0  0  0  0  0  0  0  0
    0.0320    8.9428    1.0304 H   0  0  0  0  0  0  0  0  0  0  0  0
    1.4293   11.3811    1.5522 H   0  0  0  0  0  0  0  0  0  0  0  0
    1.9102   10.2104    0.3269 H   0  0  0  0  0  0  0  0  0  0  0  0
    0.0218   12.8256    1.4277 H   0  0  0  0  0  0  0  0  0  0  0  0
    0.3853   13.9555    0.0795 H   0  0  0  0  0  0  0  0  0  0  0  0
   -1.1489   13.0212    0.0795 H   0  0  0  0  0  0  0  0  0  0  0  0
    2.2254   11.4559   -1.7278 H   0  0  0  0  0  0  0  0  0  0  0  0
    2.9595   12.8122    0.3356 H   0  0  0  0  0  0  0  0  0  0  0  0
    3.7473   13.0741   -1.3078 H   0  0  0  0  0  0  0  0  0  0  0  0
    3.2222   15.2435    0.0917 H   0  0  0  0  0  0  0  0  0  0  0  0
   -0.1869   14.5638   -1.9605 H   0  0  0  0  0  0  0  0  0  0  0  0
    1.8125   15.5325   -4.0967 H   0  0  0  0  0  0  0  0  0  0  0  0
    0.0812   15.0422   -4.3645 H   0  0  0  0  0  0  0  0  0  0  0  0
    0.3657   17.4998   -4.3493 H   0  0  0  0  0  0  0  0  0  0  0  0
   -0.6874   16.9034   -3.0074 H   0  0  0  0  0  0  0  0  0  0  0  0
    0.7859   18.5900   -2.1410 H   0  0  0  0  0  0  0  0  0  0  0  0
    2.8090   18.7090   -2.8120 H   0  0  0  0  0  0  0  0  0  0  0  0
    0.2016   16.9027    0.8009 H   0  0  0  0  0  0  0  0  0  0  0  0
   -0.5121   17.8443   -0.5520 H   0  0  0  0  0  0  0  0  0  0  0  0
   -0.6175   16.0511   -0.5520 H   0  0  0  0  0  0  0  0  0  0  0  0
    2.1600   17.3925    0.9033 H   0  0  0  0  0  0  0  0  0  0  0  0
    3.4031   17.1596   -0.3724 H   0  0  0  0  0  0  0  0  0  0  0  0
    2.3821   18.6375   -0.3724 H   0  0  0  0  0  0  0  0  0  0  0  0
    3.3034   12.9767   -3.2379 H   0  0  0  0  0  0  0  0  0  0  0  0
    2.1759   12.1541   -4.3687 H   0  0  0  0  0  0  0  0  0  0  0  0
    2.2994   13.9462   -4.3687 H   0  0  0  0  0  0  0  0  0  0  0  0
   -0.5974   13.1356   -3.9026 H   0  0  0  0  0  0  0  0  0  0  0  0
    0.3542   11.5463   -3.8544 H   0  0  0  0  0  0  0  0  0  0  0  0
   -1.6085   12.5891   -1.7937 H   0  0  0  0  0  0  0  0  0  0  0  0
   -1.7612   11.1428   -2.8667 H   0  0  0  0  0  0  0  0  0  0  0  0
    0.7649    9.0304   -1.2747 H   0  0  0  0  0  0  0  0  0  0  0  0
   -0.3876    9.2169   -2.6399 H   0  0  0  0  0  0  0  0  0  0  0  0
    1.1598   10.1291   -2.6399 H   0  0  0  0  0  0  0  0  0  0  0  0
  1  2  1  0  0  0  0
  1 33  1  0  0  0  0
  1 34  1  0  0  0  0
  1 35  1  0  0  0  0
  2  3  1  0  0  0  0
  2 10  1  0  0  0  0
  2 36  1  1  0  0  0
  3  4  1  0  0  0  0
  3 37  1  0  0  0  0
  3 38  1  0  0  0  0
  4  5  1  0  0  0  0
  4 39  1  0  0  0  0
  4 40  1  0  0  0  0
  5  6  1  0  0  0  0
  5 41  1  6  0  0  0
  6  7  1  0  0  0  0
  7  8  1  0  0  0  0
  7  9  1  0  0  0  0
  7  5  1  0  0  0  0
  8 42  1  0  0  0  0
  8 43  1  0  0  0  0
  8 44  1  0  0  0  0
  9 45  1  0  0  0  0
  9 46  1  0  0  0  0
  9 47  1  0  0  0  0
 10 11  1  0  0  0  0
 10 48  1  1  0  0  0
 11 12  1  0  0  0  0
 11 49  1  0  0  0  0
 11 50  1  0  0  0  0
 12 13  1  0  0  0  0
 12 51  1  0  0  0  0
 12 52  1  0  0  0  0
 13 14  1  1  0  0  0
 13 15  1  0  0  0  0
 14 53  1  0  0  0  0
 14 54  1  0  0  0  0
 14 55  1  0  0  0  0
 15 16  1  0  0  0  0
 15 56  1  6  0  0  0
 16 17  1  0  0  0  0
 16 57  1  0  0  0  0
 16 58  1  0  0  0  0
 17 18  2  0  0  0  0
 17 59  1  0  0  0  0
 18 19  1  0  0  0  0
 19 20  1  0  0  0  0
 19 27  1  0  0  0  0
 19 60  1  1  0  0  0
 20 21  1  0  0  0  0
 20 61  1  0  0  0  0
 20 62  1  0  0  0  0
 21 22  1  0  0  0  0
 21 63  1  0  0  0  0
 21 64  1  0  0  0  0
 22 23  1  0  0  0  0
 22 24  1  0  0  0  0
 22 65  1  1  0  0  0
 23 66  1  0  0  0  0
 24 25  1  0  0  0  0
 24 26  1  0  0  0  0
 24 18  1  0  0  0  0
 25 67  1  0  0  0  0
 25 68  1  0  0  0  0
 25 69  1  0  0  0  0
 26 70  1  0  0  0  0
 26 71  1  0  0  0  0
 26 72  1  0  0  0  0
 27 28  1  6  0  0  0
 27 29  1  0  0  0  0
 27 15  1  0  0  0  0
 28 73  1  0  0  0  0
 28 74  1  0  0  0  0
 28 75  1  0  0  0  0
 29 30  1  0  0  0  0
 29 76  1  0  0  0  0
 29 77  1  0  0  0  0
 30 31  1  0  0  0  0
 30 78  1  0  0  0  0
 30 79  1  0  0  0  0
 31 32  1  6  0  0  0
 31 10  1  0  0  0  0
 31 13  1  0  0  0  0
 32 80  1  0  0  0  0
 32 81  1  0  0  0  0
 32 82  1  0  0  0  0
M  END
>  <meeko>
{"is_sidechain": [false], "intermolecular_energy": 2.731, "internal_energy": -0.839}

$$$$
