EPH_relaxed_0001_pdb2pqr_Repair_415_r2_0001_out
 OpenBabel07272616253D

 82 86  0  0  0  0  0  0  0  0999 V2000
   -1.6050    8.5770   -1.8200 C   0  0  0  0  0  0  0  0  0  0  0  0
   -1.9980    9.1510   -0.4560 C   0  0  2  0  0  0  0  0  0  0  0  0
   -3.4850    9.5540   -0.4020 C   0  0  0  0  0  0  0  0  0  0  0  0
   -4.4410    8.3650   -0.2750 C   0  0  0  0  0  0  0  0  0  0  0  0
   -5.0760    8.0210   -1.5890 C   0  0  2  0  0  0  0  0  0  0  0  0
   -6.3380    8.6580   -1.8280 O   0  0  0  0  0  0  0  0  0  0  0  0
   -6.3620    7.2260   -1.7140 C   0  0  0  0  0  0  0  0  0  0  0  0
   -7.0890    6.7240   -0.5060 C   0  0  0  0  0  0  0  0  0  0  0  0
   -6.6450    6.5230   -3.0040 C   0  0  0  0  0  0  0  0  0  0  0  0
   -1.1200   10.3520   -0.1250 C   0  0  1  0  0  0  0  0  0  0  0  0
   -0.0380   10.0260    0.9390 C   0  0  0  0  0  0  0  0  0  0  0  0
    1.2180   10.8570    0.5690 C   0  0  0  0  0  0  0  0  0  0  0  0
    0.7160   11.8740   -0.4840 C   0  0  1  0  0  0  0  0  0  0  0  0
    0.0500   13.0150    0.3460 C   0  0  0  0  0  0  0  0  0  0  0  0
    1.7910   12.4310   -1.4730 C   0  0  2  0  0  0  0  0  0  0  0  0
    2.9280   13.2340   -0.8170 C   0  0  0  0  0  0  0  0  0  0  0  0
    2.6840   14.7020   -0.6960 C   0  0  0  0  0  0  0  0  0  0  0  0
    1.7310   15.3930   -1.3480 C   0  0  0  0  0  0  0  0  0  0  0  0
    0.8340   14.7090   -2.3880 C   0  0  1  0  0  0  0  0  0  0  0  0
    0.7480   15.5940   -3.6590 C   0  0  0  0  0  0  0  0  0  0  0  0
    0.3000   17.0200   -3.3500 C   0  0  0  0  0  0  0  0  0  0  0  0
    1.2490   17.6860   -2.3570 C   0  0  2  0  0  0  0  0  0  0  0  0
    2.5230   17.8630   -2.9840 O   0  0  0  0  0  0  0  0  0  0  0  0
    1.4230   16.8790   -1.0400 C   0  0  0  0  0  0  0  0  0  0  0  0
    0.1150   16.9440   -0.2140 C   0  0  0  0  0  0  0  0  0  0  0  0
    2.5100   17.5860   -0.1870 C   0  0  0  0  0  0  0  0  0  0  0  0
    1.1880   13.1960   -2.7210 C   0  0  1  0  0  0  0  0  0  0  0  0
    2.2690   13.1370   -3.8430 C   0  0  0  0  0  0  0  0  0  0  0  0
   -0.0910   12.4840   -3.2990 C   0  0  0  0  0  0  0  0  0  0  0  0
   -1.0540   11.8480   -2.2770 C   0  0  0  0  0  0  0  0  0  0  0  0
   -0.2930   10.9690   -1.2810 C   0  0  2  0  0  0  0  0  0  0  0  0
    0.3700    9.7980   -2.0840 C   0  0  0  0  0  0  0  0  0  0  0  0
   -0.9890    7.6772   -1.6755 H   0  0  0  0  0  0  0  0  0  0  0  0
   -2.5129    8.3133   -2.3822 H   0  0  0  0  0  0  0  0  0  0  0  0
   -1.0308    9.3281   -2.3822 H   0  0  0  0  0  0  0  0  0  0  0  0
   -1.8434    8.3601    0.2928 H   0  0  0  0  0  0  0  0  0  0  0  0
   -3.6346   10.2140    0.4652 H   0  0  0  0  0  0  0  0  0  0  0  0
   -3.7175   10.0529   -1.3544 H   0  0  0  0  0  0  0  0  0  0  0  0
   -3.8783    7.4924    0.0883 H   0  0  0  0  0  0  0  0  0  0  0  0
   -5.2393    8.6407    0.4298 H   0  0  0  0  0  0  0  0  0  0  0  0
   -4.0899    7.9078   -2.0632 H   0  0  0  0  0  0  0  0  0  0  0  0
   -6.5783    7.0767    0.4022 H   0  0  0  0  0  0  0  0  0  0  0  0
   -8.1219    7.1023   -0.5161 H   0  0  0  0  0  0  0  0  0  0  0  0
   -7.1012    5.6241   -0.5161 H   0  0  0  0  0  0  0  0  0  0  0  0
   -7.0483    5.5212   -2.7948 H   0  0  0  0  0  0  0  0  0  0  0  0
   -7.3806    7.1009   -3.5828 H   0  0  0  0  0  0  0  0  0  0  0  0
   -5.7142    6.4301   -3.5828 H   0  0  0  0  0  0  0  0  0  0  0  0
   -1.8941   11.0612    0.2033 H   0  0  0  0  0  0  0  0  0  0  0  0
   -0.3956   10.3057    1.9409 H   0  0  0  0  0  0  0  0  0  0  0  0
    0.1904    8.9501    0.9532 H   0  0  0  0  0  0  0  0  0  0  0  0
    1.6140   11.3773    1.4536 H   0  0  0  0  0  0  0  0  0  0  0  0
    2.0361   10.2291    0.1861 H   0  0  0  0  0  0  0  0  0  0  0  0
    0.1716   12.8067    1.4192 H   0  0  0  0  0  0  0  0  0  0  0  0
    0.5301   13.9741    0.1020 H   0  0  0  0  0  0  0  0  0  0  0  0
   -1.0212   13.0686    0.1020 H   0  0  0  0  0  0  0  0  0  0  0  0
    2.2580   11.5118   -1.8564 H   0  0  0  0  0  0  0  0  0  0  0  0
    3.0889   12.8316    0.1940 H   0  0  0  0  0  0  0  0  0  0  0  0
    3.7998   13.1238   -1.4787 H   0  0  0  0  0  0  0  0  0  0  0  0
    3.3389   15.2667   -0.0161 H   0  0  0  0  0  0  0  0  0  0  0  0
   -0.1597   14.6241   -1.9240 H   0  0  0  0  0  0  0  0  0  0  0  0
    1.7409   15.6308   -4.1309 H   0  0  0  0  0  0  0  0  0  0  0  0
   -0.0017   15.1460   -4.3277 H   0  0  0  0  0  0  0  0  0  0  0  0
    0.2869   17.6034   -4.2824 H   0  0  0  0  0  0  0  0  0  0  0  0
   -0.7054   16.9839   -2.9052 H   0  0  0  0  0  0  0  0  0  0  0  0
    0.8065   18.6532   -2.0763 H   0  0  0  0  0  0  0  0  0  0  0  0
    2.9600   18.6180   -2.5550 H   0  0  0  0  0  0  0  0  0  0  0  0
    0.3578   16.9319    0.8588 H   0  0  0  0  0  0  0  0  0  0  0  0
   -0.4265   17.8702   -0.4570 H   0  0  0  0  0  0  0  0  0  0  0  0
   -0.5156   16.0761   -0.4570 H   0  0  0  0  0  0  0  0  0  0  0  0
    2.2890   17.4423    0.8809 H   0  0  0  0  0  0  0  0  0  0  0  0
    3.4954   17.1555   -0.4187 H   0  0  0  0  0  0  0  0  0  0  0  0
    2.5160   18.6613   -0.4187 H   0  0  0  0  0  0  0  0  0  0  0  0
    3.2684   13.0825   -3.3867 H   0  0  0  0  0  0  0  0  0  0  0  0
    2.1017   12.2467   -4.4669 H   0  0  0  0  0  0  0  0  0  0  0  0
    2.1996   14.0403   -4.4669 H   0  0  0  0  0  0  0  0  0  0  0  0
   -0.6592   13.2328   -3.8703 H   0  0  0  0  0  0  0  0  0  0  0  0
    0.2925   11.6429   -3.8953 H   0  0  0  0  0  0  0  0  0  0  0  0
   -1.5746   12.6464   -1.7279 H   0  0  0  0  0  0  0  0  0  0  0  0
   -1.7761   11.2197   -2.8191 H   0  0  0  0  0  0  0  0  0  0  0  0
    0.7870    9.0615   -1.3813 H   0  0  0  0  0  0  0  0  0  0  0  0
   -0.3874    9.3127   -2.7172 H   0  0  0  0  0  0  0  0  0  0  0  0
    1.1758   10.1977   -2.7172 H   0  0  0  0  0  0  0  0  0  0  0  0
  1  2  1  0  0  0  0
  1 33  1  0  0  0  0
  1 34  1  0  0  0  0
  1 35  1  0  0  0  0
  2  3  1  0  0  0  0
  2 10  1  0  0  0  0
  2 36  1  1  0  0  0
  3  4  1  0  0  0  0
  3 37  1  0  0  0  0
  3 38  1  0  0  0  0
  4  5  1  0  0  0  0
  4 39  1  0  0  0  0
  4 40  1  0  0  0  0
  5  6  1  0  0  0  0
  5 41  1  6  0  0  0
  6  7  1  0  0  0  0
  7  8  1  0  0  0  0
  7  9  1  0  0  0  0
  7  5  1  0  0  0  0
  8 42  1  0  0  0  0
  8 43  1  0  0  0  0
  8 44  1  0  0  0  0
  9 45  1  0  0  0  0
  9 46  1  0  0  0  0
  9 47  1  0  0  0  0
 10 11  1  0  0  0  0
 10 48  1  1  0  0  0
 11 12  1  0  0  0  0
 11 49  1  0  0  0  0
 11 50  1  0  0  0  0
 12 13  1  0  0  0  0
 12 51  1  0  0  0  0
 12 52  1  0  0  0  0
 13 14  1  1  0  0  0
 13 15  1  0  0  0  0
 14 53  1  0  0  0  0
 14 54  1  0  0  0  0
 14 55  1  0  0  0  0
 15 16  1  0  0  0  0
 15 56  1  6  0  0  0
 16 17  1  0  0  0  0
 16 57  1  0  0  0  0
 16 58  1  0  0  0  0
 17 18  2  0  0  0  0
 17 59  1  0  0  0  0
 18 19  1  0  0  0  0
 19 20  1  0  0  0  0
 19 27  1  0  0  0  0
 19 60  1  1  0  0  0
 20 21  1  0  0  0  0
 20 61  1  0  0  0  0
 20 62  1  0  0  0  0
 21 22  1  0  0  0  0
 21 63  1  0  0  0  0
 21 64  1  0  0  0  0
 22 23  1  0  0  0  0
 22 24  1  0  0  0  0
 22 65  1  1  0  0  0
 23 66  1  0  0  0  0
 24 25  1  0  0  0  0
 24 26  1  0  0  0  0
 24 18  1  0  0  0  0
 25 67  1  0  0  0  0
 25 68  1  0  0  0  0
 25 69  1  0  0  0  0
 26 70  1  0  0  0  0
 26 71  1  0  0  0  0
 26 72  1  0  0  0  0
 27 28  1  6  0  0  0
 27 29  1  0  0  0  0
 27 15  1  0  0  0  0
 28 73  1  0  0  0  0
 28 74  1  0  0  0  0
 28 75  1  0  0  0  0
 29 30  1  0  0  0  0
 29 76  1  0  0  0  0
 29 77  1  0  0  0  0
 30 31  1  0  0  0  0
 30 78  1  0  0  0  0
 30 79  1  0  0  0  0
 31 32  1  6  0  0  0
 31 10  1  0  0  0  0
 31 13  1  0  0  0  0
 32 80  1  0  0  0  0
 32 81  1  0  0  0  0
 32 82  1  0  0  0  0
M  END
>  <meeko>
{"is_sidechain": [false], "intermolecular_energy": 2.731, "internal_energy": -0.839}

$$$$
