EPH_relaxed_0001_pdb2pqr_Repair_253_r2_0001_out
 OpenBabel07272616253D

 82 86  0  0  0  0  0  0  0  0999 V2000
   -1.6800    8.5540   -1.7720 C   0  0  0  0  0  0  0  0  0  0  0  0
   -2.1320    9.1010   -0.4150 C   0  0  2  0  0  0  0  0  0  0  0  0
   -3.6400    9.4240   -0.3920 C   0  0  0  0  0  0  0  0  0  0  0  0
   -4.5320    8.1870   -0.2580 C   0  0  0  0  0  0  0  0  0  0  0  0
   -5.2180    7.8560   -1.5480 C   0  0  2  0  0  0  0  0  0  0  0  0
   -6.3430    8.6880   -1.8590 O   0  0  0  0  0  0  0  0  0  0  0  0
   -6.6280    7.2990   -1.6280 C   0  0  0  0  0  0  0  0  0  0  0  0
   -7.4350    7.0410   -0.3950 C   0  0  0  0  0  0  0  0  0  0  0  0
   -7.0340    6.5540   -2.8610 C   0  0  0  0  0  0  0  0  0  0  0  0
   -1.3270   10.3460   -0.0610 C   0  0  1  0  0  0  0  0  0  0  0  0
   -0.3170   10.0980    1.0910 C   0  0  0  0  0  0  0  0  0  0  0  0
    0.9300   10.9660    0.7870 C   0  0  0  0  0  0  0  0  0  0  0  0
    0.4730   11.9270   -0.3360 C   0  0  1  0  0  0  0  0  0  0  0  0
   -0.2960   13.0670    0.4020 C   0  0  0  0  0  0  0  0  0  0  0  0
    1.5980   12.4940   -1.2610 C   0  0  2  0  0  0  0  0  0  0  0  0
    2.6510   13.3620   -0.5500 C   0  0  0  0  0  0  0  0  0  0  0  0
    2.3450   14.8220   -0.4990 C   0  0  0  0  0  0  0  0  0  0  0  0
    1.4190   15.4540   -1.2440 C   0  0  0  0  0  0  0  0  0  0  0  0
    0.6300   14.7020   -2.3240 C   0  0  1  0  0  0  0  0  0  0  0  0
    0.6080   15.5410   -3.6280 C   0  0  0  0  0  0  0  0  0  0  0  0
    0.0860   16.9570   -3.4040 C   0  0  0  0  0  0  0  0  0  0  0  0
    0.9310   17.6920   -2.3670 C   0  0  2  0  0  0  0  0  0  0  0  0
    2.2410   17.9000   -2.9030 O   0  0  0  0  0  0  0  0  0  0  0  0
    1.0340   16.9360   -1.0130 C   0  0  0  0  0  0  0  0  0  0  0  0
   -0.3350   16.9750   -0.2890 C   0  0  0  0  0  0  0  0  0  0  0  0
    2.0260   17.7130   -0.1060 C   0  0  0  0  0  0  0  0  0  0  0  0
    1.0650   13.1940   -2.5760 C   0  0  1  0  0  0  0  0  0  0  0  0
    2.2290   13.1420   -3.6120 C   0  0  0  0  0  0  0  0  0  0  0  0
   -0.1400   12.4130   -3.2230 C   0  0  0  0  0  0  0  0  0  0  0  0
   -1.1530   11.7730   -2.2540 C   0  0  0  0  0  0  0  0  0  0  0  0
   -0.4380   10.9570   -1.1730 C   0  0  2  0  0  0  0  0  0  0  0  0
    0.3270    9.7890   -1.8830 C   0  0  0  0  0  0  0  0  0  0  0  0
   -0.9864    7.7146   -1.6164 H   0  0  0  0  0  0  0  0  0  0  0  0
   -2.5568    8.2051   -2.3372 H   0  0  0  0  0  0  0  0  0  0  0  0
   -1.1721    9.3494   -2.3372 H   0  0  0  0  0  0  0  0  0  0  0  0
   -1.9509    8.3164    0.3344 H   0  0  0  0  0  0  0  0  0  0  0  0
   -3.8396   10.0901    0.4603 H   0  0  0  0  0  0  0  0  0  0  0  0
   -3.8832    9.8929   -1.3569 H   0  0  0  0  0  0  0  0  0  0  0  0
   -3.9112    7.3311    0.0455 H   0  0  0  0  0  0  0  0  0  0  0  0
   -5.3040    8.4011    0.4958 H   0  0  0  0  0  0  0  0  0  0  0  0
   -4.2683    7.5274   -1.9953 H   0  0  0  0  0  0  0  0  0  0  0  0
   -6.8186    7.2381    0.4945 H   0  0  0  0  0  0  0  0  0  0  0  0
   -8.3134    7.7031   -0.3865 H   0  0  0  0  0  0  0  0  0  0  0  0
   -7.7664    5.9921   -0.3865 H   0  0  0  0  0  0  0  0  0  0  0  0
   -7.5423    5.6213   -2.5752 H   0  0  0  0  0  0  0  0  0  0  0  0
   -7.7177    7.1764   -3.4570 H   0  0  0  0  0  0  0  0  0  0  0  0
   -6.1404    6.3168   -3.4570 H   0  0  0  0  0  0  0  0  0  0  0  0
   -2.1497   11.0337    0.1844 H   0  0  0  0  0  0  0  0  0  0  0  0
   -0.7597   10.3948    2.0533 H   0  0  0  0  0  0  0  0  0  0  0  0
   -0.0498    9.0332    1.1595 H   0  0  0  0  0  0  0  0  0  0  0  0
    1.2372   11.5304    1.6798 H   0  0  0  0  0  0  0  0  0  0  0  0
    1.7977   10.3592    0.4890 H   0  0  0  0  0  0  0  0  0  0  0  0
   -0.2024   12.9283    1.4892 H   0  0  0  0  0  0  0  0  0  0  0  0
    0.1308   14.0404    0.1185 H   0  0  0  0  0  0  0  0  0  0  0  0
   -1.3584   13.0359    0.1185 H   0  0  0  0  0  0  0  0  0  0  0  0
    2.1256   11.5819   -1.5767 H   0  0  0  0  0  0  0  0  0  0  0  0
    2.7489   12.9990    0.4837 H   0  0  0  0  0  0  0  0  0  0  0  0
    3.5741   13.2651   -1.1404 H   0  0  0  0  0  0  0  0  0  0  0  0
    2.9255   15.4335    0.2074 H   0  0  0  0  0  0  0  0  0  0  0  0
   -0.3925   14.5930   -1.9334 H   0  0  0  0  0  0  0  0  0  0  0  0
    1.6318   15.6014   -4.0257 H   0  0  0  0  0  0  0  0  0  0  0  0
   -0.0720   15.0424   -4.3344 H   0  0  0  0  0  0  0  0  0  0  0  0
    0.1226   17.5088   -4.3549 H   0  0  0  0  0  0  0  0  0  0  0  0
   -0.9483   16.8956   -3.0346 H   0  0  0  0  0  0  0  0  0  0  0  0
    0.4326   18.6492   -2.1542 H   0  0  0  0  0  0  0  0  0  0  0  0
    2.8570   17.3380   -2.4020 H   0  0  0  0  0  0  0  0  0  0  0  0
   -0.1745   16.9704    0.7992 H   0  0  0  0  0  0  0  0  0  0  0  0
   -0.8757   17.8889   -0.5761 H   0  0  0  0  0  0  0  0  0  0  0  0
   -0.9269   16.0934   -0.5761 H   0  0  0  0  0  0  0  0  0  0  0  0
    1.7833   17.5229    0.9499 H   0  0  0  0  0  0  0  0  0  0  0  0
    3.0526   17.3762   -0.3127 H   0  0  0  0  0  0  0  0  0  0  0  0
    1.9449   18.7904   -0.3127 H   0  0  0  0  0  0  0  0  0  0  0  0
    3.1912   13.0990   -3.0806 H   0  0  0  0  0  0  0  0  0  0  0  0
    2.1184   12.2479   -4.2432 H   0  0  0  0  0  0  0  0  0  0  0  0
    2.1986   14.0424   -4.2432 H   0  0  0  0  0  0  0  0  0  0  0  0
   -0.6906   13.1199   -3.8611 H   0  0  0  0  0  0  0  0  0  0  0  0
    0.3184   11.5690   -3.7593 H   0  0  0  0  0  0  0  0  0  0  0  0
   -1.7429   12.5676   -1.7737 H   0  0  0  0  0  0  0  0  0  0  0  0
   -1.8079   11.0993   -2.8261 H   0  0  0  0  0  0  0  0  0  0  0  0
    0.7636    9.1223   -1.1248 H   0  0  0  0  0  0  0  0  0  0  0  0
   -0.3740    9.2201   -2.5114 H   0  0  0  0  0  0  0  0  0  0  0  0
    1.1286   10.2043   -2.5114 H   0  0  0  0  0  0  0  0  0  0  0  0
  1  2  1  0  0  0  0
  1 33  1  0  0  0  0
  1 34  1  0  0  0  0
  1 35  1  0  0  0  0
  2  3  1  0  0  0  0
  2 10  1  0  0  0  0
  2 36  1  1  0  0  0
  3  4  1  0  0  0  0
  3 37  1  0  0  0  0
  3 38  1  0  0  0  0
  4  5  1  0  0  0  0
  4 39  1  0  0  0  0
  4 40  1  0  0  0  0
  5  6  1  0  0  0  0
  5 41  1  6  0  0  0
  6  7  1  0  0  0  0
  7  8  1  0  0  0  0
  7  9  1  0  0  0  0
  7  5  1  0  0  0  0
  8 42  1  0  0  0  0
  8 43  1  0  0  0  0
  8 44  1  0  0  0  0
  9 45  1  0  0  0  0
  9 46  1  0  0  0  0
  9 47  1  0  0  0  0
 10 11  1  0  0  0  0
 10 48  1  1  0  0  0
 11 12  1  0  0  0  0
 11 49  1  0  0  0  0
 11 50  1  0  0  0  0
 12 13  1  0  0  0  0
 12 51  1  0  0  0  0
 12 52  1  0  0  0  0
 13 14  1  1  0  0  0
 13 15  1  0  0  0  0
 14 53  1  0  0  0  0
 14 54  1  0  0  0  0
 14 55  1  0  0  0  0
 15 16  1  0  0  0  0
 15 56  1  6  0  0  0
 16 17  1  0  0  0  0
 16 57  1  0  0  0  0
 16 58  1  0  0  0  0
 17 18  2  0  0  0  0
 17 59  1  0  0  0  0
 18 19  1  0  0  0  0
 19 20  1  0  0  0  0
 19 27  1  0  0  0  0
 19 60  1  1  0  0  0
 20 21  1  0  0  0  0
 20 61  1  0  0  0  0
 20 62  1  0  0  0  0
 21 22  1  0  0  0  0
 21 63  1  0  0  0  0
 21 64  1  0  0  0  0
 22 23  1  0  0  0  0
 22 24  1  0  0  0  0
 22 65  1  1  0  0  0
 23 66  1  0  0  0  0
 24 25  1  0  0  0  0
 24 26  1  0  0  0  0
 24 18  1  0  0  0  0
 25 67  1  0  0  0  0
 25 68  1  0  0  0  0
 25 69  1  0  0  0  0
 26 70  1  0  0  0  0
 26 71  1  0  0  0  0
 26 72  1  0  0  0  0
 27 28  1  6  0  0  0
 27 29  1  0  0  0  0
 27 15  1  0  0  0  0
 28 73  1  0  0  0  0
 28 74  1  0  0  0  0
 28 75  1  0  0  0  0
 29 30  1  0  0  0  0
 29 76  1  0  0  0  0
 29 77  1  0  0  0  0
 30 31  1  0  0  0  0
 30 78  1  0  0  0  0
 30 79  1  0  0  0  0
 31 32  1  6  0  0  0
 31 10  1  0  0  0  0
 31 13  1  0  0  0  0
 32 80  1  0  0  0  0
 32 81  1  0  0  0  0
 32 82  1  0  0  0  0
M  END
>  <meeko>
{"is_sidechain": [false], "intermolecular_energy": 2.731, "internal_energy": -0.839}

$$$$
