EPH_relaxed_0001_pdb2pqr_Repair_68_r2_0001_out
 OpenBabel07272616253D

 82 86  0  0  0  0  0  0  0  0999 V2000
   -1.7020    8.5900   -1.8780 C   0  0  0  0  0  0  0  0  0  0  0  0
   -2.0780    9.1230   -0.4920 C   0  0  2  0  0  0  0  0  0  0  0  0
   -3.5690    9.5050   -0.4020 C   0  0  0  0  0  0  0  0  0  0  0  0
   -4.5040    8.3030   -0.2510 C   0  0  0  0  0  0  0  0  0  0  0  0
   -5.2120    7.9860   -1.5330 C   0  0  2  0  0  0  0  0  0  0  0  0
   -6.3780    8.7820   -1.7860 O   0  0  0  0  0  0  0  0  0  0  0  0
   -6.5990    7.3750   -1.5950 C   0  0  0  0  0  0  0  0  0  0  0  0
   -7.3620    7.0430   -0.3500 C   0  0  0  0  0  0  0  0  0  0  0  0
   -7.0090    6.6540   -2.8410 C   0  0  0  0  0  0  0  0  0  0  0  0
   -1.2090   10.3260   -0.1450 C   0  0  1  0  0  0  0  0  0  0  0  0
   -0.1660   10.0110    0.9600 C   0  0  0  0  0  0  0  0  0  0  0  0
    1.1030   10.8350    0.6250 C   0  0  0  0  0  0  0  0  0  0  0  0
    0.6420   11.8400   -0.4570 C   0  0  1  0  0  0  0  0  0  0  0  0
   -0.0510   12.9930    0.3350 C   0  0  0  0  0  0  0  0  0  0  0  0
    1.7520   12.3830   -1.4140 C   0  0  2  0  0  0  0  0  0  0  0  0
    2.8670   13.1910   -0.7280 C   0  0  0  0  0  0  0  0  0  0  0  0
    2.6230   14.6610   -0.6330 C   0  0  0  0  0  0  0  0  0  0  0  0
    1.6950   15.3460   -1.3270 C   0  0  0  0  0  0  0  0  0  0  0  0
    0.8340   14.6520   -2.3900 C   0  0  1  0  0  0  0  0  0  0  0  0
    0.7950   15.5210   -3.6740 C   0  0  0  0  0  0  0  0  0  0  0  0
    0.3410   16.9510   -3.3980 C   0  0  0  0  0  0  0  0  0  0  0  0
    1.2550   17.6280   -2.3800 C   0  0  2  0  0  0  0  0  0  0  0  0
    2.5510   17.7950   -2.9640 O   0  0  0  0  0  0  0  0  0  0  0  0
    1.3800   16.8370   -1.0480 C   0  0  0  0  0  0  0  0  0  0  0  0
    0.0440   16.9140   -0.2690 C   0  0  0  0  0  0  0  0  0  0  0  0
    2.4380   17.5520   -0.1650 C   0  0  0  0  0  0  0  0  0  0  0  0
    1.1960   13.1340   -2.6920 C   0  0  1  0  0  0  0  0  0  0  0  0
    2.3160   13.0590   -3.7740 C   0  0  0  0  0  0  0  0  0  0  0  0
   -0.0640   12.4170   -3.3060 C   0  0  0  0  0  0  0  0  0  0  0  0
   -1.0630   11.7960   -2.3120 C   0  0  0  0  0  0  0  0  0  0  0  0
   -0.3400   10.9270   -1.2780 C   0  0  2  0  0  0  0  0  0  0  0  0
    0.3480    9.7460   -2.0430 C   0  0  0  0  0  0  0  0  0  0  0  0
   -1.0711    7.6956   -1.7681 H   0  0  0  0  0  0  0  0  0  0  0  0
   -2.6164    8.3281   -2.4306 H   0  0  0  0  0  0  0  0  0  0  0  0
   -1.1485    9.3635   -2.4306 H   0  0  0  0  0  0  0  0  0  0  0  0
   -1.9005    8.3152    0.2333 H   0  0  0  0  0  0  0  0  0  0  0  0
   -3.7068   10.1636    0.4682 H   0  0  0  0  0  0  0  0  0  0  0  0
   -3.8318    9.9997   -1.3487 H   0  0  0  0  0  0  0  0  0  0  0  0
   -3.9124    7.4276    0.0552 H   0  0  0  0  0  0  0  0  0  0  0  0
   -5.2619    8.5516    0.5064 H   0  0  0  0  0  0  0  0  0  0  0  0
   -4.2627    7.7108   -2.0159 H   0  0  0  0  0  0  0  0  0  0  0  0
   -6.7582    7.3057    0.5311 H   0  0  0  0  0  0  0  0  0  0  0  0
   -8.3025    7.6133   -0.3333 H   0  0  0  0  0  0  0  0  0  0  0  0
   -7.5858    5.9661   -0.3333 H   0  0  0  0  0  0  0  0  0  0  0  0
   -7.5362    5.7269   -2.5715 H   0  0  0  0  0  0  0  0  0  0  0  0
   -7.6768    7.2966   -3.4336 H   0  0  0  0  0  0  0  0  0  0  0  0
   -6.1153    6.4086   -3.4336 H   0  0  0  0  0  0  0  0  0  0  0  0
   -1.9927   11.0406    0.1470 H   0  0  0  0  0  0  0  0  0  0  0  0
   -0.5581   10.3031    1.9453 H   0  0  0  0  0  0  0  0  0  0  0  0
    0.0596    8.9350    0.9949 H   0  0  0  0  0  0  0  0  0  0  0  0
    1.4683   11.3652    1.5169 H   0  0  0  0  0  0  0  0  0  0  0  0
    1.9325   10.2009    0.2788 H   0  0  0  0  0  0  0  0  0  0  0  0
    0.0573   12.8128    1.4147 H   0  0  0  0  0  0  0  0  0  0  0  0
    0.4205   13.9520    0.0742 H   0  0  0  0  0  0  0  0  0  0  0  0
   -1.1191   13.0266    0.0742 H   0  0  0  0  0  0  0  0  0  0  0  0
    2.2294   11.4581   -1.7699 H   0  0  0  0  0  0  0  0  0  0  0  0
    2.9911   12.8003    0.2928 H   0  0  0  0  0  0  0  0  0  0  0  0
    3.7612   13.0709   -1.3573 H   0  0  0  0  0  0  0  0  0  0  0  0
    3.2549   15.2324    0.0628 H   0  0  0  0  0  0  0  0  0  0  0  0
   -0.1758   14.5757   -1.9605 H   0  0  0  0  0  0  0  0  0  0  0  0
    1.8038   15.5494   -4.1115 H   0  0  0  0  0  0  0  0  0  0  0  0
    0.0680   15.0666   -4.3632 H   0  0  0  0  0  0  0  0  0  0  0  0
    0.3627   17.5230   -4.3373 H   0  0  0  0  0  0  0  0  0  0  0  0
   -0.6794   16.9219   -2.9882 H   0  0  0  0  0  0  0  0  0  0  0  0
    0.8051   18.5993   -2.1268 H   0  0  0  0  0  0  0  0  0  0  0  0
    2.5800   18.6790   -3.3670 H   0  0  0  0  0  0  0  0  0  0  0  0
    0.2485   16.9022    0.8118 H   0  0  0  0  0  0  0  0  0  0  0  0
   -0.4811   17.8439   -0.5327 H   0  0  0  0  0  0  0  0  0  0  0  0
   -0.5845   16.0506   -0.5327 H   0  0  0  0  0  0  0  0  0  0  0  0
    2.1992   17.3906    0.8966 H   0  0  0  0  0  0  0  0  0  0  0  0
    3.4351   17.1419   -0.3830 H   0  0  0  0  0  0  0  0  0  0  0  0
    2.4293   18.6302   -0.3830 H   0  0  0  0  0  0  0  0  0  0  0  0
    3.2975   12.9933   -3.2818 H   0  0  0  0  0  0  0  0  0  0  0  0
    2.1603   12.1693   -4.4018 H   0  0  0  0  0  0  0  0  0  0  0  0
    2.2803   13.9615   -4.4018 H   0  0  0  0  0  0  0  0  0  0  0  0
   -0.6100   13.1598   -3.9061 H   0  0  0  0  0  0  0  0  0  0  0  0
    0.3384   11.5678   -3.8778 H   0  0  0  0  0  0  0  0  0  0  0  0
   -1.6008   12.6021   -1.7915 H   0  0  0  0  0  0  0  0  0  0  0  0
   -1.7666   11.1624   -2.8719 H   0  0  0  0  0  0  0  0  0  0  0  0
    0.7640    9.0319   -1.3171 H   0  0  0  0  0  0  0  0  0  0  0  0
   -0.3945    9.2363   -2.6746 H   0  0  0  0  0  0  0  0  0  0  0  0
    1.1576   10.1405   -2.6746 H   0  0  0  0  0  0  0  0  0  0  0  0
  1  2  1  0  0  0  0
  1 33  1  0  0  0  0
  1 34  1  0  0  0  0
  1 35  1  0  0  0  0
  2  3  1  0  0  0  0
  2 10  1  0  0  0  0
  2 36  1  1  0  0  0
  3  4  1  0  0  0  0
  3 37  1  0  0  0  0
  3 38  1  0  0  0  0
  4  5  1  0  0  0  0
  4 39  1  0  0  0  0
  4 40  1  0  0  0  0
  5  6  1  0  0  0  0
  5 41  1  6  0  0  0
  6  7  1  0  0  0  0
  7  8  1  0  0  0  0
  7  9  1  0  0  0  0
  7  5  1  0  0  0  0
  8 42  1  0  0  0  0
  8 43  1  0  0  0  0
  8 44  1  0  0  0  0
  9 45  1  0  0  0  0
  9 46  1  0  0  0  0
  9 47  1  0  0  0  0
 10 11  1  0  0  0  0
 10 48  1  1  0  0  0
 11 12  1  0  0  0  0
 11 49  1  0  0  0  0
 11 50  1  0  0  0  0
 12 13  1  0  0  0  0
 12 51  1  0  0  0  0
 12 52  1  0  0  0  0
 13 14  1  1  0  0  0
 13 15  1  0  0  0  0
 14 53  1  0  0  0  0
 14 54  1  0  0  0  0
 14 55  1  0  0  0  0
 15 16  1  0  0  0  0
 15 56  1  6  0  0  0
 16 17  1  0  0  0  0
 16 57  1  0  0  0  0
 16 58  1  0  0  0  0
 17 18  2  0  0  0  0
 17 59  1  0  0  0  0
 18 19  1  0  0  0  0
 19 20  1  0  0  0  0
 19 27  1  0  0  0  0
 19 60  1  1  0  0  0
 20 21  1  0  0  0  0
 20 61  1  0  0  0  0
 20 62  1  0  0  0  0
 21 22  1  0  0  0  0
 21 63  1  0  0  0  0
 21 64  1  0  0  0  0
 22 23  1  0  0  0  0
 22 24  1  0  0  0  0
 22 65  1  1  0  0  0
 23 66  1  0  0  0  0
 24 25  1  0  0  0  0
 24 26  1  0  0  0  0
 24 18  1  0  0  0  0
 25 67  1  0  0  0  0
 25 68  1  0  0  0  0
 25 69  1  0  0  0  0
 26 70  1  0  0  0  0
 26 71  1  0  0  0  0
 26 72  1  0  0  0  0
 27 28  1  6  0  0  0
 27 29  1  0  0  0  0
 27 15  1  0  0  0  0
 28 73  1  0  0  0  0
 28 74  1  0  0  0  0
 28 75  1  0  0  0  0
 29 30  1  0  0  0  0
 29 76  1  0  0  0  0
 29 77  1  0  0  0  0
 30 31  1  0  0  0  0
 30 78  1  0  0  0  0
 30 79  1  0  0  0  0
 31 32  1  6  0  0  0
 31 10  1  0  0  0  0
 31 13  1  0  0  0  0
 32 80  1  0  0  0  0
 32 81  1  0  0  0  0
 32 82  1  0  0  0  0
M  END
>  <meeko>
{"is_sidechain": [false], "intermolecular_energy": 2.731, "internal_energy": -0.839}

$$$$
