EPH_relaxed_0001_pdb2pqr_Repair_206_r2_0001_out
 OpenBabel07272616253D

 82 86  0  0  0  0  0  0  0  0999 V2000
   -1.5580    8.4850   -1.7440 C   0  0  0  0  0  0  0  0  0  0  0  0
   -1.9710    9.1080   -0.4080 C   0  0  2  0  0  0  0  0  0  0  0  0
   -3.4530    9.5340   -0.4000 C   0  0  0  0  0  0  0  0  0  0  0  0
   -4.4300    8.3620   -0.2710 C   0  0  0  0  0  0  0  0  0  0  0  0
   -5.0900    8.0440   -1.5790 C   0  0  2  0  0  0  0  0  0  0  0  0
   -6.3360    8.7170   -1.8000 O   0  0  0  0  0  0  0  0  0  0  0  0
   -6.3980    7.2850   -1.6930 C   0  0  0  0  0  0  0  0  0  0  0  0
   -7.1250    6.7960   -0.4800 C   0  0  0  0  0  0  0  0  0  0  0  0
   -6.7170    6.5980   -2.9840 C   0  0  0  0  0  0  0  0  0  0  0  0
   -1.0830   10.3070   -0.0970 C   0  0  1  0  0  0  0  0  0  0  0  0
    0.0390    9.9710    0.9210 C   0  0  0  0  0  0  0  0  0  0  0  0
    1.2790   10.8080    0.5130 C   0  0  0  0  0  0  0  0  0  0  0  0
    0.7370   11.8350   -0.5090 C   0  0  1  0  0  0  0  0  0  0  0  0
    0.1010   12.9670    0.3580 C   0  0  0  0  0  0  0  0  0  0  0  0
    1.7730   12.4040   -1.5310 C   0  0  2  0  0  0  0  0  0  0  0  0
    2.9330   13.2010   -0.9100 C   0  0  0  0  0  0  0  0  0  0  0  0
    2.6930   14.6680   -0.7640 C   0  0  0  0  0  0  0  0  0  0  0  0
    1.7150   15.3650   -1.3720 C   0  0  0  0  0  0  0  0  0  0  0  0
    0.7810   14.6910   -2.3850 C   0  0  1  0  0  0  0  0  0  0  0  0
    0.6470   15.5890   -3.6420 C   0  0  0  0  0  0  0  0  0  0  0  0
    0.2100   17.0110   -3.3020 C   0  0  0  0  0  0  0  0  0  0  0  0
    1.1940   17.6680   -2.3370 C   0  0  2  0  0  0  0  0  0  0  0  0
    2.4430   17.8530   -3.0100 O   0  0  0  0  0  0  0  0  0  0  0  0
    1.4180   16.8470   -1.0370 C   0  0  0  0  0  0  0  0  0  0  0  0
    0.1410   16.9010   -0.1610 C   0  0  0  0  0  0  0  0  0  0  0  0
    2.5360   17.5460   -0.2170 C   0  0  0  0  0  0  0  0  0  0  0  0
    1.1240   13.1820   -2.7470 C   0  0  1  0  0  0  0  0  0  0  0  0
    2.1620   13.1360   -3.9100 C   0  0  0  0  0  0  0  0  0  0  0  0
   -0.1760   12.4740   -3.2850 C   0  0  0  0  0  0  0  0  0  0  0  0
   -1.0990   11.8260   -2.2350 C   0  0  0  0  0  0  0  0  0  0  0  0
   -0.3000   10.9370   -1.2770 C   0  0  2  0  0  0  0  0  0  0  0  0
    0.3330    9.7760   -2.1170 C   0  0  0  0  0  0  0  0  0  0  0  0
   -0.9590    7.5814   -1.5576 H   0  0  0  0  0  0  0  0  0  0  0  0
   -2.4577    8.2167   -2.3172 H   0  0  0  0  0  0  0  0  0  0  0  0
   -0.9605    9.2092   -2.3172 H   0  0  0  0  0  0  0  0  0  0  0  0
   -1.8438    8.3398    0.3690 H   0  0  0  0  0  0  0  0  0  0  0  0
   -3.6139   10.2152    0.4486 H   0  0  0  0  0  0  0  0  0  0  0  0
   -3.6543   10.0150   -1.3686 H   0  0  0  0  0  0  0  0  0  0  0  0
   -3.8791    7.4751    0.0753 H   0  0  0  0  0  0  0  0  0  0  0  0
   -5.2126    8.6454    0.4481 H   0  0  0  0  0  0  0  0  0  0  0  0
   -4.1130    7.9069   -2.0655 H   0  0  0  0  0  0  0  0  0  0  0  0
   -6.6056    7.1454    0.4245 H   0  0  0  0  0  0  0  0  0  0  0  0
   -8.1532    7.1868   -0.4864 H   0  0  0  0  0  0  0  0  0  0  0  0
   -7.1507    5.6963   -0.4864 H   0  0  0  0  0  0  0  0  0  0  0  0
   -7.1719    5.6184   -2.7754 H   0  0  0  0  0  0  0  0  0  0  0  0
   -7.4214    7.2136   -3.5627 H   0  0  0  0  0  0  0  0  0  0  0  0
   -5.7922    6.4571   -3.5627 H   0  0  0  0  0  0  0  0  0  0  0  0
   -1.8450   11.0114    0.2681 H   0  0  0  0  0  0  0  0  0  0  0  0
   -0.2805   10.2389    1.9389 H   0  0  0  0  0  0  0  0  0  0  0  0
    0.2691    8.8954    0.9143 H   0  0  0  0  0  0  0  0  0  0  0  0
    1.7073   11.3194    1.3877 H   0  0  0  0  0  0  0  0  0  0  0  0
    2.0828   10.1856    0.0929 H   0  0  0  0  0  0  0  0  0  0  0  0
    0.2337   12.7308    1.4241 H   0  0  0  0  0  0  0  0  0  0  0  0
    0.5936   13.9238    0.1304 H   0  0  0  0  0  0  0  0  0  0  0  0
   -0.9724   13.0440    0.1304 H   0  0  0  0  0  0  0  0  0  0  0  0
    2.2252   11.4890   -1.9413 H   0  0  0  0  0  0  0  0  0  0  0  0
    3.1322   12.7880    0.0899 H   0  0  0  0  0  0  0  0  0  0  0  0
    3.7791   13.0988   -1.6055 H   0  0  0  0  0  0  0  0  0  0  0  0
    3.3731   15.2261   -0.1037 H   0  0  0  0  0  0  0  0  0  0  0  0
   -0.1948   14.5998   -1.8854 H   0  0  0  0  0  0  0  0  0  0  0  0
    1.6216   15.6317   -4.1502 H   0  0  0  0  0  0  0  0  0  0  0  0
   -0.1271   15.1472   -4.2867 H   0  0  0  0  0  0  0  0  0  0  0  0
    0.1627   17.6041   -4.2272 H   0  0  0  0  0  0  0  0  0  0  0  0
   -0.7785   16.9691   -2.8212 H   0  0  0  0  0  0  0  0  0  0  0  0
    0.7613   18.6311   -2.0284 H   0  0  0  0  0  0  0  0  0  0  0  0
    2.3610   17.4640   -3.8970 H   0  0  0  0  0  0  0  0  0  0  0  0
    0.4246   16.8890    0.9017 H   0  0  0  0  0  0  0  0  0  0  0  0
   -0.4161   17.8235   -0.3814 H   0  0  0  0  0  0  0  0  0  0  0  0
   -0.4920   16.0288   -0.3814 H   0  0  0  0  0  0  0  0  0  0  0  0
    2.3356   17.4207    0.8573 H   0  0  0  0  0  0  0  0  0  0  0  0
    3.5083   17.0947   -0.4637 H   0  0  0  0  0  0  0  0  0  0  0  0
    2.5561   18.6178   -0.4637 H   0  0  0  0  0  0  0  0  0  0  0  0
    3.1787   13.0909   -3.4925 H   0  0  0  0  0  0  0  0  0  0  0  0
    1.9800   12.2450   -4.5289 H   0  0  0  0  0  0  0  0  0  0  0  0
    2.0595   14.0396   -4.5289 H   0  0  0  0  0  0  0  0  0  0  0  0
   -0.7659   13.2282   -3.8265 H   0  0  0  0  0  0  0  0  0  0  0  0
    0.1857   11.6400   -3.9044 H   0  0  0  0  0  0  0  0  0  0  0  0
   -1.5996   12.6177   -1.6583 H   0  0  0  0  0  0  0  0  0  0  0  0
   -1.8401   11.2025   -2.7565 H   0  0  0  0  0  0  0  0  0  0  0  0
    0.7473    9.0160   -1.4382 H   0  0  0  0  0  0  0  0  0  0  0  0
   -0.4405    9.3184   -2.7513 H   0  0  0  0  0  0  0  0  0  0  0  0
    1.1366   10.1783   -2.7513 H   0  0  0  0  0  0  0  0  0  0  0  0
  1  2  1  0  0  0  0
  1 33  1  0  0  0  0
  1 34  1  0  0  0  0
  1 35  1  0  0  0  0
  2  3  1  0  0  0  0
  2 10  1  0  0  0  0
  2 36  1  1  0  0  0
  3  4  1  0  0  0  0
  3 37  1  0  0  0  0
  3 38  1  0  0  0  0
  4  5  1  0  0  0  0
  4 39  1  0  0  0  0
  4 40  1  0  0  0  0
  5  6  1  0  0  0  0
  5 41  1  6  0  0  0
  6  7  1  0  0  0  0
  7  8  1  0  0  0  0
  7  9  1  0  0  0  0
  7  5  1  0  0  0  0
  8 42  1  0  0  0  0
  8 43  1  0  0  0  0
  8 44  1  0  0  0  0
  9 45  1  0  0  0  0
  9 46  1  0  0  0  0
  9 47  1  0  0  0  0
 10 11  1  0  0  0  0
 10 48  1  1  0  0  0
 11 12  1  0  0  0  0
 11 49  1  0  0  0  0
 11 50  1  0  0  0  0
 12 13  1  0  0  0  0
 12 51  1  0  0  0  0
 12 52  1  0  0  0  0
 13 14  1  1  0  0  0
 13 15  1  0  0  0  0
 14 53  1  0  0  0  0
 14 54  1  0  0  0  0
 14 55  1  0  0  0  0
 15 16  1  0  0  0  0
 15 56  1  6  0  0  0
 16 17  1  0  0  0  0
 16 57  1  0  0  0  0
 16 58  1  0  0  0  0
 17 18  2  0  0  0  0
 17 59  1  0  0  0  0
 18 19  1  0  0  0  0
 19 20  1  0  0  0  0
 19 27  1  0  0  0  0
 19 60  1  1  0  0  0
 20 21  1  0  0  0  0
 20 61  1  0  0  0  0
 20 62  1  0  0  0  0
 21 22  1  0  0  0  0
 21 63  1  0  0  0  0
 21 64  1  0  0  0  0
 22 23  1  0  0  0  0
 22 24  1  0  0  0  0
 22 65  1  1  0  0  0
 23 66  1  0  0  0  0
 24 25  1  0  0  0  0
 24 26  1  0  0  0  0
 24 18  1  0  0  0  0
 25 67  1  0  0  0  0
 25 68  1  0  0  0  0
 25 69  1  0  0  0  0
 26 70  1  0  0  0  0
 26 71  1  0  0  0  0
 26 72  1  0  0  0  0
 27 28  1  6  0  0  0
 27 29  1  0  0  0  0
 27 15  1  0  0  0  0
 28 73  1  0  0  0  0
 28 74  1  0  0  0  0
 28 75  1  0  0  0  0
 29 30  1  0  0  0  0
 29 76  1  0  0  0  0
 29 77  1  0  0  0  0
 30 31  1  0  0  0  0
 30 78  1  0  0  0  0
 30 79  1  0  0  0  0
 31 32  1  6  0  0  0
 31 10  1  0  0  0  0
 31 13  1  0  0  0  0
 32 80  1  0  0  0  0
 32 81  1  0  0  0  0
 32 82  1  0  0  0  0
M  END
>  <meeko>
{"is_sidechain": [false], "intermolecular_energy": 2.731, "internal_energy": -0.839}

$$$$
