EPH_relaxed_0001_pdb2pqr_Repair_55_r2_0001_out
 OpenBabel07272616253D

 82 86  0  0  0  0  0  0  0  0999 V2000
   -1.7030    8.5800   -1.8510 C   0  0  0  0  0  0  0  0  0  0  0  0
   -2.0950    9.1130   -0.4700 C   0  0  2  0  0  0  0  0  0  0  0  0
   -3.5890    9.4850   -0.3940 C   0  0  0  0  0  0  0  0  0  0  0  0
   -4.5150    8.2790   -0.2110 C   0  0  0  0  0  0  0  0  0  0  0  0
   -5.1920    7.9000   -1.4940 C   0  0  2  0  0  0  0  0  0  0  0  0
   -6.3430    8.6900   -1.8190 O   0  0  0  0  0  0  0  0  0  0  0  0
   -6.5830    7.2970   -1.5590 C   0  0  0  0  0  0  0  0  0  0  0  0
   -7.3800    7.0380   -0.3190 C   0  0  0  0  0  0  0  0  0  0  0  0
   -6.9670    6.5150   -2.7760 C   0  0  0  0  0  0  0  0  0  0  0  0
   -1.2390   10.3240   -0.1180 C   0  0  1  0  0  0  0  0  0  0  0  0
   -0.2150   10.0240    1.0090 C   0  0  0  0  0  0  0  0  0  0  0  0
    1.0570   10.8510    0.6900 C   0  0  0  0  0  0  0  0  0  0  0  0
    0.6110   11.8430   -0.4100 C   0  0  1  0  0  0  0  0  0  0  0  0
   -0.1010   13.0000    0.3590 C   0  0  0  0  0  0  0  0  0  0  0  0
    1.7370   12.3820   -1.3510 C   0  0  2  0  0  0  0  0  0  0  0  0
    2.8350   13.2020   -0.6520 C   0  0  0  0  0  0  0  0  0  0  0  0
    2.5830   14.6720   -0.5760 C   0  0  0  0  0  0  0  0  0  0  0  0
    1.6640   15.3460   -1.2930 C   0  0  0  0  0  0  0  0  0  0  0  0
    0.8270   14.6380   -2.3650 C   0  0  1  0  0  0  0  0  0  0  0  0
    0.8080   15.4950   -3.6580 C   0  0  0  0  0  0  0  0  0  0  0  0
    0.3420   16.9260   -3.4040 C   0  0  0  0  0  0  0  0  0  0  0  0
    1.2340   17.6160   -2.3750 C   0  0  2  0  0  0  0  0  0  0  0  0
    2.5390   17.7830   -2.9370 O   0  0  0  0  0  0  0  0  0  0  0  0
    1.3380   16.8380   -1.0340 C   0  0  0  0  0  0  0  0  0  0  0  0
   -0.0130   16.9160   -0.2810 C   0  0  0  0  0  0  0  0  0  0  0  0
    2.3760   17.5660   -0.1390 C   0  0  0  0  0  0  0  0  0  0  0  0
    1.2010   13.1190   -2.6460 C   0  0  1  0  0  0  0  0  0  0  0  0
    2.3410   13.0390   -3.7070 C   0  0  0  0  0  0  0  0  0  0  0  0
   -0.0440   12.3900   -3.2770 C   0  0  0  0  0  0  0  0  0  0  0  0
   -1.0590   11.7740   -2.2950 C   0  0  0  0  0  0  0  0  0  0  0  0
   -0.3520   10.9180   -1.2400 C   0  0  2  0  0  0  0  0  0  0  0  0
    0.3560    9.7330   -1.9820 C   0  0  0  0  0  0  0  0  0  0  0  0
   -1.0550    7.6989   -1.7336 H   0  0  0  0  0  0  0  0  0  0  0  0
   -2.6097    8.2970   -2.4057 H   0  0  0  0  0  0  0  0  0  0  0  0
   -1.1627    9.3612   -2.4057 H   0  0  0  0  0  0  0  0  0  0  0  0
   -1.9175    8.3076    0.2579 H   0  0  0  0  0  0  0  0  0  0  0  0
   -3.7343   10.1667    0.4570 H   0  0  0  0  0  0  0  0  0  0  0  0
   -3.8537    9.9507   -1.3547 H   0  0  0  0  0  0  0  0  0  0  0  0
   -3.9210    7.4242    0.1447 H   0  0  0  0  0  0  0  0  0  0  0  0
   -5.2915    8.5506    0.5193 H   0  0  0  0  0  0  0  0  0  0  0  0
   -4.2333    7.5926   -1.9371 H   0  0  0  0  0  0  0  0  0  0  0  0
   -6.7581    7.2401    0.5655 H   0  0  0  0  0  0  0  0  0  0  0  0
   -8.2614    7.6959   -0.3056 H   0  0  0  0  0  0  0  0  0  0  0  0
   -7.7063    5.9876   -0.3056 H   0  0  0  0  0  0  0  0  0  0  0  0
   -7.4328    5.5665   -2.4705 H   0  0  0  0  0  0  0  0  0  0  0  0
   -7.6814    7.0978   -3.3760 H   0  0  0  0  0  0  0  0  0  0  0  0
   -6.0690    6.3060   -3.3760 H   0  0  0  0  0  0  0  0  0  0  0  0
   -2.0312   11.0375    0.1527 H   0  0  0  0  0  0  0  0  0  0  0  0
   -0.6266   10.3233    1.9842 H   0  0  0  0  0  0  0  0  0  0  0  0
    0.0148    8.9494    1.0578 H   0  0  0  0  0  0  0  0  0  0  0  0
    1.4031   11.3915    1.5834 H   0  0  0  0  0  0  0  0  0  0  0  0
    1.8961   10.2179    0.3658 H   0  0  0  0  0  0  0  0  0  0  0  0
   -0.0005   12.8367    1.4422 H   0  0  0  0  0  0  0  0  0  0  0  0
    0.3628   13.9600    0.0884 H   0  0  0  0  0  0  0  0  0  0  0  0
   -1.1670   13.0186    0.0884 H   0  0  0  0  0  0  0  0  0  0  0  0
    2.2257   11.4562   -1.6888 H   0  0  0  0  0  0  0  0  0  0  0  0
    2.9413   12.8219    0.3748 H   0  0  0  0  0  0  0  0  0  0  0  0
    3.7414   13.0800   -1.2632 H   0  0  0  0  0  0  0  0  0  0  0  0
    3.2002   15.2532    0.1249 H   0  0  0  0  0  0  0  0  0  0  0  0
   -0.1902   14.5607   -1.9534 H   0  0  0  0  0  0  0  0  0  0  0  0
    1.8247   15.5242   -4.0768 H   0  0  0  0  0  0  0  0  0  0  0  0
    0.0961   15.0307   -4.3563 H   0  0  0  0  0  0  0  0  0  0  0  0
    0.3790   17.4895   -4.3480 H   0  0  0  0  0  0  0  0  0  0  0  0
   -0.6860   16.8963   -3.0137 H   0  0  0  0  0  0  0  0  0  0  0  0
    0.7753   18.5873   -2.1382 H   0  0  0  0  0  0  0  0  0  0  0  0
    2.5320   17.3840   -3.8230 H   0  0  0  0  0  0  0  0  0  0  0  0
    0.1706   16.9054    0.8035 H   0  0  0  0  0  0  0  0  0  0  0  0
   -0.5328   17.8457   -0.5558 H   0  0  0  0  0  0  0  0  0  0  0  0
   -0.6364   16.0523   -0.5558 H   0  0  0  0  0  0  0  0  0  0  0  0
    2.1316   17.3946    0.9197 H   0  0  0  0  0  0  0  0  0  0  0  0
    3.3818   17.1744   -0.3512 H   0  0  0  0  0  0  0  0  0  0  0  0
    2.3504   18.6450   -0.3512 H   0  0  0  0  0  0  0  0  0  0  0  0
    3.3129   12.9708   -3.1964 H   0  0  0  0  0  0  0  0  0  0  0  0
    2.1942   12.1489   -4.3365 H   0  0  0  0  0  0  0  0  0  0  0  0
    2.3200   13.9408   -4.3365 H   0  0  0  0  0  0  0  0  0  0  0  0
   -0.5819   13.1242   -3.8947 H   0  0  0  0  0  0  0  0  0  0  0  0
    0.3728   11.5373   -3.8331 H   0  0  0  0  0  0  0  0  0  0  0  0
   -1.6094   12.5828   -1.7921 H   0  0  0  0  0  0  0  0  0  0  0  0
   -1.7497   11.1322   -2.8616 H   0  0  0  0  0  0  0  0  0  0  0  0
    0.7735    9.0342   -1.2421 H   0  0  0  0  0  0  0  0  0  0  0  0
   -0.3753    9.2059   -2.6123 H   0  0  0  0  0  0  0  0  0  0  0  0
    1.1667   10.1272   -2.6123 H   0  0  0  0  0  0  0  0  0  0  0  0
  1  2  1  0  0  0  0
  1 33  1  0  0  0  0
  1 34  1  0  0  0  0
  1 35  1  0  0  0  0
  2  3  1  0  0  0  0
  2 10  1  0  0  0  0
  2 36  1  1  0  0  0
  3  4  1  0  0  0  0
  3 37  1  0  0  0  0
  3 38  1  0  0  0  0
  4  5  1  0  0  0  0
  4 39  1  0  0  0  0
  4 40  1  0  0  0  0
  5  6  1  0  0  0  0
  5 41  1  6  0  0  0
  6  7  1  0  0  0  0
  7  8  1  0  0  0  0
  7  9  1  0  0  0  0
  7  5  1  0  0  0  0
  8 42  1  0  0  0  0
  8 43  1  0  0  0  0
  8 44  1  0  0  0  0
  9 45  1  0  0  0  0
  9 46  1  0  0  0  0
  9 47  1  0  0  0  0
 10 11  1  0  0  0  0
 10 48  1  1  0  0  0
 11 12  1  0  0  0  0
 11 49  1  0  0  0  0
 11 50  1  0  0  0  0
 12 13  1  0  0  0  0
 12 51  1  0  0  0  0
 12 52  1  0  0  0  0
 13 14  1  1  0  0  0
 13 15  1  0  0  0  0
 14 53  1  0  0  0  0
 14 54  1  0  0  0  0
 14 55  1  0  0  0  0
 15 16  1  0  0  0  0
 15 56  1  6  0  0  0
 16 17  1  0  0  0  0
 16 57  1  0  0  0  0
 16 58  1  0  0  0  0
 17 18  2  0  0  0  0
 17 59  1  0  0  0  0
 18 19  1  0  0  0  0
 19 20  1  0  0  0  0
 19 27  1  0  0  0  0
 19 60  1  1  0  0  0
 20 21  1  0  0  0  0
 20 61  1  0  0  0  0
 20 62  1  0  0  0  0
 21 22  1  0  0  0  0
 21 63  1  0  0  0  0
 21 64  1  0  0  0  0
 22 23  1  0  0  0  0
 22 24  1  0  0  0  0
 22 65  1  1  0  0  0
 23 66  1  0  0  0  0
 24 25  1  0  0  0  0
 24 26  1  0  0  0  0
 24 18  1  0  0  0  0
 25 67  1  0  0  0  0
 25 68  1  0  0  0  0
 25 69  1  0  0  0  0
 26 70  1  0  0  0  0
 26 71  1  0  0  0  0
 26 72  1  0  0  0  0
 27 28  1  6  0  0  0
 27 29  1  0  0  0  0
 27 15  1  0  0  0  0
 28 73  1  0  0  0  0
 28 74  1  0  0  0  0
 28 75  1  0  0  0  0
 29 30  1  0  0  0  0
 29 76  1  0  0  0  0
 29 77  1  0  0  0  0
 30 31  1  0  0  0  0
 30 78  1  0  0  0  0
 30 79  1  0  0  0  0
 31 32  1  6  0  0  0
 31 10  1  0  0  0  0
 31 13  1  0  0  0  0
 32 80  1  0  0  0  0
 32 81  1  0  0  0  0
 32 82  1  0  0  0  0
M  END
>  <meeko>
{"is_sidechain": [false], "intermolecular_energy": 2.731, "internal_energy": -0.839}

$$$$
