EPH_relaxed_0001_pdb2pqr_Repair_156_r2_0001_out
 OpenBabel07272616253D

 82 86  0  0  0  0  0  0  0  0999 V2000
   -1.6920    8.5890   -1.8810 C   0  0  0  0  0  0  0  0  0  0  0  0
   -2.0750    9.1150   -0.4950 C   0  0  2  0  0  0  0  0  0  0  0  0
   -3.5690    9.4830   -0.4050 C   0  0  0  0  0  0  0  0  0  0  0  0
   -4.4950    8.2710   -0.2710 C   0  0  0  0  0  0  0  0  0  0  0  0
   -5.1830    7.9530   -1.5640 C   0  0  2  0  0  0  0  0  0  0  0  0
   -6.3560    8.7340   -1.8250 O   0  0  0  0  0  0  0  0  0  0  0  0
   -6.5620    7.3240   -1.6450 C   0  0  0  0  0  0  0  0  0  0  0  0
   -7.3340    6.9740   -0.4110 C   0  0  0  0  0  0  0  0  0  0  0  0
   -6.9470    6.6050   -2.9000 C   0  0  0  0  0  0  0  0  0  0  0  0
   -1.2180   10.3260   -0.1440 C   0  0  1  0  0  0  0  0  0  0  0  0
   -0.1880   10.0240    0.9780 C   0  0  0  0  0  0  0  0  0  0  0  0
    1.0810   10.8540    0.6540 C   0  0  0  0  0  0  0  0  0  0  0  0
    0.6280   11.8480   -0.4410 C   0  0  1  0  0  0  0  0  0  0  0  0
   -0.0820   13.0020    0.3340 C   0  0  0  0  0  0  0  0  0  0  0  0
    1.7490   12.3910   -1.3860 C   0  0  2  0  0  0  0  0  0  0  0  0
    2.8490   13.2110   -0.6900 C   0  0  0  0  0  0  0  0  0  0  0  0
    2.5960   14.6800   -0.6090 C   0  0  0  0  0  0  0  0  0  0  0  0
    1.6730   15.3550   -1.3200 C   0  0  0  0  0  0  0  0  0  0  0  0
    0.8310   14.6480   -2.3900 C   0  0  1  0  0  0  0  0  0  0  0  0
    0.8050   15.5090   -3.6800 C   0  0  0  0  0  0  0  0  0  0  0  0
    0.3380   16.9380   -3.4200 C   0  0  0  0  0  0  0  0  0  0  0  0
    1.2350   17.6260   -2.3940 C   0  0  2  0  0  0  0  0  0  0  0  0
    2.5370   17.7970   -2.9610 O   0  0  0  0  0  0  0  0  0  0  0  0
    1.3460   16.8450   -1.0550 C   0  0  0  0  0  0  0  0  0  0  0  0
   -0.0010   16.9200   -0.2960 C   0  0  0  0  0  0  0  0  0  0  0  0
    2.3880   17.5720   -0.1630 C   0  0  0  0  0  0  0  0  0  0  0  0
    1.2060   13.1300   -2.6760 C   0  0  1  0  0  0  0  0  0  0  0  0
    2.3410   13.0550   -3.7430 C   0  0  0  0  0  0  0  0  0  0  0  0
   -0.0410   12.4020   -3.3030 C   0  0  0  0  0  0  0  0  0  0  0  0
   -1.0510   11.7820   -2.3180 C   0  0  0  0  0  0  0  0  0  0  0  0
   -0.3370   10.9240   -1.2690 C   0  0  2  0  0  0  0  0  0  0  0  0
    0.3680    9.7420   -2.0170 C   0  0  0  0  0  0  0  0  0  0  0  0
   -1.0477    7.7041   -1.7722 H   0  0  0  0  0  0  0  0  0  0  0  0
   -2.6026    8.3138   -2.4333 H   0  0  0  0  0  0  0  0  0  0  0  0
   -1.1505    9.3712   -2.4333 H   0  0  0  0  0  0  0  0  0  0  0  0
   -1.8909    8.3066    0.2279 H   0  0  0  0  0  0  0  0  0  0  0  0
   -3.7149   10.1301    0.4725 H   0  0  0  0  0  0  0  0  0  0  0  0
   -3.8331    9.9865   -1.3467 H   0  0  0  0  0  0  0  0  0  0  0  0
   -3.8993    7.3999    0.0394 H   0  0  0  0  0  0  0  0  0  0  0  0
   -5.2651    8.5091    0.4775 H   0  0  0  0  0  0  0  0  0  0  0  0
   -4.2248    7.6940   -2.0380 H   0  0  0  0  0  0  0  0  0  0  0  0
   -6.7445    7.2413    0.4784 H   0  0  0  0  0  0  0  0  0  0  0  0
   -8.2832    7.5298   -0.4024 H   0  0  0  0  0  0  0  0  0  0  0  0
   -7.5415    5.8938   -0.4024 H   0  0  0  0  0  0  0  0  0  0  0  0
   -7.4518    5.6623   -2.6423 H   0  0  0  0  0  0  0  0  0  0  0  0
   -7.6278    7.2361   -3.4900 H   0  0  0  0  0  0  0  0  0  0  0  0
   -6.0443    6.3882   -3.4900 H   0  0  0  0  0  0  0  0  0  0  0  0
   -2.0095   11.0381    0.1324 H   0  0  0  0  0  0  0  0  0  0  0  0
   -0.5951   10.3203    1.9560 H   0  0  0  0  0  0  0  0  0  0  0  0
    0.0433    8.9496    1.0237 H   0  0  0  0  0  0  0  0  0  0  0  0
    1.4310   11.3928    1.5468 H   0  0  0  0  0  0  0  0  0  0  0  0
    1.9191   10.2229    0.3236 H   0  0  0  0  0  0  0  0  0  0  0  0
    0.0210   12.8345    1.4163 H   0  0  0  0  0  0  0  0  0  0  0  0
    0.3813   13.9630    0.0659 H   0  0  0  0  0  0  0  0  0  0  0  0
   -1.1487   13.0217    0.0659 H   0  0  0  0  0  0  0  0  0  0  0  0
    2.2376   11.4669   -1.7284 H   0  0  0  0  0  0  0  0  0  0  0  0
    2.9605   12.8285    0.3353 H   0  0  0  0  0  0  0  0  0  0  0  0
    3.7525   13.0918   -1.3060 H   0  0  0  0  0  0  0  0  0  0  0  0
    3.2159   15.2600    0.0905 H   0  0  0  0  0  0  0  0  0  0  0  0
   -0.1844   14.5674   -1.9747 H   0  0  0  0  0  0  0  0  0  0  0  0
    1.8199   15.5411   -4.1031 H   0  0  0  0  0  0  0  0  0  0  0  0
    0.0907   15.0457   -4.3765 H   0  0  0  0  0  0  0  0  0  0  0  0
    0.3690   17.5042   -4.3626 H   0  0  0  0  0  0  0  0  0  0  0  0
   -0.6880   16.9060   -3.0246 H   0  0  0  0  0  0  0  0  0  0  0  0
    0.7763   18.5963   -2.1532 H   0  0  0  0  0  0  0  0  0  0  0  0
    2.8400   18.6940   -2.7380 H   0  0  0  0  0  0  0  0  0  0  0  0
    0.1877   16.9095    0.7876 H   0  0  0  0  0  0  0  0  0  0  0  0
   -0.5240   17.8487   -0.5681 H   0  0  0  0  0  0  0  0  0  0  0  0
   -0.6239   16.0551   -0.5681 H   0  0  0  0  0  0  0  0  0  0  0  0
    2.1454   17.4027    0.8965 H   0  0  0  0  0  0  0  0  0  0  0  0
    3.3924   17.1776   -0.3767 H   0  0  0  0  0  0  0  0  0  0  0  0
    2.3646   18.6508   -0.3767 H   0  0  0  0  0  0  0  0  0  0  0  0
    3.3158   12.9906   -3.2375 H   0  0  0  0  0  0  0  0  0  0  0  0
    2.1946   12.1646   -4.3721 H   0  0  0  0  0  0  0  0  0  0  0  0
    2.3131   13.9569   -4.3721 H   0  0  0  0  0  0  0  0  0  0  0  0
   -0.5825   13.1376   -3.9159 H   0  0  0  0  0  0  0  0  0  0  0  0
    0.3739   11.5513   -3.8636 H   0  0  0  0  0  0  0  0  0  0  0  0
   -1.6000   12.5886   -1.8101 H   0  0  0  0  0  0  0  0  0  0  0  0
   -1.7440   11.1412   -2.8829 H   0  0  0  0  0  0  0  0  0  0  0  0
    0.7867    9.0400   -1.2809 H   0  0  0  0  0  0  0  0  0  0  0  0
   -0.3652    9.2179   -2.6477 H   0  0  0  0  0  0  0  0  0  0  0  0
    1.1775   10.1381   -2.6477 H   0  0  0  0  0  0  0  0  0  0  0  0
  1  2  1  0  0  0  0
  1 33  1  0  0  0  0
  1 34  1  0  0  0  0
  1 35  1  0  0  0  0
  2  3  1  0  0  0  0
  2 10  1  0  0  0  0
  2 36  1  1  0  0  0
  3  4  1  0  0  0  0
  3 37  1  0  0  0  0
  3 38  1  0  0  0  0
  4  5  1  0  0  0  0
  4 39  1  0  0  0  0
  4 40  1  0  0  0  0
  5  6  1  0  0  0  0
  5 41  1  6  0  0  0
  6  7  1  0  0  0  0
  7  8  1  0  0  0  0
  7  9  1  0  0  0  0
  7  5  1  0  0  0  0
  8 42  1  0  0  0  0
  8 43  1  0  0  0  0
  8 44  1  0  0  0  0
  9 45  1  0  0  0  0
  9 46  1  0  0  0  0
  9 47  1  0  0  0  0
 10 11  1  0  0  0  0
 10 48  1  1  0  0  0
 11 12  1  0  0  0  0
 11 49  1  0  0  0  0
 11 50  1  0  0  0  0
 12 13  1  0  0  0  0
 12 51  1  0  0  0  0
 12 52  1  0  0  0  0
 13 14  1  1  0  0  0
 13 15  1  0  0  0  0
 14 53  1  0  0  0  0
 14 54  1  0  0  0  0
 14 55  1  0  0  0  0
 15 16  1  0  0  0  0
 15 56  1  6  0  0  0
 16 17  1  0  0  0  0
 16 57  1  0  0  0  0
 16 58  1  0  0  0  0
 17 18  2  0  0  0  0
 17 59  1  0  0  0  0
 18 19  1  0  0  0  0
 19 20  1  0  0  0  0
 19 27  1  0  0  0  0
 19 60  1  1  0  0  0
 20 21  1  0  0  0  0
 20 61  1  0  0  0  0
 20 62  1  0  0  0  0
 21 22  1  0  0  0  0
 21 63  1  0  0  0  0
 21 64  1  0  0  0  0
 22 23  1  0  0  0  0
 22 24  1  0  0  0  0
 22 65  1  1  0  0  0
 23 66  1  0  0  0  0
 24 25  1  0  0  0  0
 24 26  1  0  0  0  0
 24 18  1  0  0  0  0
 25 67  1  0  0  0  0
 25 68  1  0  0  0  0
 25 69  1  0  0  0  0
 26 70  1  0  0  0  0
 26 71  1  0  0  0  0
 26 72  1  0  0  0  0
 27 28  1  6  0  0  0
 27 29  1  0  0  0  0
 27 15  1  0  0  0  0
 28 73  1  0  0  0  0
 28 74  1  0  0  0  0
 28 75  1  0  0  0  0
 29 30  1  0  0  0  0
 29 76  1  0  0  0  0
 29 77  1  0  0  0  0
 30 31  1  0  0  0  0
 30 78  1  0  0  0  0
 30 79  1  0  0  0  0
 31 32  1  6  0  0  0
 31 10  1  0  0  0  0
 31 13  1  0  0  0  0
 32 80  1  0  0  0  0
 32 81  1  0  0  0  0
 32 82  1  0  0  0  0
M  END
>  <meeko>
{"is_sidechain": [false], "intermolecular_energy": 2.731, "internal_energy": -0.839}

$$$$
