EPH_relaxed_0001_pdb2pqr_Repair_276_r2_0001_out
 OpenBabel07272616253D

 82 86  0  0  0  0  0  0  0  0999 V2000
   -1.6990    8.5800   -1.8580 C   0  0  0  0  0  0  0  0  0  0  0  0
   -2.0850    9.1160   -0.4760 C   0  0  2  0  0  0  0  0  0  0  0  0
   -3.5780    9.4930   -0.3960 C   0  0  0  0  0  0  0  0  0  0  0  0
   -4.5090    8.2880   -0.2340 C   0  0  0  0  0  0  0  0  0  0  0  0
   -5.2020    7.9480   -1.5180 C   0  0  2  0  0  0  0  0  0  0  0  0
   -6.3540    8.7510   -1.8080 O   0  0  0  0  0  0  0  0  0  0  0  0
   -6.5970    7.3520   -1.5840 C   0  0  0  0  0  0  0  0  0  0  0  0
   -7.3800    7.0620   -0.3420 C   0  0  0  0  0  0  0  0  0  0  0  0
   -6.9980    6.6050   -2.8170 C   0  0  0  0  0  0  0  0  0  0  0  0
   -1.2230   10.3240   -0.1280 C   0  0  1  0  0  0  0  0  0  0  0  0
   -0.1910   10.0190    0.9900 C   0  0  0  0  0  0  0  0  0  0  0  0
    1.0800   10.8440    0.6630 C   0  0  0  0  0  0  0  0  0  0  0  0
    0.6280   11.8390   -0.4310 C   0  0  1  0  0  0  0  0  0  0  0  0
   -0.0760   12.9960    0.3450 C   0  0  0  0  0  0  0  0  0  0  0  0
    1.7470   12.3780   -1.3800 C   0  0  2  0  0  0  0  0  0  0  0  0
    2.8530   13.1940   -0.6870 C   0  0  0  0  0  0  0  0  0  0  0  0
    2.6050   14.6640   -0.6060 C   0  0  0  0  0  0  0  0  0  0  0  0
    1.6820   15.3420   -1.3140 C   0  0  0  0  0  0  0  0  0  0  0  0
    0.8350   14.6380   -2.3820 C   0  0  1  0  0  0  0  0  0  0  0  0
    0.8080   15.4980   -3.6720 C   0  0  0  0  0  0  0  0  0  0  0  0
    0.3470   16.9290   -3.4120 C   0  0  0  0  0  0  0  0  0  0  0  0
    1.2490   17.6150   -2.3890 C   0  0  2  0  0  0  0  0  0  0  0  0
    2.5500   17.7810   -2.9590 O   0  0  0  0  0  0  0  0  0  0  0  0
    1.3610   16.8340   -1.0500 C   0  0  0  0  0  0  0  0  0  0  0  0
    0.0160   16.9130   -0.2860 C   0  0  0  0  0  0  0  0  0  0  0  0
    2.4080   17.5580   -0.1610 C   0  0  0  0  0  0  0  0  0  0  0  0
    1.2040   13.1190   -2.6690 C   0  0  1  0  0  0  0  0  0  0  0  0
    2.3350   13.0390   -3.7390 C   0  0  0  0  0  0  0  0  0  0  0  0
   -0.0480   12.3950   -3.2910 C   0  0  0  0  0  0  0  0  0  0  0  0
   -1.0570   11.7780   -2.3040 C   0  0  0  0  0  0  0  0  0  0  0  0
   -0.3430   10.9190   -1.2560 C   0  0  2  0  0  0  0  0  0  0  0  0
    0.3560    9.7330   -2.0050 C   0  0  0  0  0  0  0  0  0  0  0  0
   -1.0598    7.6924   -1.7416 H   0  0  0  0  0  0  0  0  0  0  0  0
   -2.6088    8.3065   -2.4124 H   0  0  0  0  0  0  0  0  0  0  0  0
   -1.1512    9.3562   -2.4124 H   0  0  0  0  0  0  0  0  0  0  0  0
   -1.9084    8.3111    0.2527 H   0  0  0  0  0  0  0  0  0  0  0  0
   -3.7218   10.1614    0.4658 H   0  0  0  0  0  0  0  0  0  0  0  0
   -3.8394    9.9755   -1.3493 H   0  0  0  0  0  0  0  0  0  0  0  0
   -3.9163    7.4206    0.0920 H   0  0  0  0  0  0  0  0  0  0  0  0
   -5.2753    8.5440    0.5125 H   0  0  0  0  0  0  0  0  0  0  0  0
   -4.2495    7.6497   -1.9803 H   0  0  0  0  0  0  0  0  0  0  0  0
   -6.7647    7.2899    0.5409 H   0  0  0  0  0  0  0  0  0  0  0  0
   -8.2873    7.6837   -0.3270 H   0  0  0  0  0  0  0  0  0  0  0  0
   -7.6634    5.9993   -0.3270 H   0  0  0  0  0  0  0  0  0  0  0  0
   -7.5004    5.6690   -2.5315 H   0  0  0  0  0  0  0  0  0  0  0  0
   -7.6855    7.2232   -3.4129 H   0  0  0  0  0  0  0  0  0  0  0  0
   -6.1028    6.3736   -3.4129 H   0  0  0  0  0  0  0  0  0  0  0  0
   -2.0114   11.0387    0.1506 H   0  0  0  0  0  0  0  0  0  0  0  0
   -0.5943   10.3167    1.9692 H   0  0  0  0  0  0  0  0  0  0  0  0
    0.0368    8.9438    1.0344 H   0  0  0  0  0  0  0  0  0  0  0  0
    1.4340   11.3818    1.5549 H   0  0  0  0  0  0  0  0  0  0  0  0
    1.9152   10.2098    0.3309 H   0  0  0  0  0  0  0  0  0  0  0  0
    0.0266   12.8273    1.4271 H   0  0  0  0  0  0  0  0  0  0  0  0
    0.3919   13.9549    0.0774 H   0  0  0  0  0  0  0  0  0  0  0  0
   -1.1426   13.0212    0.0774 H   0  0  0  0  0  0  0  0  0  0  0  0
    2.2297   11.4515   -1.7245 H   0  0  0  0  0  0  0  0  0  0  0  0
    2.9661   12.8114    0.3381 H   0  0  0  0  0  0  0  0  0  0  0  0
    3.7546   13.0710   -1.3050 H   0  0  0  0  0  0  0  0  0  0  0  0
    3.2292   15.2422    0.0912 H   0  0  0  0  0  0  0  0  0  0  0  0
   -0.1794   14.5616   -1.9635 H   0  0  0  0  0  0  0  0  0  0  0  0
    1.8217   15.5261   -4.0983 H   0  0  0  0  0  0  0  0  0  0  0  0
    0.0896   15.0367   -4.3656 H   0  0  0  0  0  0  0  0  0  0  0  0
    0.3775   17.4941   -4.3552 H   0  0  0  0  0  0  0  0  0  0  0  0
   -0.6780   16.9010   -3.0137 H   0  0  0  0  0  0  0  0  0  0  0  0
    0.7942   18.5872   -2.1481 H   0  0  0  0  0  0  0  0  0  0  0  0
    2.9260   18.6030   -2.6010 H   0  0  0  0  0  0  0  0  0  0  0  0
    0.2083   16.9017    0.7970 H   0  0  0  0  0  0  0  0  0  0  0  0
   -0.5051   17.8433   -0.5562 H   0  0  0  0  0  0  0  0  0  0  0  0
   -0.6104   16.0501   -0.5562 H   0  0  0  0  0  0  0  0  0  0  0  0
    2.1668   17.3912    0.8992 H   0  0  0  0  0  0  0  0  0  0  0  0
    3.4103   17.1591   -0.3762 H   0  0  0  0  0  0  0  0  0  0  0  0
    2.3886   18.6366   -0.3762 H   0  0  0  0  0  0  0  0  0  0  0  0
    3.3110   12.9700   -3.2364 H   0  0  0  0  0  0  0  0  0  0  0  0
    2.1826   12.1494   -4.3678 H   0  0  0  0  0  0  0  0  0  0  0  0
    2.3094   13.9412   -4.3678 H   0  0  0  0  0  0  0  0  0  0  0  0
   -0.5891   13.1326   -3.9019 H   0  0  0  0  0  0  0  0  0  0  0  0
    0.3627   11.5426   -3.8521 H   0  0  0  0  0  0  0  0  0  0  0  0
   -1.6032   12.5861   -1.7955 H   0  0  0  0  0  0  0  0  0  0  0  0
   -1.7525   11.1384   -2.8672 H   0  0  0  0  0  0  0  0  0  0  0  0
    0.7712    9.0285   -1.2692 H   0  0  0  0  0  0  0  0  0  0  0  0
   -0.3800    9.2130   -2.6357 H   0  0  0  0  0  0  0  0  0  0  0  0
    1.1675   10.1251   -2.6357 H   0  0  0  0  0  0  0  0  0  0  0  0
  1  2  1  0  0  0  0
  1 33  1  0  0  0  0
  1 34  1  0  0  0  0
  1 35  1  0  0  0  0
  2  3  1  0  0  0  0
  2 10  1  0  0  0  0
  2 36  1  1  0  0  0
  3  4  1  0  0  0  0
  3 37  1  0  0  0  0
  3 38  1  0  0  0  0
  4  5  1  0  0  0  0
  4 39  1  0  0  0  0
  4 40  1  0  0  0  0
  5  6  1  0  0  0  0
  5 41  1  6  0  0  0
  6  7  1  0  0  0  0
  7  8  1  0  0  0  0
  7  9  1  0  0  0  0
  7  5  1  0  0  0  0
  8 42  1  0  0  0  0
  8 43  1  0  0  0  0
  8 44  1  0  0  0  0
  9 45  1  0  0  0  0
  9 46  1  0  0  0  0
  9 47  1  0  0  0  0
 10 11  1  0  0  0  0
 10 48  1  1  0  0  0
 11 12  1  0  0  0  0
 11 49  1  0  0  0  0
 11 50  1  0  0  0  0
 12 13  1  0  0  0  0
 12 51  1  0  0  0  0
 12 52  1  0  0  0  0
 13 14  1  1  0  0  0
 13 15  1  0  0  0  0
 14 53  1  0  0  0  0
 14 54  1  0  0  0  0
 14 55  1  0  0  0  0
 15 16  1  0  0  0  0
 15 56  1  6  0  0  0
 16 17  1  0  0  0  0
 16 57  1  0  0  0  0
 16 58  1  0  0  0  0
 17 18  2  0  0  0  0
 17 59  1  0  0  0  0
 18 19  1  0  0  0  0
 19 20  1  0  0  0  0
 19 27  1  0  0  0  0
 19 60  1  1  0  0  0
 20 21  1  0  0  0  0
 20 61  1  0  0  0  0
 20 62  1  0  0  0  0
 21 22  1  0  0  0  0
 21 63  1  0  0  0  0
 21 64  1  0  0  0  0
 22 23  1  0  0  0  0
 22 24  1  0  0  0  0
 22 65  1  1  0  0  0
 23 66  1  0  0  0  0
 24 25  1  0  0  0  0
 24 26  1  0  0  0  0
 24 18  1  0  0  0  0
 25 67  1  0  0  0  0
 25 68  1  0  0  0  0
 25 69  1  0  0  0  0
 26 70  1  0  0  0  0
 26 71  1  0  0  0  0
 26 72  1  0  0  0  0
 27 28  1  6  0  0  0
 27 29  1  0  0  0  0
 27 15  1  0  0  0  0
 28 73  1  0  0  0  0
 28 74  1  0  0  0  0
 28 75  1  0  0  0  0
 29 30  1  0  0  0  0
 29 76  1  0  0  0  0
 29 77  1  0  0  0  0
 30 31  1  0  0  0  0
 30 78  1  0  0  0  0
 30 79  1  0  0  0  0
 31 32  1  6  0  0  0
 31 10  1  0  0  0  0
 31 13  1  0  0  0  0
 32 80  1  0  0  0  0
 32 81  1  0  0  0  0
 32 82  1  0  0  0  0
M  END
>  <meeko>
{"is_sidechain": [false], "intermolecular_energy": 2.731, "internal_energy": -0.839}

$$$$
