EPH_relaxed_0001_pdb2pqr_Repair_54_r2_0001_out
 OpenBabel07272616253D

 82 86  0  0  0  0  0  0  0  0999 V2000
   -1.7030    8.5810   -1.8540 C   0  0  0  0  0  0  0  0  0  0  0  0
   -2.0920    9.1130   -0.4710 C   0  0  2  0  0  0  0  0  0  0  0  0
   -3.5860    9.4860   -0.3920 C   0  0  0  0  0  0  0  0  0  0  0  0
   -4.5130    8.2800   -0.2180 C   0  0  0  0  0  0  0  0  0  0  0  0
   -5.1960    7.9170   -1.5020 C   0  0  2  0  0  0  0  0  0  0  0  0
   -6.3490    8.7120   -1.8120 O   0  0  0  0  0  0  0  0  0  0  0  0
   -6.5880    7.3170   -1.5680 C   0  0  0  0  0  0  0  0  0  0  0  0
   -7.3790    7.0430   -0.3280 C   0  0  0  0  0  0  0  0  0  0  0  0
   -6.9790    6.5490   -2.7920 C   0  0  0  0  0  0  0  0  0  0  0  0
   -1.2330   10.3220   -0.1200 C   0  0  1  0  0  0  0  0  0  0  0  0
   -0.2050   10.0190    1.0030 C   0  0  0  0  0  0  0  0  0  0  0  0
    1.0660   10.8460    0.6810 C   0  0  0  0  0  0  0  0  0  0  0  0
    0.6170   11.8400   -0.4150 C   0  0  1  0  0  0  0  0  0  0  0  0
   -0.0920   12.9960    0.3580 C   0  0  0  0  0  0  0  0  0  0  0  0
    1.7400   12.3810   -1.3600 C   0  0  2  0  0  0  0  0  0  0  0  0
    2.8410   13.1980   -0.6630 C   0  0  0  0  0  0  0  0  0  0  0  0
    2.5910   14.6680   -0.5830 C   0  0  0  0  0  0  0  0  0  0  0  0
    1.6700   15.3440   -1.2950 C   0  0  0  0  0  0  0  0  0  0  0  0
    0.8280   14.6380   -2.3660 C   0  0  1  0  0  0  0  0  0  0  0  0
    0.8060   15.4990   -3.6560 C   0  0  0  0  0  0  0  0  0  0  0  0
    0.3420   16.9290   -3.3980 C   0  0  0  0  0  0  0  0  0  0  0  0
    1.2380   17.6160   -2.3710 C   0  0  2  0  0  0  0  0  0  0  0  0
    2.5420   17.7840   -2.9370 O   0  0  0  0  0  0  0  0  0  0  0  0
    1.3460   16.8350   -1.0320 C   0  0  0  0  0  0  0  0  0  0  0  0
   -0.0020   16.9130   -0.2740 C   0  0  0  0  0  0  0  0  0  0  0  0
    2.3880   17.5610   -0.1390 C   0  0  0  0  0  0  0  0  0  0  0  0
    1.2010   13.1200   -2.6510 C   0  0  1  0  0  0  0  0  0  0  0  0
    2.3370   13.0410   -3.7160 C   0  0  0  0  0  0  0  0  0  0  0  0
   -0.0470   12.3940   -3.2790 C   0  0  0  0  0  0  0  0  0  0  0  0
   -1.0600   11.7760   -2.2950 C   0  0  0  0  0  0  0  0  0  0  0  0
   -0.3490   10.9180   -1.2440 C   0  0  2  0  0  0  0  0  0  0  0  0
    0.3550    9.7330   -1.9900 C   0  0  0  0  0  0  0  0  0  0  0  0
   -1.0573    7.6979   -1.7389 H   0  0  0  0  0  0  0  0  0  0  0  0
   -2.6112    8.3014   -2.4081 H   0  0  0  0  0  0  0  0  0  0  0  0
   -1.1612    9.3617   -2.4081 H   0  0  0  0  0  0  0  0  0  0  0  0
   -1.9147    8.3073    0.2566 H   0  0  0  0  0  0  0  0  0  0  0  0
   -3.7305   10.1615    0.4641 H   0  0  0  0  0  0  0  0  0  0  0  0
   -3.8503    9.9592   -1.3492 H   0  0  0  0  0  0  0  0  0  0  0  0
   -3.9190    7.4202    0.1255 H   0  0  0  0  0  0  0  0  0  0  0  0
   -5.2856    8.5444    0.5190 H   0  0  0  0  0  0  0  0  0  0  0  0
   -4.2396    7.6140   -1.9531 H   0  0  0  0  0  0  0  0  0  0  0  0
   -6.7606    7.2572    0.5562 H   0  0  0  0  0  0  0  0  0  0  0  0
   -8.2729    7.6838   -0.3142 H   0  0  0  0  0  0  0  0  0  0  0  0
   -7.6850    5.9865   -0.3142 H   0  0  0  0  0  0  0  0  0  0  0  0
   -7.4595    5.6052   -2.4947 H   0  0  0  0  0  0  0  0  0  0  0  0
   -7.6828    7.1462   -3.3903 H   0  0  0  0  0  0  0  0  0  0  0  0
   -6.0820    6.3312   -3.3903 H   0  0  0  0  0  0  0  0  0  0  0  0
   -2.0239   11.0355    0.1547 H   0  0  0  0  0  0  0  0  0  0  0  0
   -0.6129   10.3165    1.9803 H   0  0  0  0  0  0  0  0  0  0  0  0
    0.0243    8.9442    1.0489 H   0  0  0  0  0  0  0  0  0  0  0  0
    1.4155   11.3846    1.5742 H   0  0  0  0  0  0  0  0  0  0  0  0
    1.9035   10.2130    0.3525 H   0  0  0  0  0  0  0  0  0  0  0  0
    0.0100   12.8297    1.4406 H   0  0  0  0  0  0  0  0  0  0  0  0
    0.3728   13.9560    0.0891 H   0  0  0  0  0  0  0  0  0  0  0  0
   -1.1584   13.0169    0.0891 H   0  0  0  0  0  0  0  0  0  0  0  0
    2.2262   11.4556   -1.7024 H   0  0  0  0  0  0  0  0  0  0  0  0
    2.9503   12.8156    0.3626 H   0  0  0  0  0  0  0  0  0  0  0  0
    3.7452   13.0763   -1.2775 H   0  0  0  0  0  0  0  0  0  0  0  0
    3.2116   15.2472    0.1166 H   0  0  0  0  0  0  0  0  0  0  0  0
   -0.1882   14.5590   -1.9525 H   0  0  0  0  0  0  0  0  0  0  0  0
    1.8217   15.5286   -4.0773 H   0  0  0  0  0  0  0  0  0  0  0  0
    0.0913   15.0371   -4.3531 H   0  0  0  0  0  0  0  0  0  0  0  0
    0.3762   17.4943   -4.3410 H   0  0  0  0  0  0  0  0  0  0  0  0
   -0.6847   16.8995   -3.0044 H   0  0  0  0  0  0  0  0  0  0  0  0
    0.7806   18.5871   -2.1308 H   0  0  0  0  0  0  0  0  0  0  0  0
    3.0990   17.0560   -2.6130 H   0  0  0  0  0  0  0  0  0  0  0  0
    0.1856   16.9021    0.8098 H   0  0  0  0  0  0  0  0  0  0  0  0
   -0.5227   17.8428   -0.5467 H   0  0  0  0  0  0  0  0  0  0  0  0
   -0.6265   16.0495   -0.5467 H   0  0  0  0  0  0  0  0  0  0  0  0
    2.1446   17.3914    0.9203 H   0  0  0  0  0  0  0  0  0  0  0  0
    3.3923   17.1661   -0.3523 H   0  0  0  0  0  0  0  0  0  0  0  0
    2.3654   18.6399   -0.3523 H   0  0  0  0  0  0  0  0  0  0  0  0
    3.3108   12.9733   -3.2090 H   0  0  0  0  0  0  0  0  0  0  0  0
    2.1885   12.1510   -4.3452 H   0  0  0  0  0  0  0  0  0  0  0  0
    2.3131   13.9430   -4.3452 H   0  0  0  0  0  0  0  0  0  0  0  0
   -0.5863   13.1305   -3.8928 H   0  0  0  0  0  0  0  0  0  0  0  0
    0.3671   11.5421   -3.8383 H   0  0  0  0  0  0  0  0  0  0  0  0
   -1.6089   12.5838   -1.7888 H   0  0  0  0  0  0  0  0  0  0  0  0
   -1.7529   11.1357   -2.8606 H   0  0  0  0  0  0  0  0  0  0  0  0
    0.7718    9.0314   -1.2525 H   0  0  0  0  0  0  0  0  0  0  0  0
   -0.3785    9.2092   -2.6206 H   0  0  0  0  0  0  0  0  0  0  0  0
    1.1658   10.1267   -2.6206 H   0  0  0  0  0  0  0  0  0  0  0  0
  1  2  1  0  0  0  0
  1 33  1  0  0  0  0
  1 34  1  0  0  0  0
  1 35  1  0  0  0  0
  2  3  1  0  0  0  0
  2 10  1  0  0  0  0
  2 36  1  1  0  0  0
  3  4  1  0  0  0  0
  3 37  1  0  0  0  0
  3 38  1  0  0  0  0
  4  5  1  0  0  0  0
  4 39  1  0  0  0  0
  4 40  1  0  0  0  0
  5  6  1  0  0  0  0
  5 41  1  6  0  0  0
  6  7  1  0  0  0  0
  7  8  1  0  0  0  0
  7  9  1  0  0  0  0
  7  5  1  0  0  0  0
  8 42  1  0  0  0  0
  8 43  1  0  0  0  0
  8 44  1  0  0  0  0
  9 45  1  0  0  0  0
  9 46  1  0  0  0  0
  9 47  1  0  0  0  0
 10 11  1  0  0  0  0
 10 48  1  1  0  0  0
 11 12  1  0  0  0  0
 11 49  1  0  0  0  0
 11 50  1  0  0  0  0
 12 13  1  0  0  0  0
 12 51  1  0  0  0  0
 12 52  1  0  0  0  0
 13 14  1  1  0  0  0
 13 15  1  0  0  0  0
 14 53  1  0  0  0  0
 14 54  1  0  0  0  0
 14 55  1  0  0  0  0
 15 16  1  0  0  0  0
 15 56  1  6  0  0  0
 16 17  1  0  0  0  0
 16 57  1  0  0  0  0
 16 58  1  0  0  0  0
 17 18  2  0  0  0  0
 17 59  1  0  0  0  0
 18 19  1  0  0  0  0
 19 20  1  0  0  0  0
 19 27  1  0  0  0  0
 19 60  1  1  0  0  0
 20 21  1  0  0  0  0
 20 61  1  0  0  0  0
 20 62  1  0  0  0  0
 21 22  1  0  0  0  0
 21 63  1  0  0  0  0
 21 64  1  0  0  0  0
 22 23  1  0  0  0  0
 22 24  1  0  0  0  0
 22 65  1  1  0  0  0
 23 66  1  0  0  0  0
 24 25  1  0  0  0  0
 24 26  1  0  0  0  0
 24 18  1  0  0  0  0
 25 67  1  0  0  0  0
 25 68  1  0  0  0  0
 25 69  1  0  0  0  0
 26 70  1  0  0  0  0
 26 71  1  0  0  0  0
 26 72  1  0  0  0  0
 27 28  1  6  0  0  0
 27 29  1  0  0  0  0
 27 15  1  0  0  0  0
 28 73  1  0  0  0  0
 28 74  1  0  0  0  0
 28 75  1  0  0  0  0
 29 30  1  0  0  0  0
 29 76  1  0  0  0  0
 29 77  1  0  0  0  0
 30 31  1  0  0  0  0
 30 78  1  0  0  0  0
 30 79  1  0  0  0  0
 31 32  1  6  0  0  0
 31 10  1  0  0  0  0
 31 13  1  0  0  0  0
 32 80  1  0  0  0  0
 32 81  1  0  0  0  0
 32 82  1  0  0  0  0
M  END
>  <meeko>
{"is_sidechain": [false], "intermolecular_energy": 2.731, "internal_energy": -0.839}

$$$$
