EPH_relaxed_0001_pdb2pqr_Repair_136_r2_0001_out
 OpenBabel07272616253D

 82 86  0  0  0  0  0  0  0  0999 V2000
   -1.3260    8.7090   -1.8640 C   0  0  0  0  0  0  0  0  0  0  0  0
   -1.7450    9.2180   -0.4820 C   0  0  2  0  0  0  0  0  0  0  0  0
   -3.2540    9.5260   -0.4100 C   0  0  0  0  0  0  0  0  0  0  0  0
   -4.1340    8.2750   -0.3310 C   0  0  0  0  0  0  0  0  0  0  0  0
   -4.8470    8.0170   -1.6230 C   0  0  2  0  0  0  0  0  0  0  0  0
   -6.1720    8.5600   -1.6950 O   0  0  0  0  0  0  0  0  0  0  0  0
   -6.0710    7.1270   -1.7410 C   0  0  0  0  0  0  0  0  0  0  0  0
   -6.6520    6.4380   -0.5460 C   0  0  0  0  0  0  0  0  0  0  0  0
   -6.4040    6.5420   -3.0770 C   0  0  0  0  0  0  0  0  0  0  0  0
   -0.9420   10.4610   -0.1200 C   0  0  1  0  0  0  0  0  0  0  0  0
    0.1560   10.1760    0.9400 C   0  0  0  0  0  0  0  0  0  0  0  0
    1.3600   11.0900    0.5930 C   0  0  0  0  0  0  0  0  0  0  0  0
    0.8010   12.0980   -0.4370 C   0  0  1  0  0  0  0  0  0  0  0  0
    0.0650   13.1780    0.4160 C   0  0  0  0  0  0  0  0  0  0  0  0
    1.8420   12.7420   -1.4100 C   0  0  2  0  0  0  0  0  0  0  0  0
    2.9280   13.5960   -0.7310 C   0  0  0  0  0  0  0  0  0  0  0  0
    2.5960   15.0430   -0.5770 C   0  0  0  0  0  0  0  0  0  0  0  0
    1.6040   15.6910   -1.2160 C   0  0  0  0  0  0  0  0  0  0  0  0
    0.7530   14.9790   -2.2750 C   0  0  1  0  0  0  0  0  0  0  0  0
    0.6170   15.8860   -3.5260 C   0  0  0  0  0  0  0  0  0  0  0  0
    0.0840   17.2750   -3.1860 C   0  0  0  0  0  0  0  0  0  0  0  0
    0.9890   17.9740   -2.1740 C   0  0  2  0  0  0  0  0  0  0  0  0
    2.2510   18.2410   -2.7930 O   0  0  0  0  0  0  0  0  0  0  0  0
    1.2080   17.1480   -0.8760 C   0  0  0  0  0  0  0  0  0  0  0  0
   -0.1040   17.1150   -0.0530 C   0  0  0  0  0  0  0  0  0  0  0  0
    2.2490   17.8990   -0.0030 C   0  0  0  0  0  0  0  0  0  0  0  0
    1.1980   13.4980   -2.6420 C   0  0  1  0  0  0  0  0  0  0  0  0
    2.2830   13.5300   -3.7610 C   0  0  0  0  0  0  0  0  0  0  0  0
   -0.0350   12.7230   -3.2410 C   0  0  0  0  0  0  0  0  0  0  0  0
   -0.9600   12.0080   -2.2370 C   0  0  0  0  0  0  0  0  0  0  0  0
   -0.1500   11.1530   -1.2580 C   0  0  2  0  0  0  0  0  0  0  0  0
    0.5830   10.0430   -2.0860 C   0  0  0  0  0  0  0  0  0  0  0  0
   -0.6308    7.8644   -1.7484 H   0  0  0  0  0  0  0  0  0  0  0  0
   -2.2165    8.3776   -2.4182 H   0  0  0  0  0  0  0  0  0  0  0  0
   -0.8297    9.5193   -2.4182 H   0  0  0  0  0  0  0  0  0  0  0  0
   -1.5364    8.4172    0.2426 H   0  0  0  0  0  0  0  0  0  0  0  0
   -3.4411   10.1393    0.4838 H   0  0  0  0  0  0  0  0  0  0  0  0
   -3.5205   10.0485   -1.3406 H   0  0  0  0  0  0  0  0  0  0  0  0
   -3.5003    7.4077   -0.0941 H   0  0  0  0  0  0  0  0  0  0  0  0
   -4.8899    8.4362    0.4517 H   0  0  0  0  0  0  0  0  0  0  0  0
   -3.8980    8.0438   -2.1786 H   0  0  0  0  0  0  0  0  0  0  0  0
   -6.2606    6.9022    0.3712 H   0  0  0  0  0  0  0  0  0  0  0  0
   -7.7478    6.5317   -0.5655 H   0  0  0  0  0  0  0  0  0  0  0  0
   -6.3746    5.3737   -0.5655 H   0  0  0  0  0  0  0  0  0  0  0  0
   -6.9438    5.5937   -2.9378 H   0  0  0  0  0  0  0  0  0  0  0  0
   -7.0371    7.2454   -3.6378 H   0  0  0  0  0  0  0  0  0  0  0  0
   -5.4760    6.3568   -3.6378 H   0  0  0  0  0  0  0  0  0  0  0  0
   -1.7585   11.1141    0.2217 H   0  0  0  0  0  0  0  0  0  0  0  0
   -0.2196   10.4102    1.9470 H   0  0  0  0  0  0  0  0  0  0  0  0
    0.4490    9.1158    0.9303 H   0  0  0  0  0  0  0  0  0  0  0  0
    1.7220   11.6127    1.4906 H   0  0  0  0  0  0  0  0  0  0  0  0
    2.2149   10.5214    0.1983 H   0  0  0  0  0  0  0  0  0  0  0  0
    0.2113   12.9633    1.4849 H   0  0  0  0  0  0  0  0  0  0  0  0
    0.4747   14.1717    0.1822 H   0  0  0  0  0  0  0  0  0  0  0  0
   -1.0097   13.1602    0.1822 H   0  0  0  0  0  0  0  0  0  0  0  0
    2.3630   11.8615   -1.8140 H   0  0  0  0  0  0  0  0  0  0  0  0
    3.1104   13.1804    0.2710 H   0  0  0  0  0  0  0  0  0  0  0  0
    3.8065   13.5535   -1.3916 H   0  0  0  0  0  0  0  0  0  0  0  0
    3.2146   15.6300    0.1178 H   0  0  0  0  0  0  0  0  0  0  0  0
   -0.2347   14.8242   -1.8163 H   0  0  0  0  0  0  0  0  0  0  0  0
    1.6070   15.9928   -3.9935 H   0  0  0  0  0  0  0  0  0  0  0  0
   -0.1030   15.4094   -4.2075 H   0  0  0  0  0  0  0  0  0  0  0  0
    0.0383   17.8780   -4.1049 H   0  0  0  0  0  0  0  0  0  0  0  0
   -0.9184   17.1684   -2.7458 H   0  0  0  0  0  0  0  0  0  0  0  0
    0.4893   18.9062   -1.8719 H   0  0  0  0  0  0  0  0  0  0  0  0
    2.3770   17.5860   -3.5000 H   0  0  0  0  0  0  0  0  0  0  0  0
    0.1363   17.1210    1.0204 H   0  0  0  0  0  0  0  0  0  0  0  0
   -0.7125   17.9981   -0.2975 H   0  0  0  0  0  0  0  0  0  0  0  0
   -0.6674   16.2024   -0.2975 H   0  0  0  0  0  0  0  0  0  0  0  0
    2.0219   17.7352    1.0608 H   0  0  0  0  0  0  0  0  0  0  0  0
    3.2569   17.5186   -0.2256 H   0  0  0  0  0  0  0  0  0  0  0  0
    2.2059   18.9754   -0.2256 H   0  0  0  0  0  0  0  0  0  0  0  0
    3.2823   13.5595   -3.3021 H   0  0  0  0  0  0  0  0  0  0  0  0
    2.1926   12.6288   -4.3852 H   0  0  0  0  0  0  0  0  0  0  0  0
    2.1397   14.4243   -4.3852 H   0  0  0  0  0  0  0  0  0  0  0  0
   -0.6458   13.4488   -3.7978 H   0  0  0  0  0  0  0  0  0  0  0  0
    0.3998   11.9201   -3.8544 H   0  0  0  0  0  0  0  0  0  0  0  0
   -1.5283   12.7614   -1.6718 H   0  0  0  0  0  0  0  0  0  0  0  0
   -1.6422   11.3503   -2.7956 H   0  0  0  0  0  0  0  0  0  0  0  0
    1.0565    9.3259   -1.3993 H   0  0  0  0  0  0  0  0  0  0  0  0
   -0.1459    9.5170   -2.7200 H   0  0  0  0  0  0  0  0  0  0  0  0
    1.3530   10.5068   -2.7200 H   0  0  0  0  0  0  0  0  0  0  0  0
  1  2  1  0  0  0  0
  1 33  1  0  0  0  0
  1 34  1  0  0  0  0
  1 35  1  0  0  0  0
  2  3  1  0  0  0  0
  2 10  1  0  0  0  0
  2 36  1  1  0  0  0
  3  4  1  0  0  0  0
  3 37  1  0  0  0  0
  3 38  1  0  0  0  0
  4  5  1  0  0  0  0
  4 39  1  0  0  0  0
  4 40  1  0  0  0  0
  5  6  1  0  0  0  0
  5 41  1  6  0  0  0
  6  7  1  0  0  0  0
  7  8  1  0  0  0  0
  7  9  1  0  0  0  0
  7  5  1  0  0  0  0
  8 42  1  0  0  0  0
  8 43  1  0  0  0  0
  8 44  1  0  0  0  0
  9 45  1  0  0  0  0
  9 46  1  0  0  0  0
  9 47  1  0  0  0  0
 10 11  1  0  0  0  0
 10 48  1  1  0  0  0
 11 12  1  0  0  0  0
 11 49  1  0  0  0  0
 11 50  1  0  0  0  0
 12 13  1  0  0  0  0
 12 51  1  0  0  0  0
 12 52  1  0  0  0  0
 13 14  1  1  0  0  0
 13 15  1  0  0  0  0
 14 53  1  0  0  0  0
 14 54  1  0  0  0  0
 14 55  1  0  0  0  0
 15 16  1  0  0  0  0
 15 56  1  6  0  0  0
 16 17  1  0  0  0  0
 16 57  1  0  0  0  0
 16 58  1  0  0  0  0
 17 18  2  0  0  0  0
 17 59  1  0  0  0  0
 18 19  1  0  0  0  0
 19 20  1  0  0  0  0
 19 27  1  0  0  0  0
 19 60  1  1  0  0  0
 20 21  1  0  0  0  0
 20 61  1  0  0  0  0
 20 62  1  0  0  0  0
 21 22  1  0  0  0  0
 21 63  1  0  0  0  0
 21 64  1  0  0  0  0
 22 23  1  0  0  0  0
 22 24  1  0  0  0  0
 22 65  1  1  0  0  0
 23 66  1  0  0  0  0
 24 25  1  0  0  0  0
 24 26  1  0  0  0  0
 24 18  1  0  0  0  0
 25 67  1  0  0  0  0
 25 68  1  0  0  0  0
 25 69  1  0  0  0  0
 26 70  1  0  0  0  0
 26 71  1  0  0  0  0
 26 72  1  0  0  0  0
 27 28  1  6  0  0  0
 27 29  1  0  0  0  0
 27 15  1  0  0  0  0
 28 73  1  0  0  0  0
 28 74  1  0  0  0  0
 28 75  1  0  0  0  0
 29 30  1  0  0  0  0
 29 76  1  0  0  0  0
 29 77  1  0  0  0  0
 30 31  1  0  0  0  0
 30 78  1  0  0  0  0
 30 79  1  0  0  0  0
 31 32  1  6  0  0  0
 31 10  1  0  0  0  0
 31 13  1  0  0  0  0
 32 80  1  0  0  0  0
 32 81  1  0  0  0  0
 32 82  1  0  0  0  0
M  END
>  <meeko>
{"is_sidechain": [false], "intermolecular_energy": 2.731, "internal_energy": -0.839}

$$$$
