EPH_relaxed_0001_pdb2pqr_Repair_400_r2_0001_out
 OpenBabel07272616253D

 82 86  0  0  0  0  0  0  0  0999 V2000
   -1.6980    8.5800   -1.8720 C   0  0  0  0  0  0  0  0  0  0  0  0
   -2.0620    9.1030   -0.4800 C   0  0  2  0  0  0  0  0  0  0  0  0
   -3.5540    9.4770   -0.3710 C   0  0  0  0  0  0  0  0  0  0  0  0
   -4.4840    8.2680   -0.2400 C   0  0  0  0  0  0  0  0  0  0  0  0
   -5.1800    7.9610   -1.5310 C   0  0  2  0  0  0  0  0  0  0  0  0
   -6.3420    8.7590   -1.7890 O   0  0  0  0  0  0  0  0  0  0  0  0
   -6.5670    7.3520   -1.6090 C   0  0  0  0  0  0  0  0  0  0  0  0
   -7.3410    7.0120   -0.3730 C   0  0  0  0  0  0  0  0  0  0  0  0
   -6.9670    6.6390   -2.8630 C   0  0  0  0  0  0  0  0  0  0  0  0
   -1.1960   10.3090   -0.1350 C   0  0  1  0  0  0  0  0  0  0  0  0
   -0.1500    9.9970    0.9680 C   0  0  0  0  0  0  0  0  0  0  0  0
    1.1170   10.8250    0.6290 C   0  0  0  0  0  0  0  0  0  0  0  0
    0.6500   11.8270   -0.4520 C   0  0  1  0  0  0  0  0  0  0  0  0
   -0.0440   12.9790    0.3410 C   0  0  0  0  0  0  0  0  0  0  0  0
    1.7570   12.3730   -1.4120 C   0  0  2  0  0  0  0  0  0  0  0  0
    2.8720   13.1850   -0.7290 C   0  0  0  0  0  0  0  0  0  0  0  0
    2.6240   14.6540   -0.6350 C   0  0  0  0  0  0  0  0  0  0  0  0
    1.6920   15.3360   -1.3260 C   0  0  0  0  0  0  0  0  0  0  0  0
    0.8310   14.6380   -2.3870 C   0  0  1  0  0  0  0  0  0  0  0  0
    0.7870   15.5070   -3.6720 C   0  0  0  0  0  0  0  0  0  0  0  0
    0.3290   16.9360   -3.3960 C   0  0  0  0  0  0  0  0  0  0  0  0
    1.2440   17.6160   -2.3800 C   0  0  2  0  0  0  0  0  0  0  0  0
    2.5380   17.7860   -2.9670 O   0  0  0  0  0  0  0  0  0  0  0  0
    1.3740   16.8260   -1.0480 C   0  0  0  0  0  0  0  0  0  0  0  0
    0.0390   16.9000   -0.2660 C   0  0  0  0  0  0  0  0  0  0  0  0
    2.4320   17.5440   -0.1680 C   0  0  0  0  0  0  0  0  0  0  0  0
    1.1970   13.1210   -2.6890 C   0  0  1  0  0  0  0  0  0  0  0  0
    2.3140   13.0490   -3.7740 C   0  0  0  0  0  0  0  0  0  0  0  0
   -0.0630   12.4010   -3.3000 C   0  0  0  0  0  0  0  0  0  0  0  0
   -1.0590   11.7780   -2.3030 C   0  0  0  0  0  0  0  0  0  0  0  0
   -0.3310   10.9110   -1.2700 C   0  0  2  0  0  0  0  0  0  0  0  0
    0.3580    9.7310   -2.0360 C   0  0  0  0  0  0  0  0  0  0  0  0
   -1.0721    7.6808   -1.7737 H   0  0  0  0  0  0  0  0  0  0  0  0
   -2.6173    8.3287   -2.4212 H   0  0  0  0  0  0  0  0  0  0  0  0
   -1.1430    9.3548   -2.4212 H   0  0  0  0  0  0  0  0  0  0  0  0
   -1.8724    8.2914    0.2379 H   0  0  0  0  0  0  0  0  0  0  0  0
   -3.6880   10.1157    0.5145 H   0  0  0  0  0  0  0  0  0  0  0  0
   -3.8253    9.9913   -1.3047 H   0  0  0  0  0  0  0  0  0  0  0  0
   -3.8901    7.3926    0.0616 H   0  0  0  0  0  0  0  0  0  0  0  0
   -5.2492    8.5044    0.5140 H   0  0  0  0  0  0  0  0  0  0  0  0
   -4.2267    7.6886   -2.0074 H   0  0  0  0  0  0  0  0  0  0  0  0
   -6.7468    7.2730    0.5151 H   0  0  0  0  0  0  0  0  0  0  0  0
   -8.2836    7.5789   -0.3631 H   0  0  0  0  0  0  0  0  0  0  0  0
   -7.5612    5.9343   -0.3631 H   0  0  0  0  0  0  0  0  0  0  0  0
   -7.4900    5.7067   -2.6038 H   0  0  0  0  0  0  0  0  0  0  0  0
   -7.6357    7.2826   -3.4534 H   0  0  0  0  0  0  0  0  0  0  0  0
   -6.0691    6.4038   -3.4534 H   0  0  0  0  0  0  0  0  0  0  0  0
   -1.9807   11.0219    0.1583 H   0  0  0  0  0  0  0  0  0  0  0  0
   -0.5406   10.2886    1.9541 H   0  0  0  0  0  0  0  0  0  0  0  0
    0.0784    8.9215    1.0034 H   0  0  0  0  0  0  0  0  0  0  0  0
    1.4831   11.3570    1.5195 H   0  0  0  0  0  0  0  0  0  0  0  0
    1.9477   10.1932    0.2814 H   0  0  0  0  0  0  0  0  0  0  0  0
    0.0648   12.7983    1.4206 H   0  0  0  0  0  0  0  0  0  0  0  0
    0.4264   13.9386    0.0806 H   0  0  0  0  0  0  0  0  0  0  0  0
   -1.1122   13.0117    0.0806 H   0  0  0  0  0  0  0  0  0  0  0  0
    2.2359   11.4488   -1.7678 H   0  0  0  0  0  0  0  0  0  0  0  0
    2.9995   12.7957    0.2919 H   0  0  0  0  0  0  0  0  0  0  0  0
    3.7652   13.0667   -1.3601 H   0  0  0  0  0  0  0  0  0  0  0  0
    3.2568   15.2279    0.0580 H   0  0  0  0  0  0  0  0  0  0  0  0
   -0.1776   14.5581   -1.9554 H   0  0  0  0  0  0  0  0  0  0  0  0
    1.7950   15.5383   -4.1113 H   0  0  0  0  0  0  0  0  0  0  0  0
    0.0600   15.0501   -4.3596 H   0  0  0  0  0  0  0  0  0  0  0  0
    0.3469   17.5076   -4.3357 H   0  0  0  0  0  0  0  0  0  0  0  0
   -0.6905   16.9045   -2.9842 H   0  0  0  0  0  0  0  0  0  0  0  0
    0.7923   18.5863   -2.1261 H   0  0  0  0  0  0  0  0  0  0  0  0
    2.7530   16.9690   -3.4480 H   0  0  0  0  0  0  0  0  0  0  0  0
    0.2458   16.8885    0.8143 H   0  0  0  0  0  0  0  0  0  0  0  0
   -0.4887   17.8288   -0.5285 H   0  0  0  0  0  0  0  0  0  0  0  0
   -0.5881   16.0352   -0.5285 H   0  0  0  0  0  0  0  0  0  0  0  0
    2.1954   17.3834    0.8942 H   0  0  0  0  0  0  0  0  0  0  0  0
    3.4295   17.1355   -0.3873 H   0  0  0  0  0  0  0  0  0  0  0  0
    2.4208   18.6219   -0.3873 H   0  0  0  0  0  0  0  0  0  0  0  0
    3.2971   12.9856   -3.2845 H   0  0  0  0  0  0  0  0  0  0  0  0
    2.1588   12.1590   -4.4015 H   0  0  0  0  0  0  0  0  0  0  0  0
    2.2743   13.9516   -4.4015 H   0  0  0  0  0  0  0  0  0  0  0  0
   -0.6119   13.1424   -3.8992 H   0  0  0  0  0  0  0  0  0  0  0  0
    0.3399   11.5524   -3.8724 H   0  0  0  0  0  0  0  0  0  0  0  0
   -1.5975   12.5831   -1.7817 H   0  0  0  0  0  0  0  0  0  0  0  0
   -1.7627   11.1426   -2.8608 H   0  0  0  0  0  0  0  0  0  0  0  0
    0.7750    9.0169   -1.3107 H   0  0  0  0  0  0  0  0  0  0  0  0
   -0.3842    9.2209   -2.6676 H   0  0  0  0  0  0  0  0  0  0  0  0
    1.1670   10.1266   -2.6676 H   0  0  0  0  0  0  0  0  0  0  0  0
  1  2  1  0  0  0  0
  1 33  1  0  0  0  0
  1 34  1  0  0  0  0
  1 35  1  0  0  0  0
  2  3  1  0  0  0  0
  2 10  1  0  0  0  0
  2 36  1  1  0  0  0
  3  4  1  0  0  0  0
  3 37  1  0  0  0  0
  3 38  1  0  0  0  0
  4  5  1  0  0  0  0
  4 39  1  0  0  0  0
  4 40  1  0  0  0  0
  5  6  1  0  0  0  0
  5 41  1  6  0  0  0
  6  7  1  0  0  0  0
  7  8  1  0  0  0  0
  7  9  1  0  0  0  0
  7  5  1  0  0  0  0
  8 42  1  0  0  0  0
  8 43  1  0  0  0  0
  8 44  1  0  0  0  0
  9 45  1  0  0  0  0
  9 46  1  0  0  0  0
  9 47  1  0  0  0  0
 10 11  1  0  0  0  0
 10 48  1  1  0  0  0
 11 12  1  0  0  0  0
 11 49  1  0  0  0  0
 11 50  1  0  0  0  0
 12 13  1  0  0  0  0
 12 51  1  0  0  0  0
 12 52  1  0  0  0  0
 13 14  1  1  0  0  0
 13 15  1  0  0  0  0
 14 53  1  0  0  0  0
 14 54  1  0  0  0  0
 14 55  1  0  0  0  0
 15 16  1  0  0  0  0
 15 56  1  6  0  0  0
 16 17  1  0  0  0  0
 16 57  1  0  0  0  0
 16 58  1  0  0  0  0
 17 18  2  0  0  0  0
 17 59  1  0  0  0  0
 18 19  1  0  0  0  0
 19 20  1  0  0  0  0
 19 27  1  0  0  0  0
 19 60  1  1  0  0  0
 20 21  1  0  0  0  0
 20 61  1  0  0  0  0
 20 62  1  0  0  0  0
 21 22  1  0  0  0  0
 21 63  1  0  0  0  0
 21 64  1  0  0  0  0
 22 23  1  0  0  0  0
 22 24  1  0  0  0  0
 22 65  1  1  0  0  0
 23 66  1  0  0  0  0
 24 25  1  0  0  0  0
 24 26  1  0  0  0  0
 24 18  1  0  0  0  0
 25 67  1  0  0  0  0
 25 68  1  0  0  0  0
 25 69  1  0  0  0  0
 26 70  1  0  0  0  0
 26 71  1  0  0  0  0
 26 72  1  0  0  0  0
 27 28  1  6  0  0  0
 27 29  1  0  0  0  0
 27 15  1  0  0  0  0
 28 73  1  0  0  0  0
 28 74  1  0  0  0  0
 28 75  1  0  0  0  0
 29 30  1  0  0  0  0
 29 76  1  0  0  0  0
 29 77  1  0  0  0  0
 30 31  1  0  0  0  0
 30 78  1  0  0  0  0
 30 79  1  0  0  0  0
 31 32  1  6  0  0  0
 31 10  1  0  0  0  0
 31 13  1  0  0  0  0
 32 80  1  0  0  0  0
 32 81  1  0  0  0  0
 32 82  1  0  0  0  0
M  END
>  <meeko>
{"is_sidechain": [false], "intermolecular_energy": 2.731, "internal_energy": -0.839}

$$$$
