EPH_relaxed_0001_pdb2pqr_Repair_390_r2_0001_out
 OpenBabel07272616253D

 82 86  0  0  0  0  0  0  0  0999 V2000
   -1.6640    8.5800   -1.8690 C   0  0  0  0  0  0  0  0  0  0  0  0
   -2.0390    9.1030   -0.4790 C   0  0  2  0  0  0  0  0  0  0  0  0
   -3.5340    9.4680   -0.3800 C   0  0  0  0  0  0  0  0  0  0  0  0
   -4.4580    8.2520   -0.2690 C   0  0  0  0  0  0  0  0  0  0  0  0
   -5.1320    7.9480   -1.5720 C   0  0  2  0  0  0  0  0  0  0  0  0
   -6.3410    8.6820   -1.8060 O   0  0  0  0  0  0  0  0  0  0  0  0
   -6.4790    7.2570   -1.6760 C   0  0  0  0  0  0  0  0  0  0  0  0
   -7.2320    6.8280   -0.4560 C   0  0  0  0  0  0  0  0  0  0  0  0
   -6.8320    6.5660   -2.9560 C   0  0  0  0  0  0  0  0  0  0  0  0
   -1.1830   10.3160   -0.1330 C   0  0  1  0  0  0  0  0  0  0  0  0
   -0.1410   10.0140    0.9780 C   0  0  0  0  0  0  0  0  0  0  0  0
    1.1220   10.8480    0.6450 C   0  0  0  0  0  0  0  0  0  0  0  0
    0.6560   11.8450   -0.4420 C   0  0  1  0  0  0  0  0  0  0  0  0
   -0.0500   12.9940    0.3430 C   0  0  0  0  0  0  0  0  0  0  0  0
    1.7660   12.3940   -1.3970 C   0  0  2  0  0  0  0  0  0  0  0  0
    2.8710   13.2150   -0.7090 C   0  0  0  0  0  0  0  0  0  0  0  0
    2.6130   14.6830   -0.6200 C   0  0  0  0  0  0  0  0  0  0  0  0
    1.6820   15.3570   -1.3200 C   0  0  0  0  0  0  0  0  0  0  0  0
    0.8320   14.6510   -2.3840 C   0  0  1  0  0  0  0  0  0  0  0  0
    0.7910   15.5160   -3.6710 C   0  0  0  0  0  0  0  0  0  0  0  0
    0.3220   16.9430   -3.4030 C   0  0  0  0  0  0  0  0  0  0  0  0
    1.2260   17.6310   -2.3830 C   0  0  2  0  0  0  0  0  0  0  0  0
    2.5230   17.8080   -2.9620 O   0  0  0  0  0  0  0  0  0  0  0  0
    1.3530   16.8460   -1.0480 C   0  0  0  0  0  0  0  0  0  0  0  0
    0.0120   16.9140   -0.2750 C   0  0  0  0  0  0  0  0  0  0  0  0
    2.4010   17.5740   -0.1630 C   0  0  0  0  0  0  0  0  0  0  0  0
    1.2090   13.1360   -2.6790 C   0  0  1  0  0  0  0  0  0  0  0  0
    2.3340   13.0670   -3.7570 C   0  0  0  0  0  0  0  0  0  0  0  0
   -0.0420   12.4060   -3.2960 C   0  0  0  0  0  0  0  0  0  0  0  0
   -1.0400   11.7790   -2.3040 C   0  0  0  0  0  0  0  0  0  0  0  0
   -0.3140   10.9200   -1.2640 C   0  0  2  0  0  0  0  0  0  0  0  0
    0.3870    9.7430   -2.0230 C   0  0  0  0  0  0  0  0  0  0  0  0
   -1.0258    7.6900   -1.7660 H   0  0  0  0  0  0  0  0  0  0  0  0
   -2.5783    8.3139   -2.4196 H   0  0  0  0  0  0  0  0  0  0  0  0
   -1.1185    9.3606   -2.4196 H   0  0  0  0  0  0  0  0  0  0  0  0
   -1.8481    8.2945    0.2421 H   0  0  0  0  0  0  0  0  0  0  0  0
   -3.6797   10.0974    0.5103 H   0  0  0  0  0  0  0  0  0  0  0  0
   -3.8000    9.9902   -1.3109 H   0  0  0  0  0  0  0  0  0  0  0  0
   -3.8630    7.3788    0.0369 H   0  0  0  0  0  0  0  0  0  0  0  0
   -5.2359    8.4789    0.4749 H   0  0  0  0  0  0  0  0  0  0  0  0
   -4.1631    7.7517   -2.0545 H   0  0  0  0  0  0  0  0  0  0  0  0
   -6.6819    7.1414    0.4435 H   0  0  0  0  0  0  0  0  0  0  0  0
   -8.2284    7.2940   -0.4574 H   0  0  0  0  0  0  0  0  0  0  0  0
   -7.3392    5.7332   -0.4574 H   0  0  0  0  0  0  0  0  0  0  0  0
   -7.3219    5.6070   -2.7319 H   0  0  0  0  0  0  0  0  0  0  0  0
   -7.5166    7.2002   -3.5384 H   0  0  0  0  0  0  0  0  0  0  0  0
   -5.9169    6.3830   -3.5384 H   0  0  0  0  0  0  0  0  0  0  0  0
   -1.9745   11.0246    0.1523 H   0  0  0  0  0  0  0  0  0  0  0  0
   -0.5396   10.3062    1.9607 H   0  0  0  0  0  0  0  0  0  0  0  0
    0.0940    8.9401    1.0178 H   0  0  0  0  0  0  0  0  0  0  0  0
    1.4793   11.3844    1.5364 H   0  0  0  0  0  0  0  0  0  0  0  0
    1.9585   10.2202    0.3041 H   0  0  0  0  0  0  0  0  0  0  0  0
    0.0572   12.8195    1.4238 H   0  0  0  0  0  0  0  0  0  0  0  0
    0.4128   13.9565    0.0793 H   0  0  0  0  0  0  0  0  0  0  0  0
   -1.1177   13.0161    0.0793 H   0  0  0  0  0  0  0  0  0  0  0  0
    2.2527   11.4719   -1.7476 H   0  0  0  0  0  0  0  0  0  0  0  0
    2.9945   12.8290    0.3136 H   0  0  0  0  0  0  0  0  0  0  0  0
    3.7688   13.1011   -1.3343 H   0  0  0  0  0  0  0  0  0  0  0  0
    3.2366   15.2625    0.0766 H   0  0  0  0  0  0  0  0  0  0  0  0
   -0.1789   14.5660   -1.9588 H   0  0  0  0  0  0  0  0  0  0  0  0
    1.8017   15.5525   -4.1035 H   0  0  0  0  0  0  0  0  0  0  0  0
    0.0712   15.0525   -4.3617 H   0  0  0  0  0  0  0  0  0  0  0  0
    0.3430   17.5118   -4.3443 H   0  0  0  0  0  0  0  0  0  0  0  0
   -0.7003   16.9069   -2.9987 H   0  0  0  0  0  0  0  0  0  0  0  0
    0.7658   18.5988   -2.1348 H   0  0  0  0  0  0  0  0  0  0  0  0
    2.7780   16.9650   -3.3740 H   0  0  0  0  0  0  0  0  0  0  0  0
    0.2114   16.9039    0.8067 H   0  0  0  0  0  0  0  0  0  0  0  0
   -0.5183   17.8402   -0.5415 H   0  0  0  0  0  0  0  0  0  0  0  0
   -0.6092   16.0462   -0.5415 H   0  0  0  0  0  0  0  0  0  0  0  0
    2.1630   17.4087    0.8982 H   0  0  0  0  0  0  0  0  0  0  0  0
    3.4036   17.1769   -0.3801 H   0  0  0  0  0  0  0  0  0  0  0  0
    2.3788   18.6521   -0.3801 H   0  0  0  0  0  0  0  0  0  0  0  0
    3.3140   13.0069   -3.2610 H   0  0  0  0  0  0  0  0  0  0  0  0
    2.1858   12.1763   -4.3852 H   0  0  0  0  0  0  0  0  0  0  0  0
    2.2957   13.9692   -4.3852 H   0  0  0  0  0  0  0  0  0  0  0  0
   -0.5920   13.1421   -3.9007 H   0  0  0  0  0  0  0  0  0  0  0  0
    0.3703   11.5587   -3.8635 H   0  0  0  0  0  0  0  0  0  0  0  0
   -1.5873   12.5819   -1.7885 H   0  0  0  0  0  0  0  0  0  0  0  0
   -1.7353   11.1372   -2.8649 H   0  0  0  0  0  0  0  0  0  0  0  0
    0.8083    9.0356   -1.2935 H   0  0  0  0  0  0  0  0  0  0  0  0
   -0.3491    9.2238   -2.6543 H   0  0  0  0  0  0  0  0  0  0  0  0
    1.1942   10.1429   -2.6543 H   0  0  0  0  0  0  0  0  0  0  0  0
  1  2  1  0  0  0  0
  1 33  1  0  0  0  0
  1 34  1  0  0  0  0
  1 35  1  0  0  0  0
  2  3  1  0  0  0  0
  2 10  1  0  0  0  0
  2 36  1  1  0  0  0
  3  4  1  0  0  0  0
  3 37  1  0  0  0  0
  3 38  1  0  0  0  0
  4  5  1  0  0  0  0
  4 39  1  0  0  0  0
  4 40  1  0  0  0  0
  5  6  1  0  0  0  0
  5 41  1  6  0  0  0
  6  7  1  0  0  0  0
  7  8  1  0  0  0  0
  7  9  1  0  0  0  0
  7  5  1  0  0  0  0
  8 42  1  0  0  0  0
  8 43  1  0  0  0  0
  8 44  1  0  0  0  0
  9 45  1  0  0  0  0
  9 46  1  0  0  0  0
  9 47  1  0  0  0  0
 10 11  1  0  0  0  0
 10 48  1  1  0  0  0
 11 12  1  0  0  0  0
 11 49  1  0  0  0  0
 11 50  1  0  0  0  0
 12 13  1  0  0  0  0
 12 51  1  0  0  0  0
 12 52  1  0  0  0  0
 13 14  1  1  0  0  0
 13 15  1  0  0  0  0
 14 53  1  0  0  0  0
 14 54  1  0  0  0  0
 14 55  1  0  0  0  0
 15 16  1  0  0  0  0
 15 56  1  6  0  0  0
 16 17  1  0  0  0  0
 16 57  1  0  0  0  0
 16 58  1  0  0  0  0
 17 18  2  0  0  0  0
 17 59  1  0  0  0  0
 18 19  1  0  0  0  0
 19 20  1  0  0  0  0
 19 27  1  0  0  0  0
 19 60  1  1  0  0  0
 20 21  1  0  0  0  0
 20 61  1  0  0  0  0
 20 62  1  0  0  0  0
 21 22  1  0  0  0  0
 21 63  1  0  0  0  0
 21 64  1  0  0  0  0
 22 23  1  0  0  0  0
 22 24  1  0  0  0  0
 22 65  1  1  0  0  0
 23 66  1  0  0  0  0
 24 25  1  0  0  0  0
 24 26  1  0  0  0  0
 24 18  1  0  0  0  0
 25 67  1  0  0  0  0
 25 68  1  0  0  0  0
 25 69  1  0  0  0  0
 26 70  1  0  0  0  0
 26 71  1  0  0  0  0
 26 72  1  0  0  0  0
 27 28  1  6  0  0  0
 27 29  1  0  0  0  0
 27 15  1  0  0  0  0
 28 73  1  0  0  0  0
 28 74  1  0  0  0  0
 28 75  1  0  0  0  0
 29 30  1  0  0  0  0
 29 76  1  0  0  0  0
 29 77  1  0  0  0  0
 30 31  1  0  0  0  0
 30 78  1  0  0  0  0
 30 79  1  0  0  0  0
 31 32  1  6  0  0  0
 31 10  1  0  0  0  0
 31 13  1  0  0  0  0
 32 80  1  0  0  0  0
 32 81  1  0  0  0  0
 32 82  1  0  0  0  0
M  END
>  <meeko>
{"is_sidechain": [false], "intermolecular_energy": 2.731, "internal_energy": -0.839}

$$$$
