EPH_relaxed_0001_pdb2pqr_Repair_34_r2_0001_out
 OpenBabel07272616253D

 82 86  0  0  0  0  0  0  0  0999 V2000
   -1.7200    8.5810   -1.8700 C   0  0  0  0  0  0  0  0  0  0  0  0
   -2.1020    9.1030   -0.4820 C   0  0  2  0  0  0  0  0  0  0  0  0
   -3.5970    9.4690   -0.3910 C   0  0  0  0  0  0  0  0  0  0  0  0
   -4.5180    8.2580   -0.2230 C   0  0  0  0  0  0  0  0  0  0  0  0
   -5.2180    7.9120   -1.5020 C   0  0  2  0  0  0  0  0  0  0  0  0
   -6.3460    8.7410   -1.8110 O   0  0  0  0  0  0  0  0  0  0  0  0
   -6.6280    7.3540   -1.5600 C   0  0  0  0  0  0  0  0  0  0  0  0
   -7.4230    7.1100   -0.3150 C   0  0  0  0  0  0  0  0  0  0  0  0
   -7.0480    6.5940   -2.7800 C   0  0  0  0  0  0  0  0  0  0  0  0
   -1.2470   10.3140   -0.1280 C   0  0  1  0  0  0  0  0  0  0  0  0
   -0.2280   10.0150    1.0040 C   0  0  0  0  0  0  0  0  0  0  0  0
    1.0450   10.8410    0.6890 C   0  0  0  0  0  0  0  0  0  0  0  0
    0.6050   11.8320   -0.4140 C   0  0  1  0  0  0  0  0  0  0  0  0
   -0.1100   12.9900    0.3490 C   0  0  0  0  0  0  0  0  0  0  0  0
    1.7350   12.3690   -1.3520 C   0  0  2  0  0  0  0  0  0  0  0  0
    2.8310   13.1900   -0.6490 C   0  0  0  0  0  0  0  0  0  0  0  0
    2.5790   14.6590   -0.5760 C   0  0  0  0  0  0  0  0  0  0  0  0
    1.6640   15.3330   -1.2980 C   0  0  0  0  0  0  0  0  0  0  0  0
    0.8310   14.6230   -2.3730 C   0  0  1  0  0  0  0  0  0  0  0  0
    0.8190   15.4780   -3.6680 C   0  0  0  0  0  0  0  0  0  0  0  0
    0.3520   16.9090   -3.4180 C   0  0  0  0  0  0  0  0  0  0  0  0
    1.2400   17.6010   -2.3870 C   0  0  2  0  0  0  0  0  0  0  0  0
    2.5480   17.7670   -2.9420 O   0  0  0  0  0  0  0  0  0  0  0  0
    1.3370   16.8250   -1.0440 C   0  0  0  0  0  0  0  0  0  0  0  0
   -0.0180   16.9050   -0.2970 C   0  0  0  0  0  0  0  0  0  0  0  0
    2.3720   17.5540   -0.1450 C   0  0  0  0  0  0  0  0  0  0  0  0
    1.2060   13.1030   -2.6500 C   0  0  1  0  0  0  0  0  0  0  0  0
    2.3510   13.0210   -3.7050 C   0  0  0  0  0  0  0  0  0  0  0  0
   -0.0360   12.3740   -3.2850 C   0  0  0  0  0  0  0  0  0  0  0  0
   -1.0560   11.7600   -2.3070 C   0  0  0  0  0  0  0  0  0  0  0  0
   -0.3540   10.9060   -1.2480 C   0  0  2  0  0  0  0  0  0  0  0  0
    0.3560    9.7190   -1.9840 C   0  0  0  0  0  0  0  0  0  0  0  0
   -1.0734    7.6974   -1.7643 H   0  0  0  0  0  0  0  0  0  0  0  0
   -2.6309    8.3049   -2.4214 H   0  0  0  0  0  0  0  0  0  0  0  0
   -1.1813    9.3657   -2.4214 H   0  0  0  0  0  0  0  0  0  0  0  0
   -1.9155    8.2932    0.2388 H   0  0  0  0  0  0  0  0  0  0  0  0
   -3.7393   10.1359    0.4721 H   0  0  0  0  0  0  0  0  0  0  0  0
   -3.8686    9.9499   -1.3423 H   0  0  0  0  0  0  0  0  0  0  0  0
   -3.9168    7.3949    0.0990 H   0  0  0  0  0  0  0  0  0  0  0  0
   -5.2812    8.5094    0.5283 H   0  0  0  0  0  0  0  0  0  0  0  0
   -4.2732    7.5780   -1.9557 H   0  0  0  0  0  0  0  0  0  0  0  0
   -6.7933    7.3033    0.5659 H   0  0  0  0  0  0  0  0  0  0  0  0
   -8.2934    7.7823   -0.2981 H   0  0  0  0  0  0  0  0  0  0  0  0
   -7.7664    6.0651   -0.2981 H   0  0  0  0  0  0  0  0  0  0  0  0
   -7.5595    5.6684   -2.4773 H   0  0  0  0  0  0  0  0  0  0  0  0
   -7.7326    7.2121   -3.3794 H   0  0  0  0  0  0  0  0  0  0  0  0
   -6.1604    6.3432   -3.3794 H   0  0  0  0  0  0  0  0  0  0  0  0
   -2.0399   11.0285    0.1383 H   0  0  0  0  0  0  0  0  0  0  0  0
   -0.6436   10.3158    1.9770 H   0  0  0  0  0  0  0  0  0  0  0  0
    0.0011    8.9404    1.0556 H   0  0  0  0  0  0  0  0  0  0  0  0
    1.3876   11.3824    1.5832 H   0  0  0  0  0  0  0  0  0  0  0  0
    1.8848   10.2068    0.3687 H   0  0  0  0  0  0  0  0  0  0  0  0
   -0.0116   12.8306    1.4329 H   0  0  0  0  0  0  0  0  0  0  0  0
    0.3530   13.9498    0.0760 H   0  0  0  0  0  0  0  0  0  0  0  0
   -1.1755   13.0060    0.0760 H   0  0  0  0  0  0  0  0  0  0  0  0
    2.2240   11.4423   -1.6868 H   0  0  0  0  0  0  0  0  0  0  0  0
    2.9330   12.8112    0.3787 H   0  0  0  0  0  0  0  0  0  0  0  0
    3.7400   13.0670   -1.2561 H   0  0  0  0  0  0  0  0  0  0  0  0
    3.1929   15.2406    0.1274 H   0  0  0  0  0  0  0  0  0  0  0  0
   -0.1881   14.5467   -1.9659 H   0  0  0  0  0  0  0  0  0  0  0  0
    1.8379   15.5064   -4.0816 H   0  0  0  0  0  0  0  0  0  0  0  0
    0.1110   15.0127   -4.3696 H   0  0  0  0  0  0  0  0  0  0  0  0
    0.3923   17.4710   -4.3628 H   0  0  0  0  0  0  0  0  0  0  0  0
   -0.6773   16.8796   -3.0312 H   0  0  0  0  0  0  0  0  0  0  0  0
    0.7808   18.5734   -2.1555 H   0  0  0  0  0  0  0  0  0  0  0  0
    3.1720   17.2820   -2.3760 H   0  0  0  0  0  0  0  0  0  0  0  0
    0.1605   16.8945    0.7884 H   0  0  0  0  0  0  0  0  0  0  0  0
   -0.5353   17.8353   -0.5745 H   0  0  0  0  0  0  0  0  0  0  0  0
   -0.6412   16.0421   -0.5745 H   0  0  0  0  0  0  0  0  0  0  0  0
    2.1255   17.3804    0.9129 H   0  0  0  0  0  0  0  0  0  0  0  0
    3.3791   17.1648   -0.3555 H   0  0  0  0  0  0  0  0  0  0  0  0
    2.3447   18.6333   -0.3555 H   0  0  0  0  0  0  0  0  0  0  0  0
    3.3203   12.9516   -3.1895 H   0  0  0  0  0  0  0  0  0  0  0  0
    2.2061   12.1309   -4.3349 H   0  0  0  0  0  0  0  0  0  0  0  0
    2.3344   13.9226   -4.3349 H   0  0  0  0  0  0  0  0  0  0  0  0
   -0.5706   13.1076   -3.9063 H   0  0  0  0  0  0  0  0  0  0  0  0
    0.3830   11.5201   -3.8376 H   0  0  0  0  0  0  0  0  0  0  0  0
   -1.6085   12.5697   -1.8080 H   0  0  0  0  0  0  0  0  0  0  0  0
   -1.7445   11.1177   -2.8757 H   0  0  0  0  0  0  0  0  0  0  0  0
    0.7722    9.0231   -1.2407 H   0  0  0  0  0  0  0  0  0  0  0  0
   -0.3737    9.1892   -2.6140 H   0  0  0  0  0  0  0  0  0  0  0  0
    1.1679   10.1113   -2.6140 H   0  0  0  0  0  0  0  0  0  0  0  0
  1  2  1  0  0  0  0
  1 33  1  0  0  0  0
  1 34  1  0  0  0  0
  1 35  1  0  0  0  0
  2  3  1  0  0  0  0
  2 10  1  0  0  0  0
  2 36  1  1  0  0  0
  3  4  1  0  0  0  0
  3 37  1  0  0  0  0
  3 38  1  0  0  0  0
  4  5  1  0  0  0  0
  4 39  1  0  0  0  0
  4 40  1  0  0  0  0
  5  6  1  0  0  0  0
  5 41  1  6  0  0  0
  6  7  1  0  0  0  0
  7  8  1  0  0  0  0
  7  9  1  0  0  0  0
  7  5  1  0  0  0  0
  8 42  1  0  0  0  0
  8 43  1  0  0  0  0
  8 44  1  0  0  0  0
  9 45  1  0  0  0  0
  9 46  1  0  0  0  0
  9 47  1  0  0  0  0
 10 11  1  0  0  0  0
 10 48  1  1  0  0  0
 11 12  1  0  0  0  0
 11 49  1  0  0  0  0
 11 50  1  0  0  0  0
 12 13  1  0  0  0  0
 12 51  1  0  0  0  0
 12 52  1  0  0  0  0
 13 14  1  1  0  0  0
 13 15  1  0  0  0  0
 14 53  1  0  0  0  0
 14 54  1  0  0  0  0
 14 55  1  0  0  0  0
 15 16  1  0  0  0  0
 15 56  1  6  0  0  0
 16 17  1  0  0  0  0
 16 57  1  0  0  0  0
 16 58  1  0  0  0  0
 17 18  2  0  0  0  0
 17 59  1  0  0  0  0
 18 19  1  0  0  0  0
 19 20  1  0  0  0  0
 19 27  1  0  0  0  0
 19 60  1  1  0  0  0
 20 21  1  0  0  0  0
 20 61  1  0  0  0  0
 20 62  1  0  0  0  0
 21 22  1  0  0  0  0
 21 63  1  0  0  0  0
 21 64  1  0  0  0  0
 22 23  1  0  0  0  0
 22 24  1  0  0  0  0
 22 65  1  1  0  0  0
 23 66  1  0  0  0  0
 24 25  1  0  0  0  0
 24 26  1  0  0  0  0
 24 18  1  0  0  0  0
 25 67  1  0  0  0  0
 25 68  1  0  0  0  0
 25 69  1  0  0  0  0
 26 70  1  0  0  0  0
 26 71  1  0  0  0  0
 26 72  1  0  0  0  0
 27 28  1  6  0  0  0
 27 29  1  0  0  0  0
 27 15  1  0  0  0  0
 28 73  1  0  0  0  0
 28 74  1  0  0  0  0
 28 75  1  0  0  0  0
 29 30  1  0  0  0  0
 29 76  1  0  0  0  0
 29 77  1  0  0  0  0
 30 31  1  0  0  0  0
 30 78  1  0  0  0  0
 30 79  1  0  0  0  0
 31 32  1  6  0  0  0
 31 10  1  0  0  0  0
 31 13  1  0  0  0  0
 32 80  1  0  0  0  0
 32 81  1  0  0  0  0
 32 82  1  0  0  0  0
M  END
>  <meeko>
{"is_sidechain": [false], "intermolecular_energy": 2.731, "internal_energy": -0.839}

$$$$
