EPH_relaxed_0001_pdb2pqr_Repair_305_r2_0001_out
 OpenBabel07272616253D

 82 86  0  0  0  0  0  0  0  0999 V2000
   -2.1260    8.1700   -2.1460 C   0  0  0  0  0  0  0  0  0  0  0  0
   -2.3260    8.8360   -0.7810 C   0  0  2  0  0  0  0  0  0  0  0  0
   -3.8150    9.0890   -0.4710 C   0  0  0  0  0  0  0  0  0  0  0  0
   -4.6530    7.8100   -0.3960 C   0  0  0  0  0  0  0  0  0  0  0  0
   -5.4180    7.5730   -1.6640 C   0  0  2  0  0  0  0  0  0  0  0  0
   -6.4150    8.5610   -1.9550 O   0  0  0  0  0  0  0  0  0  0  0  0
   -6.8960    7.2320   -1.6980 C   0  0  0  0  0  0  0  0  0  0  0  0
   -7.6970    7.1070   -0.4400 C   0  0  0  0  0  0  0  0  0  0  0  0
   -7.4430    6.5440   -2.9090 C   0  0  0  0  0  0  0  0  0  0  0  0
   -1.5520   10.1480   -0.7250 C   0  0  1  0  0  0  0  0  0  0  0  0
   -1.2120   10.5790    0.7270 C   0  0  0  0  0  0  0  0  0  0  0  0
    0.1740   11.2720    0.6750 C   0  0  0  0  0  0  0  0  0  0  0  0
    0.4340   11.5130   -0.8310 C   0  0  1  0  0  0  0  0  0  0  0  0
   -0.3670   12.8080   -1.1740 C   0  0  0  0  0  0  0  0  0  0  0  0
    1.9310   11.6280   -1.2640 C   0  0  2  0  0  0  0  0  0  0  0  0
    2.7000   12.8090   -0.6470 C   0  0  0  0  0  0  0  0  0  0  0  0
    2.6660   14.0750   -1.4370 C   0  0  0  0  0  0  0  0  0  0  0  0
    2.2890   14.1830   -2.7250 C   0  0  0  0  0  0  0  0  0  0  0  0
    1.9360   12.9390   -3.5490 C   0  0  1  0  0  0  0  0  0  0  0  0
    2.6370   13.0160   -4.9310 C   0  0  0  0  0  0  0  0  0  0  0  0
    2.3290   14.3140   -5.6710 C   0  0  0  0  0  0  0  0  0  0  0  0
    2.7470   15.5270   -4.8440 C   0  0  2  0  0  0  0  0  0  0  0  0
    4.1740   15.5370   -4.7310 O   0  0  0  0  0  0  0  0  0  0  0  0
    2.1100   15.5520   -3.4270 C   0  0  0  0  0  0  0  0  0  0  0  0
    0.5930   15.8430   -3.5440 C   0  0  0  0  0  0  0  0  0  0  0  0
    2.7230   16.7470   -2.6490 C   0  0  0  0  0  0  0  0  0  0  0  0
    2.1630   11.5410   -2.8270 C   0  0  1  0  0  0  0  0  0  0  0  0
    3.6340   11.0680   -3.0340 C   0  0  0  0  0  0  0  0  0  0  0  0
    1.2470   10.4560   -3.5080 C   0  0  0  0  0  0  0  0  0  0  0  0
   -0.1830   10.3080   -2.9560 C   0  0  0  0  0  0  0  0  0  0  0  0
   -0.1720   10.1910   -1.4290 C   0  0  2  0  0  0  0  0  0  0  0  0
    0.6070    8.8840   -1.0550 C   0  0  0  0  0  0  0  0  0  0  0  0
   -1.8124    7.1256   -2.0019 H   0  0  0  0  0  0  0  0  0  0  0  0
   -3.0712    8.1948   -2.7081 H   0  0  0  0  0  0  0  0  0  0  0  0
   -1.3508    8.7114   -2.7081 H   0  0  0  0  0  0  0  0  0  0  0  0
   -1.9425    8.1449   -0.0159 H   0  0  0  0  0  0  0  0  0  0  0  0
   -3.8852    9.6076    0.4965 H   0  0  0  0  0  0  0  0  0  0  0  0
   -4.2186    9.6901   -1.2991 H   0  0  0  0  0  0  0  0  0  0  0  0
   -3.9838    6.9552   -0.2183 H   0  0  0  0  0  0  0  0  0  0  0  0
   -5.3764    7.9216    0.4252 H   0  0  0  0  0  0  0  0  0  0  0  0
   -4.5413    7.1023   -2.1328 H   0  0  0  0  0  0  0  0  0  0  0  0
   -7.0319    7.2108    0.4300 H   0  0  0  0  0  0  0  0  0  0  0  0
   -8.4624    7.8966   -0.4127 H   0  0  0  0  0  0  0  0  0  0  0  0
   -8.1854    6.1218   -0.4127 H   0  0  0  0  0  0  0  0  0  0  0  0
   -8.0994    5.7184   -2.5966 H   0  0  0  0  0  0  0  0  0  0  0  0
   -8.0189    7.2628   -3.5103 H   0  0  0  0  0  0  0  0  0  0  0  0
   -6.6128    6.1450   -3.5103 H   0  0  0  0  0  0  0  0  0  0  0  0
   -2.2625   10.8037   -1.2497 H   0  0  0  0  0  0  0  0  0  0  0  0
   -1.9722   11.2801    1.1019 H   0  0  0  0  0  0  0  0  0  0  0  0
   -1.1946    9.7112    1.4027 H   0  0  0  0  0  0  0  0  0  0  0  0
    0.1520   12.2257    1.2227 H   0  0  0  0  0  0  0  0  0  0  0  0
    0.9623   10.6634    1.1421 H   0  0  0  0  0  0  0  0  0  0  0  0
   -0.6750   13.3060   -0.2428 H   0  0  0  0  0  0  0  0  0  0  0  0
    0.2686   13.4878   -1.7604 H   0  0  0  0  0  0  0  0  0  0  0  0
   -1.2591   12.5428   -1.7604 H   0  0  0  0  0  0  0  0  0  0  0  0
    2.3730   10.7214   -0.8249 H   0  0  0  0  0  0  0  0  0  0  0  0
    2.2686   13.0150    0.3437 H   0  0  0  0  0  0  0  0  0  0  0  0
    3.7552   12.5002   -0.6128 H   0  0  0  0  0  0  0  0  0  0  0  0
    2.9750   14.9975   -0.9236 H   0  0  0  0  0  0  0  0  0  0  0  0
    0.8444   12.9634   -3.6824 H   0  0  0  0  0  0  0  0  0  0  0  0
    3.7242   12.9459   -4.7794 H   0  0  0  0  0  0  0  0  0  0  0  0
    2.2595   12.1843   -5.5440 H   0  0  0  0  0  0  0  0  0  0  0  0
    2.8766   14.3229   -6.6250 H   0  0  0  0  0  0  0  0  0  0  0  0
    1.2448   14.3675   -5.8487 H   0  0  0  0  0  0  0  0  0  0  0  0
    2.3830   16.4241   -5.3662 H   0  0  0  0  0  0  0  0  0  0  0  0
    4.4960   16.3560   -5.1440 H   0  0  0  0  0  0  0  0  0  0  0  0
    0.1570   15.9266   -2.5376 H   0  0  0  0  0  0  0  0  0  0  0  0
    0.4416   16.7866   -4.0888 H   0  0  0  0  0  0  0  0  0  0  0  0
    0.1032   15.0224   -4.0888 H   0  0  0  0  0  0  0  0  0  0  0  0
    2.6305   16.5668   -1.5678 H   0  0  0  0  0  0  0  0  0  0  0  0
    3.7856   16.8506   -2.9139 H   0  0  0  0  0  0  0  0  0  0  0  0
    2.1873   17.6705   -2.9139 H   0  0  0  0  0  0  0  0  0  0  0  0
    4.1111   10.9146   -2.0548 H   0  0  0  0  0  0  0  0  0  0  0  0
    3.6395   10.1228   -3.5966 H   0  0  0  0  0  0  0  0  0  0  0  0
    4.1894   11.8329   -3.5966 H   0  0  0  0  0  0  0  0  0  0  0  0
    1.1669   10.7106   -4.5751 H   0  0  0  0  0  0  0  0  0  0  0  0
    1.7370    9.4937   -3.2987 H   0  0  0  0  0  0  0  0  0  0  0  0
   -0.7733   11.1900   -3.2450 H   0  0  0  0  0  0  0  0  0  0  0  0
   -0.6275    9.3930   -3.3746 H   0  0  0  0  0  0  0  0  0  0  0  0
    0.6626    8.7908    0.0396 H   0  0  0  0  0  0  0  0  0  0  0  0
    0.0812    8.0120   -1.4710 H   0  0  0  0  0  0  0  0  0  0  0  0
    1.6242    8.9316   -1.4710 H   0  0  0  0  0  0  0  0  0  0  0  0
  1  2  1  0  0  0  0
  1 33  1  0  0  0  0
  1 34  1  0  0  0  0
  1 35  1  0  0  0  0
  2  3  1  0  0  0  0
  2 10  1  0  0  0  0
  2 36  1  1  0  0  0
  3  4  1  0  0  0  0
  3 37  1  0  0  0  0
  3 38  1  0  0  0  0
  4  5  1  0  0  0  0
  4 39  1  0  0  0  0
  4 40  1  0  0  0  0
  5  6  1  0  0  0  0
  5 41  1  6  0  0  0
  6  7  1  0  0  0  0
  7  8  1  0  0  0  0
  7  9  1  0  0  0  0
  7  5  1  0  0  0  0
  8 42  1  0  0  0  0
  8 43  1  0  0  0  0
  8 44  1  0  0  0  0
  9 45  1  0  0  0  0
  9 46  1  0  0  0  0
  9 47  1  0  0  0  0
 10 11  1  0  0  0  0
 10 48  1  6  0  0  0
 11 12  1  0  0  0  0
 11 49  1  0  0  0  0
 11 50  1  0  0  0  0
 12 13  1  0  0  0  0
 12 51  1  0  0  0  0
 12 52  1  0  0  0  0
 13 14  1  6  0  0  0
 13 15  1  0  0  0  0
 14 53  1  0  0  0  0
 14 54  1  0  0  0  0
 14 55  1  0  0  0  0
 15 16  1  0  0  0  0
 15 56  1  1  0  0  0
 16 17  1  0  0  0  0
 16 57  1  0  0  0  0
 16 58  1  0  0  0  0
 17 18  2  0  0  0  0
 17 59  1  0  0  0  0
 18 19  1  0  0  0  0
 19 20  1  0  0  0  0
 19 27  1  0  0  0  0
 19 60  1  6  0  0  0
 20 21  1  0  0  0  0
 20 61  1  0  0  0  0
 20 62  1  0  0  0  0
 21 22  1  0  0  0  0
 21 63  1  0  0  0  0
 21 64  1  0  0  0  0
 22 23  1  0  0  0  0
 22 24  1  0  0  0  0
 22 65  1  6  0  0  0
 23 66  1  0  0  0  0
 24 25  1  0  0  0  0
 24 26  1  0  0  0  0
 24 18  1  0  0  0  0
 25 67  1  0  0  0  0
 25 68  1  0  0  0  0
 25 69  1  0  0  0  0
 26 70  1  0  0  0  0
 26 71  1  0  0  0  0
 26 72  1  0  0  0  0
 27 28  1  6  0  0  0
 27 29  1  0  0  0  0
 27 15  1  0  0  0  0
 28 73  1  0  0  0  0
 28 74  1  0  0  0  0
 28 75  1  0  0  0  0
 29 30  1  0  0  0  0
 29 76  1  0  0  0  0
 29 77  1  0  0  0  0
 30 31  1  0  0  0  0
 30 78  1  0  0  0  0
 30 79  1  0  0  0  0
 31 32  1  1  0  0  0
 31 10  1  0  0  0  0
 31 13  1  0  0  0  0
 32 80  1  0  0  0  0
 32 81  1  0  0  0  0
 32 82  1  0  0  0  0
M  END
>  <meeko>
{"is_sidechain": [false], "intermolecular_energy": 2.731, "internal_energy": -0.839}

$$$$
