EPH_relaxed_0001_pdb2pqr_Repair_274_r2_0001_out
 OpenBabel07272616253D

 82 86  0  0  0  0  0  0  0  0999 V2000
   -1.7140    8.5860   -1.8780 C   0  0  0  0  0  0  0  0  0  0  0  0
   -2.0900    9.1080   -0.4880 C   0  0  2  0  0  0  0  0  0  0  0  0
   -3.5840    9.4780   -0.3910 C   0  0  0  0  0  0  0  0  0  0  0  0
   -4.5090    8.2680   -0.2350 C   0  0  0  0  0  0  0  0  0  0  0  0
   -5.2110    7.9380   -1.5180 C   0  0  2  0  0  0  0  0  0  0  0  0
   -6.3570    8.7520   -1.7990 O   0  0  0  0  0  0  0  0  0  0  0  0
   -6.6110    7.3550   -1.5790 C   0  0  0  0  0  0  0  0  0  0  0  0
   -7.3920    7.0670   -0.3350 C   0  0  0  0  0  0  0  0  0  0  0  0
   -7.0250    6.6160   -2.8130 C   0  0  0  0  0  0  0  0  0  0  0  0
   -1.2310   10.3160   -0.1360 C   0  0  1  0  0  0  0  0  0  0  0  0
   -0.2010   10.0110    0.9840 C   0  0  0  0  0  0  0  0  0  0  0  0
    1.0700   10.8380    0.6610 C   0  0  0  0  0  0  0  0  0  0  0  0
    0.6200   11.8340   -0.4330 C   0  0  1  0  0  0  0  0  0  0  0  0
   -0.0870   12.9890    0.3430 C   0  0  0  0  0  0  0  0  0  0  0  0
    1.7410   12.3750   -1.3790 C   0  0  2  0  0  0  0  0  0  0  0  0
    2.8440   13.1910   -0.6820 C   0  0  0  0  0  0  0  0  0  0  0  0
    2.5940   14.6610   -0.6000 C   0  0  0  0  0  0  0  0  0  0  0  0
    1.6730   15.3390   -1.3090 C   0  0  0  0  0  0  0  0  0  0  0  0
    0.8290   14.6350   -2.3800 C   0  0  1  0  0  0  0  0  0  0  0  0
    0.8040   15.4970   -3.6690 C   0  0  0  0  0  0  0  0  0  0  0  0
    0.3410   16.9270   -3.4080 C   0  0  0  0  0  0  0  0  0  0  0  0
    1.2400   17.6120   -2.3820 C   0  0  2  0  0  0  0  0  0  0  0  0
    2.5420   17.7800   -2.9500 O   0  0  0  0  0  0  0  0  0  0  0  0
    1.3490   16.8300   -1.0440 C   0  0  0  0  0  0  0  0  0  0  0  0
    0.0020   16.9070   -0.2840 C   0  0  0  0  0  0  0  0  0  0  0  0
    2.3940   17.5540   -0.1520 C   0  0  0  0  0  0  0  0  0  0  0  0
    1.2000   13.1170   -2.6680 C   0  0  1  0  0  0  0  0  0  0  0  0
    2.3340   13.0390   -3.7350 C   0  0  0  0  0  0  0  0  0  0  0  0
   -0.0500   12.3920   -3.2940 C   0  0  0  0  0  0  0  0  0  0  0  0
   -1.0600   11.7740   -2.3100 C   0  0  0  0  0  0  0  0  0  0  0  0
   -0.3490   10.9130   -1.2610 C   0  0  2  0  0  0  0  0  0  0  0  0
    0.3530    9.7300   -2.0110 C   0  0  0  0  0  0  0  0  0  0  0  0
   -1.0739    7.6974   -1.7752 H   0  0  0  0  0  0  0  0  0  0  0  0
   -2.6278    8.3179   -2.4286 H   0  0  0  0  0  0  0  0  0  0  0  0
   -1.1703    9.3678   -2.4286 H   0  0  0  0  0  0  0  0  0  0  0  0
   -1.9031    8.2969    0.2312 H   0  0  0  0  0  0  0  0  0  0  0  0
   -3.7230   10.1359    0.4796 H   0  0  0  0  0  0  0  0  0  0  0  0
   -3.8553    9.9701   -1.3366 H   0  0  0  0  0  0  0  0  0  0  0  0
   -3.9105    7.3996    0.0775 H   0  0  0  0  0  0  0  0  0  0  0  0
   -5.2708    8.5136    0.5195 H   0  0  0  0  0  0  0  0  0  0  0  0
   -4.2636    7.6328   -1.9862 H   0  0  0  0  0  0  0  0  0  0  0  0
   -6.7746    7.2947    0.5465 H   0  0  0  0  0  0  0  0  0  0  0  0
   -8.2984    7.6900   -0.3186 H   0  0  0  0  0  0  0  0  0  0  0  0
   -7.6769    6.0047   -0.3186 H   0  0  0  0  0  0  0  0  0  0  0  0
   -7.5443    5.6890   -2.5284 H   0  0  0  0  0  0  0  0  0  0  0  0
   -7.7010    7.2469   -3.4088 H   0  0  0  0  0  0  0  0  0  0  0  0
   -6.1339    6.3690   -3.4088 H   0  0  0  0  0  0  0  0  0  0  0  0
   -2.0210   11.0291    0.1421 H   0  0  0  0  0  0  0  0  0  0  0  0
   -0.6069   10.3070    1.9626 H   0  0  0  0  0  0  0  0  0  0  0  0
    0.0281    8.9360    1.0275 H   0  0  0  0  0  0  0  0  0  0  0  0
    1.4212   11.3751    1.5544 H   0  0  0  0  0  0  0  0  0  0  0  0
    1.9065   10.2050    0.3301 H   0  0  0  0  0  0  0  0  0  0  0  0
    0.0161   12.8206    1.4251 H   0  0  0  0  0  0  0  0  0  0  0  0
    0.3783   13.9491    0.0754 H   0  0  0  0  0  0  0  0  0  0  0  0
   -1.1537   13.0113    0.0754 H   0  0  0  0  0  0  0  0  0  0  0  0
    2.2257   11.4498   -1.7240 H   0  0  0  0  0  0  0  0  0  0  0  0
    2.9546   12.8072    0.3429 H   0  0  0  0  0  0  0  0  0  0  0  0
    3.7476   13.0696   -1.2975 H   0  0  0  0  0  0  0  0  0  0  0  0
    3.2158   15.2388    0.0997 H   0  0  0  0  0  0  0  0  0  0  0  0
   -0.1862   14.5566   -1.9639 H   0  0  0  0  0  0  0  0  0  0  0  0
    1.8186   15.5268   -4.0929 H   0  0  0  0  0  0  0  0  0  0  0  0
    0.0876   15.0360   -4.3649 H   0  0  0  0  0  0  0  0  0  0  0  0
    0.3732   17.4936   -4.3503 H   0  0  0  0  0  0  0  0  0  0  0  0
   -0.6849   16.8975   -3.0122 H   0  0  0  0  0  0  0  0  0  0  0  0
    0.7844   18.5835   -2.1399 H   0  0  0  0  0  0  0  0  0  0  0  0
    3.0800   18.2770   -2.3100 H   0  0  0  0  0  0  0  0  0  0  0  0
    0.1912   16.8962    0.7995 H   0  0  0  0  0  0  0  0  0  0  0  0
   -0.5198   17.8364   -0.5558 H   0  0  0  0  0  0  0  0  0  0  0  0
   -0.6223   16.0431   -0.5558 H   0  0  0  0  0  0  0  0  0  0  0  0
    2.1511   17.3857    0.9076 H   0  0  0  0  0  0  0  0  0  0  0  0
    3.3970   17.1563   -0.3659 H   0  0  0  0  0  0  0  0  0  0  0  0
    2.3741   18.6328   -0.3659 H   0  0  0  0  0  0  0  0  0  0  0  0
    3.3088   12.9719   -3.2298 H   0  0  0  0  0  0  0  0  0  0  0  0
    2.1850   12.1490   -4.3640 H   0  0  0  0  0  0  0  0  0  0  0  0
    2.3083   13.9410   -4.3640 H   0  0  0  0  0  0  0  0  0  0  0  0
   -0.5903   13.1294   -3.9058 H   0  0  0  0  0  0  0  0  0  0  0  0
    0.3627   11.5405   -3.8549 H   0  0  0  0  0  0  0  0  0  0  0  0
   -1.6070   12.5816   -1.8016 H   0  0  0  0  0  0  0  0  0  0  0  0
   -1.7539   11.1349   -2.8757 H   0  0  0  0  0  0  0  0  0  0  0  0
    0.7706    9.0262   -1.2760 H   0  0  0  0  0  0  0  0  0  0  0  0
   -0.3818    9.2083   -2.6418 H   0  0  0  0  0  0  0  0  0  0  0  0
    1.1630   10.1250   -2.6418 H   0  0  0  0  0  0  0  0  0  0  0  0
  1  2  1  0  0  0  0
  1 33  1  0  0  0  0
  1 34  1  0  0  0  0
  1 35  1  0  0  0  0
  2  3  1  0  0  0  0
  2 10  1  0  0  0  0
  2 36  1  1  0  0  0
  3  4  1  0  0  0  0
  3 37  1  0  0  0  0
  3 38  1  0  0  0  0
  4  5  1  0  0  0  0
  4 39  1  0  0  0  0
  4 40  1  0  0  0  0
  5  6  1  0  0  0  0
  5 41  1  6  0  0  0
  6  7  1  0  0  0  0
  7  8  1  0  0  0  0
  7  9  1  0  0  0  0
  7  5  1  0  0  0  0
  8 42  1  0  0  0  0
  8 43  1  0  0  0  0
  8 44  1  0  0  0  0
  9 45  1  0  0  0  0
  9 46  1  0  0  0  0
  9 47  1  0  0  0  0
 10 11  1  0  0  0  0
 10 48  1  1  0  0  0
 11 12  1  0  0  0  0
 11 49  1  0  0  0  0
 11 50  1  0  0  0  0
 12 13  1  0  0  0  0
 12 51  1  0  0  0  0
 12 52  1  0  0  0  0
 13 14  1  1  0  0  0
 13 15  1  0  0  0  0
 14 53  1  0  0  0  0
 14 54  1  0  0  0  0
 14 55  1  0  0  0  0
 15 16  1  0  0  0  0
 15 56  1  6  0  0  0
 16 17  1  0  0  0  0
 16 57  1  0  0  0  0
 16 58  1  0  0  0  0
 17 18  2  0  0  0  0
 17 59  1  0  0  0  0
 18 19  1  0  0  0  0
 19 20  1  0  0  0  0
 19 27  1  0  0  0  0
 19 60  1  1  0  0  0
 20 21  1  0  0  0  0
 20 61  1  0  0  0  0
 20 62  1  0  0  0  0
 21 22  1  0  0  0  0
 21 63  1  0  0  0  0
 21 64  1  0  0  0  0
 22 23  1  0  0  0  0
 22 24  1  0  0  0  0
 22 65  1  1  0  0  0
 23 66  1  0  0  0  0
 24 25  1  0  0  0  0
 24 26  1  0  0  0  0
 24 18  1  0  0  0  0
 25 67  1  0  0  0  0
 25 68  1  0  0  0  0
 25 69  1  0  0  0  0
 26 70  1  0  0  0  0
 26 71  1  0  0  0  0
 26 72  1  0  0  0  0
 27 28  1  6  0  0  0
 27 29  1  0  0  0  0
 27 15  1  0  0  0  0
 28 73  1  0  0  0  0
 28 74  1  0  0  0  0
 28 75  1  0  0  0  0
 29 30  1  0  0  0  0
 29 76  1  0  0  0  0
 29 77  1  0  0  0  0
 30 31  1  0  0  0  0
 30 78  1  0  0  0  0
 30 79  1  0  0  0  0
 31 32  1  6  0  0  0
 31 10  1  0  0  0  0
 31 13  1  0  0  0  0
 32 80  1  0  0  0  0
 32 81  1  0  0  0  0
 32 82  1  0  0  0  0
M  END
>  <meeko>
{"is_sidechain": [false], "intermolecular_energy": 2.731, "internal_energy": -0.839}

$$$$
