EPH_relaxed_0001_pdb2pqr_Repair_245_r2_0001_out
 OpenBabel07272616253D

 82 86  0  0  0  0  0  0  0  0999 V2000
   -1.6820    8.5840   -1.8710 C   0  0  0  0  0  0  0  0  0  0  0  0
   -2.0670    9.1140   -0.4870 C   0  0  2  0  0  0  0  0  0  0  0  0
   -3.5610    9.4850   -0.4020 C   0  0  0  0  0  0  0  0  0  0  0  0
   -4.4890    8.2740   -0.2700 C   0  0  0  0  0  0  0  0  0  0  0  0
   -5.1760    7.9590   -1.5640 C   0  0  2  0  0  0  0  0  0  0  0  0
   -6.3620    8.7240   -1.8140 O   0  0  0  0  0  0  0  0  0  0  0  0
   -6.5440    7.3090   -1.6470 C   0  0  0  0  0  0  0  0  0  0  0  0
   -7.3070    6.9340   -0.4160 C   0  0  0  0  0  0  0  0  0  0  0  0
   -6.9220    6.5970   -2.9090 C   0  0  0  0  0  0  0  0  0  0  0  0
   -1.2090   10.3250   -0.1370 C   0  0  1  0  0  0  0  0  0  0  0  0
   -0.1730   10.0200    0.9780 C   0  0  0  0  0  0  0  0  0  0  0  0
    1.0940   10.8520    0.6500 C   0  0  0  0  0  0  0  0  0  0  0  0
    0.6350   11.8490   -0.4400 C   0  0  1  0  0  0  0  0  0  0  0  0
   -0.0720   13.0000    0.3420 C   0  0  0  0  0  0  0  0  0  0  0  0
    1.7500   12.3960   -1.3900 C   0  0  2  0  0  0  0  0  0  0  0  0
    2.8540   13.2140   -0.6970 C   0  0  0  0  0  0  0  0  0  0  0  0
    2.6000   14.6820   -0.6100 C   0  0  0  0  0  0  0  0  0  0  0  0
    1.6720   15.3590   -1.3140 C   0  0  0  0  0  0  0  0  0  0  0  0
    0.8250   14.6550   -2.3810 C   0  0  1  0  0  0  0  0  0  0  0  0
    0.7910   15.5200   -3.6690 C   0  0  0  0  0  0  0  0  0  0  0  0
    0.3250   16.9480   -3.4020 C   0  0  0  0  0  0  0  0  0  0  0  0
    1.2270   17.6340   -2.3790 C   0  0  2  0  0  0  0  0  0  0  0  0
    2.5260   17.8070   -2.9530 O   0  0  0  0  0  0  0  0  0  0  0  0
    1.3460   16.8480   -1.0430 C   0  0  0  0  0  0  0  0  0  0  0  0
    0.0030   16.9200   -0.2760 C   0  0  0  0  0  0  0  0  0  0  0  0
    2.3920   17.5730   -0.1550 C   0  0  0  0  0  0  0  0  0  0  0  0
    1.2000   13.1380   -2.6750 C   0  0  1  0  0  0  0  0  0  0  0  0
    2.3290   13.0670   -3.7480 C   0  0  0  0  0  0  0  0  0  0  0  0
   -0.0510   12.4110   -3.2960 C   0  0  0  0  0  0  0  0  0  0  0  0
   -1.0550   11.7870   -2.3080 C   0  0  0  0  0  0  0  0  0  0  0  0
   -0.3350   10.9270   -1.2650 C   0  0  2  0  0  0  0  0  0  0  0  0
    0.3670    9.7470   -2.0210 C   0  0  0  0  0  0  0  0  0  0  0  0
   -1.0389    7.6987   -1.7587 H   0  0  0  0  0  0  0  0  0  0  0  0
   -2.5919    8.3084   -2.4243 H   0  0  0  0  0  0  0  0  0  0  0  0
   -1.1386    9.3641   -2.4243 H   0  0  0  0  0  0  0  0  0  0  0  0
   -1.8855    8.3072    0.2384 H   0  0  0  0  0  0  0  0  0  0  0  0
   -3.7087   10.1330    0.4745 H   0  0  0  0  0  0  0  0  0  0  0  0
   -3.8215    9.9886   -1.3446 H   0  0  0  0  0  0  0  0  0  0  0  0
   -3.8949    7.4016    0.0399 H   0  0  0  0  0  0  0  0  0  0  0  0
   -5.2593    8.5120    0.4783 H   0  0  0  0  0  0  0  0  0  0  0  0
   -4.2152    7.7205   -2.0436 H   0  0  0  0  0  0  0  0  0  0  0  0
   -6.7281    7.2185    0.4751 H   0  0  0  0  0  0  0  0  0  0  0  0
   -8.2731    7.4599   -0.4090 H   0  0  0  0  0  0  0  0  0  0  0  0
   -7.4808    5.8478   -0.4090 H   0  0  0  0  0  0  0  0  0  0  0  0
   -7.4244    5.6507   -2.6597 H   0  0  0  0  0  0  0  0  0  0  0  0
   -7.6029    7.2298   -3.4971 H   0  0  0  0  0  0  0  0  0  0  0  0
   -6.0164    6.3875   -3.4971 H   0  0  0  0  0  0  0  0  0  0  0  0
   -1.9992   11.0360    0.1459 H   0  0  0  0  0  0  0  0  0  0  0  0
   -0.5750   10.3127    1.9592 H   0  0  0  0  0  0  0  0  0  0  0  0
    0.0592    8.9456    1.0187 H   0  0  0  0  0  0  0  0  0  0  0  0
    1.4481   11.3885    1.5426 H   0  0  0  0  0  0  0  0  0  0  0  0
    1.9309   10.2224    0.3135 H   0  0  0  0  0  0  0  0  0  0  0  0
    0.0339   12.8276    1.4232 H   0  0  0  0  0  0  0  0  0  0  0  0
    0.3912   13.9619    0.0769 H   0  0  0  0  0  0  0  0  0  0  0  0
   -1.1394   13.0217    0.0769 H   0  0  0  0  0  0  0  0  0  0  0  0
    2.2368   11.4733   -1.7387 H   0  0  0  0  0  0  0  0  0  0  0  0
    2.9714   12.8281    0.3264 H   0  0  0  0  0  0  0  0  0  0  0  0
    3.7545   13.0972   -1.3178 H   0  0  0  0  0  0  0  0  0  0  0  0
    3.2232   15.2603    0.0880 H   0  0  0  0  0  0  0  0  0  0  0  0
   -0.1876   14.5725   -1.9594 H   0  0  0  0  0  0  0  0  0  0  0  0
    1.8033   15.5537   -4.0980 H   0  0  0  0  0  0  0  0  0  0  0  0
    0.0728   15.0584   -4.3626 H   0  0  0  0  0  0  0  0  0  0  0  0
    0.3504   17.5169   -4.3431 H   0  0  0  0  0  0  0  0  0  0  0  0
   -0.6986   16.9140   -3.0006 H   0  0  0  0  0  0  0  0  0  0  0  0
    0.7694   18.6035   -2.1327 H   0  0  0  0  0  0  0  0  0  0  0  0
    3.1120   18.1500   -2.2570 H   0  0  0  0  0  0  0  0  0  0  0  0
    0.1980   16.9095    0.8065 H   0  0  0  0  0  0  0  0  0  0  0  0
   -0.5235   17.8477   -0.5448 H   0  0  0  0  0  0  0  0  0  0  0  0
   -0.6197   16.0539   -0.5448 H   0  0  0  0  0  0  0  0  0  0  0  0
    2.1514   17.4062    0.9053 H   0  0  0  0  0  0  0  0  0  0  0  0
    3.3946   17.1752   -0.3704 H   0  0  0  0  0  0  0  0  0  0  0  0
    2.3714   18.6515   -0.3704 H   0  0  0  0  0  0  0  0  0  0  0  0
    3.3068   13.0055   -3.2479 H   0  0  0  0  0  0  0  0  0  0  0  0
    2.1820   12.1763   -4.3766 H   0  0  0  0  0  0  0  0  0  0  0  0
    2.2947   13.9691   -4.3766 H   0  0  0  0  0  0  0  0  0  0  0  0
   -0.5966   13.1484   -3.9032 H   0  0  0  0  0  0  0  0  0  0  0  0
    0.3614   11.5620   -3.8609 H   0  0  0  0  0  0  0  0  0  0  0  0
   -1.6026   12.5915   -1.7952 H   0  0  0  0  0  0  0  0  0  0  0  0
   -1.7499   11.1468   -2.8714 H   0  0  0  0  0  0  0  0  0  0  0  0
    0.7870    9.0411   -1.2894 H   0  0  0  0  0  0  0  0  0  0  0  0
   -0.3685    9.2267   -2.6521 H   0  0  0  0  0  0  0  0  0  0  0  0
    1.1752   10.1451   -2.6521 H   0  0  0  0  0  0  0  0  0  0  0  0
  1  2  1  0  0  0  0
  1 33  1  0  0  0  0
  1 34  1  0  0  0  0
  1 35  1  0  0  0  0
  2  3  1  0  0  0  0
  2 10  1  0  0  0  0
  2 36  1  1  0  0  0
  3  4  1  0  0  0  0
  3 37  1  0  0  0  0
  3 38  1  0  0  0  0
  4  5  1  0  0  0  0
  4 39  1  0  0  0  0
  4 40  1  0  0  0  0
  5  6  1  0  0  0  0
  5 41  1  6  0  0  0
  6  7  1  0  0  0  0
  7  8  1  0  0  0  0
  7  9  1  0  0  0  0
  7  5  1  0  0  0  0
  8 42  1  0  0  0  0
  8 43  1  0  0  0  0
  8 44  1  0  0  0  0
  9 45  1  0  0  0  0
  9 46  1  0  0  0  0
  9 47  1  0  0  0  0
 10 11  1  0  0  0  0
 10 48  1  1  0  0  0
 11 12  1  0  0  0  0
 11 49  1  0  0  0  0
 11 50  1  0  0  0  0
 12 13  1  0  0  0  0
 12 51  1  0  0  0  0
 12 52  1  0  0  0  0
 13 14  1  1  0  0  0
 13 15  1  0  0  0  0
 14 53  1  0  0  0  0
 14 54  1  0  0  0  0
 14 55  1  0  0  0  0
 15 16  1  0  0  0  0
 15 56  1  6  0  0  0
 16 17  1  0  0  0  0
 16 57  1  0  0  0  0
 16 58  1  0  0  0  0
 17 18  2  0  0  0  0
 17 59  1  0  0  0  0
 18 19  1  0  0  0  0
 19 20  1  0  0  0  0
 19 27  1  0  0  0  0
 19 60  1  1  0  0  0
 20 21  1  0  0  0  0
 20 61  1  0  0  0  0
 20 62  1  0  0  0  0
 21 22  1  0  0  0  0
 21 63  1  0  0  0  0
 21 64  1  0  0  0  0
 22 23  1  0  0  0  0
 22 24  1  0  0  0  0
 22 65  1  1  0  0  0
 23 66  1  0  0  0  0
 24 25  1  0  0  0  0
 24 26  1  0  0  0  0
 24 18  1  0  0  0  0
 25 67  1  0  0  0  0
 25 68  1  0  0  0  0
 25 69  1  0  0  0  0
 26 70  1  0  0  0  0
 26 71  1  0  0  0  0
 26 72  1  0  0  0  0
 27 28  1  6  0  0  0
 27 29  1  0  0  0  0
 27 15  1  0  0  0  0
 28 73  1  0  0  0  0
 28 74  1  0  0  0  0
 28 75  1  0  0  0  0
 29 30  1  0  0  0  0
 29 76  1  0  0  0  0
 29 77  1  0  0  0  0
 30 31  1  0  0  0  0
 30 78  1  0  0  0  0
 30 79  1  0  0  0  0
 31 32  1  6  0  0  0
 31 10  1  0  0  0  0
 31 13  1  0  0  0  0
 32 80  1  0  0  0  0
 32 81  1  0  0  0  0
 32 82  1  0  0  0  0
M  END
>  <meeko>
{"is_sidechain": [false], "intermolecular_energy": 2.731, "internal_energy": -0.839}

$$$$
