EPH_relaxed_0001_pdb2pqr_Repair_53_r2_0001_out
 OpenBabel07272616253D

 82 86  0  0  0  0  0  0  0  0999 V2000
   -1.7060    8.5860   -1.8680 C   0  0  0  0  0  0  0  0  0  0  0  0
   -2.0910    9.1140   -0.4830 C   0  0  2  0  0  0  0  0  0  0  0  0
   -3.5850    9.4850   -0.3980 C   0  0  0  0  0  0  0  0  0  0  0  0
   -4.5110    8.2770   -0.2380 C   0  0  0  0  0  0  0  0  0  0  0  0
   -5.1990    7.9310   -1.5230 C   0  0  2  0  0  0  0  0  0  0  0  0
   -6.3470    8.7360   -1.8240 O   0  0  0  0  0  0  0  0  0  0  0  0
   -6.5950    7.3400   -1.5930 C   0  0  0  0  0  0  0  0  0  0  0  0
   -7.3860    7.0600   -0.3540 C   0  0  0  0  0  0  0  0  0  0  0  0
   -6.9930    6.5870   -2.8230 C   0  0  0  0  0  0  0  0  0  0  0  0
   -1.2330   10.3240   -0.1310 C   0  0  1  0  0  0  0  0  0  0  0  0
   -0.2080   10.0230    0.9940 C   0  0  0  0  0  0  0  0  0  0  0  0
    1.0640   10.8490    0.6740 C   0  0  0  0  0  0  0  0  0  0  0  0
    0.6170   11.8420   -0.4250 C   0  0  1  0  0  0  0  0  0  0  0  0
   -0.0930   12.9990    0.3450 C   0  0  0  0  0  0  0  0  0  0  0  0
    1.7420   12.3810   -1.3670 C   0  0  2  0  0  0  0  0  0  0  0  0
    2.8420   13.2000   -0.6690 C   0  0  0  0  0  0  0  0  0  0  0  0
    2.5910   14.6690   -0.5910 C   0  0  0  0  0  0  0  0  0  0  0  0
    1.6730   15.3450   -1.3070 C   0  0  0  0  0  0  0  0  0  0  0  0
    0.8330   14.6380   -2.3780 C   0  0  1  0  0  0  0  0  0  0  0  0
    0.8140   15.4960   -3.6700 C   0  0  0  0  0  0  0  0  0  0  0  0
    0.3490   16.9270   -3.4150 C   0  0  0  0  0  0  0  0  0  0  0  0
    1.2430   17.6150   -2.3870 C   0  0  2  0  0  0  0  0  0  0  0  0
    2.5480   17.7820   -2.9500 O   0  0  0  0  0  0  0  0  0  0  0  0
    1.3480   16.8360   -1.0460 C   0  0  0  0  0  0  0  0  0  0  0  0
   -0.0020   16.9150   -0.2920 C   0  0  0  0  0  0  0  0  0  0  0  0
    2.3880   17.5630   -0.1520 C   0  0  0  0  0  0  0  0  0  0  0  0
    1.2060   13.1190   -2.6610 C   0  0  1  0  0  0  0  0  0  0  0  0
    2.3450   13.0390   -3.7230 C   0  0  0  0  0  0  0  0  0  0  0  0
   -0.0400   12.3920   -3.2900 C   0  0  0  0  0  0  0  0  0  0  0  0
   -1.0550   11.7760   -2.3080 C   0  0  0  0  0  0  0  0  0  0  0  0
   -0.3470   10.9180   -1.2550 C   0  0  2  0  0  0  0  0  0  0  0  0
    0.3590    9.7330   -1.9970 C   0  0  0  0  0  0  0  0  0  0  0  0
   -1.0612    7.7017   -1.7571 H   0  0  0  0  0  0  0  0  0  0  0  0
   -2.6158    8.3093   -2.4209 H   0  0  0  0  0  0  0  0  0  0  0  0
   -1.1644    9.3677   -2.4209 H   0  0  0  0  0  0  0  0  0  0  0  0
   -1.9096    8.3063    0.2413 H   0  0  0  0  0  0  0  0  0  0  0  0
   -3.7290   10.1498    0.4664 H   0  0  0  0  0  0  0  0  0  0  0  0
   -3.8504    9.9696   -1.3492 H   0  0  0  0  0  0  0  0  0  0  0  0
   -3.9155    7.4127    0.0913 H   0  0  0  0  0  0  0  0  0  0  0  0
   -5.2811    8.5318    0.5050 H   0  0  0  0  0  0  0  0  0  0  0  0
   -4.2451    7.6263   -1.9781 H   0  0  0  0  0  0  0  0  0  0  0  0
   -6.7703    7.2779    0.5311 H   0  0  0  0  0  0  0  0  0  0  0  0
   -8.2843    7.6948   -0.3412 H   0  0  0  0  0  0  0  0  0  0  0  0
   -7.6849    6.0015   -0.3412 H   0  0  0  0  0  0  0  0  0  0  0  0
   -7.4890    5.6486   -2.5340 H   0  0  0  0  0  0  0  0  0  0  0  0
   -7.6854    7.1991   -3.4197 H   0  0  0  0  0  0  0  0  0  0  0  0
   -6.0973    6.3597   -3.4197 H   0  0  0  0  0  0  0  0  0  0  0  0
   -2.0241   11.0379    0.1420 H   0  0  0  0  0  0  0  0  0  0  0  0
   -0.6181   10.3221    1.9699 H   0  0  0  0  0  0  0  0  0  0  0  0
    0.0211    8.9482    1.0418 H   0  0  0  0  0  0  0  0  0  0  0  0
    1.4116   11.3887    1.5672 H   0  0  0  0  0  0  0  0  0  0  0  0
    1.9023   10.2155    0.3485 H   0  0  0  0  0  0  0  0  0  0  0  0
    0.0078   12.8347    1.4280 H   0  0  0  0  0  0  0  0  0  0  0  0
    0.3719   13.9586    0.0749 H   0  0  0  0  0  0  0  0  0  0  0  0
   -1.1591   13.0191    0.0749 H   0  0  0  0  0  0  0  0  0  0  0  0
    2.2288   11.4545   -1.7056 H   0  0  0  0  0  0  0  0  0  0  0  0
    2.9501   12.8188    0.3571 H   0  0  0  0  0  0  0  0  0  0  0  0
    3.7472   13.0782   -1.2821 H   0  0  0  0  0  0  0  0  0  0  0  0
    3.2084   15.2486    0.1110 H   0  0  0  0  0  0  0  0  0  0  0  0
   -0.1836   14.5608   -1.9651 H   0  0  0  0  0  0  0  0  0  0  0  0
    1.8306   15.5249   -4.0891 H   0  0  0  0  0  0  0  0  0  0  0  0
    0.1014   15.0326   -4.3682 H   0  0  0  0  0  0  0  0  0  0  0  0
    0.3852   17.4910   -4.3587 H   0  0  0  0  0  0  0  0  0  0  0  0
   -0.6787   16.8982   -3.0239 H   0  0  0  0  0  0  0  0  0  0  0  0
    0.7851   18.5865   -2.1494 H   0  0  0  0  0  0  0  0  0  0  0  0
    2.5000   18.5100   -3.5930 H   0  0  0  0  0  0  0  0  0  0  0  0
    0.1825   16.9042    0.7924 H   0  0  0  0  0  0  0  0  0  0  0  0
   -0.5213   17.8451   -0.5663 H   0  0  0  0  0  0  0  0  0  0  0  0
   -0.6263   16.0519   -0.5663 H   0  0  0  0  0  0  0  0  0  0  0  0
    2.1441   17.3925    0.9070 H   0  0  0  0  0  0  0  0  0  0  0  0
    3.3930   17.1697   -0.3647 H   0  0  0  0  0  0  0  0  0  0  0  0
    2.3639   18.6420   -0.3647 H   0  0  0  0  0  0  0  0  0  0  0  0
    3.3174   12.9707   -3.2133 H   0  0  0  0  0  0  0  0  0  0  0  0
    2.1976   12.1490   -4.3524 H   0  0  0  0  0  0  0  0  0  0  0  0
    2.3235   13.9409   -4.3524 H   0  0  0  0  0  0  0  0  0  0  0  0
   -0.5778   13.1273   -3.9065 H   0  0  0  0  0  0  0  0  0  0  0  0
    0.3756   11.5390   -3.8464 H   0  0  0  0  0  0  0  0  0  0  0  0
   -1.6041   12.5847   -1.8035 H   0  0  0  0  0  0  0  0  0  0  0  0
   -1.7474   11.1359   -2.8745 H   0  0  0  0  0  0  0  0  0  0  0  0
    0.7757    9.0335   -1.2574 H   0  0  0  0  0  0  0  0  0  0  0  0
   -0.3730    9.2069   -2.6274 H   0  0  0  0  0  0  0  0  0  0  0  0
    1.1701   10.1263   -2.6274 H   0  0  0  0  0  0  0  0  0  0  0  0
  1  2  1  0  0  0  0
  1 33  1  0  0  0  0
  1 34  1  0  0  0  0
  1 35  1  0  0  0  0
  2  3  1  0  0  0  0
  2 10  1  0  0  0  0
  2 36  1  1  0  0  0
  3  4  1  0  0  0  0
  3 37  1  0  0  0  0
  3 38  1  0  0  0  0
  4  5  1  0  0  0  0
  4 39  1  0  0  0  0
  4 40  1  0  0  0  0
  5  6  1  0  0  0  0
  5 41  1  6  0  0  0
  6  7  1  0  0  0  0
  7  8  1  0  0  0  0
  7  9  1  0  0  0  0
  7  5  1  0  0  0  0
  8 42  1  0  0  0  0
  8 43  1  0  0  0  0
  8 44  1  0  0  0  0
  9 45  1  0  0  0  0
  9 46  1  0  0  0  0
  9 47  1  0  0  0  0
 10 11  1  0  0  0  0
 10 48  1  1  0  0  0
 11 12  1  0  0  0  0
 11 49  1  0  0  0  0
 11 50  1  0  0  0  0
 12 13  1  0  0  0  0
 12 51  1  0  0  0  0
 12 52  1  0  0  0  0
 13 14  1  1  0  0  0
 13 15  1  0  0  0  0
 14 53  1  0  0  0  0
 14 54  1  0  0  0  0
 14 55  1  0  0  0  0
 15 16  1  0  0  0  0
 15 56  1  6  0  0  0
 16 17  1  0  0  0  0
 16 57  1  0  0  0  0
 16 58  1  0  0  0  0
 17 18  2  0  0  0  0
 17 59  1  0  0  0  0
 18 19  1  0  0  0  0
 19 20  1  0  0  0  0
 19 27  1  0  0  0  0
 19 60  1  1  0  0  0
 20 21  1  0  0  0  0
 20 61  1  0  0  0  0
 20 62  1  0  0  0  0
 21 22  1  0  0  0  0
 21 63  1  0  0  0  0
 21 64  1  0  0  0  0
 22 23  1  0  0  0  0
 22 24  1  0  0  0  0
 22 65  1  1  0  0  0
 23 66  1  0  0  0  0
 24 25  1  0  0  0  0
 24 26  1  0  0  0  0
 24 18  1  0  0  0  0
 25 67  1  0  0  0  0
 25 68  1  0  0  0  0
 25 69  1  0  0  0  0
 26 70  1  0  0  0  0
 26 71  1  0  0  0  0
 26 72  1  0  0  0  0
 27 28  1  6  0  0  0
 27 29  1  0  0  0  0
 27 15  1  0  0  0  0
 28 73  1  0  0  0  0
 28 74  1  0  0  0  0
 28 75  1  0  0  0  0
 29 30  1  0  0  0  0
 29 76  1  0  0  0  0
 29 77  1  0  0  0  0
 30 31  1  0  0  0  0
 30 78  1  0  0  0  0
 30 79  1  0  0  0  0
 31 32  1  6  0  0  0
 31 10  1  0  0  0  0
 31 13  1  0  0  0  0
 32 80  1  0  0  0  0
 32 81  1  0  0  0  0
 32 82  1  0  0  0  0
M  END
>  <meeko>
{"is_sidechain": [false], "intermolecular_energy": 2.731, "internal_energy": -0.839}

$$$$
