EPH_relaxed_0001_pdb2pqr_Repair_227_r2_0001_out
 OpenBabel07272616253D

 82 86  0  0  0  0  0  0  0  0999 V2000
   -1.7030    8.5840   -1.8630 C   0  0  0  0  0  0  0  0  0  0  0  0
   -2.0870    9.1110   -0.4770 C   0  0  2  0  0  0  0  0  0  0  0  0
   -3.5810    9.4830   -0.3900 C   0  0  0  0  0  0  0  0  0  0  0  0
   -4.5070    8.2740   -0.2290 C   0  0  0  0  0  0  0  0  0  0  0  0
   -5.2010    7.9330   -1.5130 C   0  0  2  0  0  0  0  0  0  0  0  0
   -6.3530    8.7360   -1.8030 O   0  0  0  0  0  0  0  0  0  0  0  0
   -6.5950    7.3370   -1.5780 C   0  0  0  0  0  0  0  0  0  0  0  0
   -7.3780    7.0470   -0.3360 C   0  0  0  0  0  0  0  0  0  0  0  0
   -6.9970    6.5900   -2.8110 C   0  0  0  0  0  0  0  0  0  0  0  0
   -1.2280   10.3200   -0.1250 C   0  0  1  0  0  0  0  0  0  0  0  0
   -0.1980   10.0150    0.9960 C   0  0  0  0  0  0  0  0  0  0  0  0
    1.0720   10.8430    0.6730 C   0  0  0  0  0  0  0  0  0  0  0  0
    0.6210   11.8390   -0.4210 C   0  0  1  0  0  0  0  0  0  0  0  0
   -0.0870   12.9940    0.3550 C   0  0  0  0  0  0  0  0  0  0  0  0
    1.7420   12.3820   -1.3660 C   0  0  2  0  0  0  0  0  0  0  0  0
    2.8440   13.1980   -0.6700 C   0  0  0  0  0  0  0  0  0  0  0  0
    2.5930   14.6680   -0.5860 C   0  0  0  0  0  0  0  0  0  0  0  0
    1.6720   15.3450   -1.2960 C   0  0  0  0  0  0  0  0  0  0  0  0
    0.8280   14.6410   -2.3670 C   0  0  1  0  0  0  0  0  0  0  0  0
    0.8030   15.5040   -3.6560 C   0  0  0  0  0  0  0  0  0  0  0  0
    0.3390   16.9330   -3.3940 C   0  0  0  0  0  0  0  0  0  0  0  0
    1.2370   17.6190   -2.3680 C   0  0  2  0  0  0  0  0  0  0  0  0
    2.5400   17.7880   -2.9350 O   0  0  0  0  0  0  0  0  0  0  0  0
    1.3470   16.8360   -1.0300 C   0  0  0  0  0  0  0  0  0  0  0  0
    0.0000   16.9120   -0.2700 C   0  0  0  0  0  0  0  0  0  0  0  0
    2.3910   17.5600   -0.1370 C   0  0  0  0  0  0  0  0  0  0  0  0
    1.2000   13.1230   -2.6550 C   0  0  1  0  0  0  0  0  0  0  0  0
    2.3350   13.0470   -3.7220 C   0  0  0  0  0  0  0  0  0  0  0  0
   -0.0480   12.3980   -3.2820 C   0  0  0  0  0  0  0  0  0  0  0  0
   -1.0590   11.7780   -2.2980 C   0  0  0  0  0  0  0  0  0  0  0  0
   -0.3460   10.9180   -1.2500 C   0  0  2  0  0  0  0  0  0  0  0  0
    0.3570    9.7350   -1.9990 C   0  0  0  0  0  0  0  0  0  0  0  0
   -1.0584    7.6994   -1.7533 H   0  0  0  0  0  0  0  0  0  0  0  0
   -2.6133    8.3081   -2.4155 H   0  0  0  0  0  0  0  0  0  0  0  0
   -1.1615    9.3660   -2.4155 H   0  0  0  0  0  0  0  0  0  0  0  0
   -1.9059    8.3023    0.2464 H   0  0  0  0  0  0  0  0  0  0  0  0
   -3.7238   10.1476    0.4748 H   0  0  0  0  0  0  0  0  0  0  0  0
   -3.8477    9.9685   -1.3403 H   0  0  0  0  0  0  0  0  0  0  0  0
   -3.9103    7.4084    0.0946 H   0  0  0  0  0  0  0  0  0  0  0  0
   -5.2733    8.5259    0.5188 H   0  0  0  0  0  0  0  0  0  0  0  0
   -4.2487    7.6344   -1.9756 H   0  0  0  0  0  0  0  0  0  0  0  0
   -6.7627    7.2749    0.5469 H   0  0  0  0  0  0  0  0  0  0  0  0
   -8.2853    7.6687   -0.3210 H   0  0  0  0  0  0  0  0  0  0  0  0
   -7.6614    5.9843   -0.3210 H   0  0  0  0  0  0  0  0  0  0  0  0
   -7.5004    5.6546   -2.5252 H   0  0  0  0  0  0  0  0  0  0  0  0
   -7.6839    7.2088   -3.4070 H   0  0  0  0  0  0  0  0  0  0  0  0
   -6.1021    6.3576   -3.4070 H   0  0  0  0  0  0  0  0  0  0  0  0
   -2.0183   11.0331    0.1525 H   0  0  0  0  0  0  0  0  0  0  0  0
   -0.6043   10.3106    1.9745 H   0  0  0  0  0  0  0  0  0  0  0  0
    0.0316    8.9401    1.0399 H   0  0  0  0  0  0  0  0  0  0  0  0
    1.4228   11.3803    1.5664 H   0  0  0  0  0  0  0  0  0  0  0  0
    1.9090   10.2107    0.3419 H   0  0  0  0  0  0  0  0  0  0  0  0
    0.0161   12.8258    1.4372 H   0  0  0  0  0  0  0  0  0  0  0  0
    0.3778   13.9544    0.0873 H   0  0  0  0  0  0  0  0  0  0  0  0
   -1.1537   13.0156    0.0873 H   0  0  0  0  0  0  0  0  0  0  0  0
    2.2285   11.4574   -1.7101 H   0  0  0  0  0  0  0  0  0  0  0  0
    2.9561   12.8133    0.3544 H   0  0  0  0  0  0  0  0  0  0  0  0
    3.7468   13.0783   -1.2869 H   0  0  0  0  0  0  0  0  0  0  0  0
    3.2132   15.2457    0.1152 H   0  0  0  0  0  0  0  0  0  0  0  0
   -0.1875   14.5619   -1.9516 H   0  0  0  0  0  0  0  0  0  0  0  0
    1.8177   15.5348   -4.0795 H   0  0  0  0  0  0  0  0  0  0  0  0
    0.0874   15.0430   -4.3527 H   0  0  0  0  0  0  0  0  0  0  0  0
    0.3704   17.5001   -4.3361 H   0  0  0  0  0  0  0  0  0  0  0  0
   -0.6866   16.9019   -2.9976 H   0  0  0  0  0  0  0  0  0  0  0  0
    0.7801   18.5901   -2.1267 H   0  0  0  0  0  0  0  0  0  0  0  0
    2.9170   16.9030   -3.0750 H   0  0  0  0  0  0  0  0  0  0  0  0
    0.1892   16.9013    0.8135 H   0  0  0  0  0  0  0  0  0  0  0  0
   -0.5225   17.8411   -0.5418 H   0  0  0  0  0  0  0  0  0  0  0  0
   -0.6237   16.0476   -0.5418 H   0  0  0  0  0  0  0  0  0  0  0  0
    2.1474   17.3911    0.9223 H   0  0  0  0  0  0  0  0  0  0  0  0
    3.3944   17.1628   -0.3504 H   0  0  0  0  0  0  0  0  0  0  0  0
    2.3707   18.6389   -0.3504 H   0  0  0  0  0  0  0  0  0  0  0  0
    3.3098   12.9817   -3.2164 H   0  0  0  0  0  0  0  0  0  0  0  0
    2.1879   12.1567   -4.3511 H   0  0  0  0  0  0  0  0  0  0  0  0
    2.3079   13.9490   -4.3511 H   0  0  0  0  0  0  0  0  0  0  0  0
   -0.5885   13.1354   -3.8937 H   0  0  0  0  0  0  0  0  0  0  0  0
    0.3657   11.5473   -3.8434 H   0  0  0  0  0  0  0  0  0  0  0  0
   -1.6072   12.5846   -1.7893 H   0  0  0  0  0  0  0  0  0  0  0  0
   -1.7528   11.1388   -2.8637 H   0  0  0  0  0  0  0  0  0  0  0  0
    0.7748    9.0319   -1.2634 H   0  0  0  0  0  0  0  0  0  0  0  0
   -0.3772    9.2124   -2.6297 H   0  0  0  0  0  0  0  0  0  0  0  0
    1.1670   10.1301   -2.6297 H   0  0  0  0  0  0  0  0  0  0  0  0
  1  2  1  0  0  0  0
  1 33  1  0  0  0  0
  1 34  1  0  0  0  0
  1 35  1  0  0  0  0
  2  3  1  0  0  0  0
  2 10  1  0  0  0  0
  2 36  1  1  0  0  0
  3  4  1  0  0  0  0
  3 37  1  0  0  0  0
  3 38  1  0  0  0  0
  4  5  1  0  0  0  0
  4 39  1  0  0  0  0
  4 40  1  0  0  0  0
  5  6  1  0  0  0  0
  5 41  1  6  0  0  0
  6  7  1  0  0  0  0
  7  8  1  0  0  0  0
  7  9  1  0  0  0  0
  7  5  1  0  0  0  0
  8 42  1  0  0  0  0
  8 43  1  0  0  0  0
  8 44  1  0  0  0  0
  9 45  1  0  0  0  0
  9 46  1  0  0  0  0
  9 47  1  0  0  0  0
 10 11  1  0  0  0  0
 10 48  1  1  0  0  0
 11 12  1  0  0  0  0
 11 49  1  0  0  0  0
 11 50  1  0  0  0  0
 12 13  1  0  0  0  0
 12 51  1  0  0  0  0
 12 52  1  0  0  0  0
 13 14  1  1  0  0  0
 13 15  1  0  0  0  0
 14 53  1  0  0  0  0
 14 54  1  0  0  0  0
 14 55  1  0  0  0  0
 15 16  1  0  0  0  0
 15 56  1  6  0  0  0
 16 17  1  0  0  0  0
 16 57  1  0  0  0  0
 16 58  1  0  0  0  0
 17 18  2  0  0  0  0
 17 59  1  0  0  0  0
 18 19  1  0  0  0  0
 19 20  1  0  0  0  0
 19 27  1  0  0  0  0
 19 60  1  1  0  0  0
 20 21  1  0  0  0  0
 20 61  1  0  0  0  0
 20 62  1  0  0  0  0
 21 22  1  0  0  0  0
 21 63  1  0  0  0  0
 21 64  1  0  0  0  0
 22 23  1  0  0  0  0
 22 24  1  0  0  0  0
 22 65  1  1  0  0  0
 23 66  1  0  0  0  0
 24 25  1  0  0  0  0
 24 26  1  0  0  0  0
 24 18  1  0  0  0  0
 25 67  1  0  0  0  0
 25 68  1  0  0  0  0
 25 69  1  0  0  0  0
 26 70  1  0  0  0  0
 26 71  1  0  0  0  0
 26 72  1  0  0  0  0
 27 28  1  6  0  0  0
 27 29  1  0  0  0  0
 27 15  1  0  0  0  0
 28 73  1  0  0  0  0
 28 74  1  0  0  0  0
 28 75  1  0  0  0  0
 29 30  1  0  0  0  0
 29 76  1  0  0  0  0
 29 77  1  0  0  0  0
 30 31  1  0  0  0  0
 30 78  1  0  0  0  0
 30 79  1  0  0  0  0
 31 32  1  6  0  0  0
 31 10  1  0  0  0  0
 31 13  1  0  0  0  0
 32 80  1  0  0  0  0
 32 81  1  0  0  0  0
 32 82  1  0  0  0  0
M  END
>  <meeko>
{"is_sidechain": [false], "intermolecular_energy": 2.731, "internal_energy": -0.839}

$$$$
