EPH_relaxed_0001_pdb2pqr_Repair_240_r2_0001_out
 OpenBabel07272616253D

 82 86  0  0  0  0  0  0  0  0999 V2000
   -1.7120    8.5840   -1.8780 C   0  0  0  0  0  0  0  0  0  0  0  0
   -2.0900    9.1070   -0.4890 C   0  0  2  0  0  0  0  0  0  0  0  0
   -3.5840    9.4790   -0.3960 C   0  0  0  0  0  0  0  0  0  0  0  0
   -4.5110    8.2700   -0.2410 C   0  0  0  0  0  0  0  0  0  0  0  0
   -5.2000    7.9300   -1.5280 C   0  0  2  0  0  0  0  0  0  0  0  0
   -6.3460    8.7390   -1.8240 O   0  0  0  0  0  0  0  0  0  0  0  0
   -6.5970    7.3430   -1.5990 C   0  0  0  0  0  0  0  0  0  0  0  0
   -7.3880    7.0590   -0.3600 C   0  0  0  0  0  0  0  0  0  0  0  0
   -6.9970    6.5950   -2.8320 C   0  0  0  0  0  0  0  0  0  0  0  0
   -1.2300   10.3140   -0.1360 C   0  0  1  0  0  0  0  0  0  0  0  0
   -0.2030   10.0080    0.9860 C   0  0  0  0  0  0  0  0  0  0  0  0
    1.0700   10.8330    0.6650 C   0  0  0  0  0  0  0  0  0  0  0  0
    0.6220   11.8300   -0.4290 C   0  0  1  0  0  0  0  0  0  0  0  0
   -0.0850   12.9860    0.3460 C   0  0  0  0  0  0  0  0  0  0  0  0
    1.7450   12.3710   -1.3730 C   0  0  2  0  0  0  0  0  0  0  0  0
    2.8480   13.1860   -0.6750 C   0  0  0  0  0  0  0  0  0  0  0  0
    2.5990   14.6560   -0.5920 C   0  0  0  0  0  0  0  0  0  0  0  0
    1.6800   15.3340   -1.3030 C   0  0  0  0  0  0  0  0  0  0  0  0
    0.8370   14.6320   -2.3750 C   0  0  1  0  0  0  0  0  0  0  0  0
    0.8150   15.4940   -3.6650 C   0  0  0  0  0  0  0  0  0  0  0  0
    0.3530   16.9240   -3.4040 C   0  0  0  0  0  0  0  0  0  0  0  0
    1.2510   17.6090   -2.3760 C   0  0  2  0  0  0  0  0  0  0  0  0
    2.5540   17.7760   -2.9420 O   0  0  0  0  0  0  0  0  0  0  0  0
    1.3580   16.8260   -1.0380 C   0  0  0  0  0  0  0  0  0  0  0  0
    0.0090   16.9040   -0.2800 C   0  0  0  0  0  0  0  0  0  0  0  0
    2.4010   17.5480   -0.1440 C   0  0  0  0  0  0  0  0  0  0  0  0
    1.2070   13.1130   -2.6630 C   0  0  1  0  0  0  0  0  0  0  0  0
    2.3430   13.0350   -3.7280 C   0  0  0  0  0  0  0  0  0  0  0  0
   -0.0420   12.3900   -3.2920 C   0  0  0  0  0  0  0  0  0  0  0  0
   -1.0550   11.7720   -2.3090 C   0  0  0  0  0  0  0  0  0  0  0  0
   -0.3460   10.9110   -1.2600 C   0  0  2  0  0  0  0  0  0  0  0  0
    0.3560    9.7270   -2.0080 C   0  0  0  0  0  0  0  0  0  0  0  0
   -1.0706    7.6965   -1.7736 H   0  0  0  0  0  0  0  0  0  0  0  0
   -2.6249    8.3138   -2.4290 H   0  0  0  0  0  0  0  0  0  0  0  0
   -1.1691    9.3660   -2.4290 H   0  0  0  0  0  0  0  0  0  0  0  0
   -1.9057    8.2964    0.2314 H   0  0  0  0  0  0  0  0  0  0  0  0
   -3.7243   10.1379    0.4736 H   0  0  0  0  0  0  0  0  0  0  0  0
   -3.8524    9.9705   -1.3428 H   0  0  0  0  0  0  0  0  0  0  0  0
   -3.9158    7.4040    0.0841 H   0  0  0  0  0  0  0  0  0  0  0  0
   -5.2807    8.5217    0.5035 H   0  0  0  0  0  0  0  0  0  0  0  0
   -4.2474    7.6246   -1.9855 H   0  0  0  0  0  0  0  0  0  0  0  0
   -6.7739    7.2795    0.5256 H   0  0  0  0  0  0  0  0  0  0  0  0
   -8.2891    7.6897   -0.3476 H   0  0  0  0  0  0  0  0  0  0  0  0
   -7.6821    5.9991   -0.3476 H   0  0  0  0  0  0  0  0  0  0  0  0
   -7.4979    5.6583   -2.5463 H   0  0  0  0  0  0  0  0  0  0  0  0
   -7.6856    7.2120   -3.4280 H   0  0  0  0  0  0  0  0  0  0  0  0
   -6.1015    6.3649   -3.4280 H   0  0  0  0  0  0  0  0  0  0  0  0
   -2.0195   11.0283    0.1405 H   0  0  0  0  0  0  0  0  0  0  0  0
   -0.6104   10.3052    1.9636 H   0  0  0  0  0  0  0  0  0  0  0  0
    0.0243    8.9327    1.0306 H   0  0  0  0  0  0  0  0  0  0  0  0
    1.4211   11.3692    1.5590 H   0  0  0  0  0  0  0  0  0  0  0  0
    1.9062   10.1990    0.3350 H   0  0  0  0  0  0  0  0  0  0  0  0
    0.0176   12.8183    1.4283 H   0  0  0  0  0  0  0  0  0  0  0  0
    0.3808   13.9458    0.0779 H   0  0  0  0  0  0  0  0  0  0  0  0
   -1.1516   13.0085    0.0779 H   0  0  0  0  0  0  0  0  0  0  0  0
    2.2294   11.4451   -1.7165 H   0  0  0  0  0  0  0  0  0  0  0  0
    2.9579   12.8015    0.3497 H   0  0  0  0  0  0  0  0  0  0  0  0
    3.7517   13.0646   -1.2903 H   0  0  0  0  0  0  0  0  0  0  0  0
    3.2193   15.2331    0.1096 H   0  0  0  0  0  0  0  0  0  0  0  0
   -0.1789   14.5557   -1.9602 H   0  0  0  0  0  0  0  0  0  0  0  0
    1.8303   15.5228   -4.0874 H   0  0  0  0  0  0  0  0  0  0  0  0
    0.0997   15.0337   -4.3625 H   0  0  0  0  0  0  0  0  0  0  0  0
    0.3870   17.4908   -4.3461 H   0  0  0  0  0  0  0  0  0  0  0  0
   -0.6733   16.8947   -3.0093 H   0  0  0  0  0  0  0  0  0  0  0  0
    0.7954   18.5806   -2.1344 H   0  0  0  0  0  0  0  0  0  0  0  0
    2.4600   18.3120   -3.7470 H   0  0  0  0  0  0  0  0  0  0  0  0
    0.1963   16.8932    0.8039 H   0  0  0  0  0  0  0  0  0  0  0  0
   -0.5117   17.8338   -0.5529 H   0  0  0  0  0  0  0  0  0  0  0  0
   -0.6154   16.0405   -0.5529 H   0  0  0  0  0  0  0  0  0  0  0  0
    2.1562   17.3785    0.9149 H   0  0  0  0  0  0  0  0  0  0  0  0
    3.4042   17.1501   -0.3566 H   0  0  0  0  0  0  0  0  0  0  0  0
    2.3818   18.6271   -0.3566 H   0  0  0  0  0  0  0  0  0  0  0  0
    3.3169   12.9681   -3.2210 H   0  0  0  0  0  0  0  0  0  0  0  0
    2.1953   12.1449   -4.3572 H   0  0  0  0  0  0  0  0  0  0  0  0
    2.3183   13.9370   -4.3572 H   0  0  0  0  0  0  0  0  0  0  0  0
   -0.5804   13.1283   -3.9044 H   0  0  0  0  0  0  0  0  0  0  0  0
    0.3706   11.5387   -3.8532 H   0  0  0  0  0  0  0  0  0  0  0  0
   -1.6023   12.5798   -1.8012 H   0  0  0  0  0  0  0  0  0  0  0  0
   -1.7488   11.1337   -2.8757 H   0  0  0  0  0  0  0  0  0  0  0  0
    0.7729    9.0239   -1.2718 H   0  0  0  0  0  0  0  0  0  0  0  0
   -0.3785    9.2048   -2.6387 H   0  0  0  0  0  0  0  0  0  0  0  0
    1.1666   10.1209   -2.6387 H   0  0  0  0  0  0  0  0  0  0  0  0
  1  2  1  0  0  0  0
  1 33  1  0  0  0  0
  1 34  1  0  0  0  0
  1 35  1  0  0  0  0
  2  3  1  0  0  0  0
  2 10  1  0  0  0  0
  2 36  1  1  0  0  0
  3  4  1  0  0  0  0
  3 37  1  0  0  0  0
  3 38  1  0  0  0  0
  4  5  1  0  0  0  0
  4 39  1  0  0  0  0
  4 40  1  0  0  0  0
  5  6  1  0  0  0  0
  5 41  1  6  0  0  0
  6  7  1  0  0  0  0
  7  8  1  0  0  0  0
  7  9  1  0  0  0  0
  7  5  1  0  0  0  0
  8 42  1  0  0  0  0
  8 43  1  0  0  0  0
  8 44  1  0  0  0  0
  9 45  1  0  0  0  0
  9 46  1  0  0  0  0
  9 47  1  0  0  0  0
 10 11  1  0  0  0  0
 10 48  1  1  0  0  0
 11 12  1  0  0  0  0
 11 49  1  0  0  0  0
 11 50  1  0  0  0  0
 12 13  1  0  0  0  0
 12 51  1  0  0  0  0
 12 52  1  0  0  0  0
 13 14  1  1  0  0  0
 13 15  1  0  0  0  0
 14 53  1  0  0  0  0
 14 54  1  0  0  0  0
 14 55  1  0  0  0  0
 15 16  1  0  0  0  0
 15 56  1  6  0  0  0
 16 17  1  0  0  0  0
 16 57  1  0  0  0  0
 16 58  1  0  0  0  0
 17 18  2  0  0  0  0
 17 59  1  0  0  0  0
 18 19  1  0  0  0  0
 19 20  1  0  0  0  0
 19 27  1  0  0  0  0
 19 60  1  1  0  0  0
 20 21  1  0  0  0  0
 20 61  1  0  0  0  0
 20 62  1  0  0  0  0
 21 22  1  0  0  0  0
 21 63  1  0  0  0  0
 21 64  1  0  0  0  0
 22 23  1  0  0  0  0
 22 24  1  0  0  0  0
 22 65  1  1  0  0  0
 23 66  1  0  0  0  0
 24 25  1  0  0  0  0
 24 26  1  0  0  0  0
 24 18  1  0  0  0  0
 25 67  1  0  0  0  0
 25 68  1  0  0  0  0
 25 69  1  0  0  0  0
 26 70  1  0  0  0  0
 26 71  1  0  0  0  0
 26 72  1  0  0  0  0
 27 28  1  6  0  0  0
 27 29  1  0  0  0  0
 27 15  1  0  0  0  0
 28 73  1  0  0  0  0
 28 74  1  0  0  0  0
 28 75  1  0  0  0  0
 29 30  1  0  0  0  0
 29 76  1  0  0  0  0
 29 77  1  0  0  0  0
 30 31  1  0  0  0  0
 30 78  1  0  0  0  0
 30 79  1  0  0  0  0
 31 32  1  6  0  0  0
 31 10  1  0  0  0  0
 31 13  1  0  0  0  0
 32 80  1  0  0  0  0
 32 81  1  0  0  0  0
 32 82  1  0  0  0  0
M  END
>  <meeko>
{"is_sidechain": [false], "intermolecular_energy": 2.731, "internal_energy": -0.839}

$$$$
