EPH_relaxed_0001_pdb2pqr_Repair_291_r2_0001_out
 OpenBabel07272616253D

 82 86  0  0  0  0  0  0  0  0999 V2000
   -1.5430    8.5700   -1.7580 C   0  0  0  0  0  0  0  0  0  0  0  0
   -1.9670    9.2040   -0.4310 C   0  0  2  0  0  0  0  0  0  0  0  0
   -3.4620    9.5830   -0.4190 C   0  0  0  0  0  0  0  0  0  0  0  0
   -4.4000    8.3790   -0.2980 C   0  0  0  0  0  0  0  0  0  0  0  0
   -5.0390    8.0390   -1.6100 C   0  0  2  0  0  0  0  0  0  0  0  0
   -6.3250    8.6370   -1.8230 O   0  0  0  0  0  0  0  0  0  0  0  0
   -6.2990    7.2030   -1.7360 C   0  0  0  0  0  0  0  0  0  0  0  0
   -6.9950    6.6540   -0.5300 C   0  0  0  0  0  0  0  0  0  0  0  0
   -6.5740    6.5150   -3.0360 C   0  0  0  0  0  0  0  0  0  0  0  0
   -1.1160   10.4370   -0.1490 C   0  0  1  0  0  0  0  0  0  0  0  0
   -0.0590   10.1910    0.9610 C   0  0  0  0  0  0  0  0  0  0  0  0
    1.1940   11.0190    0.5760 C   0  0  0  0  0  0  0  0  0  0  0  0
    0.7080   11.9630   -0.5480 C   0  0  1  0  0  0  0  0  0  0  0  0
    0.0030   13.1410    0.1940 C   0  0  0  0  0  0  0  0  0  0  0  0
    1.8020   12.4770   -1.5400 C   0  0  2  0  0  0  0  0  0  0  0  0
    2.9090   13.3350   -0.9020 C   0  0  0  0  0  0  0  0  0  0  0  0
    2.6420   14.8040   -0.8760 C   0  0  0  0  0  0  0  0  0  0  0  0
    1.6980   15.4400   -1.5930 C   0  0  0  0  0  0  0  0  0  0  0  0
    0.8400   14.6820   -2.6150 C   0  0  1  0  0  0  0  0  0  0  0  0
    0.7770   15.4880   -3.9380 C   0  0  0  0  0  0  0  0  0  0  0  0
    0.3020   16.9220   -3.7270 C   0  0  0  0  0  0  0  0  0  0  0  0
    1.2130   17.6610   -2.7500 C   0  0  2  0  0  0  0  0  0  0  0  0
    2.5010   17.8210   -3.3520 O   0  0  0  0  0  0  0  0  0  0  0  0
    1.3610   16.9370   -1.3830 C   0  0  0  0  0  0  0  0  0  0  0  0
    0.0290   17.0300   -0.5980 C   0  0  0  0  0  0  0  0  0  0  0  0
    2.4140   17.7100   -0.5450 C   0  0  0  0  0  0  0  0  0  0  0  0
    1.2250   13.1570   -2.8470 C   0  0  1  0  0  0  0  0  0  0  0  0
    2.3370   13.0480   -3.9340 C   0  0  0  0  0  0  0  0  0  0  0  0
   -0.0280   12.3920   -3.4150 C   0  0  0  0  0  0  0  0  0  0  0  0
   -1.0100   11.8030   -2.3840 C   0  0  0  0  0  0  0  0  0  0  0  0
   -0.2650   10.9960   -1.3160 C   0  0  2  0  0  0  0  0  0  0  0  0
    0.4360    9.7910   -2.0300 C   0  0  0  0  0  0  0  0  0  0  0  0
   -0.9416    7.6707   -1.5591 H   0  0  0  0  0  0  0  0  0  0  0  0
   -2.4379    8.2925   -2.3343 H   0  0  0  0  0  0  0  0  0  0  0  0
   -0.9448    9.2911   -2.3343 H   0  0  0  0  0  0  0  0  0  0  0  0
   -1.8100    8.4543    0.3585 H   0  0  0  0  0  0  0  0  0  0  0  0
   -3.6439   10.2524    0.4347 H   0  0  0  0  0  0  0  0  0  0  0  0
   -3.6797   10.0651   -1.3835 H   0  0  0  0  0  0  0  0  0  0  0  0
   -3.8222    7.5110    0.0525 H   0  0  0  0  0  0  0  0  0  0  0  0
   -5.1973    8.6363    0.4148 H   0  0  0  0  0  0  0  0  0  0  0  0
   -4.0552    7.9687   -2.0971 H   0  0  0  0  0  0  0  0  0  0  0  0
   -6.5094    7.0370    0.3797 H   0  0  0  0  0  0  0  0  0  0  0  0
   -8.0498    6.9659   -0.5417 H   0  0  0  0  0  0  0  0  0  0  0  0
   -6.9373    5.5556   -0.5417 H   0  0  0  0  0  0  0  0  0  0  0  0
   -6.9758    5.5097   -2.8410 H   0  0  0  0  0  0  0  0  0  0  0  0
   -7.3082    7.0981   -3.6113 H   0  0  0  0  0  0  0  0  0  0  0  0
   -5.6402    6.4314   -3.6113 H   0  0  0  0  0  0  0  0  0  0  0  0
   -1.9090   11.1523    0.1146 H   0  0  0  0  0  0  0  0  0  0  0  0
   -0.4480   10.5230    1.9349 H   0  0  0  0  0  0  0  0  0  0  0  0
    0.1844    9.1216    1.0449 H   0  0  0  0  0  0  0  0  0  0  0  0
    1.5574   11.5971    1.4384 H   0  0  0  0  0  0  0  0  0  0  0  0
    2.0312   10.3827    0.2532 H   0  0  0  0  0  0  0  0  0  0  0  0
    0.0906   12.9947    1.2807 H   0  0  0  0  0  0  0  0  0  0  0  0
    0.4814   14.0906   -0.0878 H   0  0  0  0  0  0  0  0  0  0  0  0
   -1.0599   13.1681   -0.0878 H   0  0  0  0  0  0  0  0  0  0  0  0
    2.2910   11.5437   -1.8559 H   0  0  0  0  0  0  0  0  0  0  0  0
    3.0464   12.9961    0.1354 H   0  0  0  0  0  0  0  0  0  0  0  0
    3.8006   13.1988   -1.5316 H   0  0  0  0  0  0  0  0  0  0  0  0
    3.2706   15.4182   -0.2144 H   0  0  0  0  0  0  0  0  0  0  0  0
   -0.1654   14.6099   -2.1745 H   0  0  0  0  0  0  0  0  0  0  0  0
    1.7819   15.5115   -4.3848 H   0  0  0  0  0  0  0  0  0  0  0  0
    0.0520   14.9898   -4.5984 H   0  0  0  0  0  0  0  0  0  0  0  0
    0.3074   17.4487   -4.6927 H   0  0  0  0  0  0  0  0  0  0  0  0
   -0.7148   16.8967   -3.3080 H   0  0  0  0  0  0  0  0  0  0  0  0
    0.7492   18.6359   -2.5394 H   0  0  0  0  0  0  0  0  0  0  0  0
    2.3820   17.7850   -4.3160 H   0  0  0  0  0  0  0  0  0  0  0  0
    0.2380   17.0154    0.4819 H   0  0  0  0  0  0  0  0  0  0  0  0
   -0.4859   17.9663   -0.8592 H   0  0  0  0  0  0  0  0  0  0  0  0
   -0.6110   16.1744   -0.8592 H   0  0  0  0  0  0  0  0  0  0  0  0
    2.2114   17.5612    0.5259 H   0  0  0  0  0  0  0  0  0  0  0  0
    3.4200   17.3343   -0.7835 H   0  0  0  0  0  0  0  0  0  0  0  0
    2.3570   18.7823   -0.7835 H   0  0  0  0  0  0  0  0  0  0  0  0
    3.3183   12.9518   -3.4463 H   0  0  0  0  0  0  0  0  0  0  0  0
    2.1511   12.1638   -4.5614 H   0  0  0  0  0  0  0  0  0  0  0  0
    2.3263   13.9515   -4.5614 H   0  0  0  0  0  0  0  0  0  0  0  0
   -0.5904   13.0968   -4.0451 H   0  0  0  0  0  0  0  0  0  0  0  0
    0.3837   11.5228   -3.9488 H   0  0  0  0  0  0  0  0  0  0  0  0
   -1.5570   12.6243   -1.8980 H   0  0  0  0  0  0  0  0  0  0  0  0
   -1.7075   11.1324   -2.9073 H   0  0  0  0  0  0  0  0  0  0  0  0
    0.8378    9.1003   -1.2741 H   0  0  0  0  0  0  0  0  0  0  0  0
   -0.2951    9.2616   -2.6587 H   0  0  0  0  0  0  0  0  0  0  0  0
    1.2576   10.1649   -2.6587 H   0  0  0  0  0  0  0  0  0  0  0  0
  1  2  1  0  0  0  0
  1 33  1  0  0  0  0
  1 34  1  0  0  0  0
  1 35  1  0  0  0  0
  2  3  1  0  0  0  0
  2 10  1  0  0  0  0
  2 36  1  1  0  0  0
  3  4  1  0  0  0  0
  3 37  1  0  0  0  0
  3 38  1  0  0  0  0
  4  5  1  0  0  0  0
  4 39  1  0  0  0  0
  4 40  1  0  0  0  0
  5  6  1  0  0  0  0
  5 41  1  6  0  0  0
  6  7  1  0  0  0  0
  7  8  1  0  0  0  0
  7  9  1  0  0  0  0
  7  5  1  0  0  0  0
  8 42  1  0  0  0  0
  8 43  1  0  0  0  0
  8 44  1  0  0  0  0
  9 45  1  0  0  0  0
  9 46  1  0  0  0  0
  9 47  1  0  0  0  0
 10 11  1  0  0  0  0
 10 48  1  1  0  0  0
 11 12  1  0  0  0  0
 11 49  1  0  0  0  0
 11 50  1  0  0  0  0
 12 13  1  0  0  0  0
 12 51  1  0  0  0  0
 12 52  1  0  0  0  0
 13 14  1  1  0  0  0
 13 15  1  0  0  0  0
 14 53  1  0  0  0  0
 14 54  1  0  0  0  0
 14 55  1  0  0  0  0
 15 16  1  0  0  0  0
 15 56  1  6  0  0  0
 16 17  1  0  0  0  0
 16 57  1  0  0  0  0
 16 58  1  0  0  0  0
 17 18  2  0  0  0  0
 17 59  1  0  0  0  0
 18 19  1  0  0  0  0
 19 20  1  0  0  0  0
 19 27  1  0  0  0  0
 19 60  1  1  0  0  0
 20 21  1  0  0  0  0
 20 61  1  0  0  0  0
 20 62  1  0  0  0  0
 21 22  1  0  0  0  0
 21 63  1  0  0  0  0
 21 64  1  0  0  0  0
 22 23  1  0  0  0  0
 22 24  1  0  0  0  0
 22 65  1  1  0  0  0
 23 66  1  0  0  0  0
 24 25  1  0  0  0  0
 24 26  1  0  0  0  0
 24 18  1  0  0  0  0
 25 67  1  0  0  0  0
 25 68  1  0  0  0  0
 25 69  1  0  0  0  0
 26 70  1  0  0  0  0
 26 71  1  0  0  0  0
 26 72  1  0  0  0  0
 27 28  1  6  0  0  0
 27 29  1  0  0  0  0
 27 15  1  0  0  0  0
 28 73  1  0  0  0  0
 28 74  1  0  0  0  0
 28 75  1  0  0  0  0
 29 30  1  0  0  0  0
 29 76  1  0  0  0  0
 29 77  1  0  0  0  0
 30 31  1  0  0  0  0
 30 78  1  0  0  0  0
 30 79  1  0  0  0  0
 31 32  1  6  0  0  0
 31 10  1  0  0  0  0
 31 13  1  0  0  0  0
 32 80  1  0  0  0  0
 32 81  1  0  0  0  0
 32 82  1  0  0  0  0
M  END
>  <meeko>
{"is_sidechain": [false], "intermolecular_energy": 2.731, "internal_energy": -0.839}

$$$$
