EPH_relaxed_0001_pdb2pqr_Repair_280_r2_0001_out
 OpenBabel07272616253D

 82 86  0  0  0  0  0  0  0  0999 V2000
   -1.5960    8.5640   -1.8140 C   0  0  0  0  0  0  0  0  0  0  0  0
   -2.0040    9.1390   -0.4550 C   0  0  2  0  0  0  0  0  0  0  0  0
   -3.4930    9.5380   -0.4170 C   0  0  0  0  0  0  0  0  0  0  0  0
   -4.4460    8.3470   -0.2830 C   0  0  0  0  0  0  0  0  0  0  0  0
   -5.0860    7.9990   -1.5930 C   0  0  2  0  0  0  0  0  0  0  0  0
   -6.3430    8.6450   -1.8350 O   0  0  0  0  0  0  0  0  0  0  0  0
   -6.3790    7.2140   -1.7090 C   0  0  0  0  0  0  0  0  0  0  0  0
   -7.1090    6.7280   -0.4970 C   0  0  0  0  0  0  0  0  0  0  0  0
   -6.6720    6.5030   -2.9940 C   0  0  0  0  0  0  0  0  0  0  0  0
   -1.1340   10.3440   -0.1180 C   0  0  1  0  0  0  0  0  0  0  0  0
   -0.0600   10.0240    0.9560 C   0  0  0  0  0  0  0  0  0  0  0  0
    1.1960   10.8590    0.5960 C   0  0  0  0  0  0  0  0  0  0  0  0
    0.7000   11.8710   -0.4630 C   0  0  1  0  0  0  0  0  0  0  0  0
    0.0220   13.0120    0.3580 C   0  0  0  0  0  0  0  0  0  0  0  0
    1.7820   12.4310   -1.4440 C   0  0  2  0  0  0  0  0  0  0  0  0
    2.9100   13.2390   -0.7790 C   0  0  0  0  0  0  0  0  0  0  0  0
    2.6610   14.7060   -0.6630 C   0  0  0  0  0  0  0  0  0  0  0  0
    1.7110   15.3920   -1.3250 C   0  0  0  0  0  0  0  0  0  0  0  0
    0.8270   14.7040   -2.3720 C   0  0  1  0  0  0  0  0  0  0  0  0
    0.7490   15.5860   -3.6450 C   0  0  0  0  0  0  0  0  0  0  0  0
    0.2940   17.0100   -3.3430 C   0  0  0  0  0  0  0  0  0  0  0  0
    1.2310   17.6820   -2.3430 C   0  0  2  0  0  0  0  0  0  0  0  0
    2.5100   17.8620   -2.9590 O   0  0  0  0  0  0  0  0  0  0  0  0
    1.3950   16.8780   -1.0230 C   0  0  0  0  0  0  0  0  0  0  0  0
    0.0790   16.9400   -0.2090 C   0  0  0  0  0  0  0  0  0  0  0  0
    2.4730   17.5910   -0.1610 C   0  0  0  0  0  0  0  0  0  0  0  0
    1.1890   13.1910   -2.6990 C   0  0  1  0  0  0  0  0  0  0  0  0
    2.2800   13.1340   -3.8110 C   0  0  0  0  0  0  0  0  0  0  0  0
   -0.0830   12.4730   -3.2870 C   0  0  0  0  0  0  0  0  0  0  0  0
   -1.0520   11.8360   -2.2730 C   0  0  0  0  0  0  0  0  0  0  0  0
   -0.2980   10.9610   -1.2680 C   0  0  2  0  0  0  0  0  0  0  0  0
    0.3760    9.7920   -2.0630 C   0  0  0  0  0  0  0  0  0  0  0  0
   -0.9656    7.6755   -1.6619 H   0  0  0  0  0  0  0  0  0  0  0  0
   -2.4971    8.2819   -2.3783 H   0  0  0  0  0  0  0  0  0  0  0  0
   -1.0322    9.3214   -2.3783 H   0  0  0  0  0  0  0  0  0  0  0  0
   -1.8538    8.3500    0.2966 H   0  0  0  0  0  0  0  0  0  0  0  0
   -3.6513   10.2077    0.4411 H   0  0  0  0  0  0  0  0  0  0  0  0
   -3.7200   10.0250   -1.3768 H   0  0  0  0  0  0  0  0  0  0  0  0
   -3.8798    7.4764    0.0796 H   0  0  0  0  0  0  0  0  0  0  0  0
   -5.2416    8.6224    0.4249 H   0  0  0  0  0  0  0  0  0  0  0  0
   -4.1019    7.8741   -2.0682 H   0  0  0  0  0  0  0  0  0  0  0  0
   -6.5885    7.0745    0.4080 H   0  0  0  0  0  0  0  0  0  0  0  0
   -8.1353    7.1237   -0.5039 H   0  0  0  0  0  0  0  0  0  0  0  0
   -7.1399    5.6285   -0.5039 H   0  0  0  0  0  0  0  0  0  0  0  0
   -7.0828    5.5061   -2.7761 H   0  0  0  0  0  0  0  0  0  0  0  0
   -7.4046    7.0825   -3.5749 H   0  0  0  0  0  0  0  0  0  0  0  0
   -5.7438    6.3981   -3.5749 H   0  0  0  0  0  0  0  0  0  0  0  0
   -1.9137   11.0508    0.2022 H   0  0  0  0  0  0  0  0  0  0  0  0
   -0.4275   10.3039    1.9543 H   0  0  0  0  0  0  0  0  0  0  0  0
    0.1724    8.9490    0.9738 H   0  0  0  0  0  0  0  0  0  0  0  0
    1.5817   11.3827    1.4831 H   0  0  0  0  0  0  0  0  0  0  0  0
    2.0201   10.2336    0.2222 H   0  0  0  0  0  0  0  0  0  0  0  0
    0.1414   12.8110    1.4329 H   0  0  0  0  0  0  0  0  0  0  0  0
    0.4955   13.9734    0.1099 H   0  0  0  0  0  0  0  0  0  0  0  0
   -1.0488   13.0558    0.1099 H   0  0  0  0  0  0  0  0  0  0  0  0
    2.2549   11.5125   -1.8218 H   0  0  0  0  0  0  0  0  0  0  0  0
    3.0626   12.8391    0.2343 H   0  0  0  0  0  0  0  0  0  0  0  0
    3.7880   13.1303   -1.4327 H   0  0  0  0  0  0  0  0  0  0  0  0
    3.3084   15.2743    0.0211 H   0  0  0  0  0  0  0  0  0  0  0  0
   -0.1707   14.6170   -1.9170 H   0  0  0  0  0  0  0  0  0  0  0  0
    1.7458   15.6252   -4.1084 H   0  0  0  0  0  0  0  0  0  0  0  0
    0.0065   15.1342   -4.3192 H   0  0  0  0  0  0  0  0  0  0  0  0
    0.2874   17.5914   -4.2768 H   0  0  0  0  0  0  0  0  0  0  0  0
   -0.7151   16.9709   -2.9068 H   0  0  0  0  0  0  0  0  0  0  0  0
    0.7832   18.6485   -2.0683 H   0  0  0  0  0  0  0  0  0  0  0  0
    2.9560   18.5960   -2.5020 H   0  0  0  0  0  0  0  0  0  0  0  0
    0.3119   16.9290    0.8660 H   0  0  0  0  0  0  0  0  0  0  0  0
   -0.4626   17.8647   -0.4574 H   0  0  0  0  0  0  0  0  0  0  0  0
   -0.5471   16.0704   -0.4574 H   0  0  0  0  0  0  0  0  0  0  0  0
    2.2475   17.4418    0.9052 H   0  0  0  0  0  0  0  0  0  0  0  0
    3.4629   17.1689   -0.3890 H   0  0  0  0  0  0  0  0  0  0  0  0
    2.4719   18.6671   -0.3890 H   0  0  0  0  0  0  0  0  0  0  0  0
    3.2754   13.0820   -3.3457 H   0  0  0  0  0  0  0  0  0  0  0  0
    2.1204   12.2430   -4.4360 H   0  0  0  0  0  0  0  0  0  0  0  0
    2.2141   14.0368   -4.4360 H   0  0  0  0  0  0  0  0  0  0  0  0
   -0.6488   13.2187   -3.8647 H   0  0  0  0  0  0  0  0  0  0  0  0
    0.3087   11.6321   -3.8782 H   0  0  0  0  0  0  0  0  0  0  0  0
   -1.5801   12.6338   -1.7301 H   0  0  0  0  0  0  0  0  0  0  0  0
   -1.7666   11.2040   -2.8207 H   0  0  0  0  0  0  0  0  0  0  0  0
    0.7967    9.0623   -1.3556 H   0  0  0  0  0  0  0  0  0  0  0  0
   -0.3758    9.2977   -2.6959 H   0  0  0  0  0  0  0  0  0  0  0  0
    1.1804   10.1950   -2.6959 H   0  0  0  0  0  0  0  0  0  0  0  0
  1  2  1  0  0  0  0
  1 33  1  0  0  0  0
  1 34  1  0  0  0  0
  1 35  1  0  0  0  0
  2  3  1  0  0  0  0
  2 10  1  0  0  0  0
  2 36  1  1  0  0  0
  3  4  1  0  0  0  0
  3 37  1  0  0  0  0
  3 38  1  0  0  0  0
  4  5  1  0  0  0  0
  4 39  1  0  0  0  0
  4 40  1  0  0  0  0
  5  6  1  0  0  0  0
  5 41  1  6  0  0  0
  6  7  1  0  0  0  0
  7  8  1  0  0  0  0
  7  9  1  0  0  0  0
  7  5  1  0  0  0  0
  8 42  1  0  0  0  0
  8 43  1  0  0  0  0
  8 44  1  0  0  0  0
  9 45  1  0  0  0  0
  9 46  1  0  0  0  0
  9 47  1  0  0  0  0
 10 11  1  0  0  0  0
 10 48  1  1  0  0  0
 11 12  1  0  0  0  0
 11 49  1  0  0  0  0
 11 50  1  0  0  0  0
 12 13  1  0  0  0  0
 12 51  1  0  0  0  0
 12 52  1  0  0  0  0
 13 14  1  1  0  0  0
 13 15  1  0  0  0  0
 14 53  1  0  0  0  0
 14 54  1  0  0  0  0
 14 55  1  0  0  0  0
 15 16  1  0  0  0  0
 15 56  1  6  0  0  0
 16 17  1  0  0  0  0
 16 57  1  0  0  0  0
 16 58  1  0  0  0  0
 17 18  2  0  0  0  0
 17 59  1  0  0  0  0
 18 19  1  0  0  0  0
 19 20  1  0  0  0  0
 19 27  1  0  0  0  0
 19 60  1  1  0  0  0
 20 21  1  0  0  0  0
 20 61  1  0  0  0  0
 20 62  1  0  0  0  0
 21 22  1  0  0  0  0
 21 63  1  0  0  0  0
 21 64  1  0  0  0  0
 22 23  1  0  0  0  0
 22 24  1  0  0  0  0
 22 65  1  1  0  0  0
 23 66  1  0  0  0  0
 24 25  1  0  0  0  0
 24 26  1  0  0  0  0
 24 18  1  0  0  0  0
 25 67  1  0  0  0  0
 25 68  1  0  0  0  0
 25 69  1  0  0  0  0
 26 70  1  0  0  0  0
 26 71  1  0  0  0  0
 26 72  1  0  0  0  0
 27 28  1  6  0  0  0
 27 29  1  0  0  0  0
 27 15  1  0  0  0  0
 28 73  1  0  0  0  0
 28 74  1  0  0  0  0
 28 75  1  0  0  0  0
 29 30  1  0  0  0  0
 29 76  1  0  0  0  0
 29 77  1  0  0  0  0
 30 31  1  0  0  0  0
 30 78  1  0  0  0  0
 30 79  1  0  0  0  0
 31 32  1  6  0  0  0
 31 10  1  0  0  0  0
 31 13  1  0  0  0  0
 32 80  1  0  0  0  0
 32 81  1  0  0  0  0
 32 82  1  0  0  0  0
M  END
>  <meeko>
{"is_sidechain": [false], "intermolecular_energy": 2.731, "internal_energy": -0.839}

$$$$
