EPH_relaxed_0001_pdb2pqr_Repair_410_r2_0001_out
 OpenBabel07272616253D

 82 86  0  0  0  0  0  0  0  0999 V2000
   -1.5860    8.5600   -1.7990 C   0  0  0  0  0  0  0  0  0  0  0  0
   -1.9770    9.1350   -0.4350 C   0  0  2  0  0  0  0  0  0  0  0  0
   -3.4670    9.5290   -0.3760 C   0  0  0  0  0  0  0  0  0  0  0  0
   -4.4160    8.3330   -0.2610 C   0  0  0  0  0  0  0  0  0  0  0  0
   -5.0650    8.0120   -1.5730 C   0  0  2  0  0  0  0  0  0  0  0  0
   -6.3230    8.6630   -1.7930 O   0  0  0  0  0  0  0  0  0  0  0  0
   -6.3590    7.2290   -1.6970 C   0  0  0  0  0  0  0  0  0  0  0  0
   -7.0800    6.7180   -0.4900 C   0  0  0  0  0  0  0  0  0  0  0  0
   -6.6590    6.5460   -2.9950 C   0  0  0  0  0  0  0  0  0  0  0  0
   -1.1060   10.3430   -0.1110 C   0  0  1  0  0  0  0  0  0  0  0  0
   -0.0220   10.0290    0.9550 C   0  0  0  0  0  0  0  0  0  0  0  0
    1.2290   10.8640    0.5810 C   0  0  0  0  0  0  0  0  0  0  0  0
    0.7230   11.8710   -0.4790 C   0  0  1  0  0  0  0  0  0  0  0  0
    0.0510   13.0150    0.3430 C   0  0  0  0  0  0  0  0  0  0  0  0
    1.7960   12.4270   -1.4710 C   0  0  2  0  0  0  0  0  0  0  0  0
    2.9280   13.2400   -0.8190 C   0  0  0  0  0  0  0  0  0  0  0  0
    2.6780   14.7070   -0.7080 C   0  0  0  0  0  0  0  0  0  0  0  0
    1.7210   15.3890   -1.3650 C   0  0  0  0  0  0  0  0  0  0  0  0
    0.8290   14.6940   -2.4020 C   0  0  1  0  0  0  0  0  0  0  0  0
    0.7390   15.5710   -3.6790 C   0  0  0  0  0  0  0  0  0  0  0  0
    0.2840   16.9960   -3.3790 C   0  0  0  0  0  0  0  0  0  0  0  0
    1.2290   17.6730   -2.3900 C   0  0  2  0  0  0  0  0  0  0  0  0
    2.5020   17.8530   -3.0170 O   0  0  0  0  0  0  0  0  0  0  0  0
    1.4060   16.8760   -1.0670 C   0  0  0  0  0  0  0  0  0  0  0  0
    0.0970   16.9400   -0.2420 C   0  0  0  0  0  0  0  0  0  0  0  0
    2.4890   17.5940   -0.2180 C   0  0  0  0  0  0  0  0  0  0  0  0
    1.1910   13.1810   -2.7240 C   0  0  1  0  0  0  0  0  0  0  0  0
    2.2730   13.1200   -3.8460 C   0  0  0  0  0  0  0  0  0  0  0  0
   -0.0850   12.4580   -3.2980 C   0  0  0  0  0  0  0  0  0  0  0  0
   -1.0450   11.8250   -2.2730 C   0  0  0  0  0  0  0  0  0  0  0  0
   -0.2810   10.9560   -1.2700 C   0  0  2  0  0  0  0  0  0  0  0  0
    0.3880    9.7830   -2.0660 C   0  0  0  0  0  0  0  0  0  0  0  0
   -0.9728    7.6582   -1.6546 H   0  0  0  0  0  0  0  0  0  0  0  0
   -2.4948    8.2993   -2.3612 H   0  0  0  0  0  0  0  0  0  0  0  0
   -1.0094    9.3094   -2.3612 H   0  0  0  0  0  0  0  0  0  0  0  0
   -1.8139    8.3470    0.3150 H   0  0  0  0  0  0  0  0  0  0  0  0
   -3.6200   10.1790    0.4982 H   0  0  0  0  0  0  0  0  0  0  0  0
   -3.7029   10.0366   -1.3229 H   0  0  0  0  0  0  0  0  0  0  0  0
   -3.8449    7.4562    0.0782 H   0  0  0  0  0  0  0  0  0  0  0  0
   -5.2069    8.5909    0.4587 H   0  0  0  0  0  0  0  0  0  0  0  0
   -4.0841    7.8968   -2.0572 H   0  0  0  0  0  0  0  0  0  0  0  0
   -6.5740    7.0766    0.4185 H   0  0  0  0  0  0  0  0  0  0  0  0
   -8.1174    7.0836   -0.5005 H   0  0  0  0  0  0  0  0  0  0  0  0
   -7.0787    5.6181   -0.5005 H   0  0  0  0  0  0  0  0  0  0  0  0
   -7.0941    5.5555   -2.7961 H   0  0  0  0  0  0  0  0  0  0  0  0
   -7.3740    7.1515   -3.5713 H   0  0  0  0  0  0  0  0  0  0  0  0
   -5.7294    6.4292   -3.5713 H   0  0  0  0  0  0  0  0  0  0  0  0
   -1.8841   11.0501    0.2125 H   0  0  0  0  0  0  0  0  0  0  0  0
   -0.3813   10.3124    1.9553 H   0  0  0  0  0  0  0  0  0  0  0  0
    0.2123    8.9544    0.9750 H   0  0  0  0  0  0  0  0  0  0  0  0
    1.6211   11.3923    1.4626 H   0  0  0  0  0  0  0  0  0  0  0  0
    2.0508   10.2381    0.2031 H   0  0  0  0  0  0  0  0  0  0  0  0
    0.1698   12.8128    1.4177 H   0  0  0  0  0  0  0  0  0  0  0  0
    0.5292   13.9741    0.0953 H   0  0  0  0  0  0  0  0  0  0  0  0
   -1.0196   13.0643    0.0953 H   0  0  0  0  0  0  0  0  0  0  0  0
    2.2674   11.5076   -1.8484 H   0  0  0  0  0  0  0  0  0  0  0  0
    3.0893   12.8452    0.1950 H   0  0  0  0  0  0  0  0  0  0  0  0
    3.8008   13.1295   -1.4793 H   0  0  0  0  0  0  0  0  0  0  0  0
    3.3306   15.2794   -0.0324 H   0  0  0  0  0  0  0  0  0  0  0  0
   -0.1651   14.6070   -1.9392 H   0  0  0  0  0  0  0  0  0  0  0  0
    1.7319   15.6098   -4.1508 H   0  0  0  0  0  0  0  0  0  0  0  0
   -0.0082   15.1151   -4.3452 H   0  0  0  0  0  0  0  0  0  0  0  0
    0.2683   17.5736   -4.3150 H   0  0  0  0  0  0  0  0  0  0  0  0
   -0.7213   16.9575   -2.9342 H   0  0  0  0  0  0  0  0  0  0  0  0
    0.7812   18.6397   -2.1161 H   0  0  0  0  0  0  0  0  0  0  0  0
    3.1780   17.4890   -2.4210 H   0  0  0  0  0  0  0  0  0  0  0  0
    0.3389   16.9282    0.8310 H   0  0  0  0  0  0  0  0  0  0  0  0
   -0.4450   17.8657   -0.4855 H   0  0  0  0  0  0  0  0  0  0  0  0
   -0.5327   16.0716   -0.4855 H   0  0  0  0  0  0  0  0  0  0  0  0
    2.2720   17.4502    0.8508 H   0  0  0  0  0  0  0  0  0  0  0  0
    3.4775   17.1718   -0.4515 H   0  0  0  0  0  0  0  0  0  0  0  0
    2.4850   18.6689   -0.4515 H   0  0  0  0  0  0  0  0  0  0  0  0
    3.2721   13.0637   -3.3892 H   0  0  0  0  0  0  0  0  0  0  0  0
    2.1044   12.2299   -4.4700 H   0  0  0  0  0  0  0  0  0  0  0  0
    2.2055   14.0234   -4.4700 H   0  0  0  0  0  0  0  0  0  0  0  0
   -0.6565   13.1999   -3.8751 H   0  0  0  0  0  0  0  0  0  0  0  0
    0.3031   11.6145   -3.8878 H   0  0  0  0  0  0  0  0  0  0  0  0
   -1.5696   12.6248   -1.7298 H   0  0  0  0  0  0  0  0  0  0  0  0
   -1.7636   11.1896   -2.8115 H   0  0  0  0  0  0  0  0  0  0  0  0
    0.8054    9.0511   -1.3588 H   0  0  0  0  0  0  0  0  0  0  0  0
   -0.3661    9.2924   -2.6989 H   0  0  0  0  0  0  0  0  0  0  0  0
    1.1942   10.1823   -2.6989 H   0  0  0  0  0  0  0  0  0  0  0  0
  1  2  1  0  0  0  0
  1 33  1  0  0  0  0
  1 34  1  0  0  0  0
  1 35  1  0  0  0  0
  2  3  1  0  0  0  0
  2 10  1  0  0  0  0
  2 36  1  1  0  0  0
  3  4  1  0  0  0  0
  3 37  1  0  0  0  0
  3 38  1  0  0  0  0
  4  5  1  0  0  0  0
  4 39  1  0  0  0  0
  4 40  1  0  0  0  0
  5  6  1  0  0  0  0
  5 41  1  6  0  0  0
  6  7  1  0  0  0  0
  7  8  1  0  0  0  0
  7  9  1  0  0  0  0
  7  5  1  0  0  0  0
  8 42  1  0  0  0  0
  8 43  1  0  0  0  0
  8 44  1  0  0  0  0
  9 45  1  0  0  0  0
  9 46  1  0  0  0  0
  9 47  1  0  0  0  0
 10 11  1  0  0  0  0
 10 48  1  1  0  0  0
 11 12  1  0  0  0  0
 11 49  1  0  0  0  0
 11 50  1  0  0  0  0
 12 13  1  0  0  0  0
 12 51  1  0  0  0  0
 12 52  1  0  0  0  0
 13 14  1  1  0  0  0
 13 15  1  0  0  0  0
 14 53  1  0  0  0  0
 14 54  1  0  0  0  0
 14 55  1  0  0  0  0
 15 16  1  0  0  0  0
 15 56  1  6  0  0  0
 16 17  1  0  0  0  0
 16 57  1  0  0  0  0
 16 58  1  0  0  0  0
 17 18  2  0  0  0  0
 17 59  1  0  0  0  0
 18 19  1  0  0  0  0
 19 20  1  0  0  0  0
 19 27  1  0  0  0  0
 19 60  1  1  0  0  0
 20 21  1  0  0  0  0
 20 61  1  0  0  0  0
 20 62  1  0  0  0  0
 21 22  1  0  0  0  0
 21 63  1  0  0  0  0
 21 64  1  0  0  0  0
 22 23  1  0  0  0  0
 22 24  1  0  0  0  0
 22 65  1  1  0  0  0
 23 66  1  0  0  0  0
 24 25  1  0  0  0  0
 24 26  1  0  0  0  0
 24 18  1  0  0  0  0
 25 67  1  0  0  0  0
 25 68  1  0  0  0  0
 25 69  1  0  0  0  0
 26 70  1  0  0  0  0
 26 71  1  0  0  0  0
 26 72  1  0  0  0  0
 27 28  1  6  0  0  0
 27 29  1  0  0  0  0
 27 15  1  0  0  0  0
 28 73  1  0  0  0  0
 28 74  1  0  0  0  0
 28 75  1  0  0  0  0
 29 30  1  0  0  0  0
 29 76  1  0  0  0  0
 29 77  1  0  0  0  0
 30 31  1  0  0  0  0
 30 78  1  0  0  0  0
 30 79  1  0  0  0  0
 31 32  1  6  0  0  0
 31 10  1  0  0  0  0
 31 13  1  0  0  0  0
 32 80  1  0  0  0  0
 32 81  1  0  0  0  0
 32 82  1  0  0  0  0
M  END
>  <meeko>
{"is_sidechain": [false], "intermolecular_energy": 2.731, "internal_energy": -0.839}

$$$$
