EPH_relaxed_0001_pdb2pqr_Repair_4_r2_0001_out
 OpenBabel07272616253D

 82 86  0  0  0  0  0  0  0  0999 V2000
   -1.5940    8.5580   -1.8060 C   0  0  0  0  0  0  0  0  0  0  0  0
   -2.0010    9.1430   -0.4510 C   0  0  2  0  0  0  0  0  0  0  0  0
   -3.4890    9.5450   -0.4160 C   0  0  0  0  0  0  0  0  0  0  0  0
   -4.4460    8.3560   -0.2930 C   0  0  0  0  0  0  0  0  0  0  0  0
   -5.0800    8.0170   -1.6070 C   0  0  2  0  0  0  0  0  0  0  0  0
   -6.3430    8.6520   -1.8450 O   0  0  0  0  0  0  0  0  0  0  0  0
   -6.3640    7.2190   -1.7360 C   0  0  0  0  0  0  0  0  0  0  0  0
   -7.0910    6.7110   -0.5300 C   0  0  0  0  0  0  0  0  0  0  0  0
   -6.6460    6.5200   -3.0290 C   0  0  0  0  0  0  0  0  0  0  0  0
   -1.1270   10.3470   -0.1210 C   0  0  1  0  0  0  0  0  0  0  0  0
   -0.0520   10.0290    0.9520 C   0  0  0  0  0  0  0  0  0  0  0  0
    1.2040   10.8600    0.5860 C   0  0  0  0  0  0  0  0  0  0  0  0
    0.7090   11.8690   -0.4760 C   0  0  1  0  0  0  0  0  0  0  0  0
    0.0350   13.0150    0.3430 C   0  0  0  0  0  0  0  0  0  0  0  0
    1.7900   12.4230   -1.4600 C   0  0  2  0  0  0  0  0  0  0  0  0
    2.9210   13.2310   -0.8010 C   0  0  0  0  0  0  0  0  0  0  0  0
    2.6750   14.6990   -0.6900 C   0  0  0  0  0  0  0  0  0  0  0  0
    1.7250   15.3850   -1.3520 C   0  0  0  0  0  0  0  0  0  0  0  0
    0.8370   14.6940   -2.3950 C   0  0  1  0  0  0  0  0  0  0  0  0
    0.7580   15.5720   -3.6720 C   0  0  0  0  0  0  0  0  0  0  0  0
    0.3060   16.9980   -3.3740 C   0  0  0  0  0  0  0  0  0  0  0  0
    1.2470   17.6720   -2.3780 C   0  0  2  0  0  0  0  0  0  0  0  0
    2.5250   17.8470   -2.9970 O   0  0  0  0  0  0  0  0  0  0  0  0
    1.4130   16.8730   -1.0550 C   0  0  0  0  0  0  0  0  0  0  0  0
    0.0980   16.9400   -0.2390 C   0  0  0  0  0  0  0  0  0  0  0  0
    2.4930   17.5860   -0.1980 C   0  0  0  0  0  0  0  0  0  0  0  0
    1.1950   13.1800   -2.7170 C   0  0  1  0  0  0  0  0  0  0  0  0
    2.2840   13.1160   -3.8310 C   0  0  0  0  0  0  0  0  0  0  0  0
   -0.0790   12.4620   -3.3000 C   0  0  0  0  0  0  0  0  0  0  0  0
   -1.0480   11.8310   -2.2810 C   0  0  0  0  0  0  0  0  0  0  0  0
   -0.2930   10.9580   -1.2740 C   0  0  2  0  0  0  0  0  0  0  0  0
    0.3770    9.7840   -2.0660 C   0  0  0  0  0  0  0  0  0  0  0  0
   -0.9723    7.6644   -1.6478 H   0  0  0  0  0  0  0  0  0  0  0  0
   -2.4959    8.2817   -2.3719 H   0  0  0  0  0  0  0  0  0  0  0  0
   -1.0214    9.3076   -2.3719 H   0  0  0  0  0  0  0  0  0  0  0  0
   -1.8535    8.3589    0.3063 H   0  0  0  0  0  0  0  0  0  0  0  0
   -3.6488   10.2098    0.4457 H   0  0  0  0  0  0  0  0  0  0  0  0
   -3.7110   10.0381   -1.3739 H   0  0  0  0  0  0  0  0  0  0  0  0
   -3.8840    7.4819    0.0677 H   0  0  0  0  0  0  0  0  0  0  0  0
   -5.2443    8.6299    0.4124 H   0  0  0  0  0  0  0  0  0  0  0  0
   -4.0932    7.9085   -2.0809 H   0  0  0  0  0  0  0  0  0  0  0  0
   -6.5842    7.0651    0.3798 H   0  0  0  0  0  0  0  0  0  0  0  0
   -8.1259    7.0835   -0.5418 H   0  0  0  0  0  0  0  0  0  0  0  0
   -7.0971    5.6111   -0.5418 H   0  0  0  0  0  0  0  0  0  0  0  0
   -7.0503    5.5179   -2.8235 H   0  0  0  0  0  0  0  0  0  0  0  0
   -7.3804    7.1002   -3.6069 H   0  0  0  0  0  0  0  0  0  0  0  0
   -5.7146    6.4282   -3.6069 H   0  0  0  0  0  0  0  0  0  0  0  0
   -1.9046   11.0568    0.1977 H   0  0  0  0  0  0  0  0  0  0  0  0
   -0.4170   10.3135    1.9499 H   0  0  0  0  0  0  0  0  0  0  0  0
    0.1783    8.9536    0.9740 H   0  0  0  0  0  0  0  0  0  0  0  0
    1.5925   11.3864    1.4703 H   0  0  0  0  0  0  0  0  0  0  0  0
    2.0257   10.2312    0.2126 H   0  0  0  0  0  0  0  0  0  0  0  0
    0.1525   12.8152    1.4183 H   0  0  0  0  0  0  0  0  0  0  0  0
    0.5130   13.9738    0.0938 H   0  0  0  0  0  0  0  0  0  0  0  0
   -1.0353   13.0632    0.0938 H   0  0  0  0  0  0  0  0  0  0  0  0
    2.2611   11.5023   -1.8346 H   0  0  0  0  0  0  0  0  0  0  0  0
    3.0753   12.8346    0.2134 H   0  0  0  0  0  0  0  0  0  0  0  0
    3.7973   13.1181   -1.4563 H   0  0  0  0  0  0  0  0  0  0  0  0
    3.3252   15.2684   -0.0095 H   0  0  0  0  0  0  0  0  0  0  0  0
   -0.1598   14.6103   -1.9374 H   0  0  0  0  0  0  0  0  0  0  0  0
    1.7540   15.6078   -4.1376 H   0  0  0  0  0  0  0  0  0  0  0  0
    0.0135   15.1190   -4.3432 H   0  0  0  0  0  0  0  0  0  0  0  0
    0.2982   17.5761   -4.3098 H   0  0  0  0  0  0  0  0  0  0  0  0
   -0.7022   16.9623   -2.9355 H   0  0  0  0  0  0  0  0  0  0  0  0
    0.8010   18.6401   -2.1063 H   0  0  0  0  0  0  0  0  0  0  0  0
    2.5620   18.7550   -3.3440 H   0  0  0  0  0  0  0  0  0  0  0  0
    0.3323   16.9281    0.8357 H   0  0  0  0  0  0  0  0  0  0  0  0
   -0.4404   17.8667   -0.4866 H   0  0  0  0  0  0  0  0  0  0  0  0
   -0.5318   16.0728   -0.4866 H   0  0  0  0  0  0  0  0  0  0  0  0
    2.2703   17.4389    0.8691 H   0  0  0  0  0  0  0  0  0  0  0  0
    3.4819   17.1626   -0.4279 H   0  0  0  0  0  0  0  0  0  0  0  0
    2.4922   18.6617   -0.4279 H   0  0  0  0  0  0  0  0  0  0  0  0
    3.2798   13.0575   -3.3674 H   0  0  0  0  0  0  0  0  0  0  0  0
    2.1176   12.2261   -4.4558 H   0  0  0  0  0  0  0  0  0  0  0  0
    2.2229   14.0193   -4.4558 H   0  0  0  0  0  0  0  0  0  0  0  0
   -0.6443   13.2063   -3.8801 H   0  0  0  0  0  0  0  0  0  0  0  0
    0.3101   11.6179   -3.8883 H   0  0  0  0  0  0  0  0  0  0  0  0
   -1.5731   12.6321   -1.7401 H   0  0  0  0  0  0  0  0  0  0  0  0
   -1.7655   11.1987   -2.8245 H   0  0  0  0  0  0  0  0  0  0  0  0
    0.7937    9.0539   -1.3565 H   0  0  0  0  0  0  0  0  0  0  0  0
   -0.3762    9.2917   -2.6988 H   0  0  0  0  0  0  0  0  0  0  0  0
    1.1839   10.1821   -2.6988 H   0  0  0  0  0  0  0  0  0  0  0  0
  1  2  1  0  0  0  0
  1 33  1  0  0  0  0
  1 34  1  0  0  0  0
  1 35  1  0  0  0  0
  2  3  1  0  0  0  0
  2 10  1  0  0  0  0
  2 36  1  1  0  0  0
  3  4  1  0  0  0  0
  3 37  1  0  0  0  0
  3 38  1  0  0  0  0
  4  5  1  0  0  0  0
  4 39  1  0  0  0  0
  4 40  1  0  0  0  0
  5  6  1  0  0  0  0
  5 41  1  6  0  0  0
  6  7  1  0  0  0  0
  7  8  1  0  0  0  0
  7  9  1  0  0  0  0
  7  5  1  0  0  0  0
  8 42  1  0  0  0  0
  8 43  1  0  0  0  0
  8 44  1  0  0  0  0
  9 45  1  0  0  0  0
  9 46  1  0  0  0  0
  9 47  1  0  0  0  0
 10 11  1  0  0  0  0
 10 48  1  1  0  0  0
 11 12  1  0  0  0  0
 11 49  1  0  0  0  0
 11 50  1  0  0  0  0
 12 13  1  0  0  0  0
 12 51  1  0  0  0  0
 12 52  1  0  0  0  0
 13 14  1  1  0  0  0
 13 15  1  0  0  0  0
 14 53  1  0  0  0  0
 14 54  1  0  0  0  0
 14 55  1  0  0  0  0
 15 16  1  0  0  0  0
 15 56  1  6  0  0  0
 16 17  1  0  0  0  0
 16 57  1  0  0  0  0
 16 58  1  0  0  0  0
 17 18  2  0  0  0  0
 17 59  1  0  0  0  0
 18 19  1  0  0  0  0
 19 20  1  0  0  0  0
 19 27  1  0  0  0  0
 19 60  1  1  0  0  0
 20 21  1  0  0  0  0
 20 61  1  0  0  0  0
 20 62  1  0  0  0  0
 21 22  1  0  0  0  0
 21 63  1  0  0  0  0
 21 64  1  0  0  0  0
 22 23  1  0  0  0  0
 22 24  1  0  0  0  0
 22 65  1  1  0  0  0
 23 66  1  0  0  0  0
 24 25  1  0  0  0  0
 24 26  1  0  0  0  0
 24 18  1  0  0  0  0
 25 67  1  0  0  0  0
 25 68  1  0  0  0  0
 25 69  1  0  0  0  0
 26 70  1  0  0  0  0
 26 71  1  0  0  0  0
 26 72  1  0  0  0  0
 27 28  1  6  0  0  0
 27 29  1  0  0  0  0
 27 15  1  0  0  0  0
 28 73  1  0  0  0  0
 28 74  1  0  0  0  0
 28 75  1  0  0  0  0
 29 30  1  0  0  0  0
 29 76  1  0  0  0  0
 29 77  1  0  0  0  0
 30 31  1  0  0  0  0
 30 78  1  0  0  0  0
 30 79  1  0  0  0  0
 31 32  1  6  0  0  0
 31 10  1  0  0  0  0
 31 13  1  0  0  0  0
 32 80  1  0  0  0  0
 32 81  1  0  0  0  0
 32 82  1  0  0  0  0
M  END
>  <meeko>
{"is_sidechain": [false], "intermolecular_energy": 2.731, "internal_energy": -0.839}

$$$$
