EPH_relaxed_0001_pdb2pqr_Repair_210_r2_0001_out
 OpenBabel07272616253D

 82 86  0  0  0  0  0  0  0  0999 V2000
   -1.7120    8.5830   -1.8670 C   0  0  0  0  0  0  0  0  0  0  0  0
   -2.0930    9.1080   -0.4800 C   0  0  2  0  0  0  0  0  0  0  0  0
   -3.5870    9.4800   -0.3900 C   0  0  0  0  0  0  0  0  0  0  0  0
   -4.5130    8.2720   -0.2280 C   0  0  0  0  0  0  0  0  0  0  0  0
   -5.2110    7.9320   -1.5100 C   0  0  2  0  0  0  0  0  0  0  0  0
   -6.3540    8.7460   -1.8030 O   0  0  0  0  0  0  0  0  0  0  0  0
   -6.6110    7.3510   -1.5710 C   0  0  0  0  0  0  0  0  0  0  0  0
   -7.3970    7.0760   -0.3280 C   0  0  0  0  0  0  0  0  0  0  0  0
   -7.0210    6.6020   -2.8010 C   0  0  0  0  0  0  0  0  0  0  0  0
   -1.2330   10.3170   -0.1280 C   0  0  1  0  0  0  0  0  0  0  0  0
   -0.2050   10.0120    0.9940 C   0  0  0  0  0  0  0  0  0  0  0  0
    1.0660   10.8380    0.6720 C   0  0  0  0  0  0  0  0  0  0  0  0
    0.6180   11.8340   -0.4230 C   0  0  1  0  0  0  0  0  0  0  0  0
   -0.0900   12.9900    0.3520 C   0  0  0  0  0  0  0  0  0  0  0  0
    1.7400   12.3750   -1.3670 C   0  0  2  0  0  0  0  0  0  0  0  0
    2.8430   13.1910   -0.6700 C   0  0  0  0  0  0  0  0  0  0  0  0
    2.5930   14.6610   -0.5880 C   0  0  0  0  0  0  0  0  0  0  0  0
    1.6730   15.3380   -1.2990 C   0  0  0  0  0  0  0  0  0  0  0  0
    0.8300   14.6340   -2.3710 C   0  0  1  0  0  0  0  0  0  0  0  0
    0.8070   15.4960   -3.6600 C   0  0  0  0  0  0  0  0  0  0  0  0
    0.3440   16.9260   -3.4000 C   0  0  0  0  0  0  0  0  0  0  0  0
    1.2410   17.6120   -2.3740 C   0  0  2  0  0  0  0  0  0  0  0  0
    2.5450   17.7790   -2.9390 O   0  0  0  0  0  0  0  0  0  0  0  0
    1.3490   16.8290   -1.0350 C   0  0  0  0  0  0  0  0  0  0  0  0
    0.0010   16.9070   -0.2760 C   0  0  0  0  0  0  0  0  0  0  0  0
    2.3920   17.5540   -0.1420 C   0  0  0  0  0  0  0  0  0  0  0  0
    1.2010   13.1160   -2.6570 C   0  0  1  0  0  0  0  0  0  0  0  0
    2.3370   13.0380   -3.7230 C   0  0  0  0  0  0  0  0  0  0  0  0
   -0.0480   12.3910   -3.2850 C   0  0  0  0  0  0  0  0  0  0  0  0
   -1.0600   11.7730   -2.3020 C   0  0  0  0  0  0  0  0  0  0  0  0
   -0.3500   10.9130   -1.2520 C   0  0  2  0  0  0  0  0  0  0  0  0
    0.3530    9.7290   -2.0000 C   0  0  0  0  0  0  0  0  0  0  0  0
   -1.0690    7.6970   -1.7598 H   0  0  0  0  0  0  0  0  0  0  0  0
   -2.6235    8.3099   -2.4188 H   0  0  0  0  0  0  0  0  0  0  0  0
   -1.1697    9.3650   -2.4188 H   0  0  0  0  0  0  0  0  0  0  0  0
   -1.9104    8.2986    0.2421 H   0  0  0  0  0  0  0  0  0  0  0  0
   -3.7280   10.1442    0.4754 H   0  0  0  0  0  0  0  0  0  0  0  0
   -3.8552    9.9657   -1.3398 H   0  0  0  0  0  0  0  0  0  0  0  0
   -3.9159    7.4058    0.0933 H   0  0  0  0  0  0  0  0  0  0  0  0
   -5.2773    8.5242    0.5218 H   0  0  0  0  0  0  0  0  0  0  0  0
   -4.2624    7.6207   -1.9718 H   0  0  0  0  0  0  0  0  0  0  0  0
   -6.7764    7.2931    0.5538 H   0  0  0  0  0  0  0  0  0  0  0  0
   -8.2929    7.7141   -0.3120 H   0  0  0  0  0  0  0  0  0  0  0  0
   -7.6997    6.0186   -0.3120 H   0  0  0  0  0  0  0  0  0  0  0  0
   -7.5305    5.6713   -2.5108 H   0  0  0  0  0  0  0  0  0  0  0  0
   -7.7047    7.2235   -3.3979 H   0  0  0  0  0  0  0  0  0  0  0  0
   -6.1290    6.3610   -3.3979 H   0  0  0  0  0  0  0  0  0  0  0  0
   -2.0228   11.0311    0.1481 H   0  0  0  0  0  0  0  0  0  0  0  0
   -0.6121   10.3089    1.9718 H   0  0  0  0  0  0  0  0  0  0  0  0
    0.0234    8.9369    1.0390 H   0  0  0  0  0  0  0  0  0  0  0  0
    1.4165   11.3753    1.5656 H   0  0  0  0  0  0  0  0  0  0  0  0
    1.9024   10.2043    0.3421 H   0  0  0  0  0  0  0  0  0  0  0  0
    0.0126   12.8225    1.4343 H   0  0  0  0  0  0  0  0  0  0  0  0
    0.3752   13.9500    0.0838 H   0  0  0  0  0  0  0  0  0  0  0  0
   -1.1566   13.0118    0.0838 H   0  0  0  0  0  0  0  0  0  0  0  0
    2.2250   11.4492   -1.7099 H   0  0  0  0  0  0  0  0  0  0  0  0
    2.9536   12.8072    0.3549 H   0  0  0  0  0  0  0  0  0  0  0  0
    3.7466   13.0696   -1.2855 H   0  0  0  0  0  0  0  0  0  0  0  0
    3.2133   15.2390    0.1128 H   0  0  0  0  0  0  0  0  0  0  0  0
   -0.1862   14.5559   -1.9572 H   0  0  0  0  0  0  0  0  0  0  0  0
    1.8222   15.5255   -4.0825 H   0  0  0  0  0  0  0  0  0  0  0  0
    0.0914   15.0351   -4.3568 H   0  0  0  0  0  0  0  0  0  0  0  0
    0.3771   17.4920   -4.3426 H   0  0  0  0  0  0  0  0  0  0  0  0
   -0.6821   16.8962   -3.0048 H   0  0  0  0  0  0  0  0  0  0  0  0
    0.7846   18.5838   -2.1345 H   0  0  0  0  0  0  0  0  0  0  0  0
    2.9530   18.5520   -2.5140 H   0  0  0  0  0  0  0  0  0  0  0  0
    0.1892   16.8961    0.8077 H   0  0  0  0  0  0  0  0  0  0  0  0
   -0.5199   17.8368   -0.5484 H   0  0  0  0  0  0  0  0  0  0  0  0
   -0.6236   16.0435   -0.5484 H   0  0  0  0  0  0  0  0  0  0  0  0
    2.1485   17.3848    0.9173 H   0  0  0  0  0  0  0  0  0  0  0  0
    3.3958   17.1579   -0.3553 H   0  0  0  0  0  0  0  0  0  0  0  0
    2.3705   18.6329   -0.3553 H   0  0  0  0  0  0  0  0  0  0  0  0
    3.3112   12.9711   -3.2165 H   0  0  0  0  0  0  0  0  0  0  0  0
    2.1890   12.1479   -4.3521 H   0  0  0  0  0  0  0  0  0  0  0  0
    2.3120   13.9400   -4.3521 H   0  0  0  0  0  0  0  0  0  0  0  0
   -0.5873   13.1283   -3.8978 H   0  0  0  0  0  0  0  0  0  0  0  0
    0.3655   11.5394   -3.8452 H   0  0  0  0  0  0  0  0  0  0  0  0
   -1.6080   12.5807   -1.7947 H   0  0  0  0  0  0  0  0  0  0  0  0
   -1.7532   11.1336   -2.8683 H   0  0  0  0  0  0  0  0  0  0  0  0
    0.7702    9.0263   -1.2637 H   0  0  0  0  0  0  0  0  0  0  0  0
   -0.3811    9.2063   -2.6307 H   0  0  0  0  0  0  0  0  0  0  0  0
    1.1634   10.1233   -2.6307 H   0  0  0  0  0  0  0  0  0  0  0  0
  1  2  1  0  0  0  0
  1 33  1  0  0  0  0
  1 34  1  0  0  0  0
  1 35  1  0  0  0  0
  2  3  1  0  0  0  0
  2 10  1  0  0  0  0
  2 36  1  1  0  0  0
  3  4  1  0  0  0  0
  3 37  1  0  0  0  0
  3 38  1  0  0  0  0
  4  5  1  0  0  0  0
  4 39  1  0  0  0  0
  4 40  1  0  0  0  0
  5  6  1  0  0  0  0
  5 41  1  6  0  0  0
  6  7  1  0  0  0  0
  7  8  1  0  0  0  0
  7  9  1  0  0  0  0
  7  5  1  0  0  0  0
  8 42  1  0  0  0  0
  8 43  1  0  0  0  0
  8 44  1  0  0  0  0
  9 45  1  0  0  0  0
  9 46  1  0  0  0  0
  9 47  1  0  0  0  0
 10 11  1  0  0  0  0
 10 48  1  1  0  0  0
 11 12  1  0  0  0  0
 11 49  1  0  0  0  0
 11 50  1  0  0  0  0
 12 13  1  0  0  0  0
 12 51  1  0  0  0  0
 12 52  1  0  0  0  0
 13 14  1  1  0  0  0
 13 15  1  0  0  0  0
 14 53  1  0  0  0  0
 14 54  1  0  0  0  0
 14 55  1  0  0  0  0
 15 16  1  0  0  0  0
 15 56  1  6  0  0  0
 16 17  1  0  0  0  0
 16 57  1  0  0  0  0
 16 58  1  0  0  0  0
 17 18  2  0  0  0  0
 17 59  1  0  0  0  0
 18 19  1  0  0  0  0
 19 20  1  0  0  0  0
 19 27  1  0  0  0  0
 19 60  1  1  0  0  0
 20 21  1  0  0  0  0
 20 61  1  0  0  0  0
 20 62  1  0  0  0  0
 21 22  1  0  0  0  0
 21 63  1  0  0  0  0
 21 64  1  0  0  0  0
 22 23  1  0  0  0  0
 22 24  1  0  0  0  0
 22 65  1  1  0  0  0
 23 66  1  0  0  0  0
 24 25  1  0  0  0  0
 24 26  1  0  0  0  0
 24 18  1  0  0  0  0
 25 67  1  0  0  0  0
 25 68  1  0  0  0  0
 25 69  1  0  0  0  0
 26 70  1  0  0  0  0
 26 71  1  0  0  0  0
 26 72  1  0  0  0  0
 27 28  1  6  0  0  0
 27 29  1  0  0  0  0
 27 15  1  0  0  0  0
 28 73  1  0  0  0  0
 28 74  1  0  0  0  0
 28 75  1  0  0  0  0
 29 30  1  0  0  0  0
 29 76  1  0  0  0  0
 29 77  1  0  0  0  0
 30 31  1  0  0  0  0
 30 78  1  0  0  0  0
 30 79  1  0  0  0  0
 31 32  1  6  0  0  0
 31 10  1  0  0  0  0
 31 13  1  0  0  0  0
 32 80  1  0  0  0  0
 32 81  1  0  0  0  0
 32 82  1  0  0  0  0
M  END
>  <meeko>
{"is_sidechain": [false], "intermolecular_energy": 2.731, "internal_energy": -0.839}

$$$$
