EPH_relaxed_0001_pdb2pqr_Repair_229_r2_0001_out
 OpenBabel07272616253D

 82 86  0  0  0  0  0  0  0  0999 V2000
   -1.7170    8.5840   -1.8740 C   0  0  0  0  0  0  0  0  0  0  0  0
   -2.0960    9.1040   -0.4840 C   0  0  2  0  0  0  0  0  0  0  0  0
   -3.5910    9.4710   -0.3890 C   0  0  0  0  0  0  0  0  0  0  0  0
   -4.5120    8.2600   -0.2250 C   0  0  0  0  0  0  0  0  0  0  0  0
   -5.2150    7.9200   -1.5050 C   0  0  2  0  0  0  0  0  0  0  0  0
   -6.3530    8.7400   -1.7990 O   0  0  0  0  0  0  0  0  0  0  0  0
   -6.6190    7.3490   -1.5620 C   0  0  0  0  0  0  0  0  0  0  0  0
   -7.4050    7.0830   -0.3170 C   0  0  0  0  0  0  0  0  0  0  0  0
   -7.0360    6.5970   -2.7880 C   0  0  0  0  0  0  0  0  0  0  0  0
   -1.2390   10.3140   -0.1310 C   0  0  1  0  0  0  0  0  0  0  0  0
   -0.2150   10.0120    0.9950 C   0  0  0  0  0  0  0  0  0  0  0  0
    1.0570   10.8400    0.6760 C   0  0  0  0  0  0  0  0  0  0  0  0
    0.6110   11.8330   -0.4220 C   0  0  1  0  0  0  0  0  0  0  0  0
   -0.1010   12.9890    0.3490 C   0  0  0  0  0  0  0  0  0  0  0  0
    1.7360   12.3740   -1.3630 C   0  0  2  0  0  0  0  0  0  0  0  0
    2.8350   13.1930   -0.6630 C   0  0  0  0  0  0  0  0  0  0  0  0
    2.5830   14.6620   -0.5840 C   0  0  0  0  0  0  0  0  0  0  0  0
    1.6640   15.3380   -1.2990 C   0  0  0  0  0  0  0  0  0  0  0  0
    0.8260   14.6310   -2.3720 C   0  0  1  0  0  0  0  0  0  0  0  0
    0.8070   15.4910   -3.6640 C   0  0  0  0  0  0  0  0  0  0  0  0
    0.3410   16.9210   -3.4070 C   0  0  0  0  0  0  0  0  0  0  0  0
    1.2340   17.6090   -2.3780 C   0  0  2  0  0  0  0  0  0  0  0  0
    2.5390   17.7770   -2.9400 O   0  0  0  0  0  0  0  0  0  0  0  0
    1.3380   16.8290   -1.0380 C   0  0  0  0  0  0  0  0  0  0  0  0
   -0.0120   16.9060   -0.2840 C   0  0  0  0  0  0  0  0  0  0  0  0
    2.3780   17.5560   -0.1420 C   0  0  0  0  0  0  0  0  0  0  0  0
    1.2000   13.1130   -2.6560 C   0  0  1  0  0  0  0  0  0  0  0  0
    2.3390   13.0340   -3.7180 C   0  0  0  0  0  0  0  0  0  0  0  0
   -0.0460   12.3850   -3.2870 C   0  0  0  0  0  0  0  0  0  0  0  0
   -1.0600   11.7680   -2.3060 C   0  0  0  0  0  0  0  0  0  0  0  0
   -0.3530   10.9100   -1.2530 C   0  0  2  0  0  0  0  0  0  0  0  0
    0.3540    9.7260   -1.9960 C   0  0  0  0  0  0  0  0  0  0  0  0
   -1.0719    7.6990   -1.7711 H   0  0  0  0  0  0  0  0  0  0  0  0
   -2.6293    8.3108   -2.4246 H   0  0  0  0  0  0  0  0  0  0  0  0
   -1.1776    9.3688   -2.4246 H   0  0  0  0  0  0  0  0  0  0  0  0
   -1.9091    8.2932    0.2354 H   0  0  0  0  0  0  0  0  0  0  0  0
   -3.7315   10.1341    0.4773 H   0  0  0  0  0  0  0  0  0  0  0  0
   -3.8639    9.9566   -1.3375 H   0  0  0  0  0  0  0  0  0  0  0  0
   -3.9106    7.3952    0.0919 H   0  0  0  0  0  0  0  0  0  0  0  0
   -5.2736    8.5083    0.5288 H   0  0  0  0  0  0  0  0  0  0  0  0
   -4.2692    7.6006   -1.9670 H   0  0  0  0  0  0  0  0  0  0  0  0
   -6.7802    7.2945    0.5633 H   0  0  0  0  0  0  0  0  0  0  0  0
   -8.2943    7.7302   -0.2995 H   0  0  0  0  0  0  0  0  0  0  0  0
   -7.7184    6.0287   -0.2995 H   0  0  0  0  0  0  0  0  0  0  0  0
   -7.5499    5.6703   -2.4927 H   0  0  0  0  0  0  0  0  0  0  0  0
   -7.7177    7.2197   -3.3860 H   0  0  0  0  0  0  0  0  0  0  0  0
   -6.1468    6.3486   -3.3860 H   0  0  0  0  0  0  0  0  0  0  0  0
   -2.0306   11.0276    0.1412 H   0  0  0  0  0  0  0  0  0  0  0  0
   -0.6261   10.3098    1.9709 H   0  0  0  0  0  0  0  0  0  0  0  0
    0.0146    8.9373    1.0425 H   0  0  0  0  0  0  0  0  0  0  0  0
    1.4035   11.3794    1.5699 H   0  0  0  0  0  0  0  0  0  0  0  0
    1.8958   10.2072    0.3503 H   0  0  0  0  0  0  0  0  0  0  0  0
    0.0004   12.8244    1.4319 H   0  0  0  0  0  0  0  0  0  0  0  0
    0.3622   13.9495    0.0792 H   0  0  0  0  0  0  0  0  0  0  0  0
   -1.1672   13.0075    0.0792 H   0  0  0  0  0  0  0  0  0  0  0  0
    2.2238   11.4486   -1.7030 H   0  0  0  0  0  0  0  0  0  0  0  0
    2.9422   12.8109    0.3629 H   0  0  0  0  0  0  0  0  0  0  0  0
    3.7409   13.0722   -1.2751 H   0  0  0  0  0  0  0  0  0  0  0  0
    3.2005   15.2416    0.1180 H   0  0  0  0  0  0  0  0  0  0  0  0
   -0.1909   14.5522   -1.9601 H   0  0  0  0  0  0  0  0  0  0  0  0
    1.8237   15.5211   -4.0827 H   0  0  0  0  0  0  0  0  0  0  0  0
    0.0953   15.0280   -4.3634 H   0  0  0  0  0  0  0  0  0  0  0  0
    0.3768   17.4863   -4.3500 H   0  0  0  0  0  0  0  0  0  0  0  0
   -0.6866   16.8905   -3.0157 H   0  0  0  0  0  0  0  0  0  0  0  0
    0.7759   18.5803   -2.1400 H   0  0  0  0  0  0  0  0  0  0  0  0
    2.9190   16.8920   -3.0730 H   0  0  0  0  0  0  0  0  0  0  0  0
    0.1725   16.8955    0.8004 H   0  0  0  0  0  0  0  0  0  0  0  0
   -0.5327   17.8353   -0.5583 H   0  0  0  0  0  0  0  0  0  0  0  0
   -0.6350   16.0419   -0.5583 H   0  0  0  0  0  0  0  0  0  0  0  0
    2.1332   17.3849    0.9167 H   0  0  0  0  0  0  0  0  0  0  0  0
    3.3832   17.1629   -0.3541 H   0  0  0  0  0  0  0  0  0  0  0  0
    2.3541   18.6351   -0.3541 H   0  0  0  0  0  0  0  0  0  0  0  0
    3.3115   12.9666   -3.2084 H   0  0  0  0  0  0  0  0  0  0  0  0
    2.1924   12.1439   -4.3474 H   0  0  0  0  0  0  0  0  0  0  0  0
    2.3167   13.9359   -4.3474 H   0  0  0  0  0  0  0  0  0  0  0  0
   -0.5842   13.1203   -3.9032 H   0  0  0  0  0  0  0  0  0  0  0  0
    0.3703   11.5329   -3.8444 H   0  0  0  0  0  0  0  0  0  0  0  0
   -1.6098   12.5762   -1.8014 H   0  0  0  0  0  0  0  0  0  0  0  0
   -1.7511   11.1274   -2.8734 H   0  0  0  0  0  0  0  0  0  0  0  0
    0.7717    9.0265   -1.2569 H   0  0  0  0  0  0  0  0  0  0  0  0
   -0.3777    9.1996   -2.6264 H   0  0  0  0  0  0  0  0  0  0  0  0
    1.1645   10.1205   -2.6264 H   0  0  0  0  0  0  0  0  0  0  0  0
  1  2  1  0  0  0  0
  1 33  1  0  0  0  0
  1 34  1  0  0  0  0
  1 35  1  0  0  0  0
  2  3  1  0  0  0  0
  2 10  1  0  0  0  0
  2 36  1  1  0  0  0
  3  4  1  0  0  0  0
  3 37  1  0  0  0  0
  3 38  1  0  0  0  0
  4  5  1  0  0  0  0
  4 39  1  0  0  0  0
  4 40  1  0  0  0  0
  5  6  1  0  0  0  0
  5 41  1  6  0  0  0
  6  7  1  0  0  0  0
  7  8  1  0  0  0  0
  7  9  1  0  0  0  0
  7  5  1  0  0  0  0
  8 42  1  0  0  0  0
  8 43  1  0  0  0  0
  8 44  1  0  0  0  0
  9 45  1  0  0  0  0
  9 46  1  0  0  0  0
  9 47  1  0  0  0  0
 10 11  1  0  0  0  0
 10 48  1  1  0  0  0
 11 12  1  0  0  0  0
 11 49  1  0  0  0  0
 11 50  1  0  0  0  0
 12 13  1  0  0  0  0
 12 51  1  0  0  0  0
 12 52  1  0  0  0  0
 13 14  1  1  0  0  0
 13 15  1  0  0  0  0
 14 53  1  0  0  0  0
 14 54  1  0  0  0  0
 14 55  1  0  0  0  0
 15 16  1  0  0  0  0
 15 56  1  6  0  0  0
 16 17  1  0  0  0  0
 16 57  1  0  0  0  0
 16 58  1  0  0  0  0
 17 18  2  0  0  0  0
 17 59  1  0  0  0  0
 18 19  1  0  0  0  0
 19 20  1  0  0  0  0
 19 27  1  0  0  0  0
 19 60  1  1  0  0  0
 20 21  1  0  0  0  0
 20 61  1  0  0  0  0
 20 62  1  0  0  0  0
 21 22  1  0  0  0  0
 21 63  1  0  0  0  0
 21 64  1  0  0  0  0
 22 23  1  0  0  0  0
 22 24  1  0  0  0  0
 22 65  1  1  0  0  0
 23 66  1  0  0  0  0
 24 25  1  0  0  0  0
 24 26  1  0  0  0  0
 24 18  1  0  0  0  0
 25 67  1  0  0  0  0
 25 68  1  0  0  0  0
 25 69  1  0  0  0  0
 26 70  1  0  0  0  0
 26 71  1  0  0  0  0
 26 72  1  0  0  0  0
 27 28  1  6  0  0  0
 27 29  1  0  0  0  0
 27 15  1  0  0  0  0
 28 73  1  0  0  0  0
 28 74  1  0  0  0  0
 28 75  1  0  0  0  0
 29 30  1  0  0  0  0
 29 76  1  0  0  0  0
 29 77  1  0  0  0  0
 30 31  1  0  0  0  0
 30 78  1  0  0  0  0
 30 79  1  0  0  0  0
 31 32  1  6  0  0  0
 31 10  1  0  0  0  0
 31 13  1  0  0  0  0
 32 80  1  0  0  0  0
 32 81  1  0  0  0  0
 32 82  1  0  0  0  0
M  END
>  <meeko>
{"is_sidechain": [false], "intermolecular_energy": 2.731, "internal_energy": -0.839}

$$$$
