EPH_relaxed_0001_pdb2pqr_Repair_172_r2_0001_out
 OpenBabel07272616253D

 82 86  0  0  0  0  0  0  0  0999 V2000
   -1.6820    8.5760   -1.8730 C   0  0  0  0  0  0  0  0  0  0  0  0
   -2.0650    9.1030   -0.4870 C   0  0  2  0  0  0  0  0  0  0  0  0
   -3.5600    9.4730   -0.4000 C   0  0  0  0  0  0  0  0  0  0  0  0
   -4.4880    8.2620   -0.2760 C   0  0  0  0  0  0  0  0  0  0  0  0
   -5.1750    7.9540   -1.5720 C   0  0  2  0  0  0  0  0  0  0  0  0
   -6.3640    8.7170   -1.8140 O   0  0  0  0  0  0  0  0  0  0  0  0
   -6.5400    7.2990   -1.6600 C   0  0  0  0  0  0  0  0  0  0  0  0
   -7.3000    6.9100   -0.4310 C   0  0  0  0  0  0  0  0  0  0  0  0
   -6.9160    6.5970   -2.9270 C   0  0  0  0  0  0  0  0  0  0  0  0
   -1.2080   10.3120   -0.1350 C   0  0  1  0  0  0  0  0  0  0  0  0
   -0.1790   10.0090    0.9870 C   0  0  0  0  0  0  0  0  0  0  0  0
    1.0920   10.8370    0.6640 C   0  0  0  0  0  0  0  0  0  0  0  0
    0.6410   11.8320   -0.4300 C   0  0  1  0  0  0  0  0  0  0  0  0
   -0.0680   12.9870    0.3440 C   0  0  0  0  0  0  0  0  0  0  0  0
    1.7630   12.3750   -1.3750 C   0  0  2  0  0  0  0  0  0  0  0  0
    2.8640   13.1930   -0.6780 C   0  0  0  0  0  0  0  0  0  0  0  0
    2.6120   14.6620   -0.5960 C   0  0  0  0  0  0  0  0  0  0  0  0
    1.6910   15.3380   -1.3070 C   0  0  0  0  0  0  0  0  0  0  0  0
    0.8480   14.6330   -2.3780 C   0  0  1  0  0  0  0  0  0  0  0  0
    0.8240   15.4950   -3.6680 C   0  0  0  0  0  0  0  0  0  0  0  0
    0.3590   16.9240   -3.4080 C   0  0  0  0  0  0  0  0  0  0  0  0
    1.2560   17.6110   -2.3810 C   0  0  2  0  0  0  0  0  0  0  0  0
    2.5590   17.7810   -2.9470 O   0  0  0  0  0  0  0  0  0  0  0  0
    1.3650   16.8290   -1.0420 C   0  0  0  0  0  0  0  0  0  0  0  0
    0.0170   16.9050   -0.2830 C   0  0  0  0  0  0  0  0  0  0  0  0
    2.4080   17.5550   -0.1490 C   0  0  0  0  0  0  0  0  0  0  0  0
    1.2220   13.1150   -2.6650 C   0  0  1  0  0  0  0  0  0  0  0  0
    2.3570   13.0390   -3.7310 C   0  0  0  0  0  0  0  0  0  0  0  0
   -0.0260   12.3890   -3.2930 C   0  0  0  0  0  0  0  0  0  0  0  0
   -1.0370   11.7690   -2.3090 C   0  0  0  0  0  0  0  0  0  0  0  0
   -0.3250   10.9100   -1.2600 C   0  0  2  0  0  0  0  0  0  0  0  0
    0.3790    9.7270   -2.0080 C   0  0  0  0  0  0  0  0  0  0  0  0
   -1.0385    7.6906   -1.7637 H   0  0  0  0  0  0  0  0  0  0  0  0
   -2.5927    8.3014   -2.4254 H   0  0  0  0  0  0  0  0  0  0  0  0
   -1.1397    9.3575   -2.4254 H   0  0  0  0  0  0  0  0  0  0  0  0
   -1.8817    8.2950    0.2366 H   0  0  0  0  0  0  0  0  0  0  0  0
   -3.7080   10.1154    0.4806 H   0  0  0  0  0  0  0  0  0  0  0  0
   -3.8201    9.9821   -1.3398 H   0  0  0  0  0  0  0  0  0  0  0  0
   -3.8942    7.3878    0.0291 H   0  0  0  0  0  0  0  0  0  0  0  0
   -5.2587    8.4964    0.4730 H   0  0  0  0  0  0  0  0  0  0  0  0
   -4.2138    7.7227   -2.0543 H   0  0  0  0  0  0  0  0  0  0  0  0
   -6.7280    7.2028    0.4618 H   0  0  0  0  0  0  0  0  0  0  0  0
   -8.2745    7.4201   -0.4257 H   0  0  0  0  0  0  0  0  0  0  0  0
   -7.4561    5.8211   -0.4257 H   0  0  0  0  0  0  0  0  0  0  0  0
   -7.4227    5.6510   -2.6855 H   0  0  0  0  0  0  0  0  0  0  0  0
   -7.5926    7.2361   -3.5134 H   0  0  0  0  0  0  0  0  0  0  0  0
   -6.0091    6.3879   -3.5134 H   0  0  0  0  0  0  0  0  0  0  0  0
   -1.9992   11.0244    0.1414 H   0  0  0  0  0  0  0  0  0  0  0  0
   -0.5862   10.3060    1.9647 H   0  0  0  0  0  0  0  0  0  0  0  0
    0.0508    8.9342    1.0324 H   0  0  0  0  0  0  0  0  0  0  0  0
    1.4427   11.3746    1.5573 H   0  0  0  0  0  0  0  0  0  0  0  0
    1.9292   10.2047    0.3336 H   0  0  0  0  0  0  0  0  0  0  0  0
    0.0345   12.8200    1.4264 H   0  0  0  0  0  0  0  0  0  0  0  0
    0.3963   13.9474    0.0756 H   0  0  0  0  0  0  0  0  0  0  0  0
   -1.1345   13.0077    0.0756 H   0  0  0  0  0  0  0  0  0  0  0  0
    2.2501   11.4503   -1.7181 H   0  0  0  0  0  0  0  0  0  0  0  0
    2.9750   12.8095    0.3470 H   0  0  0  0  0  0  0  0  0  0  0  0
    3.7677   13.0733   -1.2936 H   0  0  0  0  0  0  0  0  0  0  0  0
    3.2315   15.2408    0.1048 H   0  0  0  0  0  0  0  0  0  0  0  0
   -0.1678   14.5538   -1.9634 H   0  0  0  0  0  0  0  0  0  0  0  0
    1.8392   15.5259   -4.0904 H   0  0  0  0  0  0  0  0  0  0  0  0
    0.1094   15.0330   -4.3650 H   0  0  0  0  0  0  0  0  0  0  0  0
    0.3914   17.4903   -4.3505 H   0  0  0  0  0  0  0  0  0  0  0  0
   -0.6672   16.8931   -3.0132 H   0  0  0  0  0  0  0  0  0  0  0  0
    0.7982   18.5818   -2.1403 H   0  0  0  0  0  0  0  0  0  0  0  0
    3.1270   18.1760   -2.2650 H   0  0  0  0  0  0  0  0  0  0  0  0
    0.2053   16.8944    0.8007 H   0  0  0  0  0  0  0  0  0  0  0  0
   -0.5053   17.8340   -0.5553 H   0  0  0  0  0  0  0  0  0  0  0  0
   -0.6064   16.0406   -0.5553 H   0  0  0  0  0  0  0  0  0  0  0  0
    2.1648   17.3857    0.9103 H   0  0  0  0  0  0  0  0  0  0  0  0
    3.4120   17.1596   -0.3625 H   0  0  0  0  0  0  0  0  0  0  0  0
    2.3858   18.6339   -0.3625 H   0  0  0  0  0  0  0  0  0  0  0  0
    3.3315   12.9737   -3.2250 H   0  0  0  0  0  0  0  0  0  0  0  0
    2.2102   12.1487   -4.3601 H   0  0  0  0  0  0  0  0  0  0  0  0
    2.3302   13.9410   -4.3601 H   0  0  0  0  0  0  0  0  0  0  0  0
   -0.5665   13.1260   -3.9052 H   0  0  0  0  0  0  0  0  0  0  0  0
    0.3881   11.5384   -3.8543 H   0  0  0  0  0  0  0  0  0  0  0  0
   -1.5859   12.5757   -1.8011 H   0  0  0  0  0  0  0  0  0  0  0  0
   -1.7297   11.1288   -2.8749 H   0  0  0  0  0  0  0  0  0  0  0  0
    0.7970    9.0246   -1.2718 H   0  0  0  0  0  0  0  0  0  0  0  0
   -0.3547    9.2036   -2.6387 H   0  0  0  0  0  0  0  0  0  0  0  0
    1.1890   10.1222   -2.6387 H   0  0  0  0  0  0  0  0  0  0  0  0
  1  2  1  0  0  0  0
  1 33  1  0  0  0  0
  1 34  1  0  0  0  0
  1 35  1  0  0  0  0
  2  3  1  0  0  0  0
  2 10  1  0  0  0  0
  2 36  1  1  0  0  0
  3  4  1  0  0  0  0
  3 37  1  0  0  0  0
  3 38  1  0  0  0  0
  4  5  1  0  0  0  0
  4 39  1  0  0  0  0
  4 40  1  0  0  0  0
  5  6  1  0  0  0  0
  5 41  1  6  0  0  0
  6  7  1  0  0  0  0
  7  8  1  0  0  0  0
  7  9  1  0  0  0  0
  7  5  1  0  0  0  0
  8 42  1  0  0  0  0
  8 43  1  0  0  0  0
  8 44  1  0  0  0  0
  9 45  1  0  0  0  0
  9 46  1  0  0  0  0
  9 47  1  0  0  0  0
 10 11  1  0  0  0  0
 10 48  1  1  0  0  0
 11 12  1  0  0  0  0
 11 49  1  0  0  0  0
 11 50  1  0  0  0  0
 12 13  1  0  0  0  0
 12 51  1  0  0  0  0
 12 52  1  0  0  0  0
 13 14  1  1  0  0  0
 13 15  1  0  0  0  0
 14 53  1  0  0  0  0
 14 54  1  0  0  0  0
 14 55  1  0  0  0  0
 15 16  1  0  0  0  0
 15 56  1  6  0  0  0
 16 17  1  0  0  0  0
 16 57  1  0  0  0  0
 16 58  1  0  0  0  0
 17 18  2  0  0  0  0
 17 59  1  0  0  0  0
 18 19  1  0  0  0  0
 19 20  1  0  0  0  0
 19 27  1  0  0  0  0
 19 60  1  1  0  0  0
 20 21  1  0  0  0  0
 20 61  1  0  0  0  0
 20 62  1  0  0  0  0
 21 22  1  0  0  0  0
 21 63  1  0  0  0  0
 21 64  1  0  0  0  0
 22 23  1  0  0  0  0
 22 24  1  0  0  0  0
 22 65  1  1  0  0  0
 23 66  1  0  0  0  0
 24 25  1  0  0  0  0
 24 26  1  0  0  0  0
 24 18  1  0  0  0  0
 25 67  1  0  0  0  0
 25 68  1  0  0  0  0
 25 69  1  0  0  0  0
 26 70  1  0  0  0  0
 26 71  1  0  0  0  0
 26 72  1  0  0  0  0
 27 28  1  6  0  0  0
 27 29  1  0  0  0  0
 27 15  1  0  0  0  0
 28 73  1  0  0  0  0
 28 74  1  0  0  0  0
 28 75  1  0  0  0  0
 29 30  1  0  0  0  0
 29 76  1  0  0  0  0
 29 77  1  0  0  0  0
 30 31  1  0  0  0  0
 30 78  1  0  0  0  0
 30 79  1  0  0  0  0
 31 32  1  6  0  0  0
 31 10  1  0  0  0  0
 31 13  1  0  0  0  0
 32 80  1  0  0  0  0
 32 81  1  0  0  0  0
 32 82  1  0  0  0  0
M  END
>  <meeko>
{"is_sidechain": [false], "intermolecular_energy": 2.731, "internal_energy": -0.839}

$$$$
