EPH_relaxed_0001_pdb2pqr_Repair_61_r2_0001_out
 OpenBabel07272616253D

 82 86  0  0  0  0  0  0  0  0999 V2000
   -1.6720    8.5650   -1.8410 C   0  0  0  0  0  0  0  0  0  0  0  0
   -2.0280    9.0900   -0.4480 C   0  0  2  0  0  0  0  0  0  0  0  0
   -3.5200    9.4600   -0.3300 C   0  0  0  0  0  0  0  0  0  0  0  0
   -4.4460    8.2470   -0.2000 C   0  0  0  0  0  0  0  0  0  0  0  0
   -5.1400    7.9390   -1.4920 C   0  0  2  0  0  0  0  0  0  0  0  0
   -6.3120    8.7260   -1.7450 O   0  0  0  0  0  0  0  0  0  0  0  0
   -6.5210    7.3150   -1.5720 C   0  0  0  0  0  0  0  0  0  0  0  0
   -7.2900    6.9600   -0.3380 C   0  0  0  0  0  0  0  0  0  0  0  0
   -6.9130    6.6050   -2.8300 C   0  0  0  0  0  0  0  0  0  0  0  0
   -1.1640   10.3000   -0.1120 C   0  0  1  0  0  0  0  0  0  0  0  0
   -0.1040    9.9920    0.9800 C   0  0  0  0  0  0  0  0  0  0  0  0
    1.1550   10.8250    0.6280 C   0  0  0  0  0  0  0  0  0  0  0  0
    0.6730   11.8260   -0.4480 C   0  0  1  0  0  0  0  0  0  0  0  0
   -0.0170   12.9740    0.3520 C   0  0  0  0  0  0  0  0  0  0  0  0
    1.7680   12.3760   -1.4190 C   0  0  2  0  0  0  0  0  0  0  0  0
    2.8850   13.1920   -0.7480 C   0  0  0  0  0  0  0  0  0  0  0  0
    2.6330   14.6610   -0.6510 C   0  0  0  0  0  0  0  0  0  0  0  0
    1.6910   15.3390   -1.3330 C   0  0  0  0  0  0  0  0  0  0  0  0
    0.8220   14.6380   -2.3850 C   0  0  1  0  0  0  0  0  0  0  0  0
    0.7610   15.5060   -3.6680 C   0  0  0  0  0  0  0  0  0  0  0  0
    0.3000   16.9330   -3.3880 C   0  0  0  0  0  0  0  0  0  0  0  0
    1.2220   17.6170   -2.3820 C   0  0  2  0  0  0  0  0  0  0  0  0
    2.5090   17.7920   -2.9820 O   0  0  0  0  0  0  0  0  0  0  0  0
    1.3700   16.8270   -1.0510 C   0  0  0  0  0  0  0  0  0  0  0  0
    0.0420   16.8960   -0.2550 C   0  0  0  0  0  0  0  0  0  0  0  0
    2.4340   17.5500   -0.1820 C   0  0  0  0  0  0  0  0  0  0  0  0
    1.1910   13.1220   -2.6900 C   0  0  1  0  0  0  0  0  0  0  0  0
    2.2970   13.0550   -3.7870 C   0  0  0  0  0  0  0  0  0  0  0  0
   -0.0720   12.3960   -3.2880 C   0  0  0  0  0  0  0  0  0  0  0  0
   -1.0550   11.7690   -2.2810 C   0  0  0  0  0  0  0  0  0  0  0  0
   -0.3130   10.9060   -1.2560 C   0  0  2  0  0  0  0  0  0  0  0  0
    0.3730    9.7290   -2.0300 C   0  0  0  0  0  0  0  0  0  0  0  0
   -1.0570    7.6581   -1.7449 H   0  0  0  0  0  0  0  0  0  0  0  0
   -2.5949    8.3258   -2.3896 H   0  0  0  0  0  0  0  0  0  0  0  0
   -1.1082    9.3339   -2.3896 H   0  0  0  0  0  0  0  0  0  0  0  0
   -1.8308    8.2806    0.2703 H   0  0  0  0  0  0  0  0  0  0  0  0
   -3.6514   10.0942    0.5591 H   0  0  0  0  0  0  0  0  0  0  0  0
   -3.7974    9.9784   -1.2596 H   0  0  0  0  0  0  0  0  0  0  0  0
   -3.8492    7.3735    0.1012 H   0  0  0  0  0  0  0  0  0  0  0  0
   -5.2123    8.4796    0.5541 H   0  0  0  0  0  0  0  0  0  0  0  0
   -4.1842    7.6796   -1.9707 H   0  0  0  0  0  0  0  0  0  0  0  0
   -6.7021    7.2314    0.5512 H   0  0  0  0  0  0  0  0  0  0  0  0
   -8.2430    7.5093   -0.3291 H   0  0  0  0  0  0  0  0  0  0  0  0
   -7.4901    5.8784   -0.3291 H   0  0  0  0  0  0  0  0  0  0  0  0
   -7.4303    5.6680   -2.5762 H   0  0  0  0  0  0  0  0  0  0  0  0
   -7.5846    7.2467   -3.4191 H   0  0  0  0  0  0  0  0  0  0  0  0
   -6.0121    6.3785   -3.4191 H   0  0  0  0  0  0  0  0  0  0  0  0
   -1.9489   11.0092    0.1896 H   0  0  0  0  0  0  0  0  0  0  0  0
   -0.4852   10.2815    1.9704 H   0  0  0  0  0  0  0  0  0  0  0  0
    0.1294    8.9175    1.0123 H   0  0  0  0  0  0  0  0  0  0  0  0
    1.5282   11.3581    1.5148 H   0  0  0  0  0  0  0  0  0  0  0  0
    1.9843   10.1966    0.2712 H   0  0  0  0  0  0  0  0  0  0  0  0
    0.0948   12.7880    1.4304 H   0  0  0  0  0  0  0  0  0  0  0  0
    0.4537   13.9344    0.0948 H   0  0  0  0  0  0  0  0  0  0  0  0
   -1.0859   13.0090    0.0948 H   0  0  0  0  0  0  0  0  0  0  0  0
    2.2477   11.4542   -1.7797 H   0  0  0  0  0  0  0  0  0  0  0  0
    3.0242   12.8032    0.2715 H   0  0  0  0  0  0  0  0  0  0  0  0
    3.7718   13.0775   -1.3887 H   0  0  0  0  0  0  0  0  0  0  0  0
    3.2707   15.2373    0.0354 H   0  0  0  0  0  0  0  0  0  0  0  0
   -0.1821   14.5543   -1.9437 H   0  0  0  0  0  0  0  0  0  0  0  0
    1.7643   15.5415   -4.1177 H   0  0  0  0  0  0  0  0  0  0  0  0
    0.0285   15.0460   -4.3476 H   0  0  0  0  0  0  0  0  0  0  0  0
    0.3061   17.5042   -4.3281 H   0  0  0  0  0  0  0  0  0  0  0  0
   -0.7152   16.8974   -2.9659 H   0  0  0  0  0  0  0  0  0  0  0  0
    0.7683   18.5853   -2.1238 H   0  0  0  0  0  0  0  0  0  0  0  0
    2.5610   17.1950   -3.7470 H   0  0  0  0  0  0  0  0  0  0  0  0
    0.2598   16.8847    0.8232 H   0  0  0  0  0  0  0  0  0  0  0  0
   -0.4916   17.8231   -0.5116 H   0  0  0  0  0  0  0  0  0  0  0  0
   -0.5848   16.0292   -0.5116 H   0  0  0  0  0  0  0  0  0  0  0  0
    2.2051   17.3945    0.8826 H   0  0  0  0  0  0  0  0  0  0  0  0
    3.4302   17.1410   -0.4064 H   0  0  0  0  0  0  0  0  0  0  0  0
    2.4206   18.6268   -0.4064 H   0  0  0  0  0  0  0  0  0  0  0  0
    3.2854   12.9951   -3.3080 H   0  0  0  0  0  0  0  0  0  0  0  0
    2.1386   12.1648   -4.4135 H   0  0  0  0  0  0  0  0  0  0  0  0
    2.2472   13.9578   -4.4135 H   0  0  0  0  0  0  0  0  0  0  0  0
   -0.6302   13.1347   -3.8819 H   0  0  0  0  0  0  0  0  0  0  0  0
    0.3290   11.5490   -3.8640 H   0  0  0  0  0  0  0  0  0  0  0  0
   -1.5917   12.5719   -1.7543 H   0  0  0  0  0  0  0  0  0  0  0  0
   -1.7616   11.1305   -2.8315 H   0  0  0  0  0  0  0  0  0  0  0  0
    0.7915    9.0109   -1.3094 H   0  0  0  0  0  0  0  0  0  0  0  0
   -0.3714    9.2226   -2.6620 H   0  0  0  0  0  0  0  0  0  0  0  0
    1.1805   10.1271   -2.6620 H   0  0  0  0  0  0  0  0  0  0  0  0
  1  2  1  0  0  0  0
  1 33  1  0  0  0  0
  1 34  1  0  0  0  0
  1 35  1  0  0  0  0
  2  3  1  0  0  0  0
  2 10  1  0  0  0  0
  2 36  1  1  0  0  0
  3  4  1  0  0  0  0
  3 37  1  0  0  0  0
  3 38  1  0  0  0  0
  4  5  1  0  0  0  0
  4 39  1  0  0  0  0
  4 40  1  0  0  0  0
  5  6  1  0  0  0  0
  5 41  1  6  0  0  0
  6  7  1  0  0  0  0
  7  8  1  0  0  0  0
  7  9  1  0  0  0  0
  7  5  1  0  0  0  0
  8 42  1  0  0  0  0
  8 43  1  0  0  0  0
  8 44  1  0  0  0  0
  9 45  1  0  0  0  0
  9 46  1  0  0  0  0
  9 47  1  0  0  0  0
 10 11  1  0  0  0  0
 10 48  1  1  0  0  0
 11 12  1  0  0  0  0
 11 49  1  0  0  0  0
 11 50  1  0  0  0  0
 12 13  1  0  0  0  0
 12 51  1  0  0  0  0
 12 52  1  0  0  0  0
 13 14  1  1  0  0  0
 13 15  1  0  0  0  0
 14 53  1  0  0  0  0
 14 54  1  0  0  0  0
 14 55  1  0  0  0  0
 15 16  1  0  0  0  0
 15 56  1  6  0  0  0
 16 17  1  0  0  0  0
 16 57  1  0  0  0  0
 16 58  1  0  0  0  0
 17 18  2  0  0  0  0
 17 59  1  0  0  0  0
 18 19  1  0  0  0  0
 19 20  1  0  0  0  0
 19 27  1  0  0  0  0
 19 60  1  1  0  0  0
 20 21  1  0  0  0  0
 20 61  1  0  0  0  0
 20 62  1  0  0  0  0
 21 22  1  0  0  0  0
 21 63  1  0  0  0  0
 21 64  1  0  0  0  0
 22 23  1  0  0  0  0
 22 24  1  0  0  0  0
 22 65  1  1  0  0  0
 23 66  1  0  0  0  0
 24 25  1  0  0  0  0
 24 26  1  0  0  0  0
 24 18  1  0  0  0  0
 25 67  1  0  0  0  0
 25 68  1  0  0  0  0
 25 69  1  0  0  0  0
 26 70  1  0  0  0  0
 26 71  1  0  0  0  0
 26 72  1  0  0  0  0
 27 28  1  6  0  0  0
 27 29  1  0  0  0  0
 27 15  1  0  0  0  0
 28 73  1  0  0  0  0
 28 74  1  0  0  0  0
 28 75  1  0  0  0  0
 29 30  1  0  0  0  0
 29 76  1  0  0  0  0
 29 77  1  0  0  0  0
 30 31  1  0  0  0  0
 30 78  1  0  0  0  0
 30 79  1  0  0  0  0
 31 32  1  6  0  0  0
 31 10  1  0  0  0  0
 31 13  1  0  0  0  0
 32 80  1  0  0  0  0
 32 81  1  0  0  0  0
 32 82  1  0  0  0  0
M  END
>  <meeko>
{"is_sidechain": [false], "intermolecular_energy": 2.731, "internal_energy": -0.839}

$$$$
