EPH_relaxed_0001_pdb2pqr_Repair_179_r2_0001_out
 OpenBabel07272616253D

 82 86  0  0  0  0  0  0  0  0999 V2000
   -1.6470    8.6420   -1.9090 C   0  0  0  0  0  0  0  0  0  0  0  0
   -2.0350    9.1270   -0.5090 C   0  0  2  0  0  0  0  0  0  0  0  0
   -3.5410    9.4420   -0.4010 C   0  0  0  0  0  0  0  0  0  0  0  0
   -4.4260    8.1960   -0.3110 C   0  0  0  0  0  0  0  0  0  0  0  0
   -5.1410    7.9290   -1.6000 C   0  0  2  0  0  0  0  0  0  0  0  0
   -6.3340    8.7000   -1.7940 O   0  0  0  0  0  0  0  0  0  0  0  0
   -6.5100    7.2790   -1.6780 C   0  0  0  0  0  0  0  0  0  0  0  0
   -7.2440    6.8550   -0.4450 C   0  0  0  0  0  0  0  0  0  0  0  0
   -6.9150    6.6160   -2.9570 C   0  0  0  0  0  0  0  0  0  0  0  0
   -1.2170   10.3590   -0.1410 C   0  0  1  0  0  0  0  0  0  0  0  0
   -0.2120   10.0860    1.0100 C   0  0  0  0  0  0  0  0  0  0  0  0
    1.0460   10.9440    0.7180 C   0  0  0  0  0  0  0  0  0  0  0  0
    0.6000   11.9230   -0.3940 C   0  0  1  0  0  0  0  0  0  0  0  0
   -0.1570   13.0630    0.3560 C   0  0  0  0  0  0  0  0  0  0  0  0
    1.7330   12.4890   -1.3110 C   0  0  2  0  0  0  0  0  0  0  0  0
    2.7950   13.3370   -0.5890 C   0  0  0  0  0  0  0  0  0  0  0  0
    2.5050   14.8000   -0.5210 C   0  0  0  0  0  0  0  0  0  0  0  0
    1.5870   15.4500   -1.2600 C   0  0  0  0  0  0  0  0  0  0  0  0
    0.7910   14.7200   -2.3500 C   0  0  1  0  0  0  0  0  0  0  0  0
    0.7800   15.5740   -3.6440 C   0  0  0  0  0  0  0  0  0  0  0  0
    0.2730   16.9930   -3.4040 C   0  0  0  0  0  0  0  0  0  0  0  0
    1.1250   17.7070   -2.3570 C   0  0  2  0  0  0  0  0  0  0  0  0
    2.4380   17.9060   -2.8890 O   0  0  0  0  0  0  0  0  0  0  0  0
    1.2170   16.9330   -1.0120 C   0  0  0  0  0  0  0  0  0  0  0  0
   -0.1520   16.9790   -0.2900 C   0  0  0  0  0  0  0  0  0  0  0  0
    2.2170   17.6890   -0.0950 C   0  0  0  0  0  0  0  0  0  0  0  0
    1.2090   13.2100   -2.6190 C   0  0  1  0  0  0  0  0  0  0  0  0
    2.3750   13.1570   -3.6530 C   0  0  0  0  0  0  0  0  0  0  0  0
   -0.0030   12.4500   -3.2760 C   0  0  0  0  0  0  0  0  0  0  0  0
   -1.0240   11.8100   -2.3160 C   0  0  0  0  0  0  0  0  0  0  0  0
   -0.3200   10.9740   -1.2440 C   0  0  2  0  0  0  0  0  0  0  0  0
    0.4330    9.8050   -1.9670 C   0  0  0  0  0  0  0  0  0  0  0  0
   -0.9619    7.7856   -1.8236 H   0  0  0  0  0  0  0  0  0  0  0  0
   -2.5515    8.3349   -2.4545 H   0  0  0  0  0  0  0  0  0  0  0  0
   -1.1489    9.4571   -2.4545 H   0  0  0  0  0  0  0  0  0  0  0  0
   -1.8168    8.3119    0.1967 H   0  0  0  0  0  0  0  0  0  0  0  0
   -3.7047   10.0500    0.5010 H   0  0  0  0  0  0  0  0  0  0  0  0
   -3.8252    9.9720   -1.3221 H   0  0  0  0  0  0  0  0  0  0  0  0
   -3.7958    7.3282   -0.0667 H   0  0  0  0  0  0  0  0  0  0  0  0
   -5.1810    8.3678    0.4703 H   0  0  0  0  0  0  0  0  0  0  0  0
   -4.1906    7.7115   -2.1094 H   0  0  0  0  0  0  0  0  0  0  0  0
   -6.6838    7.1786    0.4447 H   0  0  0  0  0  0  0  0  0  0  0  0
   -8.2431    7.3151   -0.4366 H   0  0  0  0  0  0  0  0  0  0  0  0
   -7.3446    5.7596   -0.4366 H   0  0  0  0  0  0  0  0  0  0  0  0
   -7.4763    5.6971   -2.7320 H   0  0  0  0  0  0  0  0  0  0  0  0
   -7.5497    7.3000   -3.5396 H   0  0  0  0  0  0  0  0  0  0  0  0
   -6.0167    6.3636   -3.5396 H   0  0  0  0  0  0  0  0  0  0  0  0
   -2.0325   11.0533    0.1097 H   0  0  0  0  0  0  0  0  0  0  0  0
   -0.6531   10.3765    1.9749 H   0  0  0  0  0  0  0  0  0  0  0  0
    0.0430    9.0175    1.0666 H   0  0  0  0  0  0  0  0  0  0  0  0
    1.3583   11.4943    1.6178 H   0  0  0  0  0  0  0  0  0  0  0  0
    1.9078   10.3316    0.4142 H   0  0  0  0  0  0  0  0  0  0  0  0
   -0.0591   12.9156    1.4417 H   0  0  0  0  0  0  0  0  0  0  0  0
    0.2755   14.0353    0.0775 H   0  0  0  0  0  0  0  0  0  0  0  0
   -1.2209   13.0416    0.0775 H   0  0  0  0  0  0  0  0  0  0  0  0
    2.2514   11.5749   -1.6361 H   0  0  0  0  0  0  0  0  0  0  0  0
    2.8880   12.9608    0.4405 H   0  0  0  0  0  0  0  0  0  0  0  0
    3.7174   13.2369   -1.1798 H   0  0  0  0  0  0  0  0  0  0  0  0
    3.0910   15.3969    0.1933 H   0  0  0  0  0  0  0  0  0  0  0  0
   -0.2333   14.6186   -1.9619 H   0  0  0  0  0  0  0  0  0  0  0  0
    1.8050   15.6279   -4.0397 H   0  0  0  0  0  0  0  0  0  0  0  0
    0.0958   15.0910   -4.3571 H   0  0  0  0  0  0  0  0  0  0  0  0
    0.3168   17.5555   -4.3483 H   0  0  0  0  0  0  0  0  0  0  0  0
   -0.7624   16.9385   -3.0365 H   0  0  0  0  0  0  0  0  0  0  0  0
    0.6379   18.6676   -2.1335 H   0  0  0  0  0  0  0  0  0  0  0  0
    3.0520   17.3600   -2.3690 H   0  0  0  0  0  0  0  0  0  0  0  0
    0.0071   16.9737    0.7984 H   0  0  0  0  0  0  0  0  0  0  0  0
   -0.6877   17.8957   -0.5778 H   0  0  0  0  0  0  0  0  0  0  0  0
   -0.7480   16.1004   -0.5778 H   0  0  0  0  0  0  0  0  0  0  0  0
    1.9646   17.4982    0.9585 H   0  0  0  0  0  0  0  0  0  0  0  0
    3.2389   17.3356   -0.2970 H   0  0  0  0  0  0  0  0  0  0  0  0
    2.1557   18.7685   -0.2970 H   0  0  0  0  0  0  0  0  0  0  0  0
    3.3362   13.1133   -3.1198 H   0  0  0  0  0  0  0  0  0  0  0  0
    2.2649   12.2629   -4.2843 H   0  0  0  0  0  0  0  0  0  0  0  0
    2.3465   14.0574   -4.2843 H   0  0  0  0  0  0  0  0  0  0  0  0
   -0.5451   13.1701   -3.9066 H   0  0  0  0  0  0  0  0  0  0  0  0
    0.4470   11.6073   -3.8213 H   0  0  0  0  0  0  0  0  0  0  0  0
   -1.6059   12.6054   -1.8273 H   0  0  0  0  0  0  0  0  0  0  0  0
   -1.6852   11.1501   -2.8968 H   0  0  0  0  0  0  0  0  0  0  0  0
    0.8682    9.1293   -1.2160 H   0  0  0  0  0  0  0  0  0  0  0  0
   -0.2754    9.2462   -2.5962 H   0  0  0  0  0  0  0  0  0  0  0  0
    1.2347   10.2190   -2.5962 H   0  0  0  0  0  0  0  0  0  0  0  0
  1  2  1  0  0  0  0
  1 33  1  0  0  0  0
  1 34  1  0  0  0  0
  1 35  1  0  0  0  0
  2  3  1  0  0  0  0
  2 10  1  0  0  0  0
  2 36  1  1  0  0  0
  3  4  1  0  0  0  0
  3 37  1  0  0  0  0
  3 38  1  0  0  0  0
  4  5  1  0  0  0  0
  4 39  1  0  0  0  0
  4 40  1  0  0  0  0
  5  6  1  0  0  0  0
  5 41  1  6  0  0  0
  6  7  1  0  0  0  0
  7  8  1  0  0  0  0
  7  9  1  0  0  0  0
  7  5  1  0  0  0  0
  8 42  1  0  0  0  0
  8 43  1  0  0  0  0
  8 44  1  0  0  0  0
  9 45  1  0  0  0  0
  9 46  1  0  0  0  0
  9 47  1  0  0  0  0
 10 11  1  0  0  0  0
 10 48  1  1  0  0  0
 11 12  1  0  0  0  0
 11 49  1  0  0  0  0
 11 50  1  0  0  0  0
 12 13  1  0  0  0  0
 12 51  1  0  0  0  0
 12 52  1  0  0  0  0
 13 14  1  1  0  0  0
 13 15  1  0  0  0  0
 14 53  1  0  0  0  0
 14 54  1  0  0  0  0
 14 55  1  0  0  0  0
 15 16  1  0  0  0  0
 15 56  1  6  0  0  0
 16 17  1  0  0  0  0
 16 57  1  0  0  0  0
 16 58  1  0  0  0  0
 17 18  2  0  0  0  0
 17 59  1  0  0  0  0
 18 19  1  0  0  0  0
 19 20  1  0  0  0  0
 19 27  1  0  0  0  0
 19 60  1  1  0  0  0
 20 21  1  0  0  0  0
 20 61  1  0  0  0  0
 20 62  1  0  0  0  0
 21 22  1  0  0  0  0
 21 63  1  0  0  0  0
 21 64  1  0  0  0  0
 22 23  1  0  0  0  0
 22 24  1  0  0  0  0
 22 65  1  1  0  0  0
 23 66  1  0  0  0  0
 24 25  1  0  0  0  0
 24 26  1  0  0  0  0
 24 18  1  0  0  0  0
 25 67  1  0  0  0  0
 25 68  1  0  0  0  0
 25 69  1  0  0  0  0
 26 70  1  0  0  0  0
 26 71  1  0  0  0  0
 26 72  1  0  0  0  0
 27 28  1  6  0  0  0
 27 29  1  0  0  0  0
 27 15  1  0  0  0  0
 28 73  1  0  0  0  0
 28 74  1  0  0  0  0
 28 75  1  0  0  0  0
 29 30  1  0  0  0  0
 29 76  1  0  0  0  0
 29 77  1  0  0  0  0
 30 31  1  0  0  0  0
 30 78  1  0  0  0  0
 30 79  1  0  0  0  0
 31 32  1  6  0  0  0
 31 10  1  0  0  0  0
 31 13  1  0  0  0  0
 32 80  1  0  0  0  0
 32 81  1  0  0  0  0
 32 82  1  0  0  0  0
M  END
>  <meeko>
{"is_sidechain": [false], "intermolecular_energy": 2.731, "internal_energy": -0.839}

$$$$
