EPH_relaxed_0001_pdb2pqr_Repair_236_r2_0001_out
 OpenBabel07272616253D

 82 86  0  0  0  0  0  0  0  0999 V2000
   -1.6910    8.5860   -1.8900 C   0  0  0  0  0  0  0  0  0  0  0  0
   -2.0680    9.1070   -0.5000 C   0  0  2  0  0  0  0  0  0  0  0  0
   -3.5620    9.4750   -0.4020 C   0  0  0  0  0  0  0  0  0  0  0  0
   -4.4880    8.2620   -0.2760 C   0  0  0  0  0  0  0  0  0  0  0  0
   -5.1790    7.9550   -1.5700 C   0  0  2  0  0  0  0  0  0  0  0  0
   -6.3580    8.7330   -1.8180 O   0  0  0  0  0  0  0  0  0  0  0  0
   -6.5540    7.3200   -1.6530 C   0  0  0  0  0  0  0  0  0  0  0  0
   -7.3200    6.9510   -0.4210 C   0  0  0  0  0  0  0  0  0  0  0  0
   -6.9410    6.6140   -2.9150 C   0  0  0  0  0  0  0  0  0  0  0  0
   -1.2090   10.3160   -0.1480 C   0  0  1  0  0  0  0  0  0  0  0  0
   -0.1710   10.0080    0.9640 C   0  0  0  0  0  0  0  0  0  0  0  0
    1.0950   10.8410    0.6360 C   0  0  0  0  0  0  0  0  0  0  0  0
    0.6340   11.8410   -0.4490 C   0  0  1  0  0  0  0  0  0  0  0  0
   -0.0710   12.9900    0.3380 C   0  0  0  0  0  0  0  0  0  0  0  0
    1.7470   12.3910   -1.4000 C   0  0  2  0  0  0  0  0  0  0  0  0
    2.8520   13.2070   -0.7070 C   0  0  0  0  0  0  0  0  0  0  0  0
    2.5980   14.6750   -0.6150 C   0  0  0  0  0  0  0  0  0  0  0  0
    1.6700   15.3540   -1.3150 C   0  0  0  0  0  0  0  0  0  0  0  0
    0.8210   14.6530   -2.3830 C   0  0  1  0  0  0  0  0  0  0  0  0
    0.7840   15.5220   -3.6670 C   0  0  0  0  0  0  0  0  0  0  0  0
    0.3190   16.9490   -3.3960 C   0  0  0  0  0  0  0  0  0  0  0  0
    1.2220   17.6320   -2.3720 C   0  0  2  0  0  0  0  0  0  0  0  0
    2.5210   17.8070   -2.9480 O   0  0  0  0  0  0  0  0  0  0  0  0
    1.3440   16.8420   -1.0390 C   0  0  0  0  0  0  0  0  0  0  0  0
    0.0020   16.9120   -0.2690 C   0  0  0  0  0  0  0  0  0  0  0  0
    2.3920   17.5650   -0.1500 C   0  0  0  0  0  0  0  0  0  0  0  0
    1.1950   13.1370   -2.6810 C   0  0  1  0  0  0  0  0  0  0  0  0
    2.3220   13.0690   -3.7570 C   0  0  0  0  0  0  0  0  0  0  0  0
   -0.0570   12.4120   -3.3030 C   0  0  0  0  0  0  0  0  0  0  0  0
   -1.0590   11.7850   -2.3150 C   0  0  0  0  0  0  0  0  0  0  0  0
   -0.3370   10.9220   -1.2760 C   0  0  2  0  0  0  0  0  0  0  0  0
    0.3630    9.7440   -2.0360 C   0  0  0  0  0  0  0  0  0  0  0  0
   -1.0490    7.6987   -1.7873 H   0  0  0  0  0  0  0  0  0  0  0  0
   -2.6043    8.3160   -2.4405 H   0  0  0  0  0  0  0  0  0  0  0  0
   -1.1490    9.3691   -2.4405 H   0  0  0  0  0  0  0  0  0  0  0  0
   -1.8811    8.2958    0.2190 H   0  0  0  0  0  0  0  0  0  0  0  0
   -3.7049   10.1142    0.4817 H   0  0  0  0  0  0  0  0  0  0  0  0
   -3.8289    9.9872   -1.3382 H   0  0  0  0  0  0  0  0  0  0  0  0
   -3.8918    7.3882    0.0257 H   0  0  0  0  0  0  0  0  0  0  0  0
   -5.2563    8.4939    0.4763 H   0  0  0  0  0  0  0  0  0  0  0  0
   -4.2211    7.7066   -2.0504 H   0  0  0  0  0  0  0  0  0  0  0  0
   -6.7386    7.2311    0.4698 H   0  0  0  0  0  0  0  0  0  0  0  0
   -8.2819    7.4845   -0.4138 H   0  0  0  0  0  0  0  0  0  0  0  0
   -7.5023    5.8662   -0.4138 H   0  0  0  0  0  0  0  0  0  0  0  0
   -7.4561    5.6744   -2.6663 H   0  0  0  0  0  0  0  0  0  0  0  0
   -7.6132    7.2561   -3.5030 H   0  0  0  0  0  0  0  0  0  0  0  0
   -6.0381    6.3927   -3.5030 H   0  0  0  0  0  0  0  0  0  0  0  0
   -1.9989   11.0258    0.1388 H   0  0  0  0  0  0  0  0  0  0  0  0
   -0.5712   10.2978    1.9468 H   0  0  0  0  0  0  0  0  0  0  0  0
    0.0614    8.9335    1.0012 H   0  0  0  0  0  0  0  0  0  0  0  0
    1.4510   11.3745    1.5296 H   0  0  0  0  0  0  0  0  0  0  0  0
    1.9311   10.2125    0.2956 H   0  0  0  0  0  0  0  0  0  0  0  0
    0.0369   12.8142    1.4185 H   0  0  0  0  0  0  0  0  0  0  0  0
    0.3922   13.9524    0.0750 H   0  0  0  0  0  0  0  0  0  0  0  0
   -1.1389   13.0130    0.0750 H   0  0  0  0  0  0  0  0  0  0  0  0
    2.2325   11.4691   -1.7526 H   0  0  0  0  0  0  0  0  0  0  0  0
    2.9715   12.8180    0.3150 H   0  0  0  0  0  0  0  0  0  0  0  0
    3.7512   13.0922   -1.3301 H   0  0  0  0  0  0  0  0  0  0  0  0
    3.2221   15.2509    0.0842 H   0  0  0  0  0  0  0  0  0  0  0  0
   -0.1912   14.5688   -1.9607 H   0  0  0  0  0  0  0  0  0  0  0  0
    1.7954   15.5569   -4.0981 H   0  0  0  0  0  0  0  0  0  0  0  0
    0.0635   15.0626   -4.3597 H   0  0  0  0  0  0  0  0  0  0  0  0
    0.3439   17.5203   -4.3357 H   0  0  0  0  0  0  0  0  0  0  0  0
   -0.7043   16.9144   -2.9939 H   0  0  0  0  0  0  0  0  0  0  0  0
    0.7639   18.6003   -2.1217 H   0  0  0  0  0  0  0  0  0  0  0  0
    3.1130   18.1270   -2.2470 H   0  0  0  0  0  0  0  0  0  0  0  0
    0.1992   16.9017    0.8131 H   0  0  0  0  0  0  0  0  0  0  0  0
   -0.5264   17.8389   -0.5366 H   0  0  0  0  0  0  0  0  0  0  0  0
   -0.6199   16.0451   -0.5366 H   0  0  0  0  0  0  0  0  0  0  0  0
    2.1507   17.3986    0.9102 H   0  0  0  0  0  0  0  0  0  0  0  0
    3.3938   17.1650   -0.3652 H   0  0  0  0  0  0  0  0  0  0  0  0
    2.3738   18.6436   -0.3652 H   0  0  0  0  0  0  0  0  0  0  0  0
    3.3011   13.0099   -3.2592 H   0  0  0  0  0  0  0  0  0  0  0  0
    2.1758   12.1780   -4.3853 H   0  0  0  0  0  0  0  0  0  0  0  0
    2.2840   13.9711   -4.3853 H   0  0  0  0  0  0  0  0  0  0  0  0
   -0.6036   13.1513   -3.9069 H   0  0  0  0  0  0  0  0  0  0  0  0
    0.3542   11.5651   -3.8719 H   0  0  0  0  0  0  0  0  0  0  0  0
   -1.6056   12.5879   -1.7987 H   0  0  0  0  0  0  0  0  0  0  0  0
   -1.7549   11.1465   -2.8789 H   0  0  0  0  0  0  0  0  0  0  0  0
    0.7838    9.0359   -1.3069 H   0  0  0  0  0  0  0  0  0  0  0  0
   -0.3738    9.2257   -2.6673 H   0  0  0  0  0  0  0  0  0  0  0  0
    1.1704   10.1434   -2.6673 H   0  0  0  0  0  0  0  0  0  0  0  0
  1  2  1  0  0  0  0
  1 33  1  0  0  0  0
  1 34  1  0  0  0  0
  1 35  1  0  0  0  0
  2  3  1  0  0  0  0
  2 10  1  0  0  0  0
  2 36  1  1  0  0  0
  3  4  1  0  0  0  0
  3 37  1  0  0  0  0
  3 38  1  0  0  0  0
  4  5  1  0  0  0  0
  4 39  1  0  0  0  0
  4 40  1  0  0  0  0
  5  6  1  0  0  0  0
  5 41  1  6  0  0  0
  6  7  1  0  0  0  0
  7  8  1  0  0  0  0
  7  9  1  0  0  0  0
  7  5  1  0  0  0  0
  8 42  1  0  0  0  0
  8 43  1  0  0  0  0
  8 44  1  0  0  0  0
  9 45  1  0  0  0  0
  9 46  1  0  0  0  0
  9 47  1  0  0  0  0
 10 11  1  0  0  0  0
 10 48  1  1  0  0  0
 11 12  1  0  0  0  0
 11 49  1  0  0  0  0
 11 50  1  0  0  0  0
 12 13  1  0  0  0  0
 12 51  1  0  0  0  0
 12 52  1  0  0  0  0
 13 14  1  1  0  0  0
 13 15  1  0  0  0  0
 14 53  1  0  0  0  0
 14 54  1  0  0  0  0
 14 55  1  0  0  0  0
 15 16  1  0  0  0  0
 15 56  1  6  0  0  0
 16 17  1  0  0  0  0
 16 57  1  0  0  0  0
 16 58  1  0  0  0  0
 17 18  2  0  0  0  0
 17 59  1  0  0  0  0
 18 19  1  0  0  0  0
 19 20  1  0  0  0  0
 19 27  1  0  0  0  0
 19 60  1  1  0  0  0
 20 21  1  0  0  0  0
 20 61  1  0  0  0  0
 20 62  1  0  0  0  0
 21 22  1  0  0  0  0
 21 63  1  0  0  0  0
 21 64  1  0  0  0  0
 22 23  1  0  0  0  0
 22 24  1  0  0  0  0
 22 65  1  1  0  0  0
 23 66  1  0  0  0  0
 24 25  1  0  0  0  0
 24 26  1  0  0  0  0
 24 18  1  0  0  0  0
 25 67  1  0  0  0  0
 25 68  1  0  0  0  0
 25 69  1  0  0  0  0
 26 70  1  0  0  0  0
 26 71  1  0  0  0  0
 26 72  1  0  0  0  0
 27 28  1  6  0  0  0
 27 29  1  0  0  0  0
 27 15  1  0  0  0  0
 28 73  1  0  0  0  0
 28 74  1  0  0  0  0
 28 75  1  0  0  0  0
 29 30  1  0  0  0  0
 29 76  1  0  0  0  0
 29 77  1  0  0  0  0
 30 31  1  0  0  0  0
 30 78  1  0  0  0  0
 30 79  1  0  0  0  0
 31 32  1  6  0  0  0
 31 10  1  0  0  0  0
 31 13  1  0  0  0  0
 32 80  1  0  0  0  0
 32 81  1  0  0  0  0
 32 82  1  0  0  0  0
M  END
>  <meeko>
{"is_sidechain": [false], "intermolecular_energy": 2.731, "internal_energy": -0.839}

$$$$
