EPH_relaxed_0001_pdb2pqr_Repair_93_r2_0001_out
 OpenBabel07272616253D

 82 86  0  0  0  0  0  0  0  0999 V2000
   -1.5640    8.5370   -1.7690 C   0  0  0  0  0  0  0  0  0  0  0  0
   -1.9790    9.1260   -0.4180 C   0  0  2  0  0  0  0  0  0  0  0  0
   -3.4690    9.5190   -0.3890 C   0  0  0  0  0  0  0  0  0  0  0  0
   -4.4190    8.3240   -0.2740 C   0  0  0  0  0  0  0  0  0  0  0  0
   -5.0610    7.9980   -1.5890 C   0  0  2  0  0  0  0  0  0  0  0  0
   -6.3240    8.6370   -1.8130 O   0  0  0  0  0  0  0  0  0  0  0  0
   -6.3470    7.2040   -1.7180 C   0  0  0  0  0  0  0  0  0  0  0  0
   -7.0680    6.6850   -0.5140 C   0  0  0  0  0  0  0  0  0  0  0  0
   -6.6370    6.5180   -3.0170 C   0  0  0  0  0  0  0  0  0  0  0  0
   -1.1140   10.3370   -0.0910 C   0  0  1  0  0  0  0  0  0  0  0  0
   -0.0390   10.0310    0.9860 C   0  0  0  0  0  0  0  0  0  0  0  0
    1.2130   10.8690    0.6190 C   0  0  0  0  0  0  0  0  0  0  0  0
    0.7140   11.8690   -0.4490 C   0  0  1  0  0  0  0  0  0  0  0  0
    0.0310   13.0150    0.3620 C   0  0  0  0  0  0  0  0  0  0  0  0
    1.7940   12.4250   -1.4340 C   0  0  2  0  0  0  0  0  0  0  0  0
    2.9180   13.2430   -0.7750 C   0  0  0  0  0  0  0  0  0  0  0  0
    2.6620   14.7110   -0.6730 C   0  0  0  0  0  0  0  0  0  0  0  0
    1.7100   15.3870   -1.3410 C   0  0  0  0  0  0  0  0  0  0  0  0
    0.8290   14.6850   -2.3820 C   0  0  1  0  0  0  0  0  0  0  0  0
    0.7480   15.5560   -3.6640 C   0  0  0  0  0  0  0  0  0  0  0  0
    0.2870   16.9810   -3.3750 C   0  0  0  0  0  0  0  0  0  0  0  0
    1.2200   17.6650   -2.3800 C   0  0  2  0  0  0  0  0  0  0  0  0
    2.4990   17.8460   -2.9960 O   0  0  0  0  0  0  0  0  0  0  0  0
    1.3870   16.8740   -1.0520 C   0  0  0  0  0  0  0  0  0  0  0  0
    0.0710   16.9370   -0.2390 C   0  0  0  0  0  0  0  0  0  0  0  0
    2.4610   17.5990   -0.1960 C   0  0  0  0  0  0  0  0  0  0  0  0
    1.1980   13.1710   -2.6950 C   0  0  1  0  0  0  0  0  0  0  0  0
    2.2900   13.1090   -3.8070 C   0  0  0  0  0  0  0  0  0  0  0  0
   -0.0700   12.4430   -3.2780 C   0  0  0  0  0  0  0  0  0  0  0  0
   -1.0380   11.8110   -2.2590 C   0  0  0  0  0  0  0  0  0  0  0  0
   -0.2800   10.9480   -1.2460 C   0  0  2  0  0  0  0  0  0  0  0  0
    0.4000    9.7740   -2.0300 C   0  0  0  0  0  0  0  0  0  0  0  0
   -0.9376    7.6479   -1.6045 H   0  0  0  0  0  0  0  0  0  0  0  0
   -2.4624    8.2527   -2.3366 H   0  0  0  0  0  0  0  0  0  0  0  0
   -0.9939    9.2873   -2.3366 H   0  0  0  0  0  0  0  0  0  0  0  0
   -1.8289    8.3461    0.3430 H   0  0  0  0  0  0  0  0  0  0  0  0
   -3.6369   10.1803    0.4738 H   0  0  0  0  0  0  0  0  0  0  0  0
   -3.6895   10.0137   -1.3464 H   0  0  0  0  0  0  0  0  0  0  0  0
   -3.8502    7.4483    0.0719 H   0  0  0  0  0  0  0  0  0  0  0  0
   -5.2137    8.5850    0.4404 H   0  0  0  0  0  0  0  0  0  0  0  0
   -4.0773    7.8922   -2.0698 H   0  0  0  0  0  0  0  0  0  0  0  0
   -6.5674    7.0454    0.3968 H   0  0  0  0  0  0  0  0  0  0  0  0
   -8.1080    7.0430   -0.5268 H   0  0  0  0  0  0  0  0  0  0  0  0
   -7.0586    5.5851   -0.5268 H   0  0  0  0  0  0  0  0  0  0  0  0
   -7.0583    5.5213   -2.8192 H   0  0  0  0  0  0  0  0  0  0  0  0
   -7.3601    7.1141   -3.5930 H   0  0  0  0  0  0  0  0  0  0  0  0
   -5.7056    6.4146   -3.5930 H   0  0  0  0  0  0  0  0  0  0  0  0
   -1.8969   11.0430    0.2230 H   0  0  0  0  0  0  0  0  0  0  0  0
   -0.4081   10.3176    1.9818 H   0  0  0  0  0  0  0  0  0  0  0  0
    0.1984    8.9573    1.0132 H   0  0  0  0  0  0  0  0  0  0  0  0
    1.5956   11.4024    1.5017 H   0  0  0  0  0  0  0  0  0  0  0  0
    2.0400   10.2439    0.2510 H   0  0  0  0  0  0  0  0  0  0  0  0
    0.1464   12.8214    1.4387 H   0  0  0  0  0  0  0  0  0  0  0  0
    0.5042   13.9753    0.1094 H   0  0  0  0  0  0  0  0  0  0  0  0
   -1.0388   13.0557    0.1094 H   0  0  0  0  0  0  0  0  0  0  0  0
    2.2718   11.5059   -1.8042 H   0  0  0  0  0  0  0  0  0  0  0  0
    3.0709   12.8530    0.2421 H   0  0  0  0  0  0  0  0  0  0  0  0
    3.7977   13.1316   -1.4259 H   0  0  0  0  0  0  0  0  0  0  0  0
    3.3067   15.2883    0.0060 H   0  0  0  0  0  0  0  0  0  0  0  0
   -0.1685   14.5973   -1.9268 H   0  0  0  0  0  0  0  0  0  0  0  0
    1.7449   15.5951   -4.1273 H   0  0  0  0  0  0  0  0  0  0  0  0
    0.0077   15.0951   -4.3345 H   0  0  0  0  0  0  0  0  0  0  0  0
    0.2793   17.5542   -4.3138 H   0  0  0  0  0  0  0  0  0  0  0  0
   -0.7225   16.9419   -2.9398 H   0  0  0  0  0  0  0  0  0  0  0  0
    0.7666   18.6314   -2.1143 H   0  0  0  0  0  0  0  0  0  0  0  0
    2.8900   16.9650   -3.1260 H   0  0  0  0  0  0  0  0  0  0  0  0
    0.3033   16.9259    0.8361 H   0  0  0  0  0  0  0  0  0  0  0  0
   -0.4697   17.8621   -0.4877 H   0  0  0  0  0  0  0  0  0  0  0  0
   -0.5556   16.0678   -0.4877 H   0  0  0  0  0  0  0  0  0  0  0  0
    2.2408   17.4503    0.8714 H   0  0  0  0  0  0  0  0  0  0  0  0
    3.4540   17.1857   -0.4266 H   0  0  0  0  0  0  0  0  0  0  0  0
    2.4490   18.6745   -0.4266 H   0  0  0  0  0  0  0  0  0  0  0  0
    3.2849   13.0525   -3.3412 H   0  0  0  0  0  0  0  0  0  0  0  0
    2.1267   12.2187   -4.4320 H   0  0  0  0  0  0  0  0  0  0  0  0
    2.2285   14.0121   -4.4320 H   0  0  0  0  0  0  0  0  0  0  0  0
   -0.6380   13.1813   -3.8630 H   0  0  0  0  0  0  0  0  0  0  0  0
    0.3257   11.5985   -3.8613 H   0  0  0  0  0  0  0  0  0  0  0  0
   -1.5698   12.6113   -1.7235 H   0  0  0  0  0  0  0  0  0  0  0  0
   -1.7502   11.1717   -2.8013 H   0  0  0  0  0  0  0  0  0  0  0  0
    0.8192    9.0503   -1.3155 H   0  0  0  0  0  0  0  0  0  0  0  0
   -0.3481    9.2736   -2.6624 H   0  0  0  0  0  0  0  0  0  0  0  0
    1.2063   10.1739   -2.6624 H   0  0  0  0  0  0  0  0  0  0  0  0
  1  2  1  0  0  0  0
  1 33  1  0  0  0  0
  1 34  1  0  0  0  0
  1 35  1  0  0  0  0
  2  3  1  0  0  0  0
  2 10  1  0  0  0  0
  2 36  1  1  0  0  0
  3  4  1  0  0  0  0
  3 37  1  0  0  0  0
  3 38  1  0  0  0  0
  4  5  1  0  0  0  0
  4 39  1  0  0  0  0
  4 40  1  0  0  0  0
  5  6  1  0  0  0  0
  5 41  1  6  0  0  0
  6  7  1  0  0  0  0
  7  8  1  0  0  0  0
  7  9  1  0  0  0  0
  7  5  1  0  0  0  0
  8 42  1  0  0  0  0
  8 43  1  0  0  0  0
  8 44  1  0  0  0  0
  9 45  1  0  0  0  0
  9 46  1  0  0  0  0
  9 47  1  0  0  0  0
 10 11  1  0  0  0  0
 10 48  1  1  0  0  0
 11 12  1  0  0  0  0
 11 49  1  0  0  0  0
 11 50  1  0  0  0  0
 12 13  1  0  0  0  0
 12 51  1  0  0  0  0
 12 52  1  0  0  0  0
 13 14  1  1  0  0  0
 13 15  1  0  0  0  0
 14 53  1  0  0  0  0
 14 54  1  0  0  0  0
 14 55  1  0  0  0  0
 15 16  1  0  0  0  0
 15 56  1  6  0  0  0
 16 17  1  0  0  0  0
 16 57  1  0  0  0  0
 16 58  1  0  0  0  0
 17 18  2  0  0  0  0
 17 59  1  0  0  0  0
 18 19  1  0  0  0  0
 19 20  1  0  0  0  0
 19 27  1  0  0  0  0
 19 60  1  1  0  0  0
 20 21  1  0  0  0  0
 20 61  1  0  0  0  0
 20 62  1  0  0  0  0
 21 22  1  0  0  0  0
 21 63  1  0  0  0  0
 21 64  1  0  0  0  0
 22 23  1  0  0  0  0
 22 24  1  0  0  0  0
 22 65  1  1  0  0  0
 23 66  1  0  0  0  0
 24 25  1  0  0  0  0
 24 26  1  0  0  0  0
 24 18  1  0  0  0  0
 25 67  1  0  0  0  0
 25 68  1  0  0  0  0
 25 69  1  0  0  0  0
 26 70  1  0  0  0  0
 26 71  1  0  0  0  0
 26 72  1  0  0  0  0
 27 28  1  6  0  0  0
 27 29  1  0  0  0  0
 27 15  1  0  0  0  0
 28 73  1  0  0  0  0
 28 74  1  0  0  0  0
 28 75  1  0  0  0  0
 29 30  1  0  0  0  0
 29 76  1  0  0  0  0
 29 77  1  0  0  0  0
 30 31  1  0  0  0  0
 30 78  1  0  0  0  0
 30 79  1  0  0  0  0
 31 32  1  6  0  0  0
 31 10  1  0  0  0  0
 31 13  1  0  0  0  0
 32 80  1  0  0  0  0
 32 81  1  0  0  0  0
 32 82  1  0  0  0  0
M  END
>  <meeko>
{"is_sidechain": [false], "intermolecular_energy": 2.731, "internal_energy": -0.839}

$$$$
