EPH_relaxed_0001_pdb2pqr_Repair_129_r2_0001_out
 OpenBabel07272616253D

 82 86  0  0  0  0  0  0  0  0999 V2000
   -1.5880    8.5790   -1.8090 C   0  0  0  0  0  0  0  0  0  0  0  0
   -1.9920    9.1580   -0.4510 C   0  0  2  0  0  0  0  0  0  0  0  0
   -3.4800    9.5580   -0.4090 C   0  0  0  0  0  0  0  0  0  0  0  0
   -4.4340    8.3680   -0.2810 C   0  0  0  0  0  0  0  0  0  0  0  0
   -5.0690    8.0220   -1.5940 C   0  0  2  0  0  0  0  0  0  0  0  0
   -6.3350    8.6510   -1.8300 O   0  0  0  0  0  0  0  0  0  0  0  0
   -6.3500    7.2190   -1.7180 C   0  0  0  0  0  0  0  0  0  0  0  0
   -7.0730    6.7110   -0.5090 C   0  0  0  0  0  0  0  0  0  0  0  0
   -6.6310    6.5150   -3.0090 C   0  0  0  0  0  0  0  0  0  0  0  0
   -1.1180   10.3620   -0.1180 C   0  0  1  0  0  0  0  0  0  0  0  0
   -0.0380   10.0400    0.9490 C   0  0  0  0  0  0  0  0  0  0  0  0
    1.2160   10.8750    0.5810 C   0  0  0  0  0  0  0  0  0  0  0  0
    0.7140   11.8880   -0.4740 C   0  0  1  0  0  0  0  0  0  0  0  0
    0.0420   13.0290    0.3530 C   0  0  0  0  0  0  0  0  0  0  0  0
    1.7900   12.4480   -1.4610 C   0  0  2  0  0  0  0  0  0  0  0  0
    2.9230   13.2550   -0.8020 C   0  0  0  0  0  0  0  0  0  0  0  0
    2.6750   14.7220   -0.6830 C   0  0  0  0  0  0  0  0  0  0  0  0
    1.7210   15.4100   -1.3390 C   0  0  0  0  0  0  0  0  0  0  0  0
    0.8300   14.7220   -2.3810 C   0  0  1  0  0  0  0  0  0  0  0  0
    0.7450   15.6050   -3.6530 C   0  0  0  0  0  0  0  0  0  0  0  0
    0.2920   17.0300   -3.3470 C   0  0  0  0  0  0  0  0  0  0  0  0
    1.2360   17.7000   -2.3520 C   0  0  2  0  0  0  0  0  0  0  0  0
    2.5110   17.8800   -2.9760 O   0  0  0  0  0  0  0  0  0  0  0  0
    1.4080   16.8950   -1.0340 C   0  0  0  0  0  0  0  0  0  0  0  0
    0.0970   16.9570   -0.2110 C   0  0  0  0  0  0  0  0  0  0  0  0
    2.4910   17.6070   -0.1780 C   0  0  0  0  0  0  0  0  0  0  0  0
    1.1900   13.2090   -2.7110 C   0  0  1  0  0  0  0  0  0  0  0  0
    2.2740   13.1520   -3.8300 C   0  0  0  0  0  0  0  0  0  0  0  0
   -0.0860   12.4930   -3.2920 C   0  0  0  0  0  0  0  0  0  0  0  0
   -1.0500   11.8560   -2.2720 C   0  0  0  0  0  0  0  0  0  0  0  0
   -0.2900   10.9790   -1.2720 C   0  0  2  0  0  0  0  0  0  0  0  0
    0.3790    9.8100   -2.0730 C   0  0  0  0  0  0  0  0  0  0  0  0
   -0.9647    7.6857   -1.6559 H   0  0  0  0  0  0  0  0  0  0  0  0
   -2.4911    8.3037   -2.3735 H   0  0  0  0  0  0  0  0  0  0  0  0
   -1.0179    9.3315   -2.3735 H   0  0  0  0  0  0  0  0  0  0  0  0
   -1.8416    8.3705    0.3021 H   0  0  0  0  0  0  0  0  0  0  0  0
   -3.6366   10.2229    0.4532 H   0  0  0  0  0  0  0  0  0  0  0  0
   -3.7074   10.0506   -1.3659 H   0  0  0  0  0  0  0  0  0  0  0  0
   -3.8699    7.4965    0.0827 H   0  0  0  0  0  0  0  0  0  0  0  0
   -5.2324    8.6432    0.4238 H   0  0  0  0  0  0  0  0  0  0  0  0
   -4.0830    7.9159   -2.0700 H   0  0  0  0  0  0  0  0  0  0  0  0
   -6.5649    7.0680    0.3990 H   0  0  0  0  0  0  0  0  0  0  0  0
   -8.1089    7.0808   -0.5189 H   0  0  0  0  0  0  0  0  0  0  0  0
   -7.0762    5.6110   -0.5189 H   0  0  0  0  0  0  0  0  0  0  0  0
   -7.0314    5.5120   -2.8001 H   0  0  0  0  0  0  0  0  0  0  0  0
   -7.3682    7.0908   -3.5877 H   0  0  0  0  0  0  0  0  0  0  0  0
   -5.6999    6.4249   -3.5877 H   0  0  0  0  0  0  0  0  0  0  0  0
   -1.8946   11.0694    0.2082 H   0  0  0  0  0  0  0  0  0  0  0  0
   -0.3990   10.3193    1.9499 H   0  0  0  0  0  0  0  0  0  0  0  0
    0.1937    8.9648    0.9651 H   0  0  0  0  0  0  0  0  0  0  0  0
    1.6078   11.3979    1.4659 H   0  0  0  0  0  0  0  0  0  0  0  0
    2.0371   10.2494    0.2011 H   0  0  0  0  0  0  0  0  0  0  0  0
    0.1630   12.8236    1.4269 H   0  0  0  0  0  0  0  0  0  0  0  0
    0.5187   13.9895    0.1074 H   0  0  0  0  0  0  0  0  0  0  0  0
   -1.0291   13.0779    0.1074 H   0  0  0  0  0  0  0  0  0  0  0  0
    2.2601   11.5296   -1.8426 H   0  0  0  0  0  0  0  0  0  0  0  0
    3.0819   12.8540    0.2099 H   0  0  0  0  0  0  0  0  0  0  0  0
    3.7970   13.1466   -1.4611 H   0  0  0  0  0  0  0  0  0  0  0  0
    3.3265   15.2892   -0.0019 H   0  0  0  0  0  0  0  0  0  0  0  0
   -0.1650   14.6344   -1.9202 H   0  0  0  0  0  0  0  0  0  0  0  0
    1.7392   15.6441   -4.1222 H   0  0  0  0  0  0  0  0  0  0  0  0
   -0.0015   15.1540   -4.3233 H   0  0  0  0  0  0  0  0  0  0  0  0
    0.2800   17.6123   -4.2802 H   0  0  0  0  0  0  0  0  0  0  0  0
   -0.7146   16.9915   -2.9051 H   0  0  0  0  0  0  0  0  0  0  0  0
    0.7904   18.6663   -2.0733 H   0  0  0  0  0  0  0  0  0  0  0  0
    2.8140   18.7810   -2.7710 H   0  0  0  0  0  0  0  0  0  0  0  0
    0.3371   16.9456    0.8624 H   0  0  0  0  0  0  0  0  0  0  0  0
   -0.4460   17.8818   -0.4555 H   0  0  0  0  0  0  0  0  0  0  0  0
   -0.5309   16.0875   -0.4555 H   0  0  0  0  0  0  0  0  0  0  0  0
    2.2691   17.4611    0.8895 H   0  0  0  0  0  0  0  0  0  0  0  0
    3.4788   17.1816   -0.4086 H   0  0  0  0  0  0  0  0  0  0  0  0
    2.4921   18.6826   -0.4086 H   0  0  0  0  0  0  0  0  0  0  0  0
    3.2723   13.0995   -3.3711 H   0  0  0  0  0  0  0  0  0  0  0  0
    2.1101   12.2612   -4.4542 H   0  0  0  0  0  0  0  0  0  0  0  0
    2.2044   14.0550   -4.4542 H   0  0  0  0  0  0  0  0  0  0  0  0
   -0.6544   13.2398   -3.8658 H   0  0  0  0  0  0  0  0  0  0  0  0
    0.3011   11.6522   -3.8863 H   0  0  0  0  0  0  0  0  0  0  0  0
   -1.5738   12.6539   -1.7252 H   0  0  0  0  0  0  0  0  0  0  0  0
   -1.7689   11.2254   -2.8156 H   0  0  0  0  0  0  0  0  0  0  0  0
    0.7988    9.0764   -1.3690 H   0  0  0  0  0  0  0  0  0  0  0  0
   -0.3756    9.3204   -2.7061 H   0  0  0  0  0  0  0  0  0  0  0  0
    1.1834   10.2126   -2.7061 H   0  0  0  0  0  0  0  0  0  0  0  0
  1  2  1  0  0  0  0
  1 33  1  0  0  0  0
  1 34  1  0  0  0  0
  1 35  1  0  0  0  0
  2  3  1  0  0  0  0
  2 10  1  0  0  0  0
  2 36  1  1  0  0  0
  3  4  1  0  0  0  0
  3 37  1  0  0  0  0
  3 38  1  0  0  0  0
  4  5  1  0  0  0  0
  4 39  1  0  0  0  0
  4 40  1  0  0  0  0
  5  6  1  0  0  0  0
  5 41  1  6  0  0  0
  6  7  1  0  0  0  0
  7  8  1  0  0  0  0
  7  9  1  0  0  0  0
  7  5  1  0  0  0  0
  8 42  1  0  0  0  0
  8 43  1  0  0  0  0
  8 44  1  0  0  0  0
  9 45  1  0  0  0  0
  9 46  1  0  0  0  0
  9 47  1  0  0  0  0
 10 11  1  0  0  0  0
 10 48  1  1  0  0  0
 11 12  1  0  0  0  0
 11 49  1  0  0  0  0
 11 50  1  0  0  0  0
 12 13  1  0  0  0  0
 12 51  1  0  0  0  0
 12 52  1  0  0  0  0
 13 14  1  1  0  0  0
 13 15  1  0  0  0  0
 14 53  1  0  0  0  0
 14 54  1  0  0  0  0
 14 55  1  0  0  0  0
 15 16  1  0  0  0  0
 15 56  1  6  0  0  0
 16 17  1  0  0  0  0
 16 57  1  0  0  0  0
 16 58  1  0  0  0  0
 17 18  2  0  0  0  0
 17 59  1  0  0  0  0
 18 19  1  0  0  0  0
 19 20  1  0  0  0  0
 19 27  1  0  0  0  0
 19 60  1  1  0  0  0
 20 21  1  0  0  0  0
 20 61  1  0  0  0  0
 20 62  1  0  0  0  0
 21 22  1  0  0  0  0
 21 63  1  0  0  0  0
 21 64  1  0  0  0  0
 22 23  1  0  0  0  0
 22 24  1  0  0  0  0
 22 65  1  1  0  0  0
 23 66  1  0  0  0  0
 24 25  1  0  0  0  0
 24 26  1  0  0  0  0
 24 18  1  0  0  0  0
 25 67  1  0  0  0  0
 25 68  1  0  0  0  0
 25 69  1  0  0  0  0
 26 70  1  0  0  0  0
 26 71  1  0  0  0  0
 26 72  1  0  0  0  0
 27 28  1  6  0  0  0
 27 29  1  0  0  0  0
 27 15  1  0  0  0  0
 28 73  1  0  0  0  0
 28 74  1  0  0  0  0
 28 75  1  0  0  0  0
 29 30  1  0  0  0  0
 29 76  1  0  0  0  0
 29 77  1  0  0  0  0
 30 31  1  0  0  0  0
 30 78  1  0  0  0  0
 30 79  1  0  0  0  0
 31 32  1  6  0  0  0
 31 10  1  0  0  0  0
 31 13  1  0  0  0  0
 32 80  1  0  0  0  0
 32 81  1  0  0  0  0
 32 82  1  0  0  0  0
M  END
>  <meeko>
{"is_sidechain": [false], "intermolecular_energy": 2.731, "internal_energy": -0.839}

$$$$
