EPH_relaxed_0001_pdb2pqr_Repair_16_r2_0001_out
 OpenBabel07272616253D

 82 86  0  0  0  0  0  0  0  0999 V2000
   -1.7020    8.5690   -1.8700 C   0  0  0  0  0  0  0  0  0  0  0  0
   -2.0690    9.0940   -0.4790 C   0  0  2  0  0  0  0  0  0  0  0  0
   -3.5600    9.4740   -0.3760 C   0  0  0  0  0  0  0  0  0  0  0  0
   -4.4930    8.2680   -0.2310 C   0  0  0  0  0  0  0  0  0  0  0  0
   -5.1930    7.9510   -1.5180 C   0  0  2  0  0  0  0  0  0  0  0  0
   -6.3390    8.7680   -1.7930 O   0  0  0  0  0  0  0  0  0  0  0  0
   -6.5920    7.3680   -1.5870 C   0  0  0  0  0  0  0  0  0  0  0  0
   -7.3740    7.0670   -0.3480 C   0  0  0  0  0  0  0  0  0  0  0  0
   -7.0030    6.6410   -2.8300 C   0  0  0  0  0  0  0  0  0  0  0  0
   -1.2000   10.2970   -0.1330 C   0  0  1  0  0  0  0  0  0  0  0  0
   -0.1550    9.9820    0.9710 C   0  0  0  0  0  0  0  0  0  0  0  0
    1.1140   10.8060    0.6340 C   0  0  0  0  0  0  0  0  0  0  0  0
    0.6510   11.8110   -0.4470 C   0  0  1  0  0  0  0  0  0  0  0  0
   -0.0400   12.9630    0.3460 C   0  0  0  0  0  0  0  0  0  0  0  0
    1.7610   12.3540   -1.4060 C   0  0  2  0  0  0  0  0  0  0  0  0
    2.8770   13.1620   -0.7210 C   0  0  0  0  0  0  0  0  0  0  0  0
    2.6330   14.6320   -0.6260 C   0  0  0  0  0  0  0  0  0  0  0  0
    1.7040   15.3170   -1.3170 C   0  0  0  0  0  0  0  0  0  0  0  0
    0.8420   14.6230   -2.3800 C   0  0  1  0  0  0  0  0  0  0  0  0
    0.8010   15.4930   -3.6630 C   0  0  0  0  0  0  0  0  0  0  0  0
    0.3470   16.9230   -3.3860 C   0  0  0  0  0  0  0  0  0  0  0  0
    1.2630   17.5990   -2.3690 C   0  0  2  0  0  0  0  0  0  0  0  0
    2.5580   17.7660   -2.9550 O   0  0  0  0  0  0  0  0  0  0  0  0
    1.3900   16.8080   -1.0380 C   0  0  0  0  0  0  0  0  0  0  0  0
    0.0540   16.8850   -0.2570 C   0  0  0  0  0  0  0  0  0  0  0  0
    2.4490   17.5220   -0.1560 C   0  0  0  0  0  0  0  0  0  0  0  0
    1.2030   13.1050   -2.6820 C   0  0  1  0  0  0  0  0  0  0  0  0
    2.3210   13.0310   -3.7660 C   0  0  0  0  0  0  0  0  0  0  0  0
   -0.0580   12.3890   -3.2950 C   0  0  0  0  0  0  0  0  0  0  0  0
   -1.0560   11.7680   -2.2990 C   0  0  0  0  0  0  0  0  0  0  0  0
   -0.3320   10.8980   -1.2670 C   0  0  2  0  0  0  0  0  0  0  0  0
    0.3550    9.7170   -2.0340 C   0  0  0  0  0  0  0  0  0  0  0  0
   -1.0744    7.6712   -1.7693 H   0  0  0  0  0  0  0  0  0  0  0  0
   -2.6201    8.3148   -2.4199 H   0  0  0  0  0  0  0  0  0  0  0  0
   -1.1479    9.3439   -2.4199 H   0  0  0  0  0  0  0  0  0  0  0  0
   -1.8852    8.2825    0.2405 H   0  0  0  0  0  0  0  0  0  0  0  0
   -3.6932   10.1238    0.5015 H   0  0  0  0  0  0  0  0  0  0  0  0
   -3.8294    9.9783   -1.3157 H   0  0  0  0  0  0  0  0  0  0  0  0
   -3.9006    7.3939    0.0773 H   0  0  0  0  0  0  0  0  0  0  0  0
   -5.2556    8.5130    0.5229 H   0  0  0  0  0  0  0  0  0  0  0  0
   -4.2447    7.6509   -1.9878 H   0  0  0  0  0  0  0  0  0  0  0  0
   -6.7640    7.3018    0.5367 H   0  0  0  0  0  0  0  0  0  0  0  0
   -8.2892    7.6771   -0.3348 H   0  0  0  0  0  0  0  0  0  0  0  0
   -7.6439    6.0007   -0.3348 H   0  0  0  0  0  0  0  0  0  0  0  0
   -7.5273    5.7136   -2.5560 H   0  0  0  0  0  0  0  0  0  0  0  0
   -7.6737    7.2797   -3.4235 H   0  0  0  0  0  0  0  0  0  0  0  0
   -6.1100    6.3957   -3.4235 H   0  0  0  0  0  0  0  0  0  0  0  0
   -1.9836   11.0113    0.1599 H   0  0  0  0  0  0  0  0  0  0  0  0
   -0.5457   10.2743    1.9569 H   0  0  0  0  0  0  0  0  0  0  0  0
    0.0706    8.9059    1.0058 H   0  0  0  0  0  0  0  0  0  0  0  0
    1.4809   11.3360    1.5253 H   0  0  0  0  0  0  0  0  0  0  0  0
    1.9430   10.1720    0.2864 H   0  0  0  0  0  0  0  0  0  0  0  0
    0.0688   12.7817    1.4255 H   0  0  0  0  0  0  0  0  0  0  0  0
    0.4322   13.9218    0.0859 H   0  0  0  0  0  0  0  0  0  0  0  0
   -1.1082   12.9978    0.0859 H   0  0  0  0  0  0  0  0  0  0  0  0
    2.2384   11.4295   -1.7628 H   0  0  0  0  0  0  0  0  0  0  0  0
    3.0020   12.7714    0.2997 H   0  0  0  0  0  0  0  0  0  0  0  0
    3.7707   13.0417   -1.3510 H   0  0  0  0  0  0  0  0  0  0  0  0
    3.2668   15.2035    0.0681 H   0  0  0  0  0  0  0  0  0  0  0  0
   -0.1676   14.5460   -1.9501 H   0  0  0  0  0  0  0  0  0  0  0  0
    1.8093   15.5219   -4.1018 H   0  0  0  0  0  0  0  0  0  0  0  0
    0.0728   15.0389   -4.3512 H   0  0  0  0  0  0  0  0  0  0  0  0
    0.3673   17.4954   -4.3251 H   0  0  0  0  0  0  0  0  0  0  0  0
   -0.6730   16.8941   -2.9751 H   0  0  0  0  0  0  0  0  0  0  0  0
    0.8136   18.5702   -2.1145 H   0  0  0  0  0  0  0  0  0  0  0  0
    3.1860   17.9430   -2.2340 H   0  0  0  0  0  0  0  0  0  0  0  0
    0.2597   16.8731    0.8235 H   0  0  0  0  0  0  0  0  0  0  0  0
   -0.4714   17.8149   -0.5200 H   0  0  0  0  0  0  0  0  0  0  0  0
   -0.5748   16.0216   -0.5200 H   0  0  0  0  0  0  0  0  0  0  0  0
    2.2105   17.3612    0.9057 H   0  0  0  0  0  0  0  0  0  0  0  0
    3.4456   17.1107   -0.3743 H   0  0  0  0  0  0  0  0  0  0  0  0
    2.4414   18.6001   -0.3743 H   0  0  0  0  0  0  0  0  0  0  0  0
    3.3035   12.9660   -3.2756 H   0  0  0  0  0  0  0  0  0  0  0  0
    2.1649   12.1412   -4.3936 H   0  0  0  0  0  0  0  0  0  0  0  0
    2.2835   13.9336   -4.3936 H   0  0  0  0  0  0  0  0  0  0  0  0
   -0.6045   13.1323   -3.8941 H   0  0  0  0  0  0  0  0  0  0  0  0
    0.3429   11.5401   -3.8682 H   0  0  0  0  0  0  0  0  0  0  0  0
   -1.5921   12.5743   -1.7771 H   0  0  0  0  0  0  0  0  0  0  0  0
   -1.7611   11.1352   -2.8579 H   0  0  0  0  0  0  0  0  0  0  0  0
    0.7710    9.0018   -1.3092 H   0  0  0  0  0  0  0  0  0  0  0  0
   -0.3882    9.2084   -2.6657 H   0  0  0  0  0  0  0  0  0  0  0  0
    1.1645   10.1116   -2.6657 H   0  0  0  0  0  0  0  0  0  0  0  0
  1  2  1  0  0  0  0
  1 33  1  0  0  0  0
  1 34  1  0  0  0  0
  1 35  1  0  0  0  0
  2  3  1  0  0  0  0
  2 10  1  0  0  0  0
  2 36  1  1  0  0  0
  3  4  1  0  0  0  0
  3 37  1  0  0  0  0
  3 38  1  0  0  0  0
  4  5  1  0  0  0  0
  4 39  1  0  0  0  0
  4 40  1  0  0  0  0
  5  6  1  0  0  0  0
  5 41  1  6  0  0  0
  6  7  1  0  0  0  0
  7  8  1  0  0  0  0
  7  9  1  0  0  0  0
  7  5  1  0  0  0  0
  8 42  1  0  0  0  0
  8 43  1  0  0  0  0
  8 44  1  0  0  0  0
  9 45  1  0  0  0  0
  9 46  1  0  0  0  0
  9 47  1  0  0  0  0
 10 11  1  0  0  0  0
 10 48  1  1  0  0  0
 11 12  1  0  0  0  0
 11 49  1  0  0  0  0
 11 50  1  0  0  0  0
 12 13  1  0  0  0  0
 12 51  1  0  0  0  0
 12 52  1  0  0  0  0
 13 14  1  1  0  0  0
 13 15  1  0  0  0  0
 14 53  1  0  0  0  0
 14 54  1  0  0  0  0
 14 55  1  0  0  0  0
 15 16  1  0  0  0  0
 15 56  1  6  0  0  0
 16 17  1  0  0  0  0
 16 57  1  0  0  0  0
 16 58  1  0  0  0  0
 17 18  2  0  0  0  0
 17 59  1  0  0  0  0
 18 19  1  0  0  0  0
 19 20  1  0  0  0  0
 19 27  1  0  0  0  0
 19 60  1  1  0  0  0
 20 21  1  0  0  0  0
 20 61  1  0  0  0  0
 20 62  1  0  0  0  0
 21 22  1  0  0  0  0
 21 63  1  0  0  0  0
 21 64  1  0  0  0  0
 22 23  1  0  0  0  0
 22 24  1  0  0  0  0
 22 65  1  1  0  0  0
 23 66  1  0  0  0  0
 24 25  1  0  0  0  0
 24 26  1  0  0  0  0
 24 18  1  0  0  0  0
 25 67  1  0  0  0  0
 25 68  1  0  0  0  0
 25 69  1  0  0  0  0
 26 70  1  0  0  0  0
 26 71  1  0  0  0  0
 26 72  1  0  0  0  0
 27 28  1  6  0  0  0
 27 29  1  0  0  0  0
 27 15  1  0  0  0  0
 28 73  1  0  0  0  0
 28 74  1  0  0  0  0
 28 75  1  0  0  0  0
 29 30  1  0  0  0  0
 29 76  1  0  0  0  0
 29 77  1  0  0  0  0
 30 31  1  0  0  0  0
 30 78  1  0  0  0  0
 30 79  1  0  0  0  0
 31 32  1  6  0  0  0
 31 10  1  0  0  0  0
 31 13  1  0  0  0  0
 32 80  1  0  0  0  0
 32 81  1  0  0  0  0
 32 82  1  0  0  0  0
M  END
>  <meeko>
{"is_sidechain": [false], "intermolecular_energy": 2.731, "internal_energy": -0.839}

$$$$
