EPH_relaxed_0001_pdb2pqr_Repair_221_r2_0001_out
 OpenBabel07272616253D

 82 86  0  0  0  0  0  0  0  0999 V2000
   -1.7090    8.5880   -1.8800 C   0  0  0  0  0  0  0  0  0  0  0  0
   -2.0860    9.1070   -0.4900 C   0  0  2  0  0  0  0  0  0  0  0  0
   -3.5810    9.4760   -0.3940 C   0  0  0  0  0  0  0  0  0  0  0  0
   -4.5050    8.2640   -0.2480 C   0  0  0  0  0  0  0  0  0  0  0  0
   -5.2020    7.9410   -1.5350 C   0  0  2  0  0  0  0  0  0  0  0  0
   -6.3540    8.7490   -1.8120 O   0  0  0  0  0  0  0  0  0  0  0  0
   -6.5980    7.3480   -1.6040 C   0  0  0  0  0  0  0  0  0  0  0  0
   -7.3790    7.0440   -0.3640 C   0  0  0  0  0  0  0  0  0  0  0  0
   -7.0030    6.6170   -2.8460 C   0  0  0  0  0  0  0  0  0  0  0  0
   -1.2280   10.3160   -0.1360 C   0  0  1  0  0  0  0  0  0  0  0  0
   -0.1980   10.0090    0.9840 C   0  0  0  0  0  0  0  0  0  0  0  0
    1.0720   10.8380    0.6620 C   0  0  0  0  0  0  0  0  0  0  0  0
    0.6200   11.8360   -0.4300 C   0  0  1  0  0  0  0  0  0  0  0  0
   -0.0870   12.9890    0.3500 C   0  0  0  0  0  0  0  0  0  0  0  0
    1.7410   12.3810   -1.3740 C   0  0  2  0  0  0  0  0  0  0  0  0
    2.8430   13.1970   -0.6760 C   0  0  0  0  0  0  0  0  0  0  0  0
    2.5920   14.6660   -0.5900 C   0  0  0  0  0  0  0  0  0  0  0  0
    1.6690   15.3440   -1.2980 C   0  0  0  0  0  0  0  0  0  0  0  0
    0.8260   14.6420   -2.3690 C   0  0  1  0  0  0  0  0  0  0  0  0
    0.7990   15.5080   -3.6570 C   0  0  0  0  0  0  0  0  0  0  0  0
    0.3350   16.9360   -3.3920 C   0  0  0  0  0  0  0  0  0  0  0  0
    1.2330   17.6200   -2.3650 C   0  0  2  0  0  0  0  0  0  0  0  0
    2.5350   17.7910   -2.9320 O   0  0  0  0  0  0  0  0  0  0  0  0
    1.3440   16.8340   -1.0280 C   0  0  0  0  0  0  0  0  0  0  0  0
   -0.0030   16.9080   -0.2670 C   0  0  0  0  0  0  0  0  0  0  0  0
    2.3880   17.5570   -0.1350 C   0  0  0  0  0  0  0  0  0  0  0  0
    1.1980   13.1250   -2.6610 C   0  0  1  0  0  0  0  0  0  0  0  0
    2.3320   13.0520   -3.7290 C   0  0  0  0  0  0  0  0  0  0  0  0
   -0.0510   12.4010   -3.2890 C   0  0  0  0  0  0  0  0  0  0  0  0
   -1.0600   11.7790   -2.3060 C   0  0  0  0  0  0  0  0  0  0  0  0
   -0.3470   10.9160   -1.2600 C   0  0  2  0  0  0  0  0  0  0  0  0
    0.3560    9.7360   -2.0120 C   0  0  0  0  0  0  0  0  0  0  0  0
   -1.0653    7.7018   -1.7784 H   0  0  0  0  0  0  0  0  0  0  0  0
   -2.6221    8.3168   -2.4302 H   0  0  0  0  0  0  0  0  0  0  0  0
   -1.1687    9.3725   -2.4302 H   0  0  0  0  0  0  0  0  0  0  0  0
   -1.8989    8.2952    0.2283 H   0  0  0  0  0  0  0  0  0  0  0  0
   -3.7225   10.1281    0.4805 H   0  0  0  0  0  0  0  0  0  0  0  0
   -3.8506    9.9746   -1.3367 H   0  0  0  0  0  0  0  0  0  0  0  0
   -3.9065    7.3945    0.0614 H   0  0  0  0  0  0  0  0  0  0  0  0
   -5.2696    8.5041    0.5055 H   0  0  0  0  0  0  0  0  0  0  0  0
   -4.2512    7.6474   -2.0038 H   0  0  0  0  0  0  0  0  0  0  0  0
   -6.7696    7.2812    0.5205 H   0  0  0  0  0  0  0  0  0  0  0  0
   -8.2965    7.6507   -0.3506 H   0  0  0  0  0  0  0  0  0  0  0  0
   -7.6449    5.9767   -0.3506 H   0  0  0  0  0  0  0  0  0  0  0  0
   -7.5192    5.6853   -2.5712 H   0  0  0  0  0  0  0  0  0  0  0  0
   -7.6793    7.2495   -3.4397 H   0  0  0  0  0  0  0  0  0  0  0  0
   -6.1081    6.3790   -3.4397 H   0  0  0  0  0  0  0  0  0  0  0  0
   -2.0182   11.0286    0.1430 H   0  0  0  0  0  0  0  0  0  0  0  0
   -0.6041   10.3027    1.9632 H   0  0  0  0  0  0  0  0  0  0  0  0
    0.0317    8.9341    1.0260 H   0  0  0  0  0  0  0  0  0  0  0  0
    1.4232   11.3737    1.5563 H   0  0  0  0  0  0  0  0  0  0  0  0
    1.9091   10.2066    0.3294 H   0  0  0  0  0  0  0  0  0  0  0  0
    0.0178   12.8181    1.4316 H   0  0  0  0  0  0  0  0  0  0  0  0
    0.3772   13.9501    0.0840 H   0  0  0  0  0  0  0  0  0  0  0  0
   -1.1541   13.0111    0.0840 H   0  0  0  0  0  0  0  0  0  0  0  0
    2.2281   11.4574   -1.7200 H   0  0  0  0  0  0  0  0  0  0  0  0
    2.9547   12.8109    0.3479 H   0  0  0  0  0  0  0  0  0  0  0  0
    3.7460   13.0785   -1.2929 H   0  0  0  0  0  0  0  0  0  0  0  0
    3.2133   15.2431    0.1107 H   0  0  0  0  0  0  0  0  0  0  0  0
   -0.1887   14.5611   -1.9521 H   0  0  0  0  0  0  0  0  0  0  0  0
    1.8132   15.5399   -4.0817 H   0  0  0  0  0  0  0  0  0  0  0  0
    0.0826   15.0481   -4.3535 H   0  0  0  0  0  0  0  0  0  0  0  0
    0.3660   17.5050   -4.3329 H   0  0  0  0  0  0  0  0  0  0  0  0
   -0.6905   16.9039   -2.9953 H   0  0  0  0  0  0  0  0  0  0  0  0
    0.7756   18.5903   -2.1213 H   0  0  0  0  0  0  0  0  0  0  0  0
    2.8930   16.9070   -3.1200 H   0  0  0  0  0  0  0  0  0  0  0  0
    0.1869   16.8976    0.8164 H   0  0  0  0  0  0  0  0  0  0  0  0
   -0.5270   17.8363   -0.5385 H   0  0  0  0  0  0  0  0  0  0  0  0
   -0.6255   16.0427   -0.5385 H   0  0  0  0  0  0  0  0  0  0  0  0
    2.1441   17.3881    0.9243 H   0  0  0  0  0  0  0  0  0  0  0  0
    3.3911   17.1592   -0.3483 H   0  0  0  0  0  0  0  0  0  0  0  0
    2.3685   18.6360   -0.3483 H   0  0  0  0  0  0  0  0  0  0  0  0
    3.3074   12.9892   -3.2244 H   0  0  0  0  0  0  0  0  0  0  0  0
    2.1865   12.1614   -4.3580 H   0  0  0  0  0  0  0  0  0  0  0  0
    2.3019   13.9539   -4.3580 H   0  0  0  0  0  0  0  0  0  0  0  0
   -0.5922   13.1397   -3.8984 H   0  0  0  0  0  0  0  0  0  0  0  0
    0.3621   11.5518   -3.8531 H   0  0  0  0  0  0  0  0  0  0  0  0
   -1.6077   12.5845   -1.7949 H   0  0  0  0  0  0  0  0  0  0  0  0
   -1.7537   11.1408   -2.8730 H   0  0  0  0  0  0  0  0  0  0  0  0
    0.7755    9.0318   -1.2784 H   0  0  0  0  0  0  0  0  0  0  0  0
   -0.3784    9.2139   -2.6429 H   0  0  0  0  0  0  0  0  0  0  0  0
    1.1648   10.1333   -2.6429 H   0  0  0  0  0  0  0  0  0  0  0  0
  1  2  1  0  0  0  0
  1 33  1  0  0  0  0
  1 34  1  0  0  0  0
  1 35  1  0  0  0  0
  2  3  1  0  0  0  0
  2 10  1  0  0  0  0
  2 36  1  1  0  0  0
  3  4  1  0  0  0  0
  3 37  1  0  0  0  0
  3 38  1  0  0  0  0
  4  5  1  0  0  0  0
  4 39  1  0  0  0  0
  4 40  1  0  0  0  0
  5  6  1  0  0  0  0
  5 41  1  6  0  0  0
  6  7  1  0  0  0  0
  7  8  1  0  0  0  0
  7  9  1  0  0  0  0
  7  5  1  0  0  0  0
  8 42  1  0  0  0  0
  8 43  1  0  0  0  0
  8 44  1  0  0  0  0
  9 45  1  0  0  0  0
  9 46  1  0  0  0  0
  9 47  1  0  0  0  0
 10 11  1  0  0  0  0
 10 48  1  1  0  0  0
 11 12  1  0  0  0  0
 11 49  1  0  0  0  0
 11 50  1  0  0  0  0
 12 13  1  0  0  0  0
 12 51  1  0  0  0  0
 12 52  1  0  0  0  0
 13 14  1  1  0  0  0
 13 15  1  0  0  0  0
 14 53  1  0  0  0  0
 14 54  1  0  0  0  0
 14 55  1  0  0  0  0
 15 16  1  0  0  0  0
 15 56  1  6  0  0  0
 16 17  1  0  0  0  0
 16 57  1  0  0  0  0
 16 58  1  0  0  0  0
 17 18  2  0  0  0  0
 17 59  1  0  0  0  0
 18 19  1  0  0  0  0
 19 20  1  0  0  0  0
 19 27  1  0  0  0  0
 19 60  1  1  0  0  0
 20 21  1  0  0  0  0
 20 61  1  0  0  0  0
 20 62  1  0  0  0  0
 21 22  1  0  0  0  0
 21 63  1  0  0  0  0
 21 64  1  0  0  0  0
 22 23  1  0  0  0  0
 22 24  1  0  0  0  0
 22 65  1  1  0  0  0
 23 66  1  0  0  0  0
 24 25  1  0  0  0  0
 24 26  1  0  0  0  0
 24 18  1  0  0  0  0
 25 67  1  0  0  0  0
 25 68  1  0  0  0  0
 25 69  1  0  0  0  0
 26 70  1  0  0  0  0
 26 71  1  0  0  0  0
 26 72  1  0  0  0  0
 27 28  1  6  0  0  0
 27 29  1  0  0  0  0
 27 15  1  0  0  0  0
 28 73  1  0  0  0  0
 28 74  1  0  0  0  0
 28 75  1  0  0  0  0
 29 30  1  0  0  0  0
 29 76  1  0  0  0  0
 29 77  1  0  0  0  0
 30 31  1  0  0  0  0
 30 78  1  0  0  0  0
 30 79  1  0  0  0  0
 31 32  1  6  0  0  0
 31 10  1  0  0  0  0
 31 13  1  0  0  0  0
 32 80  1  0  0  0  0
 32 81  1  0  0  0  0
 32 82  1  0  0  0  0
M  END
>  <meeko>
{"is_sidechain": [false], "intermolecular_energy": 2.731, "internal_energy": -0.839}

$$$$
