EPH_relaxed_0001_pdb2pqr_Repair_124_r2_0001_out
 OpenBabel07272616253D

 82 86  0  0  0  0  0  0  0  0999 V2000
   -1.7250    8.5890   -1.8710 C   0  0  0  0  0  0  0  0  0  0  0  0
   -2.1050    9.1070   -0.4810 C   0  0  2  0  0  0  0  0  0  0  0  0
   -3.6000    9.4720   -0.3860 C   0  0  0  0  0  0  0  0  0  0  0  0
   -4.5190    8.2600   -0.2120 C   0  0  0  0  0  0  0  0  0  0  0  0
   -5.2190    7.9070   -1.4890 C   0  0  2  0  0  0  0  0  0  0  0  0
   -6.3530    8.7270   -1.7970 O   0  0  0  0  0  0  0  0  0  0  0  0
   -6.6250    7.3390   -1.5440 C   0  0  0  0  0  0  0  0  0  0  0  0
   -7.4150    7.0910   -0.2980 C   0  0  0  0  0  0  0  0  0  0  0  0
   -7.0410    6.5740   -2.7620 C   0  0  0  0  0  0  0  0  0  0  0  0
   -1.2500   10.3180   -0.1260 C   0  0  1  0  0  0  0  0  0  0  0  0
   -0.2290   10.0180    1.0030 C   0  0  0  0  0  0  0  0  0  0  0  0
    1.0440   10.8460    0.6880 C   0  0  0  0  0  0  0  0  0  0  0  0
    0.6000   11.8380   -0.4130 C   0  0  1  0  0  0  0  0  0  0  0  0
   -0.1140   12.9940    0.3540 C   0  0  0  0  0  0  0  0  0  0  0  0
    1.7280   12.3780   -1.3510 C   0  0  2  0  0  0  0  0  0  0  0  0
    2.8240   13.1980   -0.6480 C   0  0  0  0  0  0  0  0  0  0  0  0
    2.5720   14.6680   -0.5720 C   0  0  0  0  0  0  0  0  0  0  0  0
    1.6550   15.3420   -1.2910 C   0  0  0  0  0  0  0  0  0  0  0  0
    0.8200   14.6340   -2.3660 C   0  0  1  0  0  0  0  0  0  0  0  0
    0.8050   15.4920   -3.6580 C   0  0  0  0  0  0  0  0  0  0  0  0
    0.3370   16.9220   -3.4050 C   0  0  0  0  0  0  0  0  0  0  0  0
    1.2270   17.6120   -2.3740 C   0  0  2  0  0  0  0  0  0  0  0  0
    2.5340   17.7800   -2.9310 O   0  0  0  0  0  0  0  0  0  0  0  0
    1.3270   16.8330   -1.0320 C   0  0  0  0  0  0  0  0  0  0  0  0
   -0.0260   16.9100   -0.2830 C   0  0  0  0  0  0  0  0  0  0  0  0
    2.3630   17.5610   -0.1340 C   0  0  0  0  0  0  0  0  0  0  0  0
    1.1960   13.1150   -2.6460 C   0  0  1  0  0  0  0  0  0  0  0  0
    2.3390   13.0360   -3.7040 C   0  0  0  0  0  0  0  0  0  0  0  0
   -0.0470   12.3860   -3.2810 C   0  0  0  0  0  0  0  0  0  0  0  0
   -1.0650   11.7690   -2.3020 C   0  0  0  0  0  0  0  0  0  0  0  0
   -0.3600   10.9130   -1.2460 C   0  0  2  0  0  0  0  0  0  0  0  0
    0.3500    9.7290   -1.9860 C   0  0  0  0  0  0  0  0  0  0  0  0
   -1.0772    7.7059   -1.7687 H   0  0  0  0  0  0  0  0  0  0  0  0
   -2.6366    8.3132   -2.4214 H   0  0  0  0  0  0  0  0  0  0  0  0
   -1.1882    9.3757   -2.4214 H   0  0  0  0  0  0  0  0  0  0  0  0
   -1.9169    8.2954    0.2373 H   0  0  0  0  0  0  0  0  0  0  0  0
   -3.7402   10.1408    0.4760 H   0  0  0  0  0  0  0  0  0  0  0  0
   -3.8754    9.9506   -1.3374 H   0  0  0  0  0  0  0  0  0  0  0  0
   -3.9162    7.3994    0.1137 H   0  0  0  0  0  0  0  0  0  0  0  0
   -5.2822    8.5135    0.5385 H   0  0  0  0  0  0  0  0  0  0  0  0
   -4.2726    7.5790   -1.9437 H   0  0  0  0  0  0  0  0  0  0  0  0
   -6.7845    7.2889    0.5814 H   0  0  0  0  0  0  0  0  0  0  0  0
   -8.2897    7.7578   -0.2796 H   0  0  0  0  0  0  0  0  0  0  0  0
   -7.7517    6.0439   -0.2796 H   0  0  0  0  0  0  0  0  0  0  0  0
   -7.5459    5.6455   -2.4571 H   0  0  0  0  0  0  0  0  0  0  0  0
   -7.7304    7.1863   -3.3619 H   0  0  0  0  0  0  0  0  0  0  0  0
   -6.1523    6.3282   -3.3619 H   0  0  0  0  0  0  0  0  0  0  0  0
   -2.0431   11.0310    0.1433 H   0  0  0  0  0  0  0  0  0  0  0  0
   -0.6433   10.3164    1.9773 H   0  0  0  0  0  0  0  0  0  0  0  0
    0.0012    8.9435    1.0515 H   0  0  0  0  0  0  0  0  0  0  0  0
    1.3872   11.3864    1.5825 H   0  0  0  0  0  0  0  0  0  0  0  0
    1.8846   10.2137    0.3662 H   0  0  0  0  0  0  0  0  0  0  0  0
   -0.0139   12.8319    1.4374 H   0  0  0  0  0  0  0  0  0  0  0  0
    0.3484   13.9545    0.0827 H   0  0  0  0  0  0  0  0  0  0  0  0
   -1.1799   13.0106    0.0827 H   0  0  0  0  0  0  0  0  0  0  0  0
    2.2175   11.4526   -1.6887 H   0  0  0  0  0  0  0  0  0  0  0  0
    2.9271   12.8174    0.3789 H   0  0  0  0  0  0  0  0  0  0  0  0
    3.7322   13.0763   -1.2566 H   0  0  0  0  0  0  0  0  0  0  0  0
    3.1875   15.2489    0.1306 H   0  0  0  0  0  0  0  0  0  0  0  0
   -0.1987   14.5559   -1.9584 H   0  0  0  0  0  0  0  0  0  0  0  0
    1.8233   15.5224   -4.0730 H   0  0  0  0  0  0  0  0  0  0  0  0
    0.0959   15.0276   -4.3591 H   0  0  0  0  0  0  0  0  0  0  0  0
    0.3753   17.4858   -4.3488 H   0  0  0  0  0  0  0  0  0  0  0  0
   -0.6919   16.8917   -3.0171 H   0  0  0  0  0  0  0  0  0  0  0  0
    0.7677   18.5836   -2.1396 H   0  0  0  0  0  0  0  0  0  0  0  0
    3.1780   17.4870   -2.2650 H   0  0  0  0  0  0  0  0  0  0  0  0
    0.1545   16.8997    0.8020 H   0  0  0  0  0  0  0  0  0  0  0  0
   -0.5458   17.8392   -0.5595 H   0  0  0  0  0  0  0  0  0  0  0  0
   -0.6479   16.0458   -0.5595 H   0  0  0  0  0  0  0  0  0  0  0  0
    2.1168   17.3880    0.9241 H   0  0  0  0  0  0  0  0  0  0  0  0
    3.3695   17.1706   -0.3449 H   0  0  0  0  0  0  0  0  0  0  0  0
    2.3368   18.6403   -0.3449 H   0  0  0  0  0  0  0  0  0  0  0  0
    3.3096   12.9689   -3.1908 H   0  0  0  0  0  0  0  0  0  0  0  0
    2.1949   12.1457   -4.3337 H   0  0  0  0  0  0  0  0  0  0  0  0
    2.3187   13.9377   -4.3337 H   0  0  0  0  0  0  0  0  0  0  0  0
   -0.5833   13.1204   -3.8998 H   0  0  0  0  0  0  0  0  0  0  0  0
    0.3716   11.5337   -3.8363 H   0  0  0  0  0  0  0  0  0  0  0  0
   -1.6171   12.5773   -1.8001 H   0  0  0  0  0  0  0  0  0  0  0  0
   -1.7543   11.1275   -2.8707 H   0  0  0  0  0  0  0  0  0  0  0  0
    0.7682    9.0317   -1.2452 H   0  0  0  0  0  0  0  0  0  0  0  0
   -0.3801    9.2000   -2.6163 H   0  0  0  0  0  0  0  0  0  0  0  0
    1.1605   10.1238   -2.6163 H   0  0  0  0  0  0  0  0  0  0  0  0
  1  2  1  0  0  0  0
  1 33  1  0  0  0  0
  1 34  1  0  0  0  0
  1 35  1  0  0  0  0
  2  3  1  0  0  0  0
  2 10  1  0  0  0  0
  2 36  1  1  0  0  0
  3  4  1  0  0  0  0
  3 37  1  0  0  0  0
  3 38  1  0  0  0  0
  4  5  1  0  0  0  0
  4 39  1  0  0  0  0
  4 40  1  0  0  0  0
  5  6  1  0  0  0  0
  5 41  1  6  0  0  0
  6  7  1  0  0  0  0
  7  8  1  0  0  0  0
  7  9  1  0  0  0  0
  7  5  1  0  0  0  0
  8 42  1  0  0  0  0
  8 43  1  0  0  0  0
  8 44  1  0  0  0  0
  9 45  1  0  0  0  0
  9 46  1  0  0  0  0
  9 47  1  0  0  0  0
 10 11  1  0  0  0  0
 10 48  1  1  0  0  0
 11 12  1  0  0  0  0
 11 49  1  0  0  0  0
 11 50  1  0  0  0  0
 12 13  1  0  0  0  0
 12 51  1  0  0  0  0
 12 52  1  0  0  0  0
 13 14  1  1  0  0  0
 13 15  1  0  0  0  0
 14 53  1  0  0  0  0
 14 54  1  0  0  0  0
 14 55  1  0  0  0  0
 15 16  1  0  0  0  0
 15 56  1  6  0  0  0
 16 17  1  0  0  0  0
 16 57  1  0  0  0  0
 16 58  1  0  0  0  0
 17 18  2  0  0  0  0
 17 59  1  0  0  0  0
 18 19  1  0  0  0  0
 19 20  1  0  0  0  0
 19 27  1  0  0  0  0
 19 60  1  1  0  0  0
 20 21  1  0  0  0  0
 20 61  1  0  0  0  0
 20 62  1  0  0  0  0
 21 22  1  0  0  0  0
 21 63  1  0  0  0  0
 21 64  1  0  0  0  0
 22 23  1  0  0  0  0
 22 24  1  0  0  0  0
 22 65  1  1  0  0  0
 23 66  1  0  0  0  0
 24 25  1  0  0  0  0
 24 26  1  0  0  0  0
 24 18  1  0  0  0  0
 25 67  1  0  0  0  0
 25 68  1  0  0  0  0
 25 69  1  0  0  0  0
 26 70  1  0  0  0  0
 26 71  1  0  0  0  0
 26 72  1  0  0  0  0
 27 28  1  6  0  0  0
 27 29  1  0  0  0  0
 27 15  1  0  0  0  0
 28 73  1  0  0  0  0
 28 74  1  0  0  0  0
 28 75  1  0  0  0  0
 29 30  1  0  0  0  0
 29 76  1  0  0  0  0
 29 77  1  0  0  0  0
 30 31  1  0  0  0  0
 30 78  1  0  0  0  0
 30 79  1  0  0  0  0
 31 32  1  6  0  0  0
 31 10  1  0  0  0  0
 31 13  1  0  0  0  0
 32 80  1  0  0  0  0
 32 81  1  0  0  0  0
 32 82  1  0  0  0  0
M  END
>  <meeko>
{"is_sidechain": [false], "intermolecular_energy": 2.731, "internal_energy": -0.839}

$$$$
