EPH_relaxed_0001_pdb2pqr_Repair_288_r2_0001_out
 OpenBabel07272616253D

 82 86  0  0  0  0  0  0  0  0999 V2000
   -1.5690    8.5200   -1.7720 C   0  0  0  0  0  0  0  0  0  0  0  0
   -1.9740    9.1300   -0.4270 C   0  0  2  0  0  0  0  0  0  0  0  0
   -3.4610    9.5340   -0.3980 C   0  0  0  0  0  0  0  0  0  0  0  0
   -4.4190    8.3470   -0.2630 C   0  0  0  0  0  0  0  0  0  0  0  0
   -5.0720    8.0110   -1.5690 C   0  0  2  0  0  0  0  0  0  0  0  0
   -6.3270    8.6660   -1.7980 O   0  0  0  0  0  0  0  0  0  0  0  0
   -6.3720    7.2350   -1.6790 C   0  0  0  0  0  0  0  0  0  0  0  0
   -7.0950    6.7470   -0.4630 C   0  0  0  0  0  0  0  0  0  0  0  0
   -6.6790    6.5330   -2.9660 C   0  0  0  0  0  0  0  0  0  0  0  0
   -1.0990   10.3400   -0.1210 C   0  0  1  0  0  0  0  0  0  0  0  0
   -0.0100   10.0360    0.9420 C   0  0  0  0  0  0  0  0  0  0  0  0
    1.2400   10.8650    0.5520 C   0  0  0  0  0  0  0  0  0  0  0  0
    0.7300   11.8620   -0.5150 C   0  0  1  0  0  0  0  0  0  0  0  0
    0.0630   13.0150    0.2990 C   0  0  0  0  0  0  0  0  0  0  0  0
    1.7970   12.4060   -1.5190 C   0  0  2  0  0  0  0  0  0  0  0  0
    2.9350   13.2240   -0.8820 C   0  0  0  0  0  0  0  0  0  0  0  0
    2.6860   14.6930   -0.7850 C   0  0  0  0  0  0  0  0  0  0  0  0
    1.7270   15.3690   -1.4430 C   0  0  0  0  0  0  0  0  0  0  0  0
    0.8280   14.6650   -2.4680 C   0  0  1  0  0  0  0  0  0  0  0  0
    0.7320   15.5280   -3.7530 C   0  0  0  0  0  0  0  0  0  0  0  0
    0.2810   16.9570   -3.4660 C   0  0  0  0  0  0  0  0  0  0  0  0
    1.2320   17.6430   -2.4890 C   0  0  2  0  0  0  0  0  0  0  0  0
    2.5020   17.8150   -3.1250 O   0  0  0  0  0  0  0  0  0  0  0  0
    1.4150   16.8590   -1.1590 C   0  0  0  0  0  0  0  0  0  0  0  0
    0.1110   16.9330   -0.3270 C   0  0  0  0  0  0  0  0  0  0  0  0
    2.5040   17.5850   -0.3240 C   0  0  0  0  0  0  0  0  0  0  0  0
    1.1860   13.1480   -2.7770 C   0  0  1  0  0  0  0  0  0  0  0  0
    2.2610   13.0740   -3.9030 C   0  0  0  0  0  0  0  0  0  0  0  0
   -0.0940   12.4210   -3.3360 C   0  0  0  0  0  0  0  0  0  0  0  0
   -1.0490   11.8000   -2.2990 C   0  0  0  0  0  0  0  0  0  0  0  0
   -0.2800   10.9400   -1.2910 C   0  0  2  0  0  0  0  0  0  0  0  0
    0.3830    9.7580   -2.0790 C   0  0  0  0  0  0  0  0  0  0  0  0
   -0.9682    7.6151   -1.5982 H   0  0  0  0  0  0  0  0  0  0  0  0
   -2.4722    8.2566   -2.3420 H   0  0  0  0  0  0  0  0  0  0  0  0
   -0.9757    9.2502   -2.3420 H   0  0  0  0  0  0  0  0  0  0  0  0
   -1.8261    8.3599    0.3444 H   0  0  0  0  0  0  0  0  0  0  0  0
   -3.6210   10.2083    0.4562 H   0  0  0  0  0  0  0  0  0  0  0  0
   -3.6816   10.0171   -1.3613 H   0  0  0  0  0  0  0  0  0  0  0  0
   -3.8541    7.4712    0.0889 H   0  0  0  0  0  0  0  0  0  0  0  0
   -5.2068    8.6218    0.4538 H   0  0  0  0  0  0  0  0  0  0  0  0
   -4.0923    7.8826   -2.0525 H   0  0  0  0  0  0  0  0  0  0  0  0
   -6.5737    7.0989    0.4394 H   0  0  0  0  0  0  0  0  0  0  0  0
   -8.1239    7.1361   -0.4673 H   0  0  0  0  0  0  0  0  0  0  0  0
   -7.1189    5.6473   -0.4673 H   0  0  0  0  0  0  0  0  0  0  0  0
   -7.1112    5.5447   -2.7505 H   0  0  0  0  0  0  0  0  0  0  0  0
   -7.3985    7.1293   -3.5463 H   0  0  0  0  0  0  0  0  0  0  0  0
   -5.7527    6.4095   -3.5463 H   0  0  0  0  0  0  0  0  0  0  0  0
   -1.8743   11.0516    0.1992 H   0  0  0  0  0  0  0  0  0  0  0  0
   -0.3633   10.3308    1.9411 H   0  0  0  0  0  0  0  0  0  0  0  0
    0.2228    8.9613    0.9725 H   0  0  0  0  0  0  0  0  0  0  0  0
    1.6382   11.4015    1.4258 H   0  0  0  0  0  0  0  0  0  0  0  0
    2.0583   10.2336    0.1755 H   0  0  0  0  0  0  0  0  0  0  0  0
    0.1771   12.8177    1.3751 H   0  0  0  0  0  0  0  0  0  0  0  0
    0.5484   13.9696    0.0477 H   0  0  0  0  0  0  0  0  0  0  0  0
   -1.0065   13.0701    0.0477 H   0  0  0  0  0  0  0  0  0  0  0  0
    2.2641   11.4817   -1.8899 H   0  0  0  0  0  0  0  0  0  0  0  0
    3.1022   12.8395    0.1349 H   0  0  0  0  0  0  0  0  0  0  0  0
    3.8042   13.1053   -1.5457 H   0  0  0  0  0  0  0  0  0  0  0  0
    3.3426   15.2717   -0.1188 H   0  0  0  0  0  0  0  0  0  0  0  0
   -0.1634   14.5848   -1.9983 H   0  0  0  0  0  0  0  0  0  0  0  0
    1.7222   15.5601   -4.2309 H   0  0  0  0  0  0  0  0  0  0  0  0
   -0.0199   15.0662   -4.4098 H   0  0  0  0  0  0  0  0  0  0  0  0
    0.2616   17.5245   -4.4081 H   0  0  0  0  0  0  0  0  0  0  0  0
   -0.7221   16.9250   -3.0158 H   0  0  0  0  0  0  0  0  0  0  0  0
    0.7871   18.6130   -2.2223 H   0  0  0  0  0  0  0  0  0  0  0  0
    2.5760   17.1400   -3.8210 H   0  0  0  0  0  0  0  0  0  0  0  0
    0.3585   16.9190    0.7447 H   0  0  0  0  0  0  0  0  0  0  0  0
   -0.4250   17.8630   -0.5674 H   0  0  0  0  0  0  0  0  0  0  0  0
   -0.5268   16.0696   -0.5674 H   0  0  0  0  0  0  0  0  0  0  0  0
    2.2971   17.4471    0.7475 H   0  0  0  0  0  0  0  0  0  0  0  0
    3.4915   17.1639   -0.5639 H   0  0  0  0  0  0  0  0  0  0  0  0
    2.4951   18.6585   -0.5639 H   0  0  0  0  0  0  0  0  0  0  0  0
    3.2614   13.0051   -3.4509 H   0  0  0  0  0  0  0  0  0  0  0  0
    2.0785   12.1863   -4.5264 H   0  0  0  0  0  0  0  0  0  0  0  0
    2.2018   13.9783   -4.5264 H   0  0  0  0  0  0  0  0  0  0  0  0
   -0.6678   13.1577   -3.9175 H   0  0  0  0  0  0  0  0  0  0  0  0
    0.2896   11.5709   -3.9192 H   0  0  0  0  0  0  0  0  0  0  0  0
   -1.5694   12.6061   -1.7611 H   0  0  0  0  0  0  0  0  0  0  0  0
   -1.7715   11.1601   -2.8267 H   0  0  0  0  0  0  0  0  0  0  0  0
    0.7931    9.0269   -1.3667 H   0  0  0  0  0  0  0  0  0  0  0  0
   -0.3728    9.2695   -2.7116 H   0  0  0  0  0  0  0  0  0  0  0  0
    1.1939   10.1483   -2.7116 H   0  0  0  0  0  0  0  0  0  0  0  0
  1  2  1  0  0  0  0
  1 33  1  0  0  0  0
  1 34  1  0  0  0  0
  1 35  1  0  0  0  0
  2  3  1  0  0  0  0
  2 10  1  0  0  0  0
  2 36  1  1  0  0  0
  3  4  1  0  0  0  0
  3 37  1  0  0  0  0
  3 38  1  0  0  0  0
  4  5  1  0  0  0  0
  4 39  1  0  0  0  0
  4 40  1  0  0  0  0
  5  6  1  0  0  0  0
  5 41  1  6  0  0  0
  6  7  1  0  0  0  0
  7  8  1  0  0  0  0
  7  9  1  0  0  0  0
  7  5  1  0  0  0  0
  8 42  1  0  0  0  0
  8 43  1  0  0  0  0
  8 44  1  0  0  0  0
  9 45  1  0  0  0  0
  9 46  1  0  0  0  0
  9 47  1  0  0  0  0
 10 11  1  0  0  0  0
 10 48  1  1  0  0  0
 11 12  1  0  0  0  0
 11 49  1  0  0  0  0
 11 50  1  0  0  0  0
 12 13  1  0  0  0  0
 12 51  1  0  0  0  0
 12 52  1  0  0  0  0
 13 14  1  1  0  0  0
 13 15  1  0  0  0  0
 14 53  1  0  0  0  0
 14 54  1  0  0  0  0
 14 55  1  0  0  0  0
 15 16  1  0  0  0  0
 15 56  1  6  0  0  0
 16 17  1  0  0  0  0
 16 57  1  0  0  0  0
 16 58  1  0  0  0  0
 17 18  2  0  0  0  0
 17 59  1  0  0  0  0
 18 19  1  0  0  0  0
 19 20  1  0  0  0  0
 19 27  1  0  0  0  0
 19 60  1  1  0  0  0
 20 21  1  0  0  0  0
 20 61  1  0  0  0  0
 20 62  1  0  0  0  0
 21 22  1  0  0  0  0
 21 63  1  0  0  0  0
 21 64  1  0  0  0  0
 22 23  1  0  0  0  0
 22 24  1  0  0  0  0
 22 65  1  1  0  0  0
 23 66  1  0  0  0  0
 24 25  1  0  0  0  0
 24 26  1  0  0  0  0
 24 18  1  0  0  0  0
 25 67  1  0  0  0  0
 25 68  1  0  0  0  0
 25 69  1  0  0  0  0
 26 70  1  0  0  0  0
 26 71  1  0  0  0  0
 26 72  1  0  0  0  0
 27 28  1  6  0  0  0
 27 29  1  0  0  0  0
 27 15  1  0  0  0  0
 28 73  1  0  0  0  0
 28 74  1  0  0  0  0
 28 75  1  0  0  0  0
 29 30  1  0  0  0  0
 29 76  1  0  0  0  0
 29 77  1  0  0  0  0
 30 31  1  0  0  0  0
 30 78  1  0  0  0  0
 30 79  1  0  0  0  0
 31 32  1  6  0  0  0
 31 10  1  0  0  0  0
 31 13  1  0  0  0  0
 32 80  1  0  0  0  0
 32 81  1  0  0  0  0
 32 82  1  0  0  0  0
M  END
>  <meeko>
{"is_sidechain": [false], "intermolecular_energy": 2.731, "internal_energy": -0.839}

$$$$
