EPH_relaxed_0001_pdb2pqr_Repair_295_r2_0001_out
 OpenBabel07272616253D

 82 86  0  0  0  0  0  0  0  0999 V2000
   -1.5790    8.5620   -1.7790 C   0  0  0  0  0  0  0  0  0  0  0  0
   -1.9790    9.1570   -0.4260 C   0  0  2  0  0  0  0  0  0  0  0  0
   -3.4760    9.5230   -0.3720 C   0  0  0  0  0  0  0  0  0  0  0  0
   -4.4030    8.3100   -0.2700 C   0  0  0  0  0  0  0  0  0  0  0  0
   -5.0810    8.0190   -1.5740 C   0  0  2  0  0  0  0  0  0  0  0  0
   -6.3620    8.6420   -1.7350 O   0  0  0  0  0  0  0  0  0  0  0  0
   -6.3580    7.2060   -1.6910 C   0  0  0  0  0  0  0  0  0  0  0  0
   -7.0300    6.6330   -0.4830 C   0  0  0  0  0  0  0  0  0  0  0  0
   -6.6780    6.5610   -3.0030 C   0  0  0  0  0  0  0  0  0  0  0  0
   -1.1300   10.3880   -0.1290 C   0  0  1  0  0  0  0  0  0  0  0  0
   -0.0740   10.1320    0.9790 C   0  0  0  0  0  0  0  0  0  0  0  0
    1.1780   10.9670    0.6050 C   0  0  0  0  0  0  0  0  0  0  0  0
    0.6910   11.9220   -0.5100 C   0  0  1  0  0  0  0  0  0  0  0  0
   -0.0180   13.0910    0.2450 C   0  0  0  0  0  0  0  0  0  0  0  0
    1.7850   12.4500   -1.4940 C   0  0  2  0  0  0  0  0  0  0  0  0
    2.8890   13.3030   -0.8460 C   0  0  0  0  0  0  0  0  0  0  0  0
    2.6190   14.7710   -0.8030 C   0  0  0  0  0  0  0  0  0  0  0  0
    1.6740   15.4130   -1.5140 C   0  0  0  0  0  0  0  0  0  0  0  0
    0.8190   14.6650   -2.5450 C   0  0  1  0  0  0  0  0  0  0  0  0
    0.7560   15.4860   -3.8590 C   0  0  0  0  0  0  0  0  0  0  0  0
    0.2770   16.9170   -3.6330 C   0  0  0  0  0  0  0  0  0  0  0  0
    1.1850   17.6460   -2.6460 C   0  0  2  0  0  0  0  0  0  0  0  0
    2.4740   17.8150   -3.2450 O   0  0  0  0  0  0  0  0  0  0  0  0
    1.3340   16.9070   -1.2870 C   0  0  0  0  0  0  0  0  0  0  0  0
    0.0010   16.9880   -0.5020 C   0  0  0  0  0  0  0  0  0  0  0  0
    2.3840   17.6730   -0.4390 C   0  0  0  0  0  0  0  0  0  0  0  0
    1.2070   13.1440   -2.7940 C   0  0  1  0  0  0  0  0  0  0  0  0
    2.3210   13.0500   -3.8810 C   0  0  0  0  0  0  0  0  0  0  0  0
   -0.0440   12.3820   -3.3720 C   0  0  0  0  0  0  0  0  0  0  0  0
   -1.0260   11.7800   -2.3490 C   0  0  0  0  0  0  0  0  0  0  0  0
   -0.2800   10.9630   -1.2900 C   0  0  2  0  0  0  0  0  0  0  0  0
    0.4240    9.7670   -2.0160 C   0  0  0  0  0  0  0  0  0  0  0  0
   -0.9720    7.6590   -1.6174 H   0  0  0  0  0  0  0  0  0  0  0  0
   -2.4842    8.2987   -2.3458 H   0  0  0  0  0  0  0  0  0  0  0  0
   -0.9935    9.3009   -2.3458 H   0  0  0  0  0  0  0  0  0  0  0  0
   -1.8001    8.3881    0.3400 H   0  0  0  0  0  0  0  0  0  0  0  0
   -3.6452   10.1641    0.5057 H   0  0  0  0  0  0  0  0  0  0  0  0
   -3.7164   10.0325   -1.3168 H   0  0  0  0  0  0  0  0  0  0  0  0
   -3.8102    7.4324    0.0271 H   0  0  0  0  0  0  0  0  0  0  0  0
   -5.1787    8.5333    0.4773 H   0  0  0  0  0  0  0  0  0  0  0  0
   -4.1115    7.9484   -2.0889 H   0  0  0  0  0  0  0  0  0  0  0  0
   -6.5576    7.0358    0.4251 H   0  0  0  0  0  0  0  0  0  0  0  0
   -8.0959    6.9044   -0.4930 H   0  0  0  0  0  0  0  0  0  0  0  0
   -6.9305    5.5376   -0.4930 H   0  0  0  0  0  0  0  0  0  0  0  0
   -7.1605    5.5885   -2.8255 H   0  0  0  0  0  0  0  0  0  0  0  0
   -7.3589    7.2094   -3.5739 H   0  0  0  0  0  0  0  0  0  0  0  0
   -5.7498    6.4110   -3.5739 H   0  0  0  0  0  0  0  0  0  0  0  0
   -1.9244   11.0987    0.1429 H   0  0  0  0  0  0  0  0  0  0  0  0
   -0.4649   10.4522    1.9561 H   0  0  0  0  0  0  0  0  0  0  0  0
    0.1717    9.0622    1.0510 H   0  0  0  0  0  0  0  0  0  0  0  0
    1.5387   11.5367    1.4741 H   0  0  0  0  0  0  0  0  0  0  0  0
    2.0174   10.3363    0.2770 H   0  0  0  0  0  0  0  0  0  0  0  0
    0.0755   12.9368    1.3301 H   0  0  0  0  0  0  0  0  0  0  0  0
    0.4535   14.0455   -0.0317 H   0  0  0  0  0  0  0  0  0  0  0  0
   -1.0824   13.1140   -0.0317 H   0  0  0  0  0  0  0  0  0  0  0  0
    2.2771   11.5215   -1.8191 H   0  0  0  0  0  0  0  0  0  0  0  0
    3.0267   12.9524    0.1875 H   0  0  0  0  0  0  0  0  0  0  0  0
    3.7810   13.1763   -1.4771 H   0  0  0  0  0  0  0  0  0  0  0  0
    3.2455   15.3789   -0.1336 H   0  0  0  0  0  0  0  0  0  0  0  0
   -0.1866   14.5857   -2.1062 H   0  0  0  0  0  0  0  0  0  0  0  0
    1.7615   15.5170   -4.3039 H   0  0  0  0  0  0  0  0  0  0  0  0
    0.0330   14.9935   -4.5258 H   0  0  0  0  0  0  0  0  0  0  0  0
    0.2831   17.4546   -4.5927 H   0  0  0  0  0  0  0  0  0  0  0  0
   -0.7407   16.8853   -3.2168 H   0  0  0  0  0  0  0  0  0  0  0  0
    0.7181   18.6170   -2.4244 H   0  0  0  0  0  0  0  0  0  0  0  0
    3.1350   17.4630   -2.6260 H   0  0  0  0  0  0  0  0  0  0  0  0
    0.2101   16.9753    0.5779 H   0  0  0  0  0  0  0  0  0  0  0  0
   -0.5223   17.9196   -0.7632 H   0  0  0  0  0  0  0  0  0  0  0  0
   -0.6313   16.1266   -0.7632 H   0  0  0  0  0  0  0  0  0  0  0  0
    2.1743   17.5200    0.6299 H   0  0  0  0  0  0  0  0  0  0  0  0
    3.3903   17.2954   -0.6729 H   0  0  0  0  0  0  0  0  0  0  0  0
    2.3317   18.7466   -0.6729 H   0  0  0  0  0  0  0  0  0  0  0  0
    3.3034   12.9671   -3.3930 H   0  0  0  0  0  0  0  0  0  0  0  0
    2.1472   12.1633   -4.5084 H   0  0  0  0  0  0  0  0  0  0  0  0
    2.2983   13.9533   -4.5084 H   0  0  0  0  0  0  0  0  0  0  0  0
   -0.6071   13.0922   -3.9954 H   0  0  0  0  0  0  0  0  0  0  0  0
    0.3705   11.5194   -3.9143 H   0  0  0  0  0  0  0  0  0  0  0  0
   -1.5750   12.5948   -1.8544 H   0  0  0  0  0  0  0  0  0  0  0  0
   -1.7222   11.1143   -2.8801 H   0  0  0  0  0  0  0  0  0  0  0  0
    0.8327    9.0727   -1.2670 H   0  0  0  0  0  0  0  0  0  0  0  0
   -0.3071    9.2385   -2.6454 H   0  0  0  0  0  0  0  0  0  0  0  0
    1.2409   10.1498   -2.6454 H   0  0  0  0  0  0  0  0  0  0  0  0
  1  2  1  0  0  0  0
  1 33  1  0  0  0  0
  1 34  1  0  0  0  0
  1 35  1  0  0  0  0
  2  3  1  0  0  0  0
  2 10  1  0  0  0  0
  2 36  1  1  0  0  0
  3  4  1  0  0  0  0
  3 37  1  0  0  0  0
  3 38  1  0  0  0  0
  4  5  1  0  0  0  0
  4 39  1  0  0  0  0
  4 40  1  0  0  0  0
  5  6  1  0  0  0  0
  5 41  1  6  0  0  0
  6  7  1  0  0  0  0
  7  8  1  0  0  0  0
  7  9  1  0  0  0  0
  7  5  1  0  0  0  0
  8 42  1  0  0  0  0
  8 43  1  0  0  0  0
  8 44  1  0  0  0  0
  9 45  1  0  0  0  0
  9 46  1  0  0  0  0
  9 47  1  0  0  0  0
 10 11  1  0  0  0  0
 10 48  1  1  0  0  0
 11 12  1  0  0  0  0
 11 49  1  0  0  0  0
 11 50  1  0  0  0  0
 12 13  1  0  0  0  0
 12 51  1  0  0  0  0
 12 52  1  0  0  0  0
 13 14  1  1  0  0  0
 13 15  1  0  0  0  0
 14 53  1  0  0  0  0
 14 54  1  0  0  0  0
 14 55  1  0  0  0  0
 15 16  1  0  0  0  0
 15 56  1  6  0  0  0
 16 17  1  0  0  0  0
 16 57  1  0  0  0  0
 16 58  1  0  0  0  0
 17 18  2  0  0  0  0
 17 59  1  0  0  0  0
 18 19  1  0  0  0  0
 19 20  1  0  0  0  0
 19 27  1  0  0  0  0
 19 60  1  1  0  0  0
 20 21  1  0  0  0  0
 20 61  1  0  0  0  0
 20 62  1  0  0  0  0
 21 22  1  0  0  0  0
 21 63  1  0  0  0  0
 21 64  1  0  0  0  0
 22 23  1  0  0  0  0
 22 24  1  0  0  0  0
 22 65  1  1  0  0  0
 23 66  1  0  0  0  0
 24 25  1  0  0  0  0
 24 26  1  0  0  0  0
 24 18  1  0  0  0  0
 25 67  1  0  0  0  0
 25 68  1  0  0  0  0
 25 69  1  0  0  0  0
 26 70  1  0  0  0  0
 26 71  1  0  0  0  0
 26 72  1  0  0  0  0
 27 28  1  6  0  0  0
 27 29  1  0  0  0  0
 27 15  1  0  0  0  0
 28 73  1  0  0  0  0
 28 74  1  0  0  0  0
 28 75  1  0  0  0  0
 29 30  1  0  0  0  0
 29 76  1  0  0  0  0
 29 77  1  0  0  0  0
 30 31  1  0  0  0  0
 30 78  1  0  0  0  0
 30 79  1  0  0  0  0
 31 32  1  6  0  0  0
 31 10  1  0  0  0  0
 31 13  1  0  0  0  0
 32 80  1  0  0  0  0
 32 81  1  0  0  0  0
 32 82  1  0  0  0  0
M  END
>  <meeko>
{"is_sidechain": [false], "intermolecular_energy": 2.731, "internal_energy": -0.839}

$$$$
