EPH_relaxed_0001_pdb2pqr_Repair_163_r2_0001_out
 OpenBabel07272616253D

 82 86  0  0  0  0  0  0  0  0999 V2000
   -1.6500    8.6000   -1.8670 C   0  0  0  0  0  0  0  0  0  0  0  0
   -2.0370    9.1080   -0.4750 C   0  0  2  0  0  0  0  0  0  0  0  0
   -3.5370    9.4520   -0.3790 C   0  0  0  0  0  0  0  0  0  0  0  0
   -4.4440    8.2230   -0.2790 C   0  0  0  0  0  0  0  0  0  0  0  0
   -5.1370    7.9380   -1.5770 C   0  0  2  0  0  0  0  0  0  0  0  0
   -6.3360    8.6940   -1.7940 O   0  0  0  0  0  0  0  0  0  0  0  0
   -6.4970    7.2710   -1.6710 C   0  0  0  0  0  0  0  0  0  0  0  0
   -7.2440    6.8470   -0.4460 C   0  0  0  0  0  0  0  0  0  0  0  0
   -6.8740    6.5940   -2.9520 C   0  0  0  0  0  0  0  0  0  0  0  0
   -1.1990   10.3300   -0.1170 C   0  0  1  0  0  0  0  0  0  0  0  0
   -0.1580   10.0350    0.9960 C   0  0  0  0  0  0  0  0  0  0  0  0
    1.0950   10.8890    0.6740 C   0  0  0  0  0  0  0  0  0  0  0  0
    0.6210   11.8860   -0.4090 C   0  0  1  0  0  0  0  0  0  0  0  0
   -0.1040   13.0200    0.3800 C   0  0  0  0  0  0  0  0  0  0  0  0
    1.7270   12.4560   -1.3550 C   0  0  2  0  0  0  0  0  0  0  0  0
    2.8180   13.2870   -0.6570 C   0  0  0  0  0  0  0  0  0  0  0  0
    2.5400   14.7510   -0.5610 C   0  0  0  0  0  0  0  0  0  0  0  0
    1.6030   15.4170   -1.2600 C   0  0  0  0  0  0  0  0  0  0  0  0
    0.7670   14.7060   -2.3330 C   0  0  1  0  0  0  0  0  0  0  0  0
    0.7200   15.5780   -3.6150 C   0  0  0  0  0  0  0  0  0  0  0  0
    0.2310   16.9970   -3.3400 C   0  0  0  0  0  0  0  0  0  0  0  0
    1.1210   17.6910   -2.3120 C   0  0  2  0  0  0  0  0  0  0  0  0
    2.4180   17.8890   -2.8840 O   0  0  0  0  0  0  0  0  0  0  0  0
    1.2520   16.8990   -0.9810 C   0  0  0  0  0  0  0  0  0  0  0  0
   -0.0930   16.9450   -0.2140 C   0  0  0  0  0  0  0  0  0  0  0  0
    2.2860   17.6360   -0.0870 C   0  0  0  0  0  0  0  0  0  0  0  0
    1.1660   13.1980   -2.6350 C   0  0  1  0  0  0  0  0  0  0  0  0
    2.2970   13.1510   -3.7080 C   0  0  0  0  0  0  0  0  0  0  0  0
   -0.0720   12.4550   -3.2630 C   0  0  0  0  0  0  0  0  0  0  0  0
   -1.0660   11.8090   -2.2790 C   0  0  0  0  0  0  0  0  0  0  0  0
   -0.3330   10.9530   -1.2410 C   0  0  2  0  0  0  0  0  0  0  0  0
    0.3880    9.7900   -2.0030 C   0  0  0  0  0  0  0  0  0  0  0  0
   -0.9861    7.7286   -1.7678 H   0  0  0  0  0  0  0  0  0  0  0  0
   -2.5574    8.3090   -2.4165 H   0  0  0  0  0  0  0  0  0  0  0  0
   -1.1285    9.3976   -2.4165 H   0  0  0  0  0  0  0  0  0  0  0  0
   -1.8376    8.2970    0.2409 H   0  0  0  0  0  0  0  0  0  0  0  0
   -3.6944   10.0736    0.5147 H   0  0  0  0  0  0  0  0  0  0  0  0
   -3.8070    9.9766   -1.3074 H   0  0  0  0  0  0  0  0  0  0  0  0
   -3.8334    7.3510   -0.0020 H   0  0  0  0  0  0  0  0  0  0  0  0
   -5.2118    8.4247    0.4824 H   0  0  0  0  0  0  0  0  0  0  0  0
   -4.1767    7.7279   -2.0706 H   0  0  0  0  0  0  0  0  0  0  0  0
   -6.6886    7.1623    0.4496 H   0  0  0  0  0  0  0  0  0  0  0  0
   -8.2397    7.3146   -0.4435 H   0  0  0  0  0  0  0  0  0  0  0  0
   -7.3530    5.7524   -0.4435 H   0  0  0  0  0  0  0  0  0  0  0  0
   -7.3981    5.6529   -2.7289 H   0  0  0  0  0  0  0  0  0  0  0  0
   -7.5352    7.2528   -3.5341 H   0  0  0  0  0  0  0  0  0  0  0  0
   -5.9658    6.3789   -3.5341 H   0  0  0  0  0  0  0  0  0  0  0  0
   -2.0011   11.0259    0.1699 H   0  0  0  0  0  0  0  0  0  0  0  0
   -0.5648   10.3149    1.9790 H   0  0  0  0  0  0  0  0  0  0  0  0
    0.0917    8.9642    1.0295 H   0  0  0  0  0  0  0  0  0  0  0  0
    1.4404   11.4249    1.5704 H   0  0  0  0  0  0  0  0  0  0  0  0
    1.9416   10.2749    0.3332 H   0  0  0  0  0  0  0  0  0  0  0  0
    0.0081   12.8446    1.4601 H   0  0  0  0  0  0  0  0  0  0  0  0
    0.3411   13.9912    0.1181 H   0  0  0  0  0  0  0  0  0  0  0  0
   -1.1724   13.0237    0.1181 H   0  0  0  0  0  0  0  0  0  0  0  0
    2.2276   11.5428   -1.7092 H   0  0  0  0  0  0  0  0  0  0  0  0
    2.9417   12.8967    0.3640 H   0  0  0  0  0  0  0  0  0  0  0  0
    3.7204   13.1883   -1.2783 H   0  0  0  0  0  0  0  0  0  0  0  0
    3.1536   15.3347    0.1410 H   0  0  0  0  0  0  0  0  0  0  0  0
   -0.2448   14.6052   -1.9134 H   0  0  0  0  0  0  0  0  0  0  0  0
    1.7320   15.6305   -4.0430 H   0  0  0  0  0  0  0  0  0  0  0  0
    0.0095   15.1092   -4.3117 H   0  0  0  0  0  0  0  0  0  0  0  0
    0.2483   17.5718   -4.2777 H   0  0  0  0  0  0  0  0  0  0  0  0
   -0.7923   16.9444   -2.9400 H   0  0  0  0  0  0  0  0  0  0  0  0
    0.6472   18.6512   -2.0600 H   0  0  0  0  0  0  0  0  0  0  0  0
    3.0280   17.2660   -2.4530 H   0  0  0  0  0  0  0  0  0  0  0  0
    0.1018   16.9383    0.8686 H   0  0  0  0  0  0  0  0  0  0  0  0
   -0.6373   17.8623   -0.4830 H   0  0  0  0  0  0  0  0  0  0  0  0
   -0.6987   16.0670   -0.4830 H   0  0  0  0  0  0  0  0  0  0  0  0
    2.0440   17.4635    0.9721 H   0  0  0  0  0  0  0  0  0  0  0  0
    3.2945   17.2519   -0.2999 H   0  0  0  0  0  0  0  0  0  0  0  0
    2.2519   18.7147   -0.2999 H   0  0  0  0  0  0  0  0  0  0  0  0
    3.2757   13.1103   -3.2076 H   0  0  0  0  0  0  0  0  0  0  0  0
    2.1692   12.2574   -4.3366 H   0  0  0  0  0  0  0  0  0  0  0  0
    2.2438   14.0521   -4.3366 H   0  0  0  0  0  0  0  0  0  0  0  0
   -0.6289   13.1872   -3.8661 H   0  0  0  0  0  0  0  0  0  0  0  0
    0.3541   11.6169   -3.8339 H   0  0  0  0  0  0  0  0  0  0  0  0
   -1.6259   12.6016   -1.7610 H   0  0  0  0  0  0  0  0  0  0  0  0
   -1.7506   11.1617   -2.8467 H   0  0  0  0  0  0  0  0  0  0  0  0
    0.8227    9.0889   -1.2753 H   0  0  0  0  0  0  0  0  0  0  0  0
   -0.3395    9.2589   -2.6344 H   0  0  0  0  0  0  0  0  0  0  0  0
    1.1872   10.2054   -2.6344 H   0  0  0  0  0  0  0  0  0  0  0  0
  1  2  1  0  0  0  0
  1 33  1  0  0  0  0
  1 34  1  0  0  0  0
  1 35  1  0  0  0  0
  2  3  1  0  0  0  0
  2 10  1  0  0  0  0
  2 36  1  1  0  0  0
  3  4  1  0  0  0  0
  3 37  1  0  0  0  0
  3 38  1  0  0  0  0
  4  5  1  0  0  0  0
  4 39  1  0  0  0  0
  4 40  1  0  0  0  0
  5  6  1  0  0  0  0
  5 41  1  6  0  0  0
  6  7  1  0  0  0  0
  7  8  1  0  0  0  0
  7  9  1  0  0  0  0
  7  5  1  0  0  0  0
  8 42  1  0  0  0  0
  8 43  1  0  0  0  0
  8 44  1  0  0  0  0
  9 45  1  0  0  0  0
  9 46  1  0  0  0  0
  9 47  1  0  0  0  0
 10 11  1  0  0  0  0
 10 48  1  1  0  0  0
 11 12  1  0  0  0  0
 11 49  1  0  0  0  0
 11 50  1  0  0  0  0
 12 13  1  0  0  0  0
 12 51  1  0  0  0  0
 12 52  1  0  0  0  0
 13 14  1  1  0  0  0
 13 15  1  0  0  0  0
 14 53  1  0  0  0  0
 14 54  1  0  0  0  0
 14 55  1  0  0  0  0
 15 16  1  0  0  0  0
 15 56  1  6  0  0  0
 16 17  1  0  0  0  0
 16 57  1  0  0  0  0
 16 58  1  0  0  0  0
 17 18  2  0  0  0  0
 17 59  1  0  0  0  0
 18 19  1  0  0  0  0
 19 20  1  0  0  0  0
 19 27  1  0  0  0  0
 19 60  1  1  0  0  0
 20 21  1  0  0  0  0
 20 61  1  0  0  0  0
 20 62  1  0  0  0  0
 21 22  1  0  0  0  0
 21 63  1  0  0  0  0
 21 64  1  0  0  0  0
 22 23  1  0  0  0  0
 22 24  1  0  0  0  0
 22 65  1  1  0  0  0
 23 66  1  0  0  0  0
 24 25  1  0  0  0  0
 24 26  1  0  0  0  0
 24 18  1  0  0  0  0
 25 67  1  0  0  0  0
 25 68  1  0  0  0  0
 25 69  1  0  0  0  0
 26 70  1  0  0  0  0
 26 71  1  0  0  0  0
 26 72  1  0  0  0  0
 27 28  1  6  0  0  0
 27 29  1  0  0  0  0
 27 15  1  0  0  0  0
 28 73  1  0  0  0  0
 28 74  1  0  0  0  0
 28 75  1  0  0  0  0
 29 30  1  0  0  0  0
 29 76  1  0  0  0  0
 29 77  1  0  0  0  0
 30 31  1  0  0  0  0
 30 78  1  0  0  0  0
 30 79  1  0  0  0  0
 31 32  1  6  0  0  0
 31 10  1  0  0  0  0
 31 13  1  0  0  0  0
 32 80  1  0  0  0  0
 32 81  1  0  0  0  0
 32 82  1  0  0  0  0
M  END
>  <meeko>
{"is_sidechain": [false], "intermolecular_energy": 2.731, "internal_energy": -0.839}

$$$$
