EPH_relaxed_0001_pdb2pqr_Repair_386_r2_0001_out
 OpenBabel07272616253D

 82 86  0  0  0  0  0  0  0  0999 V2000
   -1.6530    8.5780   -1.8670 C   0  0  0  0  0  0  0  0  0  0  0  0
   -2.0350    9.1010   -0.4790 C   0  0  2  0  0  0  0  0  0  0  0  0
   -3.5310    9.4640   -0.3860 C   0  0  0  0  0  0  0  0  0  0  0  0
   -4.4530    8.2470   -0.2770 C   0  0  0  0  0  0  0  0  0  0  0  0
   -5.1240    7.9410   -1.5820 C   0  0  2  0  0  0  0  0  0  0  0  0
   -6.3350    8.6720   -1.8180 O   0  0  0  0  0  0  0  0  0  0  0  0
   -6.4700    7.2470   -1.6880 C   0  0  0  0  0  0  0  0  0  0  0  0
   -7.2240    6.8160   -0.4700 C   0  0  0  0  0  0  0  0  0  0  0  0
   -6.8190    6.5560   -2.9690 C   0  0  0  0  0  0  0  0  0  0  0  0
   -1.1820   10.3150   -0.1290 C   0  0  1  0  0  0  0  0  0  0  0  0
   -0.1470   10.0170    0.9870 C   0  0  0  0  0  0  0  0  0  0  0  0
    1.1180   10.8520    0.6600 C   0  0  0  0  0  0  0  0  0  0  0  0
    0.6560   11.8460   -0.4320 C   0  0  1  0  0  0  0  0  0  0  0  0
   -0.0550   12.9960    0.3480 C   0  0  0  0  0  0  0  0  0  0  0  0
    1.7710   12.3960   -1.3810 C   0  0  2  0  0  0  0  0  0  0  0  0
    2.8700   13.2190   -0.6880 C   0  0  0  0  0  0  0  0  0  0  0  0
    2.6110   14.6870   -0.6030 C   0  0  0  0  0  0  0  0  0  0  0  0
    1.6820   15.3590   -1.3090 C   0  0  0  0  0  0  0  0  0  0  0  0
    0.8390   14.6500   -2.3770 C   0  0  1  0  0  0  0  0  0  0  0  0
    0.8040   15.5130   -3.6650 C   0  0  0  0  0  0  0  0  0  0  0  0
    0.3320   16.9400   -3.4010 C   0  0  0  0  0  0  0  0  0  0  0  0
    1.2300   17.6300   -2.3780 C   0  0  2  0  0  0  0  0  0  0  0  0
    2.5290   17.8080   -2.9500 O   0  0  0  0  0  0  0  0  0  0  0  0
    1.3500   16.8470   -1.0410 C   0  0  0  0  0  0  0  0  0  0  0  0
    0.0050   16.9150   -0.2760 C   0  0  0  0  0  0  0  0  0  0  0  0
    2.3920   17.5780   -0.1520 C   0  0  0  0  0  0  0  0  0  0  0  0
    1.2200   13.1350   -2.6670 C   0  0  1  0  0  0  0  0  0  0  0  0
    2.3510   13.0660   -3.7390 C   0  0  0  0  0  0  0  0  0  0  0  0
   -0.0270   12.4020   -3.2900 C   0  0  0  0  0  0  0  0  0  0  0  0
   -1.0300   11.7760   -2.3020 C   0  0  0  0  0  0  0  0  0  0  0  0
   -0.3080   10.9190   -1.2570 C   0  0  2  0  0  0  0  0  0  0  0  0
    0.3990    9.7410   -2.0100 C   0  0  0  0  0  0  0  0  0  0  0  0
   -1.0072    7.6939   -1.7607 H   0  0  0  0  0  0  0  0  0  0  0  0
   -2.5640    8.3025   -2.4185 H   0  0  0  0  0  0  0  0  0  0  0  0
   -1.1134    9.3620   -2.4185 H   0  0  0  0  0  0  0  0  0  0  0  0
   -1.8464    8.2926    0.2428 H   0  0  0  0  0  0  0  0  0  0  0  0
   -3.6810   10.0942    0.5030 H   0  0  0  0  0  0  0  0  0  0  0  0
   -3.7944    9.9848   -1.3184 H   0  0  0  0  0  0  0  0  0  0  0  0
   -3.8573    7.3749    0.0306 H   0  0  0  0  0  0  0  0  0  0  0  0
   -5.2331    8.4732    0.4649 H   0  0  0  0  0  0  0  0  0  0  0  0
   -4.1539    7.7470   -2.0629 H   0  0  0  0  0  0  0  0  0  0  0  0
   -6.6757    7.1294    0.4306 H   0  0  0  0  0  0  0  0  0  0  0  0
   -8.2211    7.2806   -0.4725 H   0  0  0  0  0  0  0  0  0  0  0  0
   -7.3296    5.7211   -0.4725 H   0  0  0  0  0  0  0  0  0  0  0  0
   -7.3047    5.5944   -2.7464 H   0  0  0  0  0  0  0  0  0  0  0  0
   -7.5061    7.1878   -3.5510 H   0  0  0  0  0  0  0  0  0  0  0  0
   -5.9027    6.3780   -3.5510 H   0  0  0  0  0  0  0  0  0  0  0  0
   -1.9759   11.0225    0.1523 H   0  0  0  0  0  0  0  0  0  0  0  0
   -0.5516   10.3106    1.9668 H   0  0  0  0  0  0  0  0  0  0  0  0
    0.0891    8.9435    1.0297 H   0  0  0  0  0  0  0  0  0  0  0  0
    1.4694   11.3908    1.5523 H   0  0  0  0  0  0  0  0  0  0  0  0
    1.9577   10.2249    0.3259 H   0  0  0  0  0  0  0  0  0  0  0  0
    0.0505   12.8253    1.4295 H   0  0  0  0  0  0  0  0  0  0  0  0
    0.4056   13.9589    0.0821 H   0  0  0  0  0  0  0  0  0  0  0  0
   -1.1222   13.0142    0.0821 H   0  0  0  0  0  0  0  0  0  0  0  0
    2.2619   11.4746   -1.7274 H   0  0  0  0  0  0  0  0  0  0  0  0
    2.9873   12.8349    0.3361 H   0  0  0  0  0  0  0  0  0  0  0  0
    3.7715   13.1049   -1.3079 H   0  0  0  0  0  0  0  0  0  0  0  0
    3.2312   15.2684    0.0950 H   0  0  0  0  0  0  0  0  0  0  0  0
   -0.1744   14.5640   -1.9580 H   0  0  0  0  0  0  0  0  0  0  0  0
    1.8170   15.5501   -4.0922 H   0  0  0  0  0  0  0  0  0  0  0  0
    0.0885   15.0478   -4.3591 H   0  0  0  0  0  0  0  0  0  0  0  0
    0.3568   17.5076   -4.3429 H   0  0  0  0  0  0  0  0  0  0  0  0
   -0.6922   16.9032   -3.0015 H   0  0  0  0  0  0  0  0  0  0  0  0
    0.7680   18.5979   -2.1337 H   0  0  0  0  0  0  0  0  0  0  0  0
    2.4160   17.9210   -3.9090 H   0  0  0  0  0  0  0  0  0  0  0  0
    0.1982   16.9052    0.8069 H   0  0  0  0  0  0  0  0  0  0  0  0
   -0.5239   17.8410   -0.5458 H   0  0  0  0  0  0  0  0  0  0  0  0
   -0.6146   16.0470   -0.5458 H   0  0  0  0  0  0  0  0  0  0  0  0
    2.1519   17.4096    0.9082 H   0  0  0  0  0  0  0  0  0  0  0  0
    3.3970   17.1859   -0.3672 H   0  0  0  0  0  0  0  0  0  0  0  0
    2.3654   18.6564   -0.3672 H   0  0  0  0  0  0  0  0  0  0  0  0
    3.3283   13.0064   -3.2376 H   0  0  0  0  0  0  0  0  0  0  0  0
    2.2065   12.1750   -4.3677 H   0  0  0  0  0  0  0  0  0  0  0  0
    2.3158   13.9680   -4.3677 H   0  0  0  0  0  0  0  0  0  0  0  0
   -0.5743   13.1361   -3.8995 H   0  0  0  0  0  0  0  0  0  0  0  0
    0.3894   11.5540   -3.8535 H   0  0  0  0  0  0  0  0  0  0  0  0
   -1.5804   12.5794   -1.7905 H   0  0  0  0  0  0  0  0  0  0  0  0
   -1.7224   11.1331   -2.8652 H   0  0  0  0  0  0  0  0  0  0  0  0
    0.8210    9.0379   -1.2768 H   0  0  0  0  0  0  0  0  0  0  0  0
   -0.3339    9.2168   -2.6410 H   0  0  0  0  0  0  0  0  0  0  0  0
    1.2063   10.1412   -2.6410 H   0  0  0  0  0  0  0  0  0  0  0  0
  1  2  1  0  0  0  0
  1 33  1  0  0  0  0
  1 34  1  0  0  0  0
  1 35  1  0  0  0  0
  2  3  1  0  0  0  0
  2 10  1  0  0  0  0
  2 36  1  1  0  0  0
  3  4  1  0  0  0  0
  3 37  1  0  0  0  0
  3 38  1  0  0  0  0
  4  5  1  0  0  0  0
  4 39  1  0  0  0  0
  4 40  1  0  0  0  0
  5  6  1  0  0  0  0
  5 41  1  6  0  0  0
  6  7  1  0  0  0  0
  7  8  1  0  0  0  0
  7  9  1  0  0  0  0
  7  5  1  0  0  0  0
  8 42  1  0  0  0  0
  8 43  1  0  0  0  0
  8 44  1  0  0  0  0
  9 45  1  0  0  0  0
  9 46  1  0  0  0  0
  9 47  1  0  0  0  0
 10 11  1  0  0  0  0
 10 48  1  1  0  0  0
 11 12  1  0  0  0  0
 11 49  1  0  0  0  0
 11 50  1  0  0  0  0
 12 13  1  0  0  0  0
 12 51  1  0  0  0  0
 12 52  1  0  0  0  0
 13 14  1  1  0  0  0
 13 15  1  0  0  0  0
 14 53  1  0  0  0  0
 14 54  1  0  0  0  0
 14 55  1  0  0  0  0
 15 16  1  0  0  0  0
 15 56  1  6  0  0  0
 16 17  1  0  0  0  0
 16 57  1  0  0  0  0
 16 58  1  0  0  0  0
 17 18  2  0  0  0  0
 17 59  1  0  0  0  0
 18 19  1  0  0  0  0
 19 20  1  0  0  0  0
 19 27  1  0  0  0  0
 19 60  1  1  0  0  0
 20 21  1  0  0  0  0
 20 61  1  0  0  0  0
 20 62  1  0  0  0  0
 21 22  1  0  0  0  0
 21 63  1  0  0  0  0
 21 64  1  0  0  0  0
 22 23  1  0  0  0  0
 22 24  1  0  0  0  0
 22 65  1  1  0  0  0
 23 66  1  0  0  0  0
 24 25  1  0  0  0  0
 24 26  1  0  0  0  0
 24 18  1  0  0  0  0
 25 67  1  0  0  0  0
 25 68  1  0  0  0  0
 25 69  1  0  0  0  0
 26 70  1  0  0  0  0
 26 71  1  0  0  0  0
 26 72  1  0  0  0  0
 27 28  1  6  0  0  0
 27 29  1  0  0  0  0
 27 15  1  0  0  0  0
 28 73  1  0  0  0  0
 28 74  1  0  0  0  0
 28 75  1  0  0  0  0
 29 30  1  0  0  0  0
 29 76  1  0  0  0  0
 29 77  1  0  0  0  0
 30 31  1  0  0  0  0
 30 78  1  0  0  0  0
 30 79  1  0  0  0  0
 31 32  1  6  0  0  0
 31 10  1  0  0  0  0
 31 13  1  0  0  0  0
 32 80  1  0  0  0  0
 32 81  1  0  0  0  0
 32 82  1  0  0  0  0
M  END
>  <meeko>
{"is_sidechain": [false], "intermolecular_energy": 2.731, "internal_energy": -0.839}

$$$$
