EPH_relaxed_0001_pdb2pqr_Repair_7_r2_0001_out
 OpenBabel07272616253D

 82 86  0  0  0  0  0  0  0  0999 V2000
   -1.5850    8.5340   -1.8020 C   0  0  0  0  0  0  0  0  0  0  0  0
   -1.9880    9.1090   -0.4420 C   0  0  2  0  0  0  0  0  0  0  0  0
   -3.4780    9.5040   -0.3960 C   0  0  0  0  0  0  0  0  0  0  0  0
   -4.4280    8.3090   -0.2780 C   0  0  0  0  0  0  0  0  0  0  0  0
   -5.0790    7.9870   -1.5890 C   0  0  2  0  0  0  0  0  0  0  0  0
   -6.3270    8.6540   -1.8170 O   0  0  0  0  0  0  0  0  0  0  0  0
   -6.3840    7.2230   -1.7100 C   0  0  0  0  0  0  0  0  0  0  0  0
   -7.1150    6.7320   -0.5000 C   0  0  0  0  0  0  0  0  0  0  0  0
   -6.6920    6.5330   -3.0020 C   0  0  0  0  0  0  0  0  0  0  0  0
   -1.1190   10.3170   -0.1100 C   0  0  1  0  0  0  0  0  0  0  0  0
   -0.0450   10.0030    0.9660 C   0  0  0  0  0  0  0  0  0  0  0  0
    1.2100   10.8380    0.6020 C   0  0  0  0  0  0  0  0  0  0  0  0
    0.7140   11.8440   -0.4620 C   0  0  1  0  0  0  0  0  0  0  0  0
    0.0350   12.9890    0.3530 C   0  0  0  0  0  0  0  0  0  0  0  0
    1.7960   12.3990   -1.4450 C   0  0  2  0  0  0  0  0  0  0  0  0
    2.9230   13.2120   -0.7830 C   0  0  0  0  0  0  0  0  0  0  0  0
    2.6720   14.6790   -0.6750 C   0  0  0  0  0  0  0  0  0  0  0  0
    1.7220   15.3620   -1.3410 C   0  0  0  0  0  0  0  0  0  0  0  0
    0.8390   14.6660   -2.3850 C   0  0  1  0  0  0  0  0  0  0  0  0
    0.7610   15.5420   -3.6630 C   0  0  0  0  0  0  0  0  0  0  0  0
    0.3050   16.9680   -3.3690 C   0  0  0  0  0  0  0  0  0  0  0  0
    1.2410   17.6450   -2.3710 C   0  0  2  0  0  0  0  0  0  0  0  0
    2.5200   17.8240   -2.9870 O   0  0  0  0  0  0  0  0  0  0  0  0
    1.4050   16.8490   -1.0470 C   0  0  0  0  0  0  0  0  0  0  0  0
    0.0880   16.9130   -0.2340 C   0  0  0  0  0  0  0  0  0  0  0  0
    2.4810   17.5660   -0.1880 C   0  0  0  0  0  0  0  0  0  0  0  0
    1.2030   13.1530   -2.7040 C   0  0  1  0  0  0  0  0  0  0  0  0
    2.2950   13.0900   -3.8150 C   0  0  0  0  0  0  0  0  0  0  0  0
   -0.0680   12.4300   -3.2890 C   0  0  0  0  0  0  0  0  0  0  0  0
   -1.0380   11.7980   -2.2730 C   0  0  0  0  0  0  0  0  0  0  0  0
   -0.2830   10.9290   -1.2620 C   0  0  2  0  0  0  0  0  0  0  0  0
    0.3930    9.7560   -2.0510 C   0  0  0  0  0  0  0  0  0  0  0  0
   -0.9596    7.6416   -1.6520 H   0  0  0  0  0  0  0  0  0  0  0  0
   -2.4884    8.2581   -2.3657 H   0  0  0  0  0  0  0  0  0  0  0  0
   -1.0174    9.2890   -2.3657 H   0  0  0  0  0  0  0  0  0  0  0  0
   -1.8322    8.3206    0.3091 H   0  0  0  0  0  0  0  0  0  0  0  0
   -3.6366   10.1608    0.4720 H   0  0  0  0  0  0  0  0  0  0  0  0
   -3.7075   10.0044   -1.3483 H   0  0  0  0  0  0  0  0  0  0  0  0
   -3.8573    7.4321    0.0616 H   0  0  0  0  0  0  0  0  0  0  0  0
   -5.2177    8.5685    0.4425 H   0  0  0  0  0  0  0  0  0  0  0  0
   -4.0987    7.8535   -2.0698 H   0  0  0  0  0  0  0  0  0  0  0  0
   -6.5980    7.0793    0.4067 H   0  0  0  0  0  0  0  0  0  0  0  0
   -8.1429    7.1235   -0.5087 H   0  0  0  0  0  0  0  0  0  0  0  0
   -7.1414    5.6323   -0.5087 H   0  0  0  0  0  0  0  0  0  0  0  0
   -7.1324    5.5465   -2.7949 H   0  0  0  0  0  0  0  0  0  0  0  0
   -7.4051    7.1388   -3.5803 H   0  0  0  0  0  0  0  0  0  0  0  0
   -5.7649    6.4066   -3.5803 H   0  0  0  0  0  0  0  0  0  0  0  0
   -1.8996   11.0245    0.2064 H   0  0  0  0  0  0  0  0  0  0  0  0
   -0.4131   10.2872    1.9629 H   0  0  0  0  0  0  0  0  0  0  0  0
    0.1886    8.9283    0.9892 H   0  0  0  0  0  0  0  0  0  0  0  0
    1.5947   11.3666    1.4866 H   0  0  0  0  0  0  0  0  0  0  0  0
    2.0347   10.2115    0.2313 H   0  0  0  0  0  0  0  0  0  0  0  0
    0.1517   12.7922    1.4289 H   0  0  0  0  0  0  0  0  0  0  0  0
    0.5099   13.9490    0.1022 H   0  0  0  0  0  0  0  0  0  0  0  0
   -1.0351   13.0327    0.1022 H   0  0  0  0  0  0  0  0  0  0  0  0
    2.2697   11.4789   -1.8179 H   0  0  0  0  0  0  0  0  0  0  0  0
    3.0752   12.8176    0.2325 H   0  0  0  0  0  0  0  0  0  0  0  0
    3.8018   13.1009   -1.4352 H   0  0  0  0  0  0  0  0  0  0  0  0
    3.3183   15.2511    0.0069 H   0  0  0  0  0  0  0  0  0  0  0  0
   -0.1586   14.5789   -1.9299 H   0  0  0  0  0  0  0  0  0  0  0  0
    1.7580   15.5792   -4.1262 H   0  0  0  0  0  0  0  0  0  0  0  0
    0.0187   15.0863   -4.3349 H   0  0  0  0  0  0  0  0  0  0  0  0
    0.2995   17.5446   -4.3057 H   0  0  0  0  0  0  0  0  0  0  0  0
   -0.7048   16.9312   -2.9342 H   0  0  0  0  0  0  0  0  0  0  0  0
    0.7914   18.6119   -2.1010 H   0  0  0  0  0  0  0  0  0  0  0  0
    2.8340   18.7150   -2.7590 H   0  0  0  0  0  0  0  0  0  0  0  0
    0.3199   16.9017    0.8412 H   0  0  0  0  0  0  0  0  0  0  0  0
   -0.4520   17.8384   -0.4829 H   0  0  0  0  0  0  0  0  0  0  0  0
   -0.5392   16.0443   -0.4829 H   0  0  0  0  0  0  0  0  0  0  0  0
    2.2576   17.4171    0.8787 H   0  0  0  0  0  0  0  0  0  0  0  0
    3.4720   17.1471   -0.4170 H   0  0  0  0  0  0  0  0  0  0  0  0
    2.4759   18.6419   -0.4170 H   0  0  0  0  0  0  0  0  0  0  0  0
    3.2896   13.0326   -3.3487 H   0  0  0  0  0  0  0  0  0  0  0  0
    2.1312   12.1998   -4.4401 H   0  0  0  0  0  0  0  0  0  0  0  0
    2.2346   13.9931   -4.4401 H   0  0  0  0  0  0  0  0  0  0  0  0
   -0.6337   13.1717   -3.8719 H   0  0  0  0  0  0  0  0  0  0  0  0
    0.3255   11.5857   -3.8741 H   0  0  0  0  0  0  0  0  0  0  0  0
   -1.5676   12.5982   -1.7352 H   0  0  0  0  0  0  0  0  0  0  0  0
   -1.7519   11.1627   -2.8177 H   0  0  0  0  0  0  0  0  0  0  0  0
    0.8119    9.0291   -1.3396 H   0  0  0  0  0  0  0  0  0  0  0  0
   -0.3574    9.2593   -2.6836 H   0  0  0  0  0  0  0  0  0  0  0  0
    1.1990   10.1562   -2.6836 H   0  0  0  0  0  0  0  0  0  0  0  0
  1  2  1  0  0  0  0
  1 33  1  0  0  0  0
  1 34  1  0  0  0  0
  1 35  1  0  0  0  0
  2  3  1  0  0  0  0
  2 10  1  0  0  0  0
  2 36  1  1  0  0  0
  3  4  1  0  0  0  0
  3 37  1  0  0  0  0
  3 38  1  0  0  0  0
  4  5  1  0  0  0  0
  4 39  1  0  0  0  0
  4 40  1  0  0  0  0
  5  6  1  0  0  0  0
  5 41  1  6  0  0  0
  6  7  1  0  0  0  0
  7  8  1  0  0  0  0
  7  9  1  0  0  0  0
  7  5  1  0  0  0  0
  8 42  1  0  0  0  0
  8 43  1  0  0  0  0
  8 44  1  0  0  0  0
  9 45  1  0  0  0  0
  9 46  1  0  0  0  0
  9 47  1  0  0  0  0
 10 11  1  0  0  0  0
 10 48  1  1  0  0  0
 11 12  1  0  0  0  0
 11 49  1  0  0  0  0
 11 50  1  0  0  0  0
 12 13  1  0  0  0  0
 12 51  1  0  0  0  0
 12 52  1  0  0  0  0
 13 14  1  1  0  0  0
 13 15  1  0  0  0  0
 14 53  1  0  0  0  0
 14 54  1  0  0  0  0
 14 55  1  0  0  0  0
 15 16  1  0  0  0  0
 15 56  1  6  0  0  0
 16 17  1  0  0  0  0
 16 57  1  0  0  0  0
 16 58  1  0  0  0  0
 17 18  2  0  0  0  0
 17 59  1  0  0  0  0
 18 19  1  0  0  0  0
 19 20  1  0  0  0  0
 19 27  1  0  0  0  0
 19 60  1  1  0  0  0
 20 21  1  0  0  0  0
 20 61  1  0  0  0  0
 20 62  1  0  0  0  0
 21 22  1  0  0  0  0
 21 63  1  0  0  0  0
 21 64  1  0  0  0  0
 22 23  1  0  0  0  0
 22 24  1  0  0  0  0
 22 65  1  1  0  0  0
 23 66  1  0  0  0  0
 24 25  1  0  0  0  0
 24 26  1  0  0  0  0
 24 18  1  0  0  0  0
 25 67  1  0  0  0  0
 25 68  1  0  0  0  0
 25 69  1  0  0  0  0
 26 70  1  0  0  0  0
 26 71  1  0  0  0  0
 26 72  1  0  0  0  0
 27 28  1  6  0  0  0
 27 29  1  0  0  0  0
 27 15  1  0  0  0  0
 28 73  1  0  0  0  0
 28 74  1  0  0  0  0
 28 75  1  0  0  0  0
 29 30  1  0  0  0  0
 29 76  1  0  0  0  0
 29 77  1  0  0  0  0
 30 31  1  0  0  0  0
 30 78  1  0  0  0  0
 30 79  1  0  0  0  0
 31 32  1  6  0  0  0
 31 10  1  0  0  0  0
 31 13  1  0  0  0  0
 32 80  1  0  0  0  0
 32 81  1  0  0  0  0
 32 82  1  0  0  0  0
M  END
>  <meeko>
{"is_sidechain": [false], "intermolecular_energy": 2.731, "internal_energy": -0.839}

$$$$
