EPH_relaxed_0001_pdb2pqr_Repair_39_r2_0001_out
 OpenBabel07272616253D

 82 86  0  0  0  0  0  0  0  0999 V2000
   -1.7050    8.5810   -1.8500 C   0  0  0  0  0  0  0  0  0  0  0  0
   -2.0960    9.1150   -0.4690 C   0  0  2  0  0  0  0  0  0  0  0  0
   -3.5900    9.4880   -0.3920 C   0  0  0  0  0  0  0  0  0  0  0  0
   -4.5170    8.2830   -0.2110 C   0  0  0  0  0  0  0  0  0  0  0  0
   -5.1940    7.9070   -1.4930 C   0  0  2  0  0  0  0  0  0  0  0  0
   -6.3450    8.6980   -1.8170 O   0  0  0  0  0  0  0  0  0  0  0  0
   -6.5860    7.3050   -1.5590 C   0  0  0  0  0  0  0  0  0  0  0  0
   -7.3830    7.0440   -0.3200 C   0  0  0  0  0  0  0  0  0  0  0  0
   -6.9710    6.5240   -2.7770 C   0  0  0  0  0  0  0  0  0  0  0  0
   -1.2380   10.3240   -0.1170 C   0  0  1  0  0  0  0  0  0  0  0  0
   -0.2110   10.0220    1.0070 C   0  0  0  0  0  0  0  0  0  0  0  0
    1.0600   10.8490    0.6860 C   0  0  0  0  0  0  0  0  0  0  0  0
    0.6130   11.8420   -0.4120 C   0  0  1  0  0  0  0  0  0  0  0  0
   -0.0970   12.9990    0.3590 C   0  0  0  0  0  0  0  0  0  0  0  0
    1.7360   12.3820   -1.3550 C   0  0  2  0  0  0  0  0  0  0  0  0
    2.8370   13.2000   -0.6580 C   0  0  0  0  0  0  0  0  0  0  0  0
    2.5860   14.6700   -0.5790 C   0  0  0  0  0  0  0  0  0  0  0  0
    1.6660   15.3460   -1.2930 C   0  0  0  0  0  0  0  0  0  0  0  0
    0.8260   14.6390   -2.3640 C   0  0  1  0  0  0  0  0  0  0  0  0
    0.8050   15.4980   -3.6560 C   0  0  0  0  0  0  0  0  0  0  0  0
    0.3400   16.9290   -3.3990 C   0  0  0  0  0  0  0  0  0  0  0  0
    1.2350   17.6170   -2.3720 C   0  0  2  0  0  0  0  0  0  0  0  0
    2.5400   17.7840   -2.9360 O   0  0  0  0  0  0  0  0  0  0  0  0
    1.3420   16.8370   -1.0320 C   0  0  0  0  0  0  0  0  0  0  0  0
   -0.0080   16.9150   -0.2750 C   0  0  0  0  0  0  0  0  0  0  0  0
    2.3830   17.5640   -0.1380 C   0  0  0  0  0  0  0  0  0  0  0  0
    1.1990   13.1200   -2.6480 C   0  0  1  0  0  0  0  0  0  0  0  0
    2.3360   13.0410   -3.7110 C   0  0  0  0  0  0  0  0  0  0  0  0
   -0.0490   12.3940   -3.2760 C   0  0  0  0  0  0  0  0  0  0  0  0
   -1.0620   11.7770   -2.2930 C   0  0  0  0  0  0  0  0  0  0  0  0
   -0.3530   10.9190   -1.2410 C   0  0  2  0  0  0  0  0  0  0  0  0
    0.3520    9.7340   -1.9860 C   0  0  0  0  0  0  0  0  0  0  0  0
   -1.0589    7.6986   -1.7324 H   0  0  0  0  0  0  0  0  0  0  0  0
   -2.6123    8.2998   -2.4048 H   0  0  0  0  0  0  0  0  0  0  0  0
   -1.1630    9.3610   -2.4048 H   0  0  0  0  0  0  0  0  0  0  0  0
   -1.9194    8.3096    0.2591 H   0  0  0  0  0  0  0  0  0  0  0  0
   -3.7345   10.1684    0.4602 H   0  0  0  0  0  0  0  0  0  0  0  0
   -3.8544    9.9554   -1.3520 H   0  0  0  0  0  0  0  0  0  0  0  0
   -3.9238    7.4270    0.1432 H   0  0  0  0  0  0  0  0  0  0  0  0
   -5.2931    8.5543    0.5197 H   0  0  0  0  0  0  0  0  0  0  0  0
   -4.2354    7.5998   -1.9365 H   0  0  0  0  0  0  0  0  0  0  0  0
   -6.7621    7.2473    0.5650 H   0  0  0  0  0  0  0  0  0  0  0  0
   -8.2659    7.6999   -0.3070 H   0  0  0  0  0  0  0  0  0  0  0  0
   -7.7069    5.9929   -0.3070 H   0  0  0  0  0  0  0  0  0  0  0  0
   -7.4383    5.5760   -2.4721 H   0  0  0  0  0  0  0  0  0  0  0  0
   -7.6844    7.1082   -3.3769 H   0  0  0  0  0  0  0  0  0  0  0  0
   -6.0732    6.3140   -3.3769 H   0  0  0  0  0  0  0  0  0  0  0  0
   -2.0291   11.0374    0.1574 H   0  0  0  0  0  0  0  0  0  0  0  0
   -0.6200   10.3199    1.9837 H   0  0  0  0  0  0  0  0  0  0  0  0
    0.0186    8.9472    1.0536 H   0  0  0  0  0  0  0  0  0  0  0  0
    1.4079   11.3886    1.5792 H   0  0  0  0  0  0  0  0  0  0  0  0
    1.8980   10.2157    0.3593 H   0  0  0  0  0  0  0  0  0  0  0  0
    0.0041   12.8342    1.4419 H   0  0  0  0  0  0  0  0  0  0  0  0
    0.3678   13.9588    0.0892 H   0  0  0  0  0  0  0  0  0  0  0  0
   -1.1632   13.0193    0.0892 H   0  0  0  0  0  0  0  0  0  0  0  0
    2.2221   11.4557   -1.6951 H   0  0  0  0  0  0  0  0  0  0  0  0
    2.9463   12.8182    0.3678 H   0  0  0  0  0  0  0  0  0  0  0  0
    3.7415   13.0782   -1.2720 H   0  0  0  0  0  0  0  0  0  0  0  0
    3.2050   15.2495    0.1217 H   0  0  0  0  0  0  0  0  0  0  0  0
   -0.1902   14.5610   -1.9502 H   0  0  0  0  0  0  0  0  0  0  0  0
    1.8210   15.5274   -4.0766 H   0  0  0  0  0  0  0  0  0  0  0  0
    0.0917   15.0350   -4.3537 H   0  0  0  0  0  0  0  0  0  0  0  0
    0.3745   17.4937   -4.3424 H   0  0  0  0  0  0  0  0  0  0  0  0
   -0.6870   16.8993   -3.0060 H   0  0  0  0  0  0  0  0  0  0  0  0
    0.7771   18.5884   -2.1341 H   0  0  0  0  0  0  0  0  0  0  0  0
    2.9420   18.5650   -2.5200 H   0  0  0  0  0  0  0  0  0  0  0  0
    0.1783   16.9042    0.8090 H   0  0  0  0  0  0  0  0  0  0  0  0
   -0.5285   17.8447   -0.5484 H   0  0  0  0  0  0  0  0  0  0  0  0
   -0.6321   16.0514   -0.5484 H   0  0  0  0  0  0  0  0  0  0  0  0
    2.1393   17.3938    0.9211 H   0  0  0  0  0  0  0  0  0  0  0  0
    3.3878   17.1702   -0.3509 H   0  0  0  0  0  0  0  0  0  0  0  0
    2.3593   18.6429   -0.3509 H   0  0  0  0  0  0  0  0  0  0  0  0
    3.3092   12.9734   -3.2027 H   0  0  0  0  0  0  0  0  0  0  0  0
    2.1884   12.1509   -4.3403 H   0  0  0  0  0  0  0  0  0  0  0  0
    2.3129   13.9429   -4.3403 H   0  0  0  0  0  0  0  0  0  0  0  0
   -0.5878   13.1303   -3.8904 H   0  0  0  0  0  0  0  0  0  0  0  0
    0.3652   11.5417   -3.8346 H   0  0  0  0  0  0  0  0  0  0  0  0
   -1.6109   12.5852   -1.7876 H   0  0  0  0  0  0  0  0  0  0  0  0
   -1.7543   11.1365   -2.8591 H   0  0  0  0  0  0  0  0  0  0  0  0
    0.7690    9.0331   -1.2479 H   0  0  0  0  0  0  0  0  0  0  0  0
   -0.3810    9.2094   -2.6165 H   0  0  0  0  0  0  0  0  0  0  0  0
    1.1628   10.1278   -2.6165 H   0  0  0  0  0  0  0  0  0  0  0  0
  1  2  1  0  0  0  0
  1 33  1  0  0  0  0
  1 34  1  0  0  0  0
  1 35  1  0  0  0  0
  2  3  1  0  0  0  0
  2 10  1  0  0  0  0
  2 36  1  1  0  0  0
  3  4  1  0  0  0  0
  3 37  1  0  0  0  0
  3 38  1  0  0  0  0
  4  5  1  0  0  0  0
  4 39  1  0  0  0  0
  4 40  1  0  0  0  0
  5  6  1  0  0  0  0
  5 41  1  6  0  0  0
  6  7  1  0  0  0  0
  7  8  1  0  0  0  0
  7  9  1  0  0  0  0
  7  5  1  0  0  0  0
  8 42  1  0  0  0  0
  8 43  1  0  0  0  0
  8 44  1  0  0  0  0
  9 45  1  0  0  0  0
  9 46  1  0  0  0  0
  9 47  1  0  0  0  0
 10 11  1  0  0  0  0
 10 48  1  1  0  0  0
 11 12  1  0  0  0  0
 11 49  1  0  0  0  0
 11 50  1  0  0  0  0
 12 13  1  0  0  0  0
 12 51  1  0  0  0  0
 12 52  1  0  0  0  0
 13 14  1  1  0  0  0
 13 15  1  0  0  0  0
 14 53  1  0  0  0  0
 14 54  1  0  0  0  0
 14 55  1  0  0  0  0
 15 16  1  0  0  0  0
 15 56  1  6  0  0  0
 16 17  1  0  0  0  0
 16 57  1  0  0  0  0
 16 58  1  0  0  0  0
 17 18  2  0  0  0  0
 17 59  1  0  0  0  0
 18 19  1  0  0  0  0
 19 20  1  0  0  0  0
 19 27  1  0  0  0  0
 19 60  1  1  0  0  0
 20 21  1  0  0  0  0
 20 61  1  0  0  0  0
 20 62  1  0  0  0  0
 21 22  1  0  0  0  0
 21 63  1  0  0  0  0
 21 64  1  0  0  0  0
 22 23  1  0  0  0  0
 22 24  1  0  0  0  0
 22 65  1  1  0  0  0
 23 66  1  0  0  0  0
 24 25  1  0  0  0  0
 24 26  1  0  0  0  0
 24 18  1  0  0  0  0
 25 67  1  0  0  0  0
 25 68  1  0  0  0  0
 25 69  1  0  0  0  0
 26 70  1  0  0  0  0
 26 71  1  0  0  0  0
 26 72  1  0  0  0  0
 27 28  1  6  0  0  0
 27 29  1  0  0  0  0
 27 15  1  0  0  0  0
 28 73  1  0  0  0  0
 28 74  1  0  0  0  0
 28 75  1  0  0  0  0
 29 30  1  0  0  0  0
 29 76  1  0  0  0  0
 29 77  1  0  0  0  0
 30 31  1  0  0  0  0
 30 78  1  0  0  0  0
 30 79  1  0  0  0  0
 31 32  1  6  0  0  0
 31 10  1  0  0  0  0
 31 13  1  0  0  0  0
 32 80  1  0  0  0  0
 32 81  1  0  0  0  0
 32 82  1  0  0  0  0
M  END
>  <meeko>
{"is_sidechain": [false], "intermolecular_energy": 2.731, "internal_energy": -0.839}

$$$$
