EPH_relaxed_0001_pdb2pqr_Repair_71_r2_0001_out
 OpenBabel07272616253D

 82 86  0  0  0  0  0  0  0  0999 V2000
   -1.7020    8.5850   -1.8720 C   0  0  0  0  0  0  0  0  0  0  0  0
   -2.0760    9.1150   -0.4850 C   0  0  2  0  0  0  0  0  0  0  0  0
   -3.5680    9.4920   -0.3910 C   0  0  0  0  0  0  0  0  0  0  0  0
   -4.5000    8.2870   -0.2370 C   0  0  0  0  0  0  0  0  0  0  0  0
   -5.2010    7.9600   -1.5200 C   0  0  2  0  0  0  0  0  0  0  0  0
   -6.3650    8.7540   -1.7860 O   0  0  0  0  0  0  0  0  0  0  0  0
   -6.5890    7.3490   -1.5830 C   0  0  0  0  0  0  0  0  0  0  0  0
   -7.3580    7.0290   -0.3400 C   0  0  0  0  0  0  0  0  0  0  0  0
   -6.9930    6.6180   -2.8250 C   0  0  0  0  0  0  0  0  0  0  0  0
   -1.2110   10.3200   -0.1380 C   0  0  1  0  0  0  0  0  0  0  0  0
   -0.1690   10.0090    0.9690 C   0  0  0  0  0  0  0  0  0  0  0  0
    1.0990   10.8360    0.6340 C   0  0  0  0  0  0  0  0  0  0  0  0
    0.6370   11.8370   -0.4500 C   0  0  1  0  0  0  0  0  0  0  0  0
   -0.0590   12.9900    0.3390 C   0  0  0  0  0  0  0  0  0  0  0  0
    1.7480   12.3810   -1.4060 C   0  0  2  0  0  0  0  0  0  0  0  0
    2.8600   13.1930   -0.7190 C   0  0  0  0  0  0  0  0  0  0  0  0
    2.6130   14.6630   -0.6280 C   0  0  0  0  0  0  0  0  0  0  0  0
    1.6850   15.3450   -1.3240 C   0  0  0  0  0  0  0  0  0  0  0  0
    0.8270   14.6460   -2.3870 C   0  0  1  0  0  0  0  0  0  0  0  0
    0.7890   15.5140   -3.6730 C   0  0  0  0  0  0  0  0  0  0  0  0
    0.3300   16.9430   -3.4000 C   0  0  0  0  0  0  0  0  0  0  0  0
    1.2420   17.6230   -2.3810 C   0  0  2  0  0  0  0  0  0  0  0  0
    2.5380   17.7920   -2.9630 O   0  0  0  0  0  0  0  0  0  0  0  0
    1.3660   16.8350   -1.0480 C   0  0  0  0  0  0  0  0  0  0  0  0
    0.0280   16.9110   -0.2720 C   0  0  0  0  0  0  0  0  0  0  0  0
    2.4220   17.5540   -0.1650 C   0  0  0  0  0  0  0  0  0  0  0  0
    1.1930   13.1290   -2.6860 C   0  0  1  0  0  0  0  0  0  0  0  0
    2.3150   13.0550   -3.7660 C   0  0  0  0  0  0  0  0  0  0  0  0
   -0.0640   12.4080   -3.3010 C   0  0  0  0  0  0  0  0  0  0  0  0
   -1.0650   11.7870   -2.3070 C   0  0  0  0  0  0  0  0  0  0  0  0
   -0.3420   10.9210   -1.2710 C   0  0  2  0  0  0  0  0  0  0  0  0
    0.3500    9.7400   -2.0330 C   0  0  0  0  0  0  0  0  0  0  0  0
   -1.0708    7.6905   -1.7648 H   0  0  0  0  0  0  0  0  0  0  0  0
   -2.6171    8.3240   -2.4238 H   0  0  0  0  0  0  0  0  0  0  0  0
   -1.1494    9.3597   -2.4238 H   0  0  0  0  0  0  0  0  0  0  0  0
   -1.8935    8.3067    0.2385 H   0  0  0  0  0  0  0  0  0  0  0  0
   -3.7054   10.1505    0.4793 H   0  0  0  0  0  0  0  0  0  0  0  0
   -3.8347    9.9851   -1.3374 H   0  0  0  0  0  0  0  0  0  0  0  0
   -3.9068    7.4155    0.0770 H   0  0  0  0  0  0  0  0  0  0  0  0
   -5.2622    8.5375    0.5155 H   0  0  0  0  0  0  0  0  0  0  0  0
   -4.2495    7.6806   -1.9959 H   0  0  0  0  0  0  0  0  0  0  0  0
   -6.7510    7.2816    0.5419 H   0  0  0  0  0  0  0  0  0  0  0  0
   -8.2892    7.6143   -0.3241 H   0  0  0  0  0  0  0  0  0  0  0  0
   -7.5991    5.9559   -0.3241 H   0  0  0  0  0  0  0  0  0  0  0  0
   -7.5083    5.6857   -2.5505 H   0  0  0  0  0  0  0  0  0  0  0  0
   -7.6699    7.2500   -3.4186 H   0  0  0  0  0  0  0  0  0  0  0  0
   -6.0978    6.3811   -3.4186 H   0  0  0  0  0  0  0  0  0  0  0  0
   -1.9965   11.0332    0.1524 H   0  0  0  0  0  0  0  0  0  0  0  0
   -0.5631   10.3017    1.9534 H   0  0  0  0  0  0  0  0  0  0  0  0
    0.0590    8.9335    1.0062 H   0  0  0  0  0  0  0  0  0  0  0  0
    1.4617   11.3689    1.5253 H   0  0  0  0  0  0  0  0  0  0  0  0
    1.9307   10.2034    0.2902 H   0  0  0  0  0  0  0  0  0  0  0  0
    0.0484   12.8120    1.4192 H   0  0  0  0  0  0  0  0  0  0  0  0
    0.4110   13.9494    0.0769 H   0  0  0  0  0  0  0  0  0  0  0  0
   -1.1269   13.0211    0.0769 H   0  0  0  0  0  0  0  0  0  0  0  0
    2.2279   11.4565   -1.7595 H   0  0  0  0  0  0  0  0  0  0  0  0
    2.9823   12.8050    0.3030 H   0  0  0  0  0  0  0  0  0  0  0  0
    3.7559   13.0732   -1.3459 H   0  0  0  0  0  0  0  0  0  0  0  0
    3.2433   15.2371    0.0671 H   0  0  0  0  0  0  0  0  0  0  0  0
   -0.1832   14.5667   -1.9590 H   0  0  0  0  0  0  0  0  0  0  0  0
    1.7990   15.5449   -4.1077 H   0  0  0  0  0  0  0  0  0  0  0  0
    0.0652   15.0567   -4.3636 H   0  0  0  0  0  0  0  0  0  0  0  0
    0.3514   17.5139   -4.3400 H   0  0  0  0  0  0  0  0  0  0  0  0
   -0.6912   16.9123   -2.9923 H   0  0  0  0  0  0  0  0  0  0  0  0
    0.7899   18.5938   -2.1298 H   0  0  0  0  0  0  0  0  0  0  0  0
    2.9030   18.6300   -2.6310 H   0  0  0  0  0  0  0  0  0  0  0  0
    0.2300   16.8995    0.8092 H   0  0  0  0  0  0  0  0  0  0  0  0
   -0.4973   17.8404   -0.5370 H   0  0  0  0  0  0  0  0  0  0  0  0
   -0.5992   16.0470   -0.5370 H   0  0  0  0  0  0  0  0  0  0  0  0
    2.1839   17.3919    0.8966 H   0  0  0  0  0  0  0  0  0  0  0  0
    3.4205   17.1473   -0.3831 H   0  0  0  0  0  0  0  0  0  0  0  0
    2.4096   18.6321   -0.3831 H   0  0  0  0  0  0  0  0  0  0  0  0
    3.2957   12.9903   -3.2720 H   0  0  0  0  0  0  0  0  0  0  0  0
    2.1613   12.1650   -4.3940 H   0  0  0  0  0  0  0  0  0  0  0  0
    2.2796   13.9574   -4.3940 H   0  0  0  0  0  0  0  0  0  0  0  0
   -0.6100   13.1482   -3.9043 H   0  0  0  0  0  0  0  0  0  0  0  0
    0.3415   11.5581   -3.8696 H   0  0  0  0  0  0  0  0  0  0  0  0
   -1.6047   12.5932   -1.7886 H   0  0  0  0  0  0  0  0  0  0  0  0
   -1.7674   11.1519   -2.8667 H   0  0  0  0  0  0  0  0  0  0  0  0
    0.7670    9.0284   -1.3052 H   0  0  0  0  0  0  0  0  0  0  0  0
   -0.3905    9.2271   -2.6644 H   0  0  0  0  0  0  0  0  0  0  0  0
    1.1594   10.1353   -2.6644 H   0  0  0  0  0  0  0  0  0  0  0  0
  1  2  1  0  0  0  0
  1 33  1  0  0  0  0
  1 34  1  0  0  0  0
  1 35  1  0  0  0  0
  2  3  1  0  0  0  0
  2 10  1  0  0  0  0
  2 36  1  1  0  0  0
  3  4  1  0  0  0  0
  3 37  1  0  0  0  0
  3 38  1  0  0  0  0
  4  5  1  0  0  0  0
  4 39  1  0  0  0  0
  4 40  1  0  0  0  0
  5  6  1  0  0  0  0
  5 41  1  6  0  0  0
  6  7  1  0  0  0  0
  7  8  1  0  0  0  0
  7  9  1  0  0  0  0
  7  5  1  0  0  0  0
  8 42  1  0  0  0  0
  8 43  1  0  0  0  0
  8 44  1  0  0  0  0
  9 45  1  0  0  0  0
  9 46  1  0  0  0  0
  9 47  1  0  0  0  0
 10 11  1  0  0  0  0
 10 48  1  1  0  0  0
 11 12  1  0  0  0  0
 11 49  1  0  0  0  0
 11 50  1  0  0  0  0
 12 13  1  0  0  0  0
 12 51  1  0  0  0  0
 12 52  1  0  0  0  0
 13 14  1  1  0  0  0
 13 15  1  0  0  0  0
 14 53  1  0  0  0  0
 14 54  1  0  0  0  0
 14 55  1  0  0  0  0
 15 16  1  0  0  0  0
 15 56  1  6  0  0  0
 16 17  1  0  0  0  0
 16 57  1  0  0  0  0
 16 58  1  0  0  0  0
 17 18  2  0  0  0  0
 17 59  1  0  0  0  0
 18 19  1  0  0  0  0
 19 20  1  0  0  0  0
 19 27  1  0  0  0  0
 19 60  1  1  0  0  0
 20 21  1  0  0  0  0
 20 61  1  0  0  0  0
 20 62  1  0  0  0  0
 21 22  1  0  0  0  0
 21 63  1  0  0  0  0
 21 64  1  0  0  0  0
 22 23  1  0  0  0  0
 22 24  1  0  0  0  0
 22 65  1  1  0  0  0
 23 66  1  0  0  0  0
 24 25  1  0  0  0  0
 24 26  1  0  0  0  0
 24 18  1  0  0  0  0
 25 67  1  0  0  0  0
 25 68  1  0  0  0  0
 25 69  1  0  0  0  0
 26 70  1  0  0  0  0
 26 71  1  0  0  0  0
 26 72  1  0  0  0  0
 27 28  1  6  0  0  0
 27 29  1  0  0  0  0
 27 15  1  0  0  0  0
 28 73  1  0  0  0  0
 28 74  1  0  0  0  0
 28 75  1  0  0  0  0
 29 30  1  0  0  0  0
 29 76  1  0  0  0  0
 29 77  1  0  0  0  0
 30 31  1  0  0  0  0
 30 78  1  0  0  0  0
 30 79  1  0  0  0  0
 31 32  1  6  0  0  0
 31 10  1  0  0  0  0
 31 13  1  0  0  0  0
 32 80  1  0  0  0  0
 32 81  1  0  0  0  0
 32 82  1  0  0  0  0
M  END
>  <meeko>
{"is_sidechain": [false], "intermolecular_energy": 2.731, "internal_energy": -0.839}

$$$$
