EPH_relaxed_0001_pdb2pqr_Repair_367_r2_0001_out
 OpenBabel07272616253D

 82 86  0  0  0  0  0  0  0  0999 V2000
   -1.6230    8.6190   -1.7360 C   0  0  0  0  0  0  0  0  0  0  0  0
   -2.0540    9.2480   -0.4080 C   0  0  2  0  0  0  0  0  0  0  0  0
   -3.5330    9.6840   -0.4240 C   0  0  0  0  0  0  0  0  0  0  0  0
   -4.4810    8.6660    0.2140 C   0  0  0  0  0  0  0  0  0  0  0  0
   -5.2400    7.8910   -0.8200 C   0  0  2  0  0  0  0  0  0  0  0  0
   -6.2680    8.6320   -1.4890 O   0  0  0  0  0  0  0  0  0  0  0  0
   -6.7070    7.5270   -0.6840 C   0  0  0  0  0  0  0  0  0  0  0  0
   -7.5020    7.9270    0.5190 C   0  0  0  0  0  0  0  0  0  0  0  0
   -7.2350    6.3730   -1.4790 C   0  0  0  0  0  0  0  0  0  0  0  0
   -1.1630   10.4420   -0.0860 C   0  0  1  0  0  0  0  0  0  0  0  0
   -0.0790   10.1100    0.9750 C   0  0  0  0  0  0  0  0  0  0  0  0
    1.1830   10.9270    0.5960 C   0  0  0  0  0  0  0  0  0  0  0  0
    0.6870   11.9440   -0.4590 C   0  0  1  0  0  0  0  0  0  0  0  0
    0.0350   13.0950    0.3690 C   0  0  0  0  0  0  0  0  0  0  0  0
    1.7630   12.4860   -1.4550 C   0  0  2  0  0  0  0  0  0  0  0  0
    2.9100   13.2800   -0.8070 C   0  0  0  0  0  0  0  0  0  0  0  0
    2.6820   14.7510   -0.6910 C   0  0  0  0  0  0  0  0  0  0  0  0
    1.7330   15.4490   -1.3420 C   0  0  0  0  0  0  0  0  0  0  0  0
    0.8250   14.7700   -2.3760 C   0  0  1  0  0  0  0  0  0  0  0  0
    0.7420   15.6510   -3.6500 C   0  0  0  0  0  0  0  0  0  0  0  0
    0.3100   17.0820   -3.3450 C   0  0  0  0  0  0  0  0  0  0  0  0
    1.2700   17.7430   -2.3590 C   0  0  2  0  0  0  0  0  0  0  0  0
    2.5430   17.9040   -2.9920 O   0  0  0  0  0  0  0  0  0  0  0  0
    1.4410   16.9390   -1.0390 C   0  0  0  0  0  0  0  0  0  0  0  0
    0.1370   17.0210   -0.2070 C   0  0  0  0  0  0  0  0  0  0  0  0
    2.5400   17.6390   -0.1940 C   0  0  0  0  0  0  0  0  0  0  0  0
    1.1630   13.2520   -2.7040 C   0  0  1  0  0  0  0  0  0  0  0  0
    2.2380   13.1770   -3.8300 C   0  0  0  0  0  0  0  0  0  0  0  0
   -0.1260   12.5500   -3.2730 C   0  0  0  0  0  0  0  0  0  0  0  0
   -1.0910   11.9290   -2.2450 C   0  0  0  0  0  0  0  0  0  0  0  0
   -0.3350   11.0450   -1.2480 C   0  0  2  0  0  0  0  0  0  0  0  0
    0.3130    9.8650   -2.0490 C   0  0  0  0  0  0  0  0  0  0  0  0
   -1.0114    7.7265   -1.5376 H   0  0  0  0  0  0  0  0  0  0  0  0
   -2.5149    8.3317   -2.3122 H   0  0  0  0  0  0  0  0  0  0  0  0
   -1.0331    9.3470   -2.3122 H   0  0  0  0  0  0  0  0  0  0  0  0
   -1.9449    8.4805    0.3724 H   0  0  0  0  0  0  0  0  0  0  0  0
   -3.6214   10.6328    0.1255 H   0  0  0  0  0  0  0  0  0  0  0  0
   -3.8283    9.7812   -1.4792 H   0  0  0  0  0  0  0  0  0  0  0  0
   -3.8928    7.9649    0.8243 H   0  0  0  0  0  0  0  0  0  0  0  0
   -5.2068    9.2143    0.8326 H   0  0  0  0  0  0  0  0  0  0  0  0
   -4.3494    7.2902   -1.0565 H   0  0  0  0  0  0  0  0  0  0  0  0
   -6.9520    7.6503    1.4306 H   0  0  0  0  0  0  0  0  0  0  0  0
   -7.6655    9.0147    0.5054 H   0  0  0  0  0  0  0  0  0  0  0  0
   -8.4729    7.4101    0.5054 H   0  0  0  0  0  0  0  0  0  0  0  0
   -7.5934    5.5898   -0.7948 H   0  0  0  0  0  0  0  0  0  0  0  0
   -8.0665    6.7144   -2.1131 H   0  0  0  0  0  0  0  0  0  0  0  0
   -6.4330    5.9671   -2.1131 H   0  0  0  0  0  0  0  0  0  0  0  0
   -1.9287   11.1602    0.2426 H   0  0  0  0  0  0  0  0  0  0  0  0
   -0.4294   10.3974    1.9773 H   0  0  0  0  0  0  0  0  0  0  0  0
    0.1391    9.0320    0.9928 H   0  0  0  0  0  0  0  0  0  0  0  0
    1.5878   11.4472    1.4766 H   0  0  0  0  0  0  0  0  0  0  0  0
    1.9931   10.2894    0.2123 H   0  0  0  0  0  0  0  0  0  0  0  0
    0.1530   12.8867    1.4426 H   0  0  0  0  0  0  0  0  0  0  0  0
    0.5277   14.0475    0.1240 H   0  0  0  0  0  0  0  0  0  0  0  0
   -1.0353   13.1621    0.1240 H   0  0  0  0  0  0  0  0  0  0  0  0
    2.2186   11.5605   -1.8369 H   0  0  0  0  0  0  0  0  0  0  0  0
    3.0707   12.8802    0.2051 H   0  0  0  0  0  0  0  0  0  0  0  0
    3.7778   13.1583   -1.4720 H   0  0  0  0  0  0  0  0  0  0  0  0
    3.3458   15.3117   -0.0164 H   0  0  0  0  0  0  0  0  0  0  0  0
   -0.1678   14.6968   -1.9081 H   0  0  0  0  0  0  0  0  0  0  0  0
    1.7331   15.6759   -4.1266 H   0  0  0  0  0  0  0  0  0  0  0  0
   -0.0154   15.2080   -4.3134 H   0  0  0  0  0  0  0  0  0  0  0  0
    0.2985   17.6616   -4.2798 H   0  0  0  0  0  0  0  0  0  0  0  0
   -0.6936   17.0576   -2.8953 H   0  0  0  0  0  0  0  0  0  0  0  0
    0.8391   18.7161   -2.0808 H   0  0  0  0  0  0  0  0  0  0  0  0
    3.1040   18.4280   -2.3950 H   0  0  0  0  0  0  0  0  0  0  0  0
    0.3843   17.0055    0.8647 H   0  0  0  0  0  0  0  0  0  0  0  0
   -0.3933   17.9543   -0.4474 H   0  0  0  0  0  0  0  0  0  0  0  0
   -0.5060   16.1615   -0.4474 H   0  0  0  0  0  0  0  0  0  0  0  0
    2.3235   17.5011    0.8756 H   0  0  0  0  0  0  0  0  0  0  0  0
    3.5200   17.1983   -0.4296 H   0  0  0  0  0  0  0  0  0  0  0  0
    2.5549   18.7134   -0.4296 H   0  0  0  0  0  0  0  0  0  0  0  0
    3.2383   13.1072   -3.3778 H   0  0  0  0  0  0  0  0  0  0  0  0
    2.0547   12.2895   -4.4534 H   0  0  0  0  0  0  0  0  0  0  0  0
    2.1797   14.0814   -4.4534 H   0  0  0  0  0  0  0  0  0  0  0  0
   -0.6889   13.3018   -3.8457 H   0  0  0  0  0  0  0  0  0  0  0  0
    0.2467   11.7020   -3.8662 H   0  0  0  0  0  0  0  0  0  0  0  0
   -1.6005   12.7352   -1.6969 H   0  0  0  0  0  0  0  0  0  0  0  0
   -1.8222   11.3066   -2.7816 H   0  0  0  0  0  0  0  0  0  0  0  0
    0.7199    9.1240   -1.3452 H   0  0  0  0  0  0  0  0  0  0  0  0
   -0.4502    9.3889   -2.6821 H   0  0  0  0  0  0  0  0  0  0  0  0
    1.1243   10.2535   -2.6821 H   0  0  0  0  0  0  0  0  0  0  0  0
  1  2  1  0  0  0  0
  1 33  1  0  0  0  0
  1 34  1  0  0  0  0
  1 35  1  0  0  0  0
  2  3  1  0  0  0  0
  2 10  1  0  0  0  0
  2 36  1  1  0  0  0
  3  4  1  0  0  0  0
  3 37  1  0  0  0  0
  3 38  1  0  0  0  0
  4  5  1  0  0  0  0
  4 39  1  0  0  0  0
  4 40  1  0  0  0  0
  5  6  1  0  0  0  0
  5 41  1  6  0  0  0
  6  7  1  0  0  0  0
  7  8  1  0  0  0  0
  7  9  1  0  0  0  0
  7  5  1  0  0  0  0
  8 42  1  0  0  0  0
  8 43  1  0  0  0  0
  8 44  1  0  0  0  0
  9 45  1  0  0  0  0
  9 46  1  0  0  0  0
  9 47  1  0  0  0  0
 10 11  1  0  0  0  0
 10 48  1  1  0  0  0
 11 12  1  0  0  0  0
 11 49  1  0  0  0  0
 11 50  1  0  0  0  0
 12 13  1  0  0  0  0
 12 51  1  0  0  0  0
 12 52  1  0  0  0  0
 13 14  1  1  0  0  0
 13 15  1  0  0  0  0
 14 53  1  0  0  0  0
 14 54  1  0  0  0  0
 14 55  1  0  0  0  0
 15 16  1  0  0  0  0
 15 56  1  6  0  0  0
 16 17  1  0  0  0  0
 16 57  1  0  0  0  0
 16 58  1  0  0  0  0
 17 18  2  0  0  0  0
 17 59  1  0  0  0  0
 18 19  1  0  0  0  0
 19 20  1  0  0  0  0
 19 27  1  0  0  0  0
 19 60  1  1  0  0  0
 20 21  1  0  0  0  0
 20 61  1  0  0  0  0
 20 62  1  0  0  0  0
 21 22  1  0  0  0  0
 21 63  1  0  0  0  0
 21 64  1  0  0  0  0
 22 23  1  0  0  0  0
 22 24  1  0  0  0  0
 22 65  1  1  0  0  0
 23 66  1  0  0  0  0
 24 25  1  0  0  0  0
 24 26  1  0  0  0  0
 24 18  1  0  0  0  0
 25 67  1  0  0  0  0
 25 68  1  0  0  0  0
 25 69  1  0  0  0  0
 26 70  1  0  0  0  0
 26 71  1  0  0  0  0
 26 72  1  0  0  0  0
 27 28  1  6  0  0  0
 27 29  1  0  0  0  0
 27 15  1  0  0  0  0
 28 73  1  0  0  0  0
 28 74  1  0  0  0  0
 28 75  1  0  0  0  0
 29 30  1  0  0  0  0
 29 76  1  0  0  0  0
 29 77  1  0  0  0  0
 30 31  1  0  0  0  0
 30 78  1  0  0  0  0
 30 79  1  0  0  0  0
 31 32  1  6  0  0  0
 31 10  1  0  0  0  0
 31 13  1  0  0  0  0
 32 80  1  0  0  0  0
 32 81  1  0  0  0  0
 32 82  1  0  0  0  0
M  END
>  <meeko>
{"is_sidechain": [false], "intermolecular_energy": 2.731, "internal_energy": -0.839}

$$$$
