EPH_relaxed_0001_pdb2pqr_Repair_217_r2_0001_out
 OpenBabel07272616253D

 82 86  0  0  0  0  0  0  0  0999 V2000
   -1.7140    8.5910   -1.8780 C   0  0  0  0  0  0  0  0  0  0  0  0
   -2.0910    9.1100   -0.4880 C   0  0  2  0  0  0  0  0  0  0  0  0
   -3.5840    9.4800   -0.3910 C   0  0  0  0  0  0  0  0  0  0  0  0
   -4.5090    8.2700   -0.2370 C   0  0  0  0  0  0  0  0  0  0  0  0
   -5.2080    7.9390   -1.5210 C   0  0  2  0  0  0  0  0  0  0  0  0
   -6.3530    8.7540   -1.8070 O   0  0  0  0  0  0  0  0  0  0  0  0
   -6.6080    7.3570   -1.5860 C   0  0  0  0  0  0  0  0  0  0  0  0
   -7.3920    7.0710   -0.3440 C   0  0  0  0  0  0  0  0  0  0  0  0
   -7.0190    6.6170   -2.8210 C   0  0  0  0  0  0  0  0  0  0  0  0
   -1.2310   10.3180   -0.1330 C   0  0  1  0  0  0  0  0  0  0  0  0
   -0.2030   10.0110    0.9890 C   0  0  0  0  0  0  0  0  0  0  0  0
    1.0690   10.8380    0.6690 C   0  0  0  0  0  0  0  0  0  0  0  0
    0.6200   11.8350   -0.4250 C   0  0  1  0  0  0  0  0  0  0  0  0
   -0.0870   12.9900    0.3520 C   0  0  0  0  0  0  0  0  0  0  0  0
    1.7430   12.3780   -1.3680 C   0  0  2  0  0  0  0  0  0  0  0  0
    2.8450   13.1930   -0.6690 C   0  0  0  0  0  0  0  0  0  0  0  0
    2.5960   14.6620   -0.5840 C   0  0  0  0  0  0  0  0  0  0  0  0
    1.6760   15.3410   -1.2940 C   0  0  0  0  0  0  0  0  0  0  0  0
    0.8330   14.6390   -2.3670 C   0  0  1  0  0  0  0  0  0  0  0  0
    0.8110   15.5030   -3.6550 C   0  0  0  0  0  0  0  0  0  0  0  0
    0.3480   16.9330   -3.3930 C   0  0  0  0  0  0  0  0  0  0  0  0
    1.2450   17.6170   -2.3640 C   0  0  2  0  0  0  0  0  0  0  0  0
    2.5490   17.7850   -2.9300 O   0  0  0  0  0  0  0  0  0  0  0  0
    1.3530   16.8320   -1.0270 C   0  0  0  0  0  0  0  0  0  0  0  0
    0.0040   16.9090   -0.2690 C   0  0  0  0  0  0  0  0  0  0  0  0
    2.3960   17.5540   -0.1320 C   0  0  0  0  0  0  0  0  0  0  0  0
    1.2040   13.1210   -2.6570 C   0  0  1  0  0  0  0  0  0  0  0  0
    2.3400   13.0450   -3.7220 C   0  0  0  0  0  0  0  0  0  0  0  0
   -0.0450   12.3980   -3.2860 C   0  0  0  0  0  0  0  0  0  0  0  0
   -1.0570   11.7780   -2.3040 C   0  0  0  0  0  0  0  0  0  0  0  0
   -0.3470   10.9160   -1.2560 C   0  0  2  0  0  0  0  0  0  0  0  0
    0.3560    9.7340   -2.0060 C   0  0  0  0  0  0  0  0  0  0  0  0
   -1.0703    7.7048   -1.7764 H   0  0  0  0  0  0  0  0  0  0  0  0
   -2.6271    8.3198   -2.4282 H   0  0  0  0  0  0  0  0  0  0  0  0
   -1.1737    9.3755   -2.4282 H   0  0  0  0  0  0  0  0  0  0  0  0
   -1.9053    8.2973    0.2296 H   0  0  0  0  0  0  0  0  0  0  0  0
   -3.7232   10.1367    0.4804 H   0  0  0  0  0  0  0  0  0  0  0  0
   -3.8550    9.9736   -1.3359 H   0  0  0  0  0  0  0  0  0  0  0  0
   -3.9110    7.4019    0.0773 H   0  0  0  0  0  0  0  0  0  0  0  0
   -5.2727    8.5160    0.5154 H   0  0  0  0  0  0  0  0  0  0  0  0
   -4.2593    7.6323   -1.9856 H   0  0  0  0  0  0  0  0  0  0  0  0
   -6.7754    7.2959    0.5387 H   0  0  0  0  0  0  0  0  0  0  0  0
   -8.2963    7.6972   -0.3289 H   0  0  0  0  0  0  0  0  0  0  0  0
   -7.6807    6.0097   -0.3289 H   0  0  0  0  0  0  0  0  0  0  0  0
   -7.5350    5.6879   -2.5371 H   0  0  0  0  0  0  0  0  0  0  0  0
   -7.6971    7.2458   -3.4166 H   0  0  0  0  0  0  0  0  0  0  0  0
   -6.1268    6.3736   -3.4166 H   0  0  0  0  0  0  0  0  0  0  0  0
   -2.0209   11.0314    0.1445 H   0  0  0  0  0  0  0  0  0  0  0  0
   -0.6105   10.3061    1.9672 H   0  0  0  0  0  0  0  0  0  0  0  0
    0.0254    8.9358    1.0319 H   0  0  0  0  0  0  0  0  0  0  0  0
    1.4189   11.3743    1.5634 H   0  0  0  0  0  0  0  0  0  0  0  0
    1.9063   10.2054    0.3392 H   0  0  0  0  0  0  0  0  0  0  0  0
    0.0164   12.8210    1.4340 H   0  0  0  0  0  0  0  0  0  0  0  0
    0.3783   13.9503    0.0847 H   0  0  0  0  0  0  0  0  0  0  0  0
   -1.1538   13.0125    0.0847 H   0  0  0  0  0  0  0  0  0  0  0  0
    2.2289   11.4532   -1.7124 H   0  0  0  0  0  0  0  0  0  0  0  0
    2.9549   12.8072    0.3553 H   0  0  0  0  0  0  0  0  0  0  0  0
    3.7485   13.0731   -1.2848 H   0  0  0  0  0  0  0  0  0  0  0  0
    3.2166   15.2383    0.1180 H   0  0  0  0  0  0  0  0  0  0  0  0
   -0.1829   14.5605   -1.9525 H   0  0  0  0  0  0  0  0  0  0  0  0
    1.8265   15.5329   -4.0768 H   0  0  0  0  0  0  0  0  0  0  0  0
    0.0958   15.0433   -4.3530 H   0  0  0  0  0  0  0  0  0  0  0  0
    0.3824   17.5007   -4.3345 H   0  0  0  0  0  0  0  0  0  0  0  0
   -0.6787   16.9031   -2.9992 H   0  0  0  0  0  0  0  0  0  0  0  0
    0.7885   18.5879   -2.1211 H   0  0  0  0  0  0  0  0  0  0  0  0
    3.0930   17.0310   -2.6450 H   0  0  0  0  0  0  0  0  0  0  0  0
    0.1913   16.8983    0.8149 H   0  0  0  0  0  0  0  0  0  0  0  0
   -0.5174   17.8384   -0.5418 H   0  0  0  0  0  0  0  0  0  0  0  0
   -0.6197   16.0450   -0.5418 H   0  0  0  0  0  0  0  0  0  0  0  0
    2.1507   17.3842    0.9268 H   0  0  0  0  0  0  0  0  0  0  0  0
    3.3993   17.1562   -0.3443 H   0  0  0  0  0  0  0  0  0  0  0  0
    2.3769   18.6331   -0.3443 H   0  0  0  0  0  0  0  0  0  0  0  0
    3.3141   12.9798   -3.2151 H   0  0  0  0  0  0  0  0  0  0  0  0
    2.1938   12.1546   -4.3512 H   0  0  0  0  0  0  0  0  0  0  0  0
    2.3137   13.9469   -4.3512 H   0  0  0  0  0  0  0  0  0  0  0  0
   -0.5842   13.1368   -3.8970 H   0  0  0  0  0  0  0  0  0  0  0  0
    0.3681   11.5475   -3.8482 H   0  0  0  0  0  0  0  0  0  0  0  0
   -1.6049   12.5847   -1.7950 H   0  0  0  0  0  0  0  0  0  0  0  0
   -1.7503   11.1398   -2.8715 H   0  0  0  0  0  0  0  0  0  0  0  0
    0.7744    9.0306   -1.2711 H   0  0  0  0  0  0  0  0  0  0  0  0
   -0.3783    9.2116   -2.6368 H   0  0  0  0  0  0  0  0  0  0  0  0
    1.1656   10.1298   -2.6368 H   0  0  0  0  0  0  0  0  0  0  0  0
  1  2  1  0  0  0  0
  1 33  1  0  0  0  0
  1 34  1  0  0  0  0
  1 35  1  0  0  0  0
  2  3  1  0  0  0  0
  2 10  1  0  0  0  0
  2 36  1  1  0  0  0
  3  4  1  0  0  0  0
  3 37  1  0  0  0  0
  3 38  1  0  0  0  0
  4  5  1  0  0  0  0
  4 39  1  0  0  0  0
  4 40  1  0  0  0  0
  5  6  1  0  0  0  0
  5 41  1  6  0  0  0
  6  7  1  0  0  0  0
  7  8  1  0  0  0  0
  7  9  1  0  0  0  0
  7  5  1  0  0  0  0
  8 42  1  0  0  0  0
  8 43  1  0  0  0  0
  8 44  1  0  0  0  0
  9 45  1  0  0  0  0
  9 46  1  0  0  0  0
  9 47  1  0  0  0  0
 10 11  1  0  0  0  0
 10 48  1  1  0  0  0
 11 12  1  0  0  0  0
 11 49  1  0  0  0  0
 11 50  1  0  0  0  0
 12 13  1  0  0  0  0
 12 51  1  0  0  0  0
 12 52  1  0  0  0  0
 13 14  1  1  0  0  0
 13 15  1  0  0  0  0
 14 53  1  0  0  0  0
 14 54  1  0  0  0  0
 14 55  1  0  0  0  0
 15 16  1  0  0  0  0
 15 56  1  6  0  0  0
 16 17  1  0  0  0  0
 16 57  1  0  0  0  0
 16 58  1  0  0  0  0
 17 18  2  0  0  0  0
 17 59  1  0  0  0  0
 18 19  1  0  0  0  0
 19 20  1  0  0  0  0
 19 27  1  0  0  0  0
 19 60  1  1  0  0  0
 20 21  1  0  0  0  0
 20 61  1  0  0  0  0
 20 62  1  0  0  0  0
 21 22  1  0  0  0  0
 21 63  1  0  0  0  0
 21 64  1  0  0  0  0
 22 23  1  0  0  0  0
 22 24  1  0  0  0  0
 22 65  1  1  0  0  0
 23 66  1  0  0  0  0
 24 25  1  0  0  0  0
 24 26  1  0  0  0  0
 24 18  1  0  0  0  0
 25 67  1  0  0  0  0
 25 68  1  0  0  0  0
 25 69  1  0  0  0  0
 26 70  1  0  0  0  0
 26 71  1  0  0  0  0
 26 72  1  0  0  0  0
 27 28  1  6  0  0  0
 27 29  1  0  0  0  0
 27 15  1  0  0  0  0
 28 73  1  0  0  0  0
 28 74  1  0  0  0  0
 28 75  1  0  0  0  0
 29 30  1  0  0  0  0
 29 76  1  0  0  0  0
 29 77  1  0  0  0  0
 30 31  1  0  0  0  0
 30 78  1  0  0  0  0
 30 79  1  0  0  0  0
 31 32  1  6  0  0  0
 31 10  1  0  0  0  0
 31 13  1  0  0  0  0
 32 80  1  0  0  0  0
 32 81  1  0  0  0  0
 32 82  1  0  0  0  0
M  END
>  <meeko>
{"is_sidechain": [false], "intermolecular_energy": 2.731, "internal_energy": -0.839}

$$$$
