EPH_relaxed_0001_pdb2pqr_Repair_67_r2_0001_out
 OpenBabel07272616253D

 82 86  0  0  0  0  0  0  0  0999 V2000
   -1.6770    8.5690   -1.8560 C   0  0  0  0  0  0  0  0  0  0  0  0
   -2.0640    9.0970   -0.4720 C   0  0  2  0  0  0  0  0  0  0  0  0
   -3.5590    9.4630   -0.3860 C   0  0  0  0  0  0  0  0  0  0  0  0
   -4.4810    8.2500   -0.2360 C   0  0  0  0  0  0  0  0  0  0  0  0
   -5.1840    7.9250   -1.5190 C   0  0  2  0  0  0  0  0  0  0  0  0
   -6.3460    8.7220   -1.7840 O   0  0  0  0  0  0  0  0  0  0  0  0
   -6.5730    7.3170   -1.5820 C   0  0  0  0  0  0  0  0  0  0  0  0
   -7.3420    6.9980   -0.3380 C   0  0  0  0  0  0  0  0  0  0  0  0
   -6.9790    6.5880   -2.8240 C   0  0  0  0  0  0  0  0  0  0  0  0
   -1.2100   10.3100   -0.1210 C   0  0  1  0  0  0  0  0  0  0  0  0
   -0.1820   10.0130    1.0030 C   0  0  0  0  0  0  0  0  0  0  0  0
    1.0860   10.8440    0.6800 C   0  0  0  0  0  0  0  0  0  0  0  0
    0.6340   11.8350   -0.4180 C   0  0  1  0  0  0  0  0  0  0  0  0
   -0.0790   12.9900    0.3530 C   0  0  0  0  0  0  0  0  0  0  0  0
    1.7560   12.3790   -1.3630 C   0  0  2  0  0  0  0  0  0  0  0  0
    2.8530   13.2020   -0.6660 C   0  0  0  0  0  0  0  0  0  0  0  0
    2.5970   14.6710   -0.5890 C   0  0  0  0  0  0  0  0  0  0  0  0
    1.6740   15.3420   -1.3020 C   0  0  0  0  0  0  0  0  0  0  0  0
    0.8360   14.6310   -2.3730 C   0  0  1  0  0  0  0  0  0  0  0  0
    0.8100   15.4900   -3.6650 C   0  0  0  0  0  0  0  0  0  0  0  0
    0.3410   16.9180   -3.4090 C   0  0  0  0  0  0  0  0  0  0  0  0
    1.2340   17.6110   -2.3830 C   0  0  2  0  0  0  0  0  0  0  0  0
    2.5370   17.7830   -2.9480 O   0  0  0  0  0  0  0  0  0  0  0  0
    1.3440   16.8320   -1.0420 C   0  0  0  0  0  0  0  0  0  0  0  0
   -0.0060   16.9060   -0.2850 C   0  0  0  0  0  0  0  0  0  0  0  0
    2.3820   17.5640   -0.1490 C   0  0  0  0  0  0  0  0  0  0  0  0
    1.2140   13.1140   -2.6550 C   0  0  1  0  0  0  0  0  0  0  0  0
    2.3510   13.0380   -3.7190 C   0  0  0  0  0  0  0  0  0  0  0  0
   -0.0300   12.3820   -3.2830 C   0  0  0  0  0  0  0  0  0  0  0  0
   -1.0410   11.7620   -2.2990 C   0  0  0  0  0  0  0  0  0  0  0  0
   -0.3280   10.9080   -1.2460 C   0  0  2  0  0  0  0  0  0  0  0  0
    0.3810    9.7250   -1.9900 C   0  0  0  0  0  0  0  0  0  0  0  0
   -1.0301    7.6864   -1.7440 H   0  0  0  0  0  0  0  0  0  0  0  0
   -2.5858    8.2897   -2.4092 H   0  0  0  0  0  0  0  0  0  0  0  0
   -1.1370    9.3516   -2.4092 H   0  0  0  0  0  0  0  0  0  0  0  0
   -1.8801    8.2900    0.2525 H   0  0  0  0  0  0  0  0  0  0  0  0
   -3.7062   10.1209    0.4832 H   0  0  0  0  0  0  0  0  0  0  0  0
   -3.8251    9.9543   -1.3335 H   0  0  0  0  0  0  0  0  0  0  0  0
   -3.8799    7.3814    0.0709 H   0  0  0  0  0  0  0  0  0  0  0  0
   -5.2426    8.4901    0.5206 H   0  0  0  0  0  0  0  0  0  0  0  0
   -4.2333    7.6435   -1.9954 H   0  0  0  0  0  0  0  0  0  0  0  0
   -6.7343    7.2501    0.5435 H   0  0  0  0  0  0  0  0  0  0  0  0
   -8.2726    7.5843   -0.3217 H   0  0  0  0  0  0  0  0  0  0  0  0
   -7.5843    5.9251   -0.3217 H   0  0  0  0  0  0  0  0  0  0  0  0
   -7.4973    5.6573   -2.5500 H   0  0  0  0  0  0  0  0  0  0  0  0
   -7.6537    7.2224   -3.4175 H   0  0  0  0  0  0  0  0  0  0  0  0
   -6.0844    6.3484   -3.4175 H   0  0  0  0  0  0  0  0  0  0  0  0
   -2.0036   11.0206    0.1532 H   0  0  0  0  0  0  0  0  0  0  0  0
   -0.5916   10.3109    1.9794 H   0  0  0  0  0  0  0  0  0  0  0  0
    0.0512    8.9391    1.0514 H   0  0  0  0  0  0  0  0  0  0  0  0
    1.4333   11.3852    1.5724 H   0  0  0  0  0  0  0  0  0  0  0  0
    1.9257   10.2134    0.3526 H   0  0  0  0  0  0  0  0  0  0  0  0
    0.0226   12.8254    1.4359 H   0  0  0  0  0  0  0  0  0  0  0  0
    0.3832   13.9510    0.0832 H   0  0  0  0  0  0  0  0  0  0  0  0
   -1.1453   13.0074    0.0832 H   0  0  0  0  0  0  0  0  0  0  0  0
    2.2470   11.4555   -1.7037 H   0  0  0  0  0  0  0  0  0  0  0  0
    2.9625   12.8219    0.3604 H   0  0  0  0  0  0  0  0  0  0  0  0
    3.7584   13.0828   -1.2792 H   0  0  0  0  0  0  0  0  0  0  0  0
    3.2152   15.2539    0.1096 H   0  0  0  0  0  0  0  0  0  0  0  0
   -0.1800   14.5489   -1.9596 H   0  0  0  0  0  0  0  0  0  0  0  0
    1.8253   15.5227   -4.0870 H   0  0  0  0  0  0  0  0  0  0  0  0
    0.0968   15.0243   -4.3610 H   0  0  0  0  0  0  0  0  0  0  0  0
    0.3729   17.4819   -4.3530 H   0  0  0  0  0  0  0  0  0  0  0  0
   -0.6854   16.8846   -3.0148 H   0  0  0  0  0  0  0  0  0  0  0  0
    0.7731   18.5811   -2.1453 H   0  0  0  0  0  0  0  0  0  0  0  0
    2.4310   17.8730   -3.9100 H   0  0  0  0  0  0  0  0  0  0  0  0
    0.1804   16.8958    0.7990 H   0  0  0  0  0  0  0  0  0  0  0  0
   -0.5292   17.8342   -0.5583 H   0  0  0  0  0  0  0  0  0  0  0  0
   -0.6276   16.0406   -0.5583 H   0  0  0  0  0  0  0  0  0  0  0  0
    2.1397   17.3931    0.9103 H   0  0  0  0  0  0  0  0  0  0  0  0
    3.3885   17.1748   -0.3623 H   0  0  0  0  0  0  0  0  0  0  0  0
    2.3533   18.6427   -0.3623 H   0  0  0  0  0  0  0  0  0  0  0  0
    3.3246   12.9729   -3.2112 H   0  0  0  0  0  0  0  0  0  0  0  0
    2.2054   12.1476   -4.3483 H   0  0  0  0  0  0  0  0  0  0  0  0
    2.3252   13.9399   -4.3483 H   0  0  0  0  0  0  0  0  0  0  0  0
   -0.5716   13.1151   -3.8988 H   0  0  0  0  0  0  0  0  0  0  0  0
    0.3880   11.5309   -3.8406 H   0  0  0  0  0  0  0  0  0  0  0  0
   -1.5931   12.5686   -1.7945 H   0  0  0  0  0  0  0  0  0  0  0  0
   -1.7310   11.1182   -2.8642 H   0  0  0  0  0  0  0  0  0  0  0  0
    0.8000    9.0259   -1.2513 H   0  0  0  0  0  0  0  0  0  0  0  0
   -0.3500    9.1977   -2.6205 H   0  0  0  0  0  0  0  0  0  0  0  0
    1.1907   10.1211   -2.6205 H   0  0  0  0  0  0  0  0  0  0  0  0
  1  2  1  0  0  0  0
  1 33  1  0  0  0  0
  1 34  1  0  0  0  0
  1 35  1  0  0  0  0
  2  3  1  0  0  0  0
  2 10  1  0  0  0  0
  2 36  1  1  0  0  0
  3  4  1  0  0  0  0
  3 37  1  0  0  0  0
  3 38  1  0  0  0  0
  4  5  1  0  0  0  0
  4 39  1  0  0  0  0
  4 40  1  0  0  0  0
  5  6  1  0  0  0  0
  5 41  1  6  0  0  0
  6  7  1  0  0  0  0
  7  8  1  0  0  0  0
  7  9  1  0  0  0  0
  7  5  1  0  0  0  0
  8 42  1  0  0  0  0
  8 43  1  0  0  0  0
  8 44  1  0  0  0  0
  9 45  1  0  0  0  0
  9 46  1  0  0  0  0
  9 47  1  0  0  0  0
 10 11  1  0  0  0  0
 10 48  1  1  0  0  0
 11 12  1  0  0  0  0
 11 49  1  0  0  0  0
 11 50  1  0  0  0  0
 12 13  1  0  0  0  0
 12 51  1  0  0  0  0
 12 52  1  0  0  0  0
 13 14  1  1  0  0  0
 13 15  1  0  0  0  0
 14 53  1  0  0  0  0
 14 54  1  0  0  0  0
 14 55  1  0  0  0  0
 15 16  1  0  0  0  0
 15 56  1  6  0  0  0
 16 17  1  0  0  0  0
 16 57  1  0  0  0  0
 16 58  1  0  0  0  0
 17 18  2  0  0  0  0
 17 59  1  0  0  0  0
 18 19  1  0  0  0  0
 19 20  1  0  0  0  0
 19 27  1  0  0  0  0
 19 60  1  1  0  0  0
 20 21  1  0  0  0  0
 20 61  1  0  0  0  0
 20 62  1  0  0  0  0
 21 22  1  0  0  0  0
 21 63  1  0  0  0  0
 21 64  1  0  0  0  0
 22 23  1  0  0  0  0
 22 24  1  0  0  0  0
 22 65  1  1  0  0  0
 23 66  1  0  0  0  0
 24 25  1  0  0  0  0
 24 26  1  0  0  0  0
 24 18  1  0  0  0  0
 25 67  1  0  0  0  0
 25 68  1  0  0  0  0
 25 69  1  0  0  0  0
 26 70  1  0  0  0  0
 26 71  1  0  0  0  0
 26 72  1  0  0  0  0
 27 28  1  6  0  0  0
 27 29  1  0  0  0  0
 27 15  1  0  0  0  0
 28 73  1  0  0  0  0
 28 74  1  0  0  0  0
 28 75  1  0  0  0  0
 29 30  1  0  0  0  0
 29 76  1  0  0  0  0
 29 77  1  0  0  0  0
 30 31  1  0  0  0  0
 30 78  1  0  0  0  0
 30 79  1  0  0  0  0
 31 32  1  6  0  0  0
 31 10  1  0  0  0  0
 31 13  1  0  0  0  0
 32 80  1  0  0  0  0
 32 81  1  0  0  0  0
 32 82  1  0  0  0  0
M  END
>  <meeko>
{"is_sidechain": [false], "intermolecular_energy": 2.731, "internal_energy": -0.839}

$$$$
