EPH_relaxed_0001_pdb2pqr_Repair_8_r2_0001_out
 OpenBabel07272616253D

 82 86  0  0  0  0  0  0  0  0999 V2000
   -1.6990    8.5830   -1.8650 C   0  0  0  0  0  0  0  0  0  0  0  0
   -2.0850    9.1070   -0.4790 C   0  0  2  0  0  0  0  0  0  0  0  0
   -3.5810    9.4700   -0.3920 C   0  0  0  0  0  0  0  0  0  0  0  0
   -4.5010    8.2580   -0.2260 C   0  0  0  0  0  0  0  0  0  0  0  0
   -5.1970    7.9090   -1.5070 C   0  0  2  0  0  0  0  0  0  0  0  0
   -6.3450    8.7150   -1.8020 O   0  0  0  0  0  0  0  0  0  0  0  0
   -6.5930    7.3190   -1.5660 C   0  0  0  0  0  0  0  0  0  0  0  0
   -7.3770    7.0420   -0.3220 C   0  0  0  0  0  0  0  0  0  0  0  0
   -6.9990    6.5630   -2.7930 C   0  0  0  0  0  0  0  0  0  0  0  0
   -1.2330   10.3190   -0.1250 C   0  0  1  0  0  0  0  0  0  0  0  0
   -0.2100   10.0220    1.0040 C   0  0  0  0  0  0  0  0  0  0  0  0
    1.0600   10.8520    0.6870 C   0  0  0  0  0  0  0  0  0  0  0  0
    0.6140   11.8430   -0.4140 C   0  0  1  0  0  0  0  0  0  0  0  0
   -0.1030   12.9980    0.3530 C   0  0  0  0  0  0  0  0  0  0  0  0
    1.7400   12.3860   -1.3530 C   0  0  2  0  0  0  0  0  0  0  0  0
    2.8350   13.2080   -0.6520 C   0  0  0  0  0  0  0  0  0  0  0  0
    2.5790   14.6770   -0.5760 C   0  0  0  0  0  0  0  0  0  0  0  0
    1.6600   15.3490   -1.2950 C   0  0  0  0  0  0  0  0  0  0  0  0
    0.8260   14.6380   -2.3690 C   0  0  1  0  0  0  0  0  0  0  0  0
    0.8080   15.4960   -3.6610 C   0  0  0  0  0  0  0  0  0  0  0  0
    0.3370   16.9250   -3.4080 C   0  0  0  0  0  0  0  0  0  0  0  0
    1.2260   17.6180   -2.3780 C   0  0  2  0  0  0  0  0  0  0  0  0
    2.5320   17.7890   -2.9370 O   0  0  0  0  0  0  0  0  0  0  0  0
    1.3290   16.8400   -1.0360 C   0  0  0  0  0  0  0  0  0  0  0  0
   -0.0240   16.9150   -0.2860 C   0  0  0  0  0  0  0  0  0  0  0  0
    2.3640   17.5710   -0.1390 C   0  0  0  0  0  0  0  0  0  0  0  0
    1.2050   13.1210   -2.6490 C   0  0  1  0  0  0  0  0  0  0  0  0
    2.3470   13.0440   -3.7070 C   0  0  0  0  0  0  0  0  0  0  0  0
   -0.0370   12.3890   -3.2820 C   0  0  0  0  0  0  0  0  0  0  0  0
   -1.0520   11.7700   -2.3030 C   0  0  0  0  0  0  0  0  0  0  0  0
   -0.3450   10.9160   -1.2460 C   0  0  2  0  0  0  0  0  0  0  0  0
    0.3670    9.7330   -1.9860 C   0  0  0  0  0  0  0  0  0  0  0  0
   -1.0498    7.7017   -1.7561 H   0  0  0  0  0  0  0  0  0  0  0  0
   -2.6081    8.3027   -2.4173 H   0  0  0  0  0  0  0  0  0  0  0  0
   -1.1618    9.3681   -2.4173 H   0  0  0  0  0  0  0  0  0  0  0  0
   -1.8987    8.2990    0.2439 H   0  0  0  0  0  0  0  0  0  0  0  0
   -3.7267   10.1370    0.4705 H   0  0  0  0  0  0  0  0  0  0  0  0
   -3.8507    9.9495   -1.3445 H   0  0  0  0  0  0  0  0  0  0  0  0
   -3.8997    7.3961    0.0990 H   0  0  0  0  0  0  0  0  0  0  0  0
   -5.2670    8.5096    0.5223 H   0  0  0  0  0  0  0  0  0  0  0  0
   -4.2467    7.6020   -1.9680 H   0  0  0  0  0  0  0  0  0  0  0  0
   -6.7561    7.2614    0.5591 H   0  0  0  0  0  0  0  0  0  0  0  0
   -8.2748    7.6773   -0.3053 H   0  0  0  0  0  0  0  0  0  0  0  0
   -7.6764    5.9837   -0.3053 H   0  0  0  0  0  0  0  0  0  0  0  0
   -7.5005    5.6291   -2.4991 H   0  0  0  0  0  0  0  0  0  0  0  0
   -7.6886    7.1772   -3.3907 H   0  0  0  0  0  0  0  0  0  0  0  0
   -6.1061    6.3273   -3.3907 H   0  0  0  0  0  0  0  0  0  0  0  0
   -2.0278   11.0300    0.1449 H   0  0  0  0  0  0  0  0  0  0  0  0
   -0.6241   10.3205    1.9784 H   0  0  0  0  0  0  0  0  0  0  0  0
    0.0225    8.9480    1.0536 H   0  0  0  0  0  0  0  0  0  0  0  0
    1.4032   11.3934    1.5809 H   0  0  0  0  0  0  0  0  0  0  0  0
    1.9010   10.2207    0.3641 H   0  0  0  0  0  0  0  0  0  0  0  0
   -0.0026   12.8363    1.4364 H   0  0  0  0  0  0  0  0  0  0  0  0
    0.3573   13.9595    0.0816 H   0  0  0  0  0  0  0  0  0  0  0  0
   -1.1689   13.0121    0.0816 H   0  0  0  0  0  0  0  0  0  0  0  0
    2.2315   11.4615   -1.6903 H   0  0  0  0  0  0  0  0  0  0  0  0
    2.9407   12.8278    0.3748 H   0  0  0  0  0  0  0  0  0  0  0  0
    3.7428   13.0883   -1.2616 H   0  0  0  0  0  0  0  0  0  0  0  0
    3.1930   15.2595    0.1267 H   0  0  0  0  0  0  0  0  0  0  0  0
   -0.1920   14.5567   -1.9603 H   0  0  0  0  0  0  0  0  0  0  0  0
    1.8259   15.5286   -4.0768 H   0  0  0  0  0  0  0  0  0  0  0  0
    0.0993   15.0300   -4.3614 H   0  0  0  0  0  0  0  0  0  0  0  0
    0.3731   17.4885   -4.3520 H   0  0  0  0  0  0  0  0  0  0  0  0
   -0.6914   16.8922   -3.0190 H   0  0  0  0  0  0  0  0  0  0  0  0
    0.7647   18.5886   -2.1431 H   0  0  0  0  0  0  0  0  0  0  0  0
    3.0090   18.4270   -2.3800 H   0  0  0  0  0  0  0  0  0  0  0  0
    0.1571   16.9050    0.7989 H   0  0  0  0  0  0  0  0  0  0  0  0
   -0.5453   17.8434   -0.5621 H   0  0  0  0  0  0  0  0  0  0  0  0
   -0.6447   16.0499   -0.5621 H   0  0  0  0  0  0  0  0  0  0  0  0
    2.1190   17.3980    0.9193 H   0  0  0  0  0  0  0  0  0  0  0  0
    3.3713   17.1829   -0.3504 H   0  0  0  0  0  0  0  0  0  0  0  0
    2.3350   18.6501   -0.3504 H   0  0  0  0  0  0  0  0  0  0  0  0
    3.3180   12.9785   -3.1943 H   0  0  0  0  0  0  0  0  0  0  0  0
    2.2040   12.1535   -4.3367 H   0  0  0  0  0  0  0  0  0  0  0  0
    2.3249   13.9457   -4.3367 H   0  0  0  0  0  0  0  0  0  0  0  0
   -0.5757   13.1221   -3.9003 H   0  0  0  0  0  0  0  0  0  0  0  0
    0.3832   11.5374   -3.8372 H   0  0  0  0  0  0  0  0  0  0  0  0
   -1.6062   12.5771   -1.8015 H   0  0  0  0  0  0  0  0  0  0  0  0
   -1.7391   11.1260   -2.8714 H   0  0  0  0  0  0  0  0  0  0  0  0
    0.7863    9.0364   -1.2451 H   0  0  0  0  0  0  0  0  0  0  0  0
   -0.3622    9.2028   -2.6163 H   0  0  0  0  0  0  0  0  0  0  0  0
    1.1769   10.1291   -2.6163 H   0  0  0  0  0  0  0  0  0  0  0  0
  1  2  1  0  0  0  0
  1 33  1  0  0  0  0
  1 34  1  0  0  0  0
  1 35  1  0  0  0  0
  2  3  1  0  0  0  0
  2 10  1  0  0  0  0
  2 36  1  1  0  0  0
  3  4  1  0  0  0  0
  3 37  1  0  0  0  0
  3 38  1  0  0  0  0
  4  5  1  0  0  0  0
  4 39  1  0  0  0  0
  4 40  1  0  0  0  0
  5  6  1  0  0  0  0
  5 41  1  6  0  0  0
  6  7  1  0  0  0  0
  7  8  1  0  0  0  0
  7  9  1  0  0  0  0
  7  5  1  0  0  0  0
  8 42  1  0  0  0  0
  8 43  1  0  0  0  0
  8 44  1  0  0  0  0
  9 45  1  0  0  0  0
  9 46  1  0  0  0  0
  9 47  1  0  0  0  0
 10 11  1  0  0  0  0
 10 48  1  1  0  0  0
 11 12  1  0  0  0  0
 11 49  1  0  0  0  0
 11 50  1  0  0  0  0
 12 13  1  0  0  0  0
 12 51  1  0  0  0  0
 12 52  1  0  0  0  0
 13 14  1  1  0  0  0
 13 15  1  0  0  0  0
 14 53  1  0  0  0  0
 14 54  1  0  0  0  0
 14 55  1  0  0  0  0
 15 16  1  0  0  0  0
 15 56  1  6  0  0  0
 16 17  1  0  0  0  0
 16 57  1  0  0  0  0
 16 58  1  0  0  0  0
 17 18  2  0  0  0  0
 17 59  1  0  0  0  0
 18 19  1  0  0  0  0
 19 20  1  0  0  0  0
 19 27  1  0  0  0  0
 19 60  1  1  0  0  0
 20 21  1  0  0  0  0
 20 61  1  0  0  0  0
 20 62  1  0  0  0  0
 21 22  1  0  0  0  0
 21 63  1  0  0  0  0
 21 64  1  0  0  0  0
 22 23  1  0  0  0  0
 22 24  1  0  0  0  0
 22 65  1  1  0  0  0
 23 66  1  0  0  0  0
 24 25  1  0  0  0  0
 24 26  1  0  0  0  0
 24 18  1  0  0  0  0
 25 67  1  0  0  0  0
 25 68  1  0  0  0  0
 25 69  1  0  0  0  0
 26 70  1  0  0  0  0
 26 71  1  0  0  0  0
 26 72  1  0  0  0  0
 27 28  1  6  0  0  0
 27 29  1  0  0  0  0
 27 15  1  0  0  0  0
 28 73  1  0  0  0  0
 28 74  1  0  0  0  0
 28 75  1  0  0  0  0
 29 30  1  0  0  0  0
 29 76  1  0  0  0  0
 29 77  1  0  0  0  0
 30 31  1  0  0  0  0
 30 78  1  0  0  0  0
 30 79  1  0  0  0  0
 31 32  1  6  0  0  0
 31 10  1  0  0  0  0
 31 13  1  0  0  0  0
 32 80  1  0  0  0  0
 32 81  1  0  0  0  0
 32 82  1  0  0  0  0
M  END
>  <meeko>
{"is_sidechain": [false], "intermolecular_energy": 2.731, "internal_energy": -0.839}

$$$$
