EPH_relaxed_0001_pdb2pqr_Repair_24_r2_0001_out
 OpenBabel07272616253D

 82 86  0  0  0  0  0  0  0  0999 V2000
   -1.7150    8.5820   -1.8750 C   0  0  0  0  0  0  0  0  0  0  0  0
   -2.0950    9.1050   -0.4870 C   0  0  2  0  0  0  0  0  0  0  0  0
   -3.5890    9.4740   -0.3940 C   0  0  0  0  0  0  0  0  0  0  0  0
   -4.5140    8.2630   -0.2390 C   0  0  0  0  0  0  0  0  0  0  0  0
   -5.2130    7.9310   -1.5220 C   0  0  2  0  0  0  0  0  0  0  0  0
   -6.3520    8.7520   -1.8130 O   0  0  0  0  0  0  0  0  0  0  0  0
   -6.6160    7.3580   -1.5860 C   0  0  0  0  0  0  0  0  0  0  0  0
   -7.4040    7.0810   -0.3440 C   0  0  0  0  0  0  0  0  0  0  0  0
   -7.0300    6.6140   -2.8180 C   0  0  0  0  0  0  0  0  0  0  0  0
   -1.2370   10.3140   -0.1350 C   0  0  1  0  0  0  0  0  0  0  0  0
   -0.2120   10.0120    0.9910 C   0  0  0  0  0  0  0  0  0  0  0  0
    1.0600   10.8380    0.6720 C   0  0  0  0  0  0  0  0  0  0  0  0
    0.6150   11.8310   -0.4270 C   0  0  1  0  0  0  0  0  0  0  0  0
   -0.0960   12.9880    0.3430 C   0  0  0  0  0  0  0  0  0  0  0  0
    1.7400   12.3700   -1.3690 C   0  0  2  0  0  0  0  0  0  0  0  0
    2.8400   13.1880   -0.6700 C   0  0  0  0  0  0  0  0  0  0  0  0
    2.5900   14.6580   -0.5920 C   0  0  0  0  0  0  0  0  0  0  0  0
    1.6720   15.3340   -1.3080 C   0  0  0  0  0  0  0  0  0  0  0  0
    0.8320   14.6270   -2.3800 C   0  0  1  0  0  0  0  0  0  0  0  0
    0.8140   15.4860   -3.6720 C   0  0  0  0  0  0  0  0  0  0  0  0
    0.3490   16.9160   -3.4170 C   0  0  0  0  0  0  0  0  0  0  0  0
    1.2430   17.6050   -2.3880 C   0  0  2  0  0  0  0  0  0  0  0  0
    2.5490   17.7710   -2.9510 O   0  0  0  0  0  0  0  0  0  0  0  0
    1.3470   16.8250   -1.0480 C   0  0  0  0  0  0  0  0  0  0  0  0
   -0.0030   16.9050   -0.2940 C   0  0  0  0  0  0  0  0  0  0  0  0
    2.3870   17.5520   -0.1530 C   0  0  0  0  0  0  0  0  0  0  0  0
    1.2050   13.1080   -2.6620 C   0  0  1  0  0  0  0  0  0  0  0  0
    2.3440   13.0280   -3.7240 C   0  0  0  0  0  0  0  0  0  0  0  0
   -0.0420   12.3820   -3.2930 C   0  0  0  0  0  0  0  0  0  0  0  0
   -1.0570   11.7660   -2.3110 C   0  0  0  0  0  0  0  0  0  0  0  0
   -0.3500   10.9080   -1.2570 C   0  0  2  0  0  0  0  0  0  0  0  0
    0.3560    9.7230   -2.0000 C   0  0  0  0  0  0  0  0  0  0  0  0
   -1.0714    7.6962   -1.7695 H   0  0  0  0  0  0  0  0  0  0  0  0
   -2.6269    8.3091   -2.4263 H   0  0  0  0  0  0  0  0  0  0  0  0
   -1.1737    9.3650   -2.4263 H   0  0  0  0  0  0  0  0  0  0  0  0
   -1.9101    8.2950    0.2339 H   0  0  0  0  0  0  0  0  0  0  0  0
   -3.7305   10.1326    0.4756 H   0  0  0  0  0  0  0  0  0  0  0  0
   -3.8583    9.9650   -1.3408 H   0  0  0  0  0  0  0  0  0  0  0  0
   -3.9155    7.3954    0.0756 H   0  0  0  0  0  0  0  0  0  0  0  0
   -5.2777    8.5092    0.5135 H   0  0  0  0  0  0  0  0  0  0  0  0
   -4.2657    7.6161   -1.9841 H   0  0  0  0  0  0  0  0  0  0  0  0
   -6.7852    7.2985    0.5390 H   0  0  0  0  0  0  0  0  0  0  0  0
   -8.3008    7.7178   -0.3291 H   0  0  0  0  0  0  0  0  0  0  0  0
   -7.7051    6.0231   -0.3291 H   0  0  0  0  0  0  0  0  0  0  0  0
   -7.5462    5.6863   -2.5300 H   0  0  0  0  0  0  0  0  0  0  0  0
   -7.7088    7.2413   -3.4145 H   0  0  0  0  0  0  0  0  0  0  0  0
   -6.1391    6.3679   -3.4145 H   0  0  0  0  0  0  0  0  0  0  0  0
   -2.0284   11.0280    0.1368 H   0  0  0  0  0  0  0  0  0  0  0  0
   -0.6226   10.3106    1.9669 H   0  0  0  0  0  0  0  0  0  0  0  0
    0.0170    8.9371    1.0384 H   0  0  0  0  0  0  0  0  0  0  0  0
    1.4068   11.3776    1.5656 H   0  0  0  0  0  0  0  0  0  0  0  0
    1.8983   10.2042    0.3469 H   0  0  0  0  0  0  0  0  0  0  0  0
    0.0048   12.8239    1.4260 H   0  0  0  0  0  0  0  0  0  0  0  0
    0.3683   13.9479    0.0728 H   0  0  0  0  0  0  0  0  0  0  0  0
   -1.1621   13.0074    0.0728 H   0  0  0  0  0  0  0  0  0  0  0  0
    2.2264   11.4437   -1.7087 H   0  0  0  0  0  0  0  0  0  0  0  0
    2.9469   12.8066    0.3562 H   0  0  0  0  0  0  0  0  0  0  0  0
    3.7456   13.0656   -1.2823 H   0  0  0  0  0  0  0  0  0  0  0  0
    3.2080   15.2374    0.1096 H   0  0  0  0  0  0  0  0  0  0  0  0
   -0.1853   14.5496   -1.9687 H   0  0  0  0  0  0  0  0  0  0  0  0
    1.8310   15.5152   -4.0903 H   0  0  0  0  0  0  0  0  0  0  0  0
    0.1020   15.0229   -4.3710 H   0  0  0  0  0  0  0  0  0  0  0  0
    0.3853   17.4801   -4.3607 H   0  0  0  0  0  0  0  0  0  0  0  0
   -0.6787   16.8867   -3.0259 H   0  0  0  0  0  0  0  0  0  0  0  0
    0.7859   18.5769   -2.1504 H   0  0  0  0  0  0  0  0  0  0  0  0
    2.9720   16.8960   -2.9770 H   0  0  0  0  0  0  0  0  0  0  0  0
    0.1815   16.8941    0.7904 H   0  0  0  0  0  0  0  0  0  0  0  0
   -0.5216   17.8355   -0.5684 H   0  0  0  0  0  0  0  0  0  0  0  0
   -0.6279   16.0423   -0.5684 H   0  0  0  0  0  0  0  0  0  0  0  0
    2.1427   17.3812    0.9058 H   0  0  0  0  0  0  0  0  0  0  0  0
    3.3921   17.1588   -0.3654 H   0  0  0  0  0  0  0  0  0  0  0  0
    2.3630   18.6310   -0.3654 H   0  0  0  0  0  0  0  0  0  0  0  0
    3.3164   12.9597   -3.2143 H   0  0  0  0  0  0  0  0  0  0  0  0
    2.1966   12.1380   -4.3534 H   0  0  0  0  0  0  0  0  0  0  0  0
    2.3225   13.9299   -4.3534 H   0  0  0  0  0  0  0  0  0  0  0  0
   -0.5793   13.1182   -3.9089 H   0  0  0  0  0  0  0  0  0  0  0  0
    0.3728   11.5296   -3.8509 H   0  0  0  0  0  0  0  0  0  0  0  0
   -1.6063   12.5748   -1.8070 H   0  0  0  0  0  0  0  0  0  0  0  0
   -1.7486   11.1254   -2.8779 H   0  0  0  0  0  0  0  0  0  0  0  0
    0.7730    9.0232   -1.2608 H   0  0  0  0  0  0  0  0  0  0  0  0
   -0.3762    9.1972   -2.6304 H   0  0  0  0  0  0  0  0  0  0  0  0
    1.1669   10.1166   -2.6304 H   0  0  0  0  0  0  0  0  0  0  0  0
  1  2  1  0  0  0  0
  1 33  1  0  0  0  0
  1 34  1  0  0  0  0
  1 35  1  0  0  0  0
  2  3  1  0  0  0  0
  2 10  1  0  0  0  0
  2 36  1  1  0  0  0
  3  4  1  0  0  0  0
  3 37  1  0  0  0  0
  3 38  1  0  0  0  0
  4  5  1  0  0  0  0
  4 39  1  0  0  0  0
  4 40  1  0  0  0  0
  5  6  1  0  0  0  0
  5 41  1  6  0  0  0
  6  7  1  0  0  0  0
  7  8  1  0  0  0  0
  7  9  1  0  0  0  0
  7  5  1  0  0  0  0
  8 42  1  0  0  0  0
  8 43  1  0  0  0  0
  8 44  1  0  0  0  0
  9 45  1  0  0  0  0
  9 46  1  0  0  0  0
  9 47  1  0  0  0  0
 10 11  1  0  0  0  0
 10 48  1  1  0  0  0
 11 12  1  0  0  0  0
 11 49  1  0  0  0  0
 11 50  1  0  0  0  0
 12 13  1  0  0  0  0
 12 51  1  0  0  0  0
 12 52  1  0  0  0  0
 13 14  1  1  0  0  0
 13 15  1  0  0  0  0
 14 53  1  0  0  0  0
 14 54  1  0  0  0  0
 14 55  1  0  0  0  0
 15 16  1  0  0  0  0
 15 56  1  6  0  0  0
 16 17  1  0  0  0  0
 16 57  1  0  0  0  0
 16 58  1  0  0  0  0
 17 18  2  0  0  0  0
 17 59  1  0  0  0  0
 18 19  1  0  0  0  0
 19 20  1  0  0  0  0
 19 27  1  0  0  0  0
 19 60  1  1  0  0  0
 20 21  1  0  0  0  0
 20 61  1  0  0  0  0
 20 62  1  0  0  0  0
 21 22  1  0  0  0  0
 21 63  1  0  0  0  0
 21 64  1  0  0  0  0
 22 23  1  0  0  0  0
 22 24  1  0  0  0  0
 22 65  1  1  0  0  0
 23 66  1  0  0  0  0
 24 25  1  0  0  0  0
 24 26  1  0  0  0  0
 24 18  1  0  0  0  0
 25 67  1  0  0  0  0
 25 68  1  0  0  0  0
 25 69  1  0  0  0  0
 26 70  1  0  0  0  0
 26 71  1  0  0  0  0
 26 72  1  0  0  0  0
 27 28  1  6  0  0  0
 27 29  1  0  0  0  0
 27 15  1  0  0  0  0
 28 73  1  0  0  0  0
 28 74  1  0  0  0  0
 28 75  1  0  0  0  0
 29 30  1  0  0  0  0
 29 76  1  0  0  0  0
 29 77  1  0  0  0  0
 30 31  1  0  0  0  0
 30 78  1  0  0  0  0
 30 79  1  0  0  0  0
 31 32  1  6  0  0  0
 31 10  1  0  0  0  0
 31 13  1  0  0  0  0
 32 80  1  0  0  0  0
 32 81  1  0  0  0  0
 32 82  1  0  0  0  0
M  END
>  <meeko>
{"is_sidechain": [false], "intermolecular_energy": 2.731, "internal_energy": -0.839}

$$$$
