EPH_relaxed_0001_pdb2pqr_Repair_60_r2_0001_out
 OpenBabel07272616253D

 82 86  0  0  0  0  0  0  0  0999 V2000
   -1.7110    8.5890   -1.8740 C   0  0  0  0  0  0  0  0  0  0  0  0
   -2.0910    9.1110   -0.4860 C   0  0  2  0  0  0  0  0  0  0  0  0
   -3.5860    9.4800   -0.3940 C   0  0  0  0  0  0  0  0  0  0  0  0
   -4.5090    8.2690   -0.2330 C   0  0  0  0  0  0  0  0  0  0  0  0
   -5.2080    7.9300   -1.5150 C   0  0  2  0  0  0  0  0  0  0  0  0
   -6.3540    8.7410   -1.8050 O   0  0  0  0  0  0  0  0  0  0  0  0
   -6.6060    7.3450   -1.5760 C   0  0  0  0  0  0  0  0  0  0  0  0
   -7.3890    7.0630   -0.3330 C   0  0  0  0  0  0  0  0  0  0  0  0
   -7.0150    6.5970   -2.8070 C   0  0  0  0  0  0  0  0  0  0  0  0
   -1.2340   10.3210   -0.1330 C   0  0  1  0  0  0  0  0  0  0  0  0
   -0.2070   10.0180    0.9910 C   0  0  0  0  0  0  0  0  0  0  0  0
    1.0640   10.8450    0.6700 C   0  0  0  0  0  0  0  0  0  0  0  0
    0.6160   11.8400   -0.4250 C   0  0  1  0  0  0  0  0  0  0  0  0
   -0.0950   12.9950    0.3480 C   0  0  0  0  0  0  0  0  0  0  0  0
    1.7390   12.3820   -1.3680 C   0  0  2  0  0  0  0  0  0  0  0  0
    2.8390   13.2000   -0.6700 C   0  0  0  0  0  0  0  0  0  0  0  0
    2.5870   14.6690   -0.5890 C   0  0  0  0  0  0  0  0  0  0  0  0
    1.6670   15.3460   -1.3020 C   0  0  0  0  0  0  0  0  0  0  0  0
    0.8270   14.6400   -2.3740 C   0  0  1  0  0  0  0  0  0  0  0  0
    0.8050   15.5010   -3.6640 C   0  0  0  0  0  0  0  0  0  0  0  0
    0.3390   16.9310   -3.4050 C   0  0  0  0  0  0  0  0  0  0  0  0
    1.2350   17.6180   -2.3770 C   0  0  2  0  0  0  0  0  0  0  0  0
    2.5390   17.7870   -2.9410 O   0  0  0  0  0  0  0  0  0  0  0  0
    1.3420   16.8360   -1.0380 C   0  0  0  0  0  0  0  0  0  0  0  0
   -0.0080   16.9130   -0.2820 C   0  0  0  0  0  0  0  0  0  0  0  0
    2.3820   17.5620   -0.1440 C   0  0  0  0  0  0  0  0  0  0  0  0
    1.2000   13.1220   -2.6600 C   0  0  1  0  0  0  0  0  0  0  0  0
    2.3380   13.0450   -3.7240 C   0  0  0  0  0  0  0  0  0  0  0  0
   -0.0470   12.3950   -3.2890 C   0  0  0  0  0  0  0  0  0  0  0  0
   -1.0590   11.7770   -2.3070 C   0  0  0  0  0  0  0  0  0  0  0  0
   -0.3490   10.9180   -1.2560 C   0  0  2  0  0  0  0  0  0  0  0  0
    0.3560    9.7350   -2.0020 C   0  0  0  0  0  0  0  0  0  0  0  0
   -1.0666    7.7037   -1.7690 H   0  0  0  0  0  0  0  0  0  0  0  0
   -2.6228    8.3155   -2.4252 H   0  0  0  0  0  0  0  0  0  0  0  0
   -1.1706    9.3727   -2.4252 H   0  0  0  0  0  0  0  0  0  0  0  0
   -1.9053    8.3008    0.2345 H   0  0  0  0  0  0  0  0  0  0  0  0
   -3.7277   10.1425    0.4726 H   0  0  0  0  0  0  0  0  0  0  0  0
   -3.8564    9.9670   -1.3426 H   0  0  0  0  0  0  0  0  0  0  0  0
   -3.9093    7.4036    0.0856 H   0  0  0  0  0  0  0  0  0  0  0  0
   -5.2728    8.5177    0.5185 H   0  0  0  0  0  0  0  0  0  0  0  0
   -4.2589    7.6228   -1.9784 H   0  0  0  0  0  0  0  0  0  0  0  0
   -6.7701    7.2859    0.5487 H   0  0  0  0  0  0  0  0  0  0  0  0
   -8.2907    7.6929   -0.3168 H   0  0  0  0  0  0  0  0  0  0  0  0
   -7.6820    6.0029   -0.3168 H   0  0  0  0  0  0  0  0  0  0  0  0
   -7.5242    5.6658   -2.5180 H   0  0  0  0  0  0  0  0  0  0  0  0
   -7.6987    7.2188   -3.4037 H   0  0  0  0  0  0  0  0  0  0  0  0
   -6.1226    6.3570   -3.4037 H   0  0  0  0  0  0  0  0  0  0  0  0
   -2.0256   11.0338    0.1413 H   0  0  0  0  0  0  0  0  0  0  0  0
   -0.6158   10.3155    1.9679 H   0  0  0  0  0  0  0  0  0  0  0  0
    0.0223    8.9432    1.0373 H   0  0  0  0  0  0  0  0  0  0  0  0
    1.4134   11.3827    1.5638 H   0  0  0  0  0  0  0  0  0  0  0  0
    1.9013   10.2120    0.3410 H   0  0  0  0  0  0  0  0  0  0  0  0
    0.0072   12.8290    1.4306 H   0  0  0  0  0  0  0  0  0  0  0  0
    0.3682   13.9558    0.0790 H   0  0  0  0  0  0  0  0  0  0  0  0
   -1.1614   13.0141    0.0790 H   0  0  0  0  0  0  0  0  0  0  0  0
    2.2263   11.4569   -1.7097 H   0  0  0  0  0  0  0  0  0  0  0  0
    2.9486   12.8169    0.3553 H   0  0  0  0  0  0  0  0  0  0  0  0
    3.7436   13.0799   -1.2843 H   0  0  0  0  0  0  0  0  0  0  0  0
    3.2055   15.2477    0.1128 H   0  0  0  0  0  0  0  0  0  0  0  0
   -0.1891   14.5605   -1.9602 H   0  0  0  0  0  0  0  0  0  0  0  0
    1.8209   15.5319   -4.0847 H   0  0  0  0  0  0  0  0  0  0  0  0
    0.0917   15.0385   -4.3621 H   0  0  0  0  0  0  0  0  0  0  0  0
    0.3726   17.4971   -4.3476 H   0  0  0  0  0  0  0  0  0  0  0  0
   -0.6878   16.9004   -3.0117 H   0  0  0  0  0  0  0  0  0  0  0  0
    0.7773   18.5892   -2.1374 H   0  0  0  0  0  0  0  0  0  0  0  0
    2.9850   18.4930   -2.4440 H   0  0  0  0  0  0  0  0  0  0  0  0
    0.1778   16.9024    0.8022 H   0  0  0  0  0  0  0  0  0  0  0  0
   -0.5290   17.8423   -0.5557 H   0  0  0  0  0  0  0  0  0  0  0  0
   -0.6313   16.0489   -0.5557 H   0  0  0  0  0  0  0  0  0  0  0  0
    2.1378   17.3915    0.9149 H   0  0  0  0  0  0  0  0  0  0  0  0
    3.3868   17.1681   -0.3566 H   0  0  0  0  0  0  0  0  0  0  0  0
    2.3586   18.6410   -0.3566 H   0  0  0  0  0  0  0  0  0  0  0  0
    3.3113   12.9791   -3.2158 H   0  0  0  0  0  0  0  0  0  0  0  0
    2.1920   12.1547   -4.3533 H   0  0  0  0  0  0  0  0  0  0  0  0
    2.3132   13.9469   -4.3533 H   0  0  0  0  0  0  0  0  0  0  0  0
   -0.5864   13.1310   -3.9033 H   0  0  0  0  0  0  0  0  0  0  0  0
    0.3682   11.5435   -3.8480 H   0  0  0  0  0  0  0  0  0  0  0  0
   -1.6081   12.5845   -1.8005 H   0  0  0  0  0  0  0  0  0  0  0  0
   -1.7513   11.1369   -2.8735 H   0  0  0  0  0  0  0  0  0  0  0  0
    0.7739    9.0337   -1.2648 H   0  0  0  0  0  0  0  0  0  0  0  0
   -0.3769    9.2104   -2.6326 H   0  0  0  0  0  0  0  0  0  0  0  0
    1.1661   10.1300   -2.6326 H   0  0  0  0  0  0  0  0  0  0  0  0
  1  2  1  0  0  0  0
  1 33  1  0  0  0  0
  1 34  1  0  0  0  0
  1 35  1  0  0  0  0
  2  3  1  0  0  0  0
  2 10  1  0  0  0  0
  2 36  1  1  0  0  0
  3  4  1  0  0  0  0
  3 37  1  0  0  0  0
  3 38  1  0  0  0  0
  4  5  1  0  0  0  0
  4 39  1  0  0  0  0
  4 40  1  0  0  0  0
  5  6  1  0  0  0  0
  5 41  1  6  0  0  0
  6  7  1  0  0  0  0
  7  8  1  0  0  0  0
  7  9  1  0  0  0  0
  7  5  1  0  0  0  0
  8 42  1  0  0  0  0
  8 43  1  0  0  0  0
  8 44  1  0  0  0  0
  9 45  1  0  0  0  0
  9 46  1  0  0  0  0
  9 47  1  0  0  0  0
 10 11  1  0  0  0  0
 10 48  1  1  0  0  0
 11 12  1  0  0  0  0
 11 49  1  0  0  0  0
 11 50  1  0  0  0  0
 12 13  1  0  0  0  0
 12 51  1  0  0  0  0
 12 52  1  0  0  0  0
 13 14  1  1  0  0  0
 13 15  1  0  0  0  0
 14 53  1  0  0  0  0
 14 54  1  0  0  0  0
 14 55  1  0  0  0  0
 15 16  1  0  0  0  0
 15 56  1  6  0  0  0
 16 17  1  0  0  0  0
 16 57  1  0  0  0  0
 16 58  1  0  0  0  0
 17 18  2  0  0  0  0
 17 59  1  0  0  0  0
 18 19  1  0  0  0  0
 19 20  1  0  0  0  0
 19 27  1  0  0  0  0
 19 60  1  1  0  0  0
 20 21  1  0  0  0  0
 20 61  1  0  0  0  0
 20 62  1  0  0  0  0
 21 22  1  0  0  0  0
 21 63  1  0  0  0  0
 21 64  1  0  0  0  0
 22 23  1  0  0  0  0
 22 24  1  0  0  0  0
 22 65  1  1  0  0  0
 23 66  1  0  0  0  0
 24 25  1  0  0  0  0
 24 26  1  0  0  0  0
 24 18  1  0  0  0  0
 25 67  1  0  0  0  0
 25 68  1  0  0  0  0
 25 69  1  0  0  0  0
 26 70  1  0  0  0  0
 26 71  1  0  0  0  0
 26 72  1  0  0  0  0
 27 28  1  6  0  0  0
 27 29  1  0  0  0  0
 27 15  1  0  0  0  0
 28 73  1  0  0  0  0
 28 74  1  0  0  0  0
 28 75  1  0  0  0  0
 29 30  1  0  0  0  0
 29 76  1  0  0  0  0
 29 77  1  0  0  0  0
 30 31  1  0  0  0  0
 30 78  1  0  0  0  0
 30 79  1  0  0  0  0
 31 32  1  6  0  0  0
 31 10  1  0  0  0  0
 31 13  1  0  0  0  0
 32 80  1  0  0  0  0
 32 81  1  0  0  0  0
 32 82  1  0  0  0  0
M  END
>  <meeko>
{"is_sidechain": [false], "intermolecular_energy": 2.731, "internal_energy": -0.839}

$$$$
