EPH_relaxed_0001_pdb2pqr_Repair_409_r2_0001_out
 OpenBabel07272616253D

 82 86  0  0  0  0  0  0  0  0999 V2000
   -1.6990    8.5640   -1.8670 C   0  0  0  0  0  0  0  0  0  0  0  0
   -2.0830    9.0860   -0.4800 C   0  0  2  0  0  0  0  0  0  0  0  0
   -3.5770    9.4570   -0.3920 C   0  0  0  0  0  0  0  0  0  0  0  0
   -4.5040    8.2460   -0.2530 C   0  0  0  0  0  0  0  0  0  0  0  0
   -5.2010    7.9300   -1.5420 C   0  0  2  0  0  0  0  0  0  0  0  0
   -6.3450    8.7480   -1.8200 O   0  0  0  0  0  0  0  0  0  0  0  0
   -6.6000    7.3490   -1.6150 C   0  0  0  0  0  0  0  0  0  0  0  0
   -7.3870    7.0480   -0.3780 C   0  0  0  0  0  0  0  0  0  0  0  0
   -7.0090    6.6220   -2.8590 C   0  0  0  0  0  0  0  0  0  0  0  0
   -1.2250   10.2950   -0.1240 C   0  0  1  0  0  0  0  0  0  0  0  0
   -0.2040    9.9910    1.0050 C   0  0  0  0  0  0  0  0  0  0  0  0
    1.0700   10.8160    0.6900 C   0  0  0  0  0  0  0  0  0  0  0  0
    0.6290   11.8110   -0.4090 C   0  0  1  0  0  0  0  0  0  0  0  0
   -0.0830   12.9680    0.3590 C   0  0  0  0  0  0  0  0  0  0  0  0
    1.7580   12.3490   -1.3470 C   0  0  2  0  0  0  0  0  0  0  0  0
    2.8560   13.1660   -0.6440 C   0  0  0  0  0  0  0  0  0  0  0  0
    2.6070   14.6360   -0.5660 C   0  0  0  0  0  0  0  0  0  0  0  0
    1.6920   15.3130   -1.2840 C   0  0  0  0  0  0  0  0  0  0  0  0
    0.8550   14.6080   -2.3600 C   0  0  1  0  0  0  0  0  0  0  0  0
    0.8410   15.4670   -3.6510 C   0  0  0  0  0  0  0  0  0  0  0  0
    0.3770   16.8980   -3.3970 C   0  0  0  0  0  0  0  0  0  0  0  0
    1.2690   17.5850   -2.3650 C   0  0  2  0  0  0  0  0  0  0  0  0
    2.5760   17.7510   -2.9230 O   0  0  0  0  0  0  0  0  0  0  0  0
    1.3670   16.8050   -1.0240 C   0  0  0  0  0  0  0  0  0  0  0  0
    0.0150   16.8850   -0.2750 C   0  0  0  0  0  0  0  0  0  0  0  0
    2.4050   17.5300   -0.1250 C   0  0  0  0  0  0  0  0  0  0  0  0
    1.2270   13.0880   -2.6420 C   0  0  1  0  0  0  0  0  0  0  0  0
    2.3700   13.0080   -3.7000 C   0  0  0  0  0  0  0  0  0  0  0  0
   -0.0180   12.3640   -3.2770 C   0  0  0  0  0  0  0  0  0  0  0  0
   -1.0370   11.7480   -2.2990 C   0  0  0  0  0  0  0  0  0  0  0  0
   -0.3340   10.8890   -1.2430 C   0  0  2  0  0  0  0  0  0  0  0  0
    0.3730    9.7030   -1.9850 C   0  0  0  0  0  0  0  0  0  0  0  0
   -1.0503    7.6821   -1.7602 H   0  0  0  0  0  0  0  0  0  0  0  0
   -2.6089    8.2852   -2.4187 H   0  0  0  0  0  0  0  0  0  0  0  0
   -1.1619    9.3496   -2.4187 H   0  0  0  0  0  0  0  0  0  0  0  0
   -1.9011    8.2750    0.2406 H   0  0  0  0  0  0  0  0  0  0  0  0
   -3.7224   10.1080    0.4827 H   0  0  0  0  0  0  0  0  0  0  0  0
   -3.8405    9.9574   -1.3355 H   0  0  0  0  0  0  0  0  0  0  0  0
   -3.9075    7.3738    0.0528 H   0  0  0  0  0  0  0  0  0  0  0  0
   -5.2689    8.4846    0.5007 H   0  0  0  0  0  0  0  0  0  0  0  0
   -4.2517    7.6288   -2.0091 H   0  0  0  0  0  0  0  0  0  0  0  0
   -6.7792    7.2805    0.5089 H   0  0  0  0  0  0  0  0  0  0  0  0
   -8.3009    7.6600   -0.3669 H   0  0  0  0  0  0  0  0  0  0  0  0
   -7.6592    5.9823   -0.3669 H   0  0  0  0  0  0  0  0  0  0  0  0
   -7.5315    5.6933   -2.5860 H   0  0  0  0  0  0  0  0  0  0  0  0
   -7.6807    7.2598   -3.4523 H   0  0  0  0  0  0  0  0  0  0  0  0
   -6.1152    6.3790   -3.4523 H   0  0  0  0  0  0  0  0  0  0  0  0
   -2.0164   11.0097    0.1460 H   0  0  0  0  0  0  0  0  0  0  0  0
   -0.6172   10.2895    1.9798 H   0  0  0  0  0  0  0  0  0  0  0  0
    0.0235    8.9158    1.0527 H   0  0  0  0  0  0  0  0  0  0  0  0
    1.4153   11.3541    1.5851 H   0  0  0  0  0  0  0  0  0  0  0  0
    1.9082   10.1816    0.3662 H   0  0  0  0  0  0  0  0  0  0  0  0
    0.0172   12.8052    1.4423 H   0  0  0  0  0  0  0  0  0  0  0  0
    0.3809   13.9279    0.0880 H   0  0  0  0  0  0  0  0  0  0  0  0
   -1.1489   12.9865    0.0880 H   0  0  0  0  0  0  0  0  0  0  0  0
    2.2455   11.4227   -1.6852 H   0  0  0  0  0  0  0  0  0  0  0  0
    2.9592   12.7840    0.3824 H   0  0  0  0  0  0  0  0  0  0  0  0
    3.7634   13.0434   -1.2535 H   0  0  0  0  0  0  0  0  0  0  0  0
    3.2235   15.2145    0.1377 H   0  0  0  0  0  0  0  0  0  0  0  0
   -0.1636   14.5321   -1.9517 H   0  0  0  0  0  0  0  0  0  0  0  0
    1.8590   15.4950   -4.0669 H   0  0  0  0  0  0  0  0  0  0  0  0
    0.1299   15.0050   -4.3516 H   0  0  0  0  0  0  0  0  0  0  0  0
    0.4170   17.4624   -4.3403 H   0  0  0  0  0  0  0  0  0  0  0  0
   -0.6520   16.8703   -3.0093 H   0  0  0  0  0  0  0  0  0  0  0  0
    0.8122   18.5574   -2.1288 H   0  0  0  0  0  0  0  0  0  0  0  0
    2.5180   17.5530   -3.8730 H   0  0  0  0  0  0  0  0  0  0  0  0
    0.1957   16.8743    0.8100 H   0  0  0  0  0  0  0  0  0  0  0  0
   -0.5028   17.8154   -0.5513 H   0  0  0  0  0  0  0  0  0  0  0  0
   -0.6089   16.0222   -0.5513 H   0  0  0  0  0  0  0  0  0  0  0  0
    2.1579   17.3574    0.9329 H   0  0  0  0  0  0  0  0  0  0  0  0
    3.4105   17.1368   -0.3355 H   0  0  0  0  0  0  0  0  0  0  0  0
    2.3819   18.6094   -0.3355 H   0  0  0  0  0  0  0  0  0  0  0  0
    3.3406   12.9401   -3.1868 H   0  0  0  0  0  0  0  0  0  0  0  0
    2.2251   12.1178   -4.3297 H   0  0  0  0  0  0  0  0  0  0  0  0
    2.3505   13.9097   -4.3297 H   0  0  0  0  0  0  0  0  0  0  0  0
   -0.5527   13.1012   -3.8940 H   0  0  0  0  0  0  0  0  0  0  0  0
    0.3980   11.5115   -3.8340 H   0  0  0  0  0  0  0  0  0  0  0  0
   -1.5876   12.5568   -1.7964 H   0  0  0  0  0  0  0  0  0  0  0  0
   -1.7271   11.1082   -2.8686 H   0  0  0  0  0  0  0  0  0  0  0  0
    0.7898    9.0039   -1.2450 H   0  0  0  0  0  0  0  0  0  0  0  0
   -0.3588    9.1765   -2.6153 H   0  0  0  0  0  0  0  0  0  0  0  0
    1.1842   10.0963   -2.6153 H   0  0  0  0  0  0  0  0  0  0  0  0
  1  2  1  0  0  0  0
  1 33  1  0  0  0  0
  1 34  1  0  0  0  0
  1 35  1  0  0  0  0
  2  3  1  0  0  0  0
  2 10  1  0  0  0  0
  2 36  1  1  0  0  0
  3  4  1  0  0  0  0
  3 37  1  0  0  0  0
  3 38  1  0  0  0  0
  4  5  1  0  0  0  0
  4 39  1  0  0  0  0
  4 40  1  0  0  0  0
  5  6  1  0  0  0  0
  5 41  1  6  0  0  0
  6  7  1  0  0  0  0
  7  8  1  0  0  0  0
  7  9  1  0  0  0  0
  7  5  1  0  0  0  0
  8 42  1  0  0  0  0
  8 43  1  0  0  0  0
  8 44  1  0  0  0  0
  9 45  1  0  0  0  0
  9 46  1  0  0  0  0
  9 47  1  0  0  0  0
 10 11  1  0  0  0  0
 10 48  1  1  0  0  0
 11 12  1  0  0  0  0
 11 49  1  0  0  0  0
 11 50  1  0  0  0  0
 12 13  1  0  0  0  0
 12 51  1  0  0  0  0
 12 52  1  0  0  0  0
 13 14  1  1  0  0  0
 13 15  1  0  0  0  0
 14 53  1  0  0  0  0
 14 54  1  0  0  0  0
 14 55  1  0  0  0  0
 15 16  1  0  0  0  0
 15 56  1  6  0  0  0
 16 17  1  0  0  0  0
 16 57  1  0  0  0  0
 16 58  1  0  0  0  0
 17 18  2  0  0  0  0
 17 59  1  0  0  0  0
 18 19  1  0  0  0  0
 19 20  1  0  0  0  0
 19 27  1  0  0  0  0
 19 60  1  1  0  0  0
 20 21  1  0  0  0  0
 20 61  1  0  0  0  0
 20 62  1  0  0  0  0
 21 22  1  0  0  0  0
 21 63  1  0  0  0  0
 21 64  1  0  0  0  0
 22 23  1  0  0  0  0
 22 24  1  0  0  0  0
 22 65  1  1  0  0  0
 23 66  1  0  0  0  0
 24 25  1  0  0  0  0
 24 26  1  0  0  0  0
 24 18  1  0  0  0  0
 25 67  1  0  0  0  0
 25 68  1  0  0  0  0
 25 69  1  0  0  0  0
 26 70  1  0  0  0  0
 26 71  1  0  0  0  0
 26 72  1  0  0  0  0
 27 28  1  6  0  0  0
 27 29  1  0  0  0  0
 27 15  1  0  0  0  0
 28 73  1  0  0  0  0
 28 74  1  0  0  0  0
 28 75  1  0  0  0  0
 29 30  1  0  0  0  0
 29 76  1  0  0  0  0
 29 77  1  0  0  0  0
 30 31  1  0  0  0  0
 30 78  1  0  0  0  0
 30 79  1  0  0  0  0
 31 32  1  6  0  0  0
 31 10  1  0  0  0  0
 31 13  1  0  0  0  0
 32 80  1  0  0  0  0
 32 81  1  0  0  0  0
 32 82  1  0  0  0  0
M  END
>  <meeko>
{"is_sidechain": [false], "intermolecular_energy": 2.731, "internal_energy": -0.839}

$$$$
