EPH_relaxed_0001_pdb2pqr_Repair_281_r2_0001_out
 OpenBabel07272616253D

 82 86  0  0  0  0  0  0  0  0999 V2000
   -1.7130    8.5810   -1.8590 C   0  0  0  0  0  0  0  0  0  0  0  0
   -2.1010    9.1070   -0.4740 C   0  0  2  0  0  0  0  0  0  0  0  0
   -3.5960    9.4770   -0.3910 C   0  0  0  0  0  0  0  0  0  0  0  0
   -4.5190    8.2680   -0.2170 C   0  0  0  0  0  0  0  0  0  0  0  0
   -5.2100    7.9080   -1.4970 C   0  0  2  0  0  0  0  0  0  0  0  0
   -6.3450    8.7240   -1.8150 O   0  0  0  0  0  0  0  0  0  0  0  0
   -6.6130    7.3350   -1.5590 C   0  0  0  0  0  0  0  0  0  0  0  0
   -7.4100    7.0880   -0.3170 C   0  0  0  0  0  0  0  0  0  0  0  0
   -7.0190    6.5650   -2.7770 C   0  0  0  0  0  0  0  0  0  0  0  0
   -1.2450   10.3170   -0.1200 C   0  0  1  0  0  0  0  0  0  0  0  0
   -0.2250   10.0160    1.0110 C   0  0  0  0  0  0  0  0  0  0  0  0
    1.0490   10.8420    0.6960 C   0  0  0  0  0  0  0  0  0  0  0  0
    0.6080   11.8350   -0.4050 C   0  0  1  0  0  0  0  0  0  0  0  0
   -0.1060   12.9920    0.3600 C   0  0  0  0  0  0  0  0  0  0  0  0
    1.7370   12.3730   -1.3430 C   0  0  2  0  0  0  0  0  0  0  0  0
    2.8330   13.1920   -0.6400 C   0  0  0  0  0  0  0  0  0  0  0  0
    2.5820   14.6620   -0.5650 C   0  0  0  0  0  0  0  0  0  0  0  0
    1.6670   15.3370   -1.2850 C   0  0  0  0  0  0  0  0  0  0  0  0
    0.8320   14.6290   -2.3600 C   0  0  1  0  0  0  0  0  0  0  0  0
    0.8190   15.4860   -3.6530 C   0  0  0  0  0  0  0  0  0  0  0  0
    0.3530   16.9170   -3.4010 C   0  0  0  0  0  0  0  0  0  0  0  0
    1.2420   17.6060   -2.3700 C   0  0  2  0  0  0  0  0  0  0  0  0
    2.5500   17.7730   -2.9260 O   0  0  0  0  0  0  0  0  0  0  0  0
    1.3410   16.8280   -1.0280 C   0  0  0  0  0  0  0  0  0  0  0  0
   -0.0130   16.9080   -0.2790 C   0  0  0  0  0  0  0  0  0  0  0  0
    2.3770   17.5560   -0.1290 C   0  0  0  0  0  0  0  0  0  0  0  0
    1.2070   13.1100   -2.6400 C   0  0  1  0  0  0  0  0  0  0  0  0
    2.3500   13.0290   -3.6970 C   0  0  0  0  0  0  0  0  0  0  0  0
   -0.0370   12.3820   -3.2750 C   0  0  0  0  0  0  0  0  0  0  0  0
   -1.0560   11.7670   -2.2970 C   0  0  0  0  0  0  0  0  0  0  0  0
   -0.3530   10.9100   -1.2390 C   0  0  2  0  0  0  0  0  0  0  0  0
    0.3560    9.7250   -1.9780 C   0  0  0  0  0  0  0  0  0  0  0  0
   -1.0634    7.7003   -1.7480 H   0  0  0  0  0  0  0  0  0  0  0  0
   -2.6213    8.2993   -2.4119 H   0  0  0  0  0  0  0  0  0  0  0  0
   -1.1757    9.3656   -2.4119 H   0  0  0  0  0  0  0  0  0  0  0  0
   -1.9204    8.2986    0.2498 H   0  0  0  0  0  0  0  0  0  0  0  0
   -3.7402   10.1506    0.4666 H   0  0  0  0  0  0  0  0  0  0  0  0
   -3.8638    9.9518   -1.3464 H   0  0  0  0  0  0  0  0  0  0  0  0
   -3.9205    7.4083    0.1188 H   0  0  0  0  0  0  0  0  0  0  0  0
   -5.2877    8.5281    0.5256 H   0  0  0  0  0  0  0  0  0  0  0  0
   -4.2598    7.5813   -1.9446 H   0  0  0  0  0  0  0  0  0  0  0  0
   -6.7830    7.2823    0.5657 H   0  0  0  0  0  0  0  0  0  0  0  0
   -8.2823    7.7579   -0.3018 H   0  0  0  0  0  0  0  0  0  0  0  0
   -7.7506    6.0422   -0.3018 H   0  0  0  0  0  0  0  0  0  0  0  0
   -7.5120    5.6301   -2.4723 H   0  0  0  0  0  0  0  0  0  0  0  0
   -7.7161    7.1685   -3.3768 H   0  0  0  0  0  0  0  0  0  0  0  0
   -6.1272    6.3307   -3.3768 H   0  0  0  0  0  0  0  0  0  0  0  0
   -2.0375   11.0315    0.1471 H   0  0  0  0  0  0  0  0  0  0  0  0
   -0.6397   10.3158    1.9847 H   0  0  0  0  0  0  0  0  0  0  0  0
    0.0035    8.9412    1.0610 H   0  0  0  0  0  0  0  0  0  0  0  0
    1.3929   11.3818    1.5906 H   0  0  0  0  0  0  0  0  0  0  0  0
    1.8882   10.2079    0.3740 H   0  0  0  0  0  0  0  0  0  0  0  0
   -0.0067   12.8311    1.4436 H   0  0  0  0  0  0  0  0  0  0  0  0
    0.3570   13.9520    0.0879 H   0  0  0  0  0  0  0  0  0  0  0  0
   -1.1717   13.0087    0.0879 H   0  0  0  0  0  0  0  0  0  0  0  0
    2.2251   11.4466   -1.6799 H   0  0  0  0  0  0  0  0  0  0  0  0
    2.9352   12.8119    0.3872 H   0  0  0  0  0  0  0  0  0  0  0  0
    3.7415   13.0692   -1.2478 H   0  0  0  0  0  0  0  0  0  0  0  0
    3.1971   15.2424    0.1384 H   0  0  0  0  0  0  0  0  0  0  0  0
   -0.1867   14.5522   -1.9521 H   0  0  0  0  0  0  0  0  0  0  0  0
    1.8375   15.5145   -4.0675 H   0  0  0  0  0  0  0  0  0  0  0  0
    0.1097   15.0222   -4.3543 H   0  0  0  0  0  0  0  0  0  0  0  0
    0.3932   17.4803   -4.3450 H   0  0  0  0  0  0  0  0  0  0  0  0
   -0.6763   16.8882   -3.0141 H   0  0  0  0  0  0  0  0  0  0  0  0
    0.7825   18.5777   -2.1363 H   0  0  0  0  0  0  0  0  0  0  0  0
    2.9050   18.6160   -2.5970 H   0  0  0  0  0  0  0  0  0  0  0  0
    0.1670   16.8974    0.8061 H   0  0  0  0  0  0  0  0  0  0  0  0
   -0.5307   17.8383   -0.5557 H   0  0  0  0  0  0  0  0  0  0  0  0
   -0.6366   16.0451   -0.5557 H   0  0  0  0  0  0  0  0  0  0  0  0
    2.1304   17.3827    0.9289 H   0  0  0  0  0  0  0  0  0  0  0  0
    3.3836   17.1656   -0.3395 H   0  0  0  0  0  0  0  0  0  0  0  0
    2.3509   18.6353   -0.3395 H   0  0  0  0  0  0  0  0  0  0  0  0
    3.3203   12.9602   -3.1833 H   0  0  0  0  0  0  0  0  0  0  0  0
    2.2046   12.1389   -4.3268 H   0  0  0  0  0  0  0  0  0  0  0  0
    2.3316   13.9307   -4.3268 H   0  0  0  0  0  0  0  0  0  0  0  0
   -0.5721   13.1168   -3.8945 H   0  0  0  0  0  0  0  0  0  0  0  0
    0.3810   11.5287   -3.8293 H   0  0  0  0  0  0  0  0  0  0  0  0
   -1.6075   12.5762   -1.7961 H   0  0  0  0  0  0  0  0  0  0  0  0
   -1.7453   11.1259   -2.8661 H   0  0  0  0  0  0  0  0  0  0  0  0
    0.7732    9.0277   -1.2366 H   0  0  0  0  0  0  0  0  0  0  0  0
   -0.3744    9.1964   -2.6082 H   0  0  0  0  0  0  0  0  0  0  0  0
    1.1671   10.1187   -2.6082 H   0  0  0  0  0  0  0  0  0  0  0  0
  1  2  1  0  0  0  0
  1 33  1  0  0  0  0
  1 34  1  0  0  0  0
  1 35  1  0  0  0  0
  2  3  1  0  0  0  0
  2 10  1  0  0  0  0
  2 36  1  1  0  0  0
  3  4  1  0  0  0  0
  3 37  1  0  0  0  0
  3 38  1  0  0  0  0
  4  5  1  0  0  0  0
  4 39  1  0  0  0  0
  4 40  1  0  0  0  0
  5  6  1  0  0  0  0
  5 41  1  6  0  0  0
  6  7  1  0  0  0  0
  7  8  1  0  0  0  0
  7  9  1  0  0  0  0
  7  5  1  0  0  0  0
  8 42  1  0  0  0  0
  8 43  1  0  0  0  0
  8 44  1  0  0  0  0
  9 45  1  0  0  0  0
  9 46  1  0  0  0  0
  9 47  1  0  0  0  0
 10 11  1  0  0  0  0
 10 48  1  1  0  0  0
 11 12  1  0  0  0  0
 11 49  1  0  0  0  0
 11 50  1  0  0  0  0
 12 13  1  0  0  0  0
 12 51  1  0  0  0  0
 12 52  1  0  0  0  0
 13 14  1  1  0  0  0
 13 15  1  0  0  0  0
 14 53  1  0  0  0  0
 14 54  1  0  0  0  0
 14 55  1  0  0  0  0
 15 16  1  0  0  0  0
 15 56  1  6  0  0  0
 16 17  1  0  0  0  0
 16 57  1  0  0  0  0
 16 58  1  0  0  0  0
 17 18  2  0  0  0  0
 17 59  1  0  0  0  0
 18 19  1  0  0  0  0
 19 20  1  0  0  0  0
 19 27  1  0  0  0  0
 19 60  1  1  0  0  0
 20 21  1  0  0  0  0
 20 61  1  0  0  0  0
 20 62  1  0  0  0  0
 21 22  1  0  0  0  0
 21 63  1  0  0  0  0
 21 64  1  0  0  0  0
 22 23  1  0  0  0  0
 22 24  1  0  0  0  0
 22 65  1  1  0  0  0
 23 66  1  0  0  0  0
 24 25  1  0  0  0  0
 24 26  1  0  0  0  0
 24 18  1  0  0  0  0
 25 67  1  0  0  0  0
 25 68  1  0  0  0  0
 25 69  1  0  0  0  0
 26 70  1  0  0  0  0
 26 71  1  0  0  0  0
 26 72  1  0  0  0  0
 27 28  1  6  0  0  0
 27 29  1  0  0  0  0
 27 15  1  0  0  0  0
 28 73  1  0  0  0  0
 28 74  1  0  0  0  0
 28 75  1  0  0  0  0
 29 30  1  0  0  0  0
 29 76  1  0  0  0  0
 29 77  1  0  0  0  0
 30 31  1  0  0  0  0
 30 78  1  0  0  0  0
 30 79  1  0  0  0  0
 31 32  1  6  0  0  0
 31 10  1  0  0  0  0
 31 13  1  0  0  0  0
 32 80  1  0  0  0  0
 32 81  1  0  0  0  0
 32 82  1  0  0  0  0
M  END
>  <meeko>
{"is_sidechain": [false], "intermolecular_energy": 2.731, "internal_energy": -0.839}

$$$$
