EPH_relaxed_0001_pdb2pqr_Repair_116_r2_0001_out
 OpenBabel07272616253D

 82 86  0  0  0  0  0  0  0  0999 V2000
   -1.1310    8.5740   -1.3920 C   0  0  0  0  0  0  0  0  0  0  0  0
   -1.8520    9.3460   -0.2840 C   0  0  2  0  0  0  0  0  0  0  0  0
   -3.2920    9.7280   -0.6840 C   0  0  0  0  0  0  0  0  0  0  0  0
   -4.3090    8.6040   -0.4680 C   0  0  0  0  0  0  0  0  0  0  0  0
   -4.8190    8.0610   -1.7690 C   0  0  2  0  0  0  0  0  0  0  0  0
   -5.9300    8.7790   -2.3220 O   0  0  0  0  0  0  0  0  0  0  0  0
   -6.1850    7.4200   -1.9300 C   0  0  0  0  0  0  0  0  0  0  0  0
   -7.1260    7.2870   -0.7730 C   0  0  0  0  0  0  0  0  0  0  0  0
   -6.4080    6.4920   -3.0820 C   0  0  0  0  0  0  0  0  0  0  0  0
   -1.0620   10.5990    0.0760 C   0  0  1  0  0  0  0  0  0  0  0  0
   -0.0550   10.3590    1.2320 C   0  0  0  0  0  0  0  0  0  0  0  0
    1.1850   11.2400    0.9360 C   0  0  0  0  0  0  0  0  0  0  0  0
    0.7230   12.1980   -0.1870 C   0  0  1  0  0  0  0  0  0  0  0  0
   -0.0610   13.3300    0.5490 C   0  0  0  0  0  0  0  0  0  0  0  0
    1.8470   12.7790   -1.1060 C   0  0  2  0  0  0  0  0  0  0  0  0
    2.8880   13.6560   -0.3880 C   0  0  0  0  0  0  0  0  0  0  0  0
    2.5670   15.1130   -0.3360 C   0  0  0  0  0  0  0  0  0  0  0  0
    1.6370   15.7370   -1.0850 C   0  0  0  0  0  0  0  0  0  0  0  0
    0.8620   14.9790   -2.1700 C   0  0  1  0  0  0  0  0  0  0  0  0
    0.8370   15.8200   -3.4720 C   0  0  0  0  0  0  0  0  0  0  0  0
    0.3000   17.2300   -3.2480 C   0  0  0  0  0  0  0  0  0  0  0  0
    1.1320   17.9720   -2.2050 C   0  0  2  0  0  0  0  0  0  0  0  0
    2.4430   18.1940   -2.7350 O   0  0  0  0  0  0  0  0  0  0  0  0
    1.2360   17.2140   -0.8520 C   0  0  0  0  0  0  0  0  0  0  0  0
   -0.1370   17.2380   -0.1360 C   0  0  0  0  0  0  0  0  0  0  0  0
    2.2160   17.9990    0.0600 C   0  0  0  0  0  0  0  0  0  0  0  0
    1.3130   13.4760   -2.4220 C   0  0  1  0  0  0  0  0  0  0  0  0
    2.4830   13.4370   -3.4520 C   0  0  0  0  0  0  0  0  0  0  0  0
    0.1190   12.6840   -3.0760 C   0  0  0  0  0  0  0  0  0  0  0  0
   -0.8920   12.0320   -2.1140 C   0  0  0  0  0  0  0  0  0  0  0  0
   -0.1740   11.2210   -1.0310 C   0  0  2  0  0  0  0  0  0  0  0  0
    0.6070   10.0620   -1.7390 C   0  0  0  0  0  0  0  0  0  0  0  0
   -0.4460    7.8405   -0.9418 H   0  0  0  0  0  0  0  0  0  0  0  0
   -1.8709    8.0504   -2.0152 H   0  0  0  0  0  0  0  0  0  0  0  0
   -0.5581    9.2764   -2.0152 H   0  0  0  0  0  0  0  0  0  0  0  0
   -1.9173    8.6833    0.5916 H   0  0  0  0  0  0  0  0  0  0  0  0
   -3.6008   10.5960   -0.0830 H   0  0  0  0  0  0  0  0  0  0  0  0
   -3.2790    9.9473   -1.7618 H   0  0  0  0  0  0  0  0  0  0  0  0
   -3.8271    7.7902    0.0937 H   0  0  0  0  0  0  0  0  0  0  0  0
   -5.1626    9.0161    0.0901 H   0  0  0  0  0  0  0  0  0  0  0  0
   -3.8099    7.7280   -2.0532 H   0  0  0  0  0  0  0  0  0  0  0  0
   -6.5629    7.3666    0.1686 H   0  0  0  0  0  0  0  0  0  0  0  0
   -7.8789    8.0877   -0.8188 H   0  0  0  0  0  0  0  0  0  0  0  0
   -7.6275    6.3090   -0.8188 H   0  0  0  0  0  0  0  0  0  0  0  0
   -6.6493    5.4880   -2.7027 H   0  0  0  0  0  0  0  0  0  0  0  0
   -7.2426    6.8627   -3.6952 H   0  0  0  0  0  0  0  0  0  0  0  0
   -5.4961    6.4430   -3.6952 H   0  0  0  0  0  0  0  0  0  0  0  0
   -1.8927   11.2780    0.3187 H   0  0  0  0  0  0  0  0  0  0  0  0
   -0.5052   10.6494    2.1927 H   0  0  0  0  0  0  0  0  0  0  0  0
    0.2226    9.2967    1.2993 H   0  0  0  0  0  0  0  0  0  0  0  0
    1.4822   11.8057    1.8313 H   0  0  0  0  0  0  0  0  0  0  0  0
    2.0606   10.6429    0.6413 H   0  0  0  0  0  0  0  0  0  0  0  0
    0.0332   13.1939    1.6365 H   0  0  0  0  0  0  0  0  0  0  0  0
    0.3541   14.3082    0.2645 H   0  0  0  0  0  0  0  0  0  0  0  0
   -1.1226   13.2854    0.2645 H   0  0  0  0  0  0  0  0  0  0  0  0
    2.3856   11.8732   -1.4213 H   0  0  0  0  0  0  0  0  0  0  0  0
    2.9843   13.2920    0.6456 H   0  0  0  0  0  0  0  0  0  0  0  0
    3.8151   13.5692   -0.9737 H   0  0  0  0  0  0  0  0  0  0  0  0
    3.1381   15.7293    0.3739 H   0  0  0  0  0  0  0  0  0  0  0  0
   -0.1612   14.8585   -1.7847 H   0  0  0  0  0  0  0  0  0  0  0  0
    1.8618   15.8914   -3.8652 H   0  0  0  0  0  0  0  0  0  0  0  0
    0.1649   15.3159   -4.1820 H   0  0  0  0  0  0  0  0  0  0  0  0
    0.3361   17.7839   -4.1977 H   0  0  0  0  0  0  0  0  0  0  0  0
   -0.7354   17.1574   -2.8839 H   0  0  0  0  0  0  0  0  0  0  0  0
    0.6230   18.9237   -1.9923 H   0  0  0  0  0  0  0  0  0  0  0  0
    2.6850   19.1160   -2.5440 H   0  0  0  0  0  0  0  0  0  0  0  0
    0.0173   17.2353    0.9531 H   0  0  0  0  0  0  0  0  0  0  0  0
   -0.6861   18.1459   -0.4263 H   0  0  0  0  0  0  0  0  0  0  0  0
   -0.7175   16.3499   -0.4263 H   0  0  0  0  0  0  0  0  0  0  0  0
    1.9719   17.8034    1.1146 H   0  0  0  0  0  0  0  0  0  0  0  0
    3.2469   17.6740   -0.1441 H   0  0  0  0  0  0  0  0  0  0  0  0
    2.1239   19.0760   -0.1441 H   0  0  0  0  0  0  0  0  0  0  0  0
    3.4428   13.4050   -2.9156 H   0  0  0  0  0  0  0  0  0  0  0  0
    2.3859   12.5416   -4.0835 H   0  0  0  0  0  0  0  0  0  0  0  0
    2.4457   14.3369   -4.0835 H   0  0  0  0  0  0  0  0  0  0  0  0
   -0.4356   13.3865   -3.7155 H   0  0  0  0  0  0  0  0  0  0  0  0
    0.5888   11.8456   -3.6112 H   0  0  0  0  0  0  0  0  0  0  0  0
   -1.4924   12.8195   -1.6351 H   0  0  0  0  0  0  0  0  0  0  0  0
   -1.5372   11.3529   -2.6908 H   0  0  0  0  0  0  0  0  0  0  0  0
    1.0517    9.4021   -0.9795 H   0  0  0  0  0  0  0  0  0  0  0  0
   -0.0860    9.4832   -2.3673 H   0  0  0  0  0  0  0  0  0  0  0  0
    1.4037   10.4870   -2.3673 H   0  0  0  0  0  0  0  0  0  0  0  0
  1  2  1  0  0  0  0
  1 33  1  0  0  0  0
  1 34  1  0  0  0  0
  1 35  1  0  0  0  0
  2  3  1  0  0  0  0
  2 10  1  0  0  0  0
  2 36  1  1  0  0  0
  3  4  1  0  0  0  0
  3 37  1  0  0  0  0
  3 38  1  0  0  0  0
  4  5  1  0  0  0  0
  4 39  1  0  0  0  0
  4 40  1  0  0  0  0
  5  6  1  0  0  0  0
  5 41  1  6  0  0  0
  6  7  1  0  0  0  0
  7  8  1  0  0  0  0
  7  9  1  0  0  0  0
  7  5  1  0  0  0  0
  8 42  1  0  0  0  0
  8 43  1  0  0  0  0
  8 44  1  0  0  0  0
  9 45  1  0  0  0  0
  9 46  1  0  0  0  0
  9 47  1  0  0  0  0
 10 11  1  0  0  0  0
 10 48  1  1  0  0  0
 11 12  1  0  0  0  0
 11 49  1  0  0  0  0
 11 50  1  0  0  0  0
 12 13  1  0  0  0  0
 12 51  1  0  0  0  0
 12 52  1  0  0  0  0
 13 14  1  1  0  0  0
 13 15  1  0  0  0  0
 14 53  1  0  0  0  0
 14 54  1  0  0  0  0
 14 55  1  0  0  0  0
 15 16  1  0  0  0  0
 15 56  1  6  0  0  0
 16 17  1  0  0  0  0
 16 57  1  0  0  0  0
 16 58  1  0  0  0  0
 17 18  2  0  0  0  0
 17 59  1  0  0  0  0
 18 19  1  0  0  0  0
 19 20  1  0  0  0  0
 19 27  1  0  0  0  0
 19 60  1  1  0  0  0
 20 21  1  0  0  0  0
 20 61  1  0  0  0  0
 20 62  1  0  0  0  0
 21 22  1  0  0  0  0
 21 63  1  0  0  0  0
 21 64  1  0  0  0  0
 22 23  1  0  0  0  0
 22 24  1  0  0  0  0
 22 65  1  1  0  0  0
 23 66  1  0  0  0  0
 24 25  1  0  0  0  0
 24 26  1  0  0  0  0
 24 18  1  0  0  0  0
 25 67  1  0  0  0  0
 25 68  1  0  0  0  0
 25 69  1  0  0  0  0
 26 70  1  0  0  0  0
 26 71  1  0  0  0  0
 26 72  1  0  0  0  0
 27 28  1  6  0  0  0
 27 29  1  0  0  0  0
 27 15  1  0  0  0  0
 28 73  1  0  0  0  0
 28 74  1  0  0  0  0
 28 75  1  0  0  0  0
 29 30  1  0  0  0  0
 29 76  1  0  0  0  0
 29 77  1  0  0  0  0
 30 31  1  0  0  0  0
 30 78  1  0  0  0  0
 30 79  1  0  0  0  0
 31 32  1  6  0  0  0
 31 10  1  0  0  0  0
 31 13  1  0  0  0  0
 32 80  1  0  0  0  0
 32 81  1  0  0  0  0
 32 82  1  0  0  0  0
M  END
>  <meeko>
{"is_sidechain": [false], "intermolecular_energy": 2.731, "internal_energy": -0.839}

$$$$
