EPH_relaxed_0001_pdb2pqr_Repair_283_r2_0001_out
 OpenBabel07272616253D

 82 86  0  0  0  0  0  0  0  0999 V2000
   -1.7190    8.5860   -1.8710 C   0  0  0  0  0  0  0  0  0  0  0  0
   -2.1000    9.1060   -0.4820 C   0  0  2  0  0  0  0  0  0  0  0  0
   -3.5950    9.4720   -0.3890 C   0  0  0  0  0  0  0  0  0  0  0  0
   -4.5160    8.2610   -0.2210 C   0  0  0  0  0  0  0  0  0  0  0  0
   -5.2160    7.9140   -1.5000 C   0  0  2  0  0  0  0  0  0  0  0  0
   -6.3510    8.7360   -1.8030 O   0  0  0  0  0  0  0  0  0  0  0  0
   -6.6220    7.3460   -1.5570 C   0  0  0  0  0  0  0  0  0  0  0  0
   -7.4120    7.0920   -0.3120 C   0  0  0  0  0  0  0  0  0  0  0  0
   -7.0370    6.5880   -2.7790 C   0  0  0  0  0  0  0  0  0  0  0  0
   -1.2440   10.3160   -0.1280 C   0  0  1  0  0  0  0  0  0  0  0  0
   -0.2230   10.0150    1.0010 C   0  0  0  0  0  0  0  0  0  0  0  0
    1.0500   10.8420    0.6850 C   0  0  0  0  0  0  0  0  0  0  0  0
    0.6060   11.8350   -0.4150 C   0  0  1  0  0  0  0  0  0  0  0  0
   -0.1070   12.9920    0.3520 C   0  0  0  0  0  0  0  0  0  0  0  0
    1.7340   12.3750   -1.3540 C   0  0  2  0  0  0  0  0  0  0  0  0
    2.8310   13.1940   -0.6530 C   0  0  0  0  0  0  0  0  0  0  0  0
    2.5790   14.6640   -0.5760 C   0  0  0  0  0  0  0  0  0  0  0  0
    1.6620   15.3380   -1.2940 C   0  0  0  0  0  0  0  0  0  0  0  0
    0.8270   14.6310   -2.3690 C   0  0  1  0  0  0  0  0  0  0  0  0
    0.8100   15.4890   -3.6610 C   0  0  0  0  0  0  0  0  0  0  0  0
    0.3440   16.9190   -3.4070 C   0  0  0  0  0  0  0  0  0  0  0  0
    1.2350   17.6090   -2.3760 C   0  0  2  0  0  0  0  0  0  0  0  0
    2.5410   17.7760   -2.9350 O   0  0  0  0  0  0  0  0  0  0  0  0
    1.3360   16.8300   -1.0350 C   0  0  0  0  0  0  0  0  0  0  0  0
   -0.0170   16.9080   -0.2850 C   0  0  0  0  0  0  0  0  0  0  0  0
    2.3730   17.5570   -0.1370 C   0  0  0  0  0  0  0  0  0  0  0  0
    1.2010   13.1120   -2.6490 C   0  0  1  0  0  0  0  0  0  0  0  0
    2.3430   13.0330   -3.7080 C   0  0  0  0  0  0  0  0  0  0  0  0
   -0.0430   12.3840   -3.2830 C   0  0  0  0  0  0  0  0  0  0  0  0
   -1.0600   11.7680   -2.3040 C   0  0  0  0  0  0  0  0  0  0  0  0
   -0.3550   10.9110   -1.2480 C   0  0  2  0  0  0  0  0  0  0  0  0
    0.3540    9.7260   -1.9890 C   0  0  0  0  0  0  0  0  0  0  0  0
   -1.0718    7.7027   -1.7670 H   0  0  0  0  0  0  0  0  0  0  0  0
   -2.6303    8.3101   -2.4219 H   0  0  0  0  0  0  0  0  0  0  0  0
   -1.1813    9.3717   -2.4219 H   0  0  0  0  0  0  0  0  0  0  0  0
   -1.9137    8.2954    0.2379 H   0  0  0  0  0  0  0  0  0  0  0  0
   -3.7363   10.1382    0.4749 H   0  0  0  0  0  0  0  0  0  0  0  0
   -3.8676    9.9536   -1.3396 H   0  0  0  0  0  0  0  0  0  0  0  0
   -3.9148    7.3982    0.1016 H   0  0  0  0  0  0  0  0  0  0  0  0
   -5.2794    8.5129    0.5298 H   0  0  0  0  0  0  0  0  0  0  0  0
   -4.2699    7.5884   -1.9571 H   0  0  0  0  0  0  0  0  0  0  0  0
   -6.7841    7.2939    0.5683 H   0  0  0  0  0  0  0  0  0  0  0  0
   -8.2913    7.7527   -0.2945 H   0  0  0  0  0  0  0  0  0  0  0  0
   -7.7415    6.0426   -0.2945 H   0  0  0  0  0  0  0  0  0  0  0  0
   -7.5453    5.6596   -2.4796 H   0  0  0  0  0  0  0  0  0  0  0  0
   -7.7232    7.2050   -3.3778 H   0  0  0  0  0  0  0  0  0  0  0  0
   -6.1476    6.3423   -3.3778 H   0  0  0  0  0  0  0  0  0  0  0  0
   -2.0364   11.0299    0.1414 H   0  0  0  0  0  0  0  0  0  0  0  0
   -0.6367   10.3139    1.9754 H   0  0  0  0  0  0  0  0  0  0  0  0
    0.0063    8.9403    1.0500 H   0  0  0  0  0  0  0  0  0  0  0  0
    1.3946   11.3817    1.5794 H   0  0  0  0  0  0  0  0  0  0  0  0
    1.8896   10.2090    0.3619 H   0  0  0  0  0  0  0  0  0  0  0  0
   -0.0071   12.8299    1.4354 H   0  0  0  0  0  0  0  0  0  0  0  0
    0.3564   13.9520    0.0806 H   0  0  0  0  0  0  0  0  0  0  0  0
   -1.1729   13.0096    0.0806 H   0  0  0  0  0  0  0  0  0  0  0  0
    2.2230   11.4492   -1.6913 H   0  0  0  0  0  0  0  0  0  0  0  0
    2.9360   12.8130    0.3735 H   0  0  0  0  0  0  0  0  0  0  0  0
    3.7382   13.0724   -1.2631 H   0  0  0  0  0  0  0  0  0  0  0  0
    3.1948   15.2446    0.1267 H   0  0  0  0  0  0  0  0  0  0  0  0
   -0.1914   14.5538   -1.9605 H   0  0  0  0  0  0  0  0  0  0  0  0
    1.8274   15.5185   -4.0782 H   0  0  0  0  0  0  0  0  0  0  0  0
    0.0990   15.0253   -4.3606 H   0  0  0  0  0  0  0  0  0  0  0  0
    0.3822   17.4830   -4.3507 H   0  0  0  0  0  0  0  0  0  0  0  0
   -0.6845   16.8890   -3.0179 H   0  0  0  0  0  0  0  0  0  0  0  0
    0.7764   18.5806   -2.1402 H   0  0  0  0  0  0  0  0  0  0  0  0
    2.5020   18.5240   -3.5560 H   0  0  0  0  0  0  0  0  0  0  0  0
    0.1641   16.8976    0.7999 H   0  0  0  0  0  0  0  0  0  0  0  0
   -0.5363   17.8376   -0.5612 H   0  0  0  0  0  0  0  0  0  0  0  0
   -0.6396   16.0443   -0.5612 H   0  0  0  0  0  0  0  0  0  0  0  0
    2.1267   17.3843    0.9211 H   0  0  0  0  0  0  0  0  0  0  0  0
    3.3791   17.1655   -0.3479 H   0  0  0  0  0  0  0  0  0  0  0  0
    2.3479   18.6363   -0.3479 H   0  0  0  0  0  0  0  0  0  0  0  0
    3.3141   12.9658   -3.1957 H   0  0  0  0  0  0  0  0  0  0  0  0
    2.1982   12.1427   -4.3376 H   0  0  0  0  0  0  0  0  0  0  0  0
    2.3222   13.9347   -4.3376 H   0  0  0  0  0  0  0  0  0  0  0  0
   -0.5793   13.1189   -3.9013 H   0  0  0  0  0  0  0  0  0  0  0  0
    0.3746   11.5315   -3.8387 H   0  0  0  0  0  0  0  0  0  0  0  0
   -1.6112   12.5766   -1.8017 H   0  0  0  0  0  0  0  0  0  0  0  0
   -1.7499   11.1269   -2.8724 H   0  0  0  0  0  0  0  0  0  0  0  0
    0.7717    9.0279   -1.2485 H   0  0  0  0  0  0  0  0  0  0  0  0
   -0.3767    9.1980   -2.6193 H   0  0  0  0  0  0  0  0  0  0  0  0
    1.1647   10.1203   -2.6193 H   0  0  0  0  0  0  0  0  0  0  0  0
  1  2  1  0  0  0  0
  1 33  1  0  0  0  0
  1 34  1  0  0  0  0
  1 35  1  0  0  0  0
  2  3  1  0  0  0  0
  2 10  1  0  0  0  0
  2 36  1  1  0  0  0
  3  4  1  0  0  0  0
  3 37  1  0  0  0  0
  3 38  1  0  0  0  0
  4  5  1  0  0  0  0
  4 39  1  0  0  0  0
  4 40  1  0  0  0  0
  5  6  1  0  0  0  0
  5 41  1  6  0  0  0
  6  7  1  0  0  0  0
  7  8  1  0  0  0  0
  7  9  1  0  0  0  0
  7  5  1  0  0  0  0
  8 42  1  0  0  0  0
  8 43  1  0  0  0  0
  8 44  1  0  0  0  0
  9 45  1  0  0  0  0
  9 46  1  0  0  0  0
  9 47  1  0  0  0  0
 10 11  1  0  0  0  0
 10 48  1  1  0  0  0
 11 12  1  0  0  0  0
 11 49  1  0  0  0  0
 11 50  1  0  0  0  0
 12 13  1  0  0  0  0
 12 51  1  0  0  0  0
 12 52  1  0  0  0  0
 13 14  1  1  0  0  0
 13 15  1  0  0  0  0
 14 53  1  0  0  0  0
 14 54  1  0  0  0  0
 14 55  1  0  0  0  0
 15 16  1  0  0  0  0
 15 56  1  6  0  0  0
 16 17  1  0  0  0  0
 16 57  1  0  0  0  0
 16 58  1  0  0  0  0
 17 18  2  0  0  0  0
 17 59  1  0  0  0  0
 18 19  1  0  0  0  0
 19 20  1  0  0  0  0
 19 27  1  0  0  0  0
 19 60  1  1  0  0  0
 20 21  1  0  0  0  0
 20 61  1  0  0  0  0
 20 62  1  0  0  0  0
 21 22  1  0  0  0  0
 21 63  1  0  0  0  0
 21 64  1  0  0  0  0
 22 23  1  0  0  0  0
 22 24  1  0  0  0  0
 22 65  1  1  0  0  0
 23 66  1  0  0  0  0
 24 25  1  0  0  0  0
 24 26  1  0  0  0  0
 24 18  1  0  0  0  0
 25 67  1  0  0  0  0
 25 68  1  0  0  0  0
 25 69  1  0  0  0  0
 26 70  1  0  0  0  0
 26 71  1  0  0  0  0
 26 72  1  0  0  0  0
 27 28  1  6  0  0  0
 27 29  1  0  0  0  0
 27 15  1  0  0  0  0
 28 73  1  0  0  0  0
 28 74  1  0  0  0  0
 28 75  1  0  0  0  0
 29 30  1  0  0  0  0
 29 76  1  0  0  0  0
 29 77  1  0  0  0  0
 30 31  1  0  0  0  0
 30 78  1  0  0  0  0
 30 79  1  0  0  0  0
 31 32  1  6  0  0  0
 31 10  1  0  0  0  0
 31 13  1  0  0  0  0
 32 80  1  0  0  0  0
 32 81  1  0  0  0  0
 32 82  1  0  0  0  0
M  END
>  <meeko>
{"is_sidechain": [false], "intermolecular_energy": 2.731, "internal_energy": -0.839}

$$$$
