EPH_relaxed_0001_pdb2pqr_Repair_277_r2_0001_out
 OpenBabel07272616253D

 82 86  0  0  0  0  0  0  0  0999 V2000
   -1.5880    8.5680   -1.8100 C   0  0  0  0  0  0  0  0  0  0  0  0
   -2.0020    9.1480   -0.4540 C   0  0  2  0  0  0  0  0  0  0  0  0
   -3.4920    9.5430   -0.4210 C   0  0  0  0  0  0  0  0  0  0  0  0
   -4.4430    8.3500   -0.2980 C   0  0  0  0  0  0  0  0  0  0  0  0
   -5.0750    8.0060   -1.6130 C   0  0  2  0  0  0  0  0  0  0  0  0
   -6.3400    8.6370   -1.8510 O   0  0  0  0  0  0  0  0  0  0  0  0
   -6.3570    7.2040   -1.7400 C   0  0  0  0  0  0  0  0  0  0  0  0
   -7.0820    6.6950   -0.5340 C   0  0  0  0  0  0  0  0  0  0  0  0
   -6.6360    6.5030   -3.0330 C   0  0  0  0  0  0  0  0  0  0  0  0
   -1.1350   10.3560   -0.1190 C   0  0  1  0  0  0  0  0  0  0  0  0
   -0.0650   10.0430    0.9610 C   0  0  0  0  0  0  0  0  0  0  0  0
    1.1910   10.8780    0.6030 C   0  0  0  0  0  0  0  0  0  0  0  0
    0.6980   11.8840   -0.4630 C   0  0  1  0  0  0  0  0  0  0  0  0
    0.0150   13.0280    0.3500 C   0  0  0  0  0  0  0  0  0  0  0  0
    1.7840   12.4410   -1.4420 C   0  0  2  0  0  0  0  0  0  0  0  0
    2.9070   13.2540   -0.7750 C   0  0  0  0  0  0  0  0  0  0  0  0
    2.6550   14.7210   -0.6680 C   0  0  0  0  0  0  0  0  0  0  0  0
    1.7070   15.4030   -1.3370 C   0  0  0  0  0  0  0  0  0  0  0  0
    0.8290   14.7080   -2.3850 C   0  0  1  0  0  0  0  0  0  0  0  0
    0.7550   15.5840   -3.6630 C   0  0  0  0  0  0  0  0  0  0  0  0
    0.2970   17.0090   -3.3700 C   0  0  0  0  0  0  0  0  0  0  0  0
    1.2280   17.6870   -2.3680 C   0  0  2  0  0  0  0  0  0  0  0  0
    2.5090   17.8660   -2.9790 O   0  0  0  0  0  0  0  0  0  0  0  0
    1.3880   16.8900   -1.0430 C   0  0  0  0  0  0  0  0  0  0  0  0
    0.0680   16.9530   -0.2360 C   0  0  0  0  0  0  0  0  0  0  0  0
    2.4600   17.6080   -0.1800 C   0  0  0  0  0  0  0  0  0  0  0  0
    1.1950   13.1940   -2.7030 C   0  0  1  0  0  0  0  0  0  0  0  0
    2.2910   13.1330   -3.8100 C   0  0  0  0  0  0  0  0  0  0  0  0
   -0.0730   12.4710   -3.2930 C   0  0  0  0  0  0  0  0  0  0  0  0
   -1.0460   11.8380   -2.2810 C   0  0  0  0  0  0  0  0  0  0  0  0
   -0.2950   10.9690   -1.2680 C   0  0  2  0  0  0  0  0  0  0  0  0
    0.3850    9.7970   -2.0540 C   0  0  0  0  0  0  0  0  0  0  0  0
   -0.9555    7.6820   -1.6521 H   0  0  0  0  0  0  0  0  0  0  0  0
   -2.4866    8.2810   -2.3758 H   0  0  0  0  0  0  0  0  0  0  0  0
   -1.0246    9.3246   -2.3758 H   0  0  0  0  0  0  0  0  0  0  0  0
   -1.8527    8.3622    0.3012 H   0  0  0  0  0  0  0  0  0  0  0  0
   -3.6559   10.2078    0.4399 H   0  0  0  0  0  0  0  0  0  0  0  0
   -3.7153   10.0342   -1.3796 H   0  0  0  0  0  0  0  0  0  0  0  0
   -3.8771    7.4790    0.0641 H   0  0  0  0  0  0  0  0  0  0  0  0
   -5.2433    8.6211    0.4063 H   0  0  0  0  0  0  0  0  0  0  0  0
   -4.0882    7.8993   -2.0873 H   0  0  0  0  0  0  0  0  0  0  0  0
   -6.5756    7.0506    0.3755 H   0  0  0  0  0  0  0  0  0  0  0  0
   -8.1178    7.0652   -0.5455 H   0  0  0  0  0  0  0  0  0  0  0  0
   -7.0856    5.5951   -0.5455 H   0  0  0  0  0  0  0  0  0  0  0  0
   -7.0356    5.4991   -2.8270 H   0  0  0  0  0  0  0  0  0  0  0  0
   -7.3732    7.0796   -3.6110 H   0  0  0  0  0  0  0  0  0  0  0  0
   -5.7042    6.4153   -3.6110 H   0  0  0  0  0  0  0  0  0  0  0  0
   -1.9174   11.0629    0.1944 H   0  0  0  0  0  0  0  0  0  0  0  0
   -0.4374   10.3270    1.9563 H   0  0  0  0  0  0  0  0  0  0  0  0
    0.1692    8.9685    0.9846 H   0  0  0  0  0  0  0  0  0  0  0  0
    1.5718   11.4065    1.4894 H   0  0  0  0  0  0  0  0  0  0  0  0
    2.0179   10.2523    0.2360 H   0  0  0  0  0  0  0  0  0  0  0  0
    0.1315   12.8329    1.4263 H   0  0  0  0  0  0  0  0  0  0  0  0
    0.4873   13.9891    0.0983 H   0  0  0  0  0  0  0  0  0  0  0  0
   -1.0551   13.0683    0.0983 H   0  0  0  0  0  0  0  0  0  0  0  0
    2.2608   11.5221   -1.8139 H   0  0  0  0  0  0  0  0  0  0  0  0
    3.0546   12.8595    0.2412 H   0  0  0  0  0  0  0  0  0  0  0  0
    3.7889   13.1433   -1.4231 H   0  0  0  0  0  0  0  0  0  0  0  0
    3.2988   15.2936    0.0158 H   0  0  0  0  0  0  0  0  0  0  0  0
   -0.1706   14.6212   -1.9341 H   0  0  0  0  0  0  0  0  0  0  0  0
    1.7537   15.6221   -4.1226 H   0  0  0  0  0  0  0  0  0  0  0  0
    0.0157   15.1279   -4.3379 H   0  0  0  0  0  0  0  0  0  0  0  0
    0.2947   17.5860   -4.3065 H   0  0  0  0  0  0  0  0  0  0  0  0
   -0.7143   16.9707   -2.9389 H   0  0  0  0  0  0  0  0  0  0  0  0
    0.7765   18.6534   -2.0994 H   0  0  0  0  0  0  0  0  0  0  0  0
    3.1550   18.0190   -2.2690 H   0  0  0  0  0  0  0  0  0  0  0  0
    0.2953   16.9421    0.8402 H   0  0  0  0  0  0  0  0  0  0  0  0
   -0.4717   17.8779   -0.4875 H   0  0  0  0  0  0  0  0  0  0  0  0
   -0.5573   16.0837   -0.4875 H   0  0  0  0  0  0  0  0  0  0  0  0
    2.2342   17.4567    0.8859 H   0  0  0  0  0  0  0  0  0  0  0  0
    3.4526   17.1918   -0.4072 H   0  0  0  0  0  0  0  0  0  0  0  0
    2.4529   18.6843   -0.4072 H   0  0  0  0  0  0  0  0  0  0  0  0
    3.2841   13.0777   -3.3401 H   0  0  0  0  0  0  0  0  0  0  0  0
    2.1312   12.2424   -4.4355 H   0  0  0  0  0  0  0  0  0  0  0  0
    2.2310   14.0359   -4.4355 H   0  0  0  0  0  0  0  0  0  0  0  0
   -0.6370   13.2128   -3.8775 H   0  0  0  0  0  0  0  0  0  0  0  0
    0.3230   11.6274   -3.8774 H   0  0  0  0  0  0  0  0  0  0  0  0
   -1.5778   12.6377   -1.7447 H   0  0  0  0  0  0  0  0  0  0  0  0
   -1.7574   11.2025   -2.8289 H   0  0  0  0  0  0  0  0  0  0  0  0
    0.8053    9.0726   -1.3409 H   0  0  0  0  0  0  0  0  0  0  0  0
   -0.3633    9.2970   -2.6865 H   0  0  0  0  0  0  0  0  0  0  0  0
    1.1904   10.1985   -2.6865 H   0  0  0  0  0  0  0  0  0  0  0  0
  1  2  1  0  0  0  0
  1 33  1  0  0  0  0
  1 34  1  0  0  0  0
  1 35  1  0  0  0  0
  2  3  1  0  0  0  0
  2 10  1  0  0  0  0
  2 36  1  1  0  0  0
  3  4  1  0  0  0  0
  3 37  1  0  0  0  0
  3 38  1  0  0  0  0
  4  5  1  0  0  0  0
  4 39  1  0  0  0  0
  4 40  1  0  0  0  0
  5  6  1  0  0  0  0
  5 41  1  6  0  0  0
  6  7  1  0  0  0  0
  7  8  1  0  0  0  0
  7  9  1  0  0  0  0
  7  5  1  0  0  0  0
  8 42  1  0  0  0  0
  8 43  1  0  0  0  0
  8 44  1  0  0  0  0
  9 45  1  0  0  0  0
  9 46  1  0  0  0  0
  9 47  1  0  0  0  0
 10 11  1  0  0  0  0
 10 48  1  1  0  0  0
 11 12  1  0  0  0  0
 11 49  1  0  0  0  0
 11 50  1  0  0  0  0
 12 13  1  0  0  0  0
 12 51  1  0  0  0  0
 12 52  1  0  0  0  0
 13 14  1  1  0  0  0
 13 15  1  0  0  0  0
 14 53  1  0  0  0  0
 14 54  1  0  0  0  0
 14 55  1  0  0  0  0
 15 16  1  0  0  0  0
 15 56  1  6  0  0  0
 16 17  1  0  0  0  0
 16 57  1  0  0  0  0
 16 58  1  0  0  0  0
 17 18  2  0  0  0  0
 17 59  1  0  0  0  0
 18 19  1  0  0  0  0
 19 20  1  0  0  0  0
 19 27  1  0  0  0  0
 19 60  1  1  0  0  0
 20 21  1  0  0  0  0
 20 61  1  0  0  0  0
 20 62  1  0  0  0  0
 21 22  1  0  0  0  0
 21 63  1  0  0  0  0
 21 64  1  0  0  0  0
 22 23  1  0  0  0  0
 22 24  1  0  0  0  0
 22 65  1  1  0  0  0
 23 66  1  0  0  0  0
 24 25  1  0  0  0  0
 24 26  1  0  0  0  0
 24 18  1  0  0  0  0
 25 67  1  0  0  0  0
 25 68  1  0  0  0  0
 25 69  1  0  0  0  0
 26 70  1  0  0  0  0
 26 71  1  0  0  0  0
 26 72  1  0  0  0  0
 27 28  1  6  0  0  0
 27 29  1  0  0  0  0
 27 15  1  0  0  0  0
 28 73  1  0  0  0  0
 28 74  1  0  0  0  0
 28 75  1  0  0  0  0
 29 30  1  0  0  0  0
 29 76  1  0  0  0  0
 29 77  1  0  0  0  0
 30 31  1  0  0  0  0
 30 78  1  0  0  0  0
 30 79  1  0  0  0  0
 31 32  1  6  0  0  0
 31 10  1  0  0  0  0
 31 13  1  0  0  0  0
 32 80  1  0  0  0  0
 32 81  1  0  0  0  0
 32 82  1  0  0  0  0
M  END
>  <meeko>
{"is_sidechain": [false], "intermolecular_energy": 2.731, "internal_energy": -0.839}

$$$$
