EPH_relaxed_0001_pdb2pqr_Repair_272_r2_0001_out
 OpenBabel07272616253D

 82 86  0  0  0  0  0  0  0  0999 V2000
   -1.6920    8.5780   -1.8660 C   0  0  0  0  0  0  0  0  0  0  0  0
   -2.0800    9.1110   -0.4840 C   0  0  2  0  0  0  0  0  0  0  0  0
   -3.5750    9.4810   -0.4030 C   0  0  0  0  0  0  0  0  0  0  0  0
   -4.5010    8.2700   -0.2620 C   0  0  0  0  0  0  0  0  0  0  0  0
   -5.1790    7.9370   -1.5560 C   0  0  2  0  0  0  0  0  0  0  0  0
   -6.3450    8.7210   -1.8410 O   0  0  0  0  0  0  0  0  0  0  0  0
   -6.5600    7.3140   -1.6420 C   0  0  0  0  0  0  0  0  0  0  0  0
   -7.3460    6.9870   -0.4110 C   0  0  0  0  0  0  0  0  0  0  0  0
   -6.9380    6.5800   -2.8900 C   0  0  0  0  0  0  0  0  0  0  0  0
   -1.2240   10.3220   -0.1350 C   0  0  1  0  0  0  0  0  0  0  0  0
   -0.1970   10.0240    0.9900 C   0  0  0  0  0  0  0  0  0  0  0  0
    1.0730   10.8520    0.6670 C   0  0  0  0  0  0  0  0  0  0  0  0
    0.6240   11.8430   -0.4330 C   0  0  1  0  0  0  0  0  0  0  0  0
   -0.0870   13.0000    0.3360 C   0  0  0  0  0  0  0  0  0  0  0  0
    1.7480   12.3820   -1.3770 C   0  0  2  0  0  0  0  0  0  0  0  0
    2.8470   13.2030   -0.6810 C   0  0  0  0  0  0  0  0  0  0  0  0
    2.5940   14.6730   -0.6060 C   0  0  0  0  0  0  0  0  0  0  0  0
    1.6730   15.3460   -1.3210 C   0  0  0  0  0  0  0  0  0  0  0  0
    0.8340   14.6350   -2.3910 C   0  0  1  0  0  0  0  0  0  0  0  0
    0.8110   15.4920   -3.6850 C   0  0  0  0  0  0  0  0  0  0  0  0
    0.3450   16.9220   -3.4310 C   0  0  0  0  0  0  0  0  0  0  0  0
    1.2390   17.6140   -2.4060 C   0  0  2  0  0  0  0  0  0  0  0  0
    2.5430   17.7820   -2.9700 O   0  0  0  0  0  0  0  0  0  0  0  0
    1.3460   16.8370   -1.0630 C   0  0  0  0  0  0  0  0  0  0  0  0
   -0.0030   16.9150   -0.3080 C   0  0  0  0  0  0  0  0  0  0  0  0
    2.3860   17.5670   -0.1710 C   0  0  0  0  0  0  0  0  0  0  0  0
    1.2090   13.1170   -2.6710 C   0  0  1  0  0  0  0  0  0  0  0  0
    2.3470   13.0370   -3.7350 C   0  0  0  0  0  0  0  0  0  0  0  0
   -0.0370   12.3870   -3.2990 C   0  0  0  0  0  0  0  0  0  0  0  0
   -1.0500   11.7710   -2.3150 C   0  0  0  0  0  0  0  0  0  0  0  0
   -0.3390   10.9160   -1.2600 C   0  0  2  0  0  0  0  0  0  0  0  0
    0.3670    9.7310   -2.0020 C   0  0  0  0  0  0  0  0  0  0  0  0
   -1.0482    7.6936   -1.7504 H   0  0  0  0  0  0  0  0  0  0  0  0
   -2.6007    8.3002   -2.4202 H   0  0  0  0  0  0  0  0  0  0  0  0
   -1.1484    9.3573   -2.4202 H   0  0  0  0  0  0  0  0  0  0  0  0
   -1.8994    8.3062    0.2438 H   0  0  0  0  0  0  0  0  0  0  0  0
   -3.7242   10.1358    0.4682 H   0  0  0  0  0  0  0  0  0  0  0  0
   -3.8356    9.9769   -1.3496 H   0  0  0  0  0  0  0  0  0  0  0  0
   -3.9070    7.4030    0.0626 H   0  0  0  0  0  0  0  0  0  0  0  0
   -5.2767    8.5159    0.4781 H   0  0  0  0  0  0  0  0  0  0  0  0
   -4.2174    7.6657   -2.0162 H   0  0  0  0  0  0  0  0  0  0  0  0
   -6.7510    7.2345    0.4805 H   0  0  0  0  0  0  0  0  0  0  0  0
   -8.2773    7.5723   -0.4044 H   0  0  0  0  0  0  0  0  0  0  0  0
   -7.5873    5.9138   -0.4044 H   0  0  0  0  0  0  0  0  0  0  0  0
   -7.4266    5.6312   -2.6236 H   0  0  0  0  0  0  0  0  0  0  0  0
   -7.6311    7.1958   -3.4819 H   0  0  0  0  0  0  0  0  0  0  0  0
   -6.0341    6.3734   -3.4819 H   0  0  0  0  0  0  0  0  0  0  0  0
   -2.0164   11.0349    0.1369 H   0  0  0  0  0  0  0  0  0  0  0  0
   -0.6066   10.3238    1.9659 H   0  0  0  0  0  0  0  0  0  0  0  0
    0.0340    8.9497    1.0395 H   0  0  0  0  0  0  0  0  0  0  0  0
    1.4207   11.3936    1.5591 H   0  0  0  0  0  0  0  0  0  0  0  0
    1.9116   10.2192    0.3411 H   0  0  0  0  0  0  0  0  0  0  0  0
    0.0135   12.8364    1.4191 H   0  0  0  0  0  0  0  0  0  0  0  0
    0.3774   13.9598    0.0655 H   0  0  0  0  0  0  0  0  0  0  0  0
   -1.1530   13.0193    0.0655 H   0  0  0  0  0  0  0  0  0  0  0  0
    2.2367   11.4563   -1.7151 H   0  0  0  0  0  0  0  0  0  0  0  0
    2.9556   12.8239    0.3459 H   0  0  0  0  0  0  0  0  0  0  0  0
    3.7524   13.0808   -1.2937 H   0  0  0  0  0  0  0  0  0  0  0  0
    3.2127   15.2552    0.0928 H   0  0  0  0  0  0  0  0  0  0  0  0
   -0.1822   14.5558   -1.9774 H   0  0  0  0  0  0  0  0  0  0  0  0
    1.8266   15.5217   -4.1064 H   0  0  0  0  0  0  0  0  0  0  0  0
    0.0974   15.0268   -4.3810 H   0  0  0  0  0  0  0  0  0  0  0  0
    0.3785   17.4845   -4.3757 H   0  0  0  0  0  0  0  0  0  0  0  0
   -0.6816   16.8916   -3.0371 H   0  0  0  0  0  0  0  0  0  0  0  0
    0.7803   18.5857   -2.1707 H   0  0  0  0  0  0  0  0  0  0  0  0
    2.7650   16.9640   -3.4460 H   0  0  0  0  0  0  0  0  0  0  0  0
    0.1825   16.9043    0.7762 H   0  0  0  0  0  0  0  0  0  0  0  0
   -0.5232   17.8447   -0.5818 H   0  0  0  0  0  0  0  0  0  0  0  0
   -0.6269   16.0514   -0.5818 H   0  0  0  0  0  0  0  0  0  0  0  0
    2.1439   17.3971    0.8885 H   0  0  0  0  0  0  0  0  0  0  0  0
    3.3915   17.1755   -0.3847 H   0  0  0  0  0  0  0  0  0  0  0  0
    2.3595   18.6457   -0.3847 H   0  0  0  0  0  0  0  0  0  0  0  0
    3.3201   12.9686   -3.2267 H   0  0  0  0  0  0  0  0  0  0  0  0
    2.1987   12.1471   -4.3643 H   0  0  0  0  0  0  0  0  0  0  0  0
    2.3247   13.9389   -4.3643 H   0  0  0  0  0  0  0  0  0  0  0  0
   -0.5764   13.1207   -3.9161 H   0  0  0  0  0  0  0  0  0  0  0  0
    0.3792   11.5341   -3.8551 H   0  0  0  0  0  0  0  0  0  0  0  0
   -1.6003   12.5796   -1.8117 H   0  0  0  0  0  0  0  0  0  0  0  0
   -1.7415   11.1284   -2.8797 H   0  0  0  0  0  0  0  0  0  0  0  0
    0.7837    9.0315   -1.2624 H   0  0  0  0  0  0  0  0  0  0  0  0
   -0.3650    9.2049   -2.6324 H   0  0  0  0  0  0  0  0  0  0  0  0
    1.1781   10.1243   -2.6324 H   0  0  0  0  0  0  0  0  0  0  0  0
  1  2  1  0  0  0  0
  1 33  1  0  0  0  0
  1 34  1  0  0  0  0
  1 35  1  0  0  0  0
  2  3  1  0  0  0  0
  2 10  1  0  0  0  0
  2 36  1  1  0  0  0
  3  4  1  0  0  0  0
  3 37  1  0  0  0  0
  3 38  1  0  0  0  0
  4  5  1  0  0  0  0
  4 39  1  0  0  0  0
  4 40  1  0  0  0  0
  5  6  1  0  0  0  0
  5 41  1  6  0  0  0
  6  7  1  0  0  0  0
  7  8  1  0  0  0  0
  7  9  1  0  0  0  0
  7  5  1  0  0  0  0
  8 42  1  0  0  0  0
  8 43  1  0  0  0  0
  8 44  1  0  0  0  0
  9 45  1  0  0  0  0
  9 46  1  0  0  0  0
  9 47  1  0  0  0  0
 10 11  1  0  0  0  0
 10 48  1  1  0  0  0
 11 12  1  0  0  0  0
 11 49  1  0  0  0  0
 11 50  1  0  0  0  0
 12 13  1  0  0  0  0
 12 51  1  0  0  0  0
 12 52  1  0  0  0  0
 13 14  1  1  0  0  0
 13 15  1  0  0  0  0
 14 53  1  0  0  0  0
 14 54  1  0  0  0  0
 14 55  1  0  0  0  0
 15 16  1  0  0  0  0
 15 56  1  6  0  0  0
 16 17  1  0  0  0  0
 16 57  1  0  0  0  0
 16 58  1  0  0  0  0
 17 18  2  0  0  0  0
 17 59  1  0  0  0  0
 18 19  1  0  0  0  0
 19 20  1  0  0  0  0
 19 27  1  0  0  0  0
 19 60  1  1  0  0  0
 20 21  1  0  0  0  0
 20 61  1  0  0  0  0
 20 62  1  0  0  0  0
 21 22  1  0  0  0  0
 21 63  1  0  0  0  0
 21 64  1  0  0  0  0
 22 23  1  0  0  0  0
 22 24  1  0  0  0  0
 22 65  1  1  0  0  0
 23 66  1  0  0  0  0
 24 25  1  0  0  0  0
 24 26  1  0  0  0  0
 24 18  1  0  0  0  0
 25 67  1  0  0  0  0
 25 68  1  0  0  0  0
 25 69  1  0  0  0  0
 26 70  1  0  0  0  0
 26 71  1  0  0  0  0
 26 72  1  0  0  0  0
 27 28  1  6  0  0  0
 27 29  1  0  0  0  0
 27 15  1  0  0  0  0
 28 73  1  0  0  0  0
 28 74  1  0  0  0  0
 28 75  1  0  0  0  0
 29 30  1  0  0  0  0
 29 76  1  0  0  0  0
 29 77  1  0  0  0  0
 30 31  1  0  0  0  0
 30 78  1  0  0  0  0
 30 79  1  0  0  0  0
 31 32  1  6  0  0  0
 31 10  1  0  0  0  0
 31 13  1  0  0  0  0
 32 80  1  0  0  0  0
 32 81  1  0  0  0  0
 32 82  1  0  0  0  0
M  END
>  <meeko>
{"is_sidechain": [false], "intermolecular_energy": 2.731, "internal_energy": -0.839}

$$$$
