EPH_relaxed_0001_pdb2pqr_Repair_122_r2_0001_out
 OpenBabel07272616253D

 82 86  0  0  0  0  0  0  0  0999 V2000
   -1.7040    8.5880   -1.8950 C   0  0  0  0  0  0  0  0  0  0  0  0
   -2.0740    9.0970   -0.4990 C   0  0  2  0  0  0  0  0  0  0  0  0
   -3.5700    9.4540   -0.3890 C   0  0  0  0  0  0  0  0  0  0  0  0
   -4.4860    8.2340   -0.2620 C   0  0  0  0  0  0  0  0  0  0  0  0
   -5.1830    7.9270   -1.5530 C   0  0  2  0  0  0  0  0  0  0  0  0
   -6.3830    8.6790   -1.7790 O   0  0  0  0  0  0  0  0  0  0  0  0
   -6.5430    7.2590   -1.6310 C   0  0  0  0  0  0  0  0  0  0  0  0
   -7.2870    6.8560   -0.3960 C   0  0  0  0  0  0  0  0  0  0  0  0
   -6.9260    6.5610   -2.8990 C   0  0  0  0  0  0  0  0  0  0  0  0
   -1.2220   10.3110   -0.1460 C   0  0  1  0  0  0  0  0  0  0  0  0
   -0.1930   10.0120    0.9770 C   0  0  0  0  0  0  0  0  0  0  0  0
    1.0740   10.8460    0.6560 C   0  0  0  0  0  0  0  0  0  0  0  0
    0.6200   11.8390   -0.4390 C   0  0  1  0  0  0  0  0  0  0  0  0
   -0.0950   12.9900    0.3350 C   0  0  0  0  0  0  0  0  0  0  0  0
    1.7400   12.3870   -1.3830 C   0  0  2  0  0  0  0  0  0  0  0  0
    2.8370   13.2090   -0.6850 C   0  0  0  0  0  0  0  0  0  0  0  0
    2.5790   14.6770   -0.6030 C   0  0  0  0  0  0  0  0  0  0  0  0
    1.6550   15.3500   -1.3140 C   0  0  0  0  0  0  0  0  0  0  0  0
    0.8170   14.6410   -2.3860 C   0  0  1  0  0  0  0  0  0  0  0  0
    0.7900   15.5020   -3.6760 C   0  0  0  0  0  0  0  0  0  0  0  0
    0.3180   16.9300   -3.4160 C   0  0  0  0  0  0  0  0  0  0  0  0
    1.2110   17.6210   -2.3890 C   0  0  2  0  0  0  0  0  0  0  0  0
    2.5140   17.7960   -2.9540 O   0  0  0  0  0  0  0  0  0  0  0  0
    1.3220   16.8390   -1.0500 C   0  0  0  0  0  0  0  0  0  0  0  0
   -0.0270   16.9090   -0.2920 C   0  0  0  0  0  0  0  0  0  0  0  0
    2.3610   17.5690   -0.1560 C   0  0  0  0  0  0  0  0  0  0  0  0
    1.1970   13.1240   -2.6730 C   0  0  1  0  0  0  0  0  0  0  0  0
    2.3340   13.0530   -3.7380 C   0  0  0  0  0  0  0  0  0  0  0  0
   -0.0470   12.3920   -3.3020 C   0  0  0  0  0  0  0  0  0  0  0  0
   -1.0560   11.7690   -2.3190 C   0  0  0  0  0  0  0  0  0  0  0  0
   -0.3410   10.9120   -1.2690 C   0  0  2  0  0  0  0  0  0  0  0  0
    0.3690    9.7330   -2.0170 C   0  0  0  0  0  0  0  0  0  0  0  0
   -1.0595    7.7014   -1.8031 H   0  0  0  0  0  0  0  0  0  0  0  0
   -2.6198    8.3204   -2.4424 H   0  0  0  0  0  0  0  0  0  0  0  0
   -1.1669    9.3766   -2.4424 H   0  0  0  0  0  0  0  0  0  0  0  0
   -1.8753    8.2830    0.2136 H   0  0  0  0  0  0  0  0  0  0  0  0
   -3.7113   10.0883    0.4985 H   0  0  0  0  0  0  0  0  0  0  0  0
   -3.8471    9.9685   -1.3209 H   0  0  0  0  0  0  0  0  0  0  0  0
   -3.8814    7.3635    0.0325 H   0  0  0  0  0  0  0  0  0  0  0  0
   -5.2512    8.4573    0.4960 H   0  0  0  0  0  0  0  0  0  0  0  0
   -4.2243    7.7086   -2.0461 H   0  0  0  0  0  0  0  0  0  0  0  0
   -6.7169    7.1648    0.4926 H   0  0  0  0  0  0  0  0  0  0  0  0
   -8.2731    7.3433   -0.3866 H   0  0  0  0  0  0  0  0  0  0  0  0
   -7.4176    5.7638   -0.3866 H   0  0  0  0  0  0  0  0  0  0  0  0
   -7.4423    5.6201   -2.6580 H   0  0  0  0  0  0  0  0  0  0  0  0
   -7.5959    7.2071   -3.4853 H   0  0  0  0  0  0  0  0  0  0  0  0
   -6.0211    6.3430   -3.4853 H   0  0  0  0  0  0  0  0  0  0  0  0
   -2.0164   11.0203    0.1293 H   0  0  0  0  0  0  0  0  0  0  0  0
   -0.6027   10.3064    1.9545 H   0  0  0  0  0  0  0  0  0  0  0  0
    0.0417    8.9383    1.0221 H   0  0  0  0  0  0  0  0  0  0  0  0
    1.4207   11.3854    1.5498 H   0  0  0  0  0  0  0  0  0  0  0  0
    1.9148   10.2177    0.3268 H   0  0  0  0  0  0  0  0  0  0  0  0
    0.0084   12.8235    1.4174 H   0  0  0  0  0  0  0  0  0  0  0  0
    0.3642   13.9529    0.0666 H   0  0  0  0  0  0  0  0  0  0  0  0
   -1.1616   13.0050    0.0666 H   0  0  0  0  0  0  0  0  0  0  0  0
    2.2315   11.4647   -1.7262 H   0  0  0  0  0  0  0  0  0  0  0  0
    2.9486   12.8257    0.3400 H   0  0  0  0  0  0  0  0  0  0  0  0
    3.7418   13.0929   -1.2997 H   0  0  0  0  0  0  0  0  0  0  0  0
    3.1963   15.2582    0.0979 H   0  0  0  0  0  0  0  0  0  0  0  0
   -0.1985   14.5576   -1.9714 H   0  0  0  0  0  0  0  0  0  0  0  0
    1.8053   15.5374   -4.0978 H   0  0  0  0  0  0  0  0  0  0  0  0
    0.0782   15.0366   -4.3736 H   0  0  0  0  0  0  0  0  0  0  0  0
    0.3483   17.4964   -4.3585 H   0  0  0  0  0  0  0  0  0  0  0  0
   -0.7082   16.8943   -3.0216 H   0  0  0  0  0  0  0  0  0  0  0  0
    0.7494   18.5902   -2.1490 H   0  0  0  0  0  0  0  0  0  0  0  0
    2.7010   18.7500   -2.9700 H   0  0  0  0  0  0  0  0  0  0  0  0
    0.1605   16.8993    0.7919 H   0  0  0  0  0  0  0  0  0  0  0  0
   -0.5532   17.8357   -0.5648 H   0  0  0  0  0  0  0  0  0  0  0  0
   -0.6463   16.0418   -0.5648 H   0  0  0  0  0  0  0  0  0  0  0  0
    2.1178   17.3981    0.9031 H   0  0  0  0  0  0  0  0  0  0  0  0
    3.3669   17.1781   -0.3689 H   0  0  0  0  0  0  0  0  0  0  0  0
    2.3342   18.6479   -0.3689 H   0  0  0  0  0  0  0  0  0  0  0  0
    3.3082   12.9922   -3.2308 H   0  0  0  0  0  0  0  0  0  0  0  0
    2.1919   12.1620   -4.3672 H   0  0  0  0  0  0  0  0  0  0  0  0
    2.3039   13.9548   -4.3672 H   0  0  0  0  0  0  0  0  0  0  0  0
   -0.5899   13.1260   -3.9156 H   0  0  0  0  0  0  0  0  0  0  0  0
    0.3714   11.5427   -3.8620 H   0  0  0  0  0  0  0  0  0  0  0  0
   -1.6079   12.5739   -1.8115 H   0  0  0  0  0  0  0  0  0  0  0  0
   -1.7464   11.1265   -2.8852 H   0  0  0  0  0  0  0  0  0  0  0  0
    0.7907    9.0328   -1.2809 H   0  0  0  0  0  0  0  0  0  0  0  0
   -0.3619    9.2058   -2.6477 H   0  0  0  0  0  0  0  0  0  0  0  0
    1.1769   10.1325   -2.6477 H   0  0  0  0  0  0  0  0  0  0  0  0
  1  2  1  0  0  0  0
  1 33  1  0  0  0  0
  1 34  1  0  0  0  0
  1 35  1  0  0  0  0
  2  3  1  0  0  0  0
  2 10  1  0  0  0  0
  2 36  1  1  0  0  0
  3  4  1  0  0  0  0
  3 37  1  0  0  0  0
  3 38  1  0  0  0  0
  4  5  1  0  0  0  0
  4 39  1  0  0  0  0
  4 40  1  0  0  0  0
  5  6  1  0  0  0  0
  5 41  1  6  0  0  0
  6  7  1  0  0  0  0
  7  8  1  0  0  0  0
  7  9  1  0  0  0  0
  7  5  1  0  0  0  0
  8 42  1  0  0  0  0
  8 43  1  0  0  0  0
  8 44  1  0  0  0  0
  9 45  1  0  0  0  0
  9 46  1  0  0  0  0
  9 47  1  0  0  0  0
 10 11  1  0  0  0  0
 10 48  1  1  0  0  0
 11 12  1  0  0  0  0
 11 49  1  0  0  0  0
 11 50  1  0  0  0  0
 12 13  1  0  0  0  0
 12 51  1  0  0  0  0
 12 52  1  0  0  0  0
 13 14  1  1  0  0  0
 13 15  1  0  0  0  0
 14 53  1  0  0  0  0
 14 54  1  0  0  0  0
 14 55  1  0  0  0  0
 15 16  1  0  0  0  0
 15 56  1  6  0  0  0
 16 17  1  0  0  0  0
 16 57  1  0  0  0  0
 16 58  1  0  0  0  0
 17 18  2  0  0  0  0
 17 59  1  0  0  0  0
 18 19  1  0  0  0  0
 19 20  1  0  0  0  0
 19 27  1  0  0  0  0
 19 60  1  1  0  0  0
 20 21  1  0  0  0  0
 20 61  1  0  0  0  0
 20 62  1  0  0  0  0
 21 22  1  0  0  0  0
 21 63  1  0  0  0  0
 21 64  1  0  0  0  0
 22 23  1  0  0  0  0
 22 24  1  0  0  0  0
 22 65  1  1  0  0  0
 23 66  1  0  0  0  0
 24 25  1  0  0  0  0
 24 26  1  0  0  0  0
 24 18  1  0  0  0  0
 25 67  1  0  0  0  0
 25 68  1  0  0  0  0
 25 69  1  0  0  0  0
 26 70  1  0  0  0  0
 26 71  1  0  0  0  0
 26 72  1  0  0  0  0
 27 28  1  6  0  0  0
 27 29  1  0  0  0  0
 27 15  1  0  0  0  0
 28 73  1  0  0  0  0
 28 74  1  0  0  0  0
 28 75  1  0  0  0  0
 29 30  1  0  0  0  0
 29 76  1  0  0  0  0
 29 77  1  0  0  0  0
 30 31  1  0  0  0  0
 30 78  1  0  0  0  0
 30 79  1  0  0  0  0
 31 32  1  6  0  0  0
 31 10  1  0  0  0  0
 31 13  1  0  0  0  0
 32 80  1  0  0  0  0
 32 81  1  0  0  0  0
 32 82  1  0  0  0  0
M  END
>  <meeko>
{"is_sidechain": [false], "intermolecular_energy": 2.731, "internal_energy": -0.839}

$$$$
