EPH_relaxed_0001_pdb2pqr_Repair_151_r2_0001_out
 OpenBabel07272616253D

 82 86  0  0  0  0  0  0  0  0999 V2000
   -1.6880    8.5770   -1.8510 C   0  0  0  0  0  0  0  0  0  0  0  0
   -2.0770    9.1190   -0.4720 C   0  0  2  0  0  0  0  0  0  0  0  0
   -3.5680    9.5030   -0.3980 C   0  0  0  0  0  0  0  0  0  0  0  0
   -4.5060    8.3030   -0.2420 C   0  0  0  0  0  0  0  0  0  0  0  0
   -5.1850    7.9580   -1.5320 C   0  0  2  0  0  0  0  0  0  0  0  0
   -6.3640    8.7240   -1.8120 O   0  0  0  0  0  0  0  0  0  0  0  0
   -6.5570    7.3140   -1.6100 C   0  0  0  0  0  0  0  0  0  0  0  0
   -7.3320    6.9780   -0.3740 C   0  0  0  0  0  0  0  0  0  0  0  0
   -6.9300    6.5720   -2.8550 C   0  0  0  0  0  0  0  0  0  0  0  0
   -1.2110   10.3240   -0.1250 C   0  0  1  0  0  0  0  0  0  0  0  0
   -0.1790   10.0160    0.9930 C   0  0  0  0  0  0  0  0  0  0  0  0
    1.0950   10.8360    0.6650 C   0  0  0  0  0  0  0  0  0  0  0  0
    0.6460   11.8330   -0.4290 C   0  0  1  0  0  0  0  0  0  0  0  0
   -0.0540   12.9920    0.3480 C   0  0  0  0  0  0  0  0  0  0  0  0
    1.7660   12.3680   -1.3780 C   0  0  2  0  0  0  0  0  0  0  0  0
    2.8750   13.1800   -0.6860 C   0  0  0  0  0  0  0  0  0  0  0  0
    2.6320   14.6510   -0.6050 C   0  0  0  0  0  0  0  0  0  0  0  0
    1.7120   15.3320   -1.3130 C   0  0  0  0  0  0  0  0  0  0  0  0
    0.8610   14.6310   -2.3800 C   0  0  1  0  0  0  0  0  0  0  0  0
    0.8370   15.4910   -3.6700 C   0  0  0  0  0  0  0  0  0  0  0  0
    0.3810   16.9230   -3.4100 C   0  0  0  0  0  0  0  0  0  0  0  0
    1.2850   17.6060   -2.3870 C   0  0  2  0  0  0  0  0  0  0  0  0
    2.5870   17.7680   -2.9590 O   0  0  0  0  0  0  0  0  0  0  0  0
    1.3960   16.8250   -1.0480 C   0  0  0  0  0  0  0  0  0  0  0  0
    0.0510   16.9090   -0.2840 C   0  0  0  0  0  0  0  0  0  0  0  0
    2.4460   17.5450   -0.1600 C   0  0  0  0  0  0  0  0  0  0  0  0
    1.2250   13.1100   -2.6670 C   0  0  1  0  0  0  0  0  0  0  0  0
    2.3560   13.0260   -3.7370 C   0  0  0  0  0  0  0  0  0  0  0  0
   -0.0300   12.3900   -3.2890 C   0  0  0  0  0  0  0  0  0  0  0  0
   -1.0400   11.7780   -2.3000 C   0  0  0  0  0  0  0  0  0  0  0  0
   -0.3290   10.9150   -1.2530 C   0  0  2  0  0  0  0  0  0  0  0  0
    0.3650    9.7280   -2.0030 C   0  0  0  0  0  0  0  0  0  0  0  0
   -1.0505    7.6888   -1.7294 H   0  0  0  0  0  0  0  0  0  0  0  0
   -2.5967    8.3028   -2.4069 H   0  0  0  0  0  0  0  0  0  0  0  0
   -1.1374    9.3502   -2.4069 H   0  0  0  0  0  0  0  0  0  0  0  0
   -1.9070    8.3153    0.2596 H   0  0  0  0  0  0  0  0  0  0  0  0
   -3.7122   10.1708    0.4641 H   0  0  0  0  0  0  0  0  0  0  0  0
   -3.8226    9.9879   -1.3519 H   0  0  0  0  0  0  0  0  0  0  0  0
   -3.9209    7.4350    0.0960 H   0  0  0  0  0  0  0  0  0  0  0  0
   -5.2807    8.5671    0.4929 H   0  0  0  0  0  0  0  0  0  0  0  0
   -4.2218    7.7006   -1.9968 H   0  0  0  0  0  0  0  0  0  0  0  0
   -6.7362    7.2363    0.5139 H   0  0  0  0  0  0  0  0  0  0  0  0
   -8.2719    7.5494   -0.3639 H   0  0  0  0  0  0  0  0  0  0  0  0
   -7.5573    5.9014   -0.3639 H   0  0  0  0  0  0  0  0  0  0  0  0
   -7.4089    5.6194   -2.5845 H   0  0  0  0  0  0  0  0  0  0  0  0
   -7.6301    7.1790   -3.4478 H   0  0  0  0  0  0  0  0  0  0  0  0
   -6.0252    6.3722   -3.4478 H   0  0  0  0  0  0  0  0  0  0  0  0
   -1.9972   11.0413    0.1532 H   0  0  0  0  0  0  0  0  0  0  0  0
   -0.5807   10.3159    1.9722 H   0  0  0  0  0  0  0  0  0  0  0  0
    0.0449    8.9400    1.0378 H   0  0  0  0  0  0  0  0  0  0  0  0
    1.4518   11.3725    1.5566 H   0  0  0  0  0  0  0  0  0  0  0  0
    1.9274   10.1985    0.3323 H   0  0  0  0  0  0  0  0  0  0  0  0
    0.0485   12.8224    1.4300 H   0  0  0  0  0  0  0  0  0  0  0  0
    0.4170   13.9495    0.0807 H   0  0  0  0  0  0  0  0  0  0  0  0
   -1.1207   13.0208    0.0807 H   0  0  0  0  0  0  0  0  0  0  0  0
    2.2456   11.4399   -1.7223 H   0  0  0  0  0  0  0  0  0  0  0  0
    2.9875   12.7971    0.3390 H   0  0  0  0  0  0  0  0  0  0  0  0
    3.7758   13.0538   -1.3046 H   0  0  0  0  0  0  0  0  0  0  0  0
    3.2580   15.2269    0.0925 H   0  0  0  0  0  0  0  0  0  0  0  0
   -0.1536   14.5584   -1.9612 H   0  0  0  0  0  0  0  0  0  0  0  0
    1.8508   15.5157   -4.0962 H   0  0  0  0  0  0  0  0  0  0  0  0
    0.1171   15.0322   -4.3637 H   0  0  0  0  0  0  0  0  0  0  0  0
    0.4135   17.4881   -4.3532 H   0  0  0  0  0  0  0  0  0  0  0  0
   -0.6441   16.8983   -3.0117 H   0  0  0  0  0  0  0  0  0  0  0  0
    0.8328   18.5791   -2.1449 H   0  0  0  0  0  0  0  0  0  0  0  0
    3.1600   17.0750   -2.5870 H   0  0  0  0  0  0  0  0  0  0  0  0
    0.2431   16.8970    0.7990 H   0  0  0  0  0  0  0  0  0  0  0  0
   -0.4666   17.8412   -0.5543 H   0  0  0  0  0  0  0  0  0  0  0  0
   -0.5786   16.0484   -0.5543 H   0  0  0  0  0  0  0  0  0  0  0  0
    2.2047   17.3795    0.9004 H   0  0  0  0  0  0  0  0  0  0  0  0
    3.4466   17.1421   -0.3755 H   0  0  0  0  0  0  0  0  0  0  0  0
    2.4308   18.6236   -0.3755 H   0  0  0  0  0  0  0  0  0  0  0  0
    3.3317   12.9535   -3.2343 H   0  0  0  0  0  0  0  0  0  0  0  0
    2.2006   12.1369   -4.3658 H   0  0  0  0  0  0  0  0  0  0  0  0
    2.3336   13.9283   -4.3658 H   0  0  0  0  0  0  0  0  0  0  0  0
   -0.5687   13.1290   -3.9003 H   0  0  0  0  0  0  0  0  0  0  0  0
    0.3768   11.5361   -3.8506 H   0  0  0  0  0  0  0  0  0  0  0  0
   -1.5811   12.5889   -1.7905 H   0  0  0  0  0  0  0  0  0  0  0  0
   -1.7395   11.1418   -2.8621 H   0  0  0  0  0  0  0  0  0  0  0  0
    0.7781    9.0214   -1.2681 H   0  0  0  0  0  0  0  0  0  0  0  0
   -0.3732    9.2112   -2.6338 H   0  0  0  0  0  0  0  0  0  0  0  0
    1.1775   10.1178   -2.6338 H   0  0  0  0  0  0  0  0  0  0  0  0
  1  2  1  0  0  0  0
  1 33  1  0  0  0  0
  1 34  1  0  0  0  0
  1 35  1  0  0  0  0
  2  3  1  0  0  0  0
  2 10  1  0  0  0  0
  2 36  1  1  0  0  0
  3  4  1  0  0  0  0
  3 37  1  0  0  0  0
  3 38  1  0  0  0  0
  4  5  1  0  0  0  0
  4 39  1  0  0  0  0
  4 40  1  0  0  0  0
  5  6  1  0  0  0  0
  5 41  1  6  0  0  0
  6  7  1  0  0  0  0
  7  8  1  0  0  0  0
  7  9  1  0  0  0  0
  7  5  1  0  0  0  0
  8 42  1  0  0  0  0
  8 43  1  0  0  0  0
  8 44  1  0  0  0  0
  9 45  1  0  0  0  0
  9 46  1  0  0  0  0
  9 47  1  0  0  0  0
 10 11  1  0  0  0  0
 10 48  1  1  0  0  0
 11 12  1  0  0  0  0
 11 49  1  0  0  0  0
 11 50  1  0  0  0  0
 12 13  1  0  0  0  0
 12 51  1  0  0  0  0
 12 52  1  0  0  0  0
 13 14  1  1  0  0  0
 13 15  1  0  0  0  0
 14 53  1  0  0  0  0
 14 54  1  0  0  0  0
 14 55  1  0  0  0  0
 15 16  1  0  0  0  0
 15 56  1  6  0  0  0
 16 17  1  0  0  0  0
 16 57  1  0  0  0  0
 16 58  1  0  0  0  0
 17 18  2  0  0  0  0
 17 59  1  0  0  0  0
 18 19  1  0  0  0  0
 19 20  1  0  0  0  0
 19 27  1  0  0  0  0
 19 60  1  1  0  0  0
 20 21  1  0  0  0  0
 20 61  1  0  0  0  0
 20 62  1  0  0  0  0
 21 22  1  0  0  0  0
 21 63  1  0  0  0  0
 21 64  1  0  0  0  0
 22 23  1  0  0  0  0
 22 24  1  0  0  0  0
 22 65  1  1  0  0  0
 23 66  1  0  0  0  0
 24 25  1  0  0  0  0
 24 26  1  0  0  0  0
 24 18  1  0  0  0  0
 25 67  1  0  0  0  0
 25 68  1  0  0  0  0
 25 69  1  0  0  0  0
 26 70  1  0  0  0  0
 26 71  1  0  0  0  0
 26 72  1  0  0  0  0
 27 28  1  6  0  0  0
 27 29  1  0  0  0  0
 27 15  1  0  0  0  0
 28 73  1  0  0  0  0
 28 74  1  0  0  0  0
 28 75  1  0  0  0  0
 29 30  1  0  0  0  0
 29 76  1  0  0  0  0
 29 77  1  0  0  0  0
 30 31  1  0  0  0  0
 30 78  1  0  0  0  0
 30 79  1  0  0  0  0
 31 32  1  6  0  0  0
 31 10  1  0  0  0  0
 31 13  1  0  0  0  0
 32 80  1  0  0  0  0
 32 81  1  0  0  0  0
 32 82  1  0  0  0  0
M  END
>  <meeko>
{"is_sidechain": [false], "intermolecular_energy": 2.731, "internal_energy": -0.839}

$$$$
