EPH_relaxed_0001_pdb2pqr_Repair_289_r2_0001_out
     RDKit          3D

 82 86  0  0  0  0  0  0  0  0999 V2000
    2.0110   19.6390   -0.5970 C   0  0  0  0  0  0  0  0  0  0  0  0
    2.3820   18.4100    0.2370 C   0  0  2  0  0  0  0  0  0  0  0  0
    3.8390   17.9660    0.0010 C   0  0  0  0  0  0  0  0  0  0  0  0
    4.7350   18.1140    1.2340 C   0  0  0  0  0  0  0  0  0  0  0  0
    4.0810   18.9440    2.2970 C   0  0  2  0  0  0  0  0  0  0  0  0
    4.7970   20.1350    2.6510 O   0  0  0  0  0  0  0  0  0  0  0  0
    4.6680   19.1430    3.6820 C   0  0  0  0  0  0  0  0  0  0  0  0
    5.9630   18.5060    4.0800 C   0  0  0  0  0  0  0  0  0  0  0  0
    3.7530   19.5460    4.7960 C   0  0  0  0  0  0  0  0  0  0  0  0
    1.4300   17.2620   -0.0780 C   0  0  1  0  0  0  0  0  0  0  0  0
    0.1980   17.7170   -0.9050 C   0  0  0  0  0  0  0  0  0  0  0  0
   -0.1550   16.5500   -1.8620 C   0  0  0  0  0  0  0  0  0  0  0  0
    0.6630   15.3500   -1.3310 C   0  0  1  0  0  0  0  0  0  0  0  0
   -0.1730   14.7900   -0.1380 C   0  0  0  0  0  0  0  0  0  0  0  0
    1.0040   14.2320   -2.3700 C   0  0  2  0  0  0  0  0  0  0  0  0
   -0.2130   13.5080   -2.9730 C   0  0  0  0  0  0  0  0  0  0  0  0
   -0.6610   12.2910   -2.2330 C   0  0  0  0  0  0  0  0  0  0  0  0
    0.0530   11.6360   -1.2990 C   0  0  0  0  0  0  0  0  0  0  0  0
    1.4930   12.0540   -0.9720 C   0  0  1  0  0  0  0  0  0  0  0  0
    2.3980   10.7950   -0.9170 C   0  0  0  0  0  0  0  0  0  0  0  0
    1.8660    9.7340    0.0420 C   0  0  0  0  0  0  0  0  0  0  0  0
    0.4550    9.3020   -0.3500 C   0  0  2  0  0  0  0  0  0  0  0  0
    0.5150    8.6190   -1.6060 O   0  0  0  0  0  0  0  0  0  0  0  0
   -0.5440   10.4890   -0.4470 C   0  0  0  0  0  0  0  0  0  0  0  0
   -0.8390   11.0380    0.9710 C   0  0  0  0  0  0  0  0  0  0  0  0
   -1.8910    9.9360   -0.9870 C   0  0  0  0  0  0  0  0  0  0  0  0
    2.1040   13.2060   -1.8810 C   0  0  1  0  0  0  0  0  0  0  0  0
    2.7410   12.5890   -3.1640 C   0  0  0  0  0  0  0  0  0  0  0  0
    3.2750   13.9110   -1.0990 C   0  0  0  0  0  0  0  0  0  0  0  0
    2.8880   15.0850   -0.1790 C   0  0  0  0  0  0  0  0  0  0  0  0
    1.9890   16.0840   -0.9140 C   0  0  2  0  0  0  0  0  0  0  0  0
    2.8110   16.6790   -2.1080 C   0  0  0  0  0  0  0  0  0  0  0  0
    1.7589   20.4742    0.0729 H   0  0  0  0  0  0  0  0  0  0  0  0
    2.8636   19.9225   -1.2316 H   0  0  0  0  0  0  0  0  0  0  0  0
    1.1440   19.4034   -1.2316 H   0  0  0  0  0  0  0  0  0  0  0  0
    2.2901   18.6894    1.2970 H   0  0  0  0  0  0  0  0  0  0  0  0
    3.8352   16.9081   -0.3005 H   0  0  0  0  0  0  0  0  0  0  0  0
    4.2531   18.6230   -0.7780 H   0  0  0  0  0  0  0  0  0  0  0  0
    4.9479   17.1150    1.6422 H   0  0  0  0  0  0  0  0  0  0  0  0
    5.6623   18.6193    0.9259 H   0  0  0  0  0  0  0  0  0  0  0  0
    3.0815   18.6357    1.9566 H   0  0  0  0  0  0  0  0  0  0  0  0
    6.0328   18.4717    5.1772 H   0  0  0  0  0  0  0  0  0  0  0  0
    6.0075   17.4832    3.6776 H   0  0  0  0  0  0  0  0  0  0  0  0
    6.8003   19.0951    3.6776 H   0  0  0  0  0  0  0  0  0  0  0  0
    4.2352   19.3336    5.7616 H   0  0  0  0  0  0  0  0  0  0  0  0
    3.5377   20.6222    4.7225 H   0  0  0  0  0  0  0  0  0  0  0  0
    2.8137   18.9783    4.7225 H   0  0  0  0  0  0  0  0  0  0  0  0
    1.2037   16.9247    0.9443 H   0  0  0  0  0  0  0  0  0  0  0  0
   -0.6497   17.9282   -0.2366 H   0  0  0  0  0  0  0  0  0  0  0  0
    0.4182   18.6361   -1.4679 H   0  0  0  0  0  0  0  0  0  0  0  0
   -1.2325   16.3315   -1.8272 H   0  0  0  0  0  0  0  0  0  0  0  0
    0.0804   16.7843   -2.9107 H   0  0  0  0  0  0  0  0  0  0  0  0
    0.2892   15.0996    0.8109 H   0  0  0  0  0  0  0  0  0  0  0  0
   -1.1986   15.1840   -0.1920 H   0  0  0  0  0  0  0  0  0  0  0  0
   -0.1989   13.6916   -0.1920 H   0  0  0  0  0  0  0  0  0  0  0  0
    1.4489   14.8060   -3.1962 H   0  0  0  0  0  0  0  0  0  0  0  0
   -1.0526   14.2183   -2.9994 H   0  0  0  0  0  0  0  0  0  0  0  0
    0.1012   13.1610   -3.9684 H   0  0  0  0  0  0  0  0  0  0  0  0
   -1.6596   11.8962   -2.4715 H   0  0  0  0  0  0  0  0  0  0  0  0
    1.4541   12.5290    0.0194 H   0  0  0  0  0  0  0  0  0  0  0  0
    2.4589   10.3601   -1.9255 H   0  0  0  0  0  0  0  0  0  0  0  0
    3.3866   11.1099   -0.5518 H   0  0  0  0  0  0  0  0  0  0  0  0
    2.5311    8.8583    0.0149 H   0  0  0  0  0  0  0  0  0  0  0  0
    1.8335   10.1612    1.0551 H   0  0  0  0  0  0  0  0  0  0  0  0
    0.0791    8.6404    0.4443 H   0  0  0  0  0  0  0  0  0  0  0  0
    1.1330    9.1060   -2.1770 H   0  0  0  0  0  0  0  0  0  0  0  0
   -0.4594   10.3316    1.7240 H   0  0  0  0  0  0  0  0  0  0  0  0
   -0.3424   12.0113    1.0980 H   0  0  0  0  0  0  0  0  0  0  0  0
   -1.9247   11.1610    1.0980 H   0  0  0  0  0  0  0  0  0  0  0  0
   -2.5426    9.6685   -0.1421 H   0  0  0  0  0  0  0  0  0  0  0  0
   -2.3833   10.7048   -1.6007 H   0  0  0  0  0  0  0  0  0  0  0  0
   -1.7011    9.0431   -1.6007 H   0  0  0  0  0  0  0  0  0  0  0  0
    3.5035   11.8504   -2.8759 H   0  0  0  0  0  0  0  0  0  0  0  0
    1.9595   12.0956   -3.7605 H   0  0  0  0  0  0  0  0  0  0  0  0
    3.2092   13.3859   -3.7605 H   0  0  0  0  0  0  0  0  0  0  0  0
    3.7661   13.1484   -0.4767 H   0  0  0  0  0  0  0  0  0  0  0  0
    3.9150   14.3535   -1.8766 H   0  0  0  0  0  0  0  0  0  0  0  0
    2.3500   14.6936    0.6970 H   0  0  0  0  0  0  0  0  0  0  0  0
    3.8065   15.6034    0.1334 H   0  0  0  0  0  0  0  0  0  0  0  0
    3.6435   17.2816   -1.7158 H   0  0  0  0  0  0  0  0  0  0  0  0
    3.2099   15.8590   -2.7232 H   0  0  0  0  0  0  0  0  0  0  0  0
    2.1566   17.3141   -2.7232 H   0  0  0  0  0  0  0  0  0  0  0  0
  1  2  1  0
  2  3  1  0
  3  4  1  0
  4  5  1  0
  5  6  1  0
  6  7  1  0
  7  8  1  0
  7  9  1  0
  2 10  1  0
 10 11  1  0
 11 12  1  0
 12 13  1  0
 13 14  1  1
 13 15  1  0
 15 16  1  0
 16 17  1  0
 17 18  2  0
 18 19  1  0
 19 20  1  0
 20 21  1  0
 21 22  1  0
 22 23  1  0
 22 24  1  0
 24 25  1  0
 24 26  1  0
 19 27  1  0
 27 28  1  6
 27 29  1  0
 29 30  1  0
 30 31  1  0
 31 32  1  6
  7  5  1  0
 31 10  1  0
 31 13  1  0
 27 15  1  0
 24 18  1  0
  1 33  1  0
  1 34  1  0
  1 35  1  0
  2 36  1  1
  3 37  1  0
  3 38  1  0
  4 39  1  0
  4 40  1  0
  5 41  1  1
  8 42  1  0
  8 43  1  0
  8 44  1  0
  9 45  1  0
  9 46  1  0
  9 47  1  0
 10 48  1  1
 11 49  1  0
 11 50  1  0
 12 51  1  0
 12 52  1  0
 14 53  1  0
 14 54  1  0
 14 55  1  0
 15 56  1  6
 16 57  1  0
 16 58  1  0
 17 59  1  0
 19 60  1  1
 20 61  1  0
 20 62  1  0
 21 63  1  0
 21 64  1  0
 22 65  1  1
 23 66  1  0
 25 67  1  0
 25 68  1  0
 25 69  1  0
 26 70  1  0
 26 71  1  0
 26 72  1  0
 28 73  1  0
 28 74  1  0
 28 75  1  0
 29 76  1  0
 29 77  1  0
 30 78  1  0
 30 79  1  0
 32 80  1  0
 32 81  1  0
 32 82  1  0
M  END
>  <meeko>  (1) 
{"is_sidechain": [false], "intermolecular_energy": 2.731, "internal_energy": -0.839}

$$$$
EPH_relaxed_0001_pdb2pqr_Repair_289_r2_0001_out
     RDKit          3D

 82 86  0  0  0  0  0  0  0  0999 V2000
    0.3980   18.3490    0.0030 C   0  0  0  0  0  0  0  0  0  0  0  0
    1.4800   17.2890   -0.2230 C   0  0  2  0  0  0  0  0  0  0  0  0
    2.6890   17.8480   -0.9990 C   0  0  0  0  0  0  0  0  0  0  0  0
    3.9280   18.0740   -0.1290 C   0  0  0  0  0  0  0  0  0  0  0  0
    3.5630   18.5620    1.2400 C   0  0  2  0  0  0  0  0  0  0  0  0
    3.7730   19.9640    1.4520 O   0  0  0  0  0  0  0  0  0  0  0  0
    4.5780   19.0750    2.2440 C   0  0  0  0  0  0  0  0  0  0  0  0
    6.0380   19.1260    1.9200 C   0  0  0  0  0  0  0  0  0  0  0  0
    4.2160   19.0670    3.6960 C   0  0  0  0  0  0  0  0  0  0  0  0
    0.8910   16.0950   -0.9660 C   0  0  1  0  0  0  0  0  0  0  0  0
    0.7260   16.3600   -2.4860 C   0  0  0  0  0  0  0  0  0  0  0  0
    1.0010   15.0150   -3.2060 C   0  0  0  0  0  0  0  0  0  0  0  0
    0.9860   13.9580   -2.0780 C   0  0  1  0  0  0  0  0  0  0  0  0
   -0.5250   13.6590   -1.8270 C   0  0  0  0  0  0  0  0  0  0  0  0
    1.7960   12.6480   -2.3470 C   0  0  2  0  0  0  0  0  0  0  0  0
    1.3000   11.8070   -3.5360 C   0  0  0  0  0  0  0  0  0  0  0  0
    0.2780   10.7720   -3.2020 C   0  0  0  0  0  0  0  0  0  0  0  0
   -0.0150   10.3320   -1.9640 C   0  0  0  0  0  0  0  0  0  0  0  0
    0.7830   10.8160   -0.7470 C   0  0  1  0  0  0  0  0  0  0  0  0
    1.1620    9.6020    0.1410 C   0  0  0  0  0  0  0  0  0  0  0  0
   -0.0510    8.7640    0.5350 C   0  0  0  0  0  0  0  0  0  0  0  0
   -0.7850    8.2530   -0.7020 C   0  0  2  0  0  0  0  0  0  0  0  0
    0.0580    7.3210   -1.3860 O   0  0  0  0  0  0  0  0  0  0  0  0
   -1.2080    9.3870   -1.6770 C   0  0  0  0  0  0  0  0  0  0  0  0
   -2.3470   10.2220   -1.0410 C   0  0  0  0  0  0  0  0  0  0  0  0
   -1.8110    8.7270   -2.9460 C   0  0  0  0  0  0  0  0  0  0  0  0
    2.0280   11.7530   -1.0620 C   0  0  1  0  0  0  0  0  0  0  0  0
    3.2900   10.8830   -1.3470 C   0  0  0  0  0  0  0  0  0  0  0  0
    2.3600   12.6130    0.2140 C   0  0  0  0  0  0  0  0  0  0  0  0
    1.6150   13.9530    0.3620 C   0  0  0  0  0  0  0  0  0  0  0  0
    1.6920   14.7700   -0.9310 C   0  0  2  0  0  0  0  0  0  0  0  0
    3.1990   15.1040   -1.1970 C   0  0  0  0  0  0  0  0  0  0  0  0
    0.2483   18.4957    1.0828 H   0  0  0  0  0  0  0  0  0  0  0  0
    0.7128   19.2979   -0.4558 H   0  0  0  0  0  0  0  0  0  0  0  0
   -0.5442   18.0148   -0.4558 H   0  0  0  0  0  0  0  0  0  0  0  0
    1.8418   16.9704    0.7657 H   0  0  0  0  0  0  0  0  0  0  0  0
    2.9495   17.1359   -1.7959 H   0  0  0  0  0  0  0  0  0  0  0  0
    2.3907   18.8301   -1.3946 H   0  0  0  0  0  0  0  0  0  0  0  0
    4.4753   17.1245   -0.0347 H   0  0  0  0  0  0  0  0  0  0  0  0
    4.5504   18.8418   -0.6119 H   0  0  0  0  0  0  0  0  0  0  0  0
    2.7617   17.8125    1.3186 H   0  0  0  0  0  0  0  0  0  0  0  0
    6.6202   19.1463    2.8531 H   0  0  0  0  0  0  0  0  0  0  0  0
    6.3149   18.2370    1.3344 H   0  0  0  0  0  0  0  0  0  0  0  0
    6.2522   20.0322    1.3344 H   0  0  0  0  0  0  0  0  0  0  0  0
    5.1333   19.0873    4.3027 H   0  0  0  0  0  0  0  0  0  0  0  0
    3.6044   19.9518    3.9263 H   0  0  0  0  0  0  0  0  0  0  0  0
    3.6441   18.1560    3.9263 H   0  0  0  0  0  0  0  0  0  0  0  0
   -0.0515   15.9787   -0.4108 H   0  0  0  0  0  0  0  0  0  0  0  0
   -0.2965   16.7033   -2.7020 H   0  0  0  0  0  0  0  0  0  0  0  0
    1.4205   17.1411   -2.8288 H   0  0  0  0  0  0  0  0  0  0  0  0
    0.2157   14.8035   -3.9467 H   0  0  0  0  0  0  0  0  0  0  0  0
    1.9533   15.0238   -3.7564 H   0  0  0  0  0  0  0  0  0  0  0  0
   -0.7164   13.6211   -0.7444 H   0  0  0  0  0  0  0  0  0  0  0  0
   -1.1362   14.4536   -2.2798 H   0  0  0  0  0  0  0  0  0  0  0  0
   -0.7875   12.6915   -2.2798 H   0  0  0  0  0  0  0  0  0  0  0  0
    2.7805   13.0369   -2.6463 H   0  0  0  0  0  0  0  0  0  0  0  0
    0.8612   12.4914   -4.2769 H   0  0  0  0  0  0  0  0  0  0  0  0
    2.1780   11.2589   -3.9085 H   0  0  0  0  0  0  0  0  0  0  0  0
   -0.2837   10.3311   -4.0387 H   0  0  0  0  0  0  0  0  0  0  0  0
    0.1123   11.4889   -0.1926 H   0  0  0  0  0  0  0  0  0  0  0  0
    1.8655    8.9646   -0.4147 H   0  0  0  0  0  0  0  0  0  0  0  0
    1.6128    9.9922    1.0654 H   0  0  0  0  0  0  0  0  0  0  0  0
    0.2841    7.9053    1.1353 H   0  0  0  0  0  0  0  0  0  0  0  0
   -0.7396    9.3943    1.1169 H   0  0  0  0  0  0  0  0  0  0  0  0
   -1.7131    7.7726   -0.3588 H   0  0  0  0  0  0  0  0  0  0  0  0
   -0.3680    7.1050   -2.2330 H   0  0  0  0  0  0  0  0  0  0  0  0
   -2.2732   10.1679    0.0552 H   0  0  0  0  0  0  0  0  0  0  0  0
   -2.2573   11.2699   -1.3633 H   0  0  0  0  0  0  0  0  0  0  0  0
   -3.3194    9.8212   -1.3633 H   0  0  0  0  0  0  0  0  0  0  0  0
   -2.5253    7.9452   -2.6485 H   0  0  0  0  0  0  0  0  0  0  0  0
   -2.3306    9.4899   -3.5444 H   0  0  0  0  0  0  0  0  0  0  0  0
   -1.0044    8.2783   -3.5444 H   0  0  0  0  0  0  0  0  0  0  0  0
    3.7429   10.5708   -0.3944 H   0  0  0  0  0  0  0  0  0  0  0  0
    2.9990    9.9927   -1.9238 H   0  0  0  0  0  0  0  0  0  0  0  0
    4.0185   11.4717   -1.9238 H   0  0  0  0  0  0  0  0  0  0  0  0
    2.1242   12.0019    1.0977 H   0  0  0  0  0  0  0  0  0  0  0  0
    3.4211   12.8838    0.1103 H   0  0  0  0  0  0  0  0  0  0  0  0
    0.5595   13.7534    0.5990 H   0  0  0  0  0  0  0  0  0  0  0  0
    2.0891   14.5300    1.1697 H   0  0  0  0  0  0  0  0  0  0  0  0
    3.7237   15.2203   -0.2372 H   0  0  0  0  0  0  0  0  0  0  0  0
    3.6601   14.2863   -1.7703 H   0  0  0  0  0  0  0  0  0  0  0  0
    3.2715   16.0400   -1.7703 H   0  0  0  0  0  0  0  0  0  0  0  0
  1  2  1  0
  2  3  1  0
  3  4  1  0
  4  5  1  0
  5  6  1  0
  6  7  1  0
  7  8  1  0
  7  9  1  0
  2 10  1  0
 10 11  1  0
 11 12  1  0
 12 13  1  0
 13 14  1  1
 13 15  1  0
 15 16  1  0
 16 17  1  0
 17 18  2  0
 18 19  1  0
 19 20  1  0
 20 21  1  0
 21 22  1  0
 22 23  1  0
 22 24  1  0
 24 25  1  0
 24 26  1  0
 19 27  1  0
 27 28  1  6
 27 29  1  0
 29 30  1  0
 30 31  1  0
 31 32  1  6
  7  5  1  0
 31 10  1  0
 31 13  1  0
 27 15  1  0
 24 18  1  0
  1 33  1  0
  1 34  1  0
  1 35  1  0
  2 36  1  1
  3 37  1  0
  3 38  1  0
  4 39  1  0
  4 40  1  0
  5 41  1  1
  8 42  1  0
  8 43  1  0
  8 44  1  0
  9 45  1  0
  9 46  1  0
  9 47  1  0
 10 48  1  1
 11 49  1  0
 11 50  1  0
 12 51  1  0
 12 52  1  0
 14 53  1  0
 14 54  1  0
 14 55  1  0
 15 56  1  6
 16 57  1  0
 16 58  1  0
 17 59  1  0
 19 60  1  1
 20 61  1  0
 20 62  1  0
 21 63  1  0
 21 64  1  0
 22 65  1  1
 23 66  1  0
 25 67  1  0
 25 68  1  0
 25 69  1  0
 26 70  1  0
 26 71  1  0
 26 72  1  0
 28 73  1  0
 28 74  1  0
 28 75  1  0
 29 76  1  0
 29 77  1  0
 30 78  1  0
 30 79  1  0
 32 80  1  0
 32 81  1  0
 32 82  1  0
M  END
>  <meeko>  (2) 
{"is_sidechain": [false], "intermolecular_energy": 2.731, "internal_energy": -0.839}

$$$$
EPH_relaxed_0001_pdb2pqr_Repair_289_r2_0001_out
     RDKit          3D

 82 86  0  0  0  0  0  0  0  0999 V2000
   -1.8050    8.4700   -1.9540 C   0  0  0  0  0  0  0  0  0  0  0  0
   -2.1620    8.9460   -0.5440 C   0  0  2  0  0  0  0  0  0  0  0  0
   -3.6460    9.3470   -0.4240 C   0  0  0  0  0  0  0  0  0  0  0  0
   -4.5950    8.1560   -0.2760 C   0  0  0  0  0  0  0  0  0  0  0  0
   -5.2840    7.8320   -1.5670 C   0  0  2  0  0  0  0  0  0  0  0  0
   -6.3890    8.6880   -1.8870 O   0  0  0  0  0  0  0  0  0  0  0  0
   -6.7060    7.3070   -1.6480 C   0  0  0  0  0  0  0  0  0  0  0  0
   -7.5230    7.0750   -0.4160 C   0  0  0  0  0  0  0  0  0  0  0  0
   -7.1250    6.5630   -2.8770 C   0  0  0  0  0  0  0  0  0  0  0  0
   -1.2720   10.1200   -0.1500 C   0  0  1  0  0  0  0  0  0  0  0  0
   -0.2300    9.7420    0.9360 C   0  0  0  0  0  0  0  0  0  0  0  0
    1.0520   10.5570    0.6300 C   0  0  0  0  0  0  0  0  0  0  0  0
    0.6040   11.6130   -0.4080 C   0  0  1  0  0  0  0  0  0  0  0  0
   -0.0660   12.7440    0.4340 C   0  0  0  0  0  0  0  0  0  0  0  0
    1.7200   12.1770   -1.3460 C   0  0  2  0  0  0  0  0  0  0  0  0
    2.8510   12.9370   -0.6320 C   0  0  0  0  0  0  0  0  0  0  0  0
    2.6330   14.4060   -0.4760 C   0  0  0  0  0  0  0  0  0  0  0  0
    1.7140   15.1340   -1.1360 C   0  0  0  0  0  0  0  0  0  0  0  0
    0.8380   14.4990   -2.2240 C   0  0  1  0  0  0  0  0  0  0  0  0
    0.8090   15.4210   -3.4710 C   0  0  0  0  0  0  0  0  0  0  0  0
    0.3800   16.8460   -3.1340 C   0  0  0  0  0  0  0  0  0  0  0  0
    1.3090   17.4640   -2.0930 C   0  0  2  0  0  0  0  0  0  0  0  0
    2.6060   17.6340   -2.6750 O   0  0  0  0  0  0  0  0  0  0  0  0
    1.4250   16.6170   -0.7950 C   0  0  0  0  0  0  0  0  0  0  0  0
    0.0930   16.6850   -0.0090 C   0  0  0  0  0  0  0  0  0  0  0  0
    2.4990   17.2770    0.1120 C   0  0  0  0  0  0  0  0  0  0  0  0
    1.1730   12.9890   -2.5890 C   0  0  1  0  0  0  0  0  0  0  0  0
    2.2880   12.9400   -3.6790 C   0  0  0  0  0  0  0  0  0  0  0  0
   -0.1010   12.3190   -3.2270 C   0  0  0  0  0  0  0  0  0  0  0  0
   -1.1080   11.6750   -2.2550 C   0  0  0  0  0  0  0  0  0  0  0  0
   -0.3960   10.7520   -1.2610 C   0  0  2  0  0  0  0  0  0  0  0  0
    0.2690    9.5920   -2.0780 C   0  0  0  0  0  0  0  0  0  0  0  0
   -1.1462    7.5916   -1.8886 H   0  0  0  0  0  0  0  0  0  0  0  0
   -2.7246    8.1993   -2.4934 H   0  0  0  0  0  0  0  0  0  0  0  0
   -1.2876    9.2770   -2.4934 H   0  0  0  0  0  0  0  0  0  0  0  0
   -1.9913    8.1032    0.1420 H   0  0  0  0  0  0  0  0  0  0  0  0
   -3.7606    9.9941    0.4581 H   0  0  0  0  0  0  0  0  0  0  0  0
   -3.9170    9.8597   -1.3587 H   0  0  0  0  0  0  0  0  0  0  0  0
   -4.0174    7.2784    0.0498 H   0  0  0  0  0  0  0  0  0  0  0  0
   -5.3633    8.4200    0.4657 H   0  0  0  0  0  0  0  0  0  0  0  0
   -4.3408    7.4787   -2.0091 H   0  0  0  0  0  0  0  0  0  0  0  0
   -6.9018    7.2514    0.4745 H   0  0  0  0  0  0  0  0  0  0  0  0
   -8.3792    7.7655   -0.4084 H   0  0  0  0  0  0  0  0  0  0  0  0
   -7.8885    6.0375   -0.4084 H   0  0  0  0  0  0  0  0  0  0  0  0
   -7.6456    5.6386   -2.5864 H   0  0  0  0  0  0  0  0  0  0  0  0
   -7.8013    7.1925   -3.4740 H   0  0  0  0  0  0  0  0  0  0  0  0
   -6.2361    6.3110   -3.4740 H   0  0  0  0  0  0  0  0  0  0  0  0
   -2.0426   10.8345    0.1750 H   0  0  0  0  0  0  0  0  0  0  0  0
   -0.6132    9.9997    1.9344 H   0  0  0  0  0  0  0  0  0  0  0  0
   -0.0228    8.6617    0.9249 H   0  0  0  0  0  0  0  0  0  0  0  0
    1.4295   11.0439    1.5413 H   0  0  0  0  0  0  0  0  0  0  0  0
    1.8695    9.9238    0.2550 H   0  0  0  0  0  0  0  0  0  0  0  0
    0.0617   12.5284    1.5051 H   0  0  0  0  0  0  0  0  0  0  0  0
    0.4068   13.7080    0.1951 H   0  0  0  0  0  0  0  0  0  0  0  0
   -1.1387   12.7925    0.1951 H   0  0  0  0  0  0  0  0  0  0  0  0
    2.1805   11.2596   -1.7414 H   0  0  0  0  0  0  0  0  0  0  0  0
    2.9716   12.5028    0.3715 H   0  0  0  0  0  0  0  0  0  0  0  0
    3.7409   12.8274   -1.2693 H   0  0  0  0  0  0  0  0  0  0  0  0
    3.2782   14.9378    0.2388 H   0  0  0  0  0  0  0  0  0  0  0  0
   -0.1718   14.4221   -1.7945 H   0  0  0  0  0  0  0  0  0  0  0  0
    1.8166   15.4507   -3.9113 H   0  0  0  0  0  0  0  0  0  0  0  0
    0.0720   15.0077   -4.1753 H   0  0  0  0  0  0  0  0  0  0  0  0
    0.4080   17.4562   -4.0488 H   0  0  0  0  0  0  0  0  0  0  0  0
   -0.6394   16.8173   -2.7216 H   0  0  0  0  0  0  0  0  0  0  0  0
    0.8764   18.4313   -1.7979 H   0  0  0  0  0  0  0  0  0  0  0  0
    2.7840   16.8540   -3.2280 H   0  0  0  0  0  0  0  0  0  0  0  0
    0.3034   16.6743    1.0706 H   0  0  0  0  0  0  0  0  0  0  0  0
   -0.4396   17.6115   -0.2696 H   0  0  0  0  0  0  0  0  0  0  0  0
   -0.5312   15.8176   -0.2696 H   0  0  0  0  0  0  0  0  0  0  0  0
    2.2365   17.1157    1.1680 H   0  0  0  0  0  0  0  0  0  0  0  0
    3.4808   16.8262   -0.0948 H   0  0  0  0  0  0  0  0  0  0  0  0
    2.5404   18.3566   -0.0948 H   0  0  0  0  0  0  0  0  0  0  0  0
    3.2740   12.8967   -3.1932 H   0  0  0  0  0  0  0  0  0  0  0  0
    2.1487   12.0471   -4.3062 H   0  0  0  0  0  0  0  0  0  0  0  0
    2.2275   13.8417   -4.3062 H   0  0  0  0  0  0  0  0  0  0  0  0
   -0.6359   13.0947   -3.7946 H   0  0  0  0  0  0  0  0  0  0  0  0
    0.2851   11.4870   -3.8342 H   0  0  0  0  0  0  0  0  0  0  0  0
   -1.6298   12.4682   -1.6995 H   0  0  0  0  0  0  0  0  0  0  0  0
   -1.8250   11.0776   -2.8372 H   0  0  0  0  0  0  0  0  0  0  0  0
    0.6935    8.8514   -1.3842 H   0  0  0  0  0  0  0  0  0  0  0  0
   -0.4890    9.1084   -2.7117 H   0  0  0  0  0  0  0  0  0  0  0  0
    1.0693   10.0018   -2.7117 H   0  0  0  0  0  0  0  0  0  0  0  0
  1  2  1  0
  2  3  1  0
  3  4  1  0
  4  5  1  0
  5  6  1  0
  6  7  1  0
  7  8  1  0
  7  9  1  0
  2 10  1  0
 10 11  1  0
 11 12  1  0
 12 13  1  0
 13 14  1  1
 13 15  1  0
 15 16  1  0
 16 17  1  0
 17 18  2  0
 18 19  1  0
 19 20  1  0
 20 21  1  0
 21 22  1  0
 22 23  1  0
 22 24  1  0
 24 25  1  0
 24 26  1  0
 19 27  1  0
 27 28  1  6
 27 29  1  0
 29 30  1  0
 30 31  1  0
 31 32  1  6
  7  5  1  0
 31 10  1  0
 31 13  1  0
 27 15  1  0
 24 18  1  0
  1 33  1  0
  1 34  1  0
  1 35  1  0
  2 36  1  1
  3 37  1  0
  3 38  1  0
  4 39  1  0
  4 40  1  0
  5 41  1  6
  8 42  1  0
  8 43  1  0
  8 44  1  0
  9 45  1  0
  9 46  1  0
  9 47  1  0
 10 48  1  1
 11 49  1  0
 11 50  1  0
 12 51  1  0
 12 52  1  0
 14 53  1  0
 14 54  1  0
 14 55  1  0
 15 56  1  6
 16 57  1  0
 16 58  1  0
 17 59  1  0
 19 60  1  1
 20 61  1  0
 20 62  1  0
 21 63  1  0
 21 64  1  0
 22 65  1  1
 23 66  1  0
 25 67  1  0
 25 68  1  0
 25 69  1  0
 26 70  1  0
 26 71  1  0
 26 72  1  0
 28 73  1  0
 28 74  1  0
 28 75  1  0
 29 76  1  0
 29 77  1  0
 30 78  1  0
 30 79  1  0
 32 80  1  0
 32 81  1  0
 32 82  1  0
M  END
>  <meeko>  (3) 
{"is_sidechain": [false], "intermolecular_energy": 2.731, "internal_energy": -0.839}

$$$$
EPH_relaxed_0001_pdb2pqr_Repair_289_r2_0001_out
     RDKit          3D

 82 86  0  0  0  0  0  0  0  0999 V2000
    3.7710   17.8860    0.8370 C   0  0  0  0  0  0  0  0  0  0  0  0
    2.7770   18.3010   -0.2510 C   0  0  2  0  0  0  0  0  0  0  0  0
    2.0560   19.6200    0.0940 C   0  0  0  0  0  0  0  0  0  0  0  0
    0.8610   19.4400    1.0340 C   0  0  0  0  0  0  0  0  0  0  0  0
   -0.3820   20.0640    0.4760 C   0  0  2  0  0  0  0  0  0  0  0  0
   -1.4590   20.1940    1.4130 O   0  0  0  0  0  0  0  0  0  0  0  0
   -1.6890   19.3120    0.3020 C   0  0  0  0  0  0  0  0  0  0  0  0
   -1.8180   17.8710    0.6850 C   0  0  0  0  0  0  0  0  0  0  0  0
   -2.6880   19.8330   -0.6850 C   0  0  0  0  0  0  0  0  0  0  0  0
    1.7560   17.1920   -0.4730 C   0  0  1  0  0  0  0  0  0  0  0  0
    0.5360   17.6610   -1.3100 C   0  0  0  0  0  0  0  0  0  0  0  0
    0.0990   16.4550   -2.1800 C   0  0  0  0  0  0  0  0  0  0  0  0
    0.8580   15.2470   -1.5800 C   0  0  1  0  0  0  0  0  0  0  0  0
    0.0140   14.8190   -0.3390 C   0  0  0  0  0  0  0  0  0  0  0  0
    1.1150   14.0450   -2.5460 C   0  0  2  0  0  0  0  0  0  0  0  0
   -0.1520   13.3530   -3.0790 C   0  0  0  0  0  0  0  0  0  0  0  0
   -0.6550   12.2170   -2.2510 C   0  0  0  0  0  0  0  0  0  0  0  0
    0.0390   11.5860   -1.2850 C   0  0  0  0  0  0  0  0  0  0  0  0
    1.5060   11.9410   -1.0090 C   0  0  1  0  0  0  0  0  0  0  0  0
    2.3380   10.6380   -0.8820 C   0  0  0  0  0  0  0  0  0  0  0  0
    1.7650    9.6760    0.1550 C   0  0  0  0  0  0  0  0  0  0  0  0
    0.3250    9.3020   -0.1860 C   0  0  2  0  0  0  0  0  0  0  0  0
    0.3210    8.5340   -1.3930 O   0  0  0  0  0  0  0  0  0  0  0  0
   -0.6070   10.5350   -0.3490 C   0  0  0  0  0  0  0  0  0  0  0  0
   -0.8430   11.1950    1.0330 C   0  0  0  0  0  0  0  0  0  0  0  0
   -1.9930   10.0270   -0.8290 C   0  0  0  0  0  0  0  0  0  0  0  0
    2.1640   12.9910   -2.0040 C   0  0  1  0  0  0  0  0  0  0  0  0
    2.7400   12.2540   -3.2510 C   0  0  0  0  0  0  0  0  0  0  0  0
    3.3870   13.6780   -1.2890 C   0  0  0  0  0  0  0  0  0  0  0  0
    3.0860   14.9320   -0.4470 C   0  0  0  0  0  0  0  0  0  0  0  0
    2.2310   15.9290   -1.2350 C   0  0  2  0  0  0  0  0  0  0  0  0
    3.0630   16.3950   -2.4780 C   0  0  0  0  0  0  0  0  0  0  0  0
    3.3289   18.0706    1.8272 H   0  0  0  0  0  0  0  0  0  0  0  0
    4.0031   16.8158    0.7327 H   0  0  0  0  0  0  0  0  0  0  0  0
    4.6951   18.4734    0.7327 H   0  0  0  0  0  0  0  0  0  0  0  0
    3.3493   18.4694   -1.1752 H   0  0  0  0  0  0  0  0  0  0  0  0
    2.7785   20.2950    0.5760 H   0  0  0  0  0  0  0  0  0  0  0  0
    1.6646   20.0289   -0.8492 H   0  0  0  0  0  0  0  0  0  0  0  0
    0.6839   18.3647    1.1835 H   0  0  0  0  0  0  0  0  0  0  0  0
    1.0962   19.9370    1.9867 H   0  0  0  0  0  0  0  0  0  0  0  0
    0.2098   20.6847   -0.2129 H   0  0  0  0  0  0  0  0  0  0  0  0
   -1.8259   17.7823    1.7814 H   0  0  0  0  0  0  0  0  0  0  0  0
   -2.7560   17.4659    0.2776 H   0  0  0  0  0  0  0  0  0  0  0  0
   -0.9669   17.3057    0.2776 H   0  0  0  0  0  0  0  0  0  0  0  0
   -3.5385   20.2765   -0.1465 H   0  0  0  0  0  0  0  0  0  0  0  0
   -2.2143   20.5989   -1.3167 H   0  0  0  0  0  0  0  0  0  0  0  0
   -3.0449   19.0062   -1.3167 H   0  0  0  0  0  0  0  0  0  0  0  0
    1.5308   16.9379    0.5733 H   0  0  0  0  0  0  0  0  0  0  0  0
   -0.2853   17.9651   -0.6445 H   0  0  0  0  0  0  0  0  0  0  0  0
    0.7970   18.5260   -1.9374 H   0  0  0  0  0  0  0  0  0  0  0  0
   -0.9884   16.3022   -2.1143 H   0  0  0  0  0  0  0  0  0  0  0  0
    0.3273   16.6043   -3.2456 H   0  0  0  0  0  0  0  0  0  0  0  0
    0.5512   15.0914    0.5814 H   0  0  0  0  0  0  0  0  0  0  0  0
   -0.9583   15.3330   -0.3619 H   0  0  0  0  0  0  0  0  0  0  0  0
   -0.1458   13.7309   -0.3619 H   0  0  0  0  0  0  0  0  0  0  0  0
    1.5754   14.5362   -3.4159 H   0  0  0  0  0  0  0  0  0  0  0  0
   -0.9502   14.1072   -3.1418 H   0  0  0  0  0  0  0  0  0  0  0  0
    0.1240   12.9211   -4.0523 H   0  0  0  0  0  0  0  0  0  0  0  0
   -1.6789   11.8659   -2.4466 H   0  0  0  0  0  0  0  0  0  0  0  0
    1.5135   12.4836   -0.0522 H   0  0  0  0  0  0  0  0  0  0  0  0
    2.3547   10.1337   -1.8594 H   0  0  0  0  0  0  0  0  0  0  0  0
    3.3497   10.9187   -0.5537 H   0  0  0  0  0  0  0  0  0  0  0  0
    2.3785    8.7633    0.1773 H   0  0  0  0  0  0  0  0  0  0  0  0
    1.7764   10.1707    1.1374 H   0  0  0  0  0  0  0  0  0  0  0  0
   -0.0717    8.7184    0.6578 H   0  0  0  0  0  0  0  0  0  0  0  0
    1.2370    8.4890   -1.7160 H   0  0  0  0  0  0  0  0  0  0  0  0
   -0.5874   10.4802    1.8291 H   0  0  0  0  0  0  0  0  0  0  0  0
   -0.2088   12.0890    1.1255 H   0  0  0  0  0  0  0  0  0  0  0  0
   -1.9003   11.4842    1.1255 H   0  0  0  0  0  0  0  0  0  0  0  0
   -2.6215    9.7966    0.0439 H   0  0  0  0  0  0  0  0  0  0  0  0
   -2.4789   10.8055   -1.4355 H   0  0  0  0  0  0  0  0  0  0  0  0
   -1.8608    9.1189   -1.4355 H   0  0  0  0  0  0  0  0  0  0  0  0
    3.3864   11.4270   -2.9220 H   0  0  0  0  0  0  0  0  0  0  0  0
    1.9124   11.8544   -3.8555 H   0  0  0  0  0  0  0  0  0  0  0  0
    3.3277   12.9605   -3.8555 H   0  0  0  0  0  0  0  0  0  0  0  0
    3.8445   12.9320   -0.6226 H   0  0  0  0  0  0  0  0  0  0  0  0
    4.0365   14.0287   -2.1045 H   0  0  0  0  0  0  0  0  0  0  0  0
    2.5441   14.6333    0.4625 H   0  0  0  0  0  0  0  0  0  0  0  0
    4.0386   15.4163   -0.1860 H   0  0  0  0  0  0  0  0  0  0  0  0
    3.9756   16.9062   -2.1376 H   0  0  0  0  0  0  0  0  0  0  0  0
    3.3377   15.5194   -3.0846 H   0  0  0  0  0  0  0  0  0  0  0  0
    2.4599   17.0866   -3.0846 H   0  0  0  0  0  0  0  0  0  0  0  0
  1  2  1  0
  2  3  1  0
  3  4  1  0
  4  5  1  0
  5  6  1  0
  6  7  1  0
  7  8  1  0
  7  9  1  0
  2 10  1  0
 10 11  1  0
 11 12  1  0
 12 13  1  0
 13 14  1  1
 13 15  1  0
 15 16  1  0
 16 17  1  0
 17 18  2  0
 18 19  1  0
 19 20  1  0
 20 21  1  0
 21 22  1  0
 22 23  1  0
 22 24  1  0
 24 25  1  0
 24 26  1  0
 19 27  1  0
 27 28  1  6
 27 29  1  0
 29 30  1  0
 30 31  1  0
 31 32  1  6
  7  5  1  0
 31 10  1  0
 31 13  1  0
 27 15  1  0
 24 18  1  0
  1 33  1  0
  1 34  1  0
  1 35  1  0
  2 36  1  6
  3 37  1  0
  3 38  1  0
  4 39  1  0
  4 40  1  0
  5 41  1  6
  8 42  1  0
  8 43  1  0
  8 44  1  0
  9 45  1  0
  9 46  1  0
  9 47  1  0
 10 48  1  1
 11 49  1  0
 11 50  1  0
 12 51  1  0
 12 52  1  0
 14 53  1  0
 14 54  1  0
 14 55  1  0
 15 56  1  6
 16 57  1  0
 16 58  1  0
 17 59  1  0
 19 60  1  1
 20 61  1  0
 20 62  1  0
 21 63  1  0
 21 64  1  0
 22 65  1  1
 23 66  1  0
 25 67  1  0
 25 68  1  0
 25 69  1  0
 26 70  1  0
 26 71  1  0
 26 72  1  0
 28 73  1  0
 28 74  1  0
 28 75  1  0
 29 76  1  0
 29 77  1  0
 30 78  1  0
 30 79  1  0
 32 80  1  0
 32 81  1  0
 32 82  1  0
M  END
>  <meeko>  (4) 
{"is_sidechain": [false], "intermolecular_energy": 2.731, "internal_energy": -0.839}

$$$$
EPH_relaxed_0001_pdb2pqr_Repair_289_r2_0001_out
     RDKit          3D

 82 86  0  0  0  0  0  0  0  0999 V2000
    2.7000   17.8140   -1.9080 C   0  0  0  0  0  0  0  0  0  0  0  0
    1.2290   17.5890   -1.5470 C   0  0  2  0  0  0  0  0  0  0  0  0
    0.9820   17.6920   -0.0280 C   0  0  0  0  0  0  0  0  0  0  0  0
    0.5710   19.0930    0.4340 C   0  0  0  0  0  0  0  0  0  0  0  0
   -0.9140   19.2090    0.5980 C   0  0  2  0  0  0  0  0  0  0  0  0
   -1.6760   18.2540   -0.1520 O   0  0  0  0  0  0  0  0  0  0  0  0
   -1.8490   19.6320   -0.5200 C   0  0  0  0  0  0  0  0  0  0  0  0
   -1.3330   19.9680   -1.8830 C   0  0  0  0  0  0  0  0  0  0  0  0
   -3.1910   20.1890   -0.1580 C   0  0  0  0  0  0  0  0  0  0  0  0
    0.7720   16.2280   -2.0580 C   0  0  1  0  0  0  0  0  0  0  0  0
    0.8900   16.0980   -3.6000 C   0  0  0  0  0  0  0  0  0  0  0  0
    1.2760   14.6260   -3.8960 C   0  0  0  0  0  0  0  0  0  0  0  0
    1.0440   13.8850   -2.5590 C   0  0  1  0  0  0  0  0  0  0  0  0
   -0.4910   13.6050   -2.5160 C   0  0  0  0  0  0  0  0  0  0  0  0
    1.8740   12.5780   -2.3390 C   0  0  2  0  0  0  0  0  0  0  0  0
    1.5930   11.4500   -3.3460 C   0  0  0  0  0  0  0  0  0  0  0  0
    0.5150   10.4960   -2.9510 C   0  0  0  0  0  0  0  0  0  0  0  0
   -0.0030   10.3700   -1.7150 C   0  0  0  0  0  0  0  0  0  0  0  0
    0.5660   11.1710   -0.5370 C   0  0  1  0  0  0  0  0  0  0  0  0
    0.7620   10.2310    0.6810 C   0  0  0  0  0  0  0  0  0  0  0  0
   -0.5120    9.4770    1.0500 C   0  0  0  0  0  0  0  0  0  0  0  0
   -1.0140    8.6470   -0.1290 C   0  0  2  0  0  0  0  0  0  0  0  0
   -0.0710    7.6030   -0.3930 O   0  0  0  0  0  0  0  0  0  0  0  0
   -1.2390    9.4860   -1.4180 C   0  0  0  0  0  0  0  0  0  0  0  0
   -2.4650   10.4130   -1.2280 C   0  0  0  0  0  0  0  0  0  0  0  0
   -1.6080    8.5080   -2.5660 C   0  0  0  0  0  0  0  0  0  0  0  0
    1.8580   12.0420   -0.8500 C   0  0  1  0  0  0  0  0  0  0  0  0
    3.1400   11.1730   -0.6760 C   0  0  0  0  0  0  0  0  0  0  0  0
    1.9620   13.2050    0.2060 C   0  0  0  0  0  0  0  0  0  0  0  0
    1.2170   14.5130   -0.1250 C   0  0  0  0  0  0  0  0  0  0  0  0
    1.5380   14.9820   -1.5470 C   0  0  2  0  0  0  0  0  0  0  0  0
    3.0720   15.2920   -1.6140 C   0  0  0  0  0  0  0  0  0  0  0  0
    3.2939   17.9048   -0.9866 H   0  0  0  0  0  0  0  0  0  0  0  0
    3.0672   16.9616   -2.4984 H   0  0  0  0  0  0  0  0  0  0  0  0
    2.7956   18.7372   -2.4984 H   0  0  0  0  0  0  0  0  0  0  0  0
    0.6431   18.3841   -2.0312 H   0  0  0  0  0  0  0  0  0  0  0  0
    0.1812   16.9881    0.2424 H   0  0  0  0  0  0  0  0  0  0  0  0
    1.9339   17.4551    0.4698 H   0  0  0  0  0  0  0  0  0  0  0  0
    1.0540   19.3061    1.3990 H   0  0  0  0  0  0  0  0  0  0  0  0
    0.8886   19.8141   -0.3335 H   0  0  0  0  0  0  0  0  0  0  0  0
   -0.7955   19.5605    1.6336 H   0  0  0  0  0  0  0  0  0  0  0  0
   -0.4145   20.5661   -1.7902 H   0  0  0  0  0  0  0  0  0  0  0  0
   -1.1124   19.0399   -2.4306 H   0  0  0  0  0  0  0  0  0  0  0  0
   -2.0926   20.5452   -2.4306 H   0  0  0  0  0  0  0  0  0  0  0  0
   -3.2880   20.2293    0.9370 H   0  0  0  0  0  0  0  0  0  0  0  0
   -3.2911   21.2030   -0.5725 H   0  0  0  0  0  0  0  0  0  0  0  0
   -3.9797   19.5439   -0.5725 H   0  0  0  0  0  0  0  0  0  0  0  0
   -0.2571   16.2220   -1.6696 H   0  0  0  0  0  0  0  0  0  0  0  0
   -0.0719   16.3404   -4.0754 H   0  0  0  0  0  0  0  0  0  0  0  0
    1.6445   16.7922   -3.9985 H   0  0  0  0  0  0  0  0  0  0  0  0
    0.6362   14.2085   -4.6874 H   0  0  0  0  0  0  0  0  0  0  0  0
    2.3126   14.5302   -4.2514 H   0  0  0  0  0  0  0  0  0  0  0  0
   -0.8235   13.5444   -1.4692 H   0  0  0  0  0  0  0  0  0  0  0  0
   -1.0268   14.4202   -3.0242 H   0  0  0  0  0  0  0  0  0  0  0  0
   -0.7045   12.6531   -3.0242 H   0  0  0  0  0  0  0  0  0  0  0  0
    2.9011   12.9135   -2.5454 H   0  0  0  0  0  0  0  0  0  0  0  0
    1.3046   11.9118   -4.3018 H   0  0  0  0  0  0  0  0  0  0  0  0
    2.5176   10.8570   -3.4042 H   0  0  0  0  0  0  0  0  0  0  0  0
    0.1098    9.8407   -3.7361 H   0  0  0  0  0  0  0  0  0  0  0  0
   -0.1856   11.9383   -0.2995 H   0  0  0  0  0  0  0  0  0  0  0  0
    1.5470    9.4994    0.4389 H   0  0  0  0  0  0  0  0  0  0  0  0
    1.0416   10.8552    1.5425 H   0  0  0  0  0  0  0  0  0  0  0  0
   -0.3021    8.8084    1.8979 H   0  0  0  0  0  0  0  0  0  0  0  0
   -1.2877   10.2085    1.3208 H   0  0  0  0  0  0  0  0  0  0  0  0
   -1.9945    8.2351    0.1519 H   0  0  0  0  0  0  0  0  0  0  0  0
    0.7850    8.0220   -0.5850 H   0  0  0  0  0  0  0  0  0  0  0  0
   -2.6538   10.5557   -0.1538 H   0  0  0  0  0  0  0  0  0  0  0  0
   -2.2643   11.3872   -1.6976 H   0  0  0  0  0  0  0  0  0  0  0  0
   -3.3477    9.9544   -1.6976 H   0  0  0  0  0  0  0  0  0  0  0  0
   -1.9658    7.5596   -2.1389 H   0  0  0  0  0  0  0  0  0  0  0  0
   -2.4001    8.9528   -3.1862 H   0  0  0  0  0  0  0  0  0  0  0  0
   -0.7195    8.3187   -3.1862 H   0  0  0  0  0  0  0  0  0  0  0  0
    3.3458   11.0335    0.3955 H   0  0  0  0  0  0  0  0  0  0  0  0
    2.9856   10.1926   -1.1504 H   0  0  0  0  0  0  0  0  0  0  0  0
    3.9935   11.6795   -1.1504 H   0  0  0  0  0  0  0  0  0  0  0  0
    1.5625   12.8264    1.1584 H   0  0  0  0  0  0  0  0  0  0  0  0
    3.0272   13.4784    0.2290 H   0  0  0  0  0  0  0  0  0  0  0  0
    0.1338   14.3419   -0.0384 H   0  0  0  0  0  0  0  0  0  0  0  0
    1.5419   15.2903    0.5823 H   0  0  0  0  0  0  0  0  0  0  0  0
    3.4745   15.3733   -0.5935 H   0  0  0  0  0  0  0  0  0  0  0  0
    3.5872   14.4798   -2.1478 H   0  0  0  0  0  0  0  0  0  0  0  0
    3.2314   16.2405   -2.1478 H   0  0  0  0  0  0  0  0  0  0  0  0
  1  2  1  0
  2  3  1  0
  3  4  1  0
  4  5  1  0
  5  6  1  0
  6  7  1  0
  7  8  1  0
  7  9  1  0
  2 10  1  0
 10 11  1  0
 11 12  1  0
 12 13  1  0
 13 14  1  1
 13 15  1  0
 15 16  1  0
 16 17  1  0
 17 18  2  0
 18 19  1  0
 19 20  1  0
 20 21  1  0
 21 22  1  0
 22 23  1  0
 22 24  1  0
 24 25  1  0
 24 26  1  0
 19 27  1  0
 27 28  1  6
 27 29  1  0
 29 30  1  0
 30 31  1  0
 31 32  1  1
  7  5  1  0
 31 10  1  0
 31 13  1  0
 27 15  1  0
 24 18  1  0
  1 33  1  0
  1 34  1  0
  1 35  1  0
  2 36  1  6
  3 37  1  0
  3 38  1  0
  4 39  1  0
  4 40  1  0
  5 41  1  1
  8 42  1  0
  8 43  1  0
  8 44  1  0
  9 45  1  0
  9 46  1  0
  9 47  1  0
 10 48  1  6
 11 49  1  0
 11 50  1  0
 12 51  1  0
 12 52  1  0
 14 53  1  0
 14 54  1  0
 14 55  1  0
 15 56  1  6
 16 57  1  0
 16 58  1  0
 17 59  1  0
 19 60  1  1
 20 61  1  0
 20 62  1  0
 21 63  1  0
 21 64  1  0
 22 65  1  1
 23 66  1  0
 25 67  1  0
 25 68  1  0
 25 69  1  0
 26 70  1  0
 26 71  1  0
 26 72  1  0
 28 73  1  0
 28 74  1  0
 28 75  1  0
 29 76  1  0
 29 77  1  0
 30 78  1  0
 30 79  1  0
 32 80  1  0
 32 81  1  0
 32 82  1  0
M  END
>  <meeko>  (5) 
{"is_sidechain": [false], "intermolecular_energy": 2.731, "internal_energy": -0.839}

$$$$
EPH_relaxed_0001_pdb2pqr_Repair_289_r2_0001_out
     RDKit          3D

 82 86  0  0  0  0  0  0  0  0999 V2000
   -5.1510    5.8430   -1.8300 C   0  0  0  0  0  0  0  0  0  0  0  0
   -5.4650    7.3420   -1.8330 C   0  0  2  0  0  0  0  0  0  0  0  0
   -5.2490    7.9830   -0.4480 C   0  0  0  0  0  0  0  0  0  0  0  0
   -4.2110    9.1080   -0.4460 C   0  0  0  0  0  0  0  0  0  0  0  0
   -2.8400    8.5980   -0.7740 C   0  0  2  0  0  0  0  0  0  0  0  0
   -1.8300    8.9360    0.1860 O   0  0  0  0  0  0  0  0  0  0  0  0
   -1.6730    9.5020   -1.1250 C   0  0  0  0  0  0  0  0  0  0  0  0
   -1.8240   10.9900   -1.1670 C   0  0  0  0  0  0  0  0  0  0  0  0
   -0.5280    8.9250   -1.8980 C   0  0  0  0  0  0  0  0  0  0  0  0
   -6.8990    7.5710   -2.2960 C   0  0  1  0  0  0  0  0  0  0  0  0
   -7.2100    6.8720   -3.6460 C   0  0  0  0  0  0  0  0  0  0  0  0
   -8.6860    6.4030   -3.5770 C   0  0  0  0  0  0  0  0  0  0  0  0
   -9.2690    7.1310   -2.3430 C   0  0  1  0  0  0  0  0  0  0  0  0
   -9.6170    8.5650   -2.8500 C   0  0  0  0  0  0  0  0  0  0  0  0
  -10.4970    6.4490   -1.6550 C   0  0  2  0  0  0  0  0  0  0  0  0
  -11.7520    6.3240   -2.5360 C   0  0  0  0  0  0  0  0  0  0  0  0
  -12.7030    7.4730   -2.4570 C   0  0  0  0  0  0  0  0  0  0  0  0
  -12.7020    8.4250   -1.5060 C   0  0  0  0  0  0  0  0  0  0  0  0
  -11.7360    8.3490   -0.3160 C   0  0  1  0  0  0  0  0  0  0  0  0
  -12.5100    8.6350    0.9980 C   0  0  0  0  0  0  0  0  0  0  0  0
  -13.2750    9.9540    0.9510 C   0  0  0  0  0  0  0  0  0  0  0  0
  -14.2670    9.9680   -0.2100 C   0  0  2  0  0  0  0  0  0  0  0  0
  -15.2870    8.9980    0.0430 O   0  0  0  0  0  0  0  0  0  0  0  0
  -13.6030    9.6820   -1.5860 C   0  0  0  0  0  0  0  0  0  0  0  0
  -12.7210   10.8860   -1.9990 C   0  0  0  0  0  0  0  0  0  0  0  0
  -14.7310    9.5850   -2.6490 C   0  0  0  0  0  0  0  0  0  0  0  0
  -10.8480    7.0350   -0.2280 C   0  0  1  0  0  0  0  0  0  0  0  0
  -11.6250    5.9170    0.5330 C   0  0  0  0  0  0  0  0  0  0  0  0
   -9.5610    7.3410    0.6260 C   0  0  0  0  0  0  0  0  0  0  0  0
   -8.3410    7.9010   -0.1310 C   0  0  0  0  0  0  0  0  0  0  0  0
   -8.0340    7.0600   -1.3730 C   0  0  2  0  0  0  0  0  0  0  0  0
   -7.6590    5.6160   -0.8930 C   0  0  0  0  0  0  0  0  0  0  0  0
   -5.0762    5.4861   -0.7922 H   0  0  0  0  0  0  0  0  0  0  0  0
   -5.9547    5.2990   -2.3478 H   0  0  0  0  0  0  0  0  0  0  0  0
   -4.1966    5.6673   -2.3478 H   0  0  0  0  0  0  0  0  0  0  0  0
   -4.7670    7.8255   -2.5323 H   0  0  0  0  0  0  0  0  0  0  0  0
   -6.2086    8.3952   -0.1026 H   0  0  0  0  0  0  0  0  0  0  0  0
   -4.8683    7.1930    0.2161 H   0  0  0  0  0  0  0  0  0  0  0  0
   -4.4998    9.8608   -1.1943 H   0  0  0  0  0  0  0  0  0  0  0  0
   -4.1818    9.5458    0.5627 H   0  0  0  0  0  0  0  0  0  0  0  0
   -3.2626    7.7122   -1.2707 H   0  0  0  0  0  0  0  0  0  0  0  0
   -1.8639   11.3836   -0.1406 H   0  0  0  0  0  0  0  0  0  0  0  0
   -0.9660   11.4308   -1.6956 H   0  0  0  0  0  0  0  0  0  0  0  0
   -2.7531   11.2495   -1.6956 H   0  0  0  0  0  0  0  0  0  0  0  0
    0.2306    8.5427   -1.1991 H   0  0  0  0  0  0  0  0  0  0  0  0
   -0.8908    8.1021   -2.5314 H   0  0  0  0  0  0  0  0  0  0  0  0
   -0.0825    9.7062   -2.5314 H   0  0  0  0  0  0  0  0  0  0  0  0
   -6.9084    8.6704   -2.3307 H   0  0  0  0  0  0  0  0  0  0  0  0
   -7.0755    7.5786   -4.4783 H   0  0  0  0  0  0  0  0  0  0  0  0
   -6.5329    6.0219   -3.8159 H   0  0  0  0  0  0  0  0  0  0  0  0
   -9.2281    6.6909   -4.4898 H   0  0  0  0  0  0  0  0  0  0  0  0
   -8.7731    5.3094   -3.4961 H   0  0  0  0  0  0  0  0  0  0  0  0
   -9.7783    9.2295   -1.9883 H   0  0  0  0  0  0  0  0  0  0  0  0
   -8.7862    8.9501   -3.4596 H   0  0  0  0  0  0  0  0  0  0  0  0
  -10.5319    8.5264   -3.4596 H   0  0  0  0  0  0  0  0  0  0  0  0
  -10.1390    5.4208   -1.4983 H   0  0  0  0  0  0  0  0  0  0  0  0
  -11.4250    6.2245   -3.5815 H   0  0  0  0  0  0  0  0  0  0  0  0
  -12.3012    5.4476   -2.1613 H   0  0  0  0  0  0  0  0  0  0  0  0
  -13.4691    7.5473   -3.2428 H   0  0  0  0  0  0  0  0  0  0  0  0
  -10.9834    9.1335   -0.4837 H   0  0  0  0  0  0  0  0  0  0  0  0
  -13.2261    7.8180    1.1704 H   0  0  0  0  0  0  0  0  0  0  0  0
  -11.7727    8.7054    1.8113 H   0  0  0  0  0  0  0  0  0  0  0  0
  -13.8238   10.0858    1.8952 H   0  0  0  0  0  0  0  0  0  0  0  0
  -12.5547   10.7729    0.8075 H   0  0  0  0  0  0  0  0  0  0  0  0
  -14.6899   10.9817   -0.2704 H   0  0  0  0  0  0  0  0  0  0  0  0
  -15.8260    8.9200   -0.7620 H   0  0  0  0  0  0  0  0  0  0  0  0
  -12.3487   11.3942   -1.0973 H   0  0  0  0  0  0  0  0  0  0  0  0
  -11.8694   10.5288   -2.5966 H   0  0  0  0  0  0  0  0  0  0  0  0
  -13.3184   11.5903   -2.5966 H   0  0  0  0  0  0  0  0  0  0  0  0
  -15.7046    9.5013   -2.1439 H   0  0  0  0  0  0  0  0  0  0  0  0
  -14.7206   10.4874   -3.2780 H   0  0  0  0  0  0  0  0  0  0  0  0
  -14.5667    8.6977   -3.2780 H   0  0  0  0  0  0  0  0  0  0  0  0
  -11.5189    6.0697    1.6172 H   0  0  0  0  0  0  0  0  0  0  0  0
  -12.6896    5.9590    0.2593 H   0  0  0  0  0  0  0  0  0  0  0  0
  -11.2145    4.9339    0.2593 H   0  0  0  0  0  0  0  0  0  0  0  0
   -9.8398    8.0747    1.3967 H   0  0  0  0  0  0  0  0  0  0  0  0
   -9.2350    6.3650    1.0147 H   0  0  0  0  0  0  0  0  0  0  0  0
   -8.5528    8.9353   -0.4400 H   0  0  0  0  0  0  0  0  0  0  0  0
   -7.4684    7.8703    0.5381 H   0  0  0  0  0  0  0  0  0  0  0  0
   -7.6511    5.5856    0.2066 H   0  0  0  0  0  0  0  0  0  0  0  0
   -8.4007    4.8987   -1.2743 H   0  0  0  0  0  0  0  0  0  0  0  0
   -6.6620    5.3502   -1.2743 H   0  0  0  0  0  0  0  0  0  0  0  0
  1  2  1  0
  2  3  1  0
  3  4  1  0
  4  5  1  0
  5  6  1  0
  6  7  1  0
  7  8  1  0
  7  9  1  0
  2 10  1  0
 10 11  1  0
 11 12  1  0
 12 13  1  0
 13 14  1  6
 13 15  1  0
 15 16  1  0
 16 17  1  0
 17 18  2  0
 18 19  1  0
 19 20  1  0
 20 21  1  0
 21 22  1  0
 22 23  1  0
 22 24  1  0
 24 25  1  0
 24 26  1  0
 19 27  1  0
 27 28  1  1
 27 29  1  0
 29 30  1  0
 30 31  1  0
 31 32  1  1
  7  5  1  0
 31 10  1  0
 31 13  1  0
 27 15  1  0
 24 18  1  0
  1 33  1  0
  1 34  1  0
  1 35  1  0
  2 36  1  6
  3 37  1  0
  3 38  1  0
  4 39  1  0
  4 40  1  0
  5 41  1  6
  8 42  1  0
  8 43  1  0
  8 44  1  0
  9 45  1  0
  9 46  1  0
  9 47  1  0
 10 48  1  6
 11 49  1  0
 11 50  1  0
 12 51  1  0
 12 52  1  0
 14 53  1  0
 14 54  1  0
 14 55  1  0
 15 56  1  1
 16 57  1  0
 16 58  1  0
 17 59  1  0
 19 60  1  6
 20 61  1  0
 20 62  1  0
 21 63  1  0
 21 64  1  0
 22 65  1  6
 23 66  1  0
 25 67  1  0
 25 68  1  0
 25 69  1  0
 26 70  1  0
 26 71  1  0
 26 72  1  0
 28 73  1  0
 28 74  1  0
 28 75  1  0
 29 76  1  0
 29 77  1  0
 30 78  1  0
 30 79  1  0
 32 80  1  0
 32 81  1  0
 32 82  1  0
M  END
>  <meeko>  (6) 
{"is_sidechain": [false], "intermolecular_energy": 2.731, "internal_energy": -0.839}

$$$$
EPH_relaxed_0001_pdb2pqr_Repair_289_r2_0001_out
     RDKit          3D

 82 86  0  0  0  0  0  0  0  0999 V2000
   -3.7390    7.2220   -3.4040 C   0  0  0  0  0  0  0  0  0  0  0  0
   -3.7570    7.3010   -1.8750 C   0  0  2  0  0  0  0  0  0  0  0  0
   -5.1700    7.0830   -1.2990 C   0  0  0  0  0  0  0  0  0  0  0  0
   -6.2890    7.2610   -2.3290 C   0  0  0  0  0  0  0  0  0  0  0  0
   -7.6190    7.4770   -1.6710 C   0  0  2  0  0  0  0  0  0  0  0  0
   -8.2100    6.2960   -1.1140 O   0  0  0  0  0  0  0  0  0  0  0  0
   -8.9190    6.9060   -2.2050 C   0  0  0  0  0  0  0  0  0  0  0  0
   -8.9530    6.0750   -3.4490 C   0  0  0  0  0  0  0  0  0  0  0  0
  -10.2050    7.5560   -1.8000 C   0  0  0  0  0  0  0  0  0  0  0  0
   -3.2100    8.6480   -1.4180 C   0  0  1  0  0  0  0  0  0  0  0  0
   -3.8170    9.1120   -0.0670 C   0  0  0  0  0  0  0  0  0  0  0  0
   -2.6960    9.8670    0.6920 C   0  0  0  0  0  0  0  0  0  0  0  0
   -1.5960   10.1020   -0.3700 C   0  0  1  0  0  0  0  0  0  0  0  0
   -2.0730   11.3550   -1.1700 C   0  0  0  0  0  0  0  0  0  0  0  0
   -0.1400   10.2810    0.1700 C   0  0  2  0  0  0  0  0  0  0  0  0
    0.0720   11.5040    1.0800 C   0  0  0  0  0  0  0  0  0  0  0  0
    0.4780   12.7580    0.3780 C   0  0  0  0  0  0  0  0  0  0  0  0
    0.9410   12.8330   -0.8840 C   0  0  0  0  0  0  0  0  0  0  0  0
    1.1870   11.5640   -1.7090 C   0  0  1  0  0  0  0  0  0  0  0  0
    2.5720   11.6580   -2.4020 C   0  0  0  0  0  0  0  0  0  0  0  0
    2.7270   12.9310   -3.2290 C   0  0  0  0  0  0  0  0  0  0  0  0
    2.5330   14.1720   -2.3610 C   0  0  2  0  0  0  0  0  0  0  0  0
    3.6080   14.2500   -1.4200 O   0  0  0  0  0  0  0  0  0  0  0  0
    1.1750   14.1840   -1.6050 C   0  0  0  0  0  0  0  0  0  0  0  0
    0.0200   14.4030   -2.6130 C   0  0  0  0  0  0  0  0  0  0  0  0
    1.1660   15.4150   -0.6590 C   0  0  0  0  0  0  0  0  0  0  0  0
    0.9810   10.1870   -0.9430 C   0  0  1  0  0  0  0  0  0  0  0  0
    2.2980    9.7810   -0.2140 C   0  0  0  0  0  0  0  0  0  0  0  0
    0.6860    9.0530   -1.9940 C   0  0  0  0  0  0  0  0  0  0  0  0
   -0.7860    8.8450   -2.3980 C   0  0  0  0  0  0  0  0  0  0  0  0
   -1.6850    8.7470   -1.1620 C   0  0  2  0  0  0  0  0  0  0  0  0
   -1.2440    7.4820   -0.3490 C   0  0  0  0  0  0  0  0  0  0  0  0
   -3.5046    6.1933   -3.7153 H   0  0  0  0  0  0  0  0  0  0  0  0
   -4.7254    7.5084   -3.7976 H   0  0  0  0  0  0  0  0  0  0  0  0
   -2.9740    7.9075   -3.7976 H   0  0  0  0  0  0  0  0  0  0  0  0
   -3.1171    6.4914   -1.4941 H   0  0  0  0  0  0  0  0  0  0  0  0
   -5.2273    6.0606   -0.8972 H   0  0  0  0  0  0  0  0  0  0  0  0
   -5.3224    7.8480   -0.5234 H   0  0  0  0  0  0  0  0  0  0  0  0
   -6.0577    8.1320   -2.9598 H   0  0  0  0  0  0  0  0  0  0  0  0
   -6.3496    6.3428   -2.9317 H   0  0  0  0  0  0  0  0  0  0  0  0
   -7.3298    8.4938   -1.3668 H   0  0  0  0  0  0  0  0  0  0  0  0
   -8.9966    5.0099   -3.1774 H   0  0  0  0  0  0  0  0  0  0  0  0
   -9.8411    6.3388   -4.0420 H   0  0  0  0  0  0  0  0  0  0  0  0
   -8.0463    6.2654   -4.0420 H   0  0  0  0  0  0  0  0  0  0  0  0
  -10.2696    7.5886   -0.7024 H   0  0  0  0  0  0  0  0  0  0  0  0
  -10.2401    8.5801   -2.2000 H   0  0  0  0  0  0  0  0  0  0  0  0
  -11.0504    6.9770   -2.2000 H   0  0  0  0  0  0  0  0  0  0  0  0
   -3.4865    9.2633   -2.2869 H   0  0  0  0  0  0  0  0  0  0  0  0
   -4.6709    9.7821   -0.2457 H   0  0  0  0  0  0  0  0  0  0  0  0
   -4.1807    8.2541    0.5176 H   0  0  0  0  0  0  0  0  0  0  0  0
   -3.0691   10.8250    1.0833 H   0  0  0  0  0  0  0  0  0  0  0  0
   -2.3248    9.3009    1.5590 H   0  0  0  0  0  0  0  0  0  0  0  0
   -2.3741   12.1459   -0.4673 H   0  0  0  0  0  0  0  0  0  0  0  0
   -1.2511   11.7205   -1.8032 H   0  0  0  0  0  0  0  0  0  0  0  0
   -2.9299   11.0814   -1.8032 H   0  0  0  0  0  0  0  0  0  0  0  0
   -0.0191    9.4009    0.8187 H   0  0  0  0  0  0  0  0  0  0  0  0
   -0.8716   11.7012    1.6098 H   0  0  0  0  0  0  0  0  0  0  0  0
    0.9065   11.2453    1.7484 H   0  0  0  0  0  0  0  0  0  0  0  0
    0.3915   13.7000    0.9394 H   0  0  0  0  0  0  0  0  0  0  0  0
    0.3904   11.5354   -2.4670 H   0  0  0  0  0  0  0  0  0  0  0  0
    3.3548   11.6419   -1.6293 H   0  0  0  0  0  0  0  0  0  0  0  0
    2.6616   10.8018   -3.0868 H   0  0  0  0  0  0  0  0  0  0  0  0
    3.7346   12.9537   -3.6696 H   0  0  0  0  0  0  0  0  0  0  0  0
    1.9618   12.9319   -4.0192 H   0  0  0  0  0  0  0  0  0  0  0  0
    2.5276   15.0449   -3.0304 H   0  0  0  0  0  0  0  0  0  0  0  0
    4.3940   14.5660   -1.8970 H   0  0  0  0  0  0  0  0  0  0  0  0
   -0.9167   14.5806   -2.0644 H   0  0  0  0  0  0  0  0  0  0  0  0
    0.2455   15.2744   -3.2453 H   0  0  0  0  0  0  0  0  0  0  0  0
   -0.0892   13.5096   -3.2453 H   0  0  0  0  0  0  0  0  0  0  0  0
    1.1685   15.0738    0.3867 H   0  0  0  0  0  0  0  0  0  0  0  0
    2.0597   16.0283   -0.8467 H   0  0  0  0  0  0  0  0  0  0  0  0
    0.2634   16.0151   -0.8467 H   0  0  0  0  0  0  0  0  0  0  0  0
    2.1443    9.8284    0.8742 H   0  0  0  0  0  0  0  0  0  0  0  0
    2.5748    8.7558   -0.5009 H   0  0  0  0  0  0  0  0  0  0  0  0
    3.1040   10.4724   -0.5009 H   0  0  0  0  0  0  0  0  0  0  0  0
    1.2511    9.2908   -2.9073 H   0  0  0  0  0  0  0  0  0  0  0  0
    0.9829    8.1171   -1.4980 H   0  0  0  0  0  0  0  0  0  0  0  0
   -1.1135    9.6950   -3.0147 H   0  0  0  0  0  0  0  0  0  0  0  0
   -0.8649    7.9054   -2.9645 H   0  0  0  0  0  0  0  0  0  0  0  0
   -1.3179    7.6941    0.7278 H   0  0  0  0  0  0  0  0  0  0  0  0
   -1.9003    6.6363   -0.6021 H   0  0  0  0  0  0  0  0  0  0  0  0
   -0.2042    7.2276   -0.6021 H   0  0  0  0  0  0  0  0  0  0  0  0
  1  2  1  0
  2  3  1  0
  3  4  1  0
  4  5  1  0
  5  6  1  0
  6  7  1  0
  7  8  1  0
  7  9  1  0
  2 10  1  0
 10 11  1  0
 11 12  1  0
 12 13  1  0
 13 14  1  6
 13 15  1  0
 15 16  1  0
 16 17  1  0
 17 18  2  0
 18 19  1  0
 19 20  1  0
 20 21  1  0
 21 22  1  0
 22 23  1  0
 22 24  1  0
 24 25  1  0
 24 26  1  0
 19 27  1  0
 27 28  1  1
 27 29  1  0
 29 30  1  0
 30 31  1  0
 31 32  1  1
  7  5  1  0
 31 10  1  0
 31 13  1  0
 27 15  1  0
 24 18  1  0
  1 33  1  0
  1 34  1  0
  1 35  1  0
  2 36  1  1
  3 37  1  0
  3 38  1  0
  4 39  1  0
  4 40  1  0
  5 41  1  1
  8 42  1  0
  8 43  1  0
  8 44  1  0
  9 45  1  0
  9 46  1  0
  9 47  1  0
 10 48  1  6
 11 49  1  0
 11 50  1  0
 12 51  1  0
 12 52  1  0
 14 53  1  0
 14 54  1  0
 14 55  1  0
 15 56  1  1
 16 57  1  0
 16 58  1  0
 17 59  1  0
 19 60  1  6
 20 61  1  0
 20 62  1  0
 21 63  1  0
 21 64  1  0
 22 65  1  6
 23 66  1  0
 25 67  1  0
 25 68  1  0
 25 69  1  0
 26 70  1  0
 26 71  1  0
 26 72  1  0
 28 73  1  0
 28 74  1  0
 28 75  1  0
 29 76  1  0
 29 77  1  0
 30 78  1  0
 30 79  1  0
 32 80  1  0
 32 81  1  0
 32 82  1  0
M  END
>  <meeko>  (7) 
{"is_sidechain": [false], "intermolecular_energy": 2.731, "internal_energy": -0.839}

$$$$
EPH_relaxed_0001_pdb2pqr_Repair_289_r2_0001_out
     RDKit          3D

 82 86  0  0  0  0  0  0  0  0999 V2000
   -4.8310    8.9620   -0.3550 C   0  0  0  0  0  0  0  0  0  0  0  0
   -5.0490    7.8370   -1.3710 C   0  0  2  0  0  0  0  0  0  0  0  0
   -4.0130    7.8760   -2.5120 C   0  0  0  0  0  0  0  0  0  0  0  0
   -2.5610    7.8630   -2.0260 C   0  0  0  0  0  0  0  0  0  0  0  0
   -1.8540    9.1430   -2.3560 C   0  0  2  0  0  0  0  0  0  0  0  0
   -0.4330    9.1050   -2.1750 O   0  0  0  0  0  0  0  0  0  0  0  0
   -1.1570   10.0040   -1.3200 C   0  0  0  0  0  0  0  0  0  0  0  0
   -1.1340    9.6210    0.1260 C   0  0  0  0  0  0  0  0  0  0  0  0
   -0.9250   11.4500   -1.6310 C   0  0  0  0  0  0  0  0  0  0  0  0
   -6.4590    7.9220   -1.9440 C   0  0  1  0  0  0  0  0  0  0  0  0
   -6.5980    7.1790   -3.3000 C   0  0  0  0  0  0  0  0  0  0  0  0
   -8.0240    6.5720   -3.3340 C   0  0  0  0  0  0  0  0  0  0  0  0
   -8.7660    7.2550   -2.1610 C   0  0  1  0  0  0  0  0  0  0  0  0
   -9.2080    8.6430   -2.7200 C   0  0  0  0  0  0  0  0  0  0  0  0
   -9.9720    6.4670   -1.5540 C   0  0  2  0  0  0  0  0  0  0  0  0
  -11.1390    6.2110   -2.5240 C   0  0  0  0  0  0  0  0  0  0  0  0
  -12.1980    7.2640   -2.5390 C   0  0  0  0  0  0  0  0  0  0  0  0
  -12.3610    8.2230   -1.6090 C   0  0  0  0  0  0  0  0  0  0  0  0
  -11.4860    8.2550   -0.3490 C   0  0  1  0  0  0  0  0  0  0  0  0
  -12.3810    8.4810    0.8970 C   0  0  0  0  0  0  0  0  0  0  0  0
  -13.2630    9.7200    0.7670 C   0  0  0  0  0  0  0  0  0  0  0  0
  -14.1590    9.6240   -0.4650 C   0  0  2  0  0  0  0  0  0  0  0  0
  -15.0990    8.5630   -0.2700 O   0  0  0  0  0  0  0  0  0  0  0  0
  -13.3680    9.3860   -1.7810 C   0  0  0  0  0  0  0  0  0  0  0  0
  -12.5760   10.6650   -2.1500 C   0  0  0  0  0  0  0  0  0  0  0  0
  -14.3960    9.1680   -2.9240 C   0  0  0  0  0  0  0  0  0  0  0  0
  -10.4860    7.0330   -0.1690 C   0  0  1  0  0  0  0  0  0  0  0  0
  -11.2090    5.8560    0.5540 C   0  0  0  0  0  0  0  0  0  0  0  0
   -9.3030    7.4720    0.7740 C   0  0  0  0  0  0  0  0  0  0  0  0
   -8.0880    8.1380    0.0990 C   0  0  0  0  0  0  0  0  0  0  0  0
   -7.6080    7.3150   -1.1000 C   0  0  2  0  0  0  0  0  0  0  0  0
   -7.1360    5.9200   -0.5650 C   0  0  0  0  0  0  0  0  0  0  0  0
   -4.9097    8.5559    0.6643 H   0  0  0  0  0  0  0  0  0  0  0  0
   -3.8316    9.3982   -0.4997 H   0  0  0  0  0  0  0  0  0  0  0  0
   -5.5951    9.7399   -0.4997 H   0  0  0  0  0  0  0  0  0  0  0  0
   -4.9194    6.8819   -0.8410 H   0  0  0  0  0  0  0  0  0  0  0  0
   -4.1717    6.9980   -3.1553 H   0  0  0  0  0  0  0  0  0  0  0  0
   -4.1633    8.8235   -3.0503 H   0  0  0  0  0  0  0  0  0  0  0  0
   -2.5515    7.7216   -0.9352 H   0  0  0  0  0  0  0  0  0  0  0  0
   -2.0366    7.0408   -2.5349 H   0  0  0  0  0  0  0  0  0  0  0  0
   -2.5945    9.3794   -3.1343 H   0  0  0  0  0  0  0  0  0  0  0  0
   -1.1885   10.5277    0.7464 H   0  0  0  0  0  0  0  0  0  0  0  0
   -1.9948    8.9730    0.3474 H   0  0  0  0  0  0  0  0  0  0  0  0
   -0.2018    9.0807    0.3474 H   0  0  0  0  0  0  0  0  0  0  0  0
   -0.8341   12.0168   -0.6927 H   0  0  0  0  0  0  0  0  0  0  0  0
    0.0016   11.5555   -2.2144 H   0  0  0  0  0  0  0  0  0  0  0  0
   -1.7720   11.8401   -2.2144 H   0  0  0  0  0  0  0  0  0  0  0  0
   -6.5698    9.0150   -1.9996 H   0  0  0  0  0  0  0  0  0  0  0  0
   -6.4668    7.8846   -4.1336 H   0  0  0  0  0  0  0  0  0  0  0  0
   -5.8329    6.3952   -3.4008 H   0  0  0  0  0  0  0  0  0  0  0  0
   -8.5191    6.7966   -4.2903 H   0  0  0  0  0  0  0  0  0  0  0  0
   -8.0136    5.4761   -3.2398 H   0  0  0  0  0  0  0  0  0  0  0  0
   -9.4246    9.3232   -1.8831 H   0  0  0  0  0  0  0  0  0  0  0  0
   -8.3997    9.0647   -3.3355 H   0  0  0  0  0  0  0  0  0  0  0  0
  -10.1113    8.5196   -3.3355 H   0  0  0  0  0  0  0  0  0  0  0  0
   -9.5298    5.4805   -1.3510 H   0  0  0  0  0  0  0  0  0  0  0  0
  -10.7252    6.1304   -3.5400 H   0  0  0  0  0  0  0  0  0  0  0  0
  -11.6295    5.2907   -2.1742 H   0  0  0  0  0  0  0  0  0  0  0  0
  -12.9048    7.2549   -3.3818 H   0  0  0  0  0  0  0  0  0  0  0  0
  -10.8010    9.1063   -0.4754 H   0  0  0  0  0  0  0  0  0  0  0  0
  -13.0269    7.6009    1.0315 H   0  0  0  0  0  0  0  0  0  0  0  0
  -11.7179    8.6323    1.7615 H   0  0  0  0  0  0  0  0  0  0  0  0
  -13.8929    9.8094    1.6643 H   0  0  0  0  0  0  0  0  0  0  0  0
  -12.6154   10.6030    0.6626 H   0  0  0  0  0  0  0  0  0  0  0  0
  -14.6699   10.5917   -0.5772 H   0  0  0  0  0  0  0  0  0  0  0  0
  -15.1190    8.3590    0.6800 H   0  0  0  0  0  0  0  0  0  0  0  0
  -12.2585   11.1778   -1.2301 H   0  0  0  0  0  0  0  0  0  0  0  0
  -11.6900   10.3899   -2.7410 H   0  0  0  0  0  0  0  0  0  0  0  0
  -13.2172   11.3356   -2.7410 H   0  0  0  0  0  0  0  0  0  0  0  0
  -15.3856    8.9581   -2.4920 H   0  0  0  0  0  0  0  0  0  0  0  0
  -14.4517   10.0743   -3.5449 H   0  0  0  0  0  0  0  0  0  0  0  0
  -14.0790    8.3171   -3.5449 H   0  0  0  0  0  0  0  0  0  0  0  0
  -11.1273    5.9890    1.6429 H   0  0  0  0  0  0  0  0  0  0  0  0
  -12.2702    5.8444    0.2646 H   0  0  0  0  0  0  0  0  0  0  0  0
  -10.7396    4.9042    0.2646 H   0  0  0  0  0  0  0  0  0  0  0  0
   -9.7086    8.1846    1.5073 H   0  0  0  0  0  0  0  0  0  0  0  0
   -8.9163    6.5371    1.2057 H   0  0  0  0  0  0  0  0  0  0  0  0
   -8.3736    9.1429   -0.2454 H   0  0  0  0  0  0  0  0  0  0  0  0
   -7.2700    8.2004    0.8318 H   0  0  0  0  0  0  0  0  0  0  0  0
   -7.1390    5.9290    0.5350 H   0  0  0  0  0  0  0  0  0  0  0  0
   -7.8196    5.1380   -0.9272 H   0  0  0  0  0  0  0  0  0  0  0  0
   -6.1180    5.7137   -0.9272 H   0  0  0  0  0  0  0  0  0  0  0  0
  1  2  1  0
  2  3  1  0
  3  4  1  0
  4  5  1  0
  5  6  1  0
  6  7  1  0
  7  8  1  0
  7  9  1  0
  2 10  1  0
 10 11  1  0
 11 12  1  0
 12 13  1  0
 13 14  1  6
 13 15  1  0
 15 16  1  0
 16 17  1  0
 17 18  2  0
 18 19  1  0
 19 20  1  0
 20 21  1  0
 21 22  1  0
 22 23  1  0
 22 24  1  0
 24 25  1  0
 24 26  1  0
 19 27  1  0
 27 28  1  1
 27 29  1  0
 29 30  1  0
 30 31  1  0
 31 32  1  1
  7  5  1  0
 31 10  1  0
 31 13  1  0
 27 15  1  0
 24 18  1  0
  1 33  1  0
  1 34  1  0
  1 35  1  0
  2 36  1  1
  3 37  1  0
  3 38  1  0
  4 39  1  0
  4 40  1  0
  5 41  1  6
  8 42  1  0
  8 43  1  0
  8 44  1  0
  9 45  1  0
  9 46  1  0
  9 47  1  0
 10 48  1  6
 11 49  1  0
 11 50  1  0
 12 51  1  0
 12 52  1  0
 14 53  1  0
 14 54  1  0
 14 55  1  0
 15 56  1  1
 16 57  1  0
 16 58  1  0
 17 59  1  0
 19 60  1  6
 20 61  1  0
 20 62  1  0
 21 63  1  0
 21 64  1  0
 22 65  1  6
 23 66  1  0
 25 67  1  0
 25 68  1  0
 25 69  1  0
 26 70  1  0
 26 71  1  0
 26 72  1  0
 28 73  1  0
 28 74  1  0
 28 75  1  0
 29 76  1  0
 29 77  1  0
 30 78  1  0
 30 79  1  0
 32 80  1  0
 32 81  1  0
 32 82  1  0
M  END
>  <meeko>  (8) 
{"is_sidechain": [false], "intermolecular_energy": 2.731, "internal_energy": -0.839}

$$$$
EPH_relaxed_0001_pdb2pqr_Repair_289_r2_0001_out
     RDKit          3D

 82 86  0  0  0  0  0  0  0  0999 V2000
   -0.8450   16.3030   -5.8350 C   0  0  0  0  0  0  0  0  0  0  0  0
    0.2320   15.5870   -6.6540 C   0  0  2  0  0  0  0  0  0  0  0  0
   -0.1840   15.4040   -8.1280 C   0  0  0  0  0  0  0  0  0  0  0  0
    0.4390   16.4330   -9.0750 C   0  0  0  0  0  0  0  0  0  0  0  0
    1.8370   16.0550   -9.4610 C   0  0  2  0  0  0  0  0  0  0  0  0
    2.3040   16.6500  -10.6790 O   0  0  0  0  0  0  0  0  0  0  0  0
    2.1720   15.2190  -10.6820 C   0  0  0  0  0  0  0  0  0  0  0  0
    1.1020   14.7080  -11.5950 C   0  0  0  0  0  0  0  0  0  0  0  0
    3.4810   14.4930  -10.7150 C   0  0  0  0  0  0  0  0  0  0  0  0
    0.5450   14.2320   -6.0300 C   0  0  1  0  0  0  0  0  0  0  0  0
    1.7940   13.5590   -6.6580 C   0  0  0  0  0  0  0  0  0  0  0  0
    2.5080   12.7890   -5.5170 C   0  0  0  0  0  0  0  0  0  0  0  0
    1.4830   12.7680   -4.3590 C   0  0  1  0  0  0  0  0  0  0  0  0
    0.5090   11.5990   -4.7070 C   0  0  0  0  0  0  0  0  0  0  0  0
    2.0710   12.6190   -2.9180 C   0  0  2  0  0  0  0  0  0  0  0  0
    2.8300   11.3070   -2.6550 C   0  0  0  0  0  0  0  0  0  0  0  0
    1.9980   10.1840   -2.1280 C   0  0  0  0  0  0  0  0  0  0  0  0
    0.7630   10.3030   -1.6080 C   0  0  0  0  0  0  0  0  0  0  0  0
    0.1160   11.6820   -1.4210 C   0  0  1  0  0  0  0  0  0  0  0  0
   -0.5110   11.7720   -0.0050 C   0  0  0  0  0  0  0  0  0  0  0  0
   -1.4810   10.6290    0.2790 C   0  0  0  0  0  0  0  0  0  0  0  0
   -0.7870    9.2770    0.1390 C   0  0  2  0  0  0  0  0  0  0  0  0
    0.1910    9.1510    1.1760 O   0  0  0  0  0  0  0  0  0  0  0  0
   -0.1090    9.0760   -1.2450 C   0  0  0  0  0  0  0  0  0  0  0  0
   -1.1950    8.9100   -2.3370 C   0  0  0  0  0  0  0  0  0  0  0  0
    0.6730    7.7350   -1.2040 C   0  0  0  0  0  0  0  0  0  0  0  0
    1.0380   12.9310   -1.7610 C   0  0  1  0  0  0  0  0  0  0  0  0
    1.8780   13.3290   -0.5090 C   0  0  0  0  0  0  0  0  0  0  0  0
    0.1230   14.1690   -2.0930 C   0  0  0  0  0  0  0  0  0  0  0  0
   -0.3270   14.3270   -3.5580 C   0  0  0  0  0  0  0  0  0  0  0  0
    0.8640   14.2050   -4.5140 C   0  0  2  0  0  0  0  0  0  0  0  0
    1.8510   15.3810   -4.2020 C   0  0  0  0  0  0  0  0  0  0  0  0
   -0.6409   16.1673   -4.7627 H   0  0  0  0  0  0  0  0  0  0  0  0
   -0.8368   17.3760   -6.0769 H   0  0  0  0  0  0  0  0  0  0  0  0
   -1.8312   15.8802   -6.0769 H   0  0  0  0  0  0  0  0  0  0  0  0
    1.1318   16.2196   -6.6409 H   0  0  0  0  0  0  0  0  0  0  0  0
    0.1251   14.3999   -8.4541 H   0  0  0  0  0  0  0  0  0  0  0  0
   -1.2742   15.5429   -8.1742 H   0  0  0  0  0  0  0  0  0  0  0  0
   -0.1764   16.4994   -9.9843 H   0  0  0  0  0  0  0  0  0  0  0  0
    0.4767   17.4008   -8.5535 H   0  0  0  0  0  0  0  0  0  0  0  0
    2.1293   15.9671   -8.4042 H   0  0  0  0  0  0  0  0  0  0  0  0
    0.2689   14.3101  -10.9970 H   0  0  0  0  0  0  0  0  0  0  0  0
    0.7383   15.5296  -12.2296 H   0  0  0  0  0  0  0  0  0  0  0  0
    1.5124   13.9087  -12.2296 H   0  0  0  0  0  0  0  0  0  0  0  0
    3.8216   14.3041   -9.6862 H   0  0  0  0  0  0  0  0  0  0  0  0
    3.3560   13.5353  -11.2415 H   0  0  0  0  0  0  0  0  0  0  0  0
    4.2272   15.1062  -11.2415 H   0  0  0  0  0  0  0  0  0  0  0  0
   -0.4063   13.7150   -6.2240 H   0  0  0  0  0  0  0  0  0  0  0  0
    1.4895   12.8621   -7.4527 H   0  0  0  0  0  0  0  0  0  0  0  0
    2.4623   14.3081   -7.1077 H   0  0  0  0  0  0  0  0  0  0  0  0
    2.7556   11.7655   -5.8350 H   0  0  0  0  0  0  0  0  0  0  0  0
    3.4573   13.2620   -5.2251 H   0  0  0  0  0  0  0  0  0  0  0  0
    0.1322   11.1468   -3.7778 H   0  0  0  0  0  0  0  0  0  0  0  0
   -0.3358   11.9881   -5.2942 H   0  0  0  0  0  0  0  0  0  0  0  0
    1.0442   10.8383   -5.2942 H   0  0  0  0  0  0  0  0  0  0  0  0
    2.8308   13.4139   -2.8905 H   0  0  0  0  0  0  0  0  0  0  0  0
    3.2818   10.9796   -3.6030 H   0  0  0  0  0  0  0  0  0  0  0  0
    3.5675   11.5337   -1.8710 H   0  0  0  0  0  0  0  0  0  0  0  0
    2.4319    9.1740   -2.1685 H   0  0  0  0  0  0  0  0  0  0  0  0
   -0.6736   11.7542   -2.1835 H   0  0  0  0  0  0  0  0  0  0  0  0
    0.2969   11.7424    0.7409 H   0  0  0  0  0  0  0  0  0  0  0  0
   -1.0783   12.7128    0.0498 H   0  0  0  0  0  0  0  0  0  0  0  0
   -1.8673   10.7309    1.3039 H   0  0  0  0  0  0  0  0  0  0  0  0
   -2.3042   10.6781   -0.4490 H   0  0  0  0  0  0  0  0  0  0  0  0
   -1.5604    8.4995    0.2252 H   0  0  0  0  0  0  0  0  0  0  0  0
    0.4300    8.2120    1.2430 H   0  0  0  0  0  0  0  0  0  0  0  0
   -2.1748    8.7602   -1.8599 H   0  0  0  0  0  0  0  0  0  0  0  0
   -1.2264    9.8138   -2.9633 H   0  0  0  0  0  0  0  0  0  0  0  0
   -0.9550    8.0381   -2.9633 H   0  0  0  0  0  0  0  0  0  0  0  0
    0.8438    7.4420   -0.1576 H   0  0  0  0  0  0  0  0  0  0  0  0
    0.0887    6.9541   -1.7127 H   0  0  0  0  0  0  0  0  0  0  0  0
    1.6404    7.8590   -1.7127 H   0  0  0  0  0  0  0  0  0  0  0  0
    1.3230   13.0660    0.4036 H   0  0  0  0  0  0  0  0  0  0  0  0
    2.8363   12.7892   -0.5237 H   0  0  0  0  0  0  0  0  0  0  0  0
    2.0672   14.4125   -0.5237 H   0  0  0  0  0  0  0  0  0  0  0  0
   -0.7824   14.0893   -1.4735 H   0  0  0  0  0  0  0  0  0  0  0  0
    0.7465   15.0514   -1.8866 H   0  0  0  0  0  0  0  0  0  0  0  0
   -1.0608   13.5427   -3.7955 H   0  0  0  0  0  0  0  0  0  0  0  0
   -0.7751   15.3240   -3.6816 H   0  0  0  0  0  0  0  0  0  0  0  0
    1.9492   15.4980   -3.1127 H   0  0  0  0  0  0  0  0  0  0  0  0
    2.8363   15.1579   -4.6371 H   0  0  0  0  0  0  0  0  0  0  0  0
    1.4604   16.3127   -4.6371 H   0  0  0  0  0  0  0  0  0  0  0  0
  1  2  1  0
  2  3  1  0
  3  4  1  0
  4  5  1  0
  5  6  1  0
  6  7  1  0
  7  8  1  0
  7  9  1  0
  2 10  1  0
 10 11  1  0
 11 12  1  0
 12 13  1  0
 13 14  1  6
 13 15  1  0
 15 16  1  0
 16 17  1  0
 17 18  2  0
 18 19  1  0
 19 20  1  0
 20 21  1  0
 21 22  1  0
 22 23  1  0
 22 24  1  0
 24 25  1  0
 24 26  1  0
 19 27  1  0
 27 28  1  1
 27 29  1  0
 29 30  1  0
 30 31  1  0
 31 32  1  6
  7  5  1  0
 31 10  1  0
 31 13  1  0
 27 15  1  0
 24 18  1  0
  1 33  1  0
  1 34  1  0
  1 35  1  0
  2 36  1  6
  3 37  1  0
  3 38  1  0
  4 39  1  0
  4 40  1  0
  5 41  1  1
  8 42  1  0
  8 43  1  0
  8 44  1  0
  9 45  1  0
  9 46  1  0
  9 47  1  0
 10 48  1  1
 11 49  1  0
 11 50  1  0
 12 51  1  0
 12 52  1  0
 14 53  1  0
 14 54  1  0
 14 55  1  0
 15 56  1  6
 16 57  1  0
 16 58  1  0
 17 59  1  0
 19 60  1  6
 20 61  1  0
 20 62  1  0
 21 63  1  0
 21 64  1  0
 22 65  1  1
 23 66  1  0
 25 67  1  0
 25 68  1  0
 25 69  1  0
 26 70  1  0
 26 71  1  0
 26 72  1  0
 28 73  1  0
 28 74  1  0
 28 75  1  0
 29 76  1  0
 29 77  1  0
 30 78  1  0
 30 79  1  0
 32 80  1  0
 32 81  1  0
 32 82  1  0
M  END
>  <meeko>  (9) 
{"is_sidechain": [false], "intermolecular_energy": 2.731, "internal_energy": -0.839}

$$$$
EPH_relaxed_0001_pdb2pqr_Repair_289_r2_0001_out
     RDKit          3D

 82 86  0  0  0  0  0  0  0  0999 V2000
   -0.0130   17.6590   -2.3820 C   0  0  0  0  0  0  0  0  0  0  0  0
   -0.1990   16.7770   -1.1440 C   0  0  2  0  0  0  0  0  0  0  0  0
   -0.2050   17.5990    0.1600 C   0  0  0  0  0  0  0  0  0  0  0  0
    0.3690   19.0090    0.0010 C   0  0  0  0  0  0  0  0  0  0  0  0
    1.5650   19.2230    0.8780 C   0  0  2  0  0  0  0  0  0  0  0  0
    2.5080   20.1820    0.3810 O   0  0  0  0  0  0  0  0  0  0  0  0
    2.9750   18.8270    0.4820 C   0  0  0  0  0  0  0  0  0  0  0  0
    3.2620   18.1830   -0.8390 C   0  0  0  0  0  0  0  0  0  0  0  0
    3.9900   18.6170    1.5620 C   0  0  0  0  0  0  0  0  0  0  0  0
    0.8990   15.7210   -1.0900 C   0  0  1  0  0  0  0  0  0  0  0  0
    1.1150   15.1570    0.3400 C   0  0  0  0  0  0  0  0  0  0  0  0
    1.4840   13.6600    0.1800 C   0  0  0  0  0  0  0  0  0  0  0  0
    1.7930   13.4940   -1.3270 C   0  0  1  0  0  0  0  0  0  0  0  0
    3.2590   14.0030   -1.4950 C   0  0  0  0  0  0  0  0  0  0  0  0
    1.6110   12.0560   -1.9150 C   0  0  2  0  0  0  0  0  0  0  0  0
    2.5330   10.9830   -1.3120 C   0  0  0  0  0  0  0  0  0  0  0  0
    3.8400   10.7990   -2.0100 C   0  0  0  0  0  0  0  0  0  0  0  0
    4.1410   11.2600   -3.2390 C   0  0  0  0  0  0  0  0  0  0  0  0
    3.0830   11.9650   -4.0970 C   0  0  1  0  0  0  0  0  0  0  0  0
    3.1250   11.3960   -5.5400 C   0  0  0  0  0  0  0  0  0  0  0  0
    4.5180   11.4660   -6.1570 C   0  0  0  0  0  0  0  0  0  0  0  0
    5.5310   10.7050   -5.3050 C   0  0  2  0  0  0  0  0  0  0  0  0
    5.2140    9.3100   -5.3490 O   0  0  0  0  0  0  0  0  0  0  0  0
    5.5720   11.1850   -3.8270 C   0  0  0  0  0  0  0  0  0  0  0  0
    6.2020   12.5980   -3.7560 C   0  0  0  0  0  0  0  0  0  0  0  0
    6.5280   10.2430   -3.0460 C   0  0  0  0  0  0  0  0  0  0  0  0
    1.6130   11.9980   -3.4960 C   0  0  1  0  0  0  0  0  0  0  0  0
    0.8450   10.7010   -3.8950 C   0  0  0  0  0  0  0  0  0  0  0  0
    0.8210   13.1970   -4.1400 C   0  0  0  0  0  0  0  0  0  0  0  0
    0.9460   14.5660   -3.4440 C   0  0  0  0  0  0  0  0  0  0  0  0
    0.6960   14.4400   -1.9380 C   0  0  2  0  0  0  0  0  0  0  0  0
   -0.7780   13.9500   -1.7370 C   0  0  0  0  0  0  0  0  0  0  0  0
    0.2045   18.6905   -2.0680 H   0  0  0  0  0  0  0  0  0  0  0  0
    0.8239   17.2747   -2.9836 H   0  0  0  0  0  0  0  0  0  0  0  0
   -0.9338   17.6453   -2.9836 H   0  0  0  0  0  0  0  0  0  0  0  0
   -1.1811   16.2889   -1.2295 H   0  0  0  0  0  0  0  0  0  0  0  0
   -1.2437   17.6845    0.5119 H   0  0  0  0  0  0  0  0  0  0  0  0
    0.4387   17.0688    0.8773 H   0  0  0  0  0  0  0  0  0  0  0  0
    0.6652   19.1571   -1.0480 H   0  0  0  0  0  0  0  0  0  0  0  0
   -0.4068   19.7303    0.2973 H   0  0  0  0  0  0  0  0  0  0  0  0
    0.9684   19.0226    1.7802 H   0  0  0  0  0  0  0  0  0  0  0  0
    3.7047   17.1896   -0.6741 H   0  0  0  0  0  0  0  0  0  0  0  0
    2.3257   18.0776   -1.4066 H   0  0  0  0  0  0  0  0  0  0  0  0
    3.9664   18.8088   -1.4066 H   0  0  0  0  0  0  0  0  0  0  0  0
    3.5059   18.7172    2.5447 H   0  0  0  0  0  0  0  0  0  0  0  0
    4.4230   17.6102    1.4675 H   0  0  0  0  0  0  0  0  0  0  0  0
    4.7870   19.3693    1.4675 H   0  0  0  0  0  0  0  0  0  0  0  0
    1.7393   16.3077   -1.4895 H   0  0  0  0  0  0  0  0  0  0  0  0
    1.9322   15.6970    0.8406 H   0  0  0  0  0  0  0  0  0  0  0  0
    0.2093   15.2770    0.9526 H   0  0  0  0  0  0  0  0  0  0  0  0
    2.3665   13.4104    0.7873 H   0  0  0  0  0  0  0  0  0  0  0  0
    0.6769   12.9928    0.5167 H   0  0  0  0  0  0  0  0  0  0  0  0
    3.7088   14.1592   -0.5034 H   0  0  0  0  0  0  0  0  0  0  0  0
    3.8452   13.2558   -2.0500 H   0  0  0  0  0  0  0  0  0  0  0  0
    3.2561   14.9527   -2.0500 H   0  0  0  0  0  0  0  0  0  0  0  0
    0.5943   11.7938   -1.5871 H   0  0  0  0  0  0  0  0  0  0  0  0
    2.7414   11.2615   -0.2684 H   0  0  0  0  0  0  0  0  0  0  0  0
    1.9963   10.0283   -1.4148 H   0  0  0  0  0  0  0  0  0  0  0  0
    4.6225   10.2402   -1.4757 H   0  0  0  0  0  0  0  0  0  0  0  0
    3.3587   13.0298   -4.1073 H   0  0  0  0  0  0  0  0  0  0  0  0
    2.8037   10.3443   -5.5136 H   0  0  0  0  0  0  0  0  0  0  0  0
    2.4545   12.0093   -6.1599 H   0  0  0  0  0  0  0  0  0  0  0  0
    4.4887   11.0227   -7.1633 H   0  0  0  0  0  0  0  0  0  0  0  0
    4.8259   12.5207   -6.2102 H   0  0  0  0  0  0  0  0  0  0  0  0
    6.5286   10.8996   -5.7256 H   0  0  0  0  0  0  0  0  0  0  0  0
    5.9250    8.8320   -4.8890 H   0  0  0  0  0  0  0  0  0  0  0  0
    6.3318   12.8891   -2.7032 H   0  0  0  0  0  0  0  0  0  0  0  0
    7.1811   12.5885   -4.2572 H   0  0  0  0  0  0  0  0  0  0  0  0
    5.5405   13.3200   -4.2572 H   0  0  0  0  0  0  0  0  0  0  0  0
    6.3822   10.3867   -1.9652 H   0  0  0  0  0  0  0  0  0  0  0  0
    6.3091    9.1978   -3.3098 H   0  0  0  0  0  0  0  0  0  0  0  0
    7.5699   10.4773   -3.3098 H   0  0  0  0  0  0  0  0  0  0  0  0
    0.5292   10.1677   -2.9863 H   0  0  0  0  0  0  0  0  0  0  0  0
   -0.0408   10.9678   -4.4901 H   0  0  0  0  0  0  0  0  0  0  0  0
    1.5048   10.0526   -4.4901 H   0  0  0  0  0  0  0  0  0  0  0  0
    1.1787   13.3152   -5.1735 H   0  0  0  0  0  0  0  0  0  0  0  0
   -0.2404   12.9232   -4.0480 H   0  0  0  0  0  0  0  0  0  0  0  0
    1.9588   14.9623   -3.6088 H   0  0  0  0  0  0  0  0  0  0  0  0
    0.1928   15.2457   -3.8690 H   0  0  0  0  0  0  0  0  0  0  0  0
   -0.9968   13.8773   -0.6614 H   0  0  0  0  0  0  0  0  0  0  0  0
   -1.4695   14.6666   -2.2042 H   0  0  0  0  0  0  0  0  0  0  0  0
   -0.9029   12.9620   -2.2042 H   0  0  0  0  0  0  0  0  0  0  0  0
  1  2  1  0
  2  3  1  0
  3  4  1  0
  4  5  1  0
  5  6  1  0
  6  7  1  0
  7  8  1  0
  7  9  1  0
  2 10  1  0
 10 11  1  0
 11 12  1  0
 12 13  1  0
 13 14  1  1
 13 15  1  0
 15 16  1  0
 16 17  1  0
 17 18  2  0
 18 19  1  0
 19 20  1  0
 20 21  1  0
 21 22  1  0
 22 23  1  0
 22 24  1  0
 24 25  1  0
 24 26  1  0
 19 27  1  0
 27 28  1  1
 27 29  1  0
 29 30  1  0
 30 31  1  0
 31 32  1  6
  7  5  1  0
 31 10  1  0
 31 13  1  0
 27 15  1  0
 24 18  1  0
  1 33  1  0
  1 34  1  0
  1 35  1  0
  2 36  1  6
  3 37  1  0
  3 38  1  0
  4 39  1  0
  4 40  1  0
  5 41  1  1
  8 42  1  0
  8 43  1  0
  8 44  1  0
  9 45  1  0
  9 46  1  0
  9 47  1  0
 10 48  1  6
 11 49  1  0
 11 50  1  0
 12 51  1  0
 12 52  1  0
 14 53  1  0
 14 54  1  0
 14 55  1  0
 15 56  1  1
 16 57  1  0
 16 58  1  0
 17 59  1  0
 19 60  1  6
 20 61  1  0
 20 62  1  0
 21 63  1  0
 21 64  1  0
 22 65  1  6
 23 66  1  0
 25 67  1  0
 25 68  1  0
 25 69  1  0
 26 70  1  0
 26 71  1  0
 26 72  1  0
 28 73  1  0
 28 74  1  0
 28 75  1  0
 29 76  1  0
 29 77  1  0
 30 78  1  0
 30 79  1  0
 32 80  1  0
 32 81  1  0
 32 82  1  0
M  END
>  <meeko>  (10) 
{"is_sidechain": [false], "intermolecular_energy": 2.731, "internal_energy": -0.839}

$$$$
EPH_relaxed_0001_pdb2pqr_Repair_289_r2_0001_out
     RDKit          3D

 82 86  0  0  0  0  0  0  0  0999 V2000
    0.3710    8.9370   -2.8470 C   0  0  0  0  0  0  0  0  0  0  0  0
    1.1460   10.1490   -3.3710 C   0  0  2  0  0  0  0  0  0  0  0  0
    2.6300   10.1150   -2.9520 C   0  0  0  0  0  0  0  0  0  0  0  0
    3.5750   10.7420   -3.9810 C   0  0  0  0  0  0  0  0  0  0  0  0
    4.9580   10.9130   -3.4310 C   0  0  2  0  0  0  0  0  0  0  0  0
    5.6360   12.0960   -3.8740 O   0  0  0  0  0  0  0  0  0  0  0  0
    6.2120   10.8450   -4.2840 C   0  0  0  0  0  0  0  0  0  0  0  0
    6.1400   10.5960   -5.7580 C   0  0  0  0  0  0  0  0  0  0  0  0
    7.5150   10.5330   -3.6170 C   0  0  0  0  0  0  0  0  0  0  0  0
    0.4950   11.4360   -2.8770 C   0  0  1  0  0  0  0  0  0  0  0  0
   -0.8600   11.1840   -2.1650 C   0  0  0  0  0  0  0  0  0  0  0  0
   -0.9680   12.2300   -1.0250 C   0  0  0  0  0  0  0  0  0  0  0  0
    0.1560   13.2490   -1.3250 C   0  0  1  0  0  0  0  0  0  0  0  0
   -0.4380   14.1920   -2.4170 C   0  0  0  0  0  0  0  0  0  0  0  0
    0.7020   14.0560   -0.1010 C   0  0  2  0  0  0  0  0  0  0  0  0
   -0.3290   14.9600    0.5960 C   0  0  0  0  0  0  0  0  0  0  0  0
   -0.4120   16.3550    0.0710 C   0  0  0  0  0  0  0  0  0  0  0  0
    0.4990   16.9480   -0.7220 C   0  0  0  0  0  0  0  0  0  0  0  0
    1.8060   16.2330   -1.0910 C   0  0  1  0  0  0  0  0  0  0  0  0
    2.9990   17.2080   -0.9100 C   0  0  0  0  0  0  0  0  0  0  0  0
    2.8100   18.5130   -1.6790 C   0  0  0  0  0  0  0  0  0  0  0  0
    1.5310   19.2230   -1.2420 C   0  0  2  0  0  0  0  0  0  0  0  0
    1.6820   19.6520    0.1140 O   0  0  0  0  0  0  0  0  0  0  0  0
    0.2620   18.3340   -1.3710 C   0  0  0  0  0  0  0  0  0  0  0  0
   -0.0730   18.1180   -2.8680 C   0  0  0  0  0  0  0  0  0  0  0  0
   -0.9340   19.1180   -0.7670 C   0  0  0  0  0  0  0  0  0  0  0  0
    2.0520   14.8300   -0.3860 C   0  0  1  0  0  0  0  0  0  0  0  0
    2.7420   15.0440    0.9960 C   0  0  0  0  0  0  0  0  0  0  0  0
    3.0540   13.9850   -1.2570 C   0  0  0  0  0  0  0  0  0  0  0  0
    2.4430   13.1170   -2.3730 C   0  0  0  0  0  0  0  0  0  0  0  0
    1.2790   12.2770   -1.8390 C   0  0  2  0  0  0  0  0  0  0  0  0
    1.8510   11.3030   -0.7540 C   0  0  0  0  0  0  0  0  0  0  0  0
    0.3766    8.9458   -1.7470 H   0  0  0  0  0  0  0  0  0  0  0  0
   -0.6669    8.9811   -3.2087 H   0  0  0  0  0  0  0  0  0  0  0  0
    0.8465    8.0134   -3.2087 H   0  0  0  0  0  0  0  0  0  0  0  0
    1.1121   10.1132   -4.4699 H   0  0  0  0  0  0  0  0  0  0  0  0
    2.7358   10.6631   -2.0041 H   0  0  0  0  0  0  0  0  0  0  0  0
    2.9134    9.0562   -2.8587 H   0  0  0  0  0  0  0  0  0  0  0  0
    3.6213   10.0904   -4.8660 H   0  0  0  0  0  0  0  0  0  0  0  0
    3.1850   11.7364   -4.2437 H   0  0  0  0  0  0  0  0  0  0  0  0
    4.6740   10.4094   -2.4952 H   0  0  0  0  0  0  0  0  0  0  0  0
    5.8386    9.5538   -5.9395 H   0  0  0  0  0  0  0  0  0  0  0  0
    5.4014   11.2751   -6.2089 H   0  0  0  0  0  0  0  0  0  0  0  0
    7.1270   10.7761   -6.2089 H   0  0  0  0  0  0  0  0  0  0  0  0
    7.3847   10.5642   -2.5252 H   0  0  0  0  0  0  0  0  0  0  0  0
    7.8498    9.5293   -3.9178 H   0  0  0  0  0  0  0  0  0  0  0  0
    8.2681   11.2762   -3.9178 H   0  0  0  0  0  0  0  0  0  0  0  0
    0.4245   11.9839   -3.8282 H   0  0  0  0  0  0  0  0  0  0  0  0
   -1.6904   11.3107   -2.8752 H   0  0  0  0  0  0  0  0  0  0  0  0
   -0.9127   10.1597   -1.7674 H   0  0  0  0  0  0  0  0  0  0  0  0
   -1.9521   12.7212   -1.0403 H   0  0  0  0  0  0  0  0  0  0  0  0
   -0.8643   11.7747   -0.0290 H   0  0  0  0  0  0  0  0  0  0  0  0
   -0.9644   15.0277   -1.9328 H   0  0  0  0  0  0  0  0  0  0  0  0
    0.3758   14.5852   -3.0440 H   0  0  0  0  0  0  0  0  0  0  0  0
   -1.1441   13.6278   -3.0440 H   0  0  0  0  0  0  0  0  0  0  0  0
    0.9373   13.2604    0.6213 H   0  0  0  0  0  0  0  0  0  0  0  0
   -1.3196   14.4951    0.4838 H   0  0  0  0  0  0  0  0  0  0  0  0
    0.0007   15.0475    1.6418 H   0  0  0  0  0  0  0  0  0  0  0  0
   -1.2929   16.9486    0.3568 H   0  0  0  0  0  0  0  0  0  0  0  0
    1.7104   15.9530   -2.1505 H   0  0  0  0  0  0  0  0  0  0  0  0
    3.1047   17.4412    0.1598 H   0  0  0  0  0  0  0  0  0  0  0  0
    3.8977   16.7135   -1.3071 H   0  0  0  0  0  0  0  0  0  0  0  0
    3.6704   19.1712   -1.4882 H   0  0  0  0  0  0  0  0  0  0  0  0
    2.7340   18.2809   -2.7515 H   0  0  0  0  0  0  0  0  0  0  0  0
    1.3831   20.0801   -1.9154 H   0  0  0  0  0  0  0  0  0  0  0  0
    1.9710   18.8840    0.6350 H   0  0  0  0  0  0  0  0  0  0  0  0
   -0.9946   17.5238   -2.9555 H   0  0  0  0  0  0  0  0  0  0  0  0
   -0.2179   19.0933   -3.3557 H   0  0  0  0  0  0  0  0  0  0  0  0
    0.7555   17.5836   -3.3557 H   0  0  0  0  0  0  0  0  0  0  0  0
   -0.8790   19.0820    0.3310 H   0  0  0  0  0  0  0  0  0  0  0  0
   -0.8928   20.1649   -1.1020 H   0  0  0  0  0  0  0  0  0  0  0  0
   -1.8776   18.6626   -1.1020 H   0  0  0  0  0  0  0  0  0  0  0  0
    2.0264   14.8221    1.8014 H   0  0  0  0  0  0  0  0  0  0  0  0
    3.6092   14.3726    1.0807 H   0  0  0  0  0  0  0  0  0  0  0  0
    3.0771   16.0883    1.0807 H   0  0  0  0  0  0  0  0  0  0  0  0
    3.7580   14.6863   -1.7287 H   0  0  0  0  0  0  0  0  0  0  0  0
    3.5132   13.2718   -0.5567 H   0  0  0  0  0  0  0  0  0  0  0  0
    2.0754   13.7713   -3.1772 H   0  0  0  0  0  0  0  0  0  0  0  0
    3.2198   12.4378   -2.7540 H   0  0  0  0  0  0  0  0  0  0  0  0
    1.6211   11.6945    0.2479 H   0  0  0  0  0  0  0  0  0  0  0  0
    1.3924   10.3104   -0.8740 H   0  0  0  0  0  0  0  0  0  0  0  0
    2.9413   11.2200   -0.8740 H   0  0  0  0  0  0  0  0  0  0  0  0
  1  2  1  0
  2  3  1  0
  3  4  1  0
  4  5  1  0
  5  6  1  0
  6  7  1  0
  7  8  1  0
  7  9  1  0
  2 10  1  0
 10 11  1  0
 11 12  1  0
 12 13  1  0
 13 14  1  6
 13 15  1  0
 15 16  1  0
 16 17  1  0
 17 18  2  0
 18 19  1  0
 19 20  1  0
 20 21  1  0
 21 22  1  0
 22 23  1  0
 22 24  1  0
 24 25  1  0
 24 26  1  0
 19 27  1  0
 27 28  1  1
 27 29  1  0
 29 30  1  0
 30 31  1  0
 31 32  1  1
  7  5  1  0
 31 10  1  0
 31 13  1  0
 27 15  1  0
 24 18  1  0
  1 33  1  0
  1 34  1  0
  1 35  1  0
  2 36  1  6
  3 37  1  0
  3 38  1  0
  4 39  1  0
  4 40  1  0
  5 41  1  1
  8 42  1  0
  8 43  1  0
  8 44  1  0
  9 45  1  0
  9 46  1  0
  9 47  1  0
 10 48  1  6
 11 49  1  0
 11 50  1  0
 12 51  1  0
 12 52  1  0
 14 53  1  0
 14 54  1  0
 14 55  1  0
 15 56  1  1
 16 57  1  0
 16 58  1  0
 17 59  1  0
 19 60  1  6
 20 61  1  0
 20 62  1  0
 21 63  1  0
 21 64  1  0
 22 65  1  6
 23 66  1  0
 25 67  1  0
 25 68  1  0
 25 69  1  0
 26 70  1  0
 26 71  1  0
 26 72  1  0
 28 73  1  0
 28 74  1  0
 28 75  1  0
 29 76  1  0
 29 77  1  0
 30 78  1  0
 30 79  1  0
 32 80  1  0
 32 81  1  0
 32 82  1  0
M  END
>  <meeko>  (11) 
{"is_sidechain": [false], "intermolecular_energy": 2.731, "internal_energy": -0.839}

$$$$
EPH_relaxed_0001_pdb2pqr_Repair_289_r2_0001_out
     RDKit          3D

 82 86  0  0  0  0  0  0  0  0999 V2000
   -0.2430   15.0930   -7.4880 C   0  0  0  0  0  0  0  0  0  0  0  0
    1.1670   14.9990   -6.8980 C   0  0  2  0  0  0  0  0  0  0  0  0
    2.2550   15.0110   -7.9890 C   0  0  0  0  0  0  0  0  0  0  0  0
    2.3540   16.3370   -8.7470 C   0  0  0  0  0  0  0  0  0  0  0  0
    1.8980   16.2000  -10.1680 C   0  0  2  0  0  0  0  0  0  0  0  0
    1.1980   14.9820  -10.4570 O   0  0  0  0  0  0  0  0  0  0  0  0
    2.4550   15.1660  -11.1290 C   0  0  0  0  0  0  0  0  0  0  0  0
    3.5180   14.2010  -10.7060 C   0  0  0  0  0  0  0  0  0  0  0  0
    2.3220   15.4110  -12.5990 C   0  0  0  0  0  0  0  0  0  0  0  0
    1.2920   13.7390   -6.0500 C   0  0  1  0  0  0  0  0  0  0  0  0
    2.7250   13.1430   -6.0740 C   0  0  0  0  0  0  0  0  0  0  0  0
    2.9840   12.5450   -4.6670 C   0  0  0  0  0  0  0  0  0  0  0  0
    1.5920   12.5180   -3.9920 C   0  0  1  0  0  0  0  0  0  0  0  0
    0.9020   11.2330   -4.5490 C   0  0  0  0  0  0  0  0  0  0  0  0
    1.5820   12.5480   -2.4290 C   0  0  2  0  0  0  0  0  0  0  0  0
    2.2550   11.3430   -1.7490 C   0  0  0  0  0  0  0  0  0  0  0  0
    1.3530   10.1910   -1.4530 C   0  0  0  0  0  0  0  0  0  0  0  0
    0.0070   10.2300   -1.4600 C   0  0  0  0  0  0  0  0  0  0  0  0
   -0.7420   11.5480   -1.6920 C   0  0  1  0  0  0  0  0  0  0  0  0
   -1.8740   11.6920   -0.6420 C   0  0  0  0  0  0  0  0  0  0  0  0
   -2.8090   10.4860   -0.6200 C   0  0  0  0  0  0  0  0  0  0  0  0
   -2.0350    9.2020   -0.3280 C   0  0  2  0  0  0  0  0  0  0  0  0
   -1.5320    9.2610    1.0100 O   0  0  0  0  0  0  0  0  0  0  0  0
   -0.8620    8.9560   -1.3170 C   0  0  0  0  0  0  0  0  0  0  0  0
   -1.4260    8.5940   -2.7140 C   0  0  0  0  0  0  0  0  0  0  0  0
   -0.0790    7.7080   -0.8280 C   0  0  0  0  0  0  0  0  0  0  0  0
    0.1630   12.8510   -1.7960 C   0  0  1  0  0  0  0  0  0  0  0  0
    0.4250   13.4320   -0.3730 C   0  0  0  0  0  0  0  0  0  0  0  0
   -0.6220   13.9600   -2.5910 C   0  0  0  0  0  0  0  0  0  0  0  0
   -0.4760   13.9510   -4.1250 C   0  0  0  0  0  0  0  0  0  0  0  0
    0.9980   13.8680   -4.5340 C   0  0  2  0  0  0  0  0  0  0  0  0
    1.7130   15.1580   -4.0070 C   0  0  0  0  0  0  0  0  0  0  0  0
   -0.9793   15.1421   -6.6722 H   0  0  0  0  0  0  0  0  0  0  0  0
   -0.3215   15.9984   -8.1078 H   0  0  0  0  0  0  0  0  0  0  0  0
   -0.4410   14.2061   -8.1078 H   0  0  0  0  0  0  0  0  0  0  0  0
    1.3225   15.8875   -6.2684 H   0  0  0  0  0  0  0  0  0  0  0  0
    3.2261   14.8102   -7.5128 H   0  0  0  0  0  0  0  0  0  0  0  0
    1.9800   14.2408   -8.7246 H   0  0  0  0  0  0  0  0  0  0  0  0
    1.7247   17.0842   -8.2414 H   0  0  0  0  0  0  0  0  0  0  0  0
    3.4088   16.6491   -8.7545 H   0  0  0  0  0  0  0  0  0  0  0  0
    1.7595   17.2879  -10.2537 H   0  0  0  0  0  0  0  0  0  0  0  0
    3.5614   14.1616   -9.6076 H   0  0  0  0  0  0  0  0  0  0  0  0
    3.2832   13.2011  -11.0998 H   0  0  0  0  0  0  0  0  0  0  0  0
    4.4906   14.5311  -11.0998 H   0  0  0  0  0  0  0  0  0  0  0  0
    1.8033   16.3665  -12.7660 H   0  0  0  0  0  0  0  0  0  0  0  0
    3.3218   15.4518  -13.0559 H   0  0  0  0  0  0  0  0  0  0  0  0
    1.7431   14.5948  -13.0559 H   0  0  0  0  0  0  0  0  0  0  0  0
    0.5221   13.1173   -6.5303 H   0  0  0  0  0  0  0  0  0  0  0  0
    2.7951   12.3557   -6.8390 H   0  0  0  0  0  0  0  0  0  0  0  0
    3.4698   13.9147   -6.3186 H   0  0  0  0  0  0  0  0  0  0  0  0
    3.3965   11.5284   -4.7471 H   0  0  0  0  0  0  0  0  0  0  0  0
    3.7150   13.1326   -4.0922 H   0  0  0  0  0  0  0  0  0  0  0  0
    0.5649   10.6052   -3.7110 H   0  0  0  0  0  0  0  0  0  0  0  0
    0.0362   11.5191   -5.1642 H   0  0  0  0  0  0  0  0  0  0  0  0
    1.6188   10.6693   -5.1642 H   0  0  0  0  0  0  0  0  0  0  0  0
    2.2231   13.4134   -2.2052 H   0  0  0  0  0  0  0  0  0  0  0  0
    3.0579   10.9847   -2.4100 H   0  0  0  0  0  0  0  0  0  0  0  0
    2.6146   11.7056   -0.7747 H   0  0  0  0  0  0  0  0  0  0  0  0
    1.8278    9.2293   -1.2086 H   0  0  0  0  0  0  0  0  0  0  0  0
   -1.1751   11.4779   -2.7007 H   0  0  0  0  0  0  0  0  0  0  0  0
   -1.4194   11.8039    0.3534 H   0  0  0  0  0  0  0  0  0  0  0  0
   -2.4726   12.5735   -0.9153 H   0  0  0  0  0  0  0  0  0  0  0  0
   -3.5693   10.6338    0.1611 H   0  0  0  0  0  0  0  0  0  0  0  0
   -3.2856   10.3925   -1.6070 H   0  0  0  0  0  0  0  0  0  0  0  0
   -2.7324    8.3606   -0.4531 H   0  0  0  0  0  0  0  0  0  0  0  0
   -0.7660    9.8590    1.0100 H   0  0  0  0  0  0  0  0  0  0  0  0
   -2.3464    8.0033   -2.5960 H   0  0  0  0  0  0  0  0  0  0  0  0
   -1.6511    9.5167   -3.2689 H   0  0  0  0  0  0  0  0  0  0  0  0
   -0.6809    8.0050   -3.2689 H   0  0  0  0  0  0  0  0  0  0  0  0
   -0.0677    7.6900    0.2718 H   0  0  0  0  0  0  0  0  0  0  0  0
   -0.5680    6.7975   -1.2046 H   0  0  0  0  0  0  0  0  0  0  0  0
    0.9536    7.7522   -1.2046 H   0  0  0  0  0  0  0  0  0  0  0  0
    0.0975   12.7058    0.3856 H   0  0  0  0  0  0  0  0  0  0  0  0
    1.4999   13.6308   -0.2503 H   0  0  0  0  0  0  0  0  0  0  0  0
   -0.1376   14.3693   -0.2503 H   0  0  0  0  0  0  0  0  0  0  0  0
   -1.6906   13.8429   -2.3579 H   0  0  0  0  0  0  0  0  0  0  0  0
   -0.1806   14.9136   -2.2658 H   0  0  0  0  0  0  0  0  0  0  0  0
   -1.0123   13.0813   -4.5326 H   0  0  0  0  0  0  0  0  0  0  0  0
   -0.8990   14.8850   -4.5235 H   0  0  0  0  0  0  0  0  0  0  0  0
    1.7112   15.1548   -2.9070 H   0  0  0  0  0  0  0  0  0  0  0  0
    2.7505   15.1772   -4.3719 H   0  0  0  0  0  0  0  0  0  0  0  0
    1.1794   16.0480   -4.3719 H   0  0  0  0  0  0  0  0  0  0  0  0
  1  2  1  0
  2  3  1  0
  3  4  1  0
  4  5  1  0
  5  6  1  0
  6  7  1  0
  7  8  1  0
  7  9  1  0
  2 10  1  0
 10 11  1  0
 11 12  1  0
 12 13  1  0
 13 14  1  1
 13 15  1  0
 15 16  1  0
 16 17  1  0
 17 18  2  0
 18 19  1  0
 19 20  1  0
 20 21  1  0
 21 22  1  0
 22 23  1  0
 22 24  1  0
 24 25  1  0
 24 26  1  0
 19 27  1  0
 27 28  1  1
 27 29  1  0
 29 30  1  0
 30 31  1  0
 31 32  1  1
  7  5  1  0
 31 10  1  0
 31 13  1  0
 27 15  1  0
 24 18  1  0
  1 33  1  0
  1 34  1  0
  1 35  1  0
  2 36  1  1
  3 37  1  0
  3 38  1  0
  4 39  1  0
  4 40  1  0
  5 41  1  6
  8 42  1  0
  8 43  1  0
  8 44  1  0
  9 45  1  0
  9 46  1  0
  9 47  1  0
 10 48  1  6
 11 49  1  0
 11 50  1  0
 12 51  1  0
 12 52  1  0
 14 53  1  0
 14 54  1  0
 14 55  1  0
 15 56  1  6
 16 57  1  0
 16 58  1  0
 17 59  1  0
 19 60  1  6
 20 61  1  0
 20 62  1  0
 21 63  1  0
 21 64  1  0
 22 65  1  1
 23 66  1  0
 25 67  1  0
 25 68  1  0
 25 69  1  0
 26 70  1  0
 26 71  1  0
 26 72  1  0
 28 73  1  0
 28 74  1  0
 28 75  1  0
 29 76  1  0
 29 77  1  0
 30 78  1  0
 30 79  1  0
 32 80  1  0
 32 81  1  0
 32 82  1  0
M  END
>  <meeko>  (12) 
{"is_sidechain": [false], "intermolecular_energy": 2.731, "internal_energy": -0.839}

$$$$
EPH_relaxed_0001_pdb2pqr_Repair_289_r2_0001_out
     RDKit          3D

 82 86  0  0  0  0  0  0  0  0999 V2000
    0.1020   10.5280   -3.8260 C   0  0  0  0  0  0  0  0  0  0  0  0
    1.0410   10.2590   -2.6470 C   0  0  2  0  0  0  0  0  0  0  0  0
    0.6350    9.0000   -1.8560 C   0  0  0  0  0  0  0  0  0  0  0  0
   -0.8000    8.5390   -2.1270 C   0  0  0  0  0  0  0  0  0  0  0  0
   -1.6430    8.5920   -0.8890 C   0  0  2  0  0  0  0  0  0  0  0  0
   -3.0320    8.8560   -1.1220 O   0  0  0  0  0  0  0  0  0  0  0  0
   -2.3110    9.8580   -0.3860 C   0  0  0  0  0  0  0  0  0  0  0  0
   -2.1650   11.1590   -1.1100 C   0  0  0  0  0  0  0  0  0  0  0  0
   -2.6960    9.9370    1.0590 C   0  0  0  0  0  0  0  0  0  0  0  0
    1.0720   11.4690   -1.7210 C   0  0  1  0  0  0  0  0  0  0  0  0
    2.0890   11.3070   -0.5600 C   0  0  0  0  0  0  0  0  0  0  0  0
    2.6780   12.7130   -0.2810 C   0  0  0  0  0  0  0  0  0  0  0  0
    1.7530   13.6840   -1.0510 C   0  0  1  0  0  0  0  0  0  0  0  0
    0.5150   13.8800   -0.1210 C   0  0  0  0  0  0  0  0  0  0  0  0
    2.3820   15.0520   -1.4720 C   0  0  2  0  0  0  0  0  0  0  0  0
    2.8320   15.9490   -0.3050 C   0  0  0  0  0  0  0  0  0  0  0  0
    1.8000   16.8990    0.2040 C   0  0  0  0  0  0  0  0  0  0  0  0
    0.6610   17.2310   -0.4320 C   0  0  0  0  0  0  0  0  0  0  0  0
    0.3640   16.7050   -1.8420 C   0  0  1  0  0  0  0  0  0  0  0  0
   -0.1330   17.8710   -2.7360 C   0  0  0  0  0  0  0  0  0  0  0  0
   -1.3210   18.6100   -2.1270 C   0  0  0  0  0  0  0  0  0  0  0  0
   -0.9680   19.1680   -0.7510 C   0  0  2  0  0  0  0  0  0  0  0  0
    0.0190   20.1930   -0.9090 O   0  0  0  0  0  0  0  0  0  0  0  0
   -0.4450   18.0860    0.2340 C   0  0  0  0  0  0  0  0  0  0  0  0
   -1.6080   17.1460    0.6390 C   0  0  0  0  0  0  0  0  0  0  0  0
    0.0070   18.8030    1.5350 C   0  0  0  0  0  0  0  0  0  0  0  0
    1.5250   15.8630   -2.5270 C   0  0  1  0  0  0  0  0  0  0  0  0
    2.5130   16.8190   -3.2620 C   0  0  0  0  0  0  0  0  0  0  0  0
    0.9020   14.9320   -3.6330 C   0  0  0  0  0  0  0  0  0  0  0  0
    0.4070   13.5460   -3.1770 C   0  0  0  0  0  0  0  0  0  0  0  0
    1.4730   12.8310   -2.3420 C   0  0  2  0  0  0  0  0  0  0  0  0
    2.7230   12.5990   -3.2580 C   0  0  0  0  0  0  0  0  0  0  0  0
   -0.8906   10.8124   -3.4467 H   0  0  0  0  0  0  0  0  0  0  0  0
    0.5083   11.3459   -4.4392 H   0  0  0  0  0  0  0  0  0  0  0  0
    0.0136    9.6190   -4.4392 H   0  0  0  0  0  0  0  0  0  0  0  0
    2.0453   10.0798   -3.0584 H   0  0  0  0  0  0  0  0  0  0  0  0
    1.3195    8.1831   -2.1282 H   0  0  0  0  0  0  0  0  0  0  0  0
    0.6935    9.2583   -0.7884 H   0  0  0  0  0  0  0  0  0  0  0  0
   -1.2463    9.1933   -2.8904 H   0  0  0  0  0  0  0  0  0  0  0  0
   -0.7650    7.4955   -2.4733 H   0  0  0  0  0  0  0  0  0  0  0  0
   -1.0024    7.8485   -0.3921 H   0  0  0  0  0  0  0  0  0  0  0  0
   -2.0732   11.9766   -0.3799 H   0  0  0  0  0  0  0  0  0  0  0  0
   -1.2647   11.1283   -1.7412 H   0  0  0  0  0  0  0  0  0  0  0  0
   -3.0497   11.3286   -1.7412 H   0  0  0  0  0  0  0  0  0  0  0  0
   -1.8100    9.7552    1.6850 H   0  0  0  0  0  0  0  0  0  0  0  0
   -3.0999   10.9367    1.2767 H   0  0  0  0  0  0  0  0  0  0  0  0
   -3.4610    9.1771    1.2767 H   0  0  0  0  0  0  0  0  0  0  0  0
    0.0161   11.4920   -1.4135 H   0  0  0  0  0  0  0  0  0  0  0  0
    1.5812   10.9243    0.3376 H   0  0  0  0  0  0  0  0  0  0  0  0
    2.8819   10.5928   -0.8268 H   0  0  0  0  0  0  0  0  0  0  0  0
    2.6619   12.9338    0.7965 H   0  0  0  0  0  0  0  0  0  0  0  0
    3.7275   12.7961   -0.5998 H   0  0  0  0  0  0  0  0  0  0  0  0
    0.8345   13.8294    0.9304 H   0  0  0  0  0  0  0  0  0  0  0  0
    0.0594   14.8615   -0.3190 H   0  0  0  0  0  0  0  0  0  0  0  0
   -0.2215   13.0873   -0.3190 H   0  0  0  0  0  0  0  0  0  0  0  0
    3.3047   14.7401   -1.9833 H   0  0  0  0  0  0  0  0  0  0  0  0
    3.1339   15.2970    0.5279 H   0  0  0  0  0  0  0  0  0  0  0  0
    3.6504   16.5706   -0.6973 H   0  0  0  0  0  0  0  0  0  0  0  0
    1.9857   17.3677    1.1817 H   0  0  0  0  0  0  0  0  0  0  0  0
   -0.4347   15.9577   -1.7254 H   0  0  0  0  0  0  0  0  0  0  0  0
    0.6923   18.5847   -2.8757 H   0  0  0  0  0  0  0  0  0  0  0  0
   -0.4625   17.4407   -3.6932 H   0  0  0  0  0  0  0  0  0  0  0  0
   -1.6070   19.4401   -2.7897 H   0  0  0  0  0  0  0  0  0  0  0  0
   -2.1556   17.9022   -2.0157 H   0  0  0  0  0  0  0  0  0  0  0  0
   -1.8924   19.5705   -0.3112 H   0  0  0  0  0  0  0  0  0  0  0  0
   -0.1140   20.5970   -1.7830 H   0  0  0  0  0  0  0  0  0  0  0  0
   -1.6724   17.0940    1.7359 H   0  0  0  0  0  0  0  0  0  0  0  0
   -2.5533   17.5368    0.2343 H   0  0  0  0  0  0  0  0  0  0  0  0
   -1.4241   16.1398    0.2343 H   0  0  0  0  0  0  0  0  0  0  0  0
   -0.3497   18.2372    2.4083 H   0  0  0  0  0  0  0  0  0  0  0  0
    1.1052   18.8609    1.5592 H   0  0  0  0  0  0  0  0  0  0  0  0
   -0.4143   19.8188    1.5592 H   0  0  0  0  0  0  0  0  0  0  0  0
    3.0968   17.3839   -2.5203 H   0  0  0  0  0  0  0  0  0  0  0  0
    3.1942   16.2284   -3.8922 H   0  0  0  0  0  0  0  0  0  0  0  0
    1.9451   17.5193   -3.8922 H   0  0  0  0  0  0  0  0  0  0  0  0
    0.0446   15.4638   -4.0712 H   0  0  0  0  0  0  0  0  0  0  0  0
    1.7250   14.7273   -4.3336 H   0  0  0  0  0  0  0  0  0  0  0  0
   -0.5020   13.6702   -2.5701 H   0  0  0  0  0  0  0  0  0  0  0  0
    0.1942   12.9385   -4.0690 H   0  0  0  0  0  0  0  0  0  0  0  0
    3.6116   12.4341   -2.6309 H   0  0  0  0  0  0  0  0  0  0  0  0
    2.5536   11.7170   -3.8931 H   0  0  0  0  0  0  0  0  0  0  0  0
    2.8814   13.4831   -3.8931 H   0  0  0  0  0  0  0  0  0  0  0  0
  1  2  1  0
  2  3  1  0
  3  4  1  0
  4  5  1  0
  5  6  1  0
  6  7  1  0
  7  8  1  0
  7  9  1  0
  2 10  1  0
 10 11  1  0
 11 12  1  0
 12 13  1  0
 13 14  1  1
 13 15  1  0
 15 16  1  0
 16 17  1  0
 17 18  2  0
 18 19  1  0
 19 20  1  0
 20 21  1  0
 21 22  1  0
 22 23  1  0
 22 24  1  0
 24 25  1  0
 24 26  1  0
 19 27  1  0
 27 28  1  6
 27 29  1  0
 29 30  1  0
 30 31  1  0
 31 32  1  6
  7  5  1  0
 31 10  1  0
 31 13  1  0
 27 15  1  0
 24 18  1  0
  1 33  1  0
  1 34  1  0
  1 35  1  0
  2 36  1  6
  3 37  1  0
  3 38  1  0
  4 39  1  0
  4 40  1  0
  5 41  1  1
  8 42  1  0
  8 43  1  0
  8 44  1  0
  9 45  1  0
  9 46  1  0
  9 47  1  0
 10 48  1  1
 11 49  1  0
 11 50  1  0
 12 51  1  0
 12 52  1  0
 14 53  1  0
 14 54  1  0
 14 55  1  0
 15 56  1  6
 16 57  1  0
 16 58  1  0
 17 59  1  0
 19 60  1  1
 20 61  1  0
 20 62  1  0
 21 63  1  0
 21 64  1  0
 22 65  1  1
 23 66  1  0
 25 67  1  0
 25 68  1  0
 25 69  1  0
 26 70  1  0
 26 71  1  0
 26 72  1  0
 28 73  1  0
 28 74  1  0
 28 75  1  0
 29 76  1  0
 29 77  1  0
 30 78  1  0
 30 79  1  0
 32 80  1  0
 32 81  1  0
 32 82  1  0
M  END
>  <meeko>  (13) 
{"is_sidechain": [false], "intermolecular_energy": 2.731, "internal_energy": -0.839}

$$$$
EPH_relaxed_0001_pdb2pqr_Repair_289_r2_0001_out
     RDKit          3D

 82 86  0  0  0  0  0  0  0  0999 V2000
   -2.6140    7.5500   -2.3600 C   0  0  0  0  0  0  0  0  0  0  0  0
   -2.6410    8.1220   -0.9400 C   0  0  2  0  0  0  0  0  0  0  0  0
   -4.0600    8.1140   -0.3370 C   0  0  0  0  0  0  0  0  0  0  0  0
   -5.1570    7.7800   -1.3510 C   0  0  0  0  0  0  0  0  0  0  0  0
   -6.3080    7.0670   -0.7080 C   0  0  2  0  0  0  0  0  0  0  0  0
   -6.8310    5.9690   -1.4660 O   0  0  0  0  0  0  0  0  0  0  0  0
   -7.7190    7.0810   -1.2670 C   0  0  0  0  0  0  0  0  0  0  0  0
   -8.0530    7.8240   -2.5220 C   0  0  0  0  0  0  0  0  0  0  0  0
   -8.8580    6.7860   -0.3420 C   0  0  0  0  0  0  0  0  0  0  0  0
   -2.0830    9.5410   -0.9400 C   0  0  1  0  0  0  0  0  0  0  0  0
   -1.7350   10.0460    0.4850 C   0  0  0  0  0  0  0  0  0  0  0  0
   -0.4810   10.9480    0.3460 C   0  0  0  0  0  0  0  0  0  0  0  0
   -0.3490   11.2000   -1.1740 C   0  0  1  0  0  0  0  0  0  0  0  0
   -1.3630   12.3460   -1.4800 C   0  0  0  0  0  0  0  0  0  0  0  0
    1.0840   11.5430   -1.6960 C   0  0  2  0  0  0  0  0  0  0  0  0
    1.6900   12.8410   -1.1350 C   0  0  0  0  0  0  0  0  0  0  0  0
    1.4100   14.0720   -1.9330 C   0  0  0  0  0  0  0  0  0  0  0  0
    0.9480   14.0960   -3.1970 C   0  0  0  0  0  0  0  0  0  0  0  0
    0.7500   12.7970   -3.9890 C   0  0  1  0  0  0  0  0  0  0  0  0
    1.3510   12.9600   -5.4100 C   0  0  0  0  0  0  0  0  0  0  0  0
    0.7990   14.1790   -6.1420 C   0  0  0  0  0  0  0  0  0  0  0  0
    1.0660   15.4580   -5.3510 C   0  0  2  0  0  0  0  0  0  0  0  0
    2.4760   15.6950   -5.3220 O   0  0  0  0  0  0  0  0  0  0  0  0
    0.5140   15.4060   -3.8990 C   0  0  0  0  0  0  0  0  0  0  0  0
   -1.0340   15.4530   -3.9290 C   0  0  0  0  0  0  0  0  0  0  0  0
    0.9730   16.6970   -3.1680 C   0  0  0  0  0  0  0  0  0  0  0  0
    1.2370   11.4660   -3.2690 C   0  0  1  0  0  0  0  0  0  0  0  0
    2.7510   11.2280   -3.5580 C   0  0  0  0  0  0  0  0  0  0  0  0
    0.4690   10.2380   -3.8860 C   0  0  0  0  0  0  0  0  0  0  0  0
   -0.8870    9.8750   -3.2490 C   0  0  0  0  0  0  0  0  0  0  0  0
   -0.7700    9.7890   -1.7240 C   0  0  2  0  0  0  0  0  0  0  0  0
    0.2270    8.6290   -1.3860 C   0  0  0  0  0  0  0  0  0  0  0  0
   -2.5622    6.4523   -2.3122 H   0  0  0  0  0  0  0  0  0  0  0  0
   -3.5274    7.8511   -2.8940 H   0  0  0  0  0  0  0  0  0  0  0  0
   -1.7331    7.9357   -2.8940 H   0  0  0  0  0  0  0  0  0  0  0  0
   -2.0117    7.4750   -0.3112 H   0  0  0  0  0  0  0  0  0  0  0  0
   -4.0912    7.3649    0.4679 H   0  0  0  0  0  0  0  0  0  0  0  0
   -4.2596    9.1318    0.0294 H   0  0  0  0  0  0  0  0  0  0  0  0
   -5.5231    8.7146   -1.8009 H   0  0  0  0  0  0  0  0  0  0  0  0
   -4.7267    7.1165   -2.1156 H   0  0  0  0  0  0  0  0  0  0  0  0
   -5.9097    7.2797    0.2950 H   0  0  0  0  0  0  0  0  0  0  0  0
   -8.4915    8.7995   -2.2649 H   0  0  0  0  0  0  0  0  0  0  0  0
   -7.1373    7.9776   -3.1119 H   0  0  0  0  0  0  0  0  0  0  0  0
   -8.7757    7.2411   -3.1119 H   0  0  0  0  0  0  0  0  0  0  0  0
   -8.5165    6.8744    0.6999 H   0  0  0  0  0  0  0  0  0  0  0  0
   -9.6725    7.5028   -0.5230 H   0  0  0  0  0  0  0  0  0  0  0  0
   -9.2221    5.7639   -0.5230 H   0  0  0  0  0  0  0  0  0  0  0  0
   -2.9172   10.0669   -1.4274 H   0  0  0  0  0  0  0  0  0  0  0  0
   -2.5744   10.6252    0.8972 H   0  0  0  0  0  0  0  0  0  0  0  0
   -1.5425    9.2042    1.1664 H   0  0  0  0  0  0  0  0  0  0  0  0
   -0.6225   11.8958    0.8860 H   0  0  0  0  0  0  0  0  0  0  0  0
    0.4191   10.4799    0.7712 H   0  0  0  0  0  0  0  0  0  0  0  0
   -1.7360   12.7676   -0.5349 H   0  0  0  0  0  0  0  0  0  0  0  0
   -0.8612   13.1343   -2.0604 H   0  0  0  0  0  0  0  0  0  0  0  0
   -2.2065   11.9440   -2.0604 H   0  0  0  0  0  0  0  0  0  0  0  0
    1.6890   10.7257   -1.2764 H   0  0  0  0  0  0  0  0  0  0  0  0
    1.2886   12.9937   -0.1223 H   0  0  0  0  0  0  0  0  0  0  0  0
    2.7811   12.7034   -1.1600 H   0  0  0  0  0  0  0  0  0  0  0  0
    1.5971   15.0408   -1.4467 H   0  0  0  0  0  0  0  0  0  0  0  0
   -0.3373   12.6457   -4.0593 H   0  0  0  0  0  0  0  0  0  0  0  0
    2.4423   13.0662   -5.3213 H   0  0  0  0  0  0  0  0  0  0  0  0
    1.0771   12.0682   -5.9928 H   0  0  0  0  0  0  0  0  0  0  0  0
    1.2828   14.2572   -7.1268 H   0  0  0  0  0  0  0  0  0  0  0  0
   -0.2883   14.0574   -6.2562 H   0  0  0  0  0  0  0  0  0  0  0  0
    0.5360   16.2775   -5.8584 H   0  0  0  0  0  0  0  0  0  0  0  0
    2.8010   15.6500   -6.2370 H   0  0  0  0  0  0  0  0  0  0  0  0
   -1.4205   15.4647   -2.8992 H   0  0  0  0  0  0  0  0  0  0  0  0
   -1.3631   16.3616   -4.4545 H   0  0  0  0  0  0  0  0  0  0  0  0
   -1.4176   14.5661   -4.4545 H   0  0  0  0  0  0  0  0  0  0  0  0
    0.9178   16.5418   -2.0804 H   0  0  0  0  0  0  0  0  0  0  0  0
    2.0094   16.9309   -3.4529 H   0  0  0  0  0  0  0  0  0  0  0  0
    0.3169   17.5327   -3.4529 H   0  0  0  0  0  0  0  0  0  0  0  0
    3.2968   11.1422   -2.6068 H   0  0  0  0  0  0  0  0  0  0  0  0
    2.8725   10.2997   -4.1355 H   0  0  0  0  0  0  0  0  0  0  0  0
    3.1515   12.0742   -4.1355 H   0  0  0  0  0  0  0  0  0  0  0  0
    0.2893   10.4577   -4.9487 H   0  0  0  0  0  0  0  0  0  0  0  0
    1.1171    9.3693   -3.6981 H   0  0  0  0  0  0  0  0  0  0  0  0
   -1.6257   10.6470   -3.5104 H   0  0  0  0  0  0  0  0  0  0  0  0
   -1.2037    8.8939   -3.6327 H   0  0  0  0  0  0  0  0  0  0  0  0
    0.3145    8.5272   -0.2942 H   0  0  0  0  0  0  0  0  0  0  0  0
   -0.1478    7.6872   -1.8132 H   0  0  0  0  0  0  0  0  0  0  0  0
    1.2144    8.8580   -1.8132 H   0  0  0  0  0  0  0  0  0  0  0  0
  1  2  1  0
  2  3  1  0
  3  4  1  0
  4  5  1  0
  5  6  1  0
  6  7  1  0
  7  8  1  0
  7  9  1  0
  2 10  1  0
 10 11  1  0
 11 12  1  0
 12 13  1  0
 13 14  1  6
 13 15  1  0
 15 16  1  0
 16 17  1  0
 17 18  2  0
 18 19  1  0
 19 20  1  0
 20 21  1  0
 21 22  1  0
 22 23  1  0
 22 24  1  0
 24 25  1  0
 24 26  1  0
 19 27  1  0
 27 28  1  1
 27 29  1  0
 29 30  1  0
 30 31  1  0
 31 32  1  6
  7  5  1  0
 31 10  1  0
 31 13  1  0
 27 15  1  0
 24 18  1  0
  1 33  1  0
  1 34  1  0
  1 35  1  0
  2 36  1  1
  3 37  1  0
  3 38  1  0
  4 39  1  0
  4 40  1  0
  5 41  1  1
  8 42  1  0
  8 43  1  0
  8 44  1  0
  9 45  1  0
  9 46  1  0
  9 47  1  0
 10 48  1  6
 11 49  1  0
 11 50  1  0
 12 51  1  0
 12 52  1  0
 14 53  1  0
 14 54  1  0
 14 55  1  0
 15 56  1  1
 16 57  1  0
 16 58  1  0
 17 59  1  0
 19 60  1  6
 20 61  1  0
 20 62  1  0
 21 63  1  0
 21 64  1  0
 22 65  1  6
 23 66  1  0
 25 67  1  0
 25 68  1  0
 25 69  1  0
 26 70  1  0
 26 71  1  0
 26 72  1  0
 28 73  1  0
 28 74  1  0
 28 75  1  0
 29 76  1  0
 29 77  1  0
 30 78  1  0
 30 79  1  0
 32 80  1  0
 32 81  1  0
 32 82  1  0
M  END
>  <meeko>  (14) 
{"is_sidechain": [false], "intermolecular_energy": 2.731, "internal_energy": -0.839}

$$$$
EPH_relaxed_0001_pdb2pqr_Repair_289_r2_0001_out
     RDKit          3D

 82 86  0  0  0  0  0  0  0  0999 V2000
    0.0890    9.3950   -2.4770 C   0  0  0  0  0  0  0  0  0  0  0  0
    1.1910   10.3880   -2.8570 C   0  0  2  0  0  0  0  0  0  0  0  0
    2.5830    9.7260   -2.8870 C   0  0  0  0  0  0  0  0  0  0  0  0
    3.5490   10.3690   -3.8870 C   0  0  0  0  0  0  0  0  0  0  0  0
    4.9210   10.5310   -3.3060 C   0  0  2  0  0  0  0  0  0  0  0  0
    5.4940   11.8340   -3.4800 O   0  0  0  0  0  0  0  0  0  0  0  0
    6.1640   10.7520   -4.1470 C   0  0  0  0  0  0  0  0  0  0  0  0
    6.0940   10.8220   -5.6410 C   0  0  0  0  0  0  0  0  0  0  0  0
    7.4970   10.4130   -3.5570 C   0  0  0  0  0  0  0  0  0  0  0  0
    1.1920   11.5610   -1.8840 C   0  0  1  0  0  0  0  0  0  0  0  0
    2.2390   11.3950   -0.7500 C   0  0  0  0  0  0  0  0  0  0  0  0
    2.7770   12.8130   -0.4270 C   0  0  0  0  0  0  0  0  0  0  0  0
    1.7960   13.7730   -1.1390 C   0  0  1  0  0  0  0  0  0  0  0  0
    0.5720   13.8820   -0.1780 C   0  0  0  0  0  0  0  0  0  0  0  0
    2.3600   15.1820   -1.5160 C   0  0  2  0  0  0  0  0  0  0  0  0
    2.7990   16.0500   -0.3240 C   0  0  0  0  0  0  0  0  0  0  0  0
    1.7400   16.9370    0.2430 C   0  0  0  0  0  0  0  0  0  0  0  0
    0.5750   17.2460   -0.3570 C   0  0  0  0  0  0  0  0  0  0  0  0
    0.2700   16.7630   -1.7810 C   0  0  1  0  0  0  0  0  0  0  0  0
   -0.2930   17.9420   -2.6180 C   0  0  0  0  0  0  0  0  0  0  0  0
   -1.4970   18.6060   -1.9560 C   0  0  0  0  0  0  0  0  0  0  0  0
   -1.1380   19.1250   -0.5660 C   0  0  2  0  0  0  0  0  0  0  0  0
   -0.1970   20.1940   -0.7020 O   0  0  0  0  0  0  0  0  0  0  0  0
   -0.5510   18.0270    0.3650 C   0  0  0  0  0  0  0  0  0  0  0  0
   -1.6650   17.0250    0.7550 C   0  0  0  0  0  0  0  0  0  0  0  0
   -0.1000   18.7110    1.6840 C   0  0  0  0  0  0  0  0  0  0  0  0
    1.4490   15.9970   -2.5210 C   0  0  1  0  0  0  0  0  0  0  0  0
    2.3820   17.0220   -3.2370 C   0  0  0  0  0  0  0  0  0  0  0  0
    0.8410   15.0860   -3.6520 C   0  0  0  0  0  0  0  0  0  0  0  0
    0.4130   13.6640   -3.2420 C   0  0  0  0  0  0  0  0  0  0  0  0
    1.5250   12.9610   -2.4570 C   0  0  2  0  0  0  0  0  0  0  0  0
    2.7630   12.8180   -3.4070 C   0  0  0  0  0  0  0  0  0  0  0  0
    0.0163    9.3295   -1.3814 H   0  0  0  0  0  0  0  0  0  0  0  0
   -0.8717    9.7383   -2.8883 H   0  0  0  0  0  0  0  0  0  0  0  0
    0.3308    8.4039   -2.8883 H   0  0  0  0  0  0  0  0  0  0  0  0
    0.9754   10.7492   -3.8734 H   0  0  0  0  0  0  0  0  0  0  0  0
    3.0241    9.7990   -1.8819 H   0  0  0  0  0  0  0  0  0  0  0  0
    2.4365    8.6836   -3.2062 H   0  0  0  0  0  0  0  0  0  0  0  0
    3.6134    9.7314   -4.7810 H   0  0  0  0  0  0  0  0  0  0  0  0
    3.1644   11.3675   -4.1421 H   0  0  0  0  0  0  0  0  0  0  0  0
    4.6916    9.8159   -2.5023 H   0  0  0  0  0  0  0  0  0  0  0  0
    5.3451   11.5709   -5.9383 H   0  0  0  0  0  0  0  0  0  0  0  0
    7.0778   11.1084   -6.0412 H   0  0  0  0  0  0  0  0  0  0  0  0
    5.8076    9.8382   -6.0412 H   0  0  0  0  0  0  0  0  0  0  0  0
    7.4273   10.4307   -2.4594 H   0  0  0  0  0  0  0  0  0  0  0  0
    7.8003    9.4091   -3.8890 H   0  0  0  0  0  0  0  0  0  0  0  0
    8.2431   11.1500   -3.8890 H   0  0  0  0  0  0  0  0  0  0  0  0
    0.1426   11.5288   -1.5559 H   0  0  0  0  0  0  0  0  0  0  0  0
    1.7659   10.9572    0.1413 H   0  0  0  0  0  0  0  0  0  0  0  0
    3.0540   10.7244   -1.0599 H   0  0  0  0  0  0  0  0  0  0  0  0
    2.7757   12.9910    0.6585 H   0  0  0  0  0  0  0  0  0  0  0  0
    3.8151   12.9522   -0.7630 H   0  0  0  0  0  0  0  0  0  0  0  0
    0.9207   13.8510    0.8648 H   0  0  0  0  0  0  0  0  0  0  0  0
    0.0458   14.8306   -0.3606 H   0  0  0  0  0  0  0  0  0  0  0  0
   -0.1135   13.0413   -0.3606 H   0  0  0  0  0  0  0  0  0  0  0  0
    3.2841   14.9291   -2.0565 H   0  0  0  0  0  0  0  0  0  0  0  0
    3.1447   15.3789    0.4761 H   0  0  0  0  0  0  0  0  0  0  0  0
    3.5835   16.7191   -0.7072 H   0  0  0  0  0  0  0  0  0  0  0  0
    1.9275   17.3749    1.2345 H   0  0  0  0  0  0  0  0  0  0  0  0
   -0.4948   15.9790   -1.6790 H   0  0  0  0  0  0  0  0  0  0  0  0
    0.4993   18.6944   -2.7450 H   0  0  0  0  0  0  0  0  0  0  0  0
   -0.6247   17.5368   -3.5854 H   0  0  0  0  0  0  0  0  0  0  0  0
   -1.8316   19.4483   -2.5794 H   0  0  0  0  0  0  0  0  0  0  0  0
   -2.2986   17.8594   -1.8558 H   0  0  0  0  0  0  0  0  0  0  0  0
   -2.0683   19.4727   -0.0931 H   0  0  0  0  0  0  0  0  0  0  0  0
   -0.6940   20.9960   -0.9370 H   0  0  0  0  0  0  0  0  0  0  0  0
   -1.7346   16.9624    1.8510 H   0  0  0  0  0  0  0  0  0  0  0  0
   -2.6266   17.3681    0.3455 H   0  0  0  0  0  0  0  0  0  0  0  0
   -1.4253   16.0326    0.3455 H   0  0  0  0  0  0  0  0  0  0  0  0
   -0.4784   18.1370    2.5427 H   0  0  0  0  0  0  0  0  0  0  0  0
    0.9988   18.7459    1.7219 H   0  0  0  0  0  0  0  0  0  0  0  0
   -0.5008   19.7347    1.7219 H   0  0  0  0  0  0  0  0  0  0  0  0
    2.9217   17.6149   -2.4839 H   0  0  0  0  0  0  0  0  0  0  0  0
    3.1053   16.4823   -3.8660 H   0  0  0  0  0  0  0  0  0  0  0  0
    1.7769   17.6915   -3.8660 H   0  0  0  0  0  0  0  0  0  0  0  0
   -0.0465   15.5987   -4.0514 H   0  0  0  0  0  0  0  0  0  0  0  0
    1.6559   14.9440   -4.3771 H   0  0  0  0  0  0  0  0  0  0  0  0
   -0.4872   13.7266   -2.6129 H   0  0  0  0  0  0  0  0  0  0  0  0
    0.2066   13.0836   -4.1533 H   0  0  0  0  0  0  0  0  0  0  0  0
    3.6772   12.7124   -2.8045 H   0  0  0  0  0  0  0  0  0  0  0  0
    2.6373   11.9284   -4.0417 H   0  0  0  0  0  0  0  0  0  0  0  0
    2.8435   13.7128   -4.0417 H   0  0  0  0  0  0  0  0  0  0  0  0
  1  2  1  0
  2  3  1  0
  3  4  1  0
  4  5  1  0
  5  6  1  0
  6  7  1  0
  7  8  1  0
  7  9  1  0
  2 10  1  0
 10 11  1  0
 11 12  1  0
 12 13  1  0
 13 14  1  1
 13 15  1  0
 15 16  1  0
 16 17  1  0
 17 18  2  0
 18 19  1  0
 19 20  1  0
 20 21  1  0
 21 22  1  0
 22 23  1  0
 22 24  1  0
 24 25  1  0
 24 26  1  0
 19 27  1  0
 27 28  1  6
 27 29  1  0
 29 30  1  0
 30 31  1  0
 31 32  1  6
  7  5  1  0
 31 10  1  0
 31 13  1  0
 27 15  1  0
 24 18  1  0
  1 33  1  0
  1 34  1  0
  1 35  1  0
  2 36  1  6
  3 37  1  0
  3 38  1  0
  4 39  1  0
  4 40  1  0
  5 41  1  1
  8 42  1  0
  8 43  1  0
  8 44  1  0
  9 45  1  0
  9 46  1  0
  9 47  1  0
 10 48  1  1
 11 49  1  0
 11 50  1  0
 12 51  1  0
 12 52  1  0
 14 53  1  0
 14 54  1  0
 14 55  1  0
 15 56  1  6
 16 57  1  0
 16 58  1  0
 17 59  1  0
 19 60  1  1
 20 61  1  0
 20 62  1  0
 21 63  1  0
 21 64  1  0
 22 65  1  1
 23 66  1  0
 25 67  1  0
 25 68  1  0
 25 69  1  0
 26 70  1  0
 26 71  1  0
 26 72  1  0
 28 73  1  0
 28 74  1  0
 28 75  1  0
 29 76  1  0
 29 77  1  0
 30 78  1  0
 30 79  1  0
 32 80  1  0
 32 81  1  0
 32 82  1  0
M  END
>  <meeko>  (15) 
{"is_sidechain": [false], "intermolecular_energy": 2.731, "internal_energy": -0.839}

$$$$
EPH_relaxed_0001_pdb2pqr_Repair_289_r2_0001_out
     RDKit          3D

 82 86  0  0  0  0  0  0  0  0999 V2000
   -2.4050    7.7830   -0.0460 C   0  0  0  0  0  0  0  0  0  0  0  0
   -3.0620    9.1660   -0.0800 C   0  0  2  0  0  0  0  0  0  0  0  0
   -4.5430    9.0940   -0.5050 C   0  0  0  0  0  0  0  0  0  0  0  0
   -5.0920    7.6680   -0.5840 C   0  0  0  0  0  0  0  0  0  0  0  0
   -5.8570    7.4380   -1.8520 C   0  0  2  0  0  0  0  0  0  0  0  0
   -6.8260    8.4490   -2.1590 O   0  0  0  0  0  0  0  0  0  0  0  0
   -7.3440    7.1360   -1.8900 C   0  0  0  0  0  0  0  0  0  0  0  0
   -8.1530    7.0460   -0.6340 C   0  0  0  0  0  0  0  0  0  0  0  0
   -7.9040    6.4500   -3.0960 C   0  0  0  0  0  0  0  0  0  0  0  0
   -2.2930   10.0840   -1.0230 C   0  0  1  0  0  0  0  0  0  0  0  0
   -2.9350   11.4920   -1.1420 C   0  0  0  0  0  0  0  0  0  0  0  0
   -1.7710   12.5020   -1.3060 C   0  0  0  0  0  0  0  0  0  0  0  0
   -0.5330   11.6250   -1.6090 C   0  0  1  0  0  0  0  0  0  0  0  0
   -0.6340   11.3010   -3.1320 C   0  0  0  0  0  0  0  0  0  0  0  0
    0.8560   12.2400   -1.2400 C   0  0  2  0  0  0  0  0  0  0  0  0
    1.2220   13.5270   -2.0000 C   0  0  0  0  0  0  0  0  0  0  0  0
    1.9660   13.3230   -3.2780 C   0  0  0  0  0  0  0  0  0  0  0  0
    2.5740   12.1830   -3.6560 C   0  0  0  0  0  0  0  0  0  0  0  0
    2.6330   10.9730   -2.7150 C   0  0  1  0  0  0  0  0  0  0  0  0
    4.0750   10.4010   -2.6970 C   0  0  0  0  0  0  0  0  0  0  0  0
    4.5940   10.0790   -4.0950 C   0  0  0  0  0  0  0  0  0  0  0  0
    4.5750   11.3200   -4.9840 C   0  0  2  0  0  0  0  0  0  0  0  0
    5.5280   12.2620   -4.4810 O   0  0  0  0  0  0  0  0  0  0  0  0
    3.1740   11.9890   -5.0700 C   0  0  0  0  0  0  0  0  0  0  0  0
    2.2160   11.0860   -5.8860 C   0  0  0  0  0  0  0  0  0  0  0  0
    3.3240   13.3060   -5.8790 C   0  0  0  0  0  0  0  0  0  0  0  0
    2.0490   11.2010   -1.2550 C   0  0  1  0  0  0  0  0  0  0  0  0
    3.1570   11.7810   -0.3230 C   0  0  0  0  0  0  0  0  0  0  0  0
    1.6380    9.8090   -0.6430 C   0  0  0  0  0  0  0  0  0  0  0  0
    0.2120    9.3120   -0.9440 C   0  0  0  0  0  0  0  0  0  0  0  0
   -0.8220   10.4060   -0.6590 C   0  0  2  0  0  0  0  0  0  0  0  0
   -0.7590   10.7370    0.8710 C   0  0  0  0  0  0  0  0  0  0  0  0
   -2.2576    7.4727    0.9990 H   0  0  0  0  0  0  0  0  0  0  0  0
   -3.0540    7.0561   -0.5563 H   0  0  0  0  0  0  0  0  0  0  0  0
   -1.4315    7.8269   -0.5563 H   0  0  0  0  0  0  0  0  0  0  0  0
   -3.0308    9.5730    0.9415 H   0  0  0  0  0  0  0  0  0  0  0  0
   -5.1418    9.6566    0.2264 H   0  0  0  0  0  0  0  0  0  0  0  0
   -4.6079    9.5198   -1.5172 H   0  0  0  0  0  0  0  0  0  0  0  0
   -4.2516    6.9596   -0.5412 H   0  0  0  0  0  0  0  0  0  0  0  0
   -5.7781    7.5173    0.2625 H   0  0  0  0  0  0  0  0  0  0  0  0
   -4.9908    6.9390   -2.3111 H   0  0  0  0  0  0  0  0  0  0  0  0
   -7.4862    7.1202    0.2377 H   0  0  0  0  0  0  0  0  0  0  0  0
   -8.8830    7.8685   -0.6083 H   0  0  0  0  0  0  0  0  0  0  0  0
   -8.6844    6.0832   -0.6083 H   0  0  0  0  0  0  0  0  0  0  0  0
   -8.5699    5.6343   -2.7777 H   0  0  0  0  0  0  0  0  0  0  0  0
   -8.4727    7.1736   -3.6985 H   0  0  0  0  0  0  0  0  0  0  0  0
   -7.0812    6.0377   -3.6985 H   0  0  0  0  0  0  0  0  0  0  0  0
   -2.3300    9.4784   -1.9406 H   0  0  0  0  0  0  0  0  0  0  0  0
   -3.5983   11.5330   -2.0185 H   0  0  0  0  0  0  0  0  0  0  0  0
   -3.5393   11.7268   -0.2534 H   0  0  0  0  0  0  0  0  0  0  0  0
   -1.9707   13.1928   -2.1384 H   0  0  0  0  0  0  0  0  0  0  0  0
   -1.6311   13.1261   -0.4111 H   0  0  0  0  0  0  0  0  0  0  0  0
   -0.9590   10.2585   -3.2643 H   0  0  0  0  0  0  0  0  0  0  0  0
   -1.3646   11.9754   -3.6027 H   0  0  0  0  0  0  0  0  0  0  0  0
    0.3503   11.4408   -3.6027 H   0  0  0  0  0  0  0  0  0  0  0  0
    0.7096   12.5428   -0.1927 H   0  0  0  0  0  0  0  0  0  0  0  0
    0.2892   14.0620   -2.2314 H   0  0  0  0  0  0  0  0  0  0  0  0
    1.8995   14.0882   -1.3397 H   0  0  0  0  0  0  0  0  0  0  0  0
    2.0222   14.1766   -3.9695 H   0  0  0  0  0  0  0  0  0  0  0  0
    1.9409   10.2278   -3.1342 H   0  0  0  0  0  0  0  0  0  0  0  0
    4.7429   11.1430   -2.2351 H   0  0  0  0  0  0  0  0  0  0  0  0
    4.0548    9.4623   -2.1239 H   0  0  0  0  0  0  0  0  0  0  0  0
    5.6263    9.7067   -4.0187 H   0  0  0  0  0  0  0  0  0  0  0  0
    3.9417    9.3157   -4.5442 H   0  0  0  0  0  0  0  0  0  0  0  0
    4.8337   11.0000   -6.0042 H   0  0  0  0  0  0  0  0  0  0  0  0
    5.8560   12.7790   -5.2360 H   0  0  0  0  0  0  0  0  0  0  0  0
    1.5916   10.4975   -5.1977 H   0  0  0  0  0  0  0  0  0  0  0  0
    1.5720   11.7132   -6.5199 H   0  0  0  0  0  0  0  0  0  0  0  0
    2.8041   10.4060   -6.5199 H   0  0  0  0  0  0  0  0  0  0  0  0
    3.4206   14.1538   -5.1848 H   0  0  0  0  0  0  0  0  0  0  0  0
    4.2212   13.2469   -6.5126 H   0  0  0  0  0  0  0  0  0  0  0  0
    2.4365   13.4502   -6.5126 H   0  0  0  0  0  0  0  0  0  0  0  0
    2.8684   11.6299    0.7277 H   0  0  0  0  0  0  0  0  0  0  0  0
    4.1085   11.2653   -0.5197 H   0  0  0  0  0  0  0  0  0  0  0  0
    3.2755   12.8568   -0.5197 H   0  0  0  0  0  0  0  0  0  0  0  0
    2.3411    9.0557   -1.0278 H   0  0  0  0  0  0  0  0  0  0  0  0
    1.6683    9.9536    0.4470 H   0  0  0  0  0  0  0  0  0  0  0  0
    0.1477    9.0234   -2.0035 H   0  0  0  0  0  0  0  0  0  0  0  0
   -0.0027    8.4494   -0.2961 H   0  0  0  0  0  0  0  0  0  0  0  0
   -0.9336    9.8195    1.4521 H   0  0  0  0  0  0  0  0  0  0  0  0
    0.2327   11.1440    1.1176 H   0  0  0  0  0  0  0  0  0  0  0  0
   -1.5319   11.4799    1.1176 H   0  0  0  0  0  0  0  0  0  0  0  0
  1  2  1  0
  2  3  1  0
  3  4  1  0
  4  5  1  0
  5  6  1  0
  6  7  1  0
  7  8  1  0
  7  9  1  0
  2 10  1  0
 10 11  1  0
 11 12  1  0
 12 13  1  0
 13 14  1  6
 13 15  1  0
 15 16  1  0
 16 17  1  0
 17 18  2  0
 18 19  1  0
 19 20  1  0
 20 21  1  0
 21 22  1  0
 22 23  1  0
 22 24  1  0
 24 25  1  0
 24 26  1  0
 19 27  1  0
 27 28  1  1
 27 29  1  0
 29 30  1  0
 30 31  1  0
 31 32  1  1
  7  5  1  0
 31 10  1  0
 31 13  1  0
 27 15  1  0
 24 18  1  0
  1 33  1  0
  1 34  1  0
  1 35  1  0
  2 36  1  1
  3 37  1  0
  3 38  1  0
  4 39  1  0
  4 40  1  0
  5 41  1  6
  8 42  1  0
  8 43  1  0
  8 44  1  0
  9 45  1  0
  9 46  1  0
  9 47  1  0
 10 48  1  6
 11 49  1  0
 11 50  1  0
 12 51  1  0
 12 52  1  0
 14 53  1  0
 14 54  1  0
 14 55  1  0
 15 56  1  1
 16 57  1  0
 16 58  1  0
 17 59  1  0
 19 60  1  6
 20 61  1  0
 20 62  1  0
 21 63  1  0
 21 64  1  0
 22 65  1  6
 23 66  1  0
 25 67  1  0
 25 68  1  0
 25 69  1  0
 26 70  1  0
 26 71  1  0
 26 72  1  0
 28 73  1  0
 28 74  1  0
 28 75  1  0
 29 76  1  0
 29 77  1  0
 30 78  1  0
 30 79  1  0
 32 80  1  0
 32 81  1  0
 32 82  1  0
M  END
>  <meeko>  (16) 
{"is_sidechain": [false], "intermolecular_energy": 2.731, "internal_energy": -0.839}

$$$$
EPH_relaxed_0001_pdb2pqr_Repair_289_r2_0001_out
     RDKit          3D

 82 86  0  0  0  0  0  0  0  0999 V2000
    2.8990   11.5380   -5.4160 C   0  0  0  0  0  0  0  0  0  0  0  0
    1.9120   11.2030   -4.2940 C   0  0  2  0  0  0  0  0  0  0  0  0
    0.7990   10.2470   -4.7670 C   0  0  0  0  0  0  0  0  0  0  0  0
   -0.2770    9.9840   -3.7100 C   0  0  0  0  0  0  0  0  0  0  0  0
    0.2470    9.1480   -2.5820 C   0  0  2  0  0  0  0  0  0  0  0  0
   -0.6060    8.0620   -2.1960 O   0  0  0  0  0  0  0  0  0  0  0  0
   -0.4030    9.0890   -1.2120 C   0  0  0  0  0  0  0  0  0  0  0  0
   -1.6330    9.8820   -0.8970 C   0  0  0  0  0  0  0  0  0  0  0  0
    0.4260    8.6510   -0.0450 C   0  0  0  0  0  0  0  0  0  0  0  0
    1.2990   12.4830   -3.7410 C   0  0  1  0  0  0  0  0  0  0  0  0
   -0.2420   12.3880   -3.5820 C   0  0  0  0  0  0  0  0  0  0  0  0
   -0.6140   13.2100   -2.3210 C   0  0  0  0  0  0  0  0  0  0  0  0
    0.6640   14.0160   -1.9900 C   0  0  1  0  0  0  0  0  0  0  0  0
    0.6260   15.2420   -2.9550 C   0  0  0  0  0  0  0  0  0  0  0  0
    0.8360   14.4580   -0.5000 C   0  0  2  0  0  0  0  0  0  0  0  0
   -0.2510   15.4110    0.0270 C   0  0  0  0  0  0  0  0  0  0  0  0
    0.0400   16.8660   -0.1450 C   0  0  0  0  0  0  0  0  0  0  0  0
    1.2430   17.3940   -0.4370 C   0  0  0  0  0  0  0  0  0  0  0  0
    2.4910   16.5070   -0.5290 C   0  0  1  0  0  0  0  0  0  0  0  0
    3.6550   17.1690    0.2530 C   0  0  0  0  0  0  0  0  0  0  0  0
    3.9230   18.6020   -0.1980 C   0  0  0  0  0  0  0  0  0  0  0  0
    2.6750   19.4670   -0.0360 C   0  0  2  0  0  0  0  0  0  0  0  0
    2.3860   19.6030    1.3580 O   0  0  0  0  0  0  0  0  0  0  0  0
    1.4330   18.8930   -0.7740 C   0  0  0  0  0  0  0  0  0  0  0  0
    1.6300   19.0260   -2.3050 C   0  0  0  0  0  0  0  0  0  0  0  0
    0.2120   19.7820   -0.4150 C   0  0  0  0  0  0  0  0  0  0  0  0
    2.2860   14.9800   -0.1420 C   0  0  1  0  0  0  0  0  0  0  0  0
    2.4590   14.7930    1.3960 C   0  0  0  0  0  0  0  0  0  0  0  0
    3.4160   14.1210   -0.8230 C   0  0  0  0  0  0  0  0  0  0  0  0
    3.1380   13.6120   -2.2510 C   0  0  0  0  0  0  0  0  0  0  0  0
    1.7620   12.9450   -2.3360 C   0  0  2  0  0  0  0  0  0  0  0  0
    1.7780   11.6940   -1.3930 C   0  0  0  0  0  0  0  0  0  0  0  0
    3.8548   11.8624   -4.9788 H   0  0  0  0  0  0  0  0  0  0  0  0
    3.0642   10.6456   -6.0376 H   0  0  0  0  0  0  0  0  0  0  0  0
    2.4869   12.3466   -6.0376 H   0  0  0  0  0  0  0  0  0  0  0  0
    2.4746   10.6884   -3.5011 H   0  0  0  0  0  0  0  0  0  0  0  0
    0.3162   10.6871   -5.6520 H   0  0  0  0  0  0  0  0  0  0  0  0
    1.2770    9.2809   -4.9864 H   0  0  0  0  0  0  0  0  0  0  0  0
   -0.6250   10.9470   -3.3082 H   0  0  0  0  0  0  0  0  0  0  0  0
   -1.1016    9.4357   -4.1890 H   0  0  0  0  0  0  0  0  0  0  0  0
    1.2848    9.3282   -2.8990 H   0  0  0  0  0  0  0  0  0  0  0  0
   -1.7509    9.9580    0.1940 H   0  0  0  0  0  0  0  0  0  0  0  0
   -1.5393   10.8902   -1.3268 H   0  0  0  0  0  0  0  0  0  0  0  0
   -2.5127    9.3805   -1.3268 H   0  0  0  0  0  0  0  0  0  0  0  0
   -0.0858    8.9214    0.8904 H   0  0  0  0  0  0  0  0  0  0  0  0
    0.5669    7.5608   -0.0839 H   0  0  0  0  0  0  0  0  0  0  0  0
    1.4060    9.1490   -0.0839 H   0  0  0  0  0  0  0  0  0  0  0  0
    1.6436   13.1961   -4.5043 H   0  0  0  0  0  0  0  0  0  0  0  0
   -0.7407   12.8075   -4.4682 H   0  0  0  0  0  0  0  0  0  0  0  0
   -0.5644   11.3413   -3.4800 H   0  0  0  0  0  0  0  0  0  0  0  0
   -1.4556   13.8860   -2.5324 H   0  0  0  0  0  0  0  0  0  0  0  0
   -0.9321   12.5702   -1.4847 H   0  0  0  0  0  0  0  0  0  0  0  0
    0.5972   16.1710   -2.3666 H   0  0  0  0  0  0  0  0  0  0  0  0
    1.5247   15.2374   -3.5893 H   0  0  0  0  0  0  0  0  0  0  0  0
   -0.2707   15.1817   -3.5893 H   0  0  0  0  0  0  0  0  0  0  0  0
    0.6942   13.5129    0.0446 H   0  0  0  0  0  0  0  0  0  0  0  0
   -1.1874   15.1862   -0.5047 H   0  0  0  0  0  0  0  0  0  0  0  0
   -0.3087   15.2377    1.1117 H   0  0  0  0  0  0  0  0  0  0  0  0
   -0.8003   17.5653   -0.0226 H   0  0  0  0  0  0  0  0  0  0  0  0
    2.7450   16.4489   -1.5977 H   0  0  0  0  0  0  0  0  0  0  0  0
    3.4006   17.1779    1.3232 H   0  0  0  0  0  0  0  0  0  0  0  0
    4.5646   16.5820    0.0578 H   0  0  0  0  0  0  0  0  0  0  0  0
    4.7358   19.0250    0.4106 H   0  0  0  0  0  0  0  0  0  0  0  0
    4.2057   18.5887   -1.2610 H   0  0  0  0  0  0  0  0  0  0  0  0
    2.8886   20.4441   -0.4939 H   0  0  0  0  0  0  0  0  0  0  0  0
    2.5880   20.5190    1.6130 H   0  0  0  0  0  0  0  0  0  0  0  0
    2.5260   19.6309   -2.5082 H   0  0  0  0  0  0  0  0  0  0  0  0
    1.7545   18.0264   -2.7469 H   0  0  0  0  0  0  0  0  0  0  0  0
    0.7494   19.5151   -2.7469 H   0  0  0  0  0  0  0  0  0  0  0  0
    0.1175   19.8508    0.6788 H   0  0  0  0  0  0  0  0  0  0  0  0
    0.3553   20.7886   -0.8347 H   0  0  0  0  0  0  0  0  0  0  0  0
   -0.7020   19.3365   -0.8347 H   0  0  0  0  0  0  0  0  0  0  0  0
    1.8049   15.5001    1.9272 H   0  0  0  0  0  0  0  0  0  0  0  0
    2.1878   13.7636    1.6730 H   0  0  0  0  0  0  0  0  0  0  0  0
    3.5064   14.9834    1.6730 H   0  0  0  0  0  0  0  0  0  0  0  0
    4.3256   14.7383   -0.8612 H   0  0  0  0  0  0  0  0  0  0  0  0
    3.4991   13.2143   -0.2058 H   0  0  0  0  0  0  0  0  0  0  0  0
    3.1699   14.4618   -2.9487 H   0  0  0  0  0  0  0  0  0  0  0  0
    3.9052   12.8691   -2.5146 H   0  0  0  0  0  0  0  0  0  0  0  0
    1.7738   12.0254   -0.3441 H   0  0  0  0  0  0  0  0  0  0  0  0
    0.8877   11.0776   -1.5864 H   0  0  0  0  0  0  0  0  0  0  0  0
    2.6838   11.1006   -1.5864 H   0  0  0  0  0  0  0  0  0  0  0  0
  1  2  1  0
  2  3  1  0
  3  4  1  0
  4  5  1  0
  5  6  1  0
  6  7  1  0
  7  8  1  0
  7  9  1  0
  2 10  1  0
 10 11  1  0
 11 12  1  0
 12 13  1  0
 13 14  1  6
 13 15  1  0
 15 16  1  0
 16 17  1  0
 17 18  2  0
 18 19  1  0
 19 20  1  0
 20 21  1  0
 21 22  1  0
 22 23  1  0
 22 24  1  0
 24 25  1  0
 24 26  1  0
 19 27  1  0
 27 28  1  1
 27 29  1  0
 29 30  1  0
 30 31  1  0
 31 32  1  1
  7  5  1  0
 31 10  1  0
 31 13  1  0
 27 15  1  0
 24 18  1  0
  1 33  1  0
  1 34  1  0
  1 35  1  0
  2 36  1  1
  3 37  1  0
  3 38  1  0
  4 39  1  0
  4 40  1  0
  5 41  1  1
  8 42  1  0
  8 43  1  0
  8 44  1  0
  9 45  1  0
  9 46  1  0
  9 47  1  0
 10 48  1  6
 11 49  1  0
 11 50  1  0
 12 51  1  0
 12 52  1  0
 14 53  1  0
 14 54  1  0
 14 55  1  0
 15 56  1  1
 16 57  1  0
 16 58  1  0
 17 59  1  0
 19 60  1  6
 20 61  1  0
 20 62  1  0
 21 63  1  0
 21 64  1  0
 22 65  1  6
 23 66  1  0
 25 67  1  0
 25 68  1  0
 25 69  1  0
 26 70  1  0
 26 71  1  0
 26 72  1  0
 28 73  1  0
 28 74  1  0
 28 75  1  0
 29 76  1  0
 29 77  1  0
 30 78  1  0
 30 79  1  0
 32 80  1  0
 32 81  1  0
 32 82  1  0
M  END
>  <meeko>  (17) 
{"is_sidechain": [false], "intermolecular_energy": 2.731, "internal_energy": -0.839}

$$$$
EPH_relaxed_0001_pdb2pqr_Repair_289_r2_0001_out
     RDKit          3D

 82 86  0  0  0  0  0  0  0  0999 V2000
    3.3260   18.2700   -3.2410 C   0  0  0  0  0  0  0  0  0  0  0  0
    2.5780   18.1010   -1.9160 C   0  0  2  0  0  0  0  0  0  0  0  0
    3.0710   19.0910   -0.8410 C   0  0  0  0  0  0  0  0  0  0  0  0
    2.2940   19.0070    0.4760 C   0  0  0  0  0  0  0  0  0  0  0  0
    2.9090   19.8670    1.5380 C   0  0  2  0  0  0  0  0  0  0  0  0
    4.2880   20.1940    1.3200 O   0  0  0  0  0  0  0  0  0  0  0  0
    4.0030   19.3870    2.4740 C   0  0  0  0  0  0  0  0  0  0  0  0
    4.5450   17.9940    2.3910 C   0  0  0  0  0  0  0  0  0  0  0  0
    4.1980   20.1030    3.7730 C   0  0  0  0  0  0  0  0  0  0  0  0
    2.7260   16.6700   -1.4130 C   0  0  1  0  0  0  0  0  0  0  0  0
    3.3440   16.5970    0.0080 C   0  0  0  0  0  0  0  0  0  0  0  0
    2.6740   15.3980    0.7260 C   0  0  0  0  0  0  0  0  0  0  0  0
    1.9470   14.6260   -0.3990 C   0  0  1  0  0  0  0  0  0  0  0  0
    3.0570   13.7620   -1.0750 C   0  0  0  0  0  0  0  0  0  0  0  0
    0.7240   13.7550    0.0380 C   0  0  2  0  0  0  0  0  0  0  0  0
    1.0550   12.6060    1.0080 C   0  0  0  0  0  0  0  0  0  0  0  0
    1.3940   11.3040    0.3620 C   0  0  0  0  0  0  0  0  0  0  0  0
    1.1580   10.9840   -0.9240 C   0  0  0  0  0  0  0  0  0  0  0  0
    0.4000   11.9450   -1.8490 C   0  0  1  0  0  0  0  0  0  0  0  0
   -0.6800   11.1600   -2.6390 C   0  0  0  0  0  0  0  0  0  0  0  0
   -0.1030    9.9630   -3.3880 C   0  0  0  0  0  0  0  0  0  0  0  0
    0.5920    9.0020   -2.4280 C   0  0  2  0  0  0  0  0  0  0  0  0
   -0.3920    8.4160   -1.5690 O   0  0  0  0  0  0  0  0  0  0  0  0
    1.6950    9.6830   -1.5700 C   0  0  0  0  0  0  0  0  0  0  0  0
    2.9020   10.0490   -2.4690 C   0  0  0  0  0  0  0  0  0  0  0  0
    2.2170    8.6380   -0.5470 C   0  0  0  0  0  0  0  0  0  0  0  0
   -0.1790   13.2560   -1.1610 C   0  0  1  0  0  0  0  0  0  0  0  0
   -1.5900   12.9660   -0.5650 C   0  0  0  0  0  0  0  0  0  0  0  0
   -0.3810   14.3660   -2.2600 C   0  0  0  0  0  0  0  0  0  0  0  0
    0.8280   15.2720   -2.5620 C   0  0  0  0  0  0  0  0  0  0  0  0
    1.4320   15.8290   -1.2700 C   0  0  2  0  0  0  0  0  0  0  0  0
    0.3450   16.7210   -0.5790 C   0  0  0  0  0  0  0  0  0  0  0  0
    4.3807   18.5083   -3.0389 H   0  0  0  0  0  0  0  0  0  0  0  0
    3.2653   17.3355   -3.8181 H   0  0  0  0  0  0  0  0  0  0  0  0
    2.8695   19.0876   -3.8181 H   0  0  0  0  0  0  0  0  0  0  0  0
    1.5167   18.3198   -2.1054 H   0  0  0  0  0  0  0  0  0  0  0  0
    4.1302   18.8791   -0.6334 H   0  0  0  0  0  0  0  0  0  0  0  0
    2.9162   20.1037   -1.2415 H   0  0  0  0  0  0  0  0  0  0  0  0
    1.2602   19.3401    0.3019 H   0  0  0  0  0  0  0  0  0  0  0  0
    2.3187   17.9634    0.8228 H   0  0  0  0  0  0  0  0  0  0  0  0
    1.9471   20.3677    1.7225 H   0  0  0  0  0  0  0  0  0  0  0  0
    4.6986   17.5992    3.4062 H   0  0  0  0  0  0  0  0  0  0  0  0
    3.8303   17.3539    1.8529 H   0  0  0  0  0  0  0  0  0  0  0  0
    5.5043   18.0053    1.8529 H   0  0  0  0  0  0  0  0  0  0  0  0
    4.0092   19.4096    4.6058 H   0  0  0  0  0  0  0  0  0  0  0  0
    5.2307   20.4769    3.8342 H   0  0  0  0  0  0  0  0  0  0  0  0
    3.4975   20.9489    3.8342 H   0  0  0  0  0  0  0  0  0  0  0  0
    3.3565   16.2573   -2.2144 H   0  0  0  0  0  0  0  0  0  0  0  0
    4.4306   16.4392   -0.0591 H   0  0  0  0  0  0  0  0  0  0  0  0
    3.1750   17.5329    0.5607 H   0  0  0  0  0  0  0  0  0  0  0  0
    3.4310   14.7613    1.2073 H   0  0  0  0  0  0  0  0  0  0  0  0
    1.9868   15.7199    1.5223 H   0  0  0  0  0  0  0  0  0  0  0  0
    3.6723   13.2831   -0.2991 H   0  0  0  0  0  0  0  0  0  0  0  0
    2.5889   12.9882   -1.7012 H   0  0  0  0  0  0  0  0  0  0  0  0
    3.6922   14.4057   -1.7012 H   0  0  0  0  0  0  0  0  0  0  0  0
    0.1200   14.4703    0.6155 H   0  0  0  0  0  0  0  0  0  0  0  0
    1.9146   12.9154    1.6207 H   0  0  0  0  0  0  0  0  0  0  0  0
    0.1398   12.4271    1.5914 H   0  0  0  0  0  0  0  0  0  0  0  0
    1.8777   10.5413    0.9900 H   0  0  0  0  0  0  0  0  0  0  0  0
    1.1485   12.3518   -2.5449 H   0  0  0  0  0  0  0  0  0  0  0  0
   -1.4417   10.7996   -1.9319 H   0  0  0  0  0  0  0  0  0  0  0  0
   -1.1110   11.8441   -3.3848 H   0  0  0  0  0  0  0  0  0  0  0  0
   -0.9185    9.4322   -3.9010 H   0  0  0  0  0  0  0  0  0  0  0  0
    0.6365   10.3278   -4.1160 H   0  0  0  0  0  0  0  0  0  0  0  0
    1.0959    8.2362   -3.0359 H   0  0  0  0  0  0  0  0  0  0  0  0
   -0.7730    7.6530   -2.0360 H   0  0  0  0  0  0  0  0  0  0  0  0
    3.7638   10.3103   -1.8373 H   0  0  0  0  0  0  0  0  0  0  0  0
    3.1603    9.1888   -3.1041 H   0  0  0  0  0  0  0  0  0  0  0  0
    2.6391   10.9078   -3.1041 H   0  0  0  0  0  0  0  0  0  0  0  0
    2.0349    9.0025    0.4748 H   0  0  0  0  0  0  0  0  0  0  0  0
    1.6895    7.6843   -0.6955 H   0  0  0  0  0  0  0  0  0  0  0  0
    3.2964    8.4870   -0.6955 H   0  0  0  0  0  0  0  0  0  0  0  0
   -1.5335   12.9776    0.5335 H   0  0  0  0  0  0  0  0  0  0  0  0
   -2.2969   13.7376   -0.9040 H   0  0  0  0  0  0  0  0  0  0  0  0
   -1.9353   11.9781   -0.9040 H   0  0  0  0  0  0  0  0  0  0  0  0
   -0.6603   13.8606   -3.1962 H   0  0  0  0  0  0  0  0  0  0  0  0
   -1.1501   15.0384   -1.8523 H   0  0  0  0  0  0  0  0  0  0  0  0
    1.5926   14.6864   -3.0934 H   0  0  0  0  0  0  0  0  0  0  0  0
    0.4884   16.1147   -3.1821 H   0  0  0  0  0  0  0  0  0  0  0  0
    0.4442   16.6396    0.5135 H   0  0  0  0  0  0  0  0  0  0  0  0
    0.4836   17.7691   -0.8827 H   0  0  0  0  0  0  0  0  0  0  0  0
   -0.6559   16.3805   -0.8827 H   0  0  0  0  0  0  0  0  0  0  0  0
  1  2  1  0
  2  3  1  0
  3  4  1  0
  4  5  1  0
  5  6  1  0
  6  7  1  0
  7  8  1  0
  7  9  1  0
  2 10  1  0
 10 11  1  0
 11 12  1  0
 12 13  1  0
 13 14  1  6
 13 15  1  0
 15 16  1  0
 16 17  1  0
 17 18  2  0
 18 19  1  0
 19 20  1  0
 20 21  1  0
 21 22  1  0
 22 23  1  0
 22 24  1  0
 24 25  1  0
 24 26  1  0
 19 27  1  0
 27 28  1  1
 27 29  1  0
 29 30  1  0
 30 31  1  0
 31 32  1  1
  7  5  1  0
 31 10  1  0
 31 13  1  0
 27 15  1  0
 24 18  1  0
  1 33  1  0
  1 34  1  0
  1 35  1  0
  2 36  1  6
  3 37  1  0
  3 38  1  0
  4 39  1  0
  4 40  1  0
  5 41  1  1
  8 42  1  0
  8 43  1  0
  8 44  1  0
  9 45  1  0
  9 46  1  0
  9 47  1  0
 10 48  1  6
 11 49  1  0
 11 50  1  0
 12 51  1  0
 12 52  1  0
 14 53  1  0
 14 54  1  0
 14 55  1  0
 15 56  1  1
 16 57  1  0
 16 58  1  0
 17 59  1  0
 19 60  1  6
 20 61  1  0
 20 62  1  0
 21 63  1  0
 21 64  1  0
 22 65  1  6
 23 66  1  0
 25 67  1  0
 25 68  1  0
 25 69  1  0
 26 70  1  0
 26 71  1  0
 26 72  1  0
 28 73  1  0
 28 74  1  0
 28 75  1  0
 29 76  1  0
 29 77  1  0
 30 78  1  0
 30 79  1  0
 32 80  1  0
 32 81  1  0
 32 82  1  0
M  END
>  <meeko>  (18) 
{"is_sidechain": [false], "intermolecular_energy": 2.731, "internal_energy": -0.839}

$$$$
EPH_relaxed_0001_pdb2pqr_Repair_289_r2_0001_out
     RDKit          3D

 82 86  0  0  0  0  0  0  0  0999 V2000
   -1.7500    9.4760   -0.0700 C   0  0  0  0  0  0  0  0  0  0  0  0
   -1.4880   10.4970   -1.1800 C   0  0  2  0  0  0  0  0  0  0  0  0
   -0.6420    9.9050   -2.3260 C   0  0  0  0  0  0  0  0  0  0  0  0
    0.7370    9.4110   -1.8820 C   0  0  0  0  0  0  0  0  0  0  0  0
    1.8290    9.9610   -2.7490 C   0  0  2  0  0  0  0  0  0  0  0  0
    3.0150    9.1590   -2.7990 O   0  0  0  0  0  0  0  0  0  0  0  0
    3.1550   10.4610   -2.2080 C   0  0  0  0  0  0  0  0  0  0  0  0
    3.4600   10.4350   -0.7430 C   0  0  0  0  0  0  0  0  0  0  0  0
    3.9520   11.4170   -3.0400 C   0  0  0  0  0  0  0  0  0  0  0  0
   -0.7940   11.7260   -0.6030 C   0  0  1  0  0  0  0  0  0  0  0  0
    0.3910   11.3600    0.3300 C   0  0  0  0  0  0  0  0  0  0  0  0
    1.4710   12.4540    0.1310 C   0  0  0  0  0  0  0  0  0  0  0  0
    0.7480   13.5790   -0.6470 C   0  0  1  0  0  0  0  0  0  0  0  0
   -0.0390   14.3760    0.4400 C   0  0  0  0  0  0  0  0  0  0  0  0
    1.6550   14.5180   -1.5070 C   0  0  2  0  0  0  0  0  0  0  0  0
    2.6880   15.3350   -0.7110 C   0  0  0  0  0  0  0  0  0  0  0  0
    2.2210   16.6760   -0.2490 C   0  0  0  0  0  0  0  0  0  0  0  0
    1.1300   17.3220   -0.7000 C   0  0  0  0  0  0  0  0  0  0  0  0
    0.2910   16.7460   -1.8480 C   0  0  1  0  0  0  0  0  0  0  0  0
   -0.0160   17.8640   -2.8780 C   0  0  0  0  0  0  0  0  0  0  0  0
   -0.6650   19.0870   -2.2380 C   0  0  0  0  0  0  0  0  0  0  0  0
    0.2250   19.6660   -1.1410 C   0  0  2  0  0  0  0  0  0  0  0  0
    1.4120   20.1940   -1.7420 O   0  0  0  0  0  0  0  0  0  0  0  0
    0.6080   18.6280   -0.0510 C   0  0  0  0  0  0  0  0  0  0  0  0
   -0.6390   18.2820    0.8000 C   0  0  0  0  0  0  0  0  0  0  0  0
    1.6200   19.3010    0.9160 C   0  0  0  0  0  0  0  0  0  0  0  0
    0.8610   15.4280   -2.5290 C   0  0  1  0  0  0  0  0  0  0  0  0
    1.8650   15.8060   -3.6610 C   0  0  0  0  0  0  0  0  0  0  0  0
   -0.3220   14.6550   -3.2240 C   0  0  0  0  0  0  0  0  0  0  0  0
   -1.1040   13.6540   -2.3540 C   0  0  0  0  0  0  0  0  0  0  0  0
   -0.1510   12.7160   -1.6060 C   0  0  2  0  0  0  0  0  0  0  0  0
    0.6390   11.8850   -2.6730 C   0  0  0  0  0  0  0  0  0  0  0  0
   -1.6258    9.9599    0.9100 H   0  0  0  0  0  0  0  0  0  0  0  0
   -2.7762    9.0905   -0.1612 H   0  0  0  0  0  0  0  0  0  0  0  0
   -1.0363    8.6440   -0.1612 H   0  0  0  0  0  0  0  0  0  0  0  0
   -2.4625   10.7835   -1.6022 H   0  0  0  0  0  0  0  0  0  0  0  0
   -1.1913    9.0568   -2.7606 H   0  0  0  0  0  0  0  0  0  0  0  0
   -0.4748   10.7138   -3.0526 H   0  0  0  0  0  0  0  0  0  0  0  0
    0.9121    9.7289   -0.8436 H   0  0  0  0  0  0  0  0  0  0  0  0
    0.7518    8.3144   -1.9666 H   0  0  0  0  0  0  0  0  0  0  0  0
    1.0926   10.4127   -3.4299 H   0  0  0  0  0  0  0  0  0  0  0  0
    2.5232   10.5149   -0.1720 H   0  0  0  0  0  0  0  0  0  0  0  0
    3.9642    9.4906   -0.4901 H   0  0  0  0  0  0  0  0  0  0  0  0
    4.1168   11.2804   -0.4901 H   0  0  0  0  0  0  0  0  0  0  0  0
    4.5163   12.0938   -2.3816 H   0  0  0  0  0  0  0  0  0  0  0  0
    4.6525   10.8547   -3.6749 H   0  0  0  0  0  0  0  0  0  0  0  0
    3.2728   12.0049   -3.6749 H   0  0  0  0  0  0  0  0  0  0  0  0
   -1.6492   12.2020   -0.1009 H   0  0  0  0  0  0  0  0  0  0  0  0
    0.0570   11.3436    1.3779 H   0  0  0  0  0  0  0  0  0  0  0  0
    0.7895   10.3632    0.0900 H   0  0  0  0  0  0  0  0  0  0  0  0
    1.8327   12.8238    1.1018 H   0  0  0  0  0  0  0  0  0  0  0  0
    2.3536   12.0762   -0.4059 H   0  0  0  0  0  0  0  0  0  0  0  0
    0.2836   14.0493    1.4396 H   0  0  0  0  0  0  0  0  0  0  0  0
    0.1615   15.4513    0.3232 H   0  0  0  0  0  0  0  0  0  0  0  0
   -1.1167   14.1891    0.3232 H   0  0  0  0  0  0  0  0  0  0  0  0
    2.2375   13.8013   -2.1045 H   0  0  0  0  0  0  0  0  0  0  0  0
    2.9735   14.7503    0.1759 H   0  0  0  0  0  0  0  0  0  0  0  0
    3.5234   15.5246   -1.4010 H   0  0  0  0  0  0  0  0  0  0  0  0
    2.8193   17.1783    0.5254 H   0  0  0  0  0  0  0  0  0  0  0  0
   -0.6456   16.3925   -1.3922 H   0  0  0  0  0  0  0  0  0  0  0  0
    0.9262   18.1733   -3.3539 H   0  0  0  0  0  0  0  0  0  0  0  0
   -0.7256   17.4555   -3.6125 H   0  0  0  0  0  0  0  0  0  0  0  0
   -0.8290   19.8530   -3.0102 H   0  0  0  0  0  0  0  0  0  0  0  0
   -1.6219   18.7821   -1.7892 H   0  0  0  0  0  0  0  0  0  0  0  0
   -0.3483   20.4555   -0.6331 H   0  0  0  0  0  0  0  0  0  0  0  0
    1.8040   20.8240   -1.1140 H   0  0  0  0  0  0  0  0  0  0  0  0
   -0.3851   18.3524    1.8680 H   0  0  0  0  0  0  0  0  0  0  0  0
   -1.4489   18.9894    0.5682 H   0  0  0  0  0  0  0  0  0  0  0  0
   -0.9686   17.2585    0.5682 H   0  0  0  0  0  0  0  0  0  0  0  0
    1.3212   19.1023    1.9558 H   0  0  0  0  0  0  0  0  0  0  0  0
    2.6251   18.8908    0.7385 H   0  0  0  0  0  0  0  0  0  0  0  0
    1.6304   20.3865    0.7385 H   0  0  0  0  0  0  0  0  0  0  0  0
    2.8055   16.1601   -3.2137 H   0  0  0  0  0  0  0  0  0  0  0  0
    2.0653   14.9217   -4.2838 H   0  0  0  0  0  0  0  0  0  0  0  0
    1.4323   16.6028   -4.2838 H   0  0  0  0  0  0  0  0  0  0  0  0
   -1.0374   15.4044   -3.5935 H   0  0  0  0  0  0  0  0  0  0  0  0
    0.1533   14.0456   -4.0068 H   0  0  0  0  0  0  0  0  0  0  0  0
   -1.7098   14.2093   -1.6228 H   0  0  0  0  0  0  0  0  0  0  0  0
   -1.7490   13.0495   -3.0086 H   0  0  0  0  0  0  0  0  0  0  0  0
    1.3107   11.1784   -2.1636 H   0  0  0  0  0  0  0  0  0  0  0  0
   -0.0704   11.3277   -3.3024 H   0  0  0  0  0  0  0  0  0  0  0  0
    1.2315   12.5653   -3.3024 H   0  0  0  0  0  0  0  0  0  0  0  0
  1  2  1  0
  2  3  1  0
  3  4  1  0
  4  5  1  0
  5  6  1  0
  6  7  1  0
  7  8  1  0
  7  9  1  0
  2 10  1  0
 10 11  1  0
 11 12  1  0
 12 13  1  0
 13 14  1  1
 13 15  1  0
 15 16  1  0
 16 17  1  0
 17 18  2  0
 18 19  1  0
 19 20  1  0
 20 21  1  0
 21 22  1  0
 22 23  1  0
 22 24  1  0
 24 25  1  0
 24 26  1  0
 19 27  1  0
 27 28  1  6
 27 29  1  0
 29 30  1  0
 30 31  1  0
 31 32  1  6
  7  5  1  0
 31 10  1  0
 31 13  1  0
 27 15  1  0
 24 18  1  0
  1 33  1  0
  1 34  1  0
  1 35  1  0
  2 36  1  6
  3 37  1  0
  3 38  1  0
  4 39  1  0
  4 40  1  0
  5 41  1  6
  8 42  1  0
  8 43  1  0
  8 44  1  0
  9 45  1  0
  9 46  1  0
  9 47  1  0
 10 48  1  1
 11 49  1  0
 11 50  1  0
 12 51  1  0
 12 52  1  0
 14 53  1  0
 14 54  1  0
 14 55  1  0
 15 56  1  6
 16 57  1  0
 16 58  1  0
 17 59  1  0
 19 60  1  1
 20 61  1  0
 20 62  1  0
 21 63  1  0
 21 64  1  0
 22 65  1  1
 23 66  1  0
 25 67  1  0
 25 68  1  0
 25 69  1  0
 26 70  1  0
 26 71  1  0
 26 72  1  0
 28 73  1  0
 28 74  1  0
 28 75  1  0
 29 76  1  0
 29 77  1  0
 30 78  1  0
 30 79  1  0
 32 80  1  0
 32 81  1  0
 32 82  1  0
M  END
>  <meeko>  (19) 
{"is_sidechain": [false], "intermolecular_energy": 2.731, "internal_energy": -0.839}

$$$$
