EPH_relaxed_0001_pdb2pqr_Repair_191_r2_0001_out
     RDKit          3D

 82 86  0  0  0  0  0  0  0  0999 V2000
   -1.5800    8.4760   -1.8110 C   0  0  0  0  0  0  0  0  0  0  0  0
   -1.8930    9.1020   -0.4490 C   0  0  2  0  0  0  0  0  0  0  0  0
   -3.3320    9.6510   -0.3790 C   0  0  0  0  0  0  0  0  0  0  0  0
   -4.3990    8.5640   -0.2280 C   0  0  0  0  0  0  0  0  0  0  0  0
   -5.0080    8.1980   -1.5480 C   0  0  2  0  0  0  0  0  0  0  0  0
   -6.3290    8.7110   -1.7610 O   0  0  0  0  0  0  0  0  0  0  0  0
   -6.2090    7.2810   -1.6890 C   0  0  0  0  0  0  0  0  0  0  0  0
   -6.8730    6.6740   -0.4930 C   0  0  0  0  0  0  0  0  0  0  0  0
   -6.4320    6.5910   -2.9990 C   0  0  0  0  0  0  0  0  0  0  0  0
   -0.8960   10.2140   -0.1460 C   0  0  1  0  0  0  0  0  0  0  0  0
    0.3630    9.7000    0.6030 C   0  0  0  0  0  0  0  0  0  0  0  0
    1.5610   10.5420    0.0950 C   0  0  0  0  0  0  0  0  0  0  0  0
    0.9130   11.7200   -0.6700 C   0  0  1  0  0  0  0  0  0  0  0  0
    0.5030   12.7400    0.4380 C   0  0  0  0  0  0  0  0  0  0  0  0
    1.7910   12.3910   -1.7770 C   0  0  2  0  0  0  0  0  0  0  0  0
    3.0850   13.0520   -1.2720 C   0  0  0  0  0  0  0  0  0  0  0  0
    2.9600   14.4910   -0.8940 C   0  0  0  0  0  0  0  0  0  0  0  0
    1.9350   15.3000   -1.2210 C   0  0  0  0  0  0  0  0  0  0  0  0
    0.8030   14.8070   -2.1310 C   0  0  1  0  0  0  0  0  0  0  0  0
    0.5080   15.8770   -3.2150 C   0  0  0  0  0  0  0  0  0  0  0  0
    0.2200   17.2510   -2.6180 C   0  0  0  0  0  0  0  0  0  0  0  0
    1.3920   17.7320   -1.7660 C   0  0  2  0  0  0  0  0  0  0  0  0
    2.5160   17.9670   -2.6200 O   0  0  0  0  0  0  0  0  0  0  0  0
    1.7870   16.7300   -0.6460 C   0  0  0  0  0  0  0  0  0  0  0  0
    0.6860   16.7050    0.4420 C   0  0  0  0  0  0  0  0  0  0  0  0
    3.0690   17.2680    0.0460 C   0  0  0  0  0  0  0  0  0  0  0  0
    0.9890   13.3530   -2.7450 C   0  0  1  0  0  0  0  0  0  0  0  0
    1.8080   13.4350   -4.0690 C   0  0  0  0  0  0  0  0  0  0  0  0
   -0.4230   12.7730   -3.1300 C   0  0  0  0  0  0  0  0  0  0  0  0
   -1.1890   12.0170   -2.0270 C   0  0  0  0  0  0  0  0  0  0  0  0
   -0.2910   10.9750   -1.3530 C   0  0  2  0  0  0  0  0  0  0  0  0
    0.1190    9.9220   -2.4380 C   0  0  0  0  0  0  0  0  0  0  0  0
   -1.0925    7.5011   -1.6631 H   0  0  0  0  0  0  0  0  0  0  0  0
   -2.5146    8.3370   -2.3741 H   0  0  0  0  0  0  0  0  0  0  0  0
   -0.9080    9.1403   -2.3741 H   0  0  0  0  0  0  0  0  0  0  0  0
   -1.8054    8.3083    0.3075 H   0  0  0  0  0  0  0  0  0  0  0  0
   -3.4031   10.3296    0.4838 H   0  0  0  0  0  0  0  0  0  0  0  0
   -3.5274   10.1627   -1.3329 H   0  0  0  0  0  0  0  0  0  0  0  0
   -3.9358    7.6683    0.2115 H   0  0  0  0  0  0  0  0  0  0  0  0
   -5.1966    8.9541    0.4213 H   0  0  0  0  0  0  0  0  0  0  0  0
   -4.0198    8.1996   -2.0312 H   0  0  0  0  0  0  0  0  0  0  0  0
   -6.4240    7.0845    0.4234 H   0  0  0  0  0  0  0  0  0  0  0  0
   -7.9475    6.9086   -0.5117 H   0  0  0  0  0  0  0  0  0  0  0  0
   -6.7355    5.5828   -0.5117 H   0  0  0  0  0  0  0  0  0  0  0  0
   -6.7656    5.5586   -2.8175 H   0  0  0  0  0  0  0  0  0  0  0  0
   -7.2017    7.1299   -3.5709 H   0  0  0  0  0  0  0  0  0  0  0  0
   -5.4925    6.5775   -3.5709 H   0  0  0  0  0  0  0  0  0  0  0  0
   -1.5415   10.8863    0.4383 H   0  0  0  0  0  0  0  0  0  0  0  0
    0.2392    9.8336    1.6878 H   0  0  0  0  0  0  0  0  0  0  0  0
    0.5250    8.6286    0.4136 H   0  0  0  0  0  0  0  0  0  0  0  0
    2.1622   10.9109    0.9391 H   0  0  0  0  0  0  0  0  0  0  0  0
    2.2429    9.9570   -0.5396 H   0  0  0  0  0  0  0  0  0  0  0  0
    0.6813   12.2965    1.4287 H   0  0  0  0  0  0  0  0  0  0  0  0
    1.1027   13.6561    0.3331 H   0  0  0  0  0  0  0  0  0  0  0  0
   -0.5639   12.9862    0.3331 H   0  0  0  0  0  0  0  0  0  0  0  0
    2.1126   11.5283   -2.3789 H   0  0  0  0  0  0  0  0  0  0  0  0
    3.4274   12.4964   -0.3865 H   0  0  0  0  0  0  0  0  0  0  0  0
    3.7925   13.0186   -2.1136 H   0  0  0  0  0  0  0  0  0  0  0  0
    3.7748   14.9272   -0.2975 H   0  0  0  0  0  0  0  0  0  0  0  0
   -0.0755   14.6799   -1.4813 H   0  0  0  0  0  0  0  0  0  0  0  0
    1.3818   15.9570   -3.8784 H   0  0  0  0  0  0  0  0  0  0  0  0
   -0.3897   15.5569   -3.7643 H   0  0  0  0  0  0  0  0  0  0  0  0
    0.0490   17.9692   -3.4334 H   0  0  0  0  0  0  0  0  0  0  0  0
   -0.6717   17.1761   -1.9783 H   0  0  0  0  0  0  0  0  0  0  0  0
    1.0758   18.6569   -1.2615 H   0  0  0  0  0  0  0  0  0  0  0  0
    2.1940   18.4360   -3.4080 H   0  0  0  0  0  0  0  0  0  0  0  0
    1.1539   16.7156    1.4375 H   0  0  0  0  0  0  0  0  0  0  0  0
    0.0405   17.5887    0.3308 H   0  0  0  0  0  0  0  0  0  0  0  0
    0.0813   15.7929    0.3308 H   0  0  0  0  0  0  0  0  0  0  0  0
    2.9456   17.2162    1.1378 H   0  0  0  0  0  0  0  0  0  0  0  0
    3.9323   16.6563   -0.2548 H   0  0  0  0  0  0  0  0  0  0  0  0
    3.2372   18.3126   -0.2548 H   0  0  0  0  0  0  0  0  0  0  0  0
    2.8770   13.5420   -3.8328 H   0  0  0  0  0  0  0  0  0  0  0  0
    1.6519   12.5167   -4.6542 H   0  0  0  0  0  0  0  0  0  0  0  0
    1.4730   14.3041   -4.6542 H   0  0  0  0  0  0  0  0  0  0  0  0
   -1.0517   13.6156   -3.4537 H   0  0  0  0  0  0  0  0  0  0  0  0
   -0.2226   12.0212   -3.9076 H   0  0  0  0  0  0  0  0  0  0  0  0
   -1.5352   12.7370   -1.2709 H   0  0  0  0  0  0  0  0  0  0  0  0
   -2.0446   11.4994   -2.4853 H   0  0  0  0  0  0  0  0  0  0  0  0
    0.4756    9.0062   -1.9439 H   0  0  0  0  0  0  0  0  0  0  0  0
   -0.7523    9.6843   -3.0660 H   0  0  0  0  0  0  0  0  0  0  0  0
    0.9216   10.3361   -3.0660 H   0  0  0  0  0  0  0  0  0  0  0  0
  1  2  1  0
  2  3  1  0
  3  4  1  0
  4  5  1  0
  5  6  1  0
  6  7  1  0
  7  8  1  0
  7  9  1  0
  2 10  1  0
 10 11  1  0
 11 12  1  0
 12 13  1  0
 13 14  1  1
 13 15  1  0
 15 16  1  0
 16 17  1  0
 17 18  2  0
 18 19  1  0
 19 20  1  0
 20 21  1  0
 21 22  1  0
 22 23  1  0
 22 24  1  0
 24 25  1  0
 24 26  1  0
 19 27  1  0
 27 28  1  6
 27 29  1  0
 29 30  1  0
 30 31  1  0
 31 32  1  6
  7  5  1  0
 31 10  1  0
 31 13  1  0
 27 15  1  0
 24 18  1  0
  1 33  1  0
  1 34  1  0
  1 35  1  0
  2 36  1  1
  3 37  1  0
  3 38  1  0
  4 39  1  0
  4 40  1  0
  5 41  1  6
  8 42  1  0
  8 43  1  0
  8 44  1  0
  9 45  1  0
  9 46  1  0
  9 47  1  0
 10 48  1  1
 11 49  1  0
 11 50  1  0
 12 51  1  0
 12 52  1  0
 14 53  1  0
 14 54  1  0
 14 55  1  0
 15 56  1  6
 16 57  1  0
 16 58  1  0
 17 59  1  0
 19 60  1  1
 20 61  1  0
 20 62  1  0
 21 63  1  0
 21 64  1  0
 22 65  1  1
 23 66  1  0
 25 67  1  0
 25 68  1  0
 25 69  1  0
 26 70  1  0
 26 71  1  0
 26 72  1  0
 28 73  1  0
 28 74  1  0
 28 75  1  0
 29 76  1  0
 29 77  1  0
 30 78  1  0
 30 79  1  0
 32 80  1  0
 32 81  1  0
 32 82  1  0
M  END
>  <meeko>  (1) 
{"is_sidechain": [false], "intermolecular_energy": 2.731, "internal_energy": -0.839}

$$$$
EPH_relaxed_0001_pdb2pqr_Repair_191_r2_0001_out
     RDKit          3D

 82 86  0  0  0  0  0  0  0  0999 V2000
    4.0260   17.8540    0.2000 C   0  0  0  0  0  0  0  0  0  0  0  0
    2.6120   18.3230    0.5580 C   0  0  2  0  0  0  0  0  0  0  0  0
    2.5500   18.9640    1.9590 C   0  0  0  0  0  0  0  0  0  0  0  0
    3.7660   19.8330    2.2920 C   0  0  0  0  0  0  0  0  0  0  0  0
    4.5330   19.2880    3.4590 C   0  0  2  0  0  0  0  0  0  0  0  0
    5.4920   20.1940    4.0210 O   0  0  0  0  0  0  0  0  0  0  0  0
    6.0230   19.0010    3.4210 C   0  0  0  0  0  0  0  0  0  0  0  0
    6.8330   19.2490    2.1880 C   0  0  0  0  0  0  0  0  0  0  0  0
    6.5900   18.0300    4.4090 C   0  0  0  0  0  0  0  0  0  0  0  0
    1.6410   17.1510    0.4780 C   0  0  1  0  0  0  0  0  0  0  0  0
    0.1800   17.6030    0.2160 C   0  0  0  0  0  0  0  0  0  0  0  0
   -0.4720   16.5160   -0.6770 C   0  0  0  0  0  0  0  0  0  0  0  0
    0.5150   15.3260   -0.6250 C   0  0  1  0  0  0  0  0  0  0  0  0
    0.1920   14.5960    0.7160 C   0  0  0  0  0  0  0  0  0  0  0  0
    0.4760   14.3440   -1.8410 C   0  0  2  0  0  0  0  0  0  0  0  0
   -0.8580   13.6030   -2.0400 C   0  0  0  0  0  0  0  0  0  0  0  0
   -0.9700   12.2920   -1.3360 C   0  0  0  0  0  0  0  0  0  0  0  0
    0.0550   11.5960   -0.8100 C   0  0  0  0  0  0  0  0  0  0  0  0
    1.5020   12.0740   -0.9820 C   0  0  1  0  0  0  0  0  0  0  0  0
    2.3950   10.8790   -1.4090 C   0  0  0  0  0  0  0  0  0  0  0  0
    2.2820    9.6940   -0.4540 C   0  0  0  0  0  0  0  0  0  0  0  0
    0.8370    9.2110   -0.3540 C   0  0  2  0  0  0  0  0  0  0  0  0
    0.4460    8.6630   -1.6160 O   0  0  0  0  0  0  0  0  0  0  0  0
   -0.1570   10.3320    0.0600 C   0  0  0  0  0  0  0  0  0  0  0  0
    0.0790   10.7160    1.5410 C   0  0  0  0  0  0  0  0  0  0  0  0
   -1.5930    9.7470   -0.0140 C   0  0  0  0  0  0  0  0  0  0  0  0
    1.7050   13.3490   -1.9090 C   0  0  1  0  0  0  0  0  0  0  0  0
    1.8390   12.9080   -3.3990 C   0  0  0  0  0  0  0  0  0  0  0  0
    3.0640   14.0490   -1.5300 C   0  0  0  0  0  0  0  0  0  0  0  0
    3.0140   15.0970   -0.4020 C   0  0  0  0  0  0  0  0  0  0  0  0
    1.8820   16.1020   -0.6370 C   0  0  2  0  0  0  0  0  0  0  0  0
    2.1900   16.8680   -1.9680 C   0  0  0  0  0  0  0  0  0  0  0  0
    4.5944   17.6655    1.1227 H   0  0  0  0  0  0  0  0  0  0  0  0
    3.9666   16.9274   -0.3899 H   0  0  0  0  0  0  0  0  0  0  0  0
    4.5321   18.6324   -0.3899 H   0  0  0  0  0  0  0  0  0  0  0  0
    2.3245   19.0951   -0.1708 H   0  0  0  0  0  0  0  0  0  0  0  0
    1.6486   19.5921    2.0141 H   0  0  0  0  0  0  0  0  0  0  0  0
    2.5330   18.1412    2.6888 H   0  0  0  0  0  0  0  0  0  0  0  0
    4.4291   19.8695    1.4151 H   0  0  0  0  0  0  0  0  0  0  0  0
    3.4072   20.8386    2.5565 H   0  0  0  0  0  0  0  0  0  0  0  0
    3.6719   18.6783    3.7702 H   0  0  0  0  0  0  0  0  0  0  0  0
    7.8489   19.5600    2.4731 H   0  0  0  0  0  0  0  0  0  0  0  0
    6.8858   18.3259    1.5921 H   0  0  0  0  0  0  0  0  0  0  0  0
    6.3599   20.0435    1.5921 H   0  0  0  0  0  0  0  0  0  0  0  0
    6.3837   18.3833    5.4301 H   0  0  0  0  0  0  0  0  0  0  0  0
    6.1259   17.0437    4.2615 H   0  0  0  0  0  0  0  0  0  0  0  0
    7.6771   17.9495    4.2615 H   0  0  0  0  0  0  0  0  0  0  0  0
    1.8169   16.6983    1.4650 H   0  0  0  0  0  0  0  0  0  0  0  0
   -0.3660   17.6893    1.1670 H   0  0  0  0  0  0  0  0  0  0  0  0
    0.1534   18.5863   -0.2763 H   0  0  0  0  0  0  0  0  0  0  0  0
   -1.4545   16.2235   -0.2781 H   0  0  0  0  0  0  0  0  0  0  0  0
   -0.6467   16.8690   -1.7041 H   0  0  0  0  0  0  0  0  0  0  0  0
    0.4767   15.2394    1.5615 H   0  0  0  0  0  0  0  0  0  0  0  0
   -0.8855   14.3804    0.7658 H   0  0  0  0  0  0  0  0  0  0  0  0
    0.7572   13.6536    0.7658 H   0  0  0  0  0  0  0  0  0  0  0  0
    0.5686   15.0267   -2.6985 H   0  0  0  0  0  0  0  0  0  0  0  0
   -1.6662   14.2544   -1.6761 H   0  0  0  0  0  0  0  0  0  0  0  0
   -0.9238   13.3779   -3.1147 H   0  0  0  0  0  0  0  0  0  0  0  0
   -1.9758   11.8574   -1.2386 H   0  0  0  0  0  0  0  0  0  0  0  0
    1.8196   12.4435    0.0042 H   0  0  0  0  0  0  0  0  0  0  0  0
    2.0900   10.5523   -2.4141 H   0  0  0  0  0  0  0  0  0  0  0  0
    3.4403   11.2212   -1.3946 H   0  0  0  0  0  0  0  0  0  0  0  0
    2.9118    8.8717   -0.8243 H   0  0  0  0  0  0  0  0  0  0  0  0
    2.6156   10.0139    0.5442 H   0  0  0  0  0  0  0  0  0  0  0  0
    0.7980    8.4496    0.4389 H   0  0  0  0  0  0  0  0  0  0  0  0
    0.7400    9.2790   -2.3080 H   0  0  0  0  0  0  0  0  0  0  0  0
   -0.3846    9.9617    2.1937 H   0  0  0  0  0  0  0  0  0  0  0  0
    1.1598   10.7593    1.7408 H   0  0  0  0  0  0  0  0  0  0  0  0
   -0.3705   11.6999    1.7408 H   0  0  0  0  0  0  0  0  0  0  0  0
   -1.9780    9.5902    1.0044 H   0  0  0  0  0  0  0  0  0  0  0  0
   -2.2481   10.4499   -0.5494 H   0  0  0  0  0  0  0  0  0  0  0  0
   -1.5704    8.7864   -0.5494 H   0  0  0  0  0  0  0  0  0  0  0  0
    2.1585   11.8563   -3.4428 H   0  0  0  0  0  0  0  0  0  0  0  0
    0.8671   13.0172   -3.9025 H   0  0  0  0  0  0  0  0  0  0  0  0
    2.5858   13.5394   -3.9025 H   0  0  0  0  0  0  0  0  0  0  0  0
    3.7691   13.2626   -1.2228 H   0  0  0  0  0  0  0  0  0  0  0  0
    3.3608   14.6081   -2.4297 H   0  0  0  0  0  0  0  0  0  0  0  0
    2.8475   14.5853    0.5574 H   0  0  0  0  0  0  0  0  0  0  0  0
    3.9694   15.6420   -0.3870 H   0  0  0  0  0  0  0  0  0  0  0  0
    2.5909   17.8650   -1.7329 H   0  0  0  0  0  0  0  0  0  0  0  0
    2.9310   16.3034   -2.5529 H   0  0  0  0  0  0  0  0  0  0  0  0
    1.2644   16.9735   -2.5529 H   0  0  0  0  0  0  0  0  0  0  0  0
  1  2  1  0
  2  3  1  0
  3  4  1  0
  4  5  1  0
  5  6  1  0
  6  7  1  0
  7  8  1  0
  7  9  1  0
  2 10  1  0
 10 11  1  0
 11 12  1  0
 12 13  1  0
 13 14  1  1
 13 15  1  0
 15 16  1  0
 16 17  1  0
 17 18  2  0
 18 19  1  0
 19 20  1  0
 20 21  1  0
 21 22  1  0
 22 23  1  0
 22 24  1  0
 24 25  1  0
 24 26  1  0
 19 27  1  0
 27 28  1  6
 27 29  1  0
 29 30  1  0
 30 31  1  0
 31 32  1  6
  7  5  1  0
 31 10  1  0
 31 13  1  0
 27 15  1  0
 24 18  1  0
  1 33  1  0
  1 34  1  0
  1 35  1  0
  2 36  1  6
  3 37  1  0
  3 38  1  0
  4 39  1  0
  4 40  1  0
  5 41  1  1
  8 42  1  0
  8 43  1  0
  8 44  1  0
  9 45  1  0
  9 46  1  0
  9 47  1  0
 10 48  1  1
 11 49  1  0
 11 50  1  0
 12 51  1  0
 12 52  1  0
 14 53  1  0
 14 54  1  0
 14 55  1  0
 15 56  1  6
 16 57  1  0
 16 58  1  0
 17 59  1  0
 19 60  1  1
 20 61  1  0
 20 62  1  0
 21 63  1  0
 21 64  1  0
 22 65  1  1
 23 66  1  0
 25 67  1  0
 25 68  1  0
 25 69  1  0
 26 70  1  0
 26 71  1  0
 26 72  1  0
 28 73  1  0
 28 74  1  0
 28 75  1  0
 29 76  1  0
 29 77  1  0
 30 78  1  0
 30 79  1  0
 32 80  1  0
 32 81  1  0
 32 82  1  0
M  END
>  <meeko>  (2) 
{"is_sidechain": [false], "intermolecular_energy": 2.731, "internal_energy": -0.839}

$$$$
EPH_relaxed_0001_pdb2pqr_Repair_191_r2_0001_out
     RDKit          3D

 82 86  0  0  0  0  0  0  0  0999 V2000
   -3.3980    9.2930    0.3710 C   0  0  0  0  0  0  0  0  0  0  0  0
   -2.5170    9.6310   -0.8340 C   0  0  2  0  0  0  0  0  0  0  0  0
   -1.8840    8.3730   -1.4610 C   0  0  0  0  0  0  0  0  0  0  0  0
   -2.8290    7.6050   -2.3890 C   0  0  0  0  0  0  0  0  0  0  0  0
   -4.2530    7.7000   -1.9310 C   0  0  2  0  0  0  0  0  0  0  0  0
   -4.7980    6.4780   -1.4170 O   0  0  0  0  0  0  0  0  0  0  0  0
   -5.4020    6.9850   -2.6180 C   0  0  0  0  0  0  0  0  0  0  0  0
   -5.1770    6.1240   -3.8220 C   0  0  0  0  0  0  0  0  0  0  0  0
   -6.7900    7.5080   -2.4210 C   0  0  0  0  0  0  0  0  0  0  0  0
   -1.4270   10.6130   -0.4220 C   0  0  1  0  0  0  0  0  0  0  0  0
   -0.2780    9.9330    0.3680 C   0  0  0  0  0  0  0  0  0  0  0  0
    1.0320   10.6610   -0.0310 C   0  0  0  0  0  0  0  0  0  0  0  0
    0.5600   11.9350   -0.7710 C   0  0  1  0  0  0  0  0  0  0  0  0
    0.1960   12.9450    0.3630 C   0  0  0  0  0  0  0  0  0  0  0  0
    1.5680   12.5540   -1.7930 C   0  0  2  0  0  0  0  0  0  0  0  0
    2.8930   13.0470   -1.1860 C   0  0  0  0  0  0  0  0  0  0  0  0
    2.9000   14.4730   -0.7430 C   0  0  0  0  0  0  0  0  0  0  0  0
    1.9880   15.4020   -1.0850 C   0  0  0  0  0  0  0  0  0  0  0  0
    0.8660   15.0770   -2.0800 C   0  0  1  0  0  0  0  0  0  0  0  0
    0.7520   16.2190   -3.1230 C   0  0  0  0  0  0  0  0  0  0  0  0
    0.5770   17.5890   -2.4740 C   0  0  0  0  0  0  0  0  0  0  0  0
    1.7410   17.9010   -1.5370 C   0  0  2  0  0  0  0  0  0  0  0  0
    2.9320   18.0490   -2.3160 O   0  0  0  0  0  0  0  0  0  0  0  0
    1.9590   16.8140   -0.4480 C   0  0  0  0  0  0  0  0  0  0  0  0
    0.7980   16.8620    0.5750 C   0  0  0  0  0  0  0  0  0  0  0  0
    3.2470   17.1780    0.3390 C   0  0  0  0  0  0  0  0  0  0  0  0
    0.9330   13.6390   -2.7540 C   0  0  1  0  0  0  0  0  0  0  0  0
    1.8330   13.6890   -4.0260 C   0  0  0  0  0  0  0  0  0  0  0  0
   -0.5070   13.2340   -3.2440 C   0  0  0  0  0  0  0  0  0  0  0  0
   -1.4130   12.5190   -2.2240 C   0  0  0  0  0  0  0  0  0  0  0  0
   -0.6740   11.3560   -1.5540 C   0  0  2  0  0  0  0  0  0  0  0  0
   -0.3140   10.3140   -2.6670 C   0  0  0  0  0  0  0  0  0  0  0  0
   -2.8467    9.5045    1.2991 H   0  0  0  0  0  0  0  0  0  0  0  0
   -4.3120    9.9043    0.3400 H   0  0  0  0  0  0  0  0  0  0  0  0
   -3.6685    8.2272    0.3400 H   0  0  0  0  0  0  0  0  0  0  0  0
   -3.1620   10.0911   -1.5971 H   0  0  0  0  0  0  0  0  0  0  0  0
   -1.0018    8.6808   -2.0414 H   0  0  0  0  0  0  0  0  0  0  0  0
   -1.6268    7.6962   -0.6329 H   0  0  0  0  0  0  0  0  0  0  0  0
   -2.7518    8.0243   -3.4030 H   0  0  0  0  0  0  0  0  0  0  0  0
   -2.5348    6.5451   -2.3777 H   0  0  0  0  0  0  0  0  0  0  0  0
   -4.1115    8.7482   -1.6290 H   0  0  0  0  0  0  0  0  0  0  0  0
   -4.9110    5.1062   -3.5004 H   0  0  0  0  0  0  0  0  0  0  0  0
   -6.0963    6.0895   -4.4251 H   0  0  0  0  0  0  0  0  0  0  0  0
   -4.3584    6.5437   -4.4251 H   0  0  0  0  0  0  0  0  0  0  0  0
   -7.0024    7.5880   -1.3447 H   0  0  0  0  0  0  0  0  0  0  0  0
   -6.8773    8.5007   -2.8868 H   0  0  0  0  0  0  0  0  0  0  0  0
   -7.5107    6.8198   -2.8868 H   0  0  0  0  0  0  0  0  0  0  0  0
   -2.0311   11.3255    0.1589 H   0  0  0  0  0  0  0  0  0  0  0  0
   -0.4519   10.0319    1.4497 H   0  0  0  0  0  0  0  0  0  0  0  0
   -0.2199    8.8596    0.1347 H   0  0  0  0  0  0  0  0  0  0  0  0
    1.6172   10.9250    0.8622 H   0  0  0  0  0  0  0  0  0  0  0  0
    1.6847   10.0333   -0.6554 H   0  0  0  0  0  0  0  0  0  0  0  0
    0.3659   12.4736    1.3423 H   0  0  0  0  0  0  0  0  0  0  0  0
    0.8278   13.8409    0.2728 H   0  0  0  0  0  0  0  0  0  0  0  0
   -0.8621   13.2319    0.2728 H   0  0  0  0  0  0  0  0  0  0  0  0
    1.8304   11.6882   -2.4188 H   0  0  0  0  0  0  0  0  0  0  0  0
    3.1214   12.4186   -0.3125 H   0  0  0  0  0  0  0  0  0  0  0  0
    3.6414   12.9741   -1.9889 H   0  0  0  0  0  0  0  0  0  0  0  0
    3.7194   14.7910   -0.0816 H   0  0  0  0  0  0  0  0  0  0  0  0
   -0.0591   15.0195   -1.4876 H   0  0  0  0  0  0  0  0  0  0  0  0
    1.6673   16.2321   -3.7330 H   0  0  0  0  0  0  0  0  0  0  0  0
   -0.1402   16.0235   -3.7359 H   0  0  0  0  0  0  0  0  0  0  0  0
    0.5320   18.3569   -3.2604 H   0  0  0  0  0  0  0  0  0  0  0  0
   -0.3539   17.5838   -1.8881 H   0  0  0  0  0  0  0  0  0  0  0  0
    1.4965   18.8321   -1.0048 H   0  0  0  0  0  0  0  0  0  0  0  0
    3.5680   18.5580   -1.7860 H   0  0  0  0  0  0  0  0  0  0  0  0
    1.2077   16.8451    1.5957 H   0  0  0  0  0  0  0  0  0  0  0  0
    0.2178   17.7849    0.4281 H   0  0  0  0  0  0  0  0  0  0  0  0
    0.1436   15.9901    0.4281 H   0  0  0  0  0  0  0  0  0  0  0  0
    3.0453   17.1210    1.4188 H   0  0  0  0  0  0  0  0  0  0  0  0
    4.0483   16.4711    0.0779 H   0  0  0  0  0  0  0  0  0  0  0  0
    3.5598   18.1997    0.0779 H   0  0  0  0  0  0  0  0  0  0  0  0
    2.8895   13.7477   -3.7255 H   0  0  0  0  0  0  0  0  0  0  0  0
    1.6721   12.7805   -4.6250 H   0  0  0  0  0  0  0  0  0  0  0  0
    1.5724   14.5741   -4.6250 H   0  0  0  0  0  0  0  0  0  0  0  0
   -1.0220   14.1535   -3.5591 H   0  0  0  0  0  0  0  0  0  0  0  0
   -0.3418   12.4996   -4.0461 H   0  0  0  0  0  0  0  0  0  0  0  0
   -1.7248   13.2390   -1.4530 H   0  0  0  0  0  0  0  0  0  0  0  0
   -2.2896   12.1184   -2.7541 H   0  0  0  0  0  0  0  0  0  0  0  0
    0.0109    9.3737   -2.1977 H   0  0  0  0  0  0  0  0  0  0  0  0
   -1.1990   10.1250   -3.2924 H   0  0  0  0  0  0  0  0  0  0  0  0
    0.4989   10.7116   -3.2924 H   0  0  0  0  0  0  0  0  0  0  0  0
  1  2  1  0
  2  3  1  0
  3  4  1  0
  4  5  1  0
  5  6  1  0
  6  7  1  0
  7  8  1  0
  7  9  1  0
  2 10  1  0
 10 11  1  0
 11 12  1  0
 12 13  1  0
 13 14  1  1
 13 15  1  0
 15 16  1  0
 16 17  1  0
 17 18  2  0
 18 19  1  0
 19 20  1  0
 20 21  1  0
 21 22  1  0
 22 23  1  0
 22 24  1  0
 24 25  1  0
 24 26  1  0
 19 27  1  0
 27 28  1  6
 27 29  1  0
 29 30  1  0
 30 31  1  0
 31 32  1  6
  7  5  1  0
 31 10  1  0
 31 13  1  0
 27 15  1  0
 24 18  1  0
  1 33  1  0
  1 34  1  0
  1 35  1  0
  2 36  1  6
  3 37  1  0
  3 38  1  0
  4 39  1  0
  4 40  1  0
  5 41  1  1
  8 42  1  0
  8 43  1  0
  8 44  1  0
  9 45  1  0
  9 46  1  0
  9 47  1  0
 10 48  1  1
 11 49  1  0
 11 50  1  0
 12 51  1  0
 12 52  1  0
 14 53  1  0
 14 54  1  0
 14 55  1  0
 15 56  1  6
 16 57  1  0
 16 58  1  0
 17 59  1  0
 19 60  1  1
 20 61  1  0
 20 62  1  0
 21 63  1  0
 21 64  1  0
 22 65  1  1
 23 66  1  0
 25 67  1  0
 25 68  1  0
 25 69  1  0
 26 70  1  0
 26 71  1  0
 26 72  1  0
 28 73  1  0
 28 74  1  0
 28 75  1  0
 29 76  1  0
 29 77  1  0
 30 78  1  0
 30 79  1  0
 32 80  1  0
 32 81  1  0
 32 82  1  0
M  END
>  <meeko>  (3) 
{"is_sidechain": [false], "intermolecular_energy": 2.731, "internal_energy": -0.839}

$$$$
EPH_relaxed_0001_pdb2pqr_Repair_191_r2_0001_out
     RDKit          3D

 82 86  0  0  0  0  0  0  0  0999 V2000
    0.2100   19.5630    0.7050 C   0  0  0  0  0  0  0  0  0  0  0  0
    1.4010   18.7400    1.2030 C   0  0  2  0  0  0  0  0  0  0  0  0
    2.6740   18.9980    0.3720 C   0  0  0  0  0  0  0  0  0  0  0  0
    3.9610   18.5250    1.0530 C   0  0  0  0  0  0  0  0  0  0  0  0
    3.9760   18.8730    2.5110 C   0  0  2  0  0  0  0  0  0  0  0  0
    4.4460   20.1940    2.8070 O   0  0  0  0  0  0  0  0  0  0  0  0
    5.2490   19.1100    3.3010 C   0  0  0  0  0  0  0  0  0  0  0  0
    6.5970   19.0090    2.6580 C   0  0  0  0  0  0  0  0  0  0  0  0
    5.2070   18.9580    4.7900 C   0  0  0  0  0  0  0  0  0  0  0  0
    1.0550   17.2560    1.1790 C   0  0  1  0  0  0  0  0  0  0  0  0
   -0.2800   16.9420    1.9060 C   0  0  0  0  0  0  0  0  0  0  0  0
   -0.9490   15.7780    1.1300 C   0  0  0  0  0  0  0  0  0  0  0  0
    0.1620   15.2430    0.1960 C   0  0  1  0  0  0  0  0  0  0  0  0
    1.0300   14.3110    1.0980 C   0  0  0  0  0  0  0  0  0  0  0  0
   -0.3180   14.5100   -1.0990 C   0  0  2  0  0  0  0  0  0  0  0  0
   -1.1350   13.2290   -0.8580 C   0  0  0  0  0  0  0  0  0  0  0  0
   -0.3370   11.9700   -0.7790 C   0  0  0  0  0  0  0  0  0  0  0  0
    0.9420   11.8280   -1.1770 C   0  0  0  0  0  0  0  0  0  0  0  0
    1.6860   12.9810   -1.8620 C   0  0  1  0  0  0  0  0  0  0  0  0
    2.4280   12.4460   -3.1150 C   0  0  0  0  0  0  0  0  0  0  0  0
    3.3440   11.2690   -2.7940 C   0  0  0  0  0  0  0  0  0  0  0  0
    2.5570   10.1200   -2.1680 C   0  0  2  0  0  0  0  0  0  0  0  0
    1.6590    9.5890   -3.1470 O   0  0  0  0  0  0  0  0  0  0  0  0
    1.7600   10.5420   -0.9020 C   0  0  0  0  0  0  0  0  0  0  0  0
    2.7430   10.8310    0.2590 C   0  0  0  0  0  0  0  0  0  0  0  0
    0.9010    9.3290   -0.4530 C   0  0  0  0  0  0  0  0  0  0  0  0
    0.8210   14.2770   -2.1720 C   0  0  1  0  0  0  0  0  0  0  0  0
    0.1090   14.1250   -3.5510 C   0  0  0  0  0  0  0  0  0  0  0  0
    1.7820   15.5170   -2.3030 C   0  0  0  0  0  0  0  0  0  0  0  0
    2.1240   16.2720   -1.0040 C   0  0  0  0  0  0  0  0  0  0  0  0
    0.8560   16.5950   -0.2080 C   0  0  2  0  0  0  0  0  0  0  0  0
   -0.0270   17.5500   -1.0810 C   0  0  0  0  0  0  0  0  0  0  0  0
   -0.3528   19.9519    1.5664 H   0  0  0  0  0  0  0  0  0  0  0  0
    0.5741   20.4031    0.0954 H   0  0  0  0  0  0  0  0  0  0  0  0
   -0.4471   18.9253    0.0954 H   0  0  0  0  0  0  0  0  0  0  0  0
    1.6115   19.0555    2.2355 H   0  0  0  0  0  0  0  0  0  0  0  0
    2.5749   18.4699   -0.5878 H   0  0  0  0  0  0  0  0  0  0  0  0
    2.7594   20.0873    0.2454 H   0  0  0  0  0  0  0  0  0  0  0  0
    4.0405   17.4331    0.9461 H   0  0  0  0  0  0  0  0  0  0  0  0
    4.8104   19.0308    0.5706 H   0  0  0  0  0  0  0  0  0  0  0  0
    3.1007   18.2331    2.6965 H   0  0  0  0  0  0  0  0  0  0  0  0
    7.3714   18.9510    3.4370 H   0  0  0  0  0  0  0  0  0  0  0  0
    6.6380   18.1053    2.0322 H   0  0  0  0  0  0  0  0  0  0  0  0
    6.7722   19.8965    2.0322 H   0  0  0  0  0  0  0  0  0  0  0  0
    5.4714   19.9149    5.2638 H   0  0  0  0  0  0  0  0  0  0  0  0
    4.1937   18.6630    5.1000 H   0  0  0  0  0  0  0  0  0  0  0  0
    5.9251   18.1845    5.1000 H   0  0  0  0  0  0  0  0  0  0  0  0
    1.9542   16.8488    1.6645 H   0  0  0  0  0  0  0  0  0  0  0  0
   -0.0835   16.6407    2.9455 H   0  0  0  0  0  0  0  0  0  0  0  0
   -0.9333   17.8266    1.9316 H   0  0  0  0  0  0  0  0  0  0  0  0
   -1.2859   14.9925    1.8225 H   0  0  0  0  0  0  0  0  0  0  0  0
   -1.8401   16.1048    0.5740 H   0  0  0  0  0  0  0  0  0  0  0  0
    0.8254   14.5307    2.1562 H   0  0  0  0  0  0  0  0  0  0  0  0
    0.7809   13.2606    0.8868 H   0  0  0  0  0  0  0  0  0  0  0  0
    2.0954   14.4848    0.8868 H   0  0  0  0  0  0  0  0  0  0  0  0
   -1.0214   15.2352   -1.5341 H   0  0  0  0  0  0  0  0  0  0  0  0
   -1.6796   13.3465    0.0905 H   0  0  0  0  0  0  0  0  0  0  0  0
   -1.7929   13.1183   -1.7326 H   0  0  0  0  0  0  0  0  0  0  0  0
   -0.8355   11.0833   -0.3604 H   0  0  0  0  0  0  0  0  0  0  0  0
    2.4149   13.3524   -1.1266 H   0  0  0  0  0  0  0  0  0  0  0  0
    1.6817   12.1206   -3.8546 H   0  0  0  0  0  0  0  0  0  0  0  0
    3.0555   13.2610   -3.5049 H   0  0  0  0  0  0  0  0  0  0  0  0
    3.8172   10.9173   -3.7227 H   0  0  0  0  0  0  0  0  0  0  0  0
    4.1074   11.6038   -2.0763 H   0  0  0  0  0  0  0  0  0  0  0  0
    3.2837    9.3610   -1.8427 H   0  0  0  0  0  0  0  0  0  0  0  0
    1.1280   10.3270   -3.4910 H   0  0  0  0  0  0  0  0  0  0  0  0
    2.2298   10.6801    1.2201 H   0  0  0  0  0  0  0  0  0  0  0  0
    3.6021   10.1474    0.1908 H   0  0  0  0  0  0  0  0  0  0  0  0
    3.0954   11.8708    0.1908 H   0  0  0  0  0  0  0  0  0  0  0  0
    0.8715    9.2873    0.6458 H   0  0  0  0  0  0  0  0  0  0  0  0
   -0.1215    9.4392   -0.8434 H   0  0  0  0  0  0  0  0  0  0  0  0
    1.3445    8.4011   -0.8434 H   0  0  0  0  0  0  0  0  0  0  0  0
   -0.9553   13.8978   -3.3911 H   0  0  0  0  0  0  0  0  0  0  0  0
    0.2025   15.0633   -4.1174 H   0  0  0  0  0  0  0  0  0  0  0  0
    0.5776   13.3066   -4.1174 H   0  0  0  0  0  0  0  0  0  0  0  0
    2.7269   15.1610   -2.7394 H   0  0  0  0  0  0  0  0  0  0  0  0
    1.2328   16.2424   -2.9211 H   0  0  0  0  0  0  0  0  0  0  0  0
    2.7862   15.6462   -0.3877 H   0  0  0  0  0  0  0  0  0  0  0  0
    2.6227   17.2163   -1.2679 H   0  0  0  0  0  0  0  0  0  0  0  0
   -0.6261   18.1979   -0.4242 H   0  0  0  0  0  0  0  0  0  0  0  0
    0.6220   18.1711   -1.7159 H   0  0  0  0  0  0  0  0  0  0  0  0
   -0.6970   16.9516   -1.7159 H   0  0  0  0  0  0  0  0  0  0  0  0
  1  2  1  0
  2  3  1  0
  3  4  1  0
  4  5  1  0
  5  6  1  0
  6  7  1  0
  7  8  1  0
  7  9  1  0
  2 10  1  0
 10 11  1  0
 11 12  1  0
 12 13  1  0
 13 14  1  1
 13 15  1  0
 15 16  1  0
 16 17  1  0
 17 18  2  0
 18 19  1  0
 19 20  1  0
 20 21  1  0
 21 22  1  0
 22 23  1  0
 22 24  1  0
 24 25  1  0
 24 26  1  0
 19 27  1  0
 27 28  1  6
 27 29  1  0
 29 30  1  0
 30 31  1  0
 31 32  1  6
  7  5  1  0
 31 10  1  0
 31 13  1  0
 27 15  1  0
 24 18  1  0
  1 33  1  0
  1 34  1  0
  1 35  1  0
  2 36  1  1
  3 37  1  0
  3 38  1  0
  4 39  1  0
  4 40  1  0
  5 41  1  1
  8 42  1  0
  8 43  1  0
  8 44  1  0
  9 45  1  0
  9 46  1  0
  9 47  1  0
 10 48  1  1
 11 49  1  0
 11 50  1  0
 12 51  1  0
 12 52  1  0
 14 53  1  0
 14 54  1  0
 14 55  1  0
 15 56  1  6
 16 57  1  0
 16 58  1  0
 17 59  1  0
 19 60  1  1
 20 61  1  0
 20 62  1  0
 21 63  1  0
 21 64  1  0
 22 65  1  1
 23 66  1  0
 25 67  1  0
 25 68  1  0
 25 69  1  0
 26 70  1  0
 26 71  1  0
 26 72  1  0
 28 73  1  0
 28 74  1  0
 28 75  1  0
 29 76  1  0
 29 77  1  0
 30 78  1  0
 30 79  1  0
 32 80  1  0
 32 81  1  0
 32 82  1  0
M  END
>  <meeko>  (4) 
{"is_sidechain": [false], "intermolecular_energy": 2.731, "internal_energy": -0.839}

$$$$
EPH_relaxed_0001_pdb2pqr_Repair_191_r2_0001_out
     RDKit          3D

 82 86  0  0  0  0  0  0  0  0999 V2000
   -0.2810   10.9390   -3.7050 C   0  0  0  0  0  0  0  0  0  0  0  0
    0.9830   10.6010   -2.9090 C   0  0  2  0  0  0  0  0  0  0  0  0
    0.8830    9.2280   -2.2160 C   0  0  0  0  0  0  0  0  0  0  0  0
    0.3760    9.3030   -0.7730 C   0  0  0  0  0  0  0  0  0  0  0  0
   -1.0130    8.7550   -0.6440 C   0  0  2  0  0  0  0  0  0  0  0  0
   -1.8180    8.8820   -1.8240 O   0  0  0  0  0  0  0  0  0  0  0  0
   -2.2590    9.6190   -0.6720 C   0  0  0  0  0  0  0  0  0  0  0  0
   -2.1750   11.1050   -0.8310 C   0  0  0  0  0  0  0  0  0  0  0  0
   -3.5150    9.0840   -0.0580 C   0  0  0  0  0  0  0  0  0  0  0  0
    1.2530   11.6880   -1.8760 C   0  0  1  0  0  0  0  0  0  0  0  0
    2.5450   11.4270   -1.0570 C   0  0  0  0  0  0  0  0  0  0  0  0
    3.1780   12.8130   -0.7660 C   0  0  0  0  0  0  0  0  0  0  0  0
    2.0720   13.8310   -1.1300 C   0  0  1  0  0  0  0  0  0  0  0  0
    1.1280   13.8590    0.1120 C   0  0  0  0  0  0  0  0  0  0  0  0
    2.5550   15.2650   -1.5220 C   0  0  2  0  0  0  0  0  0  0  0  0
    3.2950   16.0300   -0.4110 C   0  0  0  0  0  0  0  0  0  0  0  0
    2.4300   16.8670    0.4730 C   0  0  0  0  0  0  0  0  0  0  0  0
    1.1600   17.2270    0.2100 C   0  0  0  0  0  0  0  0  0  0  0  0
    0.4990   16.8650   -1.1260 C   0  0  1  0  0  0  0  0  0  0  0  0
   -0.2290   18.1100   -1.6980 C   0  0  0  0  0  0  0  0  0  0  0  0
   -1.2150   18.7180   -0.7050 C   0  0  0  0  0  0  0  0  0  0  0  0
   -0.5090   19.1180    0.5890 C   0  0  2  0  0  0  0  0  0  0  0  0
    0.3910   20.1940    0.3080 O   0  0  0  0  0  0  0  0  0  0  0  0
    0.2670   17.9460    1.2510 C   0  0  0  0  0  0  0  0  0  0  0  0
   -0.7370   16.9160    1.8250 C   0  0  0  0  0  0  0  0  0  0  0  0
    1.0470   18.5160    2.4660 C   0  0  0  0  0  0  0  0  0  0  0  0
    1.4400   16.1630   -2.1970 C   0  0  1  0  0  0  0  0  0  0  0  0
    2.1870   17.2420   -3.0380 C   0  0  0  0  0  0  0  0  0  0  0  0
    0.5490   15.3490   -3.2090 C   0  0  0  0  0  0  0  0  0  0  0  0
    0.2050   13.8980   -2.8220 C   0  0  0  0  0  0  0  0  0  0  0  0
    1.4620   13.1310   -2.4000 C   0  0  2  0  0  0  0  0  0  0  0  0
    2.4210   13.0670   -3.6370 C   0  0  0  0  0  0  0  0  0  0  0  0
   -1.1043   11.1592   -3.0096 H   0  0  0  0  0  0  0  0  0  0  0  0
   -0.0912   11.8180   -4.3386 H   0  0  0  0  0  0  0  0  0  0  0  0
   -0.5553   10.0826   -4.3386 H   0  0  0  0  0  0  0  0  0  0  0  0
    1.8192   10.5503   -3.6219 H   0  0  0  0  0  0  0  0  0  0  0  0
    0.1927    8.5964   -2.7944 H   0  0  0  0  0  0  0  0  0  0  0  0
    1.9005    8.8117   -2.1783 H   0  0  0  0  0  0  0  0  0  0  0  0
    1.0502    8.7208   -0.1276 H   0  0  0  0  0  0  0  0  0  0  0  0
    0.3567   10.3606   -0.4710 H   0  0  0  0  0  0  0  0  0  0  0  0
   -0.6681    7.9808    0.0572 H   0  0  0  0  0  0  0  0  0  0  0  0
   -2.1482   11.5790    0.1613 H   0  0  0  0  0  0  0  0  0  0  0  0
   -1.2608   11.3633   -1.3856 H   0  0  0  0  0  0  0  0  0  0  0  0
   -3.0542   11.4647   -1.3856 H   0  0  0  0  0  0  0  0  0  0  0  0
   -3.4313    9.1197    1.0382 H   0  0  0  0  0  0  0  0  0  0  0  0
   -4.3703    9.6959   -0.3805 H   0  0  0  0  0  0  0  0  0  0  0  0
   -3.6664    8.0433   -0.3805 H   0  0  0  0  0  0  0  0  0  0  0  0
    0.3186   11.6292   -1.2985 H   0  0  0  0  0  0  0  0  0  0  0  0
    2.2991   10.9173   -0.1137 H   0  0  0  0  0  0  0  0  0  0  0  0
    3.2422   10.7834   -1.6135 H   0  0  0  0  0  0  0  0  0  0  0  0
    3.4515   12.8998    0.2959 H   0  0  0  0  0  0  0  0  0  0  0  0
    4.1022   12.9782   -1.3392 H   0  0  0  0  0  0  0  0  0  0  0  0
    1.7313   13.8411    1.0316 H   0  0  0  0  0  0  0  0  0  0  0  0
    0.5202   14.7756    0.0900 H   0  0  0  0  0  0  0  0  0  0  0  0
    0.4669   12.9801    0.0900 H   0  0  0  0  0  0  0  0  0  0  0  0
    3.3088   15.0567   -2.2956 H   0  0  0  0  0  0  0  0  0  0  0  0
    3.8146   15.2941    0.2202 H   0  0  0  0  0  0  0  0  0  0  0  0
    3.9731   16.7288   -0.9228 H   0  0  0  0  0  0  0  0  0  0  0  0
    2.8677   17.2190    1.4188 H   0  0  0  0  0  0  0  0  0  0  0  0
   -0.2332   16.0761   -0.8991 H   0  0  0  0  0  0  0  0  0  0  0  0
    0.5228   18.8695   -1.9585 H   0  0  0  0  0  0  0  0  0  0  0  0
   -0.8002   17.7868   -2.5808 H   0  0  0  0  0  0  0  0  0  0  0  0
   -1.6751   19.6102   -1.1548 H   0  0  0  0  0  0  0  0  0  0  0  0
   -1.9833   17.9672   -0.4684 H   0  0  0  0  0  0  0  0  0  0  0  0
   -1.2837   19.4251    1.3070 H   0  0  0  0  0  0  0  0  0  0  0  0
    1.2030   20.0400    0.8210 H   0  0  0  0  0  0  0  0  0  0  0  0
   -0.7064   16.9474    2.9241 H   0  0  0  0  0  0  0  0  0  0  0  0
   -1.7520   17.1614    1.4793 H   0  0  0  0  0  0  0  0  0  0  0  0
   -0.4657   15.9076    1.4793 H   0  0  0  0  0  0  0  0  0  0  0  0
    0.5758   18.1717    3.3984 H   0  0  0  0  0  0  0  0  0  0  0  0
    2.0889   18.1650    2.4303 H   0  0  0  0  0  0  0  0  0  0  0  0
    1.0290   19.6153    2.4303 H   0  0  0  0  0  0  0  0  0  0  0  0
    2.6812   17.9559   -2.3627 H   0  0  0  0  0  0  0  0  0  0  0  0
    2.9419   16.7546   -3.6724 H   0  0  0  0  0  0  0  0  0  0  0  0
    1.4650   17.7770   -3.6724 H   0  0  0  0  0  0  0  0  0  0  0  0
   -0.3986   15.8942   -3.3308 H   0  0  0  0  0  0  0  0  0  0  0  0
    1.1550   15.2665   -4.1233 H   0  0  0  0  0  0  0  0  0  0  0  0
   -0.5084   13.9083   -1.9848 H   0  0  0  0  0  0  0  0  0  0  0  0
   -0.2352   13.3965   -3.6965 H   0  0  0  0  0  0  0  0  0  0  0  0
    3.4626   12.9975   -3.2902 H   0  0  0  0  0  0  0  0  0  0  0  0
    2.1771   12.1831   -4.2447 H   0  0  0  0  0  0  0  0  0  0  0  0
    2.2967   13.9754   -4.2447 H   0  0  0  0  0  0  0  0  0  0  0  0
  1  2  1  0
  2  3  1  0
  3  4  1  0
  4  5  1  0
  5  6  1  0
  6  7  1  0
  7  8  1  0
  7  9  1  0
  2 10  1  0
 10 11  1  0
 11 12  1  0
 12 13  1  0
 13 14  1  1
 13 15  1  0
 15 16  1  0
 16 17  1  0
 17 18  2  0
 18 19  1  0
 19 20  1  0
 20 21  1  0
 21 22  1  0
 22 23  1  0
 22 24  1  0
 24 25  1  0
 24 26  1  0
 19 27  1  0
 27 28  1  6
 27 29  1  0
 29 30  1  0
 30 31  1  0
 31 32  1  6
  7  5  1  0
 31 10  1  0
 31 13  1  0
 27 15  1  0
 24 18  1  0
  1 33  1  0
  1 34  1  0
  1 35  1  0
  2 36  1  6
  3 37  1  0
  3 38  1  0
  4 39  1  0
  4 40  1  0
  5 41  1  1
  8 42  1  0
  8 43  1  0
  8 44  1  0
  9 45  1  0
  9 46  1  0
  9 47  1  0
 10 48  1  1
 11 49  1  0
 11 50  1  0
 12 51  1  0
 12 52  1  0
 14 53  1  0
 14 54  1  0
 14 55  1  0
 15 56  1  6
 16 57  1  0
 16 58  1  0
 17 59  1  0
 19 60  1  1
 20 61  1  0
 20 62  1  0
 21 63  1  0
 21 64  1  0
 22 65  1  1
 23 66  1  0
 25 67  1  0
 25 68  1  0
 25 69  1  0
 26 70  1  0
 26 71  1  0
 26 72  1  0
 28 73  1  0
 28 74  1  0
 28 75  1  0
 29 76  1  0
 29 77  1  0
 30 78  1  0
 30 79  1  0
 32 80  1  0
 32 81  1  0
 32 82  1  0
M  END
>  <meeko>  (5) 
{"is_sidechain": [false], "intermolecular_energy": 2.731, "internal_energy": -0.839}

$$$$
EPH_relaxed_0001_pdb2pqr_Repair_191_r2_0001_out
     RDKit          3D

 82 86  0  0  0  0  0  0  0  0999 V2000
    3.5030   10.0860   -0.2220 C   0  0  0  0  0  0  0  0  0  0  0  0
    2.2350   10.6120   -0.9010 C   0  0  2  0  0  0  0  0  0  0  0  0
    1.9590    9.9030   -2.2420 C   0  0  0  0  0  0  0  0  0  0  0  0
    0.7360    8.9820   -2.2110 C   0  0  0  0  0  0  0  0  0  0  0  0
   -0.1730    9.3060   -1.0640 C   0  0  2  0  0  0  0  0  0  0  0  0
   -0.6050    8.1700   -0.3040 O   0  0  0  0  0  0  0  0  0  0  0  0
   -1.6310    8.8890   -1.0080 C   0  0  0  0  0  0  0  0  0  0  0  0
   -2.2640    8.1130   -2.1200 C   0  0  0  0  0  0  0  0  0  0  0  0
   -2.5580    9.6490   -0.1110 C   0  0  0  0  0  0  0  0  0  0  0  0
    2.3490   12.1160   -1.1200 C   0  0  1  0  0  0  0  0  0  0  0  0
    2.3190   12.5050   -2.6230 C   0  0  0  0  0  0  0  0  0  0  0  0
    1.5760   13.8620   -2.7190 C   0  0  0  0  0  0  0  0  0  0  0  0
    1.4970   14.3680   -1.2590 C   0  0  1  0  0  0  0  0  0  0  0  0
    2.8930   15.0080   -0.9810 C   0  0  0  0  0  0  0  0  0  0  0  0
    0.3320   15.3580   -0.9330 C   0  0  2  0  0  0  0  0  0  0  0  0
    0.3760   16.6920   -1.6980 C   0  0  0  0  0  0  0  0  0  0  0  0
    1.1250   17.7910   -1.0200 C   0  0  0  0  0  0  0  0  0  0  0  0
    1.4950   17.8040    0.2740 C   0  0  0  0  0  0  0  0  0  0  0  0
    1.0730   16.6760    1.2250 C   0  0  1  0  0  0  0  0  0  0  0  0
    0.5390   17.2860    2.5470 C   0  0  0  0  0  0  0  0  0  0  0  0
    1.5310   18.2500    3.1900 C   0  0  0  0  0  0  0  0  0  0  0  0
    1.8810   19.3890    2.2350 C   0  0  2  0  0  0  0  0  0  0  0  0
    0.7160   20.1940    2.0320 O   0  0  0  0  0  0  0  0  0  0  0  0
    2.4220   18.8950    0.8640 C   0  0  0  0  0  0  0  0  0  0  0  0
    3.8330   18.2860    1.0500 C   0  0  0  0  0  0  0  0  0  0  0  0
    2.6010   20.1350   -0.0530 C   0  0  0  0  0  0  0  0  0  0  0  0
    0.0900   15.5860    0.6140 C   0  0  1  0  0  0  0  0  0  0  0  0
   -1.3880   16.0570    0.7690 C   0  0  0  0  0  0  0  0  0  0  0  0
    0.2210   14.2540    1.4440 C   0  0  0  0  0  0  0  0  0  0  0  0
    1.3120   13.2630    0.9980 C   0  0  0  0  0  0  0  0  0  0  0  0
    1.2400   13.0090   -0.5110 C   0  0  2  0  0  0  0  0  0  0  0  0
   -0.1460   12.3440   -0.8180 C   0  0  0  0  0  0  0  0  0  0  0  0
    3.3819   10.1362    0.8702 H   0  0  0  0  0  0  0  0  0  0  0  0
    3.6748    9.0424   -0.5242 H   0  0  0  0  0  0  0  0  0  0  0  0
    4.3631   10.7016   -0.5242 H   0  0  0  0  0  0  0  0  0  0  0  0
    1.3875   10.3971   -0.2334 H   0  0  0  0  0  0  0  0  0  0  0  0
    1.7966   10.6701   -3.0135 H   0  0  0  0  0  0  0  0  0  0  0  0
    2.8327    9.2701   -2.4569 H   0  0  0  0  0  0  0  0  0  0  0  0
    0.1781    9.0984   -3.1519 H   0  0  0  0  0  0  0  0  0  0  0  0
    1.0888    7.9475   -2.0873 H   0  0  0  0  0  0  0  0  0  0  0  0
    0.3228   10.2764   -0.9142 H   0  0  0  0  0  0  0  0  0  0  0  0
   -2.9062    7.3257   -1.6984 H   0  0  0  0  0  0  0  0  0  0  0  0
   -2.8715    8.7892   -2.7395 H   0  0  0  0  0  0  0  0  0  0  0  0
   -1.4796    7.6537   -2.7395 H   0  0  0  0  0  0  0  0  0  0  0  0
   -2.3045    9.4412    0.9390 H   0  0  0  0  0  0  0  0  0  0  0  0
   -2.4558   10.7267   -0.3065 H   0  0  0  0  0  0  0  0  0  0  0  0
   -3.5947    9.3375   -0.3065 H   0  0  0  0  0  0  0  0  0  0  0  0
    3.3058   12.3045   -0.6111 H   0  0  0  0  0  0  0  0  0  0  0  0
    3.3442   12.6064   -3.0086 H   0  0  0  0  0  0  0  0  0  0  0  0
    1.8112   11.7336   -3.2206 H   0  0  0  0  0  0  0  0  0  0  0  0
    2.1391   14.5696   -3.3453 H   0  0  0  0  0  0  0  0  0  0  0  0
    0.5823   13.7618   -3.1800 H   0  0  0  0  0  0  0  0  0  0  0  0
    3.0530   15.0814    0.1048 H   0  0  0  0  0  0  0  0  0  0  0  0
    3.6792   14.3804   -1.4259 H   0  0  0  0  0  0  0  0  0  0  0  0
    2.9306   16.0133   -1.4259 H   0  0  0  0  0  0  0  0  0  0  0  0
   -0.5481   14.8224   -1.3183 H   0  0  0  0  0  0  0  0  0  0  0  0
    0.8501   16.5090   -2.6736 H   0  0  0  0  0  0  0  0  0  0  0  0
   -0.6666   17.0348   -1.7724 H   0  0  0  0  0  0  0  0  0  0  0  0
    1.3978   18.6648   -1.6300 H   0  0  0  0  0  0  0  0  0  0  0  0
    1.9823   16.0904    1.4254 H   0  0  0  0  0  0  0  0  0  0  0  0
   -0.3929   17.8299    2.3331 H   0  0  0  0  0  0  0  0  0  0  0  0
    0.3726   16.4588    3.2527 H   0  0  0  0  0  0  0  0  0  0  0  0
    1.0845   18.6701    4.1033 H   0  0  0  0  0  0  0  0  0  0  0  0
    2.4515   17.6981    3.4311 H   0  0  0  0  0  0  0  0  0  0  0  0
    2.6904   19.9720    2.6987 H   0  0  0  0  0  0  0  0  0  0  0  0
    1.0070   21.1190    1.9550 H   0  0  0  0  0  0  0  0  0  0  0  0
    4.0528   18.1911    2.1236 H   0  0  0  0  0  0  0  0  0  0  0  0
    3.8685   17.2924    0.5793 H   0  0  0  0  0  0  0  0  0  0  0  0
    4.5803   18.9417    0.5793 H   0  0  0  0  0  0  0  0  0  0  0  0
    2.7308   21.0341    0.5673 H   0  0  0  0  0  0  0  0  0  0  0  0
    3.4884   19.9964   -0.6880 H   0  0  0  0  0  0  0  0  0  0  0  0
    1.7106   20.2530   -0.6880 H   0  0  0  0  0  0  0  0  0  0  0  0
   -1.6374   16.1365    1.8374 H   0  0  0  0  0  0  0  0  0  0  0  0
   -1.5120   17.0392    0.2895 H   0  0  0  0  0  0  0  0  0  0  0  0
   -2.0575   15.3277    0.2895 H   0  0  0  0  0  0  0  0  0  0  0  0
    0.4298   14.5314    2.4878 H   0  0  0  0  0  0  0  0  0  0  0  0
   -0.7303   13.7237    1.2897 H   0  0  0  0  0  0  0  0  0  0  0  0
    2.2994   13.6797    1.2458 H   0  0  0  0  0  0  0  0  0  0  0  0
    1.1536   12.3087    1.5217 H   0  0  0  0  0  0  0  0  0  0  0  0
   -0.6533   12.1006    0.1272 H   0  0  0  0  0  0  0  0  0  0  0  0
   -0.7672   13.0421   -1.3983 H   0  0  0  0  0  0  0  0  0  0  0  0
    0.0099   11.4226   -1.3983 H   0  0  0  0  0  0  0  0  0  0  0  0
  1  2  1  0
  2  3  1  0
  3  4  1  0
  4  5  1  0
  5  6  1  0
  6  7  1  0
  7  8  1  0
  7  9  1  0
  2 10  1  0
 10 11  1  0
 11 12  1  0
 12 13  1  0
 13 14  1  1
 13 15  1  0
 15 16  1  0
 16 17  1  0
 17 18  2  0
 18 19  1  0
 19 20  1  0
 20 21  1  0
 21 22  1  0
 22 23  1  0
 22 24  1  0
 24 25  1  0
 24 26  1  0
 19 27  1  0
 27 28  1  6
 27 29  1  0
 29 30  1  0
 30 31  1  0
 31 32  1  1
  7  5  1  0
 31 10  1  0
 31 13  1  0
 27 15  1  0
 24 18  1  0
  1 33  1  0
  1 34  1  0
  1 35  1  0
  2 36  1  1
  3 37  1  0
  3 38  1  0
  4 39  1  0
  4 40  1  0
  5 41  1  1
  8 42  1  0
  8 43  1  0
  8 44  1  0
  9 45  1  0
  9 46  1  0
  9 47  1  0
 10 48  1  1
 11 49  1  0
 11 50  1  0
 12 51  1  0
 12 52  1  0
 14 53  1  0
 14 54  1  0
 14 55  1  0
 15 56  1  6
 16 57  1  0
 16 58  1  0
 17 59  1  0
 19 60  1  1
 20 61  1  0
 20 62  1  0
 21 63  1  0
 21 64  1  0
 22 65  1  1
 23 66  1  0
 25 67  1  0
 25 68  1  0
 25 69  1  0
 26 70  1  0
 26 71  1  0
 26 72  1  0
 28 73  1  0
 28 74  1  0
 28 75  1  0
 29 76  1  0
 29 77  1  0
 30 78  1  0
 30 79  1  0
 32 80  1  0
 32 81  1  0
 32 82  1  0
M  END
>  <meeko>  (6) 
{"is_sidechain": [false], "intermolecular_energy": 2.731, "internal_energy": -0.839}

$$$$
EPH_relaxed_0001_pdb2pqr_Repair_191_r2_0001_out
     RDKit          3D

 82 86  0  0  0  0  0  0  0  0999 V2000
    0.4070    9.0780   -2.4140 C   0  0  0  0  0  0  0  0  0  0  0  0
    1.1590   10.2640   -3.0250 C   0  0  2  0  0  0  0  0  0  0  0  0
    2.6570   10.2520   -2.6610 C   0  0  0  0  0  0  0  0  0  0  0  0
    3.5680   10.7490   -3.7870 C   0  0  0  0  0  0  0  0  0  0  0  0
    4.9800   10.9320   -3.3170 C   0  0  2  0  0  0  0  0  0  0  0  0
    5.6330   12.1030   -3.8260 O   0  0  0  0  0  0  0  0  0  0  0  0
    6.1850   10.8410   -4.2350 C   0  0  0  0  0  0  0  0  0  0  0  0
    6.0330   10.5540   -5.6960 C   0  0  0  0  0  0  0  0  0  0  0  0
    7.5220   10.5440   -3.6310 C   0  0  0  0  0  0  0  0  0  0  0  0
    0.5230   11.5720   -2.5720 C   0  0  1  0  0  0  0  0  0  0  0  0
   -0.8550   11.3620   -1.8900 C   0  0  0  0  0  0  0  0  0  0  0  0
   -0.9700   12.4300   -0.7720 C   0  0  0  0  0  0  0  0  0  0  0  0
    0.1830   13.4210   -1.0610 C   0  0  1  0  0  0  0  0  0  0  0  0
   -0.3640   14.3560   -2.1850 C   0  0  0  0  0  0  0  0  0  0  0  0
    0.7140   14.2380    0.1620 C   0  0  2  0  0  0  0  0  0  0  0  0
   -0.3150   15.1760    0.8170 C   0  0  0  0  0  0  0  0  0  0  0  0
   -0.3550   16.5630    0.2650 C   0  0  0  0  0  0  0  0  0  0  0  0
    0.5890   17.1220   -0.5140 C   0  0  0  0  0  0  0  0  0  0  0  0
    1.8890   16.3740   -0.8370 C   0  0  1  0  0  0  0  0  0  0  0  0
    3.0970   17.3270   -0.6430 C   0  0  0  0  0  0  0  0  0  0  0  0
    2.9560   18.6210   -1.4390 C   0  0  0  0  0  0  0  0  0  0  0  0
    1.6810   19.3650   -1.0480 C   0  0  2  0  0  0  0  0  0  0  0  0
    1.8070   19.8150    0.3040 O   0  0  0  0  0  0  0  0  0  0  0  0
    0.3980   18.5000   -1.1940 C   0  0  0  0  0  0  0  0  0  0  0  0
    0.0960   18.2650   -2.6940 C   0  0  0  0  0  0  0  0  0  0  0  0
   -0.7960   19.3200   -0.6350 C   0  0  0  0  0  0  0  0  0  0  0  0
    2.0870   14.9790   -0.1010 C   0  0  1  0  0  0  0  0  0  0  0  0
    2.7470   15.2030    1.2940 C   0  0  0  0  0  0  0  0  0  0  0  0
    3.0930   14.0980   -0.9310 C   0  0  0  0  0  0  0  0  0  0  0  0
    2.4930   13.2220   -2.0470 C   0  0  0  0  0  0  0  0  0  0  0  0
    1.2980   12.4160   -1.5290 C   0  0  2  0  0  0  0  0  0  0  0  0
    1.8210   11.4500   -0.4120 C   0  0  0  0  0  0  0  0  0  0  0  0
    0.4485    9.1435   -1.3167 H   0  0  0  0  0  0  0  0  0  0  0  0
   -0.6423    9.1003   -2.7432 H   0  0  0  0  0  0  0  0  0  0  0  0
    0.8747    8.1384   -2.7432 H   0  0  0  0  0  0  0  0  0  0  0  0
    1.0849   10.1743   -4.1188 H   0  0  0  0  0  0  0  0  0  0  0  0
    2.8062   10.8976   -1.7830 H   0  0  0  0  0  0  0  0  0  0  0  0
    2.9315    9.2052   -2.4637 H   0  0  0  0  0  0  0  0  0  0  0  0
    3.5570   10.0140   -4.6053 H   0  0  0  0  0  0  0  0  0  0  0  0
    3.1908   11.7243   -4.1285 H   0  0  0  0  0  0  0  0  0  0  0  0
    4.7475   10.4525   -2.3547 H   0  0  0  0  0  0  0  0  0  0  0  0
    5.5219    9.5890   -5.8289 H   0  0  0  0  0  0  0  0  0  0  0  0
    5.4390   11.3514   -6.1665 H   0  0  0  0  0  0  0  0  0  0  0  0
    7.0264   10.5107   -6.1665 H   0  0  0  0  0  0  0  0  0  0  0  0
    7.4410   10.5620   -2.5341 H   0  0  0  0  0  0  0  0  0  0  0  0
    7.8590    9.5491   -3.9575 H   0  0  0  0  0  0  0  0  0  0  0  0
    8.2485   11.3026   -3.9575 H   0  0  0  0  0  0  0  0  0  0  0  0
    0.4879   12.1026   -3.5349 H   0  0  0  0  0  0  0  0  0  0  0  0
   -1.6642   11.4932   -2.6234 H   0  0  0  0  0  0  0  0  0  0  0  0
   -0.9391   10.3466   -1.4754 H   0  0  0  0  0  0  0  0  0  0  0  0
   -1.9430   12.9408   -0.8212 H   0  0  0  0  0  0  0  0  0  0  0  0
   -0.9010   11.9907    0.2341 H   0  0  0  0  0  0  0  0  0  0  0  0
   -0.8696   15.2202   -1.7293 H   0  0  0  0  0  0  0  0  0  0  0  0
    0.4713   14.7069   -2.8089 H   0  0  0  0  0  0  0  0  0  0  0  0
   -1.0792   13.7998   -2.8089 H   0  0  0  0  0  0  0  0  0  0  0  0
    0.9133   13.4502    0.9033 H   0  0  0  0  0  0  0  0  0  0  0  0
   -1.3122   14.7299    0.6881 H   0  0  0  0  0  0  0  0  0  0  0  0
   -0.0099   15.2756    1.8691 H   0  0  0  0  0  0  0  0  0  0  0  0
   -1.2303   17.1799    0.5165 H   0  0  0  0  0  0  0  0  0  0  0  0
    1.8147   16.0770   -1.8935 H   0  0  0  0  0  0  0  0  0  0  0  0
    3.1805   17.5774    0.4249 H   0  0  0  0  0  0  0  0  0  0  0  0
    3.9945   16.8066   -1.0086 H   0  0  0  0  0  0  0  0  0  0  0  0
    3.8249   19.2646   -1.2370 H   0  0  0  0  0  0  0  0  0  0  0  0
    2.9032   18.3715   -2.5090 H   0  0  0  0  0  0  0  0  0  0  0  0
    1.5676   20.2126   -1.7399 H   0  0  0  0  0  0  0  0  0  0  0  0
    0.9330   20.1320    0.5910 H   0  0  0  0  0  0  0  0  0  0  0  0
   -0.7686   17.5922   -2.7929 H   0  0  0  0  0  0  0  0  0  0  0  0
   -0.1306   19.2267   -3.1775 H   0  0  0  0  0  0  0  0  0  0  0  0
    0.9726   17.8091   -3.1775 H   0  0  0  0  0  0  0  0  0  0  0  0
   -0.7702   19.3023    0.4646 H   0  0  0  0  0  0  0  0  0  0  0  0
   -0.7234   20.3597   -0.9868 H   0  0  0  0  0  0  0  0  0  0  0  0
   -1.7403   18.8790   -0.9868 H   0  0  0  0  0  0  0  0  0  0  0  0
    2.0237   14.9575    2.0855 H   0  0  0  0  0  0  0  0  0  0  0  0
    3.6301   14.5543    1.3902 H   0  0  0  0  0  0  0  0  0  0  0  0
    3.0528   16.2552    1.3902 H   0  0  0  0  0  0  0  0  0  0  0  0
    3.8230   14.7763   -1.3968 H   0  0  0  0  0  0  0  0  0  0  0  0
    3.5192   13.3885   -0.2064 H   0  0  0  0  0  0  0  0  0  0  0  0
    2.1602   13.8687   -2.8723 H   0  0  0  0  0  0  0  0  0  0  0  0
    3.2651   12.5200   -2.3950 H   0  0  0  0  0  0  0  0  0  0  0  0
    1.5914   11.8742    0.5766 H   0  0  0  0  0  0  0  0  0  0  0  0
    1.3296   10.4712   -0.5142 H   0  0  0  0  0  0  0  0  0  0  0  0
    2.9092   11.3264   -0.5142 H   0  0  0  0  0  0  0  0  0  0  0  0
  1  2  1  0
  2  3  1  0
  3  4  1  0
  4  5  1  0
  5  6  1  0
  6  7  1  0
  7  8  1  0
  7  9  1  0
  2 10  1  0
 10 11  1  0
 11 12  1  0
 12 13  1  0
 13 14  1  6
 13 15  1  0
 15 16  1  0
 16 17  1  0
 17 18  2  0
 18 19  1  0
 19 20  1  0
 20 21  1  0
 21 22  1  0
 22 23  1  0
 22 24  1  0
 24 25  1  0
 24 26  1  0
 19 27  1  0
 27 28  1  1
 27 29  1  0
 29 30  1  0
 30 31  1  0
 31 32  1  1
  7  5  1  0
 31 10  1  0
 31 13  1  0
 27 15  1  0
 24 18  1  0
  1 33  1  0
  1 34  1  0
  1 35  1  0
  2 36  1  6
  3 37  1  0
  3 38  1  0
  4 39  1  0
  4 40  1  0
  5 41  1  1
  8 42  1  0
  8 43  1  0
  8 44  1  0
  9 45  1  0
  9 46  1  0
  9 47  1  0
 10 48  1  6
 11 49  1  0
 11 50  1  0
 12 51  1  0
 12 52  1  0
 14 53  1  0
 14 54  1  0
 14 55  1  0
 15 56  1  1
 16 57  1  0
 16 58  1  0
 17 59  1  0
 19 60  1  6
 20 61  1  0
 20 62  1  0
 21 63  1  0
 21 64  1  0
 22 65  1  6
 23 66  1  0
 25 67  1  0
 25 68  1  0
 25 69  1  0
 26 70  1  0
 26 71  1  0
 26 72  1  0
 28 73  1  0
 28 74  1  0
 28 75  1  0
 29 76  1  0
 29 77  1  0
 30 78  1  0
 30 79  1  0
 32 80  1  0
 32 81  1  0
 32 82  1  0
M  END
>  <meeko>  (7) 
{"is_sidechain": [false], "intermolecular_energy": 2.731, "internal_energy": -0.839}

$$$$
EPH_relaxed_0001_pdb2pqr_Repair_191_r2_0001_out
     RDKit          3D

 82 86  0  0  0  0  0  0  0  0999 V2000
    2.2150   18.3740   -2.5200 C   0  0  0  0  0  0  0  0  0  0  0  0
    1.1800   17.7750   -1.5630 C   0  0  2  0  0  0  0  0  0  0  0  0
    1.7170   17.6640   -0.1220 C   0  0  0  0  0  0  0  0  0  0  0  0
    1.1850   18.7500    0.8180 C   0  0  0  0  0  0  0  0  0  0  0  0
    0.1610   19.6130    0.1450 C   0  0  2  0  0  0  0  0  0  0  0  0
   -0.8060   20.1940    1.0290 O   0  0  0  0  0  0  0  0  0  0  0  0
   -1.3120   19.2560    0.0650 C   0  0  0  0  0  0  0  0  0  0  0  0
   -1.8420   17.9920    0.6670 C   0  0  0  0  0  0  0  0  0  0  0  0
   -2.1430   19.8840   -1.0090 C   0  0  0  0  0  0  0  0  0  0  0  0
    0.7430   16.4030   -2.0630 C   0  0  1  0  0  0  0  0  0  0  0  0
    0.9120   16.2450   -3.5980 C   0  0  0  0  0  0  0  0  0  0  0  0
    1.3120   14.7690   -3.8540 C   0  0  0  0  0  0  0  0  0  0  0  0
    1.0390   14.0520   -2.5110 C   0  0  1  0  0  0  0  0  0  0  0  0
   -0.4960   13.7680   -2.5130 C   0  0  0  0  0  0  0  0  0  0  0  0
    1.8650   12.7530   -2.2400 C   0  0  2  0  0  0  0  0  0  0  0  0
    1.6210   11.6050   -3.2340 C   0  0  0  0  0  0  0  0  0  0  0  0
    0.5330   10.6540   -2.8570 C   0  0  0  0  0  0  0  0  0  0  0  0
   -0.0250   10.5500   -1.6360 C   0  0  0  0  0  0  0  0  0  0  0  0
    0.5030   11.3750   -0.4550 C   0  0  1  0  0  0  0  0  0  0  0  0
    0.6620   10.4580    0.7860 C   0  0  0  0  0  0  0  0  0  0  0  0
   -0.6210    9.7060    1.1270 C   0  0  0  0  0  0  0  0  0  0  0  0
   -1.0820    8.8530   -0.0520 C   0  0  2  0  0  0  0  0  0  0  0  0
   -0.1280    7.8080   -0.2650 O   0  0  0  0  0  0  0  0  0  0  0  0
   -1.2670    9.6670   -1.3630 C   0  0  0  0  0  0  0  0  0  0  0  0
   -2.5020   10.5930   -1.2300 C   0  0  0  0  0  0  0  0  0  0  0  0
   -1.5960    8.6670   -2.5040 C   0  0  0  0  0  0  0  0  0  0  0  0
    1.8020   12.2440   -0.7430 C   0  0  1  0  0  0  0  0  0  0  0  0
    3.0810   11.3830   -0.5100 C   0  0  0  0  0  0  0  0  0  0  0  0
    1.8680   13.4270    0.2940 C   0  0  0  0  0  0  0  0  0  0  0  0
    1.1300   14.7260   -0.0850 C   0  0  0  0  0  0  0  0  0  0  0  0
    1.4960   15.1700   -1.5040 C   0  0  2  0  0  0  0  0  0  0  0  0
    3.0310   15.4840   -1.5270 C   0  0  0  0  0  0  0  0  0  0  0  0
    3.0236   18.8420   -1.9394 H   0  0  0  0  0  0  0  0  0  0  0  0
    2.6322   17.5778   -3.1540 H   0  0  0  0  0  0  0  0  0  0  0  0
    1.7325   19.1325   -3.1540 H   0  0  0  0  0  0  0  0  0  0  0  0
    0.3162   18.4557   -1.5416 H   0  0  0  0  0  0  0  0  0  0  0  0
    1.4276   16.6826    0.2819 H   0  0  0  0  0  0  0  0  0  0  0  0
    2.8084   17.7905   -0.1747 H   0  0  0  0  0  0  0  0  0  0  0  0
    0.7256   18.2692    1.6943 H   0  0  0  0  0  0  0  0  0  0  0  0
    2.0293   19.3890    1.1162 H   0  0  0  0  0  0  0  0  0  0  0  0
    0.8884   19.9197   -0.6211 H   0  0  0  0  0  0  0  0  0  0  0  0
   -1.8105   18.0670    1.7640 H   0  0  0  0  0  0  0  0  0  0  0  0
   -2.8807   17.8374    0.3397 H   0  0  0  0  0  0  0  0  0  0  0  0
   -1.2242   17.1428    0.3397 H   0  0  0  0  0  0  0  0  0  0  0  0
   -2.9406   20.4868   -0.5502 H   0  0  0  0  0  0  0  0  0  0  0  0
   -1.5082   20.5300   -1.6332 H   0  0  0  0  0  0  0  0  0  0  0  0
   -2.5912   19.0969   -1.6332 H   0  0  0  0  0  0  0  0  0  0  0  0
   -0.2984   16.4002   -1.7087 H   0  0  0  0  0  0  0  0  0  0  0  0
   -0.0345   16.4751   -4.1090 H   0  0  0  0  0  0  0  0  0  0  0  0
    1.6772   16.9344   -3.9843 H   0  0  0  0  0  0  0  0  0  0  0  0
    0.6994   14.3345   -4.6577 H   0  0  0  0  0  0  0  0  0  0  0  0
    2.3598   14.6703   -4.1740 H   0  0  0  0  0  0  0  0  0  0  0  0
   -0.8578   13.7011   -1.4764 H   0  0  0  0  0  0  0  0  0  0  0  0
   -1.0193   14.5846   -3.0320 H   0  0  0  0  0  0  0  0  0  0  0  0
   -0.6925   12.8183   -3.0320 H   0  0  0  0  0  0  0  0  0  0  0  0
    2.8968   13.0894   -2.4193 H   0  0  0  0  0  0  0  0  0  0  0  0
    1.3631   12.0476   -4.2075 H   0  0  0  0  0  0  0  0  0  0  0  0
    2.5489   11.0144   -3.2499 H   0  0  0  0  0  0  0  0  0  0  0  0
    0.1560    9.9824   -3.6424 H   0  0  0  0  0  0  0  0  0  0  0  0
   -0.2578   12.1440   -0.2556 H   0  0  0  0  0  0  0  0  0  0  0  0
    1.4568    9.7251    0.5832 H   0  0  0  0  0  0  0  0  0  0  0  0
    0.9112   11.0989    1.6446 H   0  0  0  0  0  0  0  0  0  0  0  0
   -0.4367    9.0536    1.9933 H   0  0  0  0  0  0  0  0  0  0  0  0
   -1.4073   10.4395    1.3589 H   0  0  0  0  0  0  0  0  0  0  0  0
   -2.0703    8.4433    0.2039 H   0  0  0  0  0  0  0  0  0  0  0  0
    0.7080    8.2240   -0.5360 H   0  0  0  0  0  0  0  0  0  0  0  0
   -2.7230   10.7587   -0.1653 H   0  0  0  0  0  0  0  0  0  0  0  0
   -2.2911   11.5574   -1.7152 H   0  0  0  0  0  0  0  0  0  0  0  0
   -3.3687   10.1203   -1.7152 H   0  0  0  0  0  0  0  0  0  0  0  0
   -1.9119    7.7068   -2.0702 H   0  0  0  0  0  0  0  0  0  0  0  0
   -2.4078    9.0735   -3.1251 H   0  0  0  0  0  0  0  0  0  0  0  0
   -0.7014    8.5121   -3.1251 H   0  0  0  0  0  0  0  0  0  0  0  0
    3.2532   11.2671    0.5702 H   0  0  0  0  0  0  0  0  0  0  0  0
    2.9445   10.3922   -0.9679 H   0  0  0  0  0  0  0  0  0  0  0  0
    3.9476   11.8823   -0.9679 H   0  0  0  0  0  0  0  0  0  0  0  0
    1.4391   13.0646    1.2399 H   0  0  0  0  0  0  0  0  0  0  0  0
    2.9311   13.7049    0.3461 H   0  0  0  0  0  0  0  0  0  0  0  0
    0.0451   14.5525   -0.0308 H   0  0  0  0  0  0  0  0  0  0  0  0
    1.4289   15.5173    0.6182 H   0  0  0  0  0  0  0  0  0  0  0  0
    3.4051   15.5605   -0.4954 H   0  0  0  0  0  0  0  0  0  0  0  0
    3.5627   14.6760   -2.0509 H   0  0  0  0  0  0  0  0  0  0  0  0
    3.2027   16.4359   -2.0509 H   0  0  0  0  0  0  0  0  0  0  0  0
  1  2  1  0
  2  3  1  0
  3  4  1  0
  4  5  1  0
  5  6  1  0
  6  7  1  0
  7  8  1  0
  7  9  1  0
  2 10  1  0
 10 11  1  0
 11 12  1  0
 12 13  1  0
 13 14  1  1
 13 15  1  0
 15 16  1  0
 16 17  1  0
 17 18  2  0
 18 19  1  0
 19 20  1  0
 20 21  1  0
 21 22  1  0
 22 23  1  0
 22 24  1  0
 24 25  1  0
 24 26  1  0
 19 27  1  0
 27 28  1  1
 27 29  1  0
 29 30  1  0
 30 31  1  0
 31 32  1  1
  7  5  1  0
 31 10  1  0
 31 13  1  0
 27 15  1  0
 24 18  1  0
  1 33  1  0
  1 34  1  0
  1 35  1  0
  2 36  1  1
  3 37  1  0
  3 38  1  0
  4 39  1  0
  4 40  1  0
  5 41  1  6
  8 42  1  0
  8 43  1  0
  8 44  1  0
  9 45  1  0
  9 46  1  0
  9 47  1  0
 10 48  1  6
 11 49  1  0
 11 50  1  0
 12 51  1  0
 12 52  1  0
 14 53  1  0
 14 54  1  0
 14 55  1  0
 15 56  1  6
 16 57  1  0
 16 58  1  0
 17 59  1  0
 19 60  1  1
 20 61  1  0
 20 62  1  0
 21 63  1  0
 21 64  1  0
 22 65  1  1
 23 66  1  0
 25 67  1  0
 25 68  1  0
 25 69  1  0
 26 70  1  0
 26 71  1  0
 26 72  1  0
 28 73  1  0
 28 74  1  0
 28 75  1  0
 29 76  1  0
 29 77  1  0
 30 78  1  0
 30 79  1  0
 32 80  1  0
 32 81  1  0
 32 82  1  0
M  END
>  <meeko>  (8) 
{"is_sidechain": [false], "intermolecular_energy": 2.731, "internal_energy": -0.839}

$$$$
EPH_relaxed_0001_pdb2pqr_Repair_191_r2_0001_out
     RDKit          3D

 82 86  0  0  0  0  0  0  0  0999 V2000
    2.2690   10.3270   -0.3200 C   0  0  0  0  0  0  0  0  0  0  0  0
    1.9380   10.7710   -1.7480 C   0  0  2  0  0  0  0  0  0  0  0  0
    2.8470   10.0920   -2.7920 C   0  0  0  0  0  0  0  0  0  0  0  0
    3.6840   11.0780   -3.6120 C   0  0  0  0  0  0  0  0  0  0  0  0
    5.1180   11.0840   -3.1760 C   0  0  2  0  0  0  0  0  0  0  0  0
    5.8880   12.1900   -3.6670 O   0  0  0  0  0  0  0  0  0  0  0  0
    6.2830   10.8880   -4.1290 C   0  0  0  0  0  0  0  0  0  0  0  0
    6.0650   10.6700   -5.5930 C   0  0  0  0  0  0  0  0  0  0  0  0
    7.5920   10.4220   -3.5720 C   0  0  0  0  0  0  0  0  0  0  0  0
    2.0550   12.2860   -1.8610 C   0  0  1  0  0  0  0  0  0  0  0  0
    1.8760   12.7920   -3.3180 C   0  0  0  0  0  0  0  0  0  0  0  0
    1.1510   14.1590   -3.2300 C   0  0  0  0  0  0  0  0  0  0  0  0
    1.2330   14.5500   -1.7360 C   0  0  1  0  0  0  0  0  0  0  0  0
    2.6620   15.1530   -1.5570 C   0  0  0  0  0  0  0  0  0  0  0  0
    0.1260   15.5230   -1.2140 C   0  0  2  0  0  0  0  0  0  0  0  0
    0.1140   16.9120   -1.8740 C   0  0  0  0  0  0  0  0  0  0  0  0
    0.9490   17.9480   -1.1960 C   0  0  0  0  0  0  0  0  0  0  0  0
    1.4510   17.8550    0.0490 C   0  0  0  0  0  0  0  0  0  0  0  0
    1.1100   16.6610    0.9490 C   0  0  1  0  0  0  0  0  0  0  0  0
    0.7270   17.1700    2.3630 C   0  0  0  0  0  0  0  0  0  0  0  0
    1.7980   18.0710    2.9700 C   0  0  0  0  0  0  0  0  0  0  0  0
    2.0680   19.2780    2.0750 C   0  0  2  0  0  0  0  0  0  0  0  0
    0.9020   20.1080    2.0580 O   0  0  0  0  0  0  0  0  0  0  0  0
    2.4540   18.8880    0.6210 C   0  0  0  0  0  0  0  0  0  0  0  0
    3.8660   18.2520    0.6100 C   0  0  0  0  0  0  0  0  0  0  0  0
    2.5590   20.1940   -0.2120 C   0  0  0  0  0  0  0  0  0  0  0  0
    0.0500   15.6310    0.3630 C   0  0  1  0  0  0  0  0  0  0  0  0
   -1.3950   16.1030    0.7080 C   0  0  0  0  0  0  0  0  0  0  0  0
    0.2430   14.2370    1.0690 C   0  0  0  0  0  0  0  0  0  0  0  0
    1.2640   13.2730    0.4360 C   0  0  0  0  0  0  0  0  0  0  0  0
    1.0310   13.1390   -1.0720 C   0  0  2  0  0  0  0  0  0  0  0  0
   -0.3900   12.5140   -1.2820 C   0  0  0  0  0  0  0  0  0  0  0  0
    1.7703   10.9959    0.3968 H   0  0  0  0  0  0  0  0  0  0  0  0
    1.9171    9.2963   -0.1656 H   0  0  0  0  0  0  0  0  0  0  0  0
    3.3573   10.3699   -0.1656 H   0  0  0  0  0  0  0  0  0  0  0  0
    0.9039   10.4616   -1.9602 H   0  0  0  0  0  0  0  0  0  0  0  0
    3.5307    9.4094   -2.2660 H   0  0  0  0  0  0  0  0  0  0  0  0
    2.1885    9.5642   -3.4975 H   0  0  0  0  0  0  0  0  0  0  0  0
    3.6351   10.7910   -4.6728 H   0  0  0  0  0  0  0  0  0  0  0  0
    3.2743   12.0871   -3.4574 H   0  0  0  0  0  0  0  0  0  0  0  0
    4.8553   10.6018   -2.2229 H   0  0  0  0  0  0  0  0  0  0  0  0
    5.2940    9.8990   -5.7381 H   0  0  0  0  0  0  0  0  0  0  0  0
    5.7353   11.6105   -6.0587 H   0  0  0  0  0  0  0  0  0  0  0  0
    7.0055   10.3403   -6.0587 H   0  0  0  0  0  0  0  0  0  0  0  0
    7.5491   10.4373   -2.4729 H   0  0  0  0  0  0  0  0  0  0  0  0
    7.7932    9.3970   -3.9169 H   0  0  0  0  0  0  0  0  0  0  0  0
    8.3956   11.0893   -3.9169 H   0  0  0  0  0  0  0  0  0  0  0  0
    3.0626   12.4249   -1.4421 H   0  0  0  0  0  0  0  0  0  0  0  0
    2.8572   12.9138   -3.8000 H   0  0  0  0  0  0  0  0  0  0  0  0
    1.2957   12.0747   -3.9170 H   0  0  0  0  0  0  0  0  0  0  0  0
    1.6581   14.9083   -3.8557 H   0  0  0  0  0  0  0  0  0  0  0  0
    0.1130   14.1041   -3.5900 H   0  0  0  0  0  0  0  0  0  0  0  0
    2.8880   15.2484   -0.4847 H   0  0  0  0  0  0  0  0  0  0  0  0
    3.4015   14.4902   -2.0301 H   0  0  0  0  0  0  0  0  0  0  0  0
    2.7032   16.1452   -2.0301 H   0  0  0  0  0  0  0  0  0  0  0  0
   -0.7988   15.0279   -1.5451 H   0  0  0  0  0  0  0  0  0  0  0  0
    0.4807   16.8014   -2.9052 H   0  0  0  0  0  0  0  0  0  0  0  0
   -0.9244   17.2695   -1.8114 H   0  0  0  0  0  0  0  0  0  0  0  0
    1.1725   18.8643   -1.7620 H   0  0  0  0  0  0  0  0  0  0  0  0
    2.0252   16.0534    1.0068 H   0  0  0  0  0  0  0  0  0  0  0  0
   -0.2123   17.7379    2.2910 H   0  0  0  0  0  0  0  0  0  0  0  0
    0.6197   16.2917    3.0165 H   0  0  0  0  0  0  0  0  0  0  0  0
    1.4567   18.4225    3.9549 H   0  0  0  0  0  0  0  0  0  0  0  0
    2.7283   17.4925    3.0689 H   0  0  0  0  0  0  0  0  0  0  0  0
    2.9316   19.8146    2.4948 H   0  0  0  0  0  0  0  0  0  0  0  0
    0.6880   20.3350    2.9780 H   0  0  0  0  0  0  0  0  0  0  0  0
    4.2070   18.0984    1.6445 H   0  0  0  0  0  0  0  0  0  0  0  0
    3.8281   17.2840    0.0889 H   0  0  0  0  0  0  0  0  0  0  0  0
    4.5658   18.9218    0.0889 H   0  0  0  0  0  0  0  0  0  0  0  0
    2.6284   21.0571    0.4665 H   0  0  0  0  0  0  0  0  0  0  0  0
    3.4568   20.1531   -0.8463 H   0  0  0  0  0  0  0  0  0  0  0  0
    1.6662   20.2971   -0.8463 H   0  0  0  0  0  0  0  0  0  0  0  0
   -1.5167   16.1428    1.8005 H   0  0  0  0  0  0  0  0  0  0  0  0
   -1.5651   17.1034    0.2835 H   0  0  0  0  0  0  0  0  0  0  0  0
   -2.1229   15.3959    0.2835 H   0  0  0  0  0  0  0  0  0  0  0  0
    0.5641   14.4295    2.1033 H   0  0  0  0  0  0  0  0  0  0  0  0
   -0.7285   13.7297    0.9745 H   0  0  0  0  0  0  0  0  0  0  0  0
    2.2792   13.6591    0.6102 H   0  0  0  0  0  0  0  0  0  0  0  0
    1.1438   12.2822    0.8985 H   0  0  0  0  0  0  0  0  0  0  0  0
   -0.8499   12.3117   -0.3034 H   0  0  0  0  0  0  0  0  0  0  0  0
   -1.0206   13.2178   -1.8450 H   0  0  0  0  0  0  0  0  0  0  0  0
   -0.2974   11.5736   -1.8450 H   0  0  0  0  0  0  0  0  0  0  0  0
  1  2  1  0
  2  3  1  0
  3  4  1  0
  4  5  1  0
  5  6  1  0
  6  7  1  0
  7  8  1  0
  7  9  1  0
  2 10  1  0
 10 11  1  0
 11 12  1  0
 12 13  1  0
 13 14  1  6
 13 15  1  0
 15 16  1  0
 16 17  1  0
 17 18  2  0
 18 19  1  0
 19 20  1  0
 20 21  1  0
 21 22  1  0
 22 23  1  0
 22 24  1  0
 24 25  1  0
 24 26  1  0
 19 27  1  0
 27 28  1  6
 27 29  1  0
 29 30  1  0
 30 31  1  0
 31 32  1  1
  7  5  1  0
 31 10  1  0
 31 13  1  0
 27 15  1  0
 24 18  1  0
  1 33  1  0
  1 34  1  0
  1 35  1  0
  2 36  1  6
  3 37  1  0
  3 38  1  0
  4 39  1  0
  4 40  1  0
  5 41  1  1
  8 42  1  0
  8 43  1  0
  8 44  1  0
  9 45  1  0
  9 46  1  0
  9 47  1  0
 10 48  1  1
 11 49  1  0
 11 50  1  0
 12 51  1  0
 12 52  1  0
 14 53  1  0
 14 54  1  0
 14 55  1  0
 15 56  1  6
 16 57  1  0
 16 58  1  0
 17 59  1  0
 19 60  1  1
 20 61  1  0
 20 62  1  0
 21 63  1  0
 21 64  1  0
 22 65  1  1
 23 66  1  0
 25 67  1  0
 25 68  1  0
 25 69  1  0
 26 70  1  0
 26 71  1  0
 26 72  1  0
 28 73  1  0
 28 74  1  0
 28 75  1  0
 29 76  1  0
 29 77  1  0
 30 78  1  0
 30 79  1  0
 32 80  1  0
 32 81  1  0
 32 82  1  0
M  END
>  <meeko>  (9) 
{"is_sidechain": [false], "intermolecular_energy": 2.731, "internal_energy": -0.839}

$$$$
EPH_relaxed_0001_pdb2pqr_Repair_191_r2_0001_out
     RDKit          3D

 82 86  0  0  0  0  0  0  0  0999 V2000
   -0.1960    9.7710   -2.4830 C   0  0  0  0  0  0  0  0  0  0  0  0
    0.9820   10.6540   -2.9050 C   0  0  2  0  0  0  0  0  0  0  0  0
    2.2700    9.8370   -3.1300 C   0  0  0  0  0  0  0  0  0  0  0  0
    3.2760   10.5180   -4.0610 C   0  0  0  0  0  0  0  0  0  0  0  0
    4.6250   10.6470   -3.4210 C   0  0  2  0  0  0  0  0  0  0  0  0
    5.2570   11.9210   -3.6070 O   0  0  0  0  0  0  0  0  0  0  0  0
    5.9140   10.7930   -4.2070 C   0  0  0  0  0  0  0  0  0  0  0  0
    5.9170   10.8150   -5.7030 C   0  0  0  0  0  0  0  0  0  0  0  0
    7.2030   10.4230   -3.5420 C   0  0  0  0  0  0  0  0  0  0  0  0
    1.2260   11.7310   -1.8550 C   0  0  1  0  0  0  0  0  0  0  0  0
    2.5150   11.4790   -1.0280 C   0  0  0  0  0  0  0  0  0  0  0  0
    3.1230   12.8700   -0.7120 C   0  0  0  0  0  0  0  0  0  0  0  0
    2.0050   13.8760   -1.0740 C   0  0  1  0  0  0  0  0  0  0  0  0
    1.0500   13.8740    0.1610 C   0  0  0  0  0  0  0  0  0  0  0  0
    2.4700   15.3220   -1.4410 C   0  0  2  0  0  0  0  0  0  0  0  0
    3.1890   16.0830   -0.3140 C   0  0  0  0  0  0  0  0  0  0  0  0
    2.3040   16.8950    0.5730 C   0  0  0  0  0  0  0  0  0  0  0  0
    1.0300   17.2390    0.3030 C   0  0  0  0  0  0  0  0  0  0  0  0
    0.3870   16.8860   -1.0440 C   0  0  1  0  0  0  0  0  0  0  0  0
   -0.3540   18.1270   -1.6050 C   0  0  0  0  0  0  0  0  0  0  0  0
   -1.3580   18.7070   -0.6140 C   0  0  0  0  0  0  0  0  0  0  0  0
   -0.6710   19.1010    0.6910 C   0  0  2  0  0  0  0  0  0  0  0  0
    0.2160   20.1940    0.4340 O   0  0  0  0  0  0  0  0  0  0  0  0
    0.1170   17.9310    1.3450 C   0  0  0  0  0  0  0  0  0  0  0  0
   -0.8760   16.8790    1.8970 C   0  0  0  0  0  0  0  0  0  0  0  0
    0.8770   18.4970    2.5750 C   0  0  0  0  0  0  0  0  0  0  0  0
    1.3480   16.2120   -2.1150 C   0  0  1  0  0  0  0  0  0  0  0  0
    2.0860   17.3140   -2.9350 C   0  0  0  0  0  0  0  0  0  0  0  0
    0.4790   15.3990   -3.1460 C   0  0  0  0  0  0  0  0  0  0  0  0
    0.1540   13.9380   -2.7810 C   0  0  0  0  0  0  0  0  0  0  0  0
    1.4180   13.1840   -2.3580 C   0  0  2  0  0  0  0  0  0  0  0  0
    2.3890   13.1510   -3.5860 C   0  0  0  0  0  0  0  0  0  0  0  0
   -0.2494    9.7310   -1.3850 H   0  0  0  0  0  0  0  0  0  0  0  0
   -1.1311   10.1926   -2.8804 H   0  0  0  0  0  0  0  0  0  0  0  0
   -0.0537    8.7552   -2.8804 H   0  0  0  0  0  0  0  0  0  0  0  0
    0.7168   11.1224   -3.8643 H   0  0  0  0  0  0  0  0  0  0  0  0
    2.7533    9.6752   -2.1552 H   0  0  0  0  0  0  0  0  0  0  0  0
    1.9725    8.8944   -3.6126 H   0  0  0  0  0  0  0  0  0  0  0  0
    3.3729    9.9203   -4.9794 H   0  0  0  0  0  0  0  0  0  0  0  0
    2.9052   11.5290   -4.2856 H   0  0  0  0  0  0  0  0  0  0  0  0
    4.3298    9.9674   -2.6080 H   0  0  0  0  0  0  0  0  0  0  0  0
    6.0578   11.8479   -6.0542 H   0  0  0  0  0  0  0  0  0  0  0  0
    6.7376   10.1853   -6.0773 H   0  0  0  0  0  0  0  0  0  0  0  0
    4.9578   10.4280   -6.0773 H   0  0  0  0  0  0  0  0  0  0  0  0
    7.0759   10.4595   -2.4500 H   0  0  0  0  0  0  0  0  0  0  0  0
    7.4924    9.4055   -3.8437 H   0  0  0  0  0  0  0  0  0  0  0  0
    7.9880   11.1321   -3.8437 H   0  0  0  0  0  0  0  0  0  0  0  0
    0.2876   11.6500   -1.2869 H   0  0  0  0  0  0  0  0  0  0  0  0
    2.2690   10.9522   -0.0942 H   0  0  0  0  0  0  0  0  0  0  0  0
    3.2272   10.8545   -1.5872 H   0  0  0  0  0  0  0  0  0  0  0  0
    3.3841   12.9466    0.3538 H   0  0  0  0  0  0  0  0  0  0  0  0
    4.0503   13.0572   -1.2733 H   0  0  0  0  0  0  0  0  0  0  0  0
    1.6461   13.8752    1.0855 H   0  0  0  0  0  0  0  0  0  0  0  0
    0.4136   14.7708    0.1339 H   0  0  0  0  0  0  0  0  0  0  0  0
    0.4174   12.9745    0.1339 H   0  0  0  0  0  0  0  0  0  0  0  0
    3.2346   15.1352   -2.2094 H   0  0  0  0  0  0  0  0  0  0  0  0
    3.7142   15.3466    0.3120 H   0  0  0  0  0  0  0  0  0  0  0  0
    3.8610   16.7984   -0.8106 H   0  0  0  0  0  0  0  0  0  0  0  0
    2.7280   17.2414    1.5271 H   0  0  0  0  0  0  0  0  0  0  0  0
   -0.3358   16.0834   -0.8354 H   0  0  0  0  0  0  0  0  0  0  0  0
    0.3888   18.9011   -1.8480 H   0  0  0  0  0  0  0  0  0  0  0  0
   -0.9125   17.8071   -2.4971 H   0  0  0  0  0  0  0  0  0  0  0  0
   -1.8275   19.5977   -1.0569 H   0  0  0  0  0  0  0  0  0  0  0  0
   -2.1167   17.9415   -0.3942 H   0  0  0  0  0  0  0  0  0  0  0  0
   -1.4575   19.3878    1.4046 H   0  0  0  0  0  0  0  0  0  0  0  0
    1.1250   19.8490    0.4640 H   0  0  0  0  0  0  0  0  0  0  0  0
   -0.8574   16.8987    2.9967 H   0  0  0  0  0  0  0  0  0  0  0  0
   -1.8912   17.1119    1.5432 H   0  0  0  0  0  0  0  0  0  0  0  0
   -0.5849   15.8789    1.5432 H   0  0  0  0  0  0  0  0  0  0  0  0
    0.3976   18.1399    3.4984 H   0  0  0  0  0  0  0  0  0  0  0  0
    1.9224   18.1557    2.5490 H   0  0  0  0  0  0  0  0  0  0  0  0
    0.8495   19.5963    2.5490 H   0  0  0  0  0  0  0  0  0  0  0  0
    2.5630   18.0263   -2.2457 H   0  0  0  0  0  0  0  0  0  0  0  0
    2.8541   16.8468   -3.5689 H   0  0  0  0  0  0  0  0  0  0  0  0
    1.3615   17.8463   -3.5689 H   0  0  0  0  0  0  0  0  0  0  0  0
   -0.4756   15.9314   -3.2694 H   0  0  0  0  0  0  0  0  0  0  0  0
    1.0940   15.3383   -4.0560 H   0  0  0  0  0  0  0  0  0  0  0  0
   -0.5667   13.9266   -1.9501 H   0  0  0  0  0  0  0  0  0  0  0  0
   -0.2705   13.4417   -3.6661 H   0  0  0  0  0  0  0  0  0  0  0  0
    3.4292   13.1156   -3.2301 H   0  0  0  0  0  0  0  0  0  0  0  0
    2.1794   12.2595   -4.1953 H   0  0  0  0  0  0  0  0  0  0  0  0
    2.2405   14.0547   -4.1953 H   0  0  0  0  0  0  0  0  0  0  0  0
  1  2  1  0
  2  3  1  0
  3  4  1  0
  4  5  1  0
  5  6  1  0
  6  7  1  0
  7  8  1  0
  7  9  1  0
  2 10  1  0
 10 11  1  0
 11 12  1  0
 12 13  1  0
 13 14  1  1
 13 15  1  0
 15 16  1  0
 16 17  1  0
 17 18  2  0
 18 19  1  0
 19 20  1  0
 20 21  1  0
 21 22  1  0
 22 23  1  0
 22 24  1  0
 24 25  1  0
 24 26  1  0
 19 27  1  0
 27 28  1  6
 27 29  1  0
 29 30  1  0
 30 31  1  0
 31 32  1  6
  7  5  1  0
 31 10  1  0
 31 13  1  0
 27 15  1  0
 24 18  1  0
  1 33  1  0
  1 34  1  0
  1 35  1  0
  2 36  1  6
  3 37  1  0
  3 38  1  0
  4 39  1  0
  4 40  1  0
  5 41  1  1
  8 42  1  0
  8 43  1  0
  8 44  1  0
  9 45  1  0
  9 46  1  0
  9 47  1  0
 10 48  1  1
 11 49  1  0
 11 50  1  0
 12 51  1  0
 12 52  1  0
 14 53  1  0
 14 54  1  0
 14 55  1  0
 15 56  1  6
 16 57  1  0
 16 58  1  0
 17 59  1  0
 19 60  1  1
 20 61  1  0
 20 62  1  0
 21 63  1  0
 21 64  1  0
 22 65  1  1
 23 66  1  0
 25 67  1  0
 25 68  1  0
 25 69  1  0
 26 70  1  0
 26 71  1  0
 26 72  1  0
 28 73  1  0
 28 74  1  0
 28 75  1  0
 29 76  1  0
 29 77  1  0
 30 78  1  0
 30 79  1  0
 32 80  1  0
 32 81  1  0
 32 82  1  0
M  END
>  <meeko>  (10) 
{"is_sidechain": [false], "intermolecular_energy": 2.731, "internal_energy": -0.839}

$$$$
EPH_relaxed_0001_pdb2pqr_Repair_191_r2_0001_out
     RDKit          3D

 82 86  0  0  0  0  0  0  0  0999 V2000
    3.2670   10.4100   -3.1740 C   0  0  0  0  0  0  0  0  0  0  0  0
    2.0260   10.5290   -2.2850 C   0  0  2  0  0  0  0  0  0  0  0  0
    0.9390    9.5040   -2.6660 C   0  0  0  0  0  0  0  0  0  0  0  0
    0.4320    8.6750   -1.4830 C   0  0  0  0  0  0  0  0  0  0  0  0
   -1.0530    8.4810   -1.5370 C   0  0  2  0  0  0  0  0  0  0  0  0
   -1.7910    9.6290   -1.9750 O   0  0  0  0  0  0  0  0  0  0  0  0
   -2.0250    9.2030   -0.6230 C   0  0  0  0  0  0  0  0  0  0  0  0
   -1.5490   10.1740    0.4120 C   0  0  0  0  0  0  0  0  0  0  0  0
   -3.3800    8.6060   -0.4050 C   0  0  0  0  0  0  0  0  0  0  0  0
    1.4620   11.9420   -2.3680 C   0  0  1  0  0  0  0  0  0  0  0  0
   -0.0230   11.9680   -2.8210 C   0  0  0  0  0  0  0  0  0  0  0  0
   -0.7010   13.1400   -2.0670 C   0  0  0  0  0  0  0  0  0  0  0  0
    0.4730   13.9490   -1.4680 C   0  0  1  0  0  0  0  0  0  0  0  0
    0.9890   14.8380   -2.6430 C   0  0  0  0  0  0  0  0  0  0  0  0
    0.1480   14.8030   -0.1990 C   0  0  2  0  0  0  0  0  0  0  0  0
   -0.8910   15.9180   -0.4120 C   0  0  0  0  0  0  0  0  0  0  0  0
   -0.3330   17.2420   -0.8150 C   0  0  0  0  0  0  0  0  0  0  0  0
    0.9600   17.6060   -0.7240 C   0  0  0  0  0  0  0  0  0  0  0  0
    1.9970   16.6760   -0.0810 C   0  0  1  0  0  0  0  0  0  0  0  0
    2.8770   17.4860    0.9070 C   0  0  0  0  0  0  0  0  0  0  0  0
    3.5150   18.7090    0.2550 C   0  0  0  0  0  0  0  0  0  0  0  0
    2.4490   19.6380   -0.3220 C   0  0  2  0  0  0  0  0  0  0  0  0
    1.6890   20.1920    0.7560 O   0  0  0  0  0  0  0  0  0  0  0  0
    1.4960   18.9290   -1.3240 C   0  0  0  0  0  0  0  0  0  0  0  0
    2.2640   18.5960   -2.6270 C   0  0  0  0  0  0  0  0  0  0  0  0
    0.3850   19.9390   -1.7210 C   0  0  0  0  0  0  0  0  0  0  0  0
    1.4250   15.3410    0.5650 C   0  0  1  0  0  0  0  0  0  0  0  0
    0.9830   15.6090    2.0360 C   0  0  0  0  0  0  0  0  0  0  0  0
    2.5760   14.2700    0.6350 C   0  0  0  0  0  0  0  0  0  0  0  0
    2.7700   13.3760   -0.6050 C   0  0  0  0  0  0  0  0  0  0  0  0
    1.4370   12.7760   -1.0620 C   0  0  2  0  0  0  0  0  0  0  0  0
    0.9050   11.8590    0.0920 C   0  0  0  0  0  0  0  0  0  0  0  0
    4.1635   10.3240   -2.5425 H   0  0  0  0  0  0  0  0  0  0  0  0
    3.1788    9.5162   -3.8091 H   0  0  0  0  0  0  0  0  0  0  0  0
    3.3502   11.3043   -3.8091 H   0  0  0  0  0  0  0  0  0  0  0  0
    2.3359   10.3125   -1.2520 H   0  0  0  0  0  0  0  0  0  0  0  0
    0.0865   10.0472   -3.0999 H   0  0  0  0  0  0  0  0  0  0  0  0
    1.3959    8.8012   -3.3783 H   0  0  0  0  0  0  0  0  0  0  0  0
    0.9210    7.6899   -1.5027 H   0  0  0  0  0  0  0  0  0  0  0  0
    0.6732    9.2169   -0.5566 H   0  0  0  0  0  0  0  0  0  0  0  0
   -0.9285    7.4175   -1.7888 H   0  0  0  0  0  0  0  0  0  0  0  0
   -1.7480    9.7680    1.4148 H   0  0  0  0  0  0  0  0  0  0  0  0
   -0.4681   10.3385    0.2909 H   0  0  0  0  0  0  0  0  0  0  0  0
   -2.0810   11.1291    0.2909 H   0  0  0  0  0  0  0  0  0  0  0  0
   -3.5737    8.5206    0.6744 H   0  0  0  0  0  0  0  0  0  0  0  0
   -4.1432    9.2512   -0.8646 H   0  0  0  0  0  0  0  0  0  0  0  0
   -3.4190    7.6074   -0.8646 H   0  0  0  0  0  0  0  0  0  0  0  0
    2.1731   12.3818   -3.0828 H   0  0  0  0  0  0  0  0  0  0  0  0
   -0.0847   12.1304   -3.9072 H   0  0  0  0  0  0  0  0  0  0  0  0
   -0.5210   11.0133   -2.5959 H   0  0  0  0  0  0  0  0  0  0  0  0
   -1.2867   13.7611   -2.7607 H   0  0  0  0  0  0  0  0  0  0  0  0
   -1.4028   12.7897   -1.2958 H   0  0  0  0  0  0  0  0  0  0  0  0
    1.5020   15.7219   -2.2361 H   0  0  0  0  0  0  0  0  0  0  0  0
    1.6911   14.2584   -3.2604 H   0  0  0  0  0  0  0  0  0  0  0  0
    0.1375   15.1601   -3.2604 H   0  0  0  0  0  0  0  0  0  0  0  0
   -0.3334   14.0682    0.4630 H   0  0  0  0  0  0  0  0  0  0  0  0
   -1.5862   15.5888   -1.1983 H   0  0  0  0  0  0  0  0  0  0  0  0
   -1.3722   16.0756    0.5645 H   0  0  0  0  0  0  0  0  0  0  0  0
   -1.0375   17.9831   -1.2206 H   0  0  0  0  0  0  0  0  0  0  0  0
    2.6164   16.2946   -0.9062 H   0  0  0  0  0  0  0  0  0  0  0  0
    2.2488   17.8209    1.7456 H   0  0  0  0  0  0  0  0  0  0  0  0
    3.6895   16.8273    1.2475 H   0  0  0  0  0  0  0  0  0  0  0  0
    4.0989   19.2560    1.0099 H   0  0  0  0  0  0  0  0  0  0  0  0
    4.1666   18.3706   -0.5641 H   0  0  0  0  0  0  0  0  0  0  0  0
    2.9682   20.4256   -0.8878 H   0  0  0  0  0  0  0  0  0  0  0  0
    2.1920   20.0480    1.5760 H   0  0  0  0  0  0  0  0  0  0  0  0
    3.2464   18.1701   -2.3749 H   0  0  0  0  0  0  0  0  0  0  0  0
    1.6883   17.8667   -3.2158 H   0  0  0  0  0  0  0  0  0  0  0  0
    2.4029   19.5147   -3.2158 H   0  0  0  0  0  0  0  0  0  0  0  0
   -0.0735   20.3558   -0.8121 H   0  0  0  0  0  0  0  0  0  0  0  0
    0.8249   20.7529   -2.3160 H   0  0  0  0  0  0  0  0  0  0  0  0
   -0.3834   19.4237   -2.3160 H   0  0  0  0  0  0  0  0  0  0  0  0
    1.7157   15.1647    2.7257 H   0  0  0  0  0  0  0  0  0  0  0  0
    0.9264   16.6937    2.2100 H   0  0  0  0  0  0  0  0  0  0  0  0
   -0.0049   15.1577    2.2100 H   0  0  0  0  0  0  0  0  0  0  0  0
    3.5201   14.8071    0.8089 H   0  0  0  0  0  0  0  0  0  0  0  0
    2.2809   13.5829    1.4417 H   0  0  0  0  0  0  0  0  0  0  0  0
    3.1916   13.9802   -1.4218 H   0  0  0  0  0  0  0  0  0  0  0  0
    3.4526   12.5545   -0.3419 H   0  0  0  0  0  0  0  0  0  0  0  0
    1.1638   12.3050    1.0636 H   0  0  0  0  0  0  0  0  0  0  0  0
   -0.1880   11.7648    0.0112 H   0  0  0  0  0  0  0  0  0  0  0  0
    1.3658   10.8634    0.0112 H   0  0  0  0  0  0  0  0  0  0  0  0
  1  2  1  0
  2  3  1  0
  3  4  1  0
  4  5  1  0
  5  6  1  0
  6  7  1  0
  7  8  1  0
  7  9  1  0
  2 10  1  0
 10 11  1  0
 11 12  1  0
 12 13  1  0
 13 14  1  6
 13 15  1  0
 15 16  1  0
 16 17  1  0
 17 18  2  0
 18 19  1  0
 19 20  1  0
 20 21  1  0
 21 22  1  0
 22 23  1  0
 22 24  1  0
 24 25  1  0
 24 26  1  0
 19 27  1  0
 27 28  1  1
 27 29  1  0
 29 30  1  0
 30 31  1  0
 31 32  1  1
  7  5  1  0
 31 10  1  0
 31 13  1  0
 27 15  1  0
 24 18  1  0
  1 33  1  0
  1 34  1  0
  1 35  1  0
  2 36  1  1
  3 37  1  0
  3 38  1  0
  4 39  1  0
  4 40  1  0
  5 41  1  6
  8 42  1  0
  8 43  1  0
  8 44  1  0
  9 45  1  0
  9 46  1  0
  9 47  1  0
 10 48  1  6
 11 49  1  0
 11 50  1  0
 12 51  1  0
 12 52  1  0
 14 53  1  0
 14 54  1  0
 14 55  1  0
 15 56  1  1
 16 57  1  0
 16 58  1  0
 17 59  1  0
 19 60  1  6
 20 61  1  0
 20 62  1  0
 21 63  1  0
 21 64  1  0
 22 65  1  6
 23 66  1  0
 25 67  1  0
 25 68  1  0
 25 69  1  0
 26 70  1  0
 26 71  1  0
 26 72  1  0
 28 73  1  0
 28 74  1  0
 28 75  1  0
 29 76  1  0
 29 77  1  0
 30 78  1  0
 30 79  1  0
 32 80  1  0
 32 81  1  0
 32 82  1  0
M  END
>  <meeko>  (11) 
{"is_sidechain": [false], "intermolecular_energy": 2.731, "internal_energy": -0.839}

$$$$
EPH_relaxed_0001_pdb2pqr_Repair_191_r2_0001_out
     RDKit          3D

 82 86  0  0  0  0  0  0  0  0999 V2000
   -0.0730   17.4280   -1.0020 C   0  0  0  0  0  0  0  0  0  0  0  0
   -0.2570   16.2960    0.0120 C   0  0  2  0  0  0  0  0  0  0  0  0
   -0.2770   16.8150    1.4640 C   0  0  0  0  0  0  0  0  0  0  0  0
    0.1720   18.2720    1.6030 C   0  0  0  0  0  0  0  0  0  0  0  0
    1.5590   18.3740    2.1610 C   0  0  2  0  0  0  0  0  0  0  0  0
    1.9210   19.6800    2.6300 O   0  0  0  0  0  0  0  0  0  0  0  0
    2.6660   19.1800    1.5080 C   0  0  0  0  0  0  0  0  0  0  0  0
    2.4350   19.9380    0.2380 C   0  0  0  0  0  0  0  0  0  0  0  0
    4.0870   18.8380    1.8310 C   0  0  0  0  0  0  0  0  0  0  0  0
    0.8510   15.2630   -0.1560 C   0  0  1  0  0  0  0  0  0  0  0  0
    1.1570   14.4960    1.1590 C   0  0  0  0  0  0  0  0  0  0  0  0
    1.5290   13.0460    0.7550 C   0  0  0  0  0  0  0  0  0  0  0  0
    1.7470   13.1110   -0.7750 C   0  0  1  0  0  0  0  0  0  0  0  0
    3.1960   13.6660   -0.9500 C   0  0  0  0  0  0  0  0  0  0  0  0
    1.5420   11.7750   -1.5600 C   0  0  2  0  0  0  0  0  0  0  0  0
    2.5080   10.6390   -1.1790 C   0  0  0  0  0  0  0  0  0  0  0  0
    3.7710   10.5840   -1.9720 C   0  0  0  0  0  0  0  0  0  0  0  0
    3.9950   11.2270   -3.1330 C   0  0  0  0  0  0  0  0  0  0  0  0
    2.8810   12.0340   -3.8140 C   0  0  1  0  0  0  0  0  0  0  0  0
    2.8400   11.6870   -5.3250 C   0  0  0  0  0  0  0  0  0  0  0  0
    4.1930   11.8720   -6.0050 C   0  0  0  0  0  0  0  0  0  0  0  0
    5.2610   11.0100   -5.3370 C   0  0  2  0  0  0  0  0  0  0  0  0
    4.9540    9.6320   -5.5710 O   0  0  0  0  0  0  0  0  0  0  0  0
    5.3880   11.2650   -3.8090 C   0  0  0  0  0  0  0  0  0  0  0  0
    6.0090   12.6630   -3.5640 C   0  0  0  0  0  0  0  0  0  0  0  0
    6.3970   10.2350   -3.2350 C   0  0  0  0  0  0  0  0  0  0  0  0
    1.4490   11.9530   -3.1290 C   0  0  1  0  0  0  0  0  0  0  0  0
    0.6700   10.7160   -3.6720 C   0  0  0  0  0  0  0  0  0  0  0  0
    0.6100   13.2210   -3.5390 C   0  0  0  0  0  0  0  0  0  0  0  0
    0.7660   14.4720   -2.6550 C   0  0  0  0  0  0  0  0  0  0  0  0
    0.6080   14.1190   -1.1730 C   0  0  2  0  0  0  0  0  0  0  0  0
   -0.8470   13.5800   -0.9620 C   0  0  0  0  0  0  0  0  0  0  0  0
    0.0813   18.3772   -0.4679 H   0  0  0  0  0  0  0  0  0  0  0  0
    0.8025   17.2160   -1.6334 H   0  0  0  0  0  0  0  0  0  0  0  0
   -0.9705   17.5042   -1.6334 H   0  0  0  0  0  0  0  0  0  0  0  0
   -1.2335   15.8298   -0.1858 H   0  0  0  0  0  0  0  0  0  0  0  0
   -1.3038   16.7298    1.8491 H   0  0  0  0  0  0  0  0  0  0  0  0
    0.4372   16.2027    2.0341 H   0  0  0  0  0  0  0  0  0  0  0  0
    0.1509   18.7476    0.6114 H   0  0  0  0  0  0  0  0  0  0  0  0
   -0.5150   18.7776    2.2976 H   0  0  0  0  0  0  0  0  0  0  0  0
    1.5163   17.3353    2.5207 H   0  0  0  0  0  0  0  0  0  0  0  0
    2.1219   20.9653    0.4759 H   0  0  0  0  0  0  0  0  0  0  0  0
    3.3658   19.9647   -0.3476 H   0  0  0  0  0  0  0  0  0  0  0  0
    1.6475   19.4410   -0.3476 H   0  0  0  0  0  0  0  0  0  0  0  0
    4.2175   18.8066    2.9228 H   0  0  0  0  0  0  0  0  0  0  0  0
    4.3337   17.8548    1.4038 H   0  0  0  0  0  0  0  0  0  0  0  0
    4.7540   19.6012    1.4038 H   0  0  0  0  0  0  0  0  0  0  0  0
    1.6611   15.9170   -0.5110 H   0  0  0  0  0  0  0  0  0  0  0  0
    1.9978   14.9697    1.6869 H   0  0  0  0  0  0  0  0  0  0  0  0
    0.2886   14.5074    1.8341 H   0  0  0  0  0  0  0  0  0  0  0  0
    2.4491   12.7247    1.2650 H   0  0  0  0  0  0  0  0  0  0  0  0
    0.7496   12.3220    1.0349 H   0  0  0  0  0  0  0  0  0  0  0  0
    3.6448   13.8379    0.0395 H   0  0  0  0  0  0  0  0  0  0  0  0
    3.8032   12.9368   -1.5064 H   0  0  0  0  0  0  0  0  0  0  0  0
    3.1607   14.6143   -1.5064 H   0  0  0  0  0  0  0  0  0  0  0  0
    0.5489   11.4499   -1.2165 H   0  0  0  0  0  0  0  0  0  0  0  0
    2.7769   10.7624   -0.1195 H   0  0  0  0  0  0  0  0  0  0  0  0
    1.9740    9.7011   -1.3914 H   0  0  0  0  0  0  0  0  0  0  0  0
    4.5886    9.9652   -1.5737 H   0  0  0  0  0  0  0  0  0  0  0  0
    3.1477   13.0930   -3.6822 H   0  0  0  0  0  0  0  0  0  0  0  0
    2.5294   10.6378   -5.4375 H   0  0  0  0  0  0  0  0  0  0  0  0
    2.1281   12.3739   -5.8060 H   0  0  0  0  0  0  0  0  0  0  0  0
    4.1068   11.5831   -7.0629 H   0  0  0  0  0  0  0  0  0  0  0  0
    4.4886   12.9279   -5.9178 H   0  0  0  0  0  0  0  0  0  0  0  0
    6.2297   11.2824   -5.7814 H   0  0  0  0  0  0  0  0  0  0  0  0
    4.7880    9.5250   -6.5230 H   0  0  0  0  0  0  0  0  0  0  0  0
    6.0894   12.8440   -2.4820 H   0  0  0  0  0  0  0  0  0  0  0  0
    7.0101   12.7042   -4.0180 H   0  0  0  0  0  0  0  0  0  0  0  0
    5.3685   13.4334   -4.0180 H   0  0  0  0  0  0  0  0  0  0  0  0
    6.3670   10.2657   -2.1358 H   0  0  0  0  0  0  0  0  0  0  0  0
    6.1280    9.2261   -3.5812 H   0  0  0  0  0  0  0  0  0  0  0  0
    7.4112   10.4831   -3.5812 H   0  0  0  0  0  0  0  0  0  0  0  0
    0.2944   10.1196   -2.8275 H   0  0  0  0  0  0  0  0  0  0  0  0
   -0.1769   11.0565   -4.2858 H   0  0  0  0  0  0  0  0  0  0  0  0
    1.3431   10.0993   -4.2858 H   0  0  0  0  0  0  0  0  0  0  0  0
    0.9037   13.4978   -4.5623 H   0  0  0  0  0  0  0  0  0  0  0  0
   -0.4418   12.9188   -3.4272 H   0  0  0  0  0  0  0  0  0  0  0  0
    1.7640   14.9052   -2.8173 H   0  0  0  0  0  0  0  0  0  0  0  0
   -0.0166   15.1949   -2.9288 H   0  0  0  0  0  0  0  0  0  0  0  0
   -1.0567   13.5023    0.1150 H   0  0  0  0  0  0  0  0  0  0  0  0
   -1.5652   14.2717   -1.4264 H   0  0  0  0  0  0  0  0  0  0  0  0
   -0.9412   12.5873   -1.4264 H   0  0  0  0  0  0  0  0  0  0  0  0
  1  2  1  0
  2  3  1  0
  3  4  1  0
  4  5  1  0
  5  6  1  0
  6  7  1  0
  7  8  1  0
  7  9  1  0
  2 10  1  0
 10 11  1  0
 11 12  1  0
 12 13  1  0
 13 14  1  1
 13 15  1  0
 15 16  1  0
 16 17  1  0
 17 18  2  0
 18 19  1  0
 19 20  1  0
 20 21  1  0
 21 22  1  0
 22 23  1  0
 22 24  1  0
 24 25  1  0
 24 26  1  0
 19 27  1  0
 27 28  1  6
 27 29  1  0
 29 30  1  0
 30 31  1  0
 31 32  1  6
  7  5  1  0
 31 10  1  0
 31 13  1  0
 27 15  1  0
 24 18  1  0
  1 33  1  0
  1 34  1  0
  1 35  1  0
  2 36  1  6
  3 37  1  0
  3 38  1  0
  4 39  1  0
  4 40  1  0
  5 41  1  1
  8 42  1  0
  8 43  1  0
  8 44  1  0
  9 45  1  0
  9 46  1  0
  9 47  1  0
 10 48  1  6
 11 49  1  0
 11 50  1  0
 12 51  1  0
 12 52  1  0
 14 53  1  0
 14 54  1  0
 14 55  1  0
 15 56  1  1
 16 57  1  0
 16 58  1  0
 17 59  1  0
 19 60  1  6
 20 61  1  0
 20 62  1  0
 21 63  1  0
 21 64  1  0
 22 65  1  6
 23 66  1  0
 25 67  1  0
 25 68  1  0
 25 69  1  0
 26 70  1  0
 26 71  1  0
 26 72  1  0
 28 73  1  0
 28 74  1  0
 28 75  1  0
 29 76  1  0
 29 77  1  0
 30 78  1  0
 30 79  1  0
 32 80  1  0
 32 81  1  0
 32 82  1  0
M  END
>  <meeko>  (12) 
{"is_sidechain": [false], "intermolecular_energy": 2.731, "internal_energy": -0.839}

$$$$
EPH_relaxed_0001_pdb2pqr_Repair_191_r2_0001_out
     RDKit          3D

 82 86  0  0  0  0  0  0  0  0999 V2000
   -1.8100   18.2050    0.4930 C   0  0  0  0  0  0  0  0  0  0  0  0
   -0.3990   18.1310    1.0810 C   0  0  2  0  0  0  0  0  0  0  0  0
    0.3390   19.4830    0.9940 C   0  0  0  0  0  0  0  0  0  0  0  0
    0.2160   20.1640   -0.3720 C   0  0  0  0  0  0  0  0  0  0  0  0
    1.3760   19.8330   -1.2620 C   0  0  2  0  0  0  0  0  0  0  0  0
    1.1970   20.1940   -2.6380 O   0  0  0  0  0  0  0  0  0  0  0  0
    1.3160   18.7900   -2.3620 C   0  0  0  0  0  0  0  0  0  0  0  0
    0.0680   18.0090   -2.6290 C   0  0  0  0  0  0  0  0  0  0  0  0
    2.5970   18.1870   -2.8460 C   0  0  0  0  0  0  0  0  0  0  0  0
    0.4060   17.0520    0.3680 C   0  0  1  0  0  0  0  0  0  0  0  0
    1.9380   17.2750    0.4820 C   0  0  0  0  0  0  0  0  0  0  0  0
    2.5890   15.8700    0.5690 C   0  0  0  0  0  0  0  0  0  0  0  0
    1.4600   14.8910    0.1720 C   0  0  1  0  0  0  0  0  0  0  0  0
    1.4340   14.9210   -1.3890 C   0  0  0  0  0  0  0  0  0  0  0  0
    1.5860   13.4320    0.7190 C   0  0  2  0  0  0  0  0  0  0  0  0
    2.8230   12.6570    0.2340 C   0  0  0  0  0  0  0  0  0  0  0  0
    2.6310   11.8700   -1.0200 C   0  0  0  0  0  0  0  0  0  0  0  0
    1.4440   11.5570   -1.5730 C   0  0  0  0  0  0  0  0  0  0  0  0
    0.1280   11.9230   -0.8740 C   0  0  1  0  0  0  0  0  0  0  0  0
   -0.8240   10.6980   -0.8900 C   0  0  0  0  0  0  0  0  0  0  0  0
   -1.0440   10.1460   -2.2950 C   0  0  0  0  0  0  0  0  0  0  0  0
    0.2810    9.7400   -2.9350 C   0  0  2  0  0  0  0  0  0  0  0  0
    0.8170    8.6240   -2.2170 O   0  0  0  0  0  0  0  0  0  0  0  0
    1.3250   10.8920   -2.9660 C   0  0  0  0  0  0  0  0  0  0  0  0
    0.8790   11.9700   -3.9840 C   0  0  0  0  0  0  0  0  0  0  0  0
    2.6600   10.3110   -3.5060 C   0  0  0  0  0  0  0  0  0  0  0  0
    0.2680   12.5690    0.5720 C   0  0  1  0  0  0  0  0  0  0  0  0
    0.3480   11.4460    1.6510 C   0  0  0  0  0  0  0  0  0  0  0  0
   -1.0310   13.4000    0.8910 C   0  0  0  0  0  0  0  0  0  0  0  0
   -1.0460   14.8690    0.4290 C   0  0  0  0  0  0  0  0  0  0  0  0
    0.2330   15.5930    0.8600 C   0  0  2  0  0  0  0  0  0  0  0  0
    0.2750   15.5990    2.4260 C   0  0  0  0  0  0  0  0  0  0  0  0
   -2.5460   18.2436    1.3096 H   0  0  0  0  0  0  0  0  0  0  0  0
   -1.9021   19.1092   -0.1266 H   0  0  0  0  0  0  0  0  0  0  0  0
   -1.9961   17.3154   -0.1266 H   0  0  0  0  0  0  0  0  0  0  0  0
   -0.4985   17.8772    2.1467 H   0  0  0  0  0  0  0  0  0  0  0  0
   -0.0787   20.1565    1.7568 H   0  0  0  0  0  0  0  0  0  0  0  0
    1.4074   19.2773    1.1559 H   0  0  0  0  0  0  0  0  0  0  0  0
   -0.7125   19.8271   -0.8562 H   0  0  0  0  0  0  0  0  0  0  0  0
    0.2048   21.2524   -0.2132 H   0  0  0  0  0  0  0  0  0  0  0  0
    2.0853   19.9955   -0.4371 H   0  0  0  0  0  0  0  0  0  0  0  0
   -0.3947   17.7194   -1.6740 H   0  0  0  0  0  0  0  0  0  0  0  0
   -0.6358   18.6280   -3.2047 H   0  0  0  0  0  0  0  0  0  0  0  0
    0.3171   17.1053   -3.2047 H   0  0  0  0  0  0  0  0  0  0  0  0
    3.2144   17.8964   -1.9833 H   0  0  0  0  0  0  0  0  0  0  0  0
    2.3766   17.2981   -3.4553 H   0  0  0  0  0  0  0  0  0  0  0  0
    3.1417   18.9233   -3.4553 H   0  0  0  0  0  0  0  0  0  0  0  0
   -0.0039   17.1580   -0.6473 H   0  0  0  0  0  0  0  0  0  0  0  0
    2.3098   17.8107   -0.4039 H   0  0  0  0  0  0  0  0  0  0  0  0
    2.1844   17.8801    1.3669 H   0  0  0  0  0  0  0  0  0  0  0  0
    3.4353   15.7903   -0.1292 H   0  0  0  0  0  0  0  0  0  0  0  0
    2.9913   15.6583    1.5707 H   0  0  0  0  0  0  0  0  0  0  0  0
    0.7489   15.7115   -1.7292 H   0  0  0  0  0  0  0  0  0  0  0  0
    2.4461   15.1245   -1.7687 H   0  0  0  0  0  0  0  0  0  0  0  0
    1.0887   13.9481   -1.7687 H   0  0  0  0  0  0  0  0  0  0  0  0
    1.7413   13.5966    1.7955 H   0  0  0  0  0  0  0  0  0  0  0  0
    3.6317   13.3821    0.0598 H   0  0  0  0  0  0  0  0  0  0  0  0
    3.0509   11.9238    1.0217 H   0  0  0  0  0  0  0  0  0  0  0  0
    3.5358   11.5159   -1.5358 H   0  0  0  0  0  0  0  0  0  0  0  0
   -0.3106   12.7442   -1.4599 H   0  0  0  0  0  0  0  0  0  0  0  0
   -0.3889    9.9052   -0.2639 H   0  0  0  0  0  0  0  0  0  0  0  0
   -1.7998   11.0286   -0.5047 H   0  0  0  0  0  0  0  0  0  0  0  0
   -1.7007    9.2654   -2.2371 H   0  0  0  0  0  0  0  0  0  0  0  0
   -1.5063   10.9305   -2.9121 H   0  0  0  0  0  0  0  0  0  0  0  0
    0.0742    9.4760   -3.9826 H   0  0  0  0  0  0  0  0  0  0  0  0
    0.6970    8.8000   -1.2680 H   0  0  0  0  0  0  0  0  0  0  0  0
    0.5127   12.8554   -3.4437 H   0  0  0  0  0  0  0  0  0  0  0  0
    1.7336   12.2536   -4.6158 H   0  0  0  0  0  0  0  0  0  0  0  0
    0.0738   11.5669   -4.6158 H   0  0  0  0  0  0  0  0  0  0  0  0
    3.3059   10.0299   -2.6611 H   0  0  0  0  0  0  0  0  0  0  0  0
    2.4515    9.4222   -4.1197 H   0  0  0  0  0  0  0  0  0  0  0  0
    3.1683   11.0693   -4.1197 H   0  0  0  0  0  0  0  0  0  0  0  0
    0.3158   11.8977    2.6535 H   0  0  0  0  0  0  0  0  0  0  0  0
   -0.5036   10.7602    1.5303 H   0  0  0  0  0  0  0  0  0  0  0  0
    1.2882   10.8879    1.5303 H   0  0  0  0  0  0  0  0  0  0  0  0
   -1.8786   12.8908    0.4090 H   0  0  0  0  0  0  0  0  0  0  0  0
   -1.0831   13.4428    1.9889 H   0  0  0  0  0  0  0  0  0  0  0  0
   -1.1250   14.9004   -0.6677 H   0  0  0  0  0  0  0  0  0  0  0  0
   -1.9071   15.3732    0.8919 H   0  0  0  0  0  0  0  0  0  0  0  0
   -0.7415   15.4538    2.8206 H   0  0  0  0  0  0  0  0  0  0  0  0
    0.9250   14.7846    2.7785 H   0  0  0  0  0  0  0  0  0  0  0  0
    0.6710   16.5628    2.7785 H   0  0  0  0  0  0  0  0  0  0  0  0
  1  2  1  0
  2  3  1  0
  3  4  1  0
  4  5  1  0
  5  6  1  0
  6  7  1  0
  7  8  1  0
  7  9  1  0
  2 10  1  0
 10 11  1  0
 11 12  1  0
 12 13  1  0
 13 14  1  6
 13 15  1  0
 15 16  1  0
 16 17  1  0
 17 18  2  0
 18 19  1  0
 19 20  1  0
 20 21  1  0
 21 22  1  0
 22 23  1  0
 22 24  1  0
 24 25  1  0
 24 26  1  0
 19 27  1  0
 27 28  1  1
 27 29  1  0
 29 30  1  0
 30 31  1  0
 31 32  1  1
  7  5  1  0
 31 10  1  0
 31 13  1  0
 27 15  1  0
 24 18  1  0
  1 33  1  0
  1 34  1  0
  1 35  1  0
  2 36  1  1
  3 37  1  0
  3 38  1  0
  4 39  1  0
  4 40  1  0
  5 41  1  1
  8 42  1  0
  8 43  1  0
  8 44  1  0
  9 45  1  0
  9 46  1  0
  9 47  1  0
 10 48  1  6
 11 49  1  0
 11 50  1  0
 12 51  1  0
 12 52  1  0
 14 53  1  0
 14 54  1  0
 14 55  1  0
 15 56  1  1
 16 57  1  0
 16 58  1  0
 17 59  1  0
 19 60  1  6
 20 61  1  0
 20 62  1  0
 21 63  1  0
 21 64  1  0
 22 65  1  6
 23 66  1  0
 25 67  1  0
 25 68  1  0
 25 69  1  0
 26 70  1  0
 26 71  1  0
 26 72  1  0
 28 73  1  0
 28 74  1  0
 28 75  1  0
 29 76  1  0
 29 77  1  0
 30 78  1  0
 30 79  1  0
 32 80  1  0
 32 81  1  0
 32 82  1  0
M  END
>  <meeko>  (13) 
{"is_sidechain": [false], "intermolecular_energy": 2.731, "internal_energy": -0.839}

$$$$
EPH_relaxed_0001_pdb2pqr_Repair_191_r2_0001_out
     RDKit          3D

 82 86  0  0  0  0  0  0  0  0999 V2000
    1.0510   17.4840    1.6820 C   0  0  0  0  0  0  0  0  0  0  0  0
    1.9630   16.5200    0.9170 C   0  0  2  0  0  0  0  0  0  0  0  0
    2.9270   17.2620   -0.0300 C   0  0  0  0  0  0  0  0  0  0  0  0
    2.5290   18.7160   -0.2990 C   0  0  0  0  0  0  0  0  0  0  0  0
    1.7110   18.8450   -1.5480 C   0  0  2  0  0  0  0  0  0  0  0  0
    1.4460   20.1940   -1.9540 O   0  0  0  0  0  0  0  0  0  0  0  0
    0.3040   19.4100   -1.5720 C   0  0  0  0  0  0  0  0  0  0  0  0
   -0.3690   19.8830   -0.3210 C   0  0  0  0  0  0  0  0  0  0  0  0
   -0.5920   19.0530   -2.7170 C   0  0  0  0  0  0  0  0  0  0  0  0
    1.1220   15.5240    0.1280 C   0  0  1  0  0  0  0  0  0  0  0  0
    0.5650   16.1250   -1.1910 C   0  0  0  0  0  0  0  0  0  0  0  0
    0.5510   14.9770   -2.2330 C   0  0  0  0  0  0  0  0  0  0  0  0
    0.7800   13.6930   -1.4030 C   0  0  1  0  0  0  0  0  0  0  0  0
   -0.6220   13.3420   -0.8120 C   0  0  0  0  0  0  0  0  0  0  0  0
    1.4040   12.4790   -2.1660 C   0  0  2  0  0  0  0  0  0  0  0  0
    0.5520   11.9270   -3.3220 C   0  0  0  0  0  0  0  0  0  0  0  0
   -0.4020   10.8410   -2.9490 C   0  0  0  0  0  0  0  0  0  0  0  0
   -0.3720   10.1330   -1.8050 C   0  0  0  0  0  0  0  0  0  0  0  0
    0.7560   10.3320   -0.7840 C   0  0  1  0  0  0  0  0  0  0  0  0
    1.2870    8.9490   -0.3240 C   0  0  0  0  0  0  0  0  0  0  0  0
    0.1780    8.0420    0.2020 C   0  0  0  0  0  0  0  0  0  0  0  0
   -0.8950    7.8210   -0.8610 C   0  0  2  0  0  0  0  0  0  0  0  0
   -0.3290    7.0690   -1.9390 O   0  0  0  0  0  0  0  0  0  0  0  0
   -1.4970    9.1450   -1.4080 C   0  0  0  0  0  0  0  0  0  0  0  0
   -2.3670    9.8130   -0.3140 C   0  0  0  0  0  0  0  0  0  0  0  0
   -2.4620    8.7870   -2.5700 C   0  0  0  0  0  0  0  0  0  0  0  0
    1.9220   11.3180   -1.2240 C   0  0  1  0  0  0  0  0  0  0  0  0
    3.0030   10.5370   -2.0320 C   0  0  0  0  0  0  0  0  0  0  0  0
    2.6420   11.8690    0.0640 C   0  0  0  0  0  0  0  0  0  0  0  0
    2.0480   13.1390    0.7020 C   0  0  0  0  0  0  0  0  0  0  0  0
    1.8190   14.2270   -0.3520 C   0  0  2  0  0  0  0  0  0  0  0  0
    3.2150   14.6160   -0.9490 C   0  0  0  0  0  0  0  0  0  0  0  0
    1.1886   17.3385    2.7636 H   0  0  0  0  0  0  0  0  0  0  0  0
    1.3071   18.5201    1.4159 H   0  0  0  0  0  0  0  0  0  0  0  0
    0.0023   17.2856    1.4159 H   0  0  0  0  0  0  0  0  0  0  0  0
    2.5746   15.9846    1.6582 H   0  0  0  0  0  0  0  0  0  0  0  0
    3.9305   17.2544    0.4204 H   0  0  0  0  0  0  0  0  0  0  0  0
    2.8962   16.7366   -0.9959 H   0  0  0  0  0  0  0  0  0  0  0  0
    1.9403   19.0878    0.5526 H   0  0  0  0  0  0  0  0  0  0  0  0
    3.4490   19.3047   -0.4294 H   0  0  0  0  0  0  0  0  0  0  0  0
    2.1399   17.9162   -1.9523 H   0  0  0  0  0  0  0  0  0  0  0  0
    0.1751   19.5006    0.5552 H   0  0  0  0  0  0  0  0  0  0  0  0
   -0.3719   20.9828   -0.2995 H   0  0  0  0  0  0  0  0  0  0  0  0
   -1.4047   19.5132   -0.2995 H   0  0  0  0  0  0  0  0  0  0  0  0
   -1.5483   18.6720   -2.3293 H   0  0  0  0  0  0  0  0  0  0  0  0
   -0.7755   19.9467   -3.3315 H   0  0  0  0  0  0  0  0  0  0  0  0
   -0.1106   18.2780   -3.3315 H   0  0  0  0  0  0  0  0  0  0  0  0
    0.3619   15.2839    0.8861 H   0  0  0  0  0  0  0  0  0  0  0  0
   -0.4548   16.5060   -1.0330 H   0  0  0  0  0  0  0  0  0  0  0  0
    1.1858   16.9649   -1.5361 H   0  0  0  0  0  0  0  0  0  0  0  0
   -0.4178   14.9359   -2.7523 H   0  0  0  0  0  0  0  0  0  0  0  0
    1.3159   15.1118   -3.0119 H   0  0  0  0  0  0  0  0  0  0  0  0
   -0.5704   13.3549    0.2867 H   0  0  0  0  0  0  0  0  0  0  0  0
   -1.3597   14.0832   -1.1532 H   0  0  0  0  0  0  0  0  0  0  0  0
   -0.9235   12.3407   -1.1532 H   0  0  0  0  0  0  0  0  0  0  0  0
    2.2912   12.9276   -2.6368 H   0  0  0  0  0  0  0  0  0  0  0  0
   -0.0294   12.7602   -3.7437 H   0  0  0  0  0  0  0  0  0  0  0  0
    1.2599   11.4787   -4.0346 H   0  0  0  0  0  0  0  0  0  0  0  0
   -1.1966   10.5991   -3.6702 H   0  0  0  0  0  0  0  0  0  0  0  0
    0.3058   10.8613    0.0688 H   0  0  0  0  0  0  0  0  0  0  0  0
    1.7709    8.4547   -1.1793 H   0  0  0  0  0  0  0  0  0  0  0  0
    1.9966    9.1205    0.4988 H   0  0  0  0  0  0  0  0  0  0  0  0
    0.6106    7.0709    0.4844 H   0  0  0  0  0  0  0  0  0  0  0  0
   -0.2861    8.5243    1.0749 H   0  0  0  0  0  0  0  0  0  0  0  0
   -1.7218    7.2729   -0.3855 H   0  0  0  0  0  0  0  0  0  0  0  0
    0.3270    7.6350   -2.3800 H   0  0  0  0  0  0  0  0  0  0  0  0
   -1.9920    9.5251    0.6792 H   0  0  0  0  0  0  0  0  0  0  0  0
   -2.3164   10.9065   -0.4222 H   0  0  0  0  0  0  0  0  0  0  0  0
   -3.4103    9.4817   -0.4222 H   0  0  0  0  0  0  0  0  0  0  0  0
   -3.4178    8.4324   -2.1568 H   0  0  0  0  0  0  0  0  0  0  0  0
   -2.6384    9.6795   -3.1883 H   0  0  0  0  0  0  0  0  0  0  0  0
   -2.0136    7.9954   -3.1883 H   0  0  0  0  0  0  0  0  0  0  0  0
    3.6928   10.0386   -1.3350 H   0  0  0  0  0  0  0  0  0  0  0  0
    2.5134    9.7827   -2.6655 H   0  0  0  0  0  0  0  0  0  0  0  0
    3.5654   11.2387   -2.6655 H   0  0  0  0  0  0  0  0  0  0  0  0
    2.6201   11.0736    0.8235 H   0  0  0  0  0  0  0  0  0  0  0  0
    3.6489   12.1590   -0.2709 H   0  0  0  0  0  0  0  0  0  0  0  0
    1.0870   12.8883    1.1749 H   0  0  0  0  0  0  0  0  0  0  0  0
    2.7580   13.5201    1.4507 H   0  0  0  0  0  0  0  0  0  0  0  0
    3.9221   14.8130   -0.1298 H   0  0  0  0  0  0  0  0  0  0  0  0
    3.5924   13.7888   -1.5681 H   0  0  0  0  0  0  0  0  0  0  0  0
    3.1102   15.5192   -1.5681 H   0  0  0  0  0  0  0  0  0  0  0  0
  1  2  1  0
  2  3  1  0
  3  4  1  0
  4  5  1  0
  5  6  1  0
  6  7  1  0
  7  8  1  0
  7  9  1  0
  2 10  1  0
 10 11  1  0
 11 12  1  0
 12 13  1  0
 13 14  1  1
 13 15  1  0
 15 16  1  0
 16 17  1  0
 17 18  2  0
 18 19  1  0
 19 20  1  0
 20 21  1  0
 21 22  1  0
 22 23  1  0
 22 24  1  0
 24 25  1  0
 24 26  1  0
 19 27  1  0
 27 28  1  6
 27 29  1  0
 29 30  1  0
 30 31  1  0
 31 32  1  6
  7  5  1  0
 31 10  1  0
 31 13  1  0
 27 15  1  0
 24 18  1  0
  1 33  1  0
  1 34  1  0
  1 35  1  0
  2 36  1  1
  3 37  1  0
  3 38  1  0
  4 39  1  0
  4 40  1  0
  5 41  1  6
  8 42  1  0
  8 43  1  0
  8 44  1  0
  9 45  1  0
  9 46  1  0
  9 47  1  0
 10 48  1  1
 11 49  1  0
 11 50  1  0
 12 51  1  0
 12 52  1  0
 14 53  1  0
 14 54  1  0
 14 55  1  0
 15 56  1  6
 16 57  1  0
 16 58  1  0
 17 59  1  0
 19 60  1  1
 20 61  1  0
 20 62  1  0
 21 63  1  0
 21 64  1  0
 22 65  1  1
 23 66  1  0
 25 67  1  0
 25 68  1  0
 25 69  1  0
 26 70  1  0
 26 71  1  0
 26 72  1  0
 28 73  1  0
 28 74  1  0
 28 75  1  0
 29 76  1  0
 29 77  1  0
 30 78  1  0
 30 79  1  0
 32 80  1  0
 32 81  1  0
 32 82  1  0
M  END
>  <meeko>  (14) 
{"is_sidechain": [false], "intermolecular_energy": 2.731, "internal_energy": -0.839}

$$$$
EPH_relaxed_0001_pdb2pqr_Repair_191_r2_0001_out
     RDKit          3D

 82 86  0  0  0  0  0  0  0  0999 V2000
   -1.4120   15.3670    1.3550 C   0  0  0  0  0  0  0  0  0  0  0  0
   -0.1640   16.0390    0.7770 C   0  0  2  0  0  0  0  0  0  0  0  0
   -0.4830   16.8760   -0.4780 C   0  0  0  0  0  0  0  0  0  0  0  0
    0.0570   18.3070   -0.4170 C   0  0  0  0  0  0  0  0  0  0  0  0
    1.5060   18.3370   -0.0350 C   0  0  2  0  0  0  0  0  0  0  0  0
    2.2410   19.4500   -0.5610 O   0  0  0  0  0  0  0  0  0  0  0  0
    2.6370   18.1510   -1.0300 C   0  0  0  0  0  0  0  0  0  0  0  0
    2.3680   17.9200   -2.4840 C   0  0  0  0  0  0  0  0  0  0  0  0
    3.9730   17.7070   -0.5200 C   0  0  0  0  0  0  0  0  0  0  0  0
    0.8880   14.9860    0.4460 C   0  0  1  0  0  0  0  0  0  0  0  0
    1.1850   14.0420    1.6420 C   0  0  0  0  0  0  0  0  0  0  0  0
    1.4750   12.6410    1.0450 C   0  0  0  0  0  0  0  0  0  0  0  0
    1.6640   12.8940   -0.4700 C   0  0  1  0  0  0  0  0  0  0  0  0
    3.1340   13.3990   -0.6120 C   0  0  0  0  0  0  0  0  0  0  0  0
    1.3750   11.6820   -1.4140 C   0  0  2  0  0  0  0  0  0  0  0  0
    2.2920   10.4630   -1.2090 C   0  0  0  0  0  0  0  0  0  0  0  0
    3.5340   10.4530   -2.0380 C   0  0  0  0  0  0  0  0  0  0  0  0
    3.7630   11.2310   -3.1120 C   0  0  0  0  0  0  0  0  0  0  0  0
    2.6770   12.1690   -3.6520 C   0  0  1  0  0  0  0  0  0  0  0  0
    2.5850   12.0240   -5.1940 C   0  0  0  0  0  0  0  0  0  0  0  0
    3.9310   12.2330   -5.8820 C   0  0  0  0  0  0  0  0  0  0  0  0
    4.9700   11.2430   -5.3600 C   0  0  2  0  0  0  0  0  0  0  0  0
    4.5900    9.9230   -5.7610 O   0  0  0  0  0  0  0  0  0  0  0  0
    5.1410   11.2920   -3.8160 C   0  0  0  0  0  0  0  0  0  0  0  0
    5.8360   12.6150   -3.4110 C   0  0  0  0  0  0  0  0  0  0  0  0
    6.1110   10.1500   -3.4080 C   0  0  0  0  0  0  0  0  0  0  0  0
    1.2570   12.0660   -2.9440 C   0  0  1  0  0  0  0  0  0  0  0  0
    0.4060   10.9470   -3.6200 C   0  0  0  0  0  0  0  0  0  0  0  0
    0.4740   13.4140   -3.1640 C   0  0  0  0  0  0  0  0  0  0  0  0
    0.7100   14.5310   -2.1310 C   0  0  0  0  0  0  0  0  0  0  0  0
    0.5670   13.9970   -0.7020 C   0  0  2  0  0  0  0  0  0  0  0  0
   -0.9080   13.5020   -0.5220 C   0  0  0  0  0  0  0  0  0  0  0  0
   -1.3661   15.3917    2.4538 H   0  0  0  0  0  0  0  0  0  0  0  0
   -2.3091   15.9040    1.0133 H   0  0  0  0  0  0  0  0  0  0  0  0
   -1.4575   14.3224    1.0133 H   0  0  0  0  0  0  0  0  0  0  0  0
    0.2253   16.7264    1.5425 H   0  0  0  0  0  0  0  0  0  0  0  0
   -0.0404   16.3748   -1.3514 H   0  0  0  0  0  0  0  0  0  0  0  0
   -1.5785   16.9485   -0.5461 H   0  0  0  0  0  0  0  0  0  0  0  0
   -0.0608   18.7749   -1.4055 H   0  0  0  0  0  0  0  0  0  0  0  0
   -0.5109   18.8554    0.3490 H   0  0  0  0  0  0  0  0  0  0  0  0
    1.2860   17.8580    0.9305 H   0  0  0  0  0  0  0  0  0  0  0  0
    1.5377   17.2070   -2.5945 H   0  0  0  0  0  0  0  0  0  0  0  0
    2.0992   18.8730   -2.9631 H   0  0  0  0  0  0  0  0  0  0  0  0
    3.2694   17.5102   -2.9631 H   0  0  0  0  0  0  0  0  0  0  0  0
    3.9649   17.7097    0.5800 H   0  0  0  0  0  0  0  0  0  0  0  0
    4.1845   16.6903   -0.8827 H   0  0  0  0  0  0  0  0  0  0  0  0
    4.7510   18.3949   -0.8827 H   0  0  0  0  0  0  0  0  0  0  0  0
    1.7213   15.6425    0.1552 H   0  0  0  0  0  0  0  0  0  0  0  0
    2.0601   14.4037    2.2018 H   0  0  0  0  0  0  0  0  0  0  0  0
    0.3337   14.0063    2.3377 H   0  0  0  0  0  0  0  0  0  0  0  0
    2.3883   12.2131    1.4842 H   0  0  0  0  0  0  0  0  0  0  0  0
    0.6663   11.9243    1.2506 H   0  0  0  0  0  0  0  0  0  0  0  0
    3.5686   13.5483    0.3874 H   0  0  0  0  0  0  0  0  0  0  0  0
    3.7265   12.6529   -1.1618 H   0  0  0  0  0  0  0  0  0  0  0  0
    3.1429   14.3517   -1.1618 H   0  0  0  0  0  0  0  0  0  0  0  0
    0.3745   11.3617   -1.0879 H   0  0  0  0  0  0  0  0  0  0  0  0
    2.5896   10.4357   -0.1504 H   0  0  0  0  0  0  0  0  0  0  0  0
    1.7079    9.5861   -1.5250 H   0  0  0  0  0  0  0  0  0  0  0  0
    4.3287    9.7506   -1.7463 H   0  0  0  0  0  0  0  0  0  0  0  0
    2.9999   13.1879   -3.3921 H   0  0  0  0  0  0  0  0  0  0  0  0
    2.2202   11.0140   -5.4322 H   0  0  0  0  0  0  0  0  0  0  0  0
    1.8974   12.7997   -5.5622 H   0  0  0  0  0  0  0  0  0  0  0  0
    3.8079   12.0880   -6.9654 H   0  0  0  0  0  0  0  0  0  0  0  0
    4.2801   13.2540   -5.6680 H   0  0  0  0  0  0  0  0  0  0  0  0
    5.9416   11.5251   -5.7917 H   0  0  0  0  0  0  0  0  0  0  0  0
    5.3500    9.3370   -5.6010 H   0  0  0  0  0  0  0  0  0  0  0  0
    5.8744   12.6881   -2.3141 H   0  0  0  0  0  0  0  0  0  0  0  0
    6.8588   12.6307   -3.8156 H   0  0  0  0  0  0  0  0  0  0  0  0
    5.2686   13.4661   -3.8156 H   0  0  0  0  0  0  0  0  0  0  0  0
    6.1636   10.0880   -2.3110 H   0  0  0  0  0  0  0  0  0  0  0  0
    5.7437    9.1951   -3.8120 H   0  0  0  0  0  0  0  0  0  0  0  0
    7.1128   10.3580   -3.8120 H   0  0  0  0  0  0  0  0  0  0  0  0
   -0.0661   10.3262   -2.8442 H   0  0  0  0  0  0  0  0  0  0  0  0
   -0.3729   11.4065   -4.2462 H   0  0  0  0  0  0  0  0  0  0  0  0
    1.0569   10.3192   -4.2462 H   0  0  0  0  0  0  0  0  0  0  0  0
    0.7598   13.8075   -4.1506 H   0  0  0  0  0  0  0  0  0  0  0  0
   -0.5888   13.1490   -3.0633 H   0  0  0  0  0  0  0  0  0  0  0  0
    1.7243   14.9354   -2.2640 H   0  0  0  0  0  0  0  0  0  0  0  0
   -0.0425   15.3179   -2.2879 H   0  0  0  0  0  0  0  0  0  0  0  0
   -1.1403   13.4240    0.5504 H   0  0  0  0  0  0  0  0  0  0  0  0
   -1.5956   14.2186   -0.9950 H   0  0  0  0  0  0  0  0  0  0  0  0
   -1.0241   12.5157   -0.9950 H   0  0  0  0  0  0  0  0  0  0  0  0
  1  2  1  0
  2  3  1  0
  3  4  1  0
  4  5  1  0
  5  6  1  0
  6  7  1  0
  7  8  1  0
  7  9  1  0
  2 10  1  0
 10 11  1  0
 11 12  1  0
 12 13  1  0
 13 14  1  1
 13 15  1  0
 15 16  1  0
 16 17  1  0
 17 18  2  0
 18 19  1  0
 19 20  1  0
 20 21  1  0
 21 22  1  0
 22 23  1  0
 22 24  1  0
 24 25  1  0
 24 26  1  0
 19 27  1  0
 27 28  1  6
 27 29  1  0
 29 30  1  0
 30 31  1  0
 31 32  1  1
  7  5  1  0
 31 10  1  0
 31 13  1  0
 27 15  1  0
 24 18  1  0
  1 33  1  0
  1 34  1  0
  1 35  1  0
  2 36  1  1
  3 37  1  0
  3 38  1  0
  4 39  1  0
  4 40  1  0
  5 41  1  1
  8 42  1  0
  8 43  1  0
  8 44  1  0
  9 45  1  0
  9 46  1  0
  9 47  1  0
 10 48  1  6
 11 49  1  0
 11 50  1  0
 12 51  1  0
 12 52  1  0
 14 53  1  0
 14 54  1  0
 14 55  1  0
 15 56  1  1
 16 57  1  0
 16 58  1  0
 17 59  1  0
 19 60  1  6
 20 61  1  0
 20 62  1  0
 21 63  1  0
 21 64  1  0
 22 65  1  6
 23 66  1  0
 25 67  1  0
 25 68  1  0
 25 69  1  0
 26 70  1  0
 26 71  1  0
 26 72  1  0
 28 73  1  0
 28 74  1  0
 28 75  1  0
 29 76  1  0
 29 77  1  0
 30 78  1  0
 30 79  1  0
 32 80  1  0
 32 81  1  0
 32 82  1  0
M  END
>  <meeko>  (15) 
{"is_sidechain": [false], "intermolecular_energy": 2.731, "internal_energy": -0.839}

$$$$
EPH_relaxed_0001_pdb2pqr_Repair_191_r2_0001_out
     RDKit          3D

 82 86  0  0  0  0  0  0  0  0999 V2000
   -5.2780    5.7630   -1.6830 C   0  0  0  0  0  0  0  0  0  0  0  0
   -5.5110    7.2660   -1.8620 C   0  0  2  0  0  0  0  0  0  0  0  0
   -5.2150    8.0570   -0.5720 C   0  0  0  0  0  0  0  0  0  0  0  0
   -4.2290    9.2110   -0.7710 C   0  0  0  0  0  0  0  0  0  0  0  0
   -2.8490    8.8460   -0.3160 C   0  0  2  0  0  0  0  0  0  0  0  0
   -2.3340    9.6570    0.7480 O   0  0  0  0  0  0  0  0  0  0  0  0
   -1.6400    9.7430   -0.5070 C   0  0  0  0  0  0  0  0  0  0  0  0
   -1.7560   11.0760   -1.1770 C   0  0  0  0  0  0  0  0  0  0  0  0
   -0.2780    9.1220   -0.4850 C   0  0  0  0  0  0  0  0  0  0  0  0
   -6.9460    7.5190   -2.3110 C   0  0  1  0  0  0  0  0  0  0  0  0
   -7.2810    6.8270   -3.6590 C   0  0  0  0  0  0  0  0  0  0  0  0
   -8.7640    6.3830   -3.5770 C   0  0  0  0  0  0  0  0  0  0  0  0
   -9.3230    7.1180   -2.3370 C   0  0  1  0  0  0  0  0  0  0  0  0
   -9.6510    8.5590   -2.8390 C   0  0  0  0  0  0  0  0  0  0  0  0
  -10.5550    6.4560   -1.6380 C   0  0  2  0  0  0  0  0  0  0  0  0
  -11.8210    6.3530   -2.5070 C   0  0  0  0  0  0  0  0  0  0  0  0
  -12.7510    7.5170   -2.4190 C   0  0  0  0  0  0  0  0  0  0  0  0
  -12.7260    8.4680   -1.4660 C   0  0  0  0  0  0  0  0  0  0  0  0
  -11.7510    8.3750   -0.2860 C   0  0  1  0  0  0  0  0  0  0  0  0
  -12.5070    8.6720    1.0360 C   0  0  0  0  0  0  0  0  0  0  0  0
  -13.2510   10.0040    0.9970 C   0  0  0  0  0  0  0  0  0  0  0  0
  -14.2530   10.0350   -0.1540 C   0  0  2  0  0  0  0  0  0  0  0  0
  -15.2870    9.0810    0.1080 O   0  0  0  0  0  0  0  0  0  0  0  0
  -13.6070    9.7400   -1.5370 C   0  0  0  0  0  0  0  0  0  0  0  0
  -12.7090   10.9300   -1.9570 C   0  0  0  0  0  0  0  0  0  0  0  0
  -14.7460    9.6620   -2.5890 C   0  0  0  0  0  0  0  0  0  0  0  0
  -10.8830    7.0460   -0.2070 C   0  0  1  0  0  0  0  0  0  0  0  0
  -11.6710    5.9410    0.5610 C   0  0  0  0  0  0  0  0  0  0  0  0
   -9.5830    7.3300    0.6360 C   0  0  0  0  0  0  0  0  0  0  0  0
   -8.3620    7.8710   -0.1320 C   0  0  0  0  0  0  0  0  0  0  0  0
   -8.0800    7.0260   -1.3790 C   0  0  2  0  0  0  0  0  0  0  0  0
   -7.7250    5.5760   -0.9030 C   0  0  0  0  0  0  0  0  0  0  0  0
   -5.2408    5.5229   -0.6102 H   0  0  0  0  0  0  0  0  0  0  0  0
   -6.1005    5.2057   -2.1551 H   0  0  0  0  0  0  0  0  0  0  0  0
   -4.3254    5.4808   -2.1551 H   0  0  0  0  0  0  0  0  0  0  0  0
   -4.8118    7.6202   -2.6338 H   0  0  0  0  0  0  0  0  0  0  0  0
   -6.1614    8.4701   -0.1930 H   0  0  0  0  0  0  0  0  0  0  0  0
   -4.7502    7.3552    0.1362 H   0  0  0  0  0  0  0  0  0  0  0  0
   -4.1950    9.4705   -1.8394 H   0  0  0  0  0  0  0  0  0  0  0  0
   -4.5740   10.0643   -0.1686 H   0  0  0  0  0  0  0  0  0  0  0  0
   -3.0267    7.7865   -0.5525 H   0  0  0  0  0  0  0  0  0  0  0  0
   -1.8247   11.8652   -0.4138 H   0  0  0  0  0  0  0  0  0  0  0  0
   -0.8695   11.2492   -1.8048 H   0  0  0  0  0  0  0  0  0  0  0  0
   -2.6591   11.0935   -1.8048 H   0  0  0  0  0  0  0  0  0  0  0  0
    0.0417    8.9762    0.5574 H   0  0  0  0  0  0  0  0  0  0  0  0
   -0.3101    8.1495   -0.9981 H   0  0  0  0  0  0  0  0  0  0  0  0
    0.4351    9.7839   -0.9981 H   0  0  0  0  0  0  0  0  0  0  0  0
   -6.9376    8.6185   -2.3438 H   0  0  0  0  0  0  0  0  0  0  0  0
   -7.1422    7.5322   -4.4917 H   0  0  0  0  0  0  0  0  0  0  0  0
   -6.6200    5.9658   -3.8360 H   0  0  0  0  0  0  0  0  0  0  0  0
   -9.3096    6.6818   -4.4842 H   0  0  0  0  0  0  0  0  0  0  0  0
   -8.8687    5.2909   -3.4971 H   0  0  0  0  0  0  0  0  0  0  0  0
   -9.8021    9.2228   -1.9749 H   0  0  0  0  0  0  0  0  0  0  0  0
   -8.8153    8.9342   -3.4479 H   0  0  0  0  0  0  0  0  0  0  0  0
  -10.5668    8.5356   -3.4479 H   0  0  0  0  0  0  0  0  0  0  0  0
  -10.2120    5.4220   -1.4859 H   0  0  0  0  0  0  0  0  0  0  0  0
  -11.5059    6.2482   -3.5557 H   0  0  0  0  0  0  0  0  0  0  0  0
  -12.3815    5.4862   -2.1267 H   0  0  0  0  0  0  0  0  0  0  0  0
  -13.5220    7.6055   -3.1985 H   0  0  0  0  0  0  0  0  0  0  0  0
  -10.9879    9.1477   -0.4610 H   0  0  0  0  0  0  0  0  0  0  0  0
  -13.2346    7.8666    1.2149 H   0  0  0  0  0  0  0  0  0  0  0  0
  -11.7608    8.7293    1.8422 H   0  0  0  0  0  0  0  0  0  0  0  0
  -13.7887   10.1441    1.9464 H   0  0  0  0  0  0  0  0  0  0  0  0
  -12.5188   10.8111    0.8472 H   0  0  0  0  0  0  0  0  0  0  0  0
  -14.6598   11.0555   -0.2094 H   0  0  0  0  0  0  0  0  0  0  0  0
  -15.6650    9.2890    0.9790 H   0  0  0  0  0  0  0  0  0  0  0  0
  -12.3270   11.4362   -1.0582 H   0  0  0  0  0  0  0  0  0  0  0  0
  -11.8642   10.5585   -2.5555 H   0  0  0  0  0  0  0  0  0  0  0  0
  -13.2980   11.6405   -2.5555 H   0  0  0  0  0  0  0  0  0  0  0  0
  -15.7161    9.5956   -2.0748 H   0  0  0  0  0  0  0  0  0  0  0  0
  -14.7258   10.5636   -3.2188 H   0  0  0  0  0  0  0  0  0  0  0  0
  -14.6031    8.7715   -3.2188 H   0  0  0  0  0  0  0  0  0  0  0  0
  -11.5597    6.0970    1.6442 H   0  0  0  0  0  0  0  0  0  0  0  0
  -12.7358    5.9947    0.2903 H   0  0  0  0  0  0  0  0  0  0  0  0
  -11.2733    4.9518    0.2903 H   0  0  0  0  0  0  0  0  0  0  0  0
   -9.8427    8.0671    1.4101 H   0  0  0  0  0  0  0  0  0  0  0  0
   -9.2693    6.3485    1.0211 H   0  0  0  0  0  0  0  0  0  0  0  0
   -8.5602    8.9089   -0.4379 H   0  0  0  0  0  0  0  0  0  0  0  0
   -7.4837    7.8254    0.5286 H   0  0  0  0  0  0  0  0  0  0  0  0
   -7.7168    5.5427    0.1965 H   0  0  0  0  0  0  0  0  0  0  0  0
   -8.4768    4.8701   -1.2856 H   0  0  0  0  0  0  0  0  0  0  0  0
   -6.7321    5.2973   -1.2856 H   0  0  0  0  0  0  0  0  0  0  0  0
  1  2  1  0
  2  3  1  0
  3  4  1  0
  4  5  1  0
  5  6  1  0
  6  7  1  0
  7  8  1  0
  7  9  1  0
  2 10  1  0
 10 11  1  0
 11 12  1  0
 12 13  1  0
 13 14  1  6
 13 15  1  0
 15 16  1  0
 16 17  1  0
 17 18  2  0
 18 19  1  0
 19 20  1  0
 20 21  1  0
 21 22  1  0
 22 23  1  0
 22 24  1  0
 24 25  1  0
 24 26  1  0
 19 27  1  0
 27 28  1  1
 27 29  1  0
 29 30  1  0
 30 31  1  0
 31 32  1  1
  7  5  1  0
 31 10  1  0
 31 13  1  0
 27 15  1  0
 24 18  1  0
  1 33  1  0
  1 34  1  0
  1 35  1  0
  2 36  1  6
  3 37  1  0
  3 38  1  0
  4 39  1  0
  4 40  1  0
  5 41  1  1
  8 42  1  0
  8 43  1  0
  8 44  1  0
  9 45  1  0
  9 46  1  0
  9 47  1  0
 10 48  1  6
 11 49  1  0
 11 50  1  0
 12 51  1  0
 12 52  1  0
 14 53  1  0
 14 54  1  0
 14 55  1  0
 15 56  1  1
 16 57  1  0
 16 58  1  0
 17 59  1  0
 19 60  1  6
 20 61  1  0
 20 62  1  0
 21 63  1  0
 21 64  1  0
 22 65  1  6
 23 66  1  0
 25 67  1  0
 25 68  1  0
 25 69  1  0
 26 70  1  0
 26 71  1  0
 26 72  1  0
 28 73  1  0
 28 74  1  0
 28 75  1  0
 29 76  1  0
 29 77  1  0
 30 78  1  0
 30 79  1  0
 32 80  1  0
 32 81  1  0
 32 82  1  0
M  END
>  <meeko>  (16) 
{"is_sidechain": [false], "intermolecular_energy": 2.731, "internal_energy": -0.839}

$$$$
EPH_relaxed_0001_pdb2pqr_Repair_191_r2_0001_out
     RDKit          3D

 82 86  0  0  0  0  0  0  0  0999 V2000
    0.2870   17.7410    1.4240 C   0  0  0  0  0  0  0  0  0  0  0  0
    1.3590   17.1990    0.4750 C   0  0  2  0  0  0  0  0  0  0  0  0
    1.9360   18.2990   -0.4390 C   0  0  0  0  0  0  0  0  0  0  0  0
    2.1780   19.6300    0.2780 C   0  0  0  0  0  0  0  0  0  0  0  0
    3.5430   19.6880    0.8940 C   0  0  2  0  0  0  0  0  0  0  0  0
    3.9510   18.4860    1.5600 O   0  0  0  0  0  0  0  0  0  0  0  0
    3.7890   19.6470    2.3910 C   0  0  0  0  0  0  0  0  0  0  0  0
    2.6570   19.5450    3.3640 C   0  0  0  0  0  0  0  0  0  0  0  0
    5.0770   20.1950    2.9200 C   0  0  0  0  0  0  0  0  0  0  0  0
    0.7830   16.0690   -0.3710 C   0  0  1  0  0  0  0  0  0  0  0  0
    0.5930   16.4720   -1.8570 C   0  0  0  0  0  0  0  0  0  0  0  0
    0.8840   15.2070   -2.7040 C   0  0  0  0  0  0  0  0  0  0  0  0
    0.9050   14.0480   -1.6800 C   0  0  1  0  0  0  0  0  0  0  0  0
   -0.5970   13.6970   -1.4420 C   0  0  0  0  0  0  0  0  0  0  0  0
    1.7360   12.7860   -2.0820 C   0  0  2  0  0  0  0  0  0  0  0  0
    1.2400   12.0510   -3.3390 C   0  0  0  0  0  0  0  0  0  0  0  0
    0.2420   10.9680   -3.0930 C   0  0  0  0  0  0  0  0  0  0  0  0
   -0.0250   10.4080   -1.8980 C   0  0  0  0  0  0  0  0  0  0  0  0
    0.7800   10.7920   -0.6500 C   0  0  1  0  0  0  0  0  0  0  0  0
    1.1940    9.5070    0.1140 C   0  0  0  0  0  0  0  0  0  0  0  0
    0.0030    8.6120    0.4410 C   0  0  0  0  0  0  0  0  0  0  0  0
   -0.7380    8.2040   -0.8300 C   0  0  2  0  0  0  0  0  0  0  0  0
    0.1140    7.3580   -1.6080 O   0  0  0  0  0  0  0  0  0  0  0  0
   -1.1960    9.4170   -1.6880 C   0  0  0  0  0  0  0  0  0  0  0  0
   -2.3420   10.1640   -0.9620 C   0  0  0  0  0  0  0  0  0  0  0  0
   -1.8030    8.8660   -3.0060 C   0  0  0  0  0  0  0  0  0  0  0  0
    2.0020   11.7800   -0.8900 C   0  0  1  0  0  0  0  0  0  0  0  0
    3.2770   10.9660   -1.2710 C   0  0  0  0  0  0  0  0  0  0  0  0
    2.3360   12.5220    0.4570 C   0  0  0  0  0  0  0  0  0  0  0  0
    1.5660   13.8270    0.7410 C   0  0  0  0  0  0  0  0  0  0  0  0
    1.6100   14.7630   -0.4710 C   0  0  2  0  0  0  0  0  0  0  0  0
    3.1070   15.1520   -0.7210 C   0  0  0  0  0  0  0  0  0  0  0  0
    0.6040   17.5807    2.4651 H   0  0  0  0  0  0  0  0  0  0  0  0
    0.1486   18.8174    1.2444 H   0  0  0  0  0  0  0  0  0  0  0  0
   -0.6619   17.2143    1.2444 H   0  0  0  0  0  0  0  0  0  0  0  0
    2.1843   16.8166    1.0936 H   0  0  0  0  0  0  0  0  0  0  0  0
    2.8943   17.9447   -0.8465 H   0  0  0  0  0  0  0  0  0  0  0  0
    1.1901   18.4880   -1.2251 H   0  0  0  0  0  0  0  0  0  0  0  0
    2.0800   20.4495   -0.4492 H   0  0  0  0  0  0  0  0  0  0  0  0
    1.4344   19.7259    1.0829 H   0  0  0  0  0  0  0  0  0  0  0  0
    3.8941   20.3720    0.1073 H   0  0  0  0  0  0  0  0  0  0  0  0
    3.0513   19.5805    4.3903 H   0  0  0  0  0  0  0  0  0  0  0  0
    1.9631   20.3843    3.2085 H   0  0  0  0  0  0  0  0  0  0  0  0
    2.1243   18.5952    3.2085 H   0  0  0  0  0  0  0  0  0  0  0  0
    5.0552   20.1857    4.0197 H   0  0  0  0  0  0  0  0  0  0  0  0
    5.9129   19.5746    2.5646 H   0  0  0  0  0  0  0  0  0  0  0  0
    5.2097   21.2275    2.5646 H   0  0  0  0  0  0  0  0  0  0  0  0
   -0.1497   15.8824    0.1815 H   0  0  0  0  0  0  0  0  0  0  0  0
   -0.4386   16.8133   -2.0280 H   0  0  0  0  0  0  0  0  0  0  0  0
    1.2682   17.2956   -2.1323 H   0  0  0  0  0  0  0  0  0  0  0  0
    0.0928   15.0500   -3.4520 H   0  0  0  0  0  0  0  0  0  0  0  0
    1.8282   15.2872   -3.2626 H   0  0  0  0  0  0  0  0  0  0  0  0
   -0.7959   13.6505   -0.3611 H   0  0  0  0  0  0  0  0  0  0  0  0
   -1.2313   14.4711   -1.8986 H   0  0  0  0  0  0  0  0  0  0  0  0
   -0.8225   12.7220   -1.8986 H   0  0  0  0  0  0  0  0  0  0  0  0
    2.7086   13.2206   -2.3561 H   0  0  0  0  0  0  0  0  0  0  0  0
    0.7783   12.7933   -4.0067 H   0  0  0  0  0  0  0  0  0  0  0  0
    2.1232   11.5581   -3.7715 H   0  0  0  0  0  0  0  0  0  0  0  0
   -0.3225   10.5964   -3.9609 H   0  0  0  0  0  0  0  0  0  0  0  0
    0.1049   11.3962   -0.0261 H   0  0  0  0  0  0  0  0  0  0  0  0
    1.9015    8.9392   -0.5082 H   0  0  0  0  0  0  0  0  0  0  0  0
    1.6504    9.8167    1.0658 H   0  0  0  0  0  0  0  0  0  0  0  0
    0.3623    7.7078    0.9542 H   0  0  0  0  0  0  0  0  0  0  0  0
   -0.6896    9.1713    1.0871 H   0  0  0  0  0  0  0  0  0  0  0  0
   -1.6520    7.6738   -0.5241 H   0  0  0  0  0  0  0  0  0  0  0  0
   -0.4450    6.6760   -2.0180 H   0  0  0  0  0  0  0  0  0  0  0  0
   -2.2060   10.0754    0.1260 H   0  0  0  0  0  0  0  0  0  0  0  0
   -2.3265   11.2260   -1.2481 H   0  0  0  0  0  0  0  0  0  0  0  0
   -3.3074    9.7212   -1.2481 H   0  0  0  0  0  0  0  0  0  0  0  0
   -2.5984    8.1439   -2.7696 H   0  0  0  0  0  0  0  0  0  0  0  0
   -2.2240    9.6968   -3.5912 H   0  0  0  0  0  0  0  0  0  0  0  0
   -1.0167    8.3668   -3.5912 H   0  0  0  0  0  0  0  0  0  0  0  0
    3.7902   10.6384   -0.3549 H   0  0  0  0  0  0  0  0  0  0  0  0
    2.9866   10.0858   -1.8634 H   0  0  0  0  0  0  0  0  0  0  0  0
    3.9533   11.5998   -1.8634 H   0  0  0  0  0  0  0  0  0  0  0  0
    2.1256   11.8252    1.2818 H   0  0  0  0  0  0  0  0  0  0  0  0
    3.3899   12.8236    0.3659 H   0  0  0  0  0  0  0  0  0  0  0  0
    0.5180   13.5841    0.9705 H   0  0  0  0  0  0  0  0  0  0  0  0
    2.0386   14.3351    1.5945 H   0  0  0  0  0  0  0  0  0  0  0  0
    3.6175   15.2847    0.2443 H   0  0  0  0  0  0  0  0  0  0  0  0
    3.6031   14.3530   -1.2914 H   0  0  0  0  0  0  0  0  0  0  0  0
    3.1514   16.0915   -1.2914 H   0  0  0  0  0  0  0  0  0  0  0  0
  1  2  1  0
  2  3  1  0
  3  4  1  0
  4  5  1  0
  5  6  1  0
  6  7  1  0
  7  8  1  0
  7  9  1  0
  2 10  1  0
 10 11  1  0
 11 12  1  0
 12 13  1  0
 13 14  1  1
 13 15  1  0
 15 16  1  0
 16 17  1  0
 17 18  2  0
 18 19  1  0
 19 20  1  0
 20 21  1  0
 21 22  1  0
 22 23  1  0
 22 24  1  0
 24 25  1  0
 24 26  1  0
 19 27  1  0
 27 28  1  6
 27 29  1  0
 29 30  1  0
 30 31  1  0
 31 32  1  6
  7  5  1  0
 31 10  1  0
 31 13  1  0
 27 15  1  0
 24 18  1  0
  1 33  1  0
  1 34  1  0
  1 35  1  0
  2 36  1  1
  3 37  1  0
  3 38  1  0
  4 39  1  0
  4 40  1  0
  5 41  1  6
  8 42  1  0
  8 43  1  0
  8 44  1  0
  9 45  1  0
  9 46  1  0
  9 47  1  0
 10 48  1  1
 11 49  1  0
 11 50  1  0
 12 51  1  0
 12 52  1  0
 14 53  1  0
 14 54  1  0
 14 55  1  0
 15 56  1  6
 16 57  1  0
 16 58  1  0
 17 59  1  0
 19 60  1  1
 20 61  1  0
 20 62  1  0
 21 63  1  0
 21 64  1  0
 22 65  1  1
 23 66  1  0
 25 67  1  0
 25 68  1  0
 25 69  1  0
 26 70  1  0
 26 71  1  0
 26 72  1  0
 28 73  1  0
 28 74  1  0
 28 75  1  0
 29 76  1  0
 29 77  1  0
 30 78  1  0
 30 79  1  0
 32 80  1  0
 32 81  1  0
 32 82  1  0
M  END
>  <meeko>  (17) 
{"is_sidechain": [false], "intermolecular_energy": 2.731, "internal_energy": -0.839}

$$$$
