EPH_relaxed_0001_pdb2pqr_Repair_294_r2_0001_out
     RDKit          3D

 82 86  0  0  0  0  0  0  0  0999 V2000
    2.2210   19.2990   -0.5510 C   0  0  0  0  0  0  0  0  0  0  0  0
    2.4000   18.1180    0.4060 C   0  0  2  0  0  0  0  0  0  0  0  0
    3.8430   17.5750    0.3960 C   0  0  0  0  0  0  0  0  0  0  0  0
    4.8540   18.5030    1.0760 C   0  0  0  0  0  0  0  0  0  0  0  0
    4.3250   19.0460    2.3690 C   0  0  2  0  0  0  0  0  0  0  0  0
    5.0500   20.1700    2.8870 O   0  0  0  0  0  0  0  0  0  0  0  0
    5.0850   18.9720    3.6800 C   0  0  0  0  0  0  0  0  0  0  0  0
    6.4380   18.3370    3.7640 C   0  0  0  0  0  0  0  0  0  0  0  0
    4.3150   19.0740    4.9600 C   0  0  0  0  0  0  0  0  0  0  0  0
    1.4230   17.0050    0.0460 C   0  0  1  0  0  0  0  0  0  0  0  0
    0.2260   17.5120   -0.8030 C   0  0  0  0  0  0  0  0  0  0  0  0
   -0.1360   16.3720   -1.7900 C   0  0  0  0  0  0  0  0  0  0  0  0
    0.6320   15.1390   -1.2610 C   0  0  1  0  0  0  0  0  0  0  0  0
   -0.2520   14.5840   -0.0990 C   0  0  0  0  0  0  0  0  0  0  0  0
    0.9660   14.0300   -2.3110 C   0  0  2  0  0  0  0  0  0  0  0  0
   -0.2560   13.3530   -2.9570 C   0  0  0  0  0  0  0  0  0  0  0  0
   -0.7590   12.1380   -2.2510 C   0  0  0  0  0  0  0  0  0  0  0  0
   -0.0890   11.4460   -1.3120 C   0  0  0  0  0  0  0  0  0  0  0  0
    1.3540   11.8140   -0.9410 C   0  0  1  0  0  0  0  0  0  0  0  0
    2.2190   10.5270   -0.8860 C   0  0  0  0  0  0  0  0  0  0  0  0
    1.6310    9.4660    0.0390 C   0  0  0  0  0  0  0  0  0  0  0  0
    0.2190    9.0840   -0.3970 C   0  0  2  0  0  0  0  0  0  0  0  0
    0.2900    8.4220   -1.6630 O   0  0  0  0  0  0  0  0  0  0  0  0
   -0.7420   10.3020   -0.4970 C   0  0  0  0  0  0  0  0  0  0  0  0
   -1.0570   10.8350    0.9230 C   0  0  0  0  0  0  0  0  0  0  0  0
   -2.0900    9.8000   -1.0810 C   0  0  0  0  0  0  0  0  0  0  0  0
    2.0220   12.9620   -1.8130 C   0  0  1  0  0  0  0  0  0  0  0  0
    2.6730   12.3490   -3.0900 C   0  0  0  0  0  0  0  0  0  0  0  0
    3.1930   13.6180   -0.9890 C   0  0  0  0  0  0  0  0  0  0  0  0
    2.8180   14.7870   -0.0580 C   0  0  0  0  0  0  0  0  0  0  0  0
    1.9680   15.8250   -0.7970 C   0  0  2  0  0  0  0  0  0  0  0  0
    2.8380   16.4160   -1.9580 C   0  0  0  0  0  0  0  0  0  0  0  0
    2.0809   20.2230    0.0291 H   0  0  0  0  0  0  0  0  0  0  0  0
    3.1147   19.3960   -1.1849 H   0  0  0  0  0  0  0  0  0  0  0  0
    1.3387   19.1268   -1.1849 H   0  0  0  0  0  0  0  0  0  0  0  0
    2.1916   18.4822    1.4228 H   0  0  0  0  0  0  0  0  0  0  0  0
    3.8536   16.6071    0.9186 H   0  0  0  0  0  0  0  0  0  0  0  0
    4.1460   17.4860   -0.6577 H   0  0  0  0  0  0  0  0  0  0  0  0
    5.7767   17.9389    1.2771 H   0  0  0  0  0  0  0  0  0  0  0  0
    5.0492   19.3503    0.4023 H   0  0  0  0  0  0  0  0  0  0  0  0
    3.2976   18.7644    2.0949 H   0  0  0  0  0  0  0  0  0  0  0  0
    6.7167   18.2062    4.8200 H   0  0  0  0  0  0  0  0  0  0  0  0
    6.4142   17.3560    3.2668 H   0  0  0  0  0  0  0  0  0  0  0  0
    7.1773   18.9822    3.2668 H   0  0  0  0  0  0  0  0  0  0  0  0
    5.0054   18.9825    5.8115 H   0  0  0  0  0  0  0  0  0  0  0  0
    3.8049   20.0476    5.0045 H   0  0  0  0  0  0  0  0  0  0  0  0
    3.5690   18.2668    5.0045 H   0  0  0  0  0  0  0  0  0  0  0  0
    1.1609   16.6563    1.0558 H   0  0  0  0  0  0  0  0  0  0  0  0
   -0.6320   17.7365   -0.1523 H   0  0  0  0  0  0  0  0  0  0  0  0
    0.4868   18.4343   -1.3428 H   0  0  0  0  0  0  0  0  0  0  0  0
   -1.2200   16.1851   -1.7865 H   0  0  0  0  0  0  0  0  0  0  0  0
    0.1338   16.6176   -2.8277 H   0  0  0  0  0  0  0  0  0  0  0  0
    0.1939   14.8640    0.8668 H   0  0  0  0  0  0  0  0  0  0  0  0
   -1.2638   15.0093   -0.1727 H   0  0  0  0  0  0  0  0  0  0  0  0
   -0.3087   13.4879   -0.1727 H   0  0  0  0  0  0  0  0  0  0  0  0
    1.4487   14.6051   -3.1149 H   0  0  0  0  0  0  0  0  0  0  0  0
   -1.0732   14.0886   -2.9919 H   0  0  0  0  0  0  0  0  0  0  0  0
    0.0737   13.0134   -3.9499 H   0  0  0  0  0  0  0  0  0  0  0  0
   -1.7626   11.7779   -2.5214 H   0  0  0  0  0  0  0  0  0  0  0  0
    1.3042   12.2725    0.0576 H   0  0  0  0  0  0  0  0  0  0  0  0
    2.2932   10.1084   -1.9005 H   0  0  0  0  0  0  0  0  0  0  0  0
    3.2067   10.8052   -0.4896 H   0  0  0  0  0  0  0  0  0  0  0  0
    2.2703    8.5712    0.0127 H   0  0  0  0  0  0  0  0  0  0  0  0
    1.5847    9.8759    1.0587 H   0  0  0  0  0  0  0  0  0  0  0  0
   -0.1959    8.4197    0.3753 H   0  0  0  0  0  0  0  0  0  0  0  0
    0.0150    9.0590   -2.3440 H   0  0  0  0  0  0  0  0  0  0  0  0
   -0.6479   10.1427    1.6736 H   0  0  0  0  0  0  0  0  0  0  0  0
   -0.6002   11.8273    1.0519 H   0  0  0  0  0  0  0  0  0  0  0  0
   -2.1466   10.9134    1.0519 H   0  0  0  0  0  0  0  0  0  0  0  0
   -2.7740    9.5453   -0.2580 H   0  0  0  0  0  0  0  0  0  0  0  0
   -2.5390   10.5912   -1.6994 H   0  0  0  0  0  0  0  0  0  0  0  0
   -1.9121    8.9078   -1.6994 H   0  0  0  0  0  0  0  0  0  0  0  0
    3.4446   11.6224   -2.7955 H   0  0  0  0  0  0  0  0  0  0  0  0
    1.9012   11.8421   -3.6878 H   0  0  0  0  0  0  0  0  0  0  0  0
    3.1326   13.1499   -3.6878 H   0  0  0  0  0  0  0  0  0  0  0  0
    3.6450   12.8303   -0.3684 H   0  0  0  0  0  0  0  0  0  0  0  0
    3.8654   14.0545   -1.7423 H   0  0  0  0  0  0  0  0  0  0  0  0
    2.2467   14.3970    0.7972 H   0  0  0  0  0  0  0  0  0  0  0  0
    3.7433   15.2721    0.2863 H   0  0  0  0  0  0  0  0  0  0  0  0
    3.6774   16.9862   -1.5335 H   0  0  0  0  0  0  0  0  0  0  0  0
    3.2284   15.5954   -2.5779 H   0  0  0  0  0  0  0  0  0  0  0  0
    2.2191   17.0813   -2.5779 H   0  0  0  0  0  0  0  0  0  0  0  0
  1  2  1  0
  2  3  1  0
  3  4  1  0
  4  5  1  0
  5  6  1  0
  6  7  1  0
  7  8  1  0
  7  9  1  0
  2 10  1  0
 10 11  1  0
 11 12  1  0
 12 13  1  0
 13 14  1  1
 13 15  1  0
 15 16  1  0
 16 17  1  0
 17 18  2  0
 18 19  1  0
 19 20  1  0
 20 21  1  0
 21 22  1  0
 22 23  1  0
 22 24  1  0
 24 25  1  0
 24 26  1  0
 19 27  1  0
 27 28  1  6
 27 29  1  0
 29 30  1  0
 30 31  1  0
 31 32  1  6
  7  5  1  0
 31 10  1  0
 31 13  1  0
 27 15  1  0
 24 18  1  0
  1 33  1  0
  1 34  1  0
  1 35  1  0
  2 36  1  1
  3 37  1  0
  3 38  1  0
  4 39  1  0
  4 40  1  0
  5 41  1  1
  8 42  1  0
  8 43  1  0
  8 44  1  0
  9 45  1  0
  9 46  1  0
  9 47  1  0
 10 48  1  1
 11 49  1  0
 11 50  1  0
 12 51  1  0
 12 52  1  0
 14 53  1  0
 14 54  1  0
 14 55  1  0
 15 56  1  6
 16 57  1  0
 16 58  1  0
 17 59  1  0
 19 60  1  1
 20 61  1  0
 20 62  1  0
 21 63  1  0
 21 64  1  0
 22 65  1  1
 23 66  1  0
 25 67  1  0
 25 68  1  0
 25 69  1  0
 26 70  1  0
 26 71  1  0
 26 72  1  0
 28 73  1  0
 28 74  1  0
 28 75  1  0
 29 76  1  0
 29 77  1  0
 30 78  1  0
 30 79  1  0
 32 80  1  0
 32 81  1  0
 32 82  1  0
M  END
>  <meeko>  (1) 
{"is_sidechain": [false], "intermolecular_energy": 2.731, "internal_energy": -0.839}

$$$$
EPH_relaxed_0001_pdb2pqr_Repair_294_r2_0001_out
     RDKit          3D

 82 86  0  0  0  0  0  0  0  0999 V2000
    0.4230   18.2460    0.1230 C   0  0  0  0  0  0  0  0  0  0  0  0
    1.4450   17.1250   -0.0870 C   0  0  2  0  0  0  0  0  0  0  0  0
    2.6810   17.6050   -0.8730 C   0  0  0  0  0  0  0  0  0  0  0  0
    3.9010   17.8850    0.0080 C   0  0  0  0  0  0  0  0  0  0  0  0
    3.5140   18.5420    1.2980 C   0  0  2  0  0  0  0  0  0  0  0  0
    3.8170   19.9410    1.3720 O   0  0  0  0  0  0  0  0  0  0  0  0
    4.5200   19.0910    2.2930 C   0  0  0  0  0  0  0  0  0  0  0  0
    5.9930   19.0070    2.0400 C   0  0  0  0  0  0  0  0  0  0  0  0
    4.0960   19.2650    3.7180 C   0  0  0  0  0  0  0  0  0  0  0  0
    0.7900   15.9540   -0.8100 C   0  0  1  0  0  0  0  0  0  0  0  0
    0.4570   16.2770   -2.2910 C   0  0  0  0  0  0  0  0  0  0  0  0
    0.6650   14.9670   -3.0930 C   0  0  0  0  0  0  0  0  0  0  0  0
    0.7850   13.8650   -2.0150 C   0  0  1  0  0  0  0  0  0  0  0  0
   -0.6860   13.5340   -1.6140 C   0  0  0  0  0  0  0  0  0  0  0  0
    1.5750   12.5790   -2.4260 C   0  0  2  0  0  0  0  0  0  0  0  0
    0.9600   11.7790   -3.5880 C   0  0  0  0  0  0  0  0  0  0  0  0
   -0.0090   10.7170   -3.1880 C   0  0  0  0  0  0  0  0  0  0  0  0
   -0.1600   10.2230   -1.9450 C   0  0  0  0  0  0  0  0  0  0  0  0
    0.7620   10.6690   -0.8030 C   0  0  1  0  0  0  0  0  0  0  0  0
    1.2480    9.4260   -0.0130 C   0  0  0  0  0  0  0  0  0  0  0  0
    0.0950    8.5550    0.4750 C   0  0  0  0  0  0  0  0  0  0  0  0
   -0.7650    8.0830   -0.6950 C   0  0  2  0  0  0  0  0  0  0  0  0
    0.0070    7.1920   -1.5050 O   0  0  0  0  0  0  0  0  0  0  0  0
   -1.3040    9.2500   -1.5690 C   0  0  0  0  0  0  0  0  0  0  0  0
   -2.3750   10.0410   -0.7780 C   0  0  0  0  0  0  0  0  0  0  0  0
   -2.0360    8.6320   -2.7910 C   0  0  0  0  0  0  0  0  0  0  0  0
    1.9550   11.6370   -1.2130 C   0  0  1  0  0  0  0  0  0  0  0  0
    3.1870   10.7980   -1.6700 C   0  0  0  0  0  0  0  0  0  0  0  0
    2.4170   12.4490    0.0540 C   0  0  0  0  0  0  0  0  0  0  0  0
    1.6780   13.7710    0.3390 C   0  0  0  0  0  0  0  0  0  0  0  0
    1.6040   14.6400   -0.9190 C   0  0  2  0  0  0  0  0  0  0  0  0
    3.0700   15.0070   -1.3340 C   0  0  0  0  0  0  0  0  0  0  0  0
    0.2741   18.4093    1.2006 H   0  0  0  0  0  0  0  0  0  0  0  0
    0.7941   19.1721   -0.3404 H   0  0  0  0  0  0  0  0  0  0  0  0
   -0.5333   17.9619   -0.3404 H   0  0  0  0  0  0  0  0  0  0  0  0
    1.7911   16.8025    0.9061 H   0  0  0  0  0  0  0  0  0  0  0  0
    2.9512   16.8280   -1.6033 H   0  0  0  0  0  0  0  0  0  0  0  0
    2.4067   18.5559   -1.3532 H   0  0  0  0  0  0  0  0  0  0  0  0
    4.4063   16.9335    0.2301 H   0  0  0  0  0  0  0  0  0  0  0  0
    4.5687   18.5679   -0.5378 H   0  0  0  0  0  0  0  0  0  0  0  0
    2.6574   17.8618    1.4142 H   0  0  0  0  0  0  0  0  0  0  0  0
    6.5288   18.9764    3.0002 H   0  0  0  0  0  0  0  0  0  0  0  0
    6.2152   18.0947    1.4669 H   0  0  0  0  0  0  0  0  0  0  0  0
    6.3174   19.8881    1.4669 H   0  0  0  0  0  0  0  0  0  0  0  0
    4.9055   18.9328    4.3846 H   0  0  0  0  0  0  0  0  0  0  0  0
    3.8764   20.3259    3.9083 H   0  0  0  0  0  0  0  0  0  0  0  0
    3.1945   18.6641    3.9083 H   0  0  0  0  0  0  0  0  0  0  0  0
   -0.0845   15.8023   -0.1602 H   0  0  0  0  0  0  0  0  0  0  0  0
   -0.5864   16.6137   -2.3797 H   0  0  0  0  0  0  0  0  0  0  0  0
    1.1025   17.0810   -2.6743 H   0  0  0  0  0  0  0  0  0  0  0  0
   -0.1947   14.7741   -3.7516 H   0  0  0  0  0  0  0  0  0  0  0  0
    1.5507   15.0123   -3.7438 H   0  0  0  0  0  0  0  0  0  0  0  0
   -0.7717   13.5147   -0.5175 H   0  0  0  0  0  0  0  0  0  0  0  0
   -1.3589   14.3032   -2.0209 H   0  0  0  0  0  0  0  0  0  0  0  0
   -0.9646   12.5507   -2.0209 H   0  0  0  0  0  0  0  0  0  0  0  0
    2.5165   12.9943   -2.8148 H   0  0  0  0  0  0  0  0  0  0  0  0
    0.4360   12.4862   -4.2478 H   0  0  0  0  0  0  0  0  0  0  0  0
    1.7973   11.2588   -4.0762 H   0  0  0  0  0  0  0  0  0  0  0  0
   -0.6549   10.3025   -3.9760 H   0  0  0  0  0  0  0  0  0  0  0  0
    0.1497   11.3089   -0.1506 H   0  0  0  0  0  0  0  0  0  0  0  0
    1.8933    8.8222   -0.6680 H   0  0  0  0  0  0  0  0  0  0  0  0
    1.7927    9.7854    0.8725 H   0  0  0  0  0  0  0  0  0  0  0  0
    0.5030    7.6780    0.9988 H   0  0  0  0  0  0  0  0  0  0  0  0
   -0.5324    9.1510    1.1541 H   0  0  0  0  0  0  0  0  0  0  0  0
   -1.6448    7.5746   -0.2736 H   0  0  0  0  0  0  0  0  0  0  0  0
    0.9220    7.5210   -1.5140 H   0  0  0  0  0  0  0  0  0  0  0  0
   -2.2025    9.9136    0.3009 H   0  0  0  0  0  0  0  0  0  0  0  0
   -2.3080   11.1081   -1.0365 H   0  0  0  0  0  0  0  0  0  0  0  0
   -3.3752    9.6632   -1.0365 H   0  0  0  0  0  0  0  0  0  0  0  0
   -2.8325    7.9595   -2.4397 H   0  0  0  0  0  0  0  0  0  0  0  0
   -2.4764    9.4356   -3.3995 H   0  0  0  0  0  0  0  0  0  0  0  0
   -1.3176    8.0631   -3.3995 H   0  0  0  0  0  0  0  0  0  0  0  0
    3.7280   10.4296   -0.7859 H   0  0  0  0  0  0  0  0  0  0  0  0
    2.8456    9.9439   -2.2732 H   0  0  0  0  0  0  0  0  0  0  0  0
    3.8567   11.4286   -2.2732 H   0  0  0  0  0  0  0  0  0  0  0  0
    2.2867   11.7989    0.9317 H   0  0  0  0  0  0  0  0  0  0  0  0
    3.4574   12.7396   -0.1537 H   0  0  0  0  0  0  0  0  0  0  0  0
    0.6571   13.5459    0.6814 H   0  0  0  0  0  0  0  0  0  0  0  0
    2.2314   14.3220    1.1137 H   0  0  0  0  0  0  0  0  0  0  0  0
    3.6794   15.1596   -0.4310 H   0  0  0  0  0  0  0  0  0  0  0  0
    3.4979   14.1883   -1.9311 H   0  0  0  0  0  0  0  0  0  0  0  0
    3.0617   15.9308   -1.9311 H   0  0  0  0  0  0  0  0  0  0  0  0
  1  2  1  0
  2  3  1  0
  3  4  1  0
  4  5  1  0
  5  6  1  0
  6  7  1  0
  7  8  1  0
  7  9  1  0
  2 10  1  0
 10 11  1  0
 11 12  1  0
 12 13  1  0
 13 14  1  1
 13 15  1  0
 15 16  1  0
 16 17  1  0
 17 18  2  0
 18 19  1  0
 19 20  1  0
 20 21  1  0
 21 22  1  0
 22 23  1  0
 22 24  1  0
 24 25  1  0
 24 26  1  0
 19 27  1  0
 27 28  1  6
 27 29  1  0
 29 30  1  0
 30 31  1  0
 31 32  1  6
  7  5  1  0
 31 10  1  0
 31 13  1  0
 27 15  1  0
 24 18  1  0
  1 33  1  0
  1 34  1  0
  1 35  1  0
  2 36  1  1
  3 37  1  0
  3 38  1  0
  4 39  1  0
  4 40  1  0
  5 41  1  1
  8 42  1  0
  8 43  1  0
  8 44  1  0
  9 45  1  0
  9 46  1  0
  9 47  1  0
 10 48  1  1
 11 49  1  0
 11 50  1  0
 12 51  1  0
 12 52  1  0
 14 53  1  0
 14 54  1  0
 14 55  1  0
 15 56  1  6
 16 57  1  0
 16 58  1  0
 17 59  1  0
 19 60  1  1
 20 61  1  0
 20 62  1  0
 21 63  1  0
 21 64  1  0
 22 65  1  1
 23 66  1  0
 25 67  1  0
 25 68  1  0
 25 69  1  0
 26 70  1  0
 26 71  1  0
 26 72  1  0
 28 73  1  0
 28 74  1  0
 28 75  1  0
 29 76  1  0
 29 77  1  0
 30 78  1  0
 30 79  1  0
 32 80  1  0
 32 81  1  0
 32 82  1  0
M  END
>  <meeko>  (2) 
{"is_sidechain": [false], "intermolecular_energy": 2.731, "internal_energy": -0.839}

$$$$
EPH_relaxed_0001_pdb2pqr_Repair_294_r2_0001_out
     RDKit          3D

 82 86  0  0  0  0  0  0  0  0999 V2000
    3.7020   17.2310    0.8490 C   0  0  0  0  0  0  0  0  0  0  0  0
    2.8600   17.4800   -0.4050 C   0  0  2  0  0  0  0  0  0  0  0  0
    2.2600   18.9000   -0.4290 C   0  0  0  0  0  0  0  0  0  0  0  0
    1.3880   19.2210    0.7880 C   0  0  0  0  0  0  0  0  0  0  0  0
    0.1600   19.9880    0.4030 C   0  0  2  0  0  0  0  0  0  0  0  0
   -0.7760   20.1940    1.4700 O   0  0  0  0  0  0  0  0  0  0  0  0
   -1.2310   19.3820    0.3750 C   0  0  0  0  0  0  0  0  0  0  0  0
   -1.4650   17.9490    0.7370 C   0  0  0  0  0  0  0  0  0  0  0  0
   -2.2810   20.0390   -0.4660 C   0  0  0  0  0  0  0  0  0  0  0  0
    1.7470   16.4430   -0.4980 C   0  0  1  0  0  0  0  0  0  0  0  0
    0.4660   17.0000   -1.1730 C   0  0  0  0  0  0  0  0  0  0  0  0
   -0.1570   15.8340   -1.9830 C   0  0  0  0  0  0  0  0  0  0  0  0
    0.5890   14.5730   -1.4870 C   0  0  1  0  0  0  0  0  0  0  0  0
   -0.1180   14.1880   -0.1490 C   0  0  0  0  0  0  0  0  0  0  0  0
    0.6420   13.3660   -2.4790 C   0  0  2  0  0  0  0  0  0  0  0  0
   -0.7260   12.7650   -2.8490 C   0  0  0  0  0  0  0  0  0  0  0  0
   -1.1940   11.6560   -1.9660 C   0  0  0  0  0  0  0  0  0  0  0  0
   -0.4280   10.9710   -1.0970 C   0  0  0  0  0  0  0  0  0  0  0  0
    1.0820   11.2250   -1.0080 C   0  0  1  0  0  0  0  0  0  0  0  0
    1.8360    9.8690   -0.9900 C   0  0  0  0  0  0  0  0  0  0  0  0
    1.3350    8.9370    0.1090 C   0  0  0  0  0  0  0  0  0  0  0  0
   -0.1580    8.6610   -0.0470 C   0  0  2  0  0  0  0  0  0  0  0  0
   -0.3650    7.9080   -1.2460 O   0  0  0  0  0  0  0  0  0  0  0  0
   -1.0190    9.9550   -0.0880 C   0  0  0  0  0  0  0  0  0  0  0  0
   -1.0340   10.6150    1.3130 C   0  0  0  0  0  0  0  0  0  0  0  0
   -2.4850    9.5440   -0.3900 C   0  0  0  0  0  0  0  0  0  0  0  0
    1.6780   12.2400   -2.0760 C   0  0  1  0  0  0  0  0  0  0  0  0
    2.0420   11.4790   -3.3880 C   0  0  0  0  0  0  0  0  0  0  0  0
    3.0250   12.8380   -1.5220 C   0  0  0  0  0  0  0  0  0  0  0  0
    2.9160   14.1000   -0.6450 C   0  0  0  0  0  0  0  0  0  0  0  0
    2.0370   15.1600   -1.3170 C   0  0  2  0  0  0  0  0  0  0  0  0
    2.7350   15.5820   -2.6540 C   0  0  0  0  0  0  0  0  0  0  0  0
    3.0890   17.4123    1.7442 H   0  0  0  0  0  0  0  0  0  0  0  0
    4.0563   16.1896    0.8519 H   0  0  0  0  0  0  0  0  0  0  0  0
    4.5657   17.9122    0.8519 H   0  0  0  0  0  0  0  0  0  0  0  0
    3.5271   17.3887   -1.2749 H   0  0  0  0  0  0  0  0  0  0  0  0
    3.0861   19.6254   -0.4652 H   0  0  0  0  0  0  0  0  0  0  0  0
    1.6100   18.9592   -1.3145 H   0  0  0  0  0  0  0  0  0  0  0  0
    1.0841   18.2787    1.2673 H   0  0  0  0  0  0  0  0  0  0  0  0
    1.9778   19.8420    1.4782 H   0  0  0  0  0  0  0  0  0  0  0  0
    0.7268   20.5684   -0.3399 H   0  0  0  0  0  0  0  0  0  0  0  0
   -1.4819   17.8455    1.8320 H   0  0  0  0  0  0  0  0  0  0  0  0
   -2.4290   17.6188    0.3226 H   0  0  0  0  0  0  0  0  0  0  0  0
   -0.6561   17.3293    0.3226 H   0  0  0  0  0  0  0  0  0  0  0  0
   -3.0320   20.5089    0.1860 H   0  0  0  0  0  0  0  0  0  0  0  0
   -1.8148   20.8068   -1.1010 H   0  0  0  0  0  0  0  0  0  0  0  0
   -2.7676   19.2840   -1.1010 H   0  0  0  0  0  0  0  0  0  0  0  0
    1.6387   16.1933    0.5678 H   0  0  0  0  0  0  0  0  0  0  0  0
   -0.2427   17.3511   -0.4085 H   0  0  0  0  0  0  0  0  0  0  0  0
    0.7032   17.8522   -1.8269 H   0  0  0  0  0  0  0  0  0  0  0  0
   -1.2351   15.7525   -1.7801 H   0  0  0  0  0  0  0  0  0  0  0  0
   -0.0556   15.9790   -3.0687 H   0  0  0  0  0  0  0  0  0  0  0  0
    0.4964   14.5226    0.6998 H   0  0  0  0  0  0  0  0  0  0  0  0
   -1.1038   14.6739   -0.1021 H   0  0  0  0  0  0  0  0  0  0  0  0
   -0.2447   13.0963   -0.1021 H   0  0  0  0  0  0  0  0  0  0  0  0
    1.0218   13.8339   -3.3992 H   0  0  0  0  0  0  0  0  0  0  0  0
   -1.4737   13.5708   -2.8083 H   0  0  0  0  0  0  0  0  0  0  0  0
   -0.6055   12.3268   -3.8507 H   0  0  0  0  0  0  0  0  0  0  0  0
   -2.2554   11.3748   -2.0312 H   0  0  0  0  0  0  0  0  0  0  0  0
    1.2454   11.7551   -0.0581 H   0  0  0  0  0  0  0  0  0  0  0  0
    1.6963    9.3747   -1.9627 H   0  0  0  0  0  0  0  0  0  0  0  0
    2.8974   10.0792   -0.7921 H   0  0  0  0  0  0  0  0  0  0  0  0
    1.8846    7.9858    0.0523 H   0  0  0  0  0  0  0  0  0  0  0  0
    1.5023    9.4211    1.0825 H   0  0  0  0  0  0  0  0  0  0  0  0
   -0.4831    8.0953    0.8386 H   0  0  0  0  0  0  0  0  0  0  0  0
   -0.5120    8.5400   -1.9690 H   0  0  0  0  0  0  0  0  0  0  0  0
   -1.0162    9.8333    2.0868 H   0  0  0  0  0  0  0  0  0  0  0  0
   -0.1503   11.2606    1.4237 H   0  0  0  0  0  0  0  0  0  0  0  0
   -1.9461   11.2198    1.4237 H   0  0  0  0  0  0  0  0  0  0  0  0
   -3.0256    9.3924    0.5559 H   0  0  0  0  0  0  0  0  0  0  0  0
   -2.9766   10.3389   -0.9700 H   0  0  0  0  0  0  0  0  0  0  0  0
   -2.4917    8.6093   -0.9700 H   0  0  0  0  0  0  0  0  0  0  0  0
    2.5040   10.5132   -3.1355 H   0  0  0  0  0  0  0  0  0  0  0  0
    1.1291   11.3060   -3.9769 H   0  0  0  0  0  0  0  0  0  0  0  0
    2.7496   12.0811   -3.9769 H   0  0  0  0  0  0  0  0  0  0  0  0
    3.5139   12.0567   -0.9215 H   0  0  0  0  0  0  0  0  0  0  0  0
    3.5874   13.1543   -2.4129 H   0  0  0  0  0  0  0  0  0  0  0  0
    2.4736   13.8275    0.3245 H   0  0  0  0  0  0  0  0  0  0  0  0
    3.9238   14.5177   -0.5042 H   0  0  0  0  0  0  0  0  0  0  0  0
    3.6561   16.1389   -2.4269 H   0  0  0  0  0  0  0  0  0  0  0  0
    2.9843   14.6832   -3.2371 H   0  0  0  0  0  0  0  0  0  0  0  0
    2.0549   16.2204   -3.2371 H   0  0  0  0  0  0  0  0  0  0  0  0
  1  2  1  0
  2  3  1  0
  3  4  1  0
  4  5  1  0
  5  6  1  0
  6  7  1  0
  7  8  1  0
  7  9  1  0
  2 10  1  0
 10 11  1  0
 11 12  1  0
 12 13  1  0
 13 14  1  1
 13 15  1  0
 15 16  1  0
 16 17  1  0
 17 18  2  0
 18 19  1  0
 19 20  1  0
 20 21  1  0
 21 22  1  0
 22 23  1  0
 22 24  1  0
 24 25  1  0
 24 26  1  0
 19 27  1  0
 27 28  1  6
 27 29  1  0
 29 30  1  0
 30 31  1  0
 31 32  1  6
  7  5  1  0
 31 10  1  0
 31 13  1  0
 27 15  1  0
 24 18  1  0
  1 33  1  0
  1 34  1  0
  1 35  1  0
  2 36  1  6
  3 37  1  0
  3 38  1  0
  4 39  1  0
  4 40  1  0
  5 41  1  6
  8 42  1  0
  8 43  1  0
  8 44  1  0
  9 45  1  0
  9 46  1  0
  9 47  1  0
 10 48  1  1
 11 49  1  0
 11 50  1  0
 12 51  1  0
 12 52  1  0
 14 53  1  0
 14 54  1  0
 14 55  1  0
 15 56  1  6
 16 57  1  0
 16 58  1  0
 17 59  1  0
 19 60  1  1
 20 61  1  0
 20 62  1  0
 21 63  1  0
 21 64  1  0
 22 65  1  1
 23 66  1  0
 25 67  1  0
 25 68  1  0
 25 69  1  0
 26 70  1  0
 26 71  1  0
 26 72  1  0
 28 73  1  0
 28 74  1  0
 28 75  1  0
 29 76  1  0
 29 77  1  0
 30 78  1  0
 30 79  1  0
 32 80  1  0
 32 81  1  0
 32 82  1  0
M  END
>  <meeko>  (3) 
{"is_sidechain": [false], "intermolecular_energy": 2.731, "internal_energy": -0.839}

$$$$
EPH_relaxed_0001_pdb2pqr_Repair_294_r2_0001_out
     RDKit          3D

 82 86  0  0  0  0  0  0  0  0999 V2000
   -5.1640    5.8420   -1.7010 C   0  0  0  0  0  0  0  0  0  0  0  0
   -5.4560    7.3440   -1.7670 C   0  0  2  0  0  0  0  0  0  0  0  0
   -5.2290    8.0400   -0.4100 C   0  0  0  0  0  0  0  0  0  0  0  0
   -4.1810    9.1550   -0.4570 C   0  0  0  0  0  0  0  0  0  0  0  0
   -2.8210    8.6230   -0.7950 C   0  0  2  0  0  0  0  0  0  0  0  0
   -1.8010    8.9360    0.1630 O   0  0  0  0  0  0  0  0  0  0  0  0
   -1.6400    9.5090   -1.1450 C   0  0  0  0  0  0  0  0  0  0  0  0
   -1.7650   11.0000   -1.1760 C   0  0  0  0  0  0  0  0  0  0  0  0
   -0.5090    8.9170   -1.9270 C   0  0  0  0  0  0  0  0  0  0  0  0
   -6.8860    7.5760   -2.2380 C   0  0  1  0  0  0  0  0  0  0  0  0
   -7.1900    6.8780   -3.5910 C   0  0  0  0  0  0  0  0  0  0  0  0
   -8.6670    6.4120   -3.5320 C   0  0  0  0  0  0  0  0  0  0  0  0
   -9.2570    7.1390   -2.3010 C   0  0  1  0  0  0  0  0  0  0  0  0
   -9.5990    8.5750   -2.8100 C   0  0  0  0  0  0  0  0  0  0  0  0
  -10.4900    6.4590   -1.6220 C   0  0  2  0  0  0  0  0  0  0  0  0
  -11.7400    6.3370   -2.5100 C   0  0  0  0  0  0  0  0  0  0  0  0
  -12.6890    7.4870   -2.4370 C   0  0  0  0  0  0  0  0  0  0  0  0
  -12.6930    8.4380   -1.4850 C   0  0  0  0  0  0  0  0  0  0  0  0
  -11.7350    8.3600   -0.2900 C   0  0  1  0  0  0  0  0  0  0  0  0
  -12.5170    8.6460    1.0200 C   0  0  0  0  0  0  0  0  0  0  0  0
  -13.2800    9.9660    0.9690 C   0  0  0  0  0  0  0  0  0  0  0  0
  -14.2640    9.9830   -0.1980 C   0  0  2  0  0  0  0  0  0  0  0  0
  -15.2870    9.0130    0.0480 O   0  0  0  0  0  0  0  0  0  0  0  0
  -13.5920    9.6960   -1.5700 C   0  0  0  0  0  0  0  0  0  0  0  0
  -12.7060   10.9000   -1.9770 C   0  0  0  0  0  0  0  0  0  0  0  0
  -14.7130    9.6020   -2.6400 C   0  0  0  0  0  0  0  0  0  0  0  0
  -10.8490    7.0440   -0.1960 C   0  0  1  0  0  0  0  0  0  0  0  0
  -11.6330    5.9270    0.5590 C   0  0  0  0  0  0  0  0  0  0  0  0
   -9.5670    7.3480    0.6660 C   0  0  0  0  0  0  0  0  0  0  0  0
   -8.3420    7.9070   -0.0830 C   0  0  0  0  0  0  0  0  0  0  0  0
   -8.0280    7.0660   -1.3240 C   0  0  2  0  0  0  0  0  0  0  0  0
   -7.6590    5.6210   -0.8420 C   0  0  0  0  0  0  0  0  0  0  0  0
   -5.1026    5.5263   -0.6491 H   0  0  0  0  0  0  0  0  0  0  0  0
   -5.9715    5.2891   -2.2033 H   0  0  0  0  0  0  0  0  0  0  0  0
   -4.2082    5.6319   -2.2033 H   0  0  0  0  0  0  0  0  0  0  0  0
   -4.7515    7.7861   -2.4869 H   0  0  0  0  0  0  0  0  0  0  0  0
   -6.1837    8.4747   -0.0788 H   0  0  0  0  0  0  0  0  0  0  0  0
   -4.8525    7.2745    0.2845 H   0  0  0  0  0  0  0  0  0  0  0  0
   -4.4762    9.8899   -1.2204 H   0  0  0  0  0  0  0  0  0  0  0  0
   -4.1299    9.6200    0.5386 H   0  0  0  0  0  0  0  0  0  0  0  0
   -3.2612    7.7483   -1.2961 H   0  0  0  0  0  0  0  0  0  0  0  0
   -1.7974   11.3867   -0.1467 H   0  0  0  0  0  0  0  0  0  0  0  0
   -0.8997   11.4296   -1.7020 H   0  0  0  0  0  0  0  0  0  0  0  0
   -2.6897   11.2796   -1.7020 H   0  0  0  0  0  0  0  0  0  0  0  0
    0.2480    8.5208   -1.2342 H   0  0  0  0  0  0  0  0  0  0  0  0
   -0.8885    8.1019   -2.5607 H   0  0  0  0  0  0  0  0  0  0  0  0
   -0.0555    9.6933   -2.5607 H   0  0  0  0  0  0  0  0  0  0  0  0
   -6.8927    8.6755   -2.2707 H   0  0  0  0  0  0  0  0  0  0  0  0
   -7.0487    7.5848   -4.4220 H   0  0  0  0  0  0  0  0  0  0  0  0
   -6.5136    6.0265   -3.7568 H   0  0  0  0  0  0  0  0  0  0  0  0
   -9.2026    6.7023   -4.4479 H   0  0  0  0  0  0  0  0  0  0  0  0
   -8.7564    5.3185   -3.4530 H   0  0  0  0  0  0  0  0  0  0  0  0
   -9.7576    9.2411   -1.9491 H   0  0  0  0  0  0  0  0  0  0  0  0
   -8.7664    8.9559   -3.4197 H   0  0  0  0  0  0  0  0  0  0  0  0
  -10.5139    8.5397   -3.4197 H   0  0  0  0  0  0  0  0  0  0  0  0
  -10.1343    5.4300   -1.4651 H   0  0  0  0  0  0  0  0  0  0  0  0
  -11.4070    6.2369   -3.5536 H   0  0  0  0  0  0  0  0  0  0  0  0
  -12.2932    5.4620   -2.1380 H   0  0  0  0  0  0  0  0  0  0  0  0
  -13.4493    7.5635   -3.2283 H   0  0  0  0  0  0  0  0  0  0  0  0
  -10.9805    9.1435   -0.4537 H   0  0  0  0  0  0  0  0  0  0  0  0
  -13.2351    7.8298    1.1874 H   0  0  0  0  0  0  0  0  0  0  0  0
  -11.7847    8.7148    1.8379 H   0  0  0  0  0  0  0  0  0  0  0  0
  -13.8349   10.0976    1.9096 H   0  0  0  0  0  0  0  0  0  0  0  0
  -12.5575   10.7839    0.8308 H   0  0  0  0  0  0  0  0  0  0  0  0
  -14.6845   10.9976   -0.2604 H   0  0  0  0  0  0  0  0  0  0  0  0
  -15.4470    8.5360   -0.7840 H   0  0  0  0  0  0  0  0  0  0  0  0
  -12.3348   11.4044   -1.0727 H   0  0  0  0  0  0  0  0  0  0  0  0
  -11.8537   10.5429   -2.5737 H   0  0  0  0  0  0  0  0  0  0  0  0
  -13.3004   11.6076   -2.5737 H   0  0  0  0  0  0  0  0  0  0  0  0
  -15.6900    9.5201   -2.1412 H   0  0  0  0  0  0  0  0  0  0  0  0
  -14.6967   10.5047   -3.2684 H   0  0  0  0  0  0  0  0  0  0  0  0
  -14.5466    8.7147   -3.2684 H   0  0  0  0  0  0  0  0  0  0  0  0
  -11.5289    6.0753    1.6440 H   0  0  0  0  0  0  0  0  0  0  0  0
  -12.6967    5.9749    0.2828 H   0  0  0  0  0  0  0  0  0  0  0  0
  -11.2264    4.9429    0.2828 H   0  0  0  0  0  0  0  0  0  0  0  0
   -9.8497    8.0815    1.4354 H   0  0  0  0  0  0  0  0  0  0  0  0
   -9.2445    6.3714    1.0561 H   0  0  0  0  0  0  0  0  0  0  0  0
   -8.5508    8.9416   -0.3928 H   0  0  0  0  0  0  0  0  0  0  0  0
   -7.4736    7.8751    0.5915 H   0  0  0  0  0  0  0  0  0  0  0  0
   -7.6516    5.5920    0.2576 H   0  0  0  0  0  0  0  0  0  0  0  0
   -8.4034    4.9062   -1.2227 H   0  0  0  0  0  0  0  0  0  0  0  0
   -6.6630    5.3507   -1.2227 H   0  0  0  0  0  0  0  0  0  0  0  0
  1  2  1  0
  2  3  1  0
  3  4  1  0
  4  5  1  0
  5  6  1  0
  6  7  1  0
  7  8  1  0
  7  9  1  0
  2 10  1  0
 10 11  1  0
 11 12  1  0
 12 13  1  0
 13 14  1  6
 13 15  1  0
 15 16  1  0
 16 17  1  0
 17 18  2  0
 18 19  1  0
 19 20  1  0
 20 21  1  0
 21 22  1  0
 22 23  1  0
 22 24  1  0
 24 25  1  0
 24 26  1  0
 19 27  1  0
 27 28  1  1
 27 29  1  0
 29 30  1  0
 30 31  1  0
 31 32  1  1
  7  5  1  0
 31 10  1  0
 31 13  1  0
 27 15  1  0
 24 18  1  0
  1 33  1  0
  1 34  1  0
  1 35  1  0
  2 36  1  6
  3 37  1  0
  3 38  1  0
  4 39  1  0
  4 40  1  0
  5 41  1  6
  8 42  1  0
  8 43  1  0
  8 44  1  0
  9 45  1  0
  9 46  1  0
  9 47  1  0
 10 48  1  6
 11 49  1  0
 11 50  1  0
 12 51  1  0
 12 52  1  0
 14 53  1  0
 14 54  1  0
 14 55  1  0
 15 56  1  1
 16 57  1  0
 16 58  1  0
 17 59  1  0
 19 60  1  6
 20 61  1  0
 20 62  1  0
 21 63  1  0
 21 64  1  0
 22 65  1  6
 23 66  1  0
 25 67  1  0
 25 68  1  0
 25 69  1  0
 26 70  1  0
 26 71  1  0
 26 72  1  0
 28 73  1  0
 28 74  1  0
 28 75  1  0
 29 76  1  0
 29 77  1  0
 30 78  1  0
 30 79  1  0
 32 80  1  0
 32 81  1  0
 32 82  1  0
M  END
>  <meeko>  (4) 
{"is_sidechain": [false], "intermolecular_energy": 2.731, "internal_energy": -0.839}

$$$$
EPH_relaxed_0001_pdb2pqr_Repair_294_r2_0001_out
     RDKit          3D

 82 86  0  0  0  0  0  0  0  0999 V2000
   -4.0710    7.4610   -3.5750 C   0  0  0  0  0  0  0  0  0  0  0  0
   -3.6940    7.3380   -2.0960 C   0  0  2  0  0  0  0  0  0  0  0  0
   -4.8810    6.8690   -1.2310 C   0  0  0  0  0  0  0  0  0  0  0  0
   -6.1460    6.5630   -2.0370 C   0  0  0  0  0  0  0  0  0  0  0  0
   -7.3350    6.3610   -1.1460 C   0  0  2  0  0  0  0  0  0  0  0  0
   -8.3990    5.6000   -1.7320 O   0  0  0  0  0  0  0  0  0  0  0  0
   -8.6980    6.9700   -1.4180 C   0  0  0  0  0  0  0  0  0  0  0  0
   -8.9420    7.8290   -2.6190 C   0  0  0  0  0  0  0  0  0  0  0  0
   -9.6500    7.1330   -0.2750 C   0  0  0  0  0  0  0  0  0  0  0  0
   -3.1690    8.6730   -1.5810 C   0  0  1  0  0  0  0  0  0  0  0  0
   -3.8020    9.0790   -0.2230 C   0  0  0  0  0  0  0  0  0  0  0  0
   -2.7010    9.8190    0.5800 C   0  0  0  0  0  0  0  0  0  0  0  0
   -1.5890   10.1060   -0.4560 C   0  0  1  0  0  0  0  0  0  0  0  0
   -2.0680   11.3820   -1.2160 C   0  0  0  0  0  0  0  0  0  0  0  0
   -0.1430   10.2820    0.1130 C   0  0  2  0  0  0  0  0  0  0  0  0
    0.0410   11.4720    1.0700 C   0  0  0  0  0  0  0  0  0  0  0  0
    0.4430   12.7560    0.4220 C   0  0  0  0  0  0  0  0  0  0  0  0
    0.9220   12.8830   -0.8300 C   0  0  0  0  0  0  0  0  0  0  0  0
    1.1960   11.6480   -1.6980 C   0  0  1  0  0  0  0  0  0  0  0  0
    2.5900   11.7840   -2.3660 C   0  0  0  0  0  0  0  0  0  0  0  0
    2.7420   13.0890   -3.1420 C   0  0  0  0  0  0  0  0  0  0  0  0
    2.5200   14.2940   -2.2320 C   0  0  2  0  0  0  0  0  0  0  0  0
    3.5800   14.3490   -1.2730 O   0  0  0  0  0  0  0  0  0  0  0  0
    1.1510   14.2620   -1.4970 C   0  0  0  0  0  0  0  0  0  0  0  0
    0.0080   14.5060   -2.5130 C   0  0  0  0  0  0  0  0  0  0  0  0
    1.1130   15.4570   -0.5060 C   0  0  0  0  0  0  0  0  0  0  0  0
    0.9950   10.2420   -0.9860 C   0  0  1  0  0  0  0  0  0  0  0  0
    2.3070    9.8240   -0.2530 C   0  0  0  0  0  0  0  0  0  0  0  0
    0.7300    9.1440   -2.0830 C   0  0  0  0  0  0  0  0  0  0  0  0
   -0.7340    8.9350   -2.5170 C   0  0  0  0  0  0  0  0  0  0  0  0
   -1.6500    8.7800   -1.2990 C   0  0  2  0  0  0  0  0  0  0  0  0
   -1.2050    7.4910   -0.5260 C   0  0  0  0  0  0  0  0  0  0  0  0
   -5.1136    7.8012   -3.6606 H   0  0  0  0  0  0  0  0  0  0  0  0
   -3.4065    8.1890   -4.0635 H   0  0  0  0  0  0  0  0  0  0  0  0
   -3.9637    6.4813   -4.0635 H   0  0  0  0  0  0  0  0  0  0  0  0
   -2.9068    6.5737   -2.0175 H   0  0  0  0  0  0  0  0  0  0  0  0
   -4.5812    5.9563   -0.6952 H   0  0  0  0  0  0  0  0  0  0  0  0
   -5.1270    7.6949   -0.5474 H   0  0  0  0  0  0  0  0  0  0  0  0
   -6.3482    7.4042   -2.7163 H   0  0  0  0  0  0  0  0  0  0  0  0
   -5.9775    5.6335   -2.6005 H   0  0  0  0  0  0  0  0  0  0  0  0
   -6.6941    6.3571   -0.2520 H   0  0  0  0  0  0  0  0  0  0  0  0
   -9.2292    8.8400   -2.2944 H   0  0  0  0  0  0  0  0  0  0  0  0
   -8.0241    7.8846   -3.2226 H   0  0  0  0  0  0  0  0  0  0  0  0
   -9.7520    7.3938   -3.2226 H   0  0  0  0  0  0  0  0  0  0  0  0
   -9.1025    7.0393    0.6744 H   0  0  0  0  0  0  0  0  0  0  0  0
  -10.1221    8.1250   -0.3296 H   0  0  0  0  0  0  0  0  0  0  0  0
  -10.4252    6.3545   -0.3296 H   0  0  0  0  0  0  0  0  0  0  0  0
   -3.4392    9.3173   -2.4306 H   0  0  0  0  0  0  0  0  0  0  0  0
   -4.6616    9.7449   -0.3897 H   0  0  0  0  0  0  0  0  0  0  0  0
   -4.1638    8.1959    0.3240 H   0  0  0  0  0  0  0  0  0  0  0  0
   -3.0915   10.7574    1.0006 H   0  0  0  0  0  0  0  0  0  0  0  0
   -2.3353    9.2257    1.4310 H   0  0  0  0  0  0  0  0  0  0  0  0
   -2.3581   12.1547   -0.4888 H   0  0  0  0  0  0  0  0  0  0  0  0
   -1.2509   11.7610   -1.8475 H   0  0  0  0  0  0  0  0  0  0  0  0
   -2.9326   11.1297   -1.8475 H   0  0  0  0  0  0  0  0  0  0  0  0
   -0.0212    9.3804    0.7313 H   0  0  0  0  0  0  0  0  0  0  0  0
   -0.9127   11.6388    1.5921 H   0  0  0  0  0  0  0  0  0  0  0  0
    0.8686   11.1977    1.7407 H   0  0  0  0  0  0  0  0  0  0  0  0
    0.3391   13.6751    1.0174 H   0  0  0  0  0  0  0  0  0  0  0  0
    0.4118   11.6379   -2.4693 H   0  0  0  0  0  0  0  0  0  0  0  0
    3.3614   11.7476   -1.5827 H   0  0  0  0  0  0  0  0  0  0  0  0
    2.6999   10.9555   -3.0812 H   0  0  0  0  0  0  0  0  0  0  0  0
    3.7559   13.1398   -3.5657 H   0  0  0  0  0  0  0  0  0  0  0  0
    1.9886   13.1107   -3.9432 H   0  0  0  0  0  0  0  0  0  0  0  0
    2.5135   15.1913   -2.8682 H   0  0  0  0  0  0  0  0  0  0  0  0
    3.4920   13.5750   -0.6920 H   0  0  0  0  0  0  0  0  0  0  0  0
   -0.9280   14.7058   -1.9709 H   0  0  0  0  0  0  0  0  0  0  0  0
    0.2576   15.3711   -3.1449 H   0  0  0  0  0  0  0  0  0  0  0  0
   -0.1174   13.6144   -3.1449 H   0  0  0  0  0  0  0  0  0  0  0  0
    1.1251   15.0777    0.5265 H   0  0  0  0  0  0  0  0  0  0  0  0
    1.9912   16.0984   -0.6712 H   0  0  0  0  0  0  0  0  0  0  0  0
    0.1958   16.0414   -0.6712 H   0  0  0  0  0  0  0  0  0  0  0  0
    2.1511    9.8737    0.8348 H   0  0  0  0  0  0  0  0  0  0  0  0
    2.5749    8.7960   -0.5384 H   0  0  0  0  0  0  0  0  0  0  0  0
    3.1202   10.5075   -0.5384 H   0  0  0  0  0  0  0  0  0  0  0  0
    1.3061    9.4218   -2.9780 H   0  0  0  0  0  0  0  0  0  0  0  0
    1.0310    8.1937   -1.6179 H   0  0  0  0  0  0  0  0  0  0  0  0
   -1.0623    9.8041   -3.1059 H   0  0  0  0  0  0  0  0  0  0  0  0
   -0.7935    8.0168   -3.1198 H   0  0  0  0  0  0  0  0  0  0  0  0
   -1.2678    7.6729    0.5570 H   0  0  0  0  0  0  0  0  0  0  0  0
   -1.8664    6.6547   -0.7963 H   0  0  0  0  0  0  0  0  0  0  0  0
   -0.1685    7.2409   -0.7963 H   0  0  0  0  0  0  0  0  0  0  0  0
  1  2  1  0
  2  3  1  0
  3  4  1  0
  4  5  1  0
  5  6  1  0
  6  7  1  0
  7  8  1  0
  7  9  1  0
  2 10  1  0
 10 11  1  0
 11 12  1  0
 12 13  1  0
 13 14  1  6
 13 15  1  0
 15 16  1  0
 16 17  1  0
 17 18  2  0
 18 19  1  0
 19 20  1  0
 20 21  1  0
 21 22  1  0
 22 23  1  0
 22 24  1  0
 24 25  1  0
 24 26  1  0
 19 27  1  0
 27 28  1  1
 27 29  1  0
 29 30  1  0
 30 31  1  0
 31 32  1  1
  7  5  1  0
 31 10  1  0
 31 13  1  0
 27 15  1  0
 24 18  1  0
  1 33  1  0
  1 34  1  0
  1 35  1  0
  2 36  1  6
  3 37  1  0
  3 38  1  0
  4 39  1  0
  4 40  1  0
  5 41  1  1
  8 42  1  0
  8 43  1  0
  8 44  1  0
  9 45  1  0
  9 46  1  0
  9 47  1  0
 10 48  1  6
 11 49  1  0
 11 50  1  0
 12 51  1  0
 12 52  1  0
 14 53  1  0
 14 54  1  0
 14 55  1  0
 15 56  1  1
 16 57  1  0
 16 58  1  0
 17 59  1  0
 19 60  1  6
 20 61  1  0
 20 62  1  0
 21 63  1  0
 21 64  1  0
 22 65  1  6
 23 66  1  0
 25 67  1  0
 25 68  1  0
 25 69  1  0
 26 70  1  0
 26 71  1  0
 26 72  1  0
 28 73  1  0
 28 74  1  0
 28 75  1  0
 29 76  1  0
 29 77  1  0
 30 78  1  0
 30 79  1  0
 32 80  1  0
 32 81  1  0
 32 82  1  0
M  END
>  <meeko>  (5) 
{"is_sidechain": [false], "intermolecular_energy": 2.731, "internal_energy": -0.839}

$$$$
EPH_relaxed_0001_pdb2pqr_Repair_294_r2_0001_out
     RDKit          3D

 82 86  0  0  0  0  0  0  0  0999 V2000
   -0.4360   16.0250   -5.7790 C   0  0  0  0  0  0  0  0  0  0  0  0
    0.8210   15.3510   -6.3360 C   0  0  2  0  0  0  0  0  0  0  0  0
    0.8210   15.3040   -7.8770 C   0  0  0  0  0  0  0  0  0  0  0  0
    1.7630   16.3230   -8.5240 C   0  0  0  0  0  0  0  0  0  0  0  0
    1.6520   16.3100  -10.0190 C   0  0  2  0  0  0  0  0  0  0  0  0
    0.9750   15.1680  -10.5590 O   0  0  0  0  0  0  0  0  0  0  0  0
    2.3640   15.3030  -10.9020 C   0  0  0  0  0  0  0  0  0  0  0  0
    3.2410   14.2380  -10.3210 C   0  0  0  0  0  0  0  0  0  0  0  0
    2.5990   15.6510  -12.3390 C   0  0  0  0  0  0  0  0  0  0  0  0
    0.9470   13.9400   -5.7730 C   0  0  1  0  0  0  0  0  0  0  0  0
    2.2930   13.2640   -6.1480 C   0  0  0  0  0  0  0  0  0  0  0  0
    2.7010   12.3800   -4.9410 C   0  0  0  0  0  0  0  0  0  0  0  0
    1.4320   12.3130   -4.0600 C   0  0  1  0  0  0  0  0  0  0  0  0
    0.5400   11.2170   -4.7230 C   0  0  0  0  0  0  0  0  0  0  0  0
    1.6610   12.0300   -2.5390 C   0  0  2  0  0  0  0  0  0  0  0  0
    2.3060   10.6700   -2.2190 C   0  0  0  0  0  0  0  0  0  0  0  0
    1.3480    9.5470   -1.9970 C   0  0  0  0  0  0  0  0  0  0  0  0
    0.0280    9.6770   -1.7700 C   0  0  0  0  0  0  0  0  0  0  0  0
   -0.6120   11.0640   -1.6230 C   0  0  1  0  0  0  0  0  0  0  0  0
   -1.5530   11.0710   -0.3890 C   0  0  0  0  0  0  0  0  0  0  0  0
   -2.5880    9.9520   -0.4360 C   0  0  0  0  0  0  0  0  0  0  0  0
   -1.9120    8.5860   -0.5240 C   0  0  2  0  0  0  0  0  0  0  0  0
   -1.2090    8.3400    0.6970 O   0  0  0  0  0  0  0  0  0  0  0  0
   -0.9330    8.4640   -1.7250 C   0  0  0  0  0  0  0  0  0  0  0  0
   -1.7340    8.4280   -3.0490 C   0  0  0  0  0  0  0  0  0  0  0  0
   -0.2130    7.0920   -1.6160 C   0  0  0  0  0  0  0  0  0  0  0  0
    0.3920   12.2960   -1.6320 C   0  0  1  0  0  0  0  0  0  0  0  0
    0.9230   12.5600   -0.1900 C   0  0  0  0  0  0  0  0  0  0  0  0
   -0.3900   13.5930   -2.0620 C   0  0  0  0  0  0  0  0  0  0  0  0
   -0.4790   13.8820   -3.5730 C   0  0  0  0  0  0  0  0  0  0  0  0
    0.9000   13.7830   -4.2320 C   0  0  2  0  0  0  0  0  0  0  0  0
    1.8120   14.8890   -3.6010 C   0  0  0  0  0  0  0  0  0  0  0  0
   -0.4045   16.0081   -4.6796 H   0  0  0  0  0  0  0  0  0  0  0  0
   -0.4788   17.0671   -6.1286 H   0  0  0  0  0  0  0  0  0  0  0  0
   -1.3277   15.4840   -6.1286 H   0  0  0  0  0  0  0  0  0  0  0  0
    1.6856   15.9552   -6.0240 H   0  0  0  0  0  0  0  0  0  0  0  0
    1.1289   14.2966   -8.1937 H   0  0  0  0  0  0  0  0  0  0  0  0
   -0.1983   15.5543   -8.2062 H   0  0  0  0  0  0  0  0  0  0  0  0
    1.5078   17.3279   -8.1564 H   0  0  0  0  0  0  0  0  0  0  0  0
    2.7952   16.0549   -8.2546 H   0  0  0  0  0  0  0  0  0  0  0  0
    1.5982   17.4083  -10.0480 H   0  0  0  0  0  0  0  0  0  0  0  0
    3.1999   14.2879   -9.2229 H   0  0  0  0  0  0  0  0  0  0  0  0
    2.8904   13.2508  -10.6566 H   0  0  0  0  0  0  0  0  0  0  0  0
    4.2771   14.3927  -10.6566 H   0  0  0  0  0  0  0  0  0  0  0  0
    3.2137   16.5612  -12.4001 H   0  0  0  0  0  0  0  0  0  0  0  0
    3.1223   14.8211  -12.8364 H   0  0  0  0  0  0  0  0  0  0  0  0
    1.6337   15.8264  -12.8364 H   0  0  0  0  0  0  0  0  0  0  0  0
    0.0560   13.4807   -6.2260 H   0  0  0  0  0  0  0  0  0  0  0  0
    2.1674   12.6429   -7.0472 H   0  0  0  0  0  0  0  0  0  0  0  0
    3.0656   14.0161   -6.3659 H   0  0  0  0  0  0  0  0  0  0  0  0
    2.9937   11.3745   -5.2775 H   0  0  0  0  0  0  0  0  0  0  0  0
    3.5652   12.7894   -4.3973 H   0  0  0  0  0  0  0  0  0  0  0  0
    0.0524   10.6179   -3.9399 H   0  0  0  0  0  0  0  0  0  0  0  0
   -0.2271   11.6973   -5.3482 H   0  0  0  0  0  0  0  0  0  0  0  0
    1.1661   10.5634   -5.3482 H   0  0  0  0  0  0  0  0  0  0  0  0
    2.4109   12.7877   -2.2678 H   0  0  0  0  0  0  0  0  0  0  0  0
    2.9601   10.3976   -3.0604 H   0  0  0  0  0  0  0  0  0  0  0  0
    2.8436   10.8040   -1.2687 H   0  0  0  0  0  0  0  0  0  0  0  0
    1.7560    8.5257   -2.0210 H   0  0  0  0  0  0  0  0  0  0  0  0
   -1.1968   11.2281   -2.5401 H   0  0  0  0  0  0  0  0  0  0  0  0
   -0.9443   10.9503    0.5192 H   0  0  0  0  0  0  0  0  0  0  0  0
   -2.0957   12.0278   -0.3886 H   0  0  0  0  0  0  0  0  0  0  0  0
   -3.2023    9.9915    0.4756 H   0  0  0  0  0  0  0  0  0  0  0  0
   -3.2150   10.0913   -1.3290 H   0  0  0  0  0  0  0  0  0  0  0  0
   -2.7011    7.8368   -0.6852 H   0  0  0  0  0  0  0  0  0  0  0  0
   -1.3320    7.4030    0.9240 H   0  0  0  0  0  0  0  0  0  0  0  0
   -2.8100    8.3796   -2.8254 H   0  0  0  0  0  0  0  0  0  0  0  0
   -1.5210    9.3366   -3.6313 H   0  0  0  0  0  0  0  0  0  0  0  0
   -1.4403    7.5421   -3.6313 H   0  0  0  0  0  0  0  0  0  0  0  0
   -0.0769    6.8326   -0.5557 H   0  0  0  0  0  0  0  0  0  0  0  0
   -0.8214    6.3186   -2.1075 H   0  0  0  0  0  0  0  0  0  0  0  0
    0.7692    7.1533   -2.1075 H   0  0  0  0  0  0  0  0  0  0  0  0
    0.1890   12.1951    0.5435 H   0  0  0  0  0  0  0  0  0  0  0  0
    1.8771   12.0314   -0.0481 H   0  0  0  0  0  0  0  0  0  0  0  0
    1.0775   13.6398   -0.0481 H   0  0  0  0  0  0  0  0  0  0  0  0
   -1.4174   13.5044   -1.6791 H   0  0  0  0  0  0  0  0  0  0  0  0
    0.1879   14.4297   -1.6425 H   0  0  0  0  0  0  0  0  0  0  0  0
   -1.1545   13.1503   -4.0402 H   0  0  0  0  0  0  0  0  0  0  0  0
   -0.8621   14.9036   -3.7128 H   0  0  0  0  0  0  0  0  0  0  0  0
    1.7597   14.8256   -2.5041 H   0  0  0  0  0  0  0  0  0  0  0  0
    2.8514   14.7377   -3.9279 H   0  0  0  0  0  0  0  0  0  0  0  0
    1.4655   15.8805   -3.9279 H   0  0  0  0  0  0  0  0  0  0  0  0
  1  2  1  0
  2  3  1  0
  3  4  1  0
  4  5  1  0
  5  6  1  0
  6  7  1  0
  7  8  1  0
  7  9  1  0
  2 10  1  0
 10 11  1  0
 11 12  1  0
 12 13  1  0
 13 14  1  6
 13 15  1  0
 15 16  1  0
 16 17  1  0
 17 18  2  0
 18 19  1  0
 19 20  1  0
 20 21  1  0
 21 22  1  0
 22 23  1  0
 22 24  1  0
 24 25  1  0
 24 26  1  0
 19 27  1  0
 27 28  1  1
 27 29  1  0
 29 30  1  0
 30 31  1  0
 31 32  1  1
  7  5  1  0
 31 10  1  0
 31 13  1  0
 27 15  1  0
 24 18  1  0
  1 33  1  0
  1 34  1  0
  1 35  1  0
  2 36  1  6
  3 37  1  0
  3 38  1  0
  4 39  1  0
  4 40  1  0
  5 41  1  6
  8 42  1  0
  8 43  1  0
  8 44  1  0
  9 45  1  0
  9 46  1  0
  9 47  1  0
 10 48  1  6
 11 49  1  0
 11 50  1  0
 12 51  1  0
 12 52  1  0
 14 53  1  0
 14 54  1  0
 14 55  1  0
 15 56  1  1
 16 57  1  0
 16 58  1  0
 17 59  1  0
 19 60  1  6
 20 61  1  0
 20 62  1  0
 21 63  1  0
 21 64  1  0
 22 65  1  6
 23 66  1  0
 25 67  1  0
 25 68  1  0
 25 69  1  0
 26 70  1  0
 26 71  1  0
 26 72  1  0
 28 73  1  0
 28 74  1  0
 28 75  1  0
 29 76  1  0
 29 77  1  0
 30 78  1  0
 30 79  1  0
 32 80  1  0
 32 81  1  0
 32 82  1  0
M  END
>  <meeko>  (6) 
{"is_sidechain": [false], "intermolecular_energy": 2.731, "internal_energy": -0.839}

$$$$
EPH_relaxed_0001_pdb2pqr_Repair_294_r2_0001_out
     RDKit          3D

 82 86  0  0  0  0  0  0  0  0999 V2000
    0.8420   14.7280   -2.5490 C   0  0  0  0  0  0  0  0  0  0  0  0
    1.1260   14.0700   -3.9020 C   0  0  2  0  0  0  0  0  0  0  0  0
    0.4630   14.8310   -5.0680 C   0  0  0  0  0  0  0  0  0  0  0  0
    1.2000   14.6770   -6.4010 C   0  0  0  0  0  0  0  0  0  0  0  0
    0.9140   15.8200   -7.3280 C   0  0  2  0  0  0  0  0  0  0  0  0
    0.3850   15.4380   -8.6040 O   0  0  0  0  0  0  0  0  0  0  0  0
    1.6780   16.0640   -8.6160 C   0  0  0  0  0  0  0  0  0  0  0  0
    2.7880   15.1580   -9.0490 C   0  0  0  0  0  0  0  0  0  0  0  0
    1.6750   17.4420   -9.1990 C   0  0  0  0  0  0  0  0  0  0  0  0
    0.6500   12.6220   -3.8870 C   0  0  1  0  0  0  0  0  0  0  0  0
    1.7670   11.6210   -4.2850 C   0  0  0  0  0  0  0  0  0  0  0  0
    1.5390   10.3390   -3.4440 C   0  0  0  0  0  0  0  0  0  0  0  0
    0.1240   10.5130   -2.8440 C   0  0  1  0  0  0  0  0  0  0  0  0
   -0.8510   10.0890   -3.9860 C   0  0  0  0  0  0  0  0  0  0  0  0
   -0.1650    9.7330   -1.5200 C   0  0  2  0  0  0  0  0  0  0  0  0
   -0.0860    8.2010   -1.6340 C   0  0  0  0  0  0  0  0  0  0  0  0
   -1.3690    7.5210   -1.9830 C   0  0  0  0  0  0  0  0  0  0  0  0
   -2.5920    8.0780   -1.9180 C   0  0  0  0  0  0  0  0  0  0  0  0
   -2.7840    9.4960   -1.3640 C   0  0  1  0  0  0  0  0  0  0  0  0
   -3.9710    9.5060   -0.3660 C   0  0  0  0  0  0  0  0  0  0  0  0
   -5.2500    8.9380   -0.9720 C   0  0  0  0  0  0  0  0  0  0  0  0
   -5.0360    7.5070   -1.4590 C   0  0  2  0  0  0  0  0  0  0  0  0
   -4.8000    6.6660   -0.3260 O   0  0  0  0  0  0  0  0  0  0  0  0
   -3.8580    7.3720   -2.4640 C   0  0  0  0  0  0  0  0  0  0  0  0
   -4.2430    8.0350   -3.8090 C   0  0  0  0  0  0  0  0  0  0  0  0
   -3.6590    5.8620   -2.7660 C   0  0  0  0  0  0  0  0  0  0  0  0
   -1.4830   10.1910   -0.7730 C   0  0  1  0  0  0  0  0  0  0  0  0
   -1.3040    9.7980    0.7260 C   0  0  0  0  0  0  0  0  0  0  0  0
   -1.6760   11.7530   -0.8020 C   0  0  0  0  0  0  0  0  0  0  0  0
   -1.2600   12.4800   -2.0960 C   0  0  0  0  0  0  0  0  0  0  0  0
    0.1430   12.0540   -2.5380 C   0  0  2  0  0  0  0  0  0  0  0  0
    1.1490   12.4880   -1.4180 C   0  0  0  0  0  0  0  0  0  0  0  0
    1.1372   14.0441   -1.7395 H   0  0  0  0  0  0  0  0  0  0  0  0
    1.4170   15.6622   -2.4677 H   0  0  0  0  0  0  0  0  0  0  0  0
   -0.2322   14.9504   -2.4677 H   0  0  0  0  0  0  0  0  0  0  0  0
    2.2137   14.1013   -4.0631 H   0  0  0  0  0  0  0  0  0  0  0  0
   -0.5621   14.4518   -5.1920 H   0  0  0  0  0  0  0  0  0  0  0  0
    0.4864   15.8998   -4.8091 H   0  0  0  0  0  0  0  0  0  0  0  0
    2.2821   14.6371   -6.2075 H   0  0  0  0  0  0  0  0  0  0  0  0
    0.8509   13.7508   -6.8808 H   0  0  0  0  0  0  0  0  0  0  0  0
    0.6681   16.4765   -6.4803 H   0  0  0  0  0  0  0  0  0  0  0  0
    3.2923   14.7464   -8.1623 H   0  0  0  0  0  0  0  0  0  0  0  0
    2.3758   14.3351   -9.6514 H   0  0  0  0  0  0  0  0  0  0  0  0
    3.5116   15.7267   -9.6514 H   0  0  0  0  0  0  0  0  0  0  0  0
    1.6734   18.1838   -8.3867 H   0  0  0  0  0  0  0  0  0  0  0  0
    2.5728   17.5796   -9.8194 H   0  0  0  0  0  0  0  0  0  0  0  0
    0.7766   17.5757   -9.8194 H   0  0  0  0  0  0  0  0  0  0  0  0
   -0.1831   12.6950   -4.6016 H   0  0  0  0  0  0  0  0  0  0  0  0
    1.7013   11.3869   -5.3578 H   0  0  0  0  0  0  0  0  0  0  0  0
    2.7638   12.0457   -4.0954 H   0  0  0  0  0  0  0  0  0  0  0  0
    1.5832    9.4435   -4.0812 H   0  0  0  0  0  0  0  0  0  0  0  0
    2.3077   10.2065   -2.6684 H   0  0  0  0  0  0  0  0  0  0  0  0
   -1.7762    9.6867   -3.5477 H   0  0  0  0  0  0  0  0  0  0  0  0
   -1.0903   10.9643   -4.6077 H   0  0  0  0  0  0  0  0  0  0  0  0
   -0.3739    9.3171   -4.6077 H   0  0  0  0  0  0  0  0  0  0  0  0
    0.6818   10.0278   -0.8828 H   0  0  0  0  0  0  0  0  0  0  0  0
    0.6516    7.9555   -2.4123 H   0  0  0  0  0  0  0  0  0  0  0  0
    0.1906    7.8350   -0.6342 H   0  0  0  0  0  0  0  0  0  0  0  0
   -1.3090    6.4762   -2.3219 H   0  0  0  0  0  0  0  0  0  0  0  0
   -3.0202   10.1317   -2.2301 H   0  0  0  0  0  0  0  0  0  0  0  0
   -3.6984    8.9020    0.5120 H   0  0  0  0  0  0  0  0  0  0  0  0
   -4.1679   10.5530   -0.0922 H   0  0  0  0  0  0  0  0  0  0  0  0
   -6.0428    8.9437   -0.2095 H   0  0  0  0  0  0  0  0  0  0  0  0
   -5.5375    9.5614   -1.8315 H   0  0  0  0  0  0  0  0  0  0  0  0
   -5.9449    7.2020   -1.9983 H   0  0  0  0  0  0  0  0  0  0  0  0
   -5.4540    5.9470   -0.3520 H   0  0  0  0  0  0  0  0  0  0  0  0
   -4.7866    8.9712   -3.6140 H   0  0  0  0  0  0  0  0  0  0  0  0
   -3.3313    8.2535   -4.3843 H   0  0  0  0  0  0  0  0  0  0  0  0
   -4.8846    7.3514   -4.3843 H   0  0  0  0  0  0  0  0  0  0  0  0
   -3.5857    5.3054   -1.8200 H   0  0  0  0  0  0  0  0  0  0  0  0
   -4.5156    5.4881   -3.3460 H   0  0  0  0  0  0  0  0  0  0  0  0
   -2.7347    5.7228   -3.3460 H   0  0  0  0  0  0  0  0  0  0  0  0
   -1.6750   10.6125    1.3654 H   0  0  0  0  0  0  0  0  0  0  0  0
   -1.8727    8.8799    0.9348 H   0  0  0  0  0  0  0  0  0  0  0  0
   -0.2380    9.6244    0.9348 H   0  0  0  0  0  0  0  0  0  0  0  0
   -2.7430   11.9598   -0.6322 H   0  0  0  0  0  0  0  0  0  0  0  0
   -1.0021   12.1411   -0.0240 H   0  0  0  0  0  0  0  0  0  0  0  0
   -1.9779   12.2354   -2.8927 H   0  0  0  0  0  0  0  0  0  0  0  0
   -1.2529   13.5629   -1.9028 H   0  0  0  0  0  0  0  0  0  0  0  0
    0.7037   12.2959   -0.4307 H   0  0  0  0  0  0  0  0  0  0  0  0
    2.0806   11.9117   -1.5185 H   0  0  0  0  0  0  0  0  0  0  0  0
    1.3690   13.5611   -1.5185 H   0  0  0  0  0  0  0  0  0  0  0  0
  1  2  1  0
  2  3  1  0
  3  4  1  0
  4  5  1  0
  5  6  1  0
  6  7  1  0
  7  8  1  0
  7  9  1  0
  2 10  1  0
 10 11  1  0
 11 12  1  0
 12 13  1  0
 13 14  1  6
 13 15  1  0
 15 16  1  0
 16 17  1  0
 17 18  2  0
 18 19  1  0
 19 20  1  0
 20 21  1  0
 21 22  1  0
 22 23  1  0
 22 24  1  0
 24 25  1  0
 24 26  1  0
 19 27  1  0
 27 28  1  1
 27 29  1  0
 29 30  1  0
 30 31  1  0
 31 32  1  1
  7  5  1  0
 31 10  1  0
 31 13  1  0
 27 15  1  0
 24 18  1  0
  1 33  1  0
  1 34  1  0
  1 35  1  0
  2 36  1  6
  3 37  1  0
  3 38  1  0
  4 39  1  0
  4 40  1  0
  5 41  1  1
  8 42  1  0
  8 43  1  0
  8 44  1  0
  9 45  1  0
  9 46  1  0
  9 47  1  0
 10 48  1  6
 11 49  1  0
 11 50  1  0
 12 51  1  0
 12 52  1  0
 14 53  1  0
 14 54  1  0
 14 55  1  0
 15 56  1  1
 16 57  1  0
 16 58  1  0
 17 59  1  0
 19 60  1  6
 20 61  1  0
 20 62  1  0
 21 63  1  0
 21 64  1  0
 22 65  1  6
 23 66  1  0
 25 67  1  0
 25 68  1  0
 25 69  1  0
 26 70  1  0
 26 71  1  0
 26 72  1  0
 28 73  1  0
 28 74  1  0
 28 75  1  0
 29 76  1  0
 29 77  1  0
 30 78  1  0
 30 79  1  0
 32 80  1  0
 32 81  1  0
 32 82  1  0
M  END
>  <meeko>  (7) 
{"is_sidechain": [false], "intermolecular_energy": 2.731, "internal_energy": -0.839}

$$$$
EPH_relaxed_0001_pdb2pqr_Repair_294_r2_0001_out
     RDKit          3D

 82 86  0  0  0  0  0  0  0  0999 V2000
   -0.5940    8.6810   -1.5180 C   0  0  0  0  0  0  0  0  0  0  0  0
   -1.3520    9.4360   -0.4230 C   0  0  2  0  0  0  0  0  0  0  0  0
   -2.7830    9.8080   -0.8580 C   0  0  0  0  0  0  0  0  0  0  0  0
   -3.8750    9.0520   -0.0950 C   0  0  0  0  0  0  0  0  0  0  0  0
   -4.1610    7.7180   -0.7140 C   0  0  2  0  0  0  0  0  0  0  0  0
   -4.3690    7.7480   -2.1320 O   0  0  0  0  0  0  0  0  0  0  0  0
   -5.4960    7.3520   -1.3350 C   0  0  0  0  0  0  0  0  0  0  0  0
   -6.6340    8.3240   -1.3650 C   0  0  0  0  0  0  0  0  0  0  0  0
   -5.8510    5.9040   -1.4680 C   0  0  0  0  0  0  0  0  0  0  0  0
   -0.5830   10.6930   -0.0310 C   0  0  1  0  0  0  0  0  0  0  0  0
    0.7130   10.3780    0.7610 C   0  0  0  0  0  0  0  0  0  0  0  0
    1.7620   11.4410    0.3430 C   0  0  0  0  0  0  0  0  0  0  0  0
    0.9470   12.5180   -0.4110 C   0  0  1  0  0  0  0  0  0  0  0  0
    0.3140   13.4000    0.7100 C   0  0  0  0  0  0  0  0  0  0  0  0
    1.7360   13.3810   -1.4480 C   0  0  2  0  0  0  0  0  0  0  0  0
    2.8680   14.2390   -0.8560 C   0  0  0  0  0  0  0  0  0  0  0  0
    2.4720   15.6150   -0.4340 C   0  0  0  0  0  0  0  0  0  0  0  0
    1.3330   16.2420   -0.7830 C   0  0  0  0  0  0  0  0  0  0  0  0
    0.3480   15.5970   -1.7660 C   0  0  1  0  0  0  0  0  0  0  0  0
   -0.0880   16.6440   -2.8240 C   0  0  0  0  0  0  0  0  0  0  0  0
   -0.6420   17.9180   -2.1940 C   0  0  0  0  0  0  0  0  0  0  0  0
    0.3880   18.5610   -1.2690 C   0  0  2  0  0  0  0  0  0  0  0  0
    1.4870   19.0290   -2.0570 O   0  0  0  0  0  0  0  0  0  0  0  0
    0.9070   17.5970   -0.1660 C   0  0  0  0  0  0  0  0  0  0  0  0
   -0.2180   17.3300    0.8640 C   0  0  0  0  0  0  0  0  0  0  0  0
    2.0410   18.3240    0.6080 C   0  0  0  0  0  0  0  0  0  0  0  0
    0.8180   14.2270   -2.4200 C   0  0  1  0  0  0  0  0  0  0  0  0
    1.6640   14.5110   -3.6980 C   0  0  0  0  0  0  0  0  0  0  0  0
   -0.4500   13.4230   -2.8960 C   0  0  0  0  0  0  0  0  0  0  0  0
   -1.1140   12.4970   -1.8600 C   0  0  0  0  0  0  0  0  0  0  0  0
   -0.0740   11.6020   -1.1780 C   0  0  2  0  0  0  0  0  0  0  0  0
    0.5640   10.6870   -2.2780 C   0  0  0  0  0  0  0  0  0  0  0  0
    0.1131    7.9767   -1.0555 H   0  0  0  0  0  0  0  0  0  0  0  0
   -1.3091    8.1256   -2.1427 H   0  0  0  0  0  0  0  0  0  0  0  0
   -0.0414    9.3983   -2.1427 H   0  0  0  0  0  0  0  0  0  0  0  0
   -1.4352    8.7650    0.4447 H   0  0  0  0  0  0  0  0  0  0  0  0
   -2.9269   10.8860   -0.6929 H   0  0  0  0  0  0  0  0  0  0  0  0
   -2.8795    9.5289   -1.9176 H   0  0  0  0  0  0  0  0  0  0  0  0
   -3.5444    8.8998    0.9431 H   0  0  0  0  0  0  0  0  0  0  0  0
   -4.7965    9.6516   -0.1313 H   0  0  0  0  0  0  0  0  0  0  0  0
   -3.5302    7.2112    0.0312 H   0  0  0  0  0  0  0  0  0  0  0  0
   -6.9286    8.5756   -0.3355 H   0  0  0  0  0  0  0  0  0  0  0  0
   -6.3215    9.2383   -1.8908 H   0  0  0  0  0  0  0  0  0  0  0  0
   -7.4882    7.8724   -1.8908 H   0  0  0  0  0  0  0  0  0  0  0  0
   -5.9599    5.4598   -0.4676 H   0  0  0  0  0  0  0  0  0  0  0  0
   -6.7993    5.8079   -2.0171 H   0  0  0  0  0  0  0  0  0  0  0  0
   -5.0547    5.3802   -2.0171 H   0  0  0  0  0  0  0  0  0  0  0  0
   -1.3626   11.2139    0.5442 H   0  0  0  0  0  0  0  0  0  0  0  0
    0.5208   10.4402    1.8423 H   0  0  0  0  0  0  0  0  0  0  0  0
    1.0721    9.3614    0.5428 H   0  0  0  0  0  0  0  0  0  0  0  0
    2.2510   11.8732    1.2285 H   0  0  0  0  0  0  0  0  0  0  0  0
    2.5639   11.0143   -0.2774 H   0  0  0  0  0  0  0  0  0  0  0  0
    0.5996   13.0020    1.6949 H   0  0  0  0  0  0  0  0  0  0  0  0
    0.6778   14.4335    0.6126 H   0  0  0  0  0  0  0  0  0  0  0  0
   -0.7816   13.3862    0.6126 H   0  0  0  0  0  0  0  0  0  0  0  0
    2.2314   12.6153   -2.0631 H   0  0  0  0  0  0  0  0  0  0  0  0
    3.2664   13.7148    0.0252 H   0  0  0  0  0  0  0  0  0  0  0  0
    3.6048   14.3686   -1.6624 H   0  0  0  0  0  0  0  0  0  0  0  0
    3.1695   16.1627    0.2168 H   0  0  0  0  0  0  0  0  0  0  0  0
   -0.5212   15.2880   -1.1668 H   0  0  0  0  0  0  0  0  0  0  0  0
    0.7844   16.9063   -3.4406 H   0  0  0  0  0  0  0  0  0  0  0  0
   -0.8903   16.1942   -3.4273 H   0  0  0  0  0  0  0  0  0  0  0  0
   -0.9039   18.6294   -2.9911 H   0  0  0  0  0  0  0  0  0  0  0  0
   -1.5323   17.6589   -1.6022 H   0  0  0  0  0  0  0  0  0  0  0  0
   -0.1093   19.3928   -0.7487 H   0  0  0  0  0  0  0  0  0  0  0  0
    1.4560   20.0000   -2.0580 H   0  0  0  0  0  0  0  0  0  0  0  0
    0.1868   17.4261    1.8823 H   0  0  0  0  0  0  0  0  0  0  0  0
   -1.0274   18.0610    0.7207 H   0  0  0  0  0  0  0  0  0  0  0  0
   -0.6126   16.3133    0.7207 H   0  0  0  0  0  0  0  0  0  0  0  0
    1.8737   18.2167    1.6899 H   0  0  0  0  0  0  0  0  0  0  0  0
    3.0109   17.8789    0.3411 H   0  0  0  0  0  0  0  0  0  0  0  0
    2.0414   19.3911    0.3411 H   0  0  0  0  0  0  0  0  0  0  0  0
    2.6691   14.8484   -3.4049 H   0  0  0  0  0  0  0  0  0  0  0  0
    1.7458   13.5911   -4.2955 H   0  0  0  0  0  0  0  0  0  0  0  0
    1.1741   15.2940   -4.2955 H   0  0  0  0  0  0  0  0  0  0  0  0
   -1.2049   14.1540   -3.2211 H   0  0  0  0  0  0  0  0  0  0  0  0
   -0.0854   12.7534   -3.6889 H   0  0  0  0  0  0  0  0  0  0  0  0
   -1.6155   13.1112   -1.0976 H   0  0  0  0  0  0  0  0  0  0  0  0
   -1.8423   11.8560   -2.3784 H   0  0  0  0  0  0  0  0  0  0  0  0
    1.1298    9.8755   -1.7970 H   0  0  0  0  0  0  0  0  0  0  0  0
   -0.2317   10.2578   -2.9047 H   0  0  0  0  0  0  0  0  0  0  0  0
    1.2418   11.2852   -2.9047 H   0  0  0  0  0  0  0  0  0  0  0  0
  1  2  1  0
  2  3  1  0
  3  4  1  0
  4  5  1  0
  5  6  1  0
  6  7  1  0
  7  8  1  0
  7  9  1  0
  2 10  1  0
 10 11  1  0
 11 12  1  0
 12 13  1  0
 13 14  1  1
 13 15  1  0
 15 16  1  0
 16 17  1  0
 17 18  2  0
 18 19  1  0
 19 20  1  0
 20 21  1  0
 21 22  1  0
 22 23  1  0
 22 24  1  0
 24 25  1  0
 24 26  1  0
 19 27  1  0
 27 28  1  6
 27 29  1  0
 29 30  1  0
 30 31  1  0
 31 32  1  6
  7  5  1  0
 31 10  1  0
 31 13  1  0
 27 15  1  0
 24 18  1  0
  1 33  1  0
  1 34  1  0
  1 35  1  0
  2 36  1  1
  3 37  1  0
  3 38  1  0
  4 39  1  0
  4 40  1  0
  5 41  1  6
  8 42  1  0
  8 43  1  0
  8 44  1  0
  9 45  1  0
  9 46  1  0
  9 47  1  0
 10 48  1  1
 11 49  1  0
 11 50  1  0
 12 51  1  0
 12 52  1  0
 14 53  1  0
 14 54  1  0
 14 55  1  0
 15 56  1  6
 16 57  1  0
 16 58  1  0
 17 59  1  0
 19 60  1  1
 20 61  1  0
 20 62  1  0
 21 63  1  0
 21 64  1  0
 22 65  1  1
 23 66  1  0
 25 67  1  0
 25 68  1  0
 25 69  1  0
 26 70  1  0
 26 71  1  0
 26 72  1  0
 28 73  1  0
 28 74  1  0
 28 75  1  0
 29 76  1  0
 29 77  1  0
 30 78  1  0
 30 79  1  0
 32 80  1  0
 32 81  1  0
 32 82  1  0
M  END
>  <meeko>  (8) 
{"is_sidechain": [false], "intermolecular_energy": 2.731, "internal_energy": -0.839}

$$$$
EPH_relaxed_0001_pdb2pqr_Repair_294_r2_0001_out
     RDKit          3D

 82 86  0  0  0  0  0  0  0  0999 V2000
    2.5780   16.4430   -7.3560 C   0  0  0  0  0  0  0  0  0  0  0  0
    1.3730   15.5030   -7.2680 C   0  0  2  0  0  0  0  0  0  0  0  0
    0.1590   16.0390   -8.0530 C   0  0  0  0  0  0  0  0  0  0  0  0
    0.4950   16.4780   -9.4810 C   0  0  0  0  0  0  0  0  0  0  0  0
    1.8910   16.0920   -9.8660 C   0  0  2  0  0  0  0  0  0  0  0  0
    2.3100   16.5650  -11.1530 O   0  0  0  0  0  0  0  0  0  0  0  0
    2.2120   15.1390  -11.0020 C   0  0  0  0  0  0  0  0  0  0  0  0
    1.1300   14.5130  -11.8250 C   0  0  0  0  0  0  0  0  0  0  0  0
    3.5360   14.4410  -10.9980 C   0  0  0  0  0  0  0  0  0  0  0  0
    0.9930   15.2810   -5.8080 C   0  0  1  0  0  0  0  0  0  0  0  0
   -0.3530   15.9560   -5.4330 C   0  0  0  0  0  0  0  0  0  0  0  0
   -1.0430   15.0310   -4.3970 C   0  0  0  0  0  0  0  0  0  0  0  0
    0.0600   14.0370   -3.9650 C   0  0  1  0  0  0  0  0  0  0  0  0
    0.9010   14.8110   -2.9010 C   0  0  0  0  0  0  0  0  0  0  0  0
   -0.4280   12.6550   -3.4210 C   0  0  2  0  0  0  0  0  0  0  0  0
   -1.2750   12.7210   -2.1380 C   0  0  0  0  0  0  0  0  0  0  0  0
   -0.5060   12.6360   -0.8610 C   0  0  0  0  0  0  0  0  0  0  0  0
    0.7710   12.2270   -0.7430 C   0  0  0  0  0  0  0  0  0  0  0  0
    1.5460   11.7030   -1.9590 C   0  0  1  0  0  0  0  0  0  0  0  0
    2.2840   10.3930   -1.5770 C   0  0  0  0  0  0  0  0  0  0  0  0
    3.1710   10.5580   -0.3470 C   0  0  0  0  0  0  0  0  0  0  0  0
    2.3540   11.0240    0.8550 C   0  0  2  0  0  0  0  0  0  0  0  0
    1.4500    9.9800    1.2310 O   0  0  0  0  0  0  0  0  0  0  0  0
    1.5590   12.3320    0.5860 C   0  0  0  0  0  0  0  0  0  0  0  0
    2.5400   13.5250    0.4770 C   0  0  0  0  0  0  0  0  0  0  0  0
    0.6690   12.6140    1.8270 C   0  0  0  0  0  0  0  0  0  0  0  0
    0.7130   11.5650   -3.3050 C   0  0  1  0  0  0  0  0  0  0  0  0
    0.0070   10.1750   -3.3530 C   0  0  0  0  0  0  0  0  0  0  0  0
    1.7030   11.6020   -4.5290 C   0  0  0  0  0  0  0  0  0  0  0  0
    2.0530   12.9910   -5.0970 C   0  0  0  0  0  0  0  0  0  0  0  0
    0.7880   13.8180   -5.3410 C   0  0  2  0  0  0  0  0  0  0  0  0
   -0.0680   13.0760   -6.4240 C   0  0  0  0  0  0  0  0  0  0  0  0
    2.9136   16.7048   -6.3417 H   0  0  0  0  0  0  0  0  0  0  0  0
    3.3956   15.9417   -7.8948 H   0  0  0  0  0  0  0  0  0  0  0  0
    2.2907   17.3580   -7.8948 H   0  0  0  0  0  0  0  0  0  0  0  0
    1.6653   14.5466   -7.7260 H   0  0  0  0  0  0  0  0  0  0  0  0
   -0.6003   15.2447   -8.1034 H   0  0  0  0  0  0  0  0  0  0  0  0
   -0.2014   16.9305   -7.5188 H   0  0  0  0  0  0  0  0  0  0  0  0
   -0.2113   16.0006  -10.1761 H   0  0  0  0  0  0  0  0  0  0  0  0
    0.4166   17.5741   -9.5300 H   0  0  0  0  0  0  0  0  0  0  0  0
    2.2145   16.1228   -8.8151 H   0  0  0  0  0  0  0  0  0  0  0  0
    0.3713   14.0740  -11.1604 H   0  0  0  0  0  0  0  0  0  0  0  0
    0.6620   15.2798  -12.4597 H   0  0  0  0  0  0  0  0  0  0  0  0
    1.5615   13.7250  -12.4597 H   0  0  0  0  0  0  0  0  0  0  0  0
    3.8579   14.2713   -9.9599 H   0  0  0  0  0  0  0  0  0  0  0  0
    3.4427   13.4749  -11.5156 H   0  0  0  0  0  0  0  0  0  0  0  0
    4.2804   15.0639  -11.5156 H   0  0  0  0  0  0  0  0  0  0  0  0
    1.8795   15.7106   -5.3185 H   0  0  0  0  0  0  0  0  0  0  0  0
   -0.1701   16.9475   -4.9932 H   0  0  0  0  0  0  0  0  0  0  0  0
   -0.9862   16.0959   -6.3216 H   0  0  0  0  0  0  0  0  0  0  0  0
   -1.4007   15.6128   -3.5347 H   0  0  0  0  0  0  0  0  0  0  0  0
   -1.9235   14.5209   -4.8148 H   0  0  0  0  0  0  0  0  0  0  0  0
    0.5785   14.5142   -1.8921 H   0  0  0  0  0  0  0  0  0  0  0  0
    1.9667   14.5711   -3.0307 H   0  0  0  0  0  0  0  0  0  0  0  0
    0.7502   15.8929   -3.0307 H   0  0  0  0  0  0  0  0  0  0  0  0
   -1.1123   12.3177   -4.2134 H   0  0  0  0  0  0  0  0  0  0  0  0
   -1.8236   13.6744   -2.1416 H   0  0  0  0  0  0  0  0  0  0  0  0
   -1.9286   11.8365   -2.1590 H   0  0  0  0  0  0  0  0  0  0  0  0
   -1.0270   12.9327    0.0613 H   0  0  0  0  0  0  0  0  0  0  0  0
    2.2786   12.4833   -2.2127 H   0  0  0  0  0  0  0  0  0  0  0  0
    1.5353    9.6142   -1.3698 H   0  0  0  0  0  0  0  0  0  0  0  0
    2.9326   10.1170   -2.4215 H   0  0  0  0  0  0  0  0  0  0  0  0
    3.6415    9.5923   -0.1101 H   0  0  0  0  0  0  0  0  0  0  0  0
    3.9379   11.3156   -0.5658 H   0  0  0  0  0  0  0  0  0  0  0  0
    3.0612   11.2487    1.6670 H   0  0  0  0  0  0  0  0  0  0  0  0
    1.8840    9.1320    1.0390 H   0  0  0  0  0  0  0  0  0  0  0  0
    2.8187   13.8639    1.4857 H   0  0  0  0  0  0  0  0  0  0  0  0
    3.4428   13.2089   -0.0661 H   0  0  0  0  0  0  0  0  0  0  0  0
    2.0554   14.3498   -0.0661 H   0  0  0  0  0  0  0  0  0  0  0  0
    1.2489   12.4303    2.7435 H   0  0  0  0  0  0  0  0  0  0  0  0
    0.3351   13.6619    1.8083 H   0  0  0  0  0  0  0  0  0  0  0  0
   -0.2074   11.9496    1.8083 H   0  0  0  0  0  0  0  0  0  0  0  0
   -0.1734    9.8198   -2.3277 H   0  0  0  0  0  0  0  0  0  0  0  0
   -0.9525   10.2692   -3.8826 H   0  0  0  0  0  0  0  0  0  0  0  0
    0.6490    9.4557   -3.8826 H   0  0  0  0  0  0  0  0  0  0  0  0
    2.6424   11.1257   -4.2118 H   0  0  0  0  0  0  0  0  0  0  0  0
    1.1750   11.0828   -5.3424 H   0  0  0  0  0  0  0  0  0  0  0  0
    2.6968   13.5212   -4.3798 H   0  0  0  0  0  0  0  0  0  0  0  0
    2.5744   12.8564   -6.0562 H   0  0  0  0  0  0  0  0  0  0  0  0
   -0.8098   12.4330   -5.9277 H   0  0  0  0  0  0  0  0  0  0  0  0
   -0.5858   13.8158   -7.0522 H   0  0  0  0  0  0  0  0  0  0  0  0
    0.5908   12.4584   -7.0522 H   0  0  0  0  0  0  0  0  0  0  0  0
  1  2  1  0
  2  3  1  0
  3  4  1  0
  4  5  1  0
  5  6  1  0
  6  7  1  0
  7  8  1  0
  7  9  1  0
  2 10  1  0
 10 11  1  0
 11 12  1  0
 12 13  1  0
 13 14  1  1
 13 15  1  0
 15 16  1  0
 16 17  1  0
 17 18  2  0
 18 19  1  0
 19 20  1  0
 20 21  1  0
 21 22  1  0
 22 23  1  0
 22 24  1  0
 24 25  1  0
 24 26  1  0
 19 27  1  0
 27 28  1  1
 27 29  1  0
 29 30  1  0
 30 31  1  0
 31 32  1  6
  7  5  1  0
 31 10  1  0
 31 13  1  0
 27 15  1  0
 24 18  1  0
  1 33  1  0
  1 34  1  0
  1 35  1  0
  2 36  1  6
  3 37  1  0
  3 38  1  0
  4 39  1  0
  4 40  1  0
  5 41  1  1
  8 42  1  0
  8 43  1  0
  8 44  1  0
  9 45  1  0
  9 46  1  0
  9 47  1  0
 10 48  1  1
 11 49  1  0
 11 50  1  0
 12 51  1  0
 12 52  1  0
 14 53  1  0
 14 54  1  0
 14 55  1  0
 15 56  1  6
 16 57  1  0
 16 58  1  0
 17 59  1  0
 19 60  1  6
 20 61  1  0
 20 62  1  0
 21 63  1  0
 21 64  1  0
 22 65  1  1
 23 66  1  0
 25 67  1  0
 25 68  1  0
 25 69  1  0
 26 70  1  0
 26 71  1  0
 26 72  1  0
 28 73  1  0
 28 74  1  0
 28 75  1  0
 29 76  1  0
 29 77  1  0
 30 78  1  0
 30 79  1  0
 32 80  1  0
 32 81  1  0
 32 82  1  0
M  END
>  <meeko>  (9) 
{"is_sidechain": [false], "intermolecular_energy": 2.731, "internal_energy": -0.839}

$$$$
EPH_relaxed_0001_pdb2pqr_Repair_294_r2_0001_out
     RDKit          3D

 82 86  0  0  0  0  0  0  0  0999 V2000
   -1.8350    8.0780   -2.1750 C   0  0  0  0  0  0  0  0  0  0  0  0
   -1.7040    8.6120   -0.7460 C   0  0  2  0  0  0  0  0  0  0  0  0
   -2.9740    9.3540   -0.2840 C   0  0  0  0  0  0  0  0  0  0  0  0
   -4.2010    8.4490   -0.1490 C   0  0  0  0  0  0  0  0  0  0  0  0
   -4.8970    8.2590   -1.4630 C   0  0  2  0  0  0  0  0  0  0  0  0
   -6.3110    8.4970   -1.4320 O   0  0  0  0  0  0  0  0  0  0  0  0
   -5.9000    7.1520   -1.7260 C   0  0  0  0  0  0  0  0  0  0  0  0
   -6.2630    6.1590   -0.6660 C   0  0  0  0  0  0  0  0  0  0  0  0
   -6.1560    6.7390   -3.1420 C   0  0  0  0  0  0  0  0  0  0  0  0
   -0.4950    9.5340   -0.6450 C   0  0  1  0  0  0  0  0  0  0  0  0
    0.8480    8.7830   -0.8430 C   0  0  0  0  0  0  0  0  0  0  0  0
    1.8020    9.7590   -1.5800 C   0  0  0  0  0  0  0  0  0  0  0  0
    1.1010   11.1340   -1.4860 C   0  0  1  0  0  0  0  0  0  0  0  0
    1.4530   11.6670   -0.0610 C   0  0  0  0  0  0  0  0  0  0  0  0
    1.4650   12.1730   -2.5960 C   0  0  2  0  0  0  0  0  0  0  0  0
    2.9420   12.6030   -2.6280 C   0  0  0  0  0  0  0  0  0  0  0  0
    3.2760   13.7970   -1.7960 C   0  0  0  0  0  0  0  0  0  0  0  0
    2.3860   14.6650   -1.2810 C   0  0  0  0  0  0  0  0  0  0  0  0
    0.8910   14.5430   -1.6010 C   0  0  1  0  0  0  0  0  0  0  0  0
    0.3260   15.9390   -1.9740 C   0  0  0  0  0  0  0  0  0  0  0  0
    0.6100   16.9900   -0.9050 C   0  0  0  0  0  0  0  0  0  0  0  0
    2.1100   17.1230   -0.6570 C   0  0  2  0  0  0  0  0  0  0  0  0
    2.7260   17.6640   -1.8300 O   0  0  0  0  0  0  0  0  0  0  0  0
    2.7910   15.7770   -0.2820 C   0  0  0  0  0  0  0  0  0  0  0  0
    2.3430   15.3440    1.1360 C   0  0  0  0  0  0  0  0  0  0  0  0
    4.3220   16.0240   -0.1970 C   0  0  0  0  0  0  0  0  0  0  0  0
    0.4970   13.4230   -2.6570 C   0  0  1  0  0  0  0  0  0  0  0  0
    0.6000   13.9960   -4.1040 C   0  0  0  0  0  0  0  0  0  0  0  0
   -1.0110   13.0230   -2.4440 C   0  0  0  0  0  0  0  0  0  0  0  0
   -1.2960   11.9080   -1.4200 C   0  0  0  0  0  0  0  0  0  0  0  0
   -0.3970   10.6930   -1.6680 C   0  0  2  0  0  0  0  0  0  0  0  0
   -0.7440   10.1220   -3.0850 C   0  0  0  0  0  0  0  0  0  0  0  0
   -2.0970    7.0101   -2.1448 H   0  0  0  0  0  0  0  0  0  0  0  0
   -2.6233    8.6341   -2.7034 H   0  0  0  0  0  0  0  0  0  0  0  0
   -0.8788    8.2062   -2.7034 H   0  0  0  0  0  0  0  0  0  0  0  0
   -1.5680    7.7468   -0.0805 H   0  0  0  0  0  0  0  0  0  0  0  0
   -2.7714    9.8126    0.6951 H   0  0  0  0  0  0  0  0  0  0  0  0
   -3.2089   10.1007   -1.0568 H   0  0  0  0  0  0  0  0  0  0  0  0
   -3.8800    7.4674    0.2296 H   0  0  0  0  0  0  0  0  0  0  0  0
   -4.9059    8.9284    0.5462 H   0  0  0  0  0  0  0  0  0  0  0  0
   -4.0024    8.5896   -2.0111 H   0  0  0  0  0  0  0  0  0  0  0  0
   -6.0998    6.6054    0.3260 H   0  0  0  0  0  0  0  0  0  0  0  0
   -7.3215    5.8793   -0.7726 H   0  0  0  0  0  0  0  0  0  0  0  0
   -5.6344    5.2626   -0.7726 H   0  0  0  0  0  0  0  0  0  0  0  0
   -6.7355    5.8041   -3.1522 H   0  0  0  0  0  0  0  0  0  0  0  0
   -6.7237    7.5279   -3.6571 H   0  0  0  0  0  0  0  0  0  0  0  0
   -5.1969    6.5815   -3.6571 H   0  0  0  0  0  0  0  0  0  0  0  0
   -0.6553    9.9373    0.3657 H   0  0  0  0  0  0  0  0  0  0  0  0
    1.2725    8.5025    0.1322 H   0  0  0  0  0  0  0  0  0  0  0  0
    0.7024    7.8597   -1.4229 H   0  0  0  0  0  0  0  0  0  0  0  0
    2.7843    9.7892   -1.0859 H   0  0  0  0  0  0  0  0  0  0  0  0
    1.9873    9.4552   -2.6209 H   0  0  0  0  0  0  0  0  0  0  0  0
    1.0141   11.0024    0.6978 H   0  0  0  0  0  0  0  0  0  0  0  0
    2.5459   11.6920    0.0615 H   0  0  0  0  0  0  0  0  0  0  0  0
    1.0470   12.6819    0.0615 H   0  0  0  0  0  0  0  0  0  0  0  0
    1.3014   11.5983   -3.5195 H   0  0  0  0  0  0  0  0  0  0  0  0
    3.5498   11.7587   -2.2706 H   0  0  0  0  0  0  0  0  0  0  0  0
    3.1538   12.8882   -3.6691 H   0  0  0  0  0  0  0  0  0  0  0  0
    4.3397   13.9828   -1.5863 H   0  0  0  0  0  0  0  0  0  0  0  0
    0.4114   14.1800   -0.6800 H   0  0  0  0  0  0  0  0  0  0  0  0
    0.7854   16.2643   -2.9191 H   0  0  0  0  0  0  0  0  0  0  0  0
   -0.7659   15.8434   -2.0664 H   0  0  0  0  0  0  0  0  0  0  0  0
    0.2128   17.9599   -1.2390 H   0  0  0  0  0  0  0  0  0  0  0  0
    0.1251   16.6783    0.0319 H   0  0  0  0  0  0  0  0  0  0  0  0
    2.2431   17.7925    0.2056 H   0  0  0  0  0  0  0  0  0  0  0  0
    3.4810   17.0940   -2.0560 H   0  0  0  0  0  0  0  0  0  0  0  0
    2.9197   15.9014    1.8889 H   0  0  0  0  0  0  0  0  0  0  0  0
    1.2714   15.5574    1.2631 H   0  0  0  0  0  0  0  0  0  0  0  0
    2.5198   14.2658    1.2631 H   0  0  0  0  0  0  0  0  0  0  0  0
    4.6274   16.0733    0.8586 H   0  0  0  0  0  0  0  0  0  0  0  0
    4.8545   15.2002   -0.6947 H   0  0  0  0  0  0  0  0  0  0  0  0
    4.5684   16.9735   -0.6947 H   0  0  0  0  0  0  0  0  0  0  0  0
    0.7944   15.0777   -4.0571 H   0  0  0  0  0  0  0  0  0  0  0  0
    1.4231   13.4983   -4.6377 H   0  0  0  0  0  0  0  0  0  0  0  0
   -0.3449   13.8161   -4.6377 H   0  0  0  0  0  0  0  0  0  0  0  0
   -1.5507   13.9231   -2.1146 H   0  0  0  0  0  0  0  0  0  0  0  0
   -1.3402   12.6162   -3.4115 H   0  0  0  0  0  0  0  0  0  0  0  0
   -1.1087   12.2934   -0.4069 H   0  0  0  0  0  0  0  0  0  0  0  0
   -2.3453   11.5952   -1.5251 H   0  0  0  0  0  0  0  0  0  0  0  0
   -1.3124    9.1867   -2.9743 H   0  0  0  0  0  0  0  0  0  0  0  0
   -1.3492   10.8556   -3.6378 H   0  0  0  0  0  0  0  0  0  0  0  0
    0.1859    9.9227   -3.6378 H   0  0  0  0  0  0  0  0  0  0  0  0
  1  2  1  0
  2  3  1  0
  3  4  1  0
  4  5  1  0
  5  6  1  0
  6  7  1  0
  7  8  1  0
  7  9  1  0
  2 10  1  0
 10 11  1  0
 11 12  1  0
 12 13  1  0
 13 14  1  1
 13 15  1  0
 15 16  1  0
 16 17  1  0
 17 18  2  0
 18 19  1  0
 19 20  1  0
 20 21  1  0
 21 22  1  0
 22 23  1  0
 22 24  1  0
 24 25  1  0
 24 26  1  0
 19 27  1  0
 27 28  1  6
 27 29  1  0
 29 30  1  0
 30 31  1  0
 31 32  1  6
  7  5  1  0
 31 10  1  0
 31 13  1  0
 27 15  1  0
 24 18  1  0
  1 33  1  0
  1 34  1  0
  1 35  1  0
  2 36  1  1
  3 37  1  0
  3 38  1  0
  4 39  1  0
  4 40  1  0
  5 41  1  6
  8 42  1  0
  8 43  1  0
  8 44  1  0
  9 45  1  0
  9 46  1  0
  9 47  1  0
 10 48  1  1
 11 49  1  0
 11 50  1  0
 12 51  1  0
 12 52  1  0
 14 53  1  0
 14 54  1  0
 14 55  1  0
 15 56  1  6
 16 57  1  0
 16 58  1  0
 17 59  1  0
 19 60  1  1
 20 61  1  0
 20 62  1  0
 21 63  1  0
 21 64  1  0
 22 65  1  1
 23 66  1  0
 25 67  1  0
 25 68  1  0
 25 69  1  0
 26 70  1  0
 26 71  1  0
 26 72  1  0
 28 73  1  0
 28 74  1  0
 28 75  1  0
 29 76  1  0
 29 77  1  0
 30 78  1  0
 30 79  1  0
 32 80  1  0
 32 81  1  0
 32 82  1  0
M  END
>  <meeko>  (10) 
{"is_sidechain": [false], "intermolecular_energy": 2.731, "internal_energy": -0.839}

$$$$
EPH_relaxed_0001_pdb2pqr_Repair_294_r2_0001_out
     RDKit          3D

 82 86  0  0  0  0  0  0  0  0999 V2000
    0.3040    9.7140   -4.2620 C   0  0  0  0  0  0  0  0  0  0  0  0
    1.2120   10.9470   -4.2650 C   0  0  2  0  0  0  0  0  0  0  0  0
    2.5850   10.6590   -3.6250 C   0  0  0  0  0  0  0  0  0  0  0  0
    3.7690   11.1580   -4.4580 C   0  0  0  0  0  0  0  0  0  0  0  0
    5.0570   11.0740   -3.6960 C   0  0  2  0  0  0  0  0  0  0  0  0
    5.9440   12.1810   -3.8970 O   0  0  0  0  0  0  0  0  0  0  0  0
    6.4110   10.9030   -4.3590 C   0  0  0  0  0  0  0  0  0  0  0  0
    6.5450   10.8050   -5.8460 C   0  0  0  0  0  0  0  0  0  0  0  0
    7.5390   10.3440   -3.5480 C   0  0  0  0  0  0  0  0  0  0  0  0
    0.5280   12.0970   -3.5350 C   0  0  1  0  0  0  0  0  0  0  0  0
   -0.8330   11.6850   -2.9130 C   0  0  0  0  0  0  0  0  0  0  0  0
   -0.9780   12.4780   -1.5890 C   0  0  0  0  0  0  0  0  0  0  0  0
    0.1300   13.5550   -1.6560 C   0  0  1  0  0  0  0  0  0  0  0  0
   -0.4660   14.6890   -2.5470 C   0  0  0  0  0  0  0  0  0  0  0  0
    0.6410   14.1070   -0.2850 C   0  0  2  0  0  0  0  0  0  0  0  0
   -0.4180   14.8350    0.5610 C   0  0  0  0  0  0  0  0  0  0  0  0
   -0.5200   16.3060    0.3260 C   0  0  0  0  0  0  0  0  0  0  0  0
    0.3930   17.0610   -0.3140 C   0  0  0  0  0  0  0  0  0  0  0  0
    1.7180   16.4560   -0.7950 C   0  0  1  0  0  0  0  0  0  0  0  0
    2.8890   17.3940   -0.3990 C   0  0  0  0  0  0  0  0  0  0  0  0
    2.6860   18.8230   -0.8930 C   0  0  0  0  0  0  0  0  0  0  0  0
    1.3870   19.4100   -0.3470 C   0  0  2  0  0  0  0  0  0  0  0  0
    1.5090   19.5600    1.0710 O   0  0  0  0  0  0  0  0  0  0  0  0
    0.1380   18.5450   -0.6760 C   0  0  0  0  0  0  0  0  0  0  0  0
   -0.1690   18.6310   -2.1910 C   0  0  0  0  0  0  0  0  0  0  0  0
   -1.0820   19.1730    0.0510 C   0  0  0  0  0  0  0  0  0  0  0  0
    1.9800   14.9440   -0.3820 C   0  0  1  0  0  0  0  0  0  0  0  0
    2.6450   14.8850    1.0270 C   0  0  0  0  0  0  0  0  0  0  0  0
    3.0120   14.3080   -1.3870 C   0  0  0  0  0  0  0  0  0  0  0  0
    2.4350   13.6730   -2.6660 C   0  0  0  0  0  0  0  0  0  0  0  0
    1.2800   12.7240   -2.3340 C   0  0  2  0  0  0  0  0  0  0  0  0
    1.8530   11.5600   -1.4560 C   0  0  0  0  0  0  0  0  0  0  0  0
    0.0878    9.4204   -3.2242 H   0  0  0  0  0  0  0  0  0  0  0  0
   -0.6372    9.9505   -4.7798 H   0  0  0  0  0  0  0  0  0  0  0  0
    0.8092    8.8854   -4.7798 H   0  0  0  0  0  0  0  0  0  0  0  0
    1.3892   11.2252   -5.3144 H   0  0  0  0  0  0  0  0  0  0  0  0
    2.6200   11.1512   -2.6419 H   0  0  0  0  0  0  0  0  0  0  0  0
    2.6822    9.5658   -3.5506 H   0  0  0  0  0  0  0  0  0  0  0  0
    3.8510   10.5422   -5.3658 H   0  0  0  0  0  0  0  0  0  0  0  0
    3.5891   12.2129   -4.7124 H   0  0  0  0  0  0  0  0  0  0  0  0
    4.5639   10.5326   -2.8752 H   0  0  0  0  0  0  0  0  0  0  0  0
    7.4098   10.1726   -6.0953 H   0  0  0  0  0  0  0  0  0  0  0  0
    5.6317   10.3602   -6.2679 H   0  0  0  0  0  0  0  0  0  0  0  0
    6.6921   11.8102   -6.2679 H   0  0  0  0  0  0  0  0  0  0  0  0
    7.3119   10.4565   -2.4776 H   0  0  0  0  0  0  0  0  0  0  0  0
    7.6680    9.2777   -3.7853 H   0  0  0  0  0  0  0  0  0  0  0  0
    8.4656   10.8872   -3.7853 H   0  0  0  0  0  0  0  0  0  0  0  0
    0.4605   12.8237   -4.3580 H   0  0  0  0  0  0  0  0  0  0  0  0
   -1.6550   11.9387   -3.5985 H   0  0  0  0  0  0  0  0  0  0  0  0
   -0.8718   10.6010   -2.7304 H   0  0  0  0  0  0  0  0  0  0  0  0
   -1.9712   12.9462   -1.5236 H   0  0  0  0  0  0  0  0  0  0  0  0
   -0.8797   11.8329   -0.7035 H   0  0  0  0  0  0  0  0  0  0  0  0
   -0.8815   15.4796   -1.9049 H   0  0  0  0  0  0  0  0  0  0  0  0
    0.3267   15.1112   -3.1821 H   0  0  0  0  0  0  0  0  0  0  0  0
   -1.2633   14.2755   -3.1821 H   0  0  0  0  0  0  0  0  0  0  0  0
    0.8804   13.1855    0.2659 H   0  0  0  0  0  0  0  0  0  0  0  0
   -1.3976   14.3865    0.3392 H   0  0  0  0  0  0  0  0  0  0  0  0
   -0.1061   14.7148    1.6090 H   0  0  0  0  0  0  0  0  0  0  0  0
   -1.4167   16.8160    0.7079 H   0  0  0  0  0  0  0  0  0  0  0  0
    1.6443   16.3933   -1.8907 H   0  0  0  0  0  0  0  0  0  0  0  0
    2.9738   17.4086    0.6976 H   0  0  0  0  0  0  0  0  0  0  0  0
    3.8033   17.0043   -0.8704 H   0  0  0  0  0  0  0  0  0  0  0  0
    3.5303   19.4432   -0.5574 H   0  0  0  0  0  0  0  0  0  0  0  0
    2.6308   18.8100   -1.9915 H   0  0  0  0  0  0  0  0  0  0  0  0
    1.2326   20.3825   -0.8372 H   0  0  0  0  0  0  0  0  0  0  0  0
    1.7480   18.6920    1.4390 H   0  0  0  0  0  0  0  0  0  0  0  0
   -1.2190   18.9251   -2.3362 H   0  0  0  0  0  0  0  0  0  0  0  0
    0.4892   19.3793   -2.6566 H   0  0  0  0  0  0  0  0  0  0  0  0
    0.0046   17.6496   -2.6566 H   0  0  0  0  0  0  0  0  0  0  0  0
   -0.9384   19.0991    1.1391 H   0  0  0  0  0  0  0  0  0  0  0  0
   -1.1749   20.2310   -0.2355 H   0  0  0  0  0  0  0  0  0  0  0  0
   -1.9970   18.6338   -0.2355 H   0  0  0  0  0  0  0  0  0  0  0  0
    1.8678   14.9540    1.8024 H   0  0  0  0  0  0  0  0  0  0  0  0
    3.1888   13.9351    1.1363 H   0  0  0  0  0  0  0  0  0  0  0  0
    3.3475   15.7243    1.1363 H   0  0  0  0  0  0  0  0  0  0  0  0
    3.7090   15.1014   -1.6947 H   0  0  0  0  0  0  0  0  0  0  0  0
    3.4747   13.4759   -0.8361 H   0  0  0  0  0  0  0  0  0  0  0  0
    2.0667   14.4699   -3.3288 H   0  0  0  0  0  0  0  0  0  0  0  0
    3.2307   13.0972   -3.1613 H   0  0  0  0  0  0  0  0  0  0  0  0
    1.7304   11.8091   -0.3916 H   0  0  0  0  0  0  0  0  0  0  0  0
    1.3097   10.6301   -1.6799 H   0  0  0  0  0  0  0  0  0  0  0  0
    2.9213   11.4235   -1.6799 H   0  0  0  0  0  0  0  0  0  0  0  0
  1  2  1  0
  2  3  1  0
  3  4  1  0
  4  5  1  0
  5  6  1  0
  6  7  1  0
  7  8  1  0
  7  9  1  0
  2 10  1  0
 10 11  1  0
 11 12  1  0
 12 13  1  0
 13 14  1  6
 13 15  1  0
 15 16  1  0
 16 17  1  0
 17 18  2  0
 18 19  1  0
 19 20  1  0
 20 21  1  0
 21 22  1  0
 22 23  1  0
 22 24  1  0
 24 25  1  0
 24 26  1  0
 19 27  1  0
 27 28  1  1
 27 29  1  0
 29 30  1  0
 30 31  1  0
 31 32  1  1
  7  5  1  0
 31 10  1  0
 31 13  1  0
 27 15  1  0
 24 18  1  0
  1 33  1  0
  1 34  1  0
  1 35  1  0
  2 36  1  6
  3 37  1  0
  3 38  1  0
  4 39  1  0
  4 40  1  0
  5 41  1  1
  8 42  1  0
  8 43  1  0
  8 44  1  0
  9 45  1  0
  9 46  1  0
  9 47  1  0
 10 48  1  6
 11 49  1  0
 11 50  1  0
 12 51  1  0
 12 52  1  0
 14 53  1  0
 14 54  1  0
 14 55  1  0
 15 56  1  1
 16 57  1  0
 16 58  1  0
 17 59  1  0
 19 60  1  6
 20 61  1  0
 20 62  1  0
 21 63  1  0
 21 64  1  0
 22 65  1  6
 23 66  1  0
 25 67  1  0
 25 68  1  0
 25 69  1  0
 26 70  1  0
 26 71  1  0
 26 72  1  0
 28 73  1  0
 28 74  1  0
 28 75  1  0
 29 76  1  0
 29 77  1  0
 30 78  1  0
 30 79  1  0
 32 80  1  0
 32 81  1  0
 32 82  1  0
M  END
>  <meeko>  (11) 
{"is_sidechain": [false], "intermolecular_energy": 2.731, "internal_energy": -0.839}

$$$$
EPH_relaxed_0001_pdb2pqr_Repair_294_r2_0001_out
     RDKit          3D

 82 86  0  0  0  0  0  0  0  0999 V2000
   -2.3590    7.8020   -0.0510 C   0  0  0  0  0  0  0  0  0  0  0  0
   -2.9870    9.1980   -0.0550 C   0  0  2  0  0  0  0  0  0  0  0  0
   -4.4820    9.1620   -0.4340 C   0  0  0  0  0  0  0  0  0  0  0  0
   -5.0720    7.7500   -0.4730 C   0  0  0  0  0  0  0  0  0  0  0  0
   -5.7820    7.4810   -1.7660 C   0  0  2  0  0  0  0  0  0  0  0  0
   -6.7460    8.4760   -2.1370 O   0  0  0  0  0  0  0  0  0  0  0  0
   -7.2630    7.1650   -1.8570 C   0  0  0  0  0  0  0  0  0  0  0  0
   -8.1240    7.0990   -0.6350 C   0  0  0  0  0  0  0  0  0  0  0  0
   -7.7670    6.4440   -3.0680 C   0  0  0  0  0  0  0  0  0  0  0  0
   -2.2290   10.1070   -1.0150 C   0  0  1  0  0  0  0  0  0  0  0  0
   -2.8720   11.5140   -1.1400 C   0  0  0  0  0  0  0  0  0  0  0  0
   -1.7090   12.5220   -1.3270 C   0  0  0  0  0  0  0  0  0  0  0  0
   -0.4750   11.6420   -1.6340 C   0  0  1  0  0  0  0  0  0  0  0  0
   -0.5920   11.3030   -3.1530 C   0  0  0  0  0  0  0  0  0  0  0  0
    0.9180   12.2600   -1.2870 C   0  0  2  0  0  0  0  0  0  0  0  0
    1.2770   13.5390   -2.0630 C   0  0  0  0  0  0  0  0  0  0  0  0
    2.0070   13.3230   -3.3470 C   0  0  0  0  0  0  0  0  0  0  0  0
    2.6110   12.1790   -3.7200 C   0  0  0  0  0  0  0  0  0  0  0  0
    2.6800   10.9780   -2.7680 C   0  0  1  0  0  0  0  0  0  0  0  0
    4.1220   10.4060   -2.7610 C   0  0  0  0  0  0  0  0  0  0  0  0
    4.6250   10.0710   -4.1610 C   0  0  0  0  0  0  0  0  0  0  0  0
    4.5960   11.3040   -5.0610 C   0  0  2  0  0  0  0  0  0  0  0  0
    5.5550   12.2500   -4.5780 O   0  0  0  0  0  0  0  0  0  0  0  0
    3.1950   11.9720   -5.1390 C   0  0  0  0  0  0  0  0  0  0  0  0
    2.2280   11.0620   -5.9350 C   0  0  0  0  0  0  0  0  0  0  0  0
    3.3360   13.2810   -5.9620 C   0  0  0  0  0  0  0  0  0  0  0  0
    2.1110   11.2200   -1.3040 C   0  0  1  0  0  0  0  0  0  0  0  0
    3.2290   11.8090   -0.3900 C   0  0  0  0  0  0  0  0  0  0  0  0
    1.7070    9.8350   -0.6740 C   0  0  0  0  0  0  0  0  0  0  0  0
    0.2770    9.3350   -0.9550 C   0  0  0  0  0  0  0  0  0  0  0  0
   -0.7530   10.4320   -0.6700 C   0  0  2  0  0  0  0  0  0  0  0  0
   -0.6740   10.7780    0.8560 C   0  0  0  0  0  0  0  0  0  0  0  0
   -2.2097    7.4701    0.9870 H   0  0  0  0  0  0  0  0  0  0  0  0
   -3.0271    7.0979   -0.5686 H   0  0  0  0  0  0  0  0  0  0  0  0
   -1.3889    7.8348   -0.5686 H   0  0  0  0  0  0  0  0  0  0  0  0
   -2.9150    9.5952    0.9683 H   0  0  0  0  0  0  0  0  0  0  0  0
   -5.0424    9.7524    0.3059 H   0  0  0  0  0  0  0  0  0  0  0  0
   -4.5665    9.5744   -1.4503 H   0  0  0  0  0  0  0  0  0  0  0  0
   -4.2576    7.0200   -0.3549 H   0  0  0  0  0  0  0  0  0  0  0  0
   -5.8028    7.6611    0.3444 H   0  0  0  0  0  0  0  0  0  0  0  0
   -4.8940    6.9785   -2.1769 H   0  0  0  0  0  0  0  0  0  0  0  0
   -7.4905    7.1476    0.2630 H   0  0  0  0  0  0  0  0  0  0  0  0
   -8.8259    7.9460   -0.6348 H   0  0  0  0  0  0  0  0  0  0  0  0
   -8.6886    6.1549   -0.6348 H   0  0  0  0  0  0  0  0  0  0  0  0
   -8.3712    5.5797   -2.7551 H   0  0  0  0  0  0  0  0  0  0  0  0
   -8.3862    7.1258   -3.6694 H   0  0  0  0  0  0  0  0  0  0  0  0
   -6.9140    6.0967   -3.6694 H   0  0  0  0  0  0  0  0  0  0  0  0
   -2.2767    9.4932   -1.9266 H   0  0  0  0  0  0  0  0  0  0  0  0
   -3.5453   11.5469   -2.0092 H   0  0  0  0  0  0  0  0  0  0  0  0
   -3.4661   11.7576   -0.2469 H   0  0  0  0  0  0  0  0  0  0  0  0
   -1.9174   13.2042   -2.1644 H   0  0  0  0  0  0  0  0  0  0  0  0
   -1.5593   13.1552   -0.4400 H   0  0  0  0  0  0  0  0  0  0  0  0
   -0.9488   10.2692   -3.2716 H   0  0  0  0  0  0  0  0  0  0  0  0
   -1.3038   11.9934   -3.6290 H   0  0  0  0  0  0  0  0  0  0  0  0
    0.3942   11.4074   -3.6290 H   0  0  0  0  0  0  0  0  0  0  0  0
    0.7821   12.5737   -0.2415 H   0  0  0  0  0  0  0  0  0  0  0  0
    0.3422   14.0727   -2.2893 H   0  0  0  0  0  0  0  0  0  0  0  0
    1.9624   14.1052   -1.4152 H   0  0  0  0  0  0  0  0  0  0  0  0
    2.0556   14.1698   -4.0474 H   0  0  0  0  0  0  0  0  0  0  0  0
    1.9834   10.2286   -3.1718 H   0  0  0  0  0  0  0  0  0  0  0  0
    4.7951   11.1522   -2.3136 H   0  0  0  0  0  0  0  0  0  0  0  0
    4.1081    9.4727   -2.1790 H   0  0  0  0  0  0  0  0  0  0  0  0
    5.6580    9.6992   -4.0930 H   0  0  0  0  0  0  0  0  0  0  0  0
    3.9678    9.3035   -4.5958 H   0  0  0  0  0  0  0  0  0  0  0  0
    4.8431   10.9744   -6.0810 H   0  0  0  0  0  0  0  0  0  0  0  0
    5.1800   13.1380   -4.7020 H   0  0  0  0  0  0  0  0  0  0  0  0
    1.6107   10.4810   -5.2340 H   0  0  0  0  0  0  0  0  0  0  0  0
    1.5776   11.6833   -6.5683 H   0  0  0  0  0  0  0  0  0  0  0  0
    2.8086   10.3751   -6.5683 H   0  0  0  0  0  0  0  0  0  0  0  0
    3.4282   14.1367   -5.2769 H   0  0  0  0  0  0  0  0  0  0  0  0
    4.2328   13.2207   -6.5961 H   0  0  0  0  0  0  0  0  0  0  0  0
    2.4469   13.4130   -6.5961 H   0  0  0  0  0  0  0  0  0  0  0  0
    2.9541   11.6642    0.6652 H   0  0  0  0  0  0  0  0  0  0  0  0
    4.1794   11.2945   -0.5953 H   0  0  0  0  0  0  0  0  0  0  0  0
    3.3421   12.8837   -0.5953 H   0  0  0  0  0  0  0  0  0  0  0  0
    2.4060    9.0778   -1.0588 H   0  0  0  0  0  0  0  0  0  0  0  0
    1.7491    9.9904    0.4142 H   0  0  0  0  0  0  0  0  0  0  0  0
    0.2013    9.0358   -2.0108 H   0  0  0  0  0  0  0  0  0  0  0  0
    0.0690    8.4788   -0.2965 H   0  0  0  0  0  0  0  0  0  0  0  0
   -0.8804    9.8742    1.4481 H   0  0  0  0  0  0  0  0  0  0  0  0
    0.3325   11.1514    1.0957 H   0  0  0  0  0  0  0  0  0  0  0  0
   -1.4187   11.5513    1.0957 H   0  0  0  0  0  0  0  0  0  0  0  0
  1  2  1  0
  2  3  1  0
  3  4  1  0
  4  5  1  0
  5  6  1  0
  6  7  1  0
  7  8  1  0
  7  9  1  0
  2 10  1  0
 10 11  1  0
 11 12  1  0
 12 13  1  0
 13 14  1  6
 13 15  1  0
 15 16  1  0
 16 17  1  0
 17 18  2  0
 18 19  1  0
 19 20  1  0
 20 21  1  0
 21 22  1  0
 22 23  1  0
 22 24  1  0
 24 25  1  0
 24 26  1  0
 19 27  1  0
 27 28  1  1
 27 29  1  0
 29 30  1  0
 30 31  1  0
 31 32  1  1
  7  5  1  0
 31 10  1  0
 31 13  1  0
 27 15  1  0
 24 18  1  0
  1 33  1  0
  1 34  1  0
  1 35  1  0
  2 36  1  1
  3 37  1  0
  3 38  1  0
  4 39  1  0
  4 40  1  0
  5 41  1  6
  8 42  1  0
  8 43  1  0
  8 44  1  0
  9 45  1  0
  9 46  1  0
  9 47  1  0
 10 48  1  6
 11 49  1  0
 11 50  1  0
 12 51  1  0
 12 52  1  0
 14 53  1  0
 14 54  1  0
 14 55  1  0
 15 56  1  1
 16 57  1  0
 16 58  1  0
 17 59  1  0
 19 60  1  6
 20 61  1  0
 20 62  1  0
 21 63  1  0
 21 64  1  0
 22 65  1  6
 23 66  1  0
 25 67  1  0
 25 68  1  0
 25 69  1  0
 26 70  1  0
 26 71  1  0
 26 72  1  0
 28 73  1  0
 28 74  1  0
 28 75  1  0
 29 76  1  0
 29 77  1  0
 30 78  1  0
 30 79  1  0
 32 80  1  0
 32 81  1  0
 32 82  1  0
M  END
>  <meeko>  (12) 
{"is_sidechain": [false], "intermolecular_energy": 2.731, "internal_energy": -0.839}

$$$$
EPH_relaxed_0001_pdb2pqr_Repair_294_r2_0001_out
     RDKit          3D

 82 86  0  0  0  0  0  0  0  0999 V2000
    3.1050   11.3330   -4.2450 C   0  0  0  0  0  0  0  0  0  0  0  0
    1.9690   11.9250   -5.0840 C   0  0  2  0  0  0  0  0  0  0  0  0
    2.4950   12.6950   -6.3120 C   0  0  0  0  0  0  0  0  0  0  0  0
    1.7800   14.0270   -6.5550 C   0  0  0  0  0  0  0  0  0  0  0  0
    2.2810   14.7080   -7.7920 C   0  0  2  0  0  0  0  0  0  0  0  0
    2.3490   16.1370   -7.7040 O   0  0  0  0  0  0  0  0  0  0  0  0
    1.4190   15.6040   -8.6610 C   0  0  0  0  0  0  0  0  0  0  0  0
   -0.0160   15.8680   -8.3280 C   0  0  0  0  0  0  0  0  0  0  0  0
    1.8260   15.8270  -10.0850 C   0  0  0  0  0  0  0  0  0  0  0  0
    1.1100   12.8420   -4.2220 C   0  0  1  0  0  0  0  0  0  0  0  0
   -0.2230   12.1780   -3.7880 C   0  0  0  0  0  0  0  0  0  0  0  0
   -0.5390   12.6980   -2.3620 C   0  0  0  0  0  0  0  0  0  0  0  0
    0.4320   13.8840   -2.1560 C   0  0  1  0  0  0  0  0  0  0  0  0
   -0.2470   15.0880   -2.8820 C   0  0  0  0  0  0  0  0  0  0  0  0
    0.7930   14.2330   -0.6750 C   0  0  2  0  0  0  0  0  0  0  0  0
   -0.3930   14.6760    0.1990 C   0  0  0  0  0  0  0  0  0  0  0  0
   -0.6600   16.1450    0.2140 C   0  0  0  0  0  0  0  0  0  0  0  0
    0.1880   17.0980   -0.2140 C   0  0  0  0  0  0  0  0  0  0  0  0
    1.6020   16.7400   -0.6880 C   0  0  1  0  0  0  0  0  0  0  0  0
    2.6260   17.7140   -0.0460 C   0  0  0  0  0  0  0  0  0  0  0  0
    2.2790   19.1770   -0.3010 C   0  0  0  0  0  0  0  0  0  0  0  0
    0.8890   19.5100    0.2360 C   0  0  2  0  0  0  0  0  0  0  0  0
    0.9110   19.4140    1.6640 O   0  0  0  0  0  0  0  0  0  0  0  0
   -0.2240   18.5860   -0.3320 C   0  0  0  0  0  0  0  0  0  0  0  0
   -0.4540   18.9090   -1.8290 C   0  0  0  0  0  0  0  0  0  0  0  0
   -1.5510   18.9340    0.3950 C   0  0  0  0  0  0  0  0  0  0  0  0
    2.0230   15.2160   -0.5220 C   0  0  1  0  0  0  0  0  0  0  0  0
    2.6100   14.9780    0.9030 C   0  0  0  0  0  0  0  0  0  0  0  0
    3.1810   14.8890   -1.5390 C   0  0  0  0  0  0  0  0  0  0  0  0
    2.7590   14.4360   -2.9490 C   0  0  0  0  0  0  0  0  0  0  0  0
    1.7100   13.3210   -2.8760 C   0  0  2  0  0  0  0  0  0  0  0  0
    2.3710   12.0890   -2.1710 C   0  0  0  0  0  0  0  0  0  0  0  0
    2.8731   11.4538   -3.1765 H   0  0  0  0  0  0  0  0  0  0  0  0
    3.2139   10.2635   -4.4779 H   0  0  0  0  0  0  0  0  0  0  0  0
    4.0440   11.8564   -4.4779 H   0  0  0  0  0  0  0  0  0  0  0  0
    1.3604   11.0875   -5.4558 H   0  0  0  0  0  0  0  0  0  0  0  0
    3.5658   12.8977   -6.1625 H   0  0  0  0  0  0  0  0  0  0  0  0
    2.3068   12.0634   -7.1927 H   0  0  0  0  0  0  0  0  0  0  0  0
    0.7019   13.8380   -6.6641 H   0  0  0  0  0  0  0  0  0  0  0  0
    1.9804   14.6850   -5.6966 H   0  0  0  0  0  0  0  0  0  0  0  0
    2.9280   13.8507   -8.0296 H   0  0  0  0  0  0  0  0  0  0  0  0
   -0.1406   15.8909   -7.2353 H   0  0  0  0  0  0  0  0  0  0  0  0
   -0.3185   16.8369   -8.7520 H   0  0  0  0  0  0  0  0  0  0  0  0
   -0.6436   15.0702   -8.7520 H   0  0  0  0  0  0  0  0  0  0  0  0
    2.7904   16.3554  -10.1123 H   0  0  0  0  0  0  0  0  0  0  0  0
    1.9248   14.8570  -10.5943 H   0  0  0  0  0  0  0  0  0  0  0  0
    1.0617   16.4324  -10.5943 H   0  0  0  0  0  0  0  0  0  0  0  0
    1.0018   13.6933   -4.9102 H   0  0  0  0  0  0  0  0  0  0  0  0
   -1.0295   12.4594   -4.4811 H   0  0  0  0  0  0  0  0  0  0  0  0
   -0.1394   11.0812   -3.7987 H   0  0  0  0  0  0  0  0  0  0  0  0
   -1.5839   13.0351   -2.2941 H   0  0  0  0  0  0  0  0  0  0  0  0
   -0.4141   11.9183   -1.5961 H   0  0  0  0  0  0  0  0  0  0  0  0
   -0.6433   15.7908   -2.1343 H   0  0  0  0  0  0  0  0  0  0  0  0
    0.4943   15.6019   -3.5116 H   0  0  0  0  0  0  0  0  0  0  0  0
   -1.0703   14.7195   -3.5116 H   0  0  0  0  0  0  0  0  0  0  0  0
    1.1113   13.2592   -0.2745 H   0  0  0  0  0  0  0  0  0  0  0  0
   -1.2965   14.1700   -0.1721 H   0  0  0  0  0  0  0  0  0  0  0  0
   -0.1287   14.4040    1.2315 H   0  0  0  0  0  0  0  0  0  0  0  0
   -1.6321   16.4761    0.6083 H   0  0  0  0  0  0  0  0  0  0  0  0
    1.5986   16.8691   -1.7804 H   0  0  0  0  0  0  0  0  0  0  0  0
    2.6454   17.5401    1.0400 H   0  0  0  0  0  0  0  0  0  0  0  0
    3.6066   17.5181   -0.5043 H   0  0  0  0  0  0  0  0  0  0  0  0
    3.0211   19.8156    0.2004 H   0  0  0  0  0  0  0  0  0  0  0  0
    2.2881   19.3559   -1.3863 H   0  0  0  0  0  0  0  0  0  0  0  0
    0.6456   20.5320   -0.0898 H   0  0  0  0  0  0  0  0  0  0  0  0
    1.8270   19.5630    1.9550 H   0  0  0  0  0  0  0  0  0  0  0  0
   -1.0900   19.8021   -1.9179 H   0  0  0  0  0  0  0  0  0  0  0  0
    0.5139   19.0981   -2.3162 H   0  0  0  0  0  0  0  0  0  0  0  0
   -0.9493   18.0562   -2.3162 H   0  0  0  0  0  0  0  0  0  0  0  0
   -1.3947   18.8930    1.4831 H   0  0  0  0  0  0  0  0  0  0  0  0
   -1.8714   19.9465    0.1085 H   0  0  0  0  0  0  0  0  0  0  0  0
   -2.3271   18.2090    0.1085 H   0  0  0  0  0  0  0  0  0  0  0  0
    1.8698   15.2781    1.6593 H   0  0  0  0  0  0  0  0  0  0  0  0
    2.8497   13.9117    1.0274 H   0  0  0  0  0  0  0  0  0  0  0  0
    3.5246   15.5763    1.0274 H   0  0  0  0  0  0  0  0  0  0  0  0
    3.7925   15.7966   -1.6501 H   0  0  0  0  0  0  0  0  0  0  0  0
    3.7098   14.0272   -1.1059 H   0  0  0  0  0  0  0  0  0  0  0  0
    2.3348   15.2942   -3.4908 H   0  0  0  0  0  0  0  0  0  0  0  0
    3.6455   14.0497   -3.4733 H   0  0  0  0  0  0  0  0  0  0  0  0
    2.3050   12.2120   -1.0799 H   0  0  0  0  0  0  0  0  0  0  0  0
    1.8447   11.1701   -2.4689 H   0  0  0  0  0  0  0  0  0  0  0  0
    3.4276   12.0194   -2.4689 H   0  0  0  0  0  0  0  0  0  0  0  0
  1  2  1  0
  2  3  1  0
  3  4  1  0
  4  5  1  0
  5  6  1  0
  6  7  1  0
  7  8  1  0
  7  9  1  0
  2 10  1  0
 10 11  1  0
 11 12  1  0
 12 13  1  0
 13 14  1  6
 13 15  1  0
 15 16  1  0
 16 17  1  0
 17 18  2  0
 18 19  1  0
 19 20  1  0
 20 21  1  0
 21 22  1  0
 22 23  1  0
 22 24  1  0
 24 25  1  0
 24 26  1  0
 19 27  1  0
 27 28  1  1
 27 29  1  0
 29 30  1  0
 30 31  1  0
 31 32  1  1
  7  5  1  0
 31 10  1  0
 31 13  1  0
 27 15  1  0
 24 18  1  0
  1 33  1  0
  1 34  1  0
  1 35  1  0
  2 36  1  6
  3 37  1  0
  3 38  1  0
  4 39  1  0
  4 40  1  0
  5 41  1  6
  8 42  1  0
  8 43  1  0
  8 44  1  0
  9 45  1  0
  9 46  1  0
  9 47  1  0
 10 48  1  6
 11 49  1  0
 11 50  1  0
 12 51  1  0
 12 52  1  0
 14 53  1  0
 14 54  1  0
 14 55  1  0
 15 56  1  1
 16 57  1  0
 16 58  1  0
 17 59  1  0
 19 60  1  6
 20 61  1  0
 20 62  1  0
 21 63  1  0
 21 64  1  0
 22 65  1  1
 23 66  1  0
 25 67  1  0
 25 68  1  0
 25 69  1  0
 26 70  1  0
 26 71  1  0
 26 72  1  0
 28 73  1  0
 28 74  1  0
 28 75  1  0
 29 76  1  0
 29 77  1  0
 30 78  1  0
 30 79  1  0
 32 80  1  0
 32 81  1  0
 32 82  1  0
M  END
>  <meeko>  (13) 
{"is_sidechain": [false], "intermolecular_energy": 2.731, "internal_energy": -0.839}

$$$$
EPH_relaxed_0001_pdb2pqr_Repair_294_r2_0001_out
     RDKit          3D

 82 86  0  0  0  0  0  0  0  0999 V2000
    1.0760   14.6190   -4.8800 C   0  0  0  0  0  0  0  0  0  0  0  0
    0.5750   14.1280   -3.5190 C   0  0  2  0  0  0  0  0  0  0  0  0
    1.6240   14.3290   -2.4070 C   0  0  0  0  0  0  0  0  0  0  0  0
    1.1640   15.2700   -1.2900 C   0  0  0  0  0  0  0  0  0  0  0  0
    2.1120   16.4160   -1.1060 C   0  0  2  0  0  0  0  0  0  0  0  0
    2.3960   16.7450    0.2600 O   0  0  0  0  0  0  0  0  0  0  0  0
    1.7070   17.7490   -0.5030 C   0  0  0  0  0  0  0  0  0  0  0  0
    0.3050   18.0050   -0.0470 C   0  0  0  0  0  0  0  0  0  0  0  0
    2.5420   18.9540   -0.8060 C   0  0  0  0  0  0  0  0  0  0  0  0
    0.1860   12.6570   -3.6090 C   0  0  1  0  0  0  0  0  0  0  0  0
    1.3750   11.7490   -4.0190 C   0  0  0  0  0  0  0  0  0  0  0  0
    1.1930   10.4060   -3.2650 C   0  0  0  0  0  0  0  0  0  0  0  0
   -0.2510   10.4610   -2.7140 C   0  0  1  0  0  0  0  0  0  0  0  0
   -1.1560   10.0520   -3.9190 C   0  0  0  0  0  0  0  0  0  0  0  0
   -0.5420    9.5870   -1.4510 C   0  0  2  0  0  0  0  0  0  0  0  0
   -0.3680    8.0710   -1.6520 C   0  0  0  0  0  0  0  0  0  0  0  0
   -1.5930    7.3410   -2.0930 C   0  0  0  0  0  0  0  0  0  0  0  0
   -2.8490    7.8220   -2.0460 C   0  0  0  0  0  0  0  0  0  0  0  0
   -3.1460    9.1900   -1.4170 C   0  0  1  0  0  0  0  0  0  0  0  0
   -4.3680    9.0700   -0.4690 C   0  0  0  0  0  0  0  0  0  0  0  0
   -5.5880    8.4680   -1.1600 C   0  0  0  0  0  0  0  0  0  0  0  0
   -5.2700    7.0840   -1.7210 C   0  0  2  0  0  0  0  0  0  0  0  0
   -5.0270    6.1900   -0.6310 O   0  0  0  0  0  0  0  0  0  0  0  0
   -4.0490    7.0790   -2.6830 C   0  0  0  0  0  0  0  0  0  0  0  0
   -4.4230    7.8000   -4.0020 C   0  0  0  0  0  0  0  0  0  0  0  0
   -3.7490    5.6040   -3.0650 C   0  0  0  0  0  0  0  0  0  0  0  0
   -1.9120    9.9210   -0.7330 C   0  0  1  0  0  0  0  0  0  0  0  0
   -1.7670    9.4480    0.7460 C   0  0  0  0  0  0  0  0  0  0  0  0
   -2.1970   11.4690   -0.6790 C   0  0  0  0  0  0  0  0  0  0  0  0
   -1.7780   12.2960   -1.9090 C   0  0  0  0  0  0  0  0  0  0  0  0
   -0.3360   11.9800   -2.3170 C   0  0  2  0  0  0  0  0  0  0  0  0
    0.6000   12.4010   -1.1330 C   0  0  0  0  0  0  0  0  0  0  0  0
    1.8544   15.3818   -4.7308 H   0  0  0  0  0  0  0  0  0  0  0  0
    1.4954   13.7725   -5.4435 H   0  0  0  0  0  0  0  0  0  0  0  0
    0.2381   15.0554   -5.4435 H   0  0  0  0  0  0  0  0  0  0  0  0
   -0.3064   14.7302   -3.2534 H   0  0  0  0  0  0  0  0  0  0  0  0
    1.8520   13.3486   -1.9633 H   0  0  0  0  0  0  0  0  0  0  0  0
    2.5046   14.7925   -2.8756 H   0  0  0  0  0  0  0  0  0  0  0  0
    0.1701   15.6667   -1.5447 H   0  0  0  0  0  0  0  0  0  0  0  0
    1.1310   14.6978   -0.3511 H   0  0  0  0  0  0  0  0  0  0  0  0
    2.6423   16.1567   -2.0342 H   0  0  0  0  0  0  0  0  0  0  0  0
    0.2724   18.0110    1.0525 H   0  0  0  0  0  0  0  0  0  0  0  0
   -0.0327   18.9797   -0.4291 H   0  0  0  0  0  0  0  0  0  0  0  0
   -0.3553   17.2126   -0.4291 H   0  0  0  0  0  0  0  0  0  0  0  0
    2.8661   19.4217    0.1354 H   0  0  0  0  0  0  0  0  0  0  0  0
    3.4250   18.6513   -1.3880 H   0  0  0  0  0  0  0  0  0  0  0  0
    1.9485   19.6744   -1.3880 H   0  0  0  0  0  0  0  0  0  0  0  0
   -0.6227   12.7246   -4.3515 H   0  0  0  0  0  0  0  0  0  0  0  0
    1.3639   11.5779   -5.1056 H   0  0  0  0  0  0  0  0  0  0  0  0
    2.3366   12.2181   -3.7637 H   0  0  0  0  0  0  0  0  0  0  0  0
    1.3145    9.5554   -3.9518 H   0  0  0  0  0  0  0  0  0  0  0  0
    1.9389   10.2705   -2.4680 H   0  0  0  0  0  0  0  0  0  0  0  0
   -2.0978    9.6264   -3.5424 H   0  0  0  0  0  0  0  0  0  0  0  0
   -1.3737   10.9392   -4.5317 H   0  0  0  0  0  0  0  0  0  0  0  0
   -0.6340    9.3023   -4.5317 H   0  0  0  0  0  0  0  0  0  0  0  0
    0.2611    9.8915   -0.7638 H   0  0  0  0  0  0  0  0  0  0  0  0
    0.4119    7.9163   -2.4122 H   0  0  0  0  0  0  0  0  0  0  0  0
   -0.1087    7.6612   -0.6647 H   0  0  0  0  0  0  0  0  0  0  0  0
   -1.4577    6.3241   -2.4899 H   0  0  0  0  0  0  0  0  0  0  0  0
   -3.3873    9.8631   -2.2529 H   0  0  0  0  0  0  0  0  0  0  0  0
   -4.0927    8.4293    0.3817 H   0  0  0  0  0  0  0  0  0  0  0  0
   -4.6370   10.0849   -0.1411 H   0  0  0  0  0  0  0  0  0  0  0  0
   -6.4080    8.3816   -0.4319 H   0  0  0  0  0  0  0  0  0  0  0  0
   -5.8801    9.1254   -1.9921 H   0  0  0  0  0  0  0  0  0  0  0  0
   -6.1381    6.7607   -2.3142 H   0  0  0  0  0  0  0  0  0  0  0  0
   -4.1960    6.4620   -0.2060 H   0  0  0  0  0  0  0  0  0  0  0  0
   -4.9182    8.7546   -3.7704 H   0  0  0  0  0  0  0  0  0  0  0  0
   -3.5110    7.9923   -4.5861 H   0  0  0  0  0  0  0  0  0  0  0  0
   -5.1055    7.1652   -4.5861 H   0  0  0  0  0  0  0  0  0  0  0  0
   -3.6273    5.0057   -2.1500 H   0  0  0  0  0  0  0  0  0  0  0  0
   -4.5837    5.2017   -3.6578 H   0  0  0  0  0  0  0  0  0  0  0  0
   -2.8235    5.5597   -3.6578 H   0  0  0  0  0  0  0  0  0  0  0  0
   -2.0212   10.2771    1.4227 H   0  0  0  0  0  0  0  0  0  0  0  0
   -2.4475    8.6034    0.9292 H   0  0  0  0  0  0  0  0  0  0  0  0
   -0.7301    9.1299    0.9292 H   0  0  0  0  0  0  0  0  0  0  0  0
   -3.2800   11.6033   -0.5410 H   0  0  0  0  0  0  0  0  0  0  0  0
   -1.5765   11.8471    0.1468 H   0  0  0  0  0  0  0  0  0  0  0  0
   -2.4493   12.0591   -2.7476 H   0  0  0  0  0  0  0  0  0  0  0  0
   -1.8439   13.3637   -1.6527 H   0  0  0  0  0  0  0  0  0  0  0  0
    0.1043   12.1781   -0.1766 H   0  0  0  0  0  0  0  0  0  0  0  0
    1.5448   11.8411   -1.1956 H   0  0  0  0  0  0  0  0  0  0  0  0
    0.8080   13.4793   -1.1956 H   0  0  0  0  0  0  0  0  0  0  0  0
  1  2  1  0
  2  3  1  0
  3  4  1  0
  4  5  1  0
  5  6  1  0
  6  7  1  0
  7  8  1  0
  7  9  1  0
  2 10  1  0
 10 11  1  0
 11 12  1  0
 12 13  1  0
 13 14  1  6
 13 15  1  0
 15 16  1  0
 16 17  1  0
 17 18  2  0
 18 19  1  0
 19 20  1  0
 20 21  1  0
 21 22  1  0
 22 23  1  0
 22 24  1  0
 24 25  1  0
 24 26  1  0
 19 27  1  0
 27 28  1  1
 27 29  1  0
 29 30  1  0
 30 31  1  0
 31 32  1  1
  7  5  1  0
 31 10  1  0
 31 13  1  0
 27 15  1  0
 24 18  1  0
  1 33  1  0
  1 34  1  0
  1 35  1  0
  2 36  1  1
  3 37  1  0
  3 38  1  0
  4 39  1  0
  4 40  1  0
  5 41  1  6
  8 42  1  0
  8 43  1  0
  8 44  1  0
  9 45  1  0
  9 46  1  0
  9 47  1  0
 10 48  1  6
 11 49  1  0
 11 50  1  0
 12 51  1  0
 12 52  1  0
 14 53  1  0
 14 54  1  0
 14 55  1  0
 15 56  1  1
 16 57  1  0
 16 58  1  0
 17 59  1  0
 19 60  1  6
 20 61  1  0
 20 62  1  0
 21 63  1  0
 21 64  1  0
 22 65  1  6
 23 66  1  0
 25 67  1  0
 25 68  1  0
 25 69  1  0
 26 70  1  0
 26 71  1  0
 26 72  1  0
 28 73  1  0
 28 74  1  0
 28 75  1  0
 29 76  1  0
 29 77  1  0
 30 78  1  0
 30 79  1  0
 32 80  1  0
 32 81  1  0
 32 82  1  0
M  END
>  <meeko>  (14) 
{"is_sidechain": [false], "intermolecular_energy": 2.731, "internal_energy": -0.839}

$$$$
EPH_relaxed_0001_pdb2pqr_Repair_294_r2_0001_out
     RDKit          3D

 82 86  0  0  0  0  0  0  0  0999 V2000
    3.3900   17.1900   -0.0210 C   0  0  0  0  0  0  0  0  0  0  0  0
    2.3670   16.9490   -1.1340 C   0  0  2  0  0  0  0  0  0  0  0  0
    0.9560   17.4320   -0.7410 C   0  0  0  0  0  0  0  0  0  0  0  0
    0.9590   18.6390    0.2010 C   0  0  0  0  0  0  0  0  0  0  0  0
   -0.1140   19.6230   -0.1550 C   0  0  2  0  0  0  0  0  0  0  0  0
   -0.8230   20.1670    0.9650 O   0  0  0  0  0  0  0  0  0  0  0  0
   -1.5930   19.3610    0.0590 C   0  0  0  0  0  0  0  0  0  0  0  0
   -2.0810   18.0760    0.6510 C   0  0  0  0  0  0  0  0  0  0  0  0
   -2.5820   20.1410   -0.7500 C   0  0  0  0  0  0  0  0  0  0  0  0
    2.3290   15.4690   -1.4950 C   0  0  1  0  0  0  0  0  0  0  0  0
    3.7280   14.9080   -1.8630 C   0  0  0  0  0  0  0  0  0  0  0  0
    3.7730   13.4460   -1.3500 C   0  0  0  0  0  0  0  0  0  0  0  0
    2.3040   13.1080   -1.0060 C   0  0  1  0  0  0  0  0  0  0  0  0
    1.6460   12.7410   -2.3740 C   0  0  0  0  0  0  0  0  0  0  0  0
    2.0840   11.9850    0.0600 C   0  0  2  0  0  0  0  0  0  0  0  0
    2.6140   10.5960   -0.3370 C   0  0  0  0  0  0  0  0  0  0  0  0
    1.6370    9.7210   -1.0500 C   0  0  0  0  0  0  0  0  0  0  0  0
    0.3070    9.9200   -1.1100 C   0  0  0  0  0  0  0  0  0  0  0  0
   -0.3530   11.0660   -0.3340 C   0  0  1  0  0  0  0  0  0  0  0  0
   -1.6110   10.5360    0.4030 C   0  0  0  0  0  0  0  0  0  0  0  0
   -2.5840    9.8290   -0.5340 C   0  0  0  0  0  0  0  0  0  0  0  0
   -1.9070    8.6590   -1.2430 C   0  0  2  0  0  0  0  0  0  0  0  0
   -1.5860    7.6560   -0.2740 O   0  0  0  0  0  0  0  0  0  0  0  0
   -0.6210    9.0710   -2.0130 C   0  0  0  0  0  0  0  0  0  0  0  0
   -1.0050    9.9200   -3.2500 C   0  0  0  0  0  0  0  0  0  0  0  0
    0.0410    7.7790   -2.5630 C   0  0  0  0  0  0  0  0  0  0  0  0
    0.6060   11.9020    0.6180 C   0  0  1  0  0  0  0  0  0  0  0  0
    0.6960   11.2180    2.0160 C   0  0  0  0  0  0  0  0  0  0  0  0
   -0.0230   13.3250    0.8610 C   0  0  0  0  0  0  0  0  0  0  0  0
    0.3280   14.4230   -0.1620 C   0  0  0  0  0  0  0  0  0  0  0  0
    1.8390   14.4840   -0.4050 C   0  0  2  0  0  0  0  0  0  0  0  0
    2.5260   14.8730    0.9490 C   0  0  0  0  0  0  0  0  0  0  0  0
    2.9011   17.0748    0.9576 H   0  0  0  0  0  0  0  0  0  0  0  0
    4.2080   16.4600   -0.1104 H   0  0  0  0  0  0  0  0  0  0  0  0
    3.7961   18.2084   -0.1104 H   0  0  0  0  0  0  0  0  0  0  0  0
    2.6855   17.5362   -2.0079 H   0  0  0  0  0  0  0  0  0  0  0  0
    0.4156   17.7087   -1.6583 H   0  0  0  0  0  0  0  0  0  0  0  0
    0.4715   16.6046   -0.2019 H   0  0  0  0  0  0  0  0  0  0  0  0
    0.7936   18.2882    1.2304 H   0  0  0  0  0  0  0  0  0  0  0  0
    1.9318   19.1440    0.1080 H   0  0  0  0  0  0  0  0  0  0  0  0
    0.4559   19.9629   -1.0323 H   0  0  0  0  0  0  0  0  0  0  0  0
   -2.0549   18.1447    1.7485 H   0  0  0  0  0  0  0  0  0  0  0  0
   -3.1130   17.8883    0.3198 H   0  0  0  0  0  0  0  0  0  0  0  0
   -1.4337   17.2506    0.3198 H   0  0  0  0  0  0  0  0  0  0  0  0
   -3.2643   20.6791   -0.0755 H   0  0  0  0  0  0  0  0  0  0  0  0
   -2.0480   20.8637   -1.3845 H   0  0  0  0  0  0  0  0  0  0  0  0
   -3.1604   19.4533   -1.3845 H   0  0  0  0  0  0  0  0  0  0  0  0
    1.6085   15.5001   -2.3256 H   0  0  0  0  0  0  0  0  0  0  0  0
    3.8705   14.9313   -2.9535 H   0  0  0  0  0  0  0  0  0  0  0  0
    4.5274   15.5110   -1.4077 H   0  0  0  0  0  0  0  0  0  0  0  0
    4.1539   12.7719   -2.1313 H   0  0  0  0  0  0  0  0  0  0  0  0
    4.4419   13.3279   -0.4847 H   0  0  0  0  0  0  0  0  0  0  0  0
    0.6981   12.2123   -2.1949 H   0  0  0  0  0  0  0  0  0  0  0  0
    1.4507   13.6605   -2.9453 H   0  0  0  0  0  0  0  0  0  0  0  0
    2.3257   12.0917   -2.9453 H   0  0  0  0  0  0  0  0  0  0  0  0
    2.7206   12.3210    0.8918 H   0  0  0  0  0  0  0  0  0  0  0  0
    3.4845   10.7393   -0.9940 H   0  0  0  0  0  0  0  0  0  0  0  0
    2.8533   10.0808    0.6050 H   0  0  0  0  0  0  0  0  0  0  0  0
    2.0379    8.8388   -1.5705 H   0  0  0  0  0  0  0  0  0  0  0  0
   -0.6485   11.8118   -1.0867 H   0  0  0  0  0  0  0  0  0  0  0  0
   -1.2913    9.8262    1.1801 H   0  0  0  0  0  0  0  0  0  0  0  0
   -2.1338   11.4019    0.8353 H   0  0  0  0  0  0  0  0  0  0  0  0
   -3.4361    9.4514    0.0502 H   0  0  0  0  0  0  0  0  0  0  0  0
   -2.9259   10.5485   -1.2926 H   0  0  0  0  0  0  0  0  0  0  0  0
   -2.6133    8.2749   -1.9937 H   0  0  0  0  0  0  0  0  0  0  0  0
   -0.7730    7.2120   -0.5680 H   0  0  0  0  0  0  0  0  0  0  0  0
   -1.4373   10.8758   -2.9189 H   0  0  0  0  0  0  0  0  0  0  0  0
   -0.1069   10.1138   -3.8549 H   0  0  0  0  0  0  0  0  0  0  0  0
   -1.7436    9.3735   -3.8549 H   0  0  0  0  0  0  0  0  0  0  0  0
    0.3649    7.1468   -1.7231 H   0  0  0  0  0  0  0  0  0  0  0  0
   -0.6857    7.2278   -3.1778 H   0  0  0  0  0  0  0  0  0  0  0  0
    0.9129    8.0469   -3.1778 H   0  0  0  0  0  0  0  0  0  0  0  0
    0.5958   11.9792    2.8038 H   0  0  0  0  0  0  0  0  0  0  0  0
   -0.1126   10.4789    2.1153 H   0  0  0  0  0  0  0  0  0  0  0  0
    1.6683   10.7133    2.1153 H   0  0  0  0  0  0  0  0  0  0  0  0
   -1.1169   13.2095    0.8633 H   0  0  0  0  0  0  0  0  0  0  0  0
    0.4056   13.6707    1.8133 H   0  0  0  0  0  0  0  0  0  0  0  0
   -0.1807   14.2049   -1.1126 H   0  0  0  0  0  0  0  0  0  0  0  0
   -0.0021   15.3931    0.2380 H   0  0  0  0  0  0  0  0  0  0  0  0
    1.9071   14.5226    1.7881 H   0  0  0  0  0  0  0  0  0  0  0  0
    3.5191   14.4032    1.0046 H   0  0  0  0  0  0  0  0  0  0  0  0
    2.6340   15.9663    1.0046 H   0  0  0  0  0  0  0  0  0  0  0  0
  1  2  1  0
  2  3  1  0
  3  4  1  0
  4  5  1  0
  5  6  1  0
  6  7  1  0
  7  8  1  0
  7  9  1  0
  2 10  1  0
 10 11  1  0
 11 12  1  0
 12 13  1  0
 13 14  1  6
 13 15  1  0
 15 16  1  0
 16 17  1  0
 17 18  2  0
 18 19  1  0
 19 20  1  0
 20 21  1  0
 21 22  1  0
 22 23  1  0
 22 24  1  0
 24 25  1  0
 24 26  1  0
 19 27  1  0
 27 28  1  1
 27 29  1  0
 29 30  1  0
 30 31  1  0
 31 32  1  1
  7  5  1  0
 31 10  1  0
 31 13  1  0
 27 15  1  0
 24 18  1  0
  1 33  1  0
  1 34  1  0
  1 35  1  0
  2 36  1  6
  3 37  1  0
  3 38  1  0
  4 39  1  0
  4 40  1  0
  5 41  1  6
  8 42  1  0
  8 43  1  0
  8 44  1  0
  9 45  1  0
  9 46  1  0
  9 47  1  0
 10 48  1  6
 11 49  1  0
 11 50  1  0
 12 51  1  0
 12 52  1  0
 14 53  1  0
 14 54  1  0
 14 55  1  0
 15 56  1  1
 16 57  1  0
 16 58  1  0
 17 59  1  0
 19 60  1  6
 20 61  1  0
 20 62  1  0
 21 63  1  0
 21 64  1  0
 22 65  1  6
 23 66  1  0
 25 67  1  0
 25 68  1  0
 25 69  1  0
 26 70  1  0
 26 71  1  0
 26 72  1  0
 28 73  1  0
 28 74  1  0
 28 75  1  0
 29 76  1  0
 29 77  1  0
 30 78  1  0
 30 79  1  0
 32 80  1  0
 32 81  1  0
 32 82  1  0
M  END
>  <meeko>  (15) 
{"is_sidechain": [false], "intermolecular_energy": 2.731, "internal_energy": -0.839}

$$$$
EPH_relaxed_0001_pdb2pqr_Repair_294_r2_0001_out
     RDKit          3D

 82 86  0  0  0  0  0  0  0  0999 V2000
   -0.5380   16.8190   -1.3530 C   0  0  0  0  0  0  0  0  0  0  0  0
   -0.8060   15.6230   -0.4350 C   0  0  2  0  0  0  0  0  0  0  0  0
   -1.0190   16.0520    1.0310 C   0  0  0  0  0  0  0  0  0  0  0  0
   -1.4960   17.4990    1.1850 C   0  0  0  0  0  0  0  0  0  0  0  0
   -0.7230   18.4340    0.3050 C   0  0  2  0  0  0  0  0  0  0  0  0
   -0.5810   19.7630    0.8220 O   0  0  0  0  0  0  0  0  0  0  0  0
   -1.3430   19.6330   -0.3900 C   0  0  0  0  0  0  0  0  0  0  0  0
   -2.7950   19.9600   -0.2340 C   0  0  0  0  0  0  0  0  0  0  0  0
   -0.6570   20.1940   -1.5960 C   0  0  0  0  0  0  0  0  0  0  0  0
    0.3480   14.6300   -0.5240 C   0  0  1  0  0  0  0  0  0  0  0  0
    0.4560   13.7260    0.7330 C   0  0  0  0  0  0  0  0  0  0  0  0
    0.9370   12.3360    0.2440 C   0  0  0  0  0  0  0  0  0  0  0  0
    1.4040   12.5750   -1.2110 C   0  0  1  0  0  0  0  0  0  0  0  0
    2.8430   13.1650   -1.0790 C   0  0  0  0  0  0  0  0  0  0  0  0
    1.3760   11.3310   -2.1590 C   0  0  2  0  0  0  0  0  0  0  0  0
    2.3020   10.1740   -1.7450 C   0  0  0  0  0  0  0  0  0  0  0  0
    3.6800   10.2260   -2.3160 C   0  0  0  0  0  0  0  0  0  0  0  0
    4.0720   10.9980   -3.3460 C   0  0  0  0  0  0  0  0  0  0  0  0
    3.0610   11.8600   -4.1130 C   0  0  1  0  0  0  0  0  0  0  0  0
    3.2830   11.6840   -5.6390 C   0  0  0  0  0  0  0  0  0  0  0  0
    4.7240   11.9620   -6.0570 C   0  0  0  0  0  0  0  0  0  0  0  0
    5.6940   11.0460   -5.3150 C   0  0  2  0  0  0  0  0  0  0  0  0
    5.4750    9.6990   -5.7450 O   0  0  0  0  0  0  0  0  0  0  0  0
    5.5560   11.1310   -3.7690 C   0  0  0  0  0  0  0  0  0  0  0  0
    6.0820   12.5010   -3.2740 C   0  0  0  0  0  0  0  0  0  0  0  0
    6.4890   10.0570   -3.1470 C   0  0  0  0  0  0  0  0  0  0  0  0
    1.5390   11.6820   -3.6940 C   0  0  1  0  0  0  0  0  0  0  0  0
    0.9010   10.5030   -4.4900 C   0  0  0  0  0  0  0  0  0  0  0  0
    0.7390   12.9760   -4.1000 C   0  0  0  0  0  0  0  0  0  0  0  0
    0.7050   14.1230   -3.0720 C   0  0  0  0  0  0  0  0  0  0  0  0
    0.3150   13.6040   -1.6840 C   0  0  2  0  0  0  0  0  0  0  0  0
   -1.1370   13.0240   -1.7810 C   0  0  0  0  0  0  0  0  0  0  0  0
   -0.3379   17.7120   -0.7427 H   0  0  0  0  0  0  0  0  0  0  0  0
    0.3346   16.6057   -1.9878 H   0  0  0  0  0  0  0  0  0  0  0  0
   -1.4182   16.9984   -1.9878 H   0  0  0  0  0  0  0  0  0  0  0  0
   -1.7355   15.1451   -0.7778 H   0  0  0  0  0  0  0  0  0  0  0  0
   -1.7717   15.3882    1.4814 H   0  0  0  0  0  0  0  0  0  0  0  0
   -0.0426   15.9799    1.5325 H   0  0  0  0  0  0  0  0  0  0  0  0
   -2.5610   17.5540    0.9151 H   0  0  0  0  0  0  0  0  0  0  0  0
   -1.3382   17.8027    2.2304 H   0  0  0  0  0  0  0  0  0  0  0  0
   -0.0991   17.6073   -0.0656 H   0  0  0  0  0  0  0  0  0  0  0  0
   -3.0453   20.0164    0.8357 H   0  0  0  0  0  0  0  0  0  0  0  0
   -3.0062   20.9282   -0.7115 H   0  0  0  0  0  0  0  0  0  0  0  0
   -3.4008   19.1758   -0.7115 H   0  0  0  0  0  0  0  0  0  0  0  0
    0.1580   20.8605   -1.2774 H   0  0  0  0  0  0  0  0  0  0  0  0
   -0.2438   19.3717   -2.1985 H   0  0  0  0  0  0  0  0  0  0  0  0
   -1.3810   20.7622   -2.1985 H   0  0  0  0  0  0  0  0  0  0  0  0
    1.1842   15.3307   -0.6649 H   0  0  0  0  0  0  0  0  0  0  0  0
    1.1814   14.1497    1.4431 H   0  0  0  0  0  0  0  0  0  0  0  0
   -0.5124   13.6498    1.2491 H   0  0  0  0  0  0  0  0  0  0  0  0
    1.7695   11.9727    0.8644 H   0  0  0  0  0  0  0  0  0  0  0  0
    0.1462   11.5742    0.3087 H   0  0  0  0  0  0  0  0  0  0  0  0
    3.0999   13.2703   -0.0146 H   0  0  0  0  0  0  0  0  0  0  0  0
    3.5623   12.4892   -1.5647 H   0  0  0  0  0  0  0  0  0  0  0  0
    2.8809   14.1512   -1.5647 H   0  0  0  0  0  0  0  0  0  0  0  0
    0.3510   10.9551   -2.0249 H   0  0  0  0  0  0  0  0  0  0  0  0
    2.3877   10.1827   -0.6484 H   0  0  0  0  0  0  0  0  0  0  0  0
    1.8415    9.2578   -2.1431 H   0  0  0  0  0  0  0  0  0  0  0  0
    4.4401    9.5778   -1.8554 H   0  0  0  0  0  0  0  0  0  0  0  0
    3.2672   12.9008   -3.8229 H   0  0  0  0  0  0  0  0  0  0  0  0
    3.0290   10.6500   -5.9152 H   0  0  0  0  0  0  0  0  0  0  0  0
    2.6394   12.4111   -6.1559 H   0  0  0  0  0  0  0  0  0  0  0  0
    4.8242   11.7914   -7.1391 H   0  0  0  0  0  0  0  0  0  0  0  0
    4.9666   13.0056   -5.8079 H   0  0  0  0  0  0  0  0  0  0  0  0
    6.7140   11.3794   -5.5568 H   0  0  0  0  0  0  0  0  0  0  0  0
    6.1850    9.4700   -6.3680 H   0  0  0  0  0  0  0  0  0  0  0  0
    6.0877   12.5159   -2.1741 H   0  0  0  0  0  0  0  0  0  0  0  0
    7.1044   12.6582   -3.6482 H   0  0  0  0  0  0  0  0  0  0  0  0
    5.4275   13.3020   -3.6482 H   0  0  0  0  0  0  0  0  0  0  0  0
    6.4369   10.1170   -2.0499 H   0  0  0  0  0  0  0  0  0  0  0  0
    6.1675    9.0575   -3.4752 H   0  0  0  0  0  0  0  0  0  0  0  0
    7.5236   10.2356   -3.4752 H   0  0  0  0  0  0  0  0  0  0  0  0
    0.4990    9.7600   -3.7855 H   0  0  0  0  0  0  0  0  0  0  0  0
    0.0870   10.8860   -5.1231 H   0  0  0  0  0  0  0  0  0  0  0  0
    1.6669   10.0311   -5.1231 H   0  0  0  0  0  0  0  0  0  0  0  0
    1.1894   13.3697   -5.0231 H   0  0  0  0  0  0  0  0  0  0  0  0
   -0.3063   12.6484   -4.2003 H   0  0  0  0  0  0  0  0  0  0  0  0
    1.7013   14.5859   -3.0162 H   0  0  0  0  0  0  0  0  0  0  0  0
   -0.0448   14.8606   -3.3941 H   0  0  0  0  0  0  0  0  0  0  0  0
   -1.5365   12.8644   -0.7686 H   0  0  0  0  0  0  0  0  0  0  0  0
   -1.7802   13.7342   -2.3213 H   0  0  0  0  0  0  0  0  0  0  0  0
   -1.1139   12.0661   -2.3213 H   0  0  0  0  0  0  0  0  0  0  0  0
  1  2  1  0
  2  3  1  0
  3  4  1  0
  4  5  1  0
  5  6  1  0
  6  7  1  0
  7  8  1  0
  7  9  1  0
  2 10  1  0
 10 11  1  0
 11 12  1  0
 12 13  1  0
 13 14  1  1
 13 15  1  0
 15 16  1  0
 16 17  1  0
 17 18  2  0
 18 19  1  0
 19 20  1  0
 20 21  1  0
 21 22  1  0
 22 23  1  0
 22 24  1  0
 24 25  1  0
 24 26  1  0
 19 27  1  0
 27 28  1  6
 27 29  1  0
 29 30  1  0
 30 31  1  0
 31 32  1  6
  7  5  1  0
 31 10  1  0
 31 13  1  0
 27 15  1  0
 24 18  1  0
  1 33  1  0
  1 34  1  0
  1 35  1  0
  2 36  1  6
  3 37  1  0
  3 38  1  0
  4 39  1  0
  4 40  1  0
  5 41  1  6
  8 42  1  0
  8 43  1  0
  8 44  1  0
  9 45  1  0
  9 46  1  0
  9 47  1  0
 10 48  1  6
 11 49  1  0
 11 50  1  0
 12 51  1  0
 12 52  1  0
 14 53  1  0
 14 54  1  0
 14 55  1  0
 15 56  1  6
 16 57  1  0
 16 58  1  0
 17 59  1  0
 19 60  1  1
 20 61  1  0
 20 62  1  0
 21 63  1  0
 21 64  1  0
 22 65  1  1
 23 66  1  0
 25 67  1  0
 25 68  1  0
 25 69  1  0
 26 70  1  0
 26 71  1  0
 26 72  1  0
 28 73  1  0
 28 74  1  0
 28 75  1  0
 29 76  1  0
 29 77  1  0
 30 78  1  0
 30 79  1  0
 32 80  1  0
 32 81  1  0
 32 82  1  0
M  END
>  <meeko>  (16) 
{"is_sidechain": [false], "intermolecular_energy": 2.731, "internal_energy": -0.839}

$$$$
EPH_relaxed_0001_pdb2pqr_Repair_294_r2_0001_out
     RDKit          3D

 82 86  0  0  0  0  0  0  0  0999 V2000
    4.8020   17.6780   -1.2400 C   0  0  0  0  0  0  0  0  0  0  0  0
    3.3060   17.3500   -1.2230 C   0  0  2  0  0  0  0  0  0  0  0  0
    2.5110   18.3120   -0.3180 C   0  0  0  0  0  0  0  0  0  0  0  0
    3.3810   19.3590    0.3820 C   0  0  0  0  0  0  0  0  0  0  0  0
    3.5060   19.0840    1.8500 C   0  0  2  0  0  0  0  0  0  0  0  0
    3.9730   20.1920    2.6300 O   0  0  0  0  0  0  0  0  0  0  0  0
    4.8340   19.0430    2.5830 C   0  0  0  0  0  0  0  0  0  0  0  0
    6.1280   19.2790    1.8690 C   0  0  0  0  0  0  0  0  0  0  0  0
    4.9130   18.2970    3.8790 C   0  0  0  0  0  0  0  0  0  0  0  0
    3.0940   15.9110   -0.7670 C   0  0  1  0  0  0  0  0  0  0  0  0
    3.3310   15.7270    0.7560 C   0  0  0  0  0  0  0  0  0  0  0  0
    2.3220   14.6540    1.2390 C   0  0  0  0  0  0  0  0  0  0  0  0
    1.7730   14.0210   -0.0620 C   0  0  1  0  0  0  0  0  0  0  0  0
    2.8590   12.9870   -0.4940 C   0  0  0  0  0  0  0  0  0  0  0  0
    0.3570   13.3660    0.0330 C   0  0  2  0  0  0  0  0  0  0  0  0
    0.2530   12.1730    1.0000 C   0  0  0  0  0  0  0  0  0  0  0  0
    0.5220   10.8360    0.3930 C   0  0  0  0  0  0  0  0  0  0  0  0
    0.5540   10.5680   -0.9260 C   0  0  0  0  0  0  0  0  0  0  0  0
    0.2080   11.6480   -1.9580 C   0  0  1  0  0  0  0  0  0  0  0  0
   -0.7620   11.0610   -3.0170 C   0  0  0  0  0  0  0  0  0  0  0  0
   -0.2220    9.7880   -3.6630 C   0  0  0  0  0  0  0  0  0  0  0  0
    0.0550    8.7180   -2.6100 C   0  0  2  0  0  0  0  0  0  0  0  0
   -1.1890    8.3020   -2.0370 O   0  0  0  0  0  0  0  0  0  0  0  0
    1.0140    9.1990   -1.4850 C   0  0  0  0  0  0  0  0  0  0  0  0
    2.4440    9.3610   -2.0550 C   0  0  0  0  0  0  0  0  0  0  0  0
    1.0970    8.0750   -0.4170 C   0  0  0  0  0  0  0  0  0  0  0  0
   -0.2990   13.0340   -1.3680 C   0  0  1  0  0  0  0  0  0  0  0  0
   -1.8400   12.9820   -1.1370 C   0  0  0  0  0  0  0  0  0  0  0  0
   -0.0470   14.1680   -2.4300 C   0  0  0  0  0  0  0  0  0  0  0  0
    1.3290   14.8590   -2.3960 C   0  0  0  0  0  0  0  0  0  0  0  0
    1.6860   15.3000   -0.9730 C   0  0  2  0  0  0  0  0  0  0  0  0
    0.6230   16.3580   -0.5190 C   0  0  0  0  0  0  0  0  0  0  0  0
    5.1714   17.7590   -0.2070 H   0  0  0  0  0  0  0  0  0  0  0  0
    5.3469   16.8780   -1.7626 H   0  0  0  0  0  0  0  0  0  0  0  0
    4.9622   18.6326   -1.7626 H   0  0  0  0  0  0  0  0  0  0  0  0
    2.9286   17.4741   -2.2488 H   0  0  0  0  0  0  0  0  0  0  0  0
    1.7674   18.8358   -0.9366 H   0  0  0  0  0  0  0  0  0  0  0  0
    2.0463   17.7014    0.4702 H   0  0  0  0  0  0  0  0  0  0  0  0
    4.3841   19.3485   -0.0694 H   0  0  0  0  0  0  0  0  0  0  0  0
    2.9027   20.3416    0.2567 H   0  0  0  0  0  0  0  0  0  0  0  0
    2.6607   18.3810    1.8138 H   0  0  0  0  0  0  0  0  0  0  0  0
    6.9318   19.4256    2.6055 H   0  0  0  0  0  0  0  0  0  0  0  0
    6.3628   18.4089    1.2383 H   0  0  0  0  0  0  0  0  0  0  0  0
    6.0405   20.1760    1.2383 H   0  0  0  0  0  0  0  0  0  0  0  0
    4.8378   19.0069    4.7159 H   0  0  0  0  0  0  0  0  0  0  0  0
    4.0865   17.5735    3.9366 H   0  0  0  0  0  0  0  0  0  0  0  0
    5.8728   17.7626    3.9366 H   0  0  0  0  0  0  0  0  0  0  0  0
    3.8229   15.4023   -1.4150 H   0  0  0  0  0  0  0  0  0  0  0  0
    4.3612   15.3887    0.9409 H   0  0  0  0  0  0  0  0  0  0  0  0
    3.1880   16.6749    1.2954 H   0  0  0  0  0  0  0  0  0  0  0  0
    2.8266   13.8964    1.8566 H   0  0  0  0  0  0  0  0  0  0  0  0
    1.5242   15.0825    1.8634 H   0  0  0  0  0  0  0  0  0  0  0  0
    3.3221   12.5461    0.4011 H   0  0  0  0  0  0  0  0  0  0  0  0
    2.3909   12.1926   -1.0938 H   0  0  0  0  0  0  0  0  0  0  0  0
    3.6295   13.4935   -1.0938 H   0  0  0  0  0  0  0  0  0  0  0  0
   -0.2443   14.1690    0.4843 H   0  0  0  0  0  0  0  0  0  0  0  0
    0.9778   12.3296    1.8125 H   0  0  0  0  0  0  0  0  0  0  0  0
   -0.7923   12.1478    1.3415 H   0  0  0  0  0  0  0  0  0  0  0  0
    0.7100    9.9990    1.0816 H   0  0  0  0  0  0  0  0  0  0  0  0
    1.1585   11.9267   -2.4364 H   0  0  0  0  0  0  0  0  0  0  0  0
   -1.7197   10.8294   -2.5280 H   0  0  0  0  0  0  0  0  0  0  0  0
   -0.8842   11.8125   -3.8109 H   0  0  0  0  0  0  0  0  0  0  0  0
   -0.9639    9.4050   -4.3792 H   0  0  0  0  0  0  0  0  0  0  0  0
    0.7205   10.0274   -4.1772 H   0  0  0  0  0  0  0  0  0  0  0  0
    0.5593    7.8810   -3.1150 H   0  0  0  0  0  0  0  0  0  0  0  0
   -1.8750    8.4050   -2.7180 H   0  0  0  0  0  0  0  0  0  0  0  0
    3.1622    9.4424   -1.2258 H   0  0  0  0  0  0  0  0  0  0  0  0
    2.6941    8.4854   -2.6721 H   0  0  0  0  0  0  0  0  0  0  0  0
    2.4919   10.2703   -2.6721 H   0  0  0  0  0  0  0  0  0  0  0  0
    1.0641    8.5210    0.5880 H   0  0  0  0  0  0  0  0  0  0  0  0
    0.2472    7.3877   -0.5412 H   0  0  0  0  0  0  0  0  0  0  0  0
    2.0386    7.5200   -0.5412 H   0  0  0  0  0  0  0  0  0  0  0  0
   -2.0488   12.9750   -0.0570 H   0  0  0  0  0  0  0  0  0  0  0  0
   -2.3095   13.8648   -1.5955 H   0  0  0  0  0  0  0  0  0  0  0  0
   -2.2489   12.0695   -1.5955 H   0  0  0  0  0  0  0  0  0  0  0  0
   -0.1709   13.7225   -3.4281 H   0  0  0  0  0  0  0  0  0  0  0  0
   -0.7717   14.9582   -2.1842 H   0  0  0  0  0  0  0  0  0  0  0  0
    2.0938   14.1558   -2.7574 H   0  0  0  0  0  0  0  0  0  0  0  0
    1.2901   15.7499   -3.0400 H   0  0  0  0  0  0  0  0  0  0  0  0
    0.5872   16.3936    0.5798 H   0  0  0  0  0  0  0  0  0  0  0  0
    0.9014   17.3481   -0.9091 H   0  0  0  0  0  0  0  0  0  0  0  0
   -0.3658   16.0750   -0.9091 H   0  0  0  0  0  0  0  0  0  0  0  0
  1  2  1  0
  2  3  1  0
  3  4  1  0
  4  5  1  0
  5  6  1  0
  6  7  1  0
  7  8  1  0
  7  9  1  0
  2 10  1  0
 10 11  1  0
 11 12  1  0
 12 13  1  0
 13 14  1  6
 13 15  1  0
 15 16  1  0
 16 17  1  0
 17 18  2  0
 18 19  1  0
 19 20  1  0
 20 21  1  0
 21 22  1  0
 22 23  1  0
 22 24  1  0
 24 25  1  0
 24 26  1  0
 19 27  1  0
 27 28  1  1
 27 29  1  0
 29 30  1  0
 30 31  1  0
 31 32  1  1
  7  5  1  0
 31 10  1  0
 31 13  1  0
 27 15  1  0
 24 18  1  0
  1 33  1  0
  1 34  1  0
  1 35  1  0
  2 36  1  6
  3 37  1  0
  3 38  1  0
  4 39  1  0
  4 40  1  0
  5 41  1  1
  8 42  1  0
  8 43  1  0
  8 44  1  0
  9 45  1  0
  9 46  1  0
  9 47  1  0
 10 48  1  6
 11 49  1  0
 11 50  1  0
 12 51  1  0
 12 52  1  0
 14 53  1  0
 14 54  1  0
 14 55  1  0
 15 56  1  1
 16 57  1  0
 16 58  1  0
 17 59  1  0
 19 60  1  6
 20 61  1  0
 20 62  1  0
 21 63  1  0
 21 64  1  0
 22 65  1  6
 23 66  1  0
 25 67  1  0
 25 68  1  0
 25 69  1  0
 26 70  1  0
 26 71  1  0
 26 72  1  0
 28 73  1  0
 28 74  1  0
 28 75  1  0
 29 76  1  0
 29 77  1  0
 30 78  1  0
 30 79  1  0
 32 80  1  0
 32 81  1  0
 32 82  1  0
M  END
>  <meeko>  (17) 
{"is_sidechain": [false], "intermolecular_energy": 2.731, "internal_energy": -0.839}

$$$$
EPH_relaxed_0001_pdb2pqr_Repair_294_r2_0001_out
     RDKit          3D

 82 86  0  0  0  0  0  0  0  0999 V2000
   -0.3820   18.3760   -2.7450 C   0  0  0  0  0  0  0  0  0  0  0  0
   -0.0070   17.3890   -1.6360 C   0  0  2  0  0  0  0  0  0  0  0  0
    1.4170   17.6320   -1.0990 C   0  0  0  0  0  0  0  0  0  0  0  0
    1.4600   18.4960    0.1650 C   0  0  0  0  0  0  0  0  0  0  0  0
    0.3870   19.5430    0.1570 C   0  0  2  0  0  0  0  0  0  0  0  0
   -0.0250   19.9870    1.4560 O   0  0  0  0  0  0  0  0  0  0  0  0
   -1.0180   19.3040    0.6750 C   0  0  0  0  0  0  0  0  0  0  0  0
   -1.4280   17.9780    1.2370 C   0  0  0  0  0  0  0  0  0  0  0  0
   -2.1210   20.1930    0.1910 C   0  0  0  0  0  0  0  0  0  0  0  0
   -0.1340   15.9590   -2.1480 C   0  0  1  0  0  0  0  0  0  0  0  0
    0.2020   15.8330   -3.6570 C   0  0  0  0  0  0  0  0  0  0  0  0
    0.8910   14.4570   -3.8480 C   0  0  0  0  0  0  0  0  0  0  0  0
    0.6310   13.7040   -2.5230 C   0  0  1  0  0  0  0  0  0  0  0  0
   -0.8180   13.1390   -2.6590 C   0  0  0  0  0  0  0  0  0  0  0  0
    1.6550   12.5810   -2.1540 C   0  0  2  0  0  0  0  0  0  0  0  0
    1.7210   11.4060   -3.1450 C   0  0  0  0  0  0  0  0  0  0  0  0
    0.7980   10.2710   -2.8490 C   0  0  0  0  0  0  0  0  0  0  0  0
    0.1580   10.0660   -1.6830 C   0  0  0  0  0  0  0  0  0  0  0  0
    0.4120   10.9760   -0.4750 C   0  0  1  0  0  0  0  0  0  0  0  0
    0.6220   10.1080    0.7930 C   0  0  0  0  0  0  0  0  0  0  0  0
   -0.5250    9.1310    1.0300 C   0  0  0  0  0  0  0  0  0  0  0  0
   -0.7090    8.2040   -0.1690 C   0  0  2  0  0  0  0  0  0  0  0  0
    0.4370    7.3550   -0.2760 O   0  0  0  0  0  0  0  0  0  0  0  0
   -0.9200    8.9680   -1.5070 C   0  0  0  0  0  0  0  0  0  0  0  0
   -2.3110    9.6480   -1.5040 C   0  0  0  0  0  0  0  0  0  0  0  0
   -0.9500    7.9220   -2.6540 C   0  0  0  0  0  0  0  0  0  0  0  0
    1.5480   12.0720   -0.6590 C   0  0  1  0  0  0  0  0  0  0  0  0
    2.9370   11.4640   -0.2950 C   0  0  0  0  0  0  0  0  0  0  0  0
    1.2980   13.2480    0.3570 C   0  0  0  0  0  0  0  0  0  0  0  0
    0.3710   14.3860   -0.1110 C   0  0  0  0  0  0  0  0  0  0  0  0
    0.7790   14.8880   -1.5000 C   0  0  2  0  0  0  0  0  0  0  0  0
    2.2240   15.4830   -1.3890 C   0  0  0  0  0  0  0  0  0  0  0  0
   -0.7386   19.3145   -2.2954 H   0  0  0  0  0  0  0  0  0  0  0  0
    0.5012   18.5803   -3.3681 H   0  0  0  0  0  0  0  0  0  0  0  0
   -1.1780   17.9423   -3.3681 H   0  0  0  0  0  0  0  0  0  0  0  0
   -0.7056   17.5484   -0.8014 H   0  0  0  0  0  0  0  0  0  0  0  0
    1.8723   16.6574   -0.8690 H   0  0  0  0  0  0  0  0  0  0  0  0
    1.9660   18.1782   -1.8802 H   0  0  0  0  0  0  0  0  0  0  0  0
    1.3207   17.8493    1.0439 H   0  0  0  0  0  0  0  0  0  0  0  0
    2.4350   19.0041    0.2004 H   0  0  0  0  0  0  0  0  0  0  0  0
    0.7637   19.9559   -0.7904 H   0  0  0  0  0  0  0  0  0  0  0  0
   -1.4134   18.0252    2.3359 H   0  0  0  0  0  0  0  0  0  0  0  0
   -2.4440   17.7327    0.8940 H   0  0  0  0  0  0  0  0  0  0  0  0
   -0.7278   17.2021    0.8940 H   0  0  0  0  0  0  0  0  0  0  0  0
   -2.6522   20.6211    1.0539 H   0  0  0  0  0  0  0  0  0  0  0  0
   -1.6970   21.0048   -0.4182 H   0  0  0  0  0  0  0  0  0  0  0  0
   -2.8242   19.6062   -0.4182 H   0  0  0  0  0  0  0  0  0  0  0  0
   -1.1851   15.7631   -1.8895 H   0  0  0  0  0  0  0  0  0  0  0  0
   -0.7195   15.8817   -4.2557 H   0  0  0  0  0  0  0  0  0  0  0  0
    0.8582   16.6525   -3.9855 H   0  0  0  0  0  0  0  0  0  0  0  0
    0.4475   13.9150   -4.6963 H   0  0  0  0  0  0  0  0  0  0  0  0
    1.9642   14.5547   -4.0689 H   0  0  0  0  0  0  0  0  0  0  0  0
   -1.2425   12.9735   -1.6578 H   0  0  0  0  0  0  0  0  0  0  0  0
   -1.4425   13.8595   -3.2075 H   0  0  0  0  0  0  0  0  0  0  0  0
   -0.7900   12.1859   -3.2075 H   0  0  0  0  0  0  0  0  0  0  0  0
    2.6194   13.1022   -2.2454 H   0  0  0  0  0  0  0  0  0  0  0  0
    1.4764   11.7911   -4.1459 H   0  0  0  0  0  0  0  0  0  0  0  0
    2.7398   10.9986   -3.0672 H   0  0  0  0  0  0  0  0  0  0  0  0
    0.6262    9.5396   -3.6525 H   0  0  0  0  0  0  0  0  0  0  0  0
   -0.4941   11.5893   -0.3613 H   0  0  0  0  0  0  0  0  0  0  0  0
    1.5544    9.5358    0.6781 H   0  0  0  0  0  0  0  0  0  0  0  0
    0.6669   10.7861    1.6579 H   0  0  0  0  0  0  0  0  0  0  0  0
   -0.3043    8.5263    1.9220 H   0  0  0  0  0  0  0  0  0  0  0  0
   -1.4516    9.7059    1.1746 H   0  0  0  0  0  0  0  0  0  0  0  0
   -1.6229    7.6171    0.0052 H   0  0  0  0  0  0  0  0  0  0  0  0
    1.2270    7.9120   -0.1740 H   0  0  0  0  0  0  0  0  0  0  0  0
   -2.6386    9.8082   -0.4662 H   0  0  0  0  0  0  0  0  0  0  0  0
   -2.2469   10.6164   -2.0218 H   0  0  0  0  0  0  0  0  0  0  0  0
   -3.0358    9.0026   -2.0218 H   0  0  0  0  0  0  0  0  0  0  0  0
   -0.9790    6.9091   -2.2259 H   0  0  0  0  0  0  0  0  0  0  0  0
   -1.8439    8.0836   -3.2744 H   0  0  0  0  0  0  0  0  0  0  0  0
   -0.0483    8.0321   -3.2744 H   0  0  0  0  0  0  0  0  0  0  0  0
    3.0418   11.4181    0.7990 H   0  0  0  0  0  0  0  0  0  0  0  0
    3.0144   10.4497   -0.7136 H   0  0  0  0  0  0  0  0  0  0  0  0
    3.7347   12.0953   -0.7136 H   0  0  0  0  0  0  0  0  0  0  0  0
    0.8582   12.8136    1.2669 H   0  0  0  0  0  0  0  0  0  0  0  0
    2.2819   13.7189    0.4995 H   0  0  0  0  0  0  0  0  0  0  0  0
   -0.6634   14.0140   -0.1521 H   0  0  0  0  0  0  0  0  0  0  0  0
    0.4515   15.2201    0.6016 H   0  0  0  0  0  0  0  0  0  0  0  0
    2.4942   15.5943   -0.3285 H   0  0  0  0  0  0  0  0  0  0  0  0
    2.9381   14.8058   -1.8803 H   0  0  0  0  0  0  0  0  0  0  0  0
    2.2542   16.4667   -1.8803 H   0  0  0  0  0  0  0  0  0  0  0  0
  1  2  1  0
  2  3  1  0
  3  4  1  0
  4  5  1  0
  5  6  1  0
  6  7  1  0
  7  8  1  0
  7  9  1  0
  2 10  1  0
 10 11  1  0
 11 12  1  0
 12 13  1  0
 13 14  1  6
 13 15  1  0
 15 16  1  0
 16 17  1  0
 17 18  2  0
 18 19  1  0
 19 20  1  0
 20 21  1  0
 21 22  1  0
 22 23  1  0
 22 24  1  0
 24 25  1  0
 24 26  1  0
 19 27  1  0
 27 28  1  1
 27 29  1  0
 29 30  1  0
 30 31  1  0
 31 32  1  1
  7  5  1  0
 31 10  1  0
 31 13  1  0
 27 15  1  0
 24 18  1  0
  1 33  1  0
  1 34  1  0
  1 35  1  0
  2 36  1  1
  3 37  1  0
  3 38  1  0
  4 39  1  0
  4 40  1  0
  5 41  1  6
  8 42  1  0
  8 43  1  0
  8 44  1  0
  9 45  1  0
  9 46  1  0
  9 47  1  0
 10 48  1  6
 11 49  1  0
 11 50  1  0
 12 51  1  0
 12 52  1  0
 14 53  1  0
 14 54  1  0
 14 55  1  0
 15 56  1  1
 16 57  1  0
 16 58  1  0
 17 59  1  0
 19 60  1  1
 20 61  1  0
 20 62  1  0
 21 63  1  0
 21 64  1  0
 22 65  1  1
 23 66  1  0
 25 67  1  0
 25 68  1  0
 25 69  1  0
 26 70  1  0
 26 71  1  0
 26 72  1  0
 28 73  1  0
 28 74  1  0
 28 75  1  0
 29 76  1  0
 29 77  1  0
 30 78  1  0
 30 79  1  0
 32 80  1  0
 32 81  1  0
 32 82  1  0
M  END
>  <meeko>  (18) 
{"is_sidechain": [false], "intermolecular_energy": 2.731, "internal_energy": -0.839}

$$$$
EPH_relaxed_0001_pdb2pqr_Repair_294_r2_0001_out
     RDKit          3D

 82 86  0  0  0  0  0  0  0  0999 V2000
   -0.5410   19.7630   -1.5750 C   0  0  0  0  0  0  0  0  0  0  0  0
   -0.2930   18.7060   -0.4950 C   0  0  2  0  0  0  0  0  0  0  0  0
    0.4890   19.2750    0.7060 C   0  0  0  0  0  0  0  0  0  0  0  0
    1.9400   19.6360    0.3800 C   0  0  0  0  0  0  0  0  0  0  0  0
    2.7420   19.8840    1.6220 C   0  0  2  0  0  0  0  0  0  0  0  0
    4.1230   20.1940    1.3920 O   0  0  0  0  0  0  0  0  0  0  0  0
    3.8570   18.9700    2.0950 C   0  0  0  0  0  0  0  0  0  0  0  0
    4.2300   17.7370    1.3340 C   0  0  0  0  0  0  0  0  0  0  0  0
    4.2480   19.0070    3.5390 C   0  0  0  0  0  0  0  0  0  0  0  0
    0.4580   17.5200   -1.0910 C   0  0  1  0  0  0  0  0  0  0  0  0
    1.9780   17.7930   -1.2460 C   0  0  0  0  0  0  0  0  0  0  0  0
    2.7020   16.4490   -0.9790 C   0  0  0  0  0  0  0  0  0  0  0  0
    1.5780   15.3870   -1.0080 C   0  0  1  0  0  0  0  0  0  0  0  0
    1.3360   15.1000   -2.5230 C   0  0  0  0  0  0  0  0  0  0  0  0
    1.8490   14.0710   -0.2070 C   0  0  2  0  0  0  0  0  0  0  0  0
    3.0440   13.2390   -0.7040 C   0  0  0  0  0  0  0  0  0  0  0  0
    2.7190   12.2110   -1.7370 C   0  0  0  0  0  0  0  0  0  0  0  0
    1.4850   11.7690   -2.0390 C   0  0  0  0  0  0  0  0  0  0  0  0
    0.2620   12.2420   -1.2430 C   0  0  1  0  0  0  0  0  0  0  0  0
   -0.6230   11.0200   -0.8790 C   0  0  0  0  0  0  0  0  0  0  0  0
   -1.0070   10.1910   -2.1000 C   0  0  0  0  0  0  0  0  0  0  0  0
    0.2350    9.6910   -2.8330 C   0  0  2  0  0  0  0  0  0  0  0  0
    0.9190    8.7550   -1.9940 O   0  0  0  0  0  0  0  0  0  0  0  0
    1.2070   10.8330   -3.2420 C   0  0  0  0  0  0  0  0  0  0  0  0
    0.5730   11.6750   -4.3770 C   0  0  0  0  0  0  0  0  0  0  0  0
    2.4820   10.1830   -3.8440 C   0  0  0  0  0  0  0  0  0  0  0  0
    0.5670   13.1690    0.0110 C   0  0  1  0  0  0  0  0  0  0  0  0
    0.8500   12.2900    1.2670 C   0  0  0  0  0  0  0  0  0  0  0  0
   -0.7140   14.0210    0.3450 C   0  0  0  0  0  0  0  0  0  0  0  0
   -0.8650   15.3670   -0.3900 C   0  0  0  0  0  0  0  0  0  0  0  0
    0.4250   16.1880   -0.3010 C   0  0  2  0  0  0  0  0  0  0  0  0
    0.6820   16.5110    1.2110 C   0  0  0  0  0  0  0  0  0  0  0  0
   -0.7674   20.7281   -1.0983 H   0  0  0  0  0  0  0  0  0  0  0  0
    0.3576   19.8652   -2.2012 H   0  0  0  0  0  0  0  0  0  0  0  0
   -1.3912   19.4549   -2.2012 H   0  0  0  0  0  0  0  0  0  0  0  0
   -1.2744   18.3761   -0.1234 H   0  0  0  0  0  0  0  0  0  0  0  0
   -0.0244   20.1826    1.0562 H   0  0  0  0  0  0  0  0  0  0  0  0
    0.5183   18.4870    1.4730 H   0  0  0  0  0  0  0  0  0  0  0  0
    2.3967   18.8063   -0.1795 H   0  0  0  0  0  0  0  0  0  0  0  0
    1.9377   20.5599   -0.2170 H   0  0  0  0  0  0  0  0  0  0  0  0
    1.8624   20.3012    2.1342 H   0  0  0  0  0  0  0  0  0  0  0  0
    4.4741   16.9299    2.0404 H   0  0  0  0  0  0  0  0  0  0  0  0
    3.3854   17.4272    0.7010 H   0  0  0  0  0  0  0  0  0  0  0  0
    5.1047   17.9473    0.7010 H   0  0  0  0  0  0  0  0  0  0  0  0
    3.3475   18.9218    4.1650 H   0  0  0  0  0  0  0  0  0  0  0  0
    4.9266   18.1691    3.7567 H   0  0  0  0  0  0  0  0  0  0  0  0
    4.7573   19.9574    3.7567 H   0  0  0  0  0  0  0  0  0  0  0  0
   -0.0920   17.4094   -2.0372 H   0  0  0  0  0  0  0  0  0  0  0  0
    2.1977   18.1461   -2.2644 H   0  0  0  0  0  0  0  0  0  0  0  0
    2.3140   18.5696   -0.5431 H   0  0  0  0  0  0  0  0  0  0  0  0
    3.4471   16.2471   -1.7626 H   0  0  0  0  0  0  0  0  0  0  0  0
    3.2480   16.4521   -0.0241 H   0  0  0  0  0  0  0  0  0  0  0  0
    0.6302   14.2630   -2.6295 H   0  0  0  0  0  0  0  0  0  0  0  0
    0.9170   15.9963   -3.0036 H   0  0  0  0  0  0  0  0  0  0  0  0
    2.2902   14.8384   -3.0036 H   0  0  0  0  0  0  0  0  0  0  0  0
    2.1420   14.4531    0.7820 H   0  0  0  0  0  0  0  0  0  0  0  0
    3.7844   13.9301   -1.1332 H   0  0  0  0  0  0  0  0  0  0  0  0
    3.4144   12.6849    0.1711 H   0  0  0  0  0  0  0  0  0  0  0  0
    3.5601   11.7784   -2.2987 H   0  0  0  0  0  0  0  0  0  0  0  0
   -0.2918   12.9190   -1.9101 H   0  0  0  0  0  0  0  0  0  0  0  0
   -0.0680   10.3791   -0.1781 H   0  0  0  0  0  0  0  0  0  0  0  0
   -1.5515   11.4024   -0.4299 H   0  0  0  0  0  0  0  0  0  0  0  0
   -1.6052    9.3271   -1.7748 H   0  0  0  0  0  0  0  0  0  0  0  0
   -1.5879   10.8250   -2.7860 H   0  0  0  0  0  0  0  0  0  0  0  0
   -0.1016    9.2166   -3.7667 H   0  0  0  0  0  0  0  0  0  0  0  0
    1.3500    9.2570   -1.2820 H   0  0  0  0  0  0  0  0  0  0  0  0
   -0.0342   12.4814   -3.9400 H   0  0  0  0  0  0  0  0  0  0  0  0
    1.3690   12.1110   -4.9985 H   0  0  0  0  0  0  0  0  0  0  0  0
   -0.0660   11.0305   -4.9985 H   0  0  0  0  0  0  0  0  0  0  0  0
    3.1414    9.8469   -3.0302 H   0  0  0  0  0  0  0  0  0  0  0  0
    2.1961    9.3206   -4.4642 H   0  0  0  0  0  0  0  0  0  0  0  0
    3.0119   10.9210   -4.4642 H   0  0  0  0  0  0  0  0  0  0  0  0
    0.6605   12.8786    2.1767 H   0  0  0  0  0  0  0  0  0  0  0  0
    0.1897   11.4103    1.2553 H   0  0  0  0  0  0  0  0  0  0  0  0
    1.8995   11.9608    1.2553 H   0  0  0  0  0  0  0  0  0  0  0  0
   -1.5942   13.4081    0.1008 H   0  0  0  0  0  0  0  0  0  0  0  0
   -0.6154   14.2836    1.4086 H   0  0  0  0  0  0  0  0  0  0  0  0
   -1.0972   15.1752   -1.4480 H   0  0  0  0  0  0  0  0  0  0  0  0
   -1.6770   15.9370    0.0852 H   0  0  0  0  0  0  0  0  0  0  0  0
    0.1192   15.8037    1.8378 H   0  0  0  0  0  0  0  0  0  0  0  0
    1.7564   16.4188    1.4282 H   0  0  0  0  0  0  0  0  0  0  0  0
    0.3508   17.5372    1.4282 H   0  0  0  0  0  0  0  0  0  0  0  0
  1  2  1  0
  2  3  1  0
  3  4  1  0
  4  5  1  0
  5  6  1  0
  6  7  1  0
  7  8  1  0
  7  9  1  0
  2 10  1  0
 10 11  1  0
 11 12  1  0
 12 13  1  0
 13 14  1  6
 13 15  1  0
 15 16  1  0
 16 17  1  0
 17 18  2  0
 18 19  1  0
 19 20  1  0
 20 21  1  0
 21 22  1  0
 22 23  1  0
 22 24  1  0
 24 25  1  0
 24 26  1  0
 19 27  1  0
 27 28  1  1
 27 29  1  0
 29 30  1  0
 30 31  1  0
 31 32  1  1
  7  5  1  0
 31 10  1  0
 31 13  1  0
 27 15  1  0
 24 18  1  0
  1 33  1  0
  1 34  1  0
  1 35  1  0
  2 36  1  1
  3 37  1  0
  3 38  1  0
  4 39  1  0
  4 40  1  0
  5 41  1  1
  8 42  1  0
  8 43  1  0
  8 44  1  0
  9 45  1  0
  9 46  1  0
  9 47  1  0
 10 48  1  6
 11 49  1  0
 11 50  1  0
 12 51  1  0
 12 52  1  0
 14 53  1  0
 14 54  1  0
 14 55  1  0
 15 56  1  1
 16 57  1  0
 16 58  1  0
 17 59  1  0
 19 60  1  6
 20 61  1  0
 20 62  1  0
 21 63  1  0
 21 64  1  0
 22 65  1  6
 23 66  1  0
 25 67  1  0
 25 68  1  0
 25 69  1  0
 26 70  1  0
 26 71  1  0
 26 72  1  0
 28 73  1  0
 28 74  1  0
 28 75  1  0
 29 76  1  0
 29 77  1  0
 30 78  1  0
 30 79  1  0
 32 80  1  0
 32 81  1  0
 32 82  1  0
M  END
>  <meeko>  (19) 
{"is_sidechain": [false], "intermolecular_energy": 2.731, "internal_energy": -0.839}

$$$$
