EPH_relaxed_0001_pdb2pqr_Repair_125_r2_0001_out
     RDKit          3D

 82 86  0  0  0  0  0  0  0  0999 V2000
    2.4420   19.8130   -0.8670 C   0  0  0  0  0  0  0  0  0  0  0  0
    2.3130   18.8570    0.3220 C   0  0  2  0  0  0  0  0  0  0  0  0
    3.6870   18.3780    0.8330 C   0  0  0  0  0  0  0  0  0  0  0  0
    3.9440   18.7040    2.3060 C   0  0  0  0  0  0  0  0  0  0  0  0
    5.3790   19.0590    2.5530 C   0  0  2  0  0  0  0  0  0  0  0  0
    6.1110   18.0960    3.3220 O   0  0  0  0  0  0  0  0  0  0  0  0
    5.9350   19.3880    3.9260 C   0  0  0  0  0  0  0  0  0  0  0  0
    5.0650   19.3780    5.1430 C   0  0  0  0  0  0  0  0  0  0  0  0
    7.1970   20.1890    4.0140 C   0  0  0  0  0  0  0  0  0  0  0  0
    1.4540   17.6590   -0.0650 C   0  0  1  0  0  0  0  0  0  0  0  0
    0.2590   18.0500   -0.9750 C   0  0  0  0  0  0  0  0  0  0  0  0
    0.0430   16.8720   -1.9590 C   0  0  0  0  0  0  0  0  0  0  0  0
    0.8890   15.7160   -1.3760 C   0  0  1  0  0  0  0  0  0  0  0  0
    0.0040   15.1000   -0.2470 C   0  0  0  0  0  0  0  0  0  0  0  0
    1.3670   14.6290   -2.3930 C   0  0  2  0  0  0  0  0  0  0  0  0
    0.2400   13.8410   -3.0830 C   0  0  0  0  0  0  0  0  0  0  0  0
   -0.1890   12.5940   -2.3820 C   0  0  0  0  0  0  0  0  0  0  0  0
    0.4940   11.9740   -1.4020 C   0  0  0  0  0  0  0  0  0  0  0  0
    1.8810   12.4710   -0.9720 C   0  0  1  0  0  0  0  0  0  0  0  0
    2.8500   11.2650   -0.8580 C   0  0  0  0  0  0  0  0  0  0  0  0
    2.3140   10.1680    0.0560 C   0  0  0  0  0  0  0  0  0  0  0  0
    0.9620    9.6590   -0.4370 C   0  0  2  0  0  0  0  0  0  0  0  0
    1.1500    8.9910   -1.6880 O   0  0  0  0  0  0  0  0  0  0  0  0
   -0.0940   10.7870   -0.6000 C   0  0  0  0  0  0  0  0  0  0  0  0
   -0.5200   11.3070    0.7960 C   0  0  0  0  0  0  0  0  0  0  0  0
   -1.3650   10.1630   -1.2360 C   0  0  0  0  0  0  0  0  0  0  0  0
    2.4870   13.6630   -1.8300 C   0  0  1  0  0  0  0  0  0  0  0  0
    3.2470   13.0940   -3.0680 C   0  0  0  0  0  0  0  0  0  0  0  0
    3.5570   14.4270   -0.9650 C   0  0  0  0  0  0  0  0  0  0  0  0
    3.0390   15.5700   -0.0710 C   0  0  0  0  0  0  0  0  0  0  0  0
    2.1380   16.5220   -0.8640 C   0  0  2  0  0  0  0  0  0  0  0  0
    3.0070   17.1730   -1.9930 C   0  0  0  0  0  0  0  0  0  0  0  0
    2.5806   20.8401   -0.4983 H   0  0  0  0  0  0  0  0  0  0  0  0
    3.3091   19.5228   -1.4784 H   0  0  0  0  0  0  0  0  0  0  0  0
    1.5290   19.7630   -1.4784 H   0  0  0  0  0  0  0  0  0  0  0  0
    1.8307   19.4104    1.1413 H   0  0  0  0  0  0  0  0  0  0  0  0
    3.7445   17.2871    0.7037 H   0  0  0  0  0  0  0  0  0  0  0  0
    4.4509   18.9111    0.2480 H   0  0  0  0  0  0  0  0  0  0  0  0
    3.3109   19.5546    2.5986 H   0  0  0  0  0  0  0  0  0  0  0  0
    3.7043   17.8109    2.9017 H   0  0  0  0  0  0  0  0  0  0  0  0
    5.4398   19.5824    1.5874 H   0  0  0  0  0  0  0  0  0  0  0  0
    5.6954   19.3852    6.0444 H   0  0  0  0  0  0  0  0  0  0  0  0
    4.4196   20.2688    5.1397 H   0  0  0  0  0  0  0  0  0  0  0  0
    4.4403   18.4726    5.1397 H   0  0  0  0  0  0  0  0  0  0  0  0
    7.4546   20.3525    5.0708 H   0  0  0  0  0  0  0  0  0  0  0  0
    8.0131   19.6432    3.5179 H   0  0  0  0  0  0  0  0  0  0  0  0
    7.0505   21.1598    3.5179 H   0  0  0  0  0  0  0  0  0  0  0  0
    1.1761   17.3001    0.9370 H   0  0  0  0  0  0  0  0  0  0  0  0
   -0.6445   18.2068   -0.3675 H   0  0  0  0  0  0  0  0  0  0  0  0
    0.4642   18.9850   -1.5168 H   0  0  0  0  0  0  0  0  0  0  0  0
   -1.0199   16.5919   -2.0020 H   0  0  0  0  0  0  0  0  0  0  0  0
    0.3388   17.1279   -2.9871 H   0  0  0  0  0  0  0  0  0  0  0  0
    0.4117   15.3838    0.7345 H   0  0  0  0  0  0  0  0  0  0  0  0
   -1.0247   15.4783   -0.3400 H   0  0  0  0  0  0  0  0  0  0  0  0
    0.0015   14.0039   -0.3400 H   0  0  0  0  0  0  0  0  0  0  0  0
    1.8352   15.2343   -3.1831 H   0  0  0  0  0  0  0  0  0  0  0  0
   -0.6352   14.5022   -3.1663 H   0  0  0  0  0  0  0  0  0  0  0  0
    0.6441   13.5200   -4.0544 H   0  0  0  0  0  0  0  0  0  0  0  0
   -1.1436   12.1444   -2.6928 H   0  0  0  0  0  0  0  0  0  0  0  0
    1.7455   12.9354    0.0159 H   0  0  0  0  0  0  0  0  0  0  0  0
    3.0066   10.8425   -1.8615 H   0  0  0  0  0  0  0  0  0  0  0  0
    3.7906   11.6327   -0.4220 H   0  0  0  0  0  0  0  0  0  0  0  0
    3.0289    9.3322    0.0727 H   0  0  0  0  0  0  0  0  0  0  0  0
    2.1852   10.5844    1.0659 H   0  0  0  0  0  0  0  0  0  0  0  0
    0.5698    8.9704    0.3259 H   0  0  0  0  0  0  0  0  0  0  0  0
    2.0980    8.8010   -1.7810 H   0  0  0  0  0  0  0  0  0  0  0  0
   -0.0287   10.7072    1.5763 H   0  0  0  0  0  0  0  0  0  0  0  0
   -0.2221   12.3606    0.9014 H   0  0  0  0  0  0  0  0  0  0  0  0
   -1.6117   11.2223    0.9014 H   0  0  0  0  0  0  0  0  0  0  0  0
   -2.0467    9.8283   -0.4402 H   0  0  0  0  0  0  0  0  0  0  0  0
   -1.8703   10.9155   -1.8593 H   0  0  0  0  0  0  0  0  0  0  0  0
   -1.0787    9.3030   -1.8593 H   0  0  0  0  0  0  0  0  0  0  0  0
    4.0844   12.4671   -2.7278 H   0  0  0  0  0  0  0  0  0  0  0  0
    2.5579   12.4879   -3.6745 H   0  0  0  0  0  0  0  0  0  0  0  0
    3.6345   13.9259   -3.6745 H   0  0  0  0  0  0  0  0  0  0  0  0
    4.0457   13.6890   -0.3120 H   0  0  0  0  0  0  0  0  0  0  0  0
    4.2243   14.9108   -1.6935 H   0  0  0  0  0  0  0  0  0  0  0  0
    2.4639   15.1418    0.7632 H   0  0  0  0  0  0  0  0  0  0  0  0
    3.9020   16.1377    0.3071 H   0  0  0  0  0  0  0  0  0  0  0  0
    3.8087   17.7736   -1.5384 H   0  0  0  0  0  0  0  0  0  0  0  0
    3.4498   16.3825   -2.6167 H   0  0  0  0  0  0  0  0  0  0  0  0
    2.3728   17.8201   -2.6167 H   0  0  0  0  0  0  0  0  0  0  0  0
  1  2  1  0
  2  3  1  0
  3  4  1  0
  4  5  1  0
  5  6  1  0
  6  7  1  0
  7  8  1  0
  7  9  1  0
  2 10  1  0
 10 11  1  0
 11 12  1  0
 12 13  1  0
 13 14  1  1
 13 15  1  0
 15 16  1  0
 16 17  1  0
 17 18  2  0
 18 19  1  0
 19 20  1  0
 20 21  1  0
 21 22  1  0
 22 23  1  0
 22 24  1  0
 24 25  1  0
 24 26  1  0
 19 27  1  0
 27 28  1  6
 27 29  1  0
 29 30  1  0
 30 31  1  0
 31 32  1  6
  7  5  1  0
 31 10  1  0
 31 13  1  0
 27 15  1  0
 24 18  1  0
  1 33  1  0
  1 34  1  0
  1 35  1  0
  2 36  1  1
  3 37  1  0
  3 38  1  0
  4 39  1  0
  4 40  1  0
  5 41  1  6
  8 42  1  0
  8 43  1  0
  8 44  1  0
  9 45  1  0
  9 46  1  0
  9 47  1  0
 10 48  1  1
 11 49  1  0
 11 50  1  0
 12 51  1  0
 12 52  1  0
 14 53  1  0
 14 54  1  0
 14 55  1  0
 15 56  1  6
 16 57  1  0
 16 58  1  0
 17 59  1  0
 19 60  1  1
 20 61  1  0
 20 62  1  0
 21 63  1  0
 21 64  1  0
 22 65  1  1
 23 66  1  0
 25 67  1  0
 25 68  1  0
 25 69  1  0
 26 70  1  0
 26 71  1  0
 26 72  1  0
 28 73  1  0
 28 74  1  0
 28 75  1  0
 29 76  1  0
 29 77  1  0
 30 78  1  0
 30 79  1  0
 32 80  1  0
 32 81  1  0
 32 82  1  0
M  END
>  <meeko>  (1) 
{"is_sidechain": [false], "intermolecular_energy": 2.731, "internal_energy": -0.839}

$$$$
EPH_relaxed_0001_pdb2pqr_Repair_125_r2_0001_out
     RDKit          3D

 82 86  0  0  0  0  0  0  0  0999 V2000
    3.7470   17.9430    0.8990 C   0  0  0  0  0  0  0  0  0  0  0  0
    2.8940   18.3280   -0.3130 C   0  0  2  0  0  0  0  0  0  0  0  0
    2.1700   19.6730   -0.1100 C   0  0  0  0  0  0  0  0  0  0  0  0
    1.0860   19.6320    0.9710 C   0  0  0  0  0  0  0  0  0  0  0  0
   -0.2150   20.1830    0.4720 C   0  0  2  0  0  0  0  0  0  0  0  0
   -1.2720   20.1940    1.4420 O   0  0  0  0  0  0  0  0  0  0  0  0
   -1.4680   19.3440    0.3000 C   0  0  0  0  0  0  0  0  0  0  0  0
   -1.4790   17.8830    0.6240 C   0  0  0  0  0  0  0  0  0  0  0  0
   -2.5310   19.8290   -0.6370 C   0  0  0  0  0  0  0  0  0  0  0  0
    1.8790   17.2280   -0.6040 C   0  0  1  0  0  0  0  0  0  0  0  0
    0.7490   17.6960   -1.5590 C   0  0  0  0  0  0  0  0  0  0  0  0
    0.3740   16.4760   -2.4390 C   0  0  0  0  0  0  0  0  0  0  0  0
    1.0540   15.2720   -1.7470 C   0  0  1  0  0  0  0  0  0  0  0  0
    0.0930   14.8850   -0.5800 C   0  0  0  0  0  0  0  0  0  0  0  0
    1.3790   14.0440   -2.6590 C   0  0  2  0  0  0  0  0  0  0  0  0
    0.1550   13.3590   -3.2910 C   0  0  0  0  0  0  0  0  0  0  0  0
   -0.4400   12.2500   -2.4890 C   0  0  0  0  0  0  0  0  0  0  0  0
    0.1520   11.6310   -1.4500 C   0  0  0  0  0  0  0  0  0  0  0  0
    1.5930   11.9700   -1.0480 C   0  0  1  0  0  0  0  0  0  0  0  0
    2.3890   10.6590   -0.8180 C   0  0  0  0  0  0  0  0  0  0  0  0
    1.7070    9.7300    0.1820 C   0  0  0  0  0  0  0  0  0  0  0  0
    0.2990    9.3680   -0.2810 C   0  0  2  0  0  0  0  0  0  0  0  0
    0.3930    8.5730   -1.4670 O   0  0  0  0  0  0  0  0  0  0  0  0
   -0.5940   10.6110   -0.5540 C   0  0  0  0  0  0  0  0  0  0  0  0
   -0.9440   11.3050    0.7850 C   0  0  0  0  0  0  0  0  0  0  0  0
   -1.9380   10.1120   -1.1490 C   0  0  0  0  0  0  0  0  0  0  0  0
    2.3560   12.9880   -2.0010 C   0  0  1  0  0  0  0  0  0  0  0  0
    3.0320   12.2140   -3.1740 C   0  0  0  0  0  0  0  0  0  0  0  0
    3.5210   13.6740   -1.1920 C   0  0  0  0  0  0  0  0  0  0  0  0
    3.1640   14.9510   -0.4080 C   0  0  0  0  0  0  0  0  0  0  0  0
    2.4020   15.9420   -1.2920 C   0  0  2  0  0  0  0  0  0  0  0  0
    3.3510   16.3670   -2.4630 C   0  0  0  0  0  0  0  0  0  0  0  0
    3.2031   18.1885    1.8231 H   0  0  0  0  0  0  0  0  0  0  0  0
    3.9559   16.8633    0.8723 H   0  0  0  0  0  0  0  0  0  0  0  0
    4.6948   18.5006    0.8723 H   0  0  0  0  0  0  0  0  0  0  0  0
    3.5719   18.4452   -1.1713 H   0  0  0  0  0  0  0  0  0  0  0  0
    2.9161   20.4294    0.1750 H   0  0  0  0  0  0  0  0  0  0  0  0
    1.6686   19.9144   -1.0588 H   0  0  0  0  0  0  0  0  0  0  0  0
    0.9345   18.5886    1.2846 H   0  0  0  0  0  0  0  0  0  0  0  0
    1.4200   20.2527    1.8155 H   0  0  0  0  0  0  0  0  0  0  0  0
    0.3097   20.8731   -0.2052 H   0  0  0  0  0  0  0  0  0  0  0  0
   -1.4800   17.7496    1.7159 H   0  0  0  0  0  0  0  0  0  0  0  0
   -2.3807   17.4195    0.1971 H   0  0  0  0  0  0  0  0  0  0  0  0
   -0.5844   17.4060    0.1971 H   0  0  0  0  0  0  0  0  0  0  0  0
   -3.3815   20.2171   -0.0573 H   0  0  0  0  0  0  0  0  0  0  0  0
   -2.1233   20.6302   -1.2709 H   0  0  0  0  0  0  0  0  0  0  0  0
   -2.8689   18.9960   -1.2709 H   0  0  0  0  0  0  0  0  0  0  0  0
    1.5542   17.0000    0.4219 H   0  0  0  0  0  0  0  0  0  0  0  0
   -0.1247   18.0273   -0.9785 H   0  0  0  0  0  0  0  0  0  0  0  0
    1.0802   18.5429   -2.1780 H   0  0  0  0  0  0  0  0  0  0  0  0
   -0.7172   16.3405   -2.4702 H   0  0  0  0  0  0  0  0  0  0  0  0
    0.7020   16.5975   -3.4819 H   0  0  0  0  0  0  0  0  0  0  0  0
    0.5866   15.0838    0.3827 H   0  0  0  0  0  0  0  0  0  0  0  0
   -0.8280   15.4823   -0.6500 H   0  0  0  0  0  0  0  0  0  0  0  0
   -0.1570   13.8161   -0.6500 H   0  0  0  0  0  0  0  0  0  0  0  0
    1.9259   14.5082   -3.4929 H   0  0  0  0  0  0  0  0  0  0  0  0
   -0.6215   14.1232   -3.4427 H   0  0  0  0  0  0  0  0  0  0  0  0
    0.5114   12.9013   -4.2256 H   0  0  0  0  0  0  0  0  0  0  0  0
   -1.4474   11.9094   -2.7704 H   0  0  0  0  0  0  0  0  0  0  0  0
    1.5218   12.5327   -0.1055 H   0  0  0  0  0  0  0  0  0  0  0  0
    2.4870   10.1325   -1.7788 H   0  0  0  0  0  0  0  0  0  0  0  0
    3.3712   10.9321   -0.4049 H   0  0  0  0  0  0  0  0  0  0  0  0
    2.3010    8.8095    0.2810 H   0  0  0  0  0  0  0  0  0  0  0  0
    1.6356   10.2482    1.1497 H   0  0  0  0  0  0  0  0  0  0  0  0
   -0.1827    8.8083    0.5343 H   0  0  0  0  0  0  0  0  0  0  0  0
    0.4500    9.1800   -2.2240 H   0  0  0  0  0  0  0  0  0  0  0  0
   -0.6230   10.6685    1.6228 H   0  0  0  0  0  0  0  0  0  0  0  0
   -0.4269   12.2742    0.8418 H   0  0  0  0  0  0  0  0  0  0  0  0
   -2.0308   11.4654    0.8418 H   0  0  0  0  0  0  0  0  0  0  0  0
   -2.6282    9.8558   -0.3317 H   0  0  0  0  0  0  0  0  0  0  0  0
   -2.3818   10.9053   -1.7685 H   0  0  0  0  0  0  0  0  0  0  0  0
   -1.7565    9.2213   -1.7685 H   0  0  0  0  0  0  0  0  0  0  0  0
    3.7041   11.4445   -2.7664 H   0  0  0  0  0  0  0  0  0  0  0  0
    2.2579   11.7350   -3.7915 H   0  0  0  0  0  0  0  0  0  0  0  0
    3.6108   12.9166   -3.7915 H   0  0  0  0  0  0  0  0  0  0  0  0
    3.9042   12.9370   -0.4709 H   0  0  0  0  0  0  0  0  0  0  0  0
    4.2480   13.9966   -1.9519 H   0  0  0  0  0  0  0  0  0  0  0  0
    2.5357   14.6805    0.4535 H   0  0  0  0  0  0  0  0  0  0  0  0
    4.0963   15.4273   -0.0703 H   0  0  0  0  0  0  0  0  0  0  0  0
    4.2809   16.7835   -2.0486 H   0  0  0  0  0  0  0  0  0  0  0  0
    3.5864   15.4883   -3.0815 H   0  0  0  0  0  0  0  0  0  0  0  0
    2.8522   17.1277   -3.0815 H   0  0  0  0  0  0  0  0  0  0  0  0
  1  2  1  0
  2  3  1  0
  3  4  1  0
  4  5  1  0
  5  6  1  0
  6  7  1  0
  7  8  1  0
  7  9  1  0
  2 10  1  0
 10 11  1  0
 11 12  1  0
 12 13  1  0
 13 14  1  1
 13 15  1  0
 15 16  1  0
 16 17  1  0
 17 18  2  0
 18 19  1  0
 19 20  1  0
 20 21  1  0
 21 22  1  0
 22 23  1  0
 22 24  1  0
 24 25  1  0
 24 26  1  0
 19 27  1  0
 27 28  1  6
 27 29  1  0
 29 30  1  0
 30 31  1  0
 31 32  1  6
  7  5  1  0
 31 10  1  0
 31 13  1  0
 27 15  1  0
 24 18  1  0
  1 33  1  0
  1 34  1  0
  1 35  1  0
  2 36  1  6
  3 37  1  0
  3 38  1  0
  4 39  1  0
  4 40  1  0
  5 41  1  6
  8 42  1  0
  8 43  1  0
  8 44  1  0
  9 45  1  0
  9 46  1  0
  9 47  1  0
 10 48  1  1
 11 49  1  0
 11 50  1  0
 12 51  1  0
 12 52  1  0
 14 53  1  0
 14 54  1  0
 14 55  1  0
 15 56  1  6
 16 57  1  0
 16 58  1  0
 17 59  1  0
 19 60  1  1
 20 61  1  0
 20 62  1  0
 21 63  1  0
 21 64  1  0
 22 65  1  1
 23 66  1  0
 25 67  1  0
 25 68  1  0
 25 69  1  0
 26 70  1  0
 26 71  1  0
 26 72  1  0
 28 73  1  0
 28 74  1  0
 28 75  1  0
 29 76  1  0
 29 77  1  0
 30 78  1  0
 30 79  1  0
 32 80  1  0
 32 81  1  0
 32 82  1  0
M  END
>  <meeko>  (2) 
{"is_sidechain": [false], "intermolecular_energy": 2.731, "internal_energy": -0.839}

$$$$
EPH_relaxed_0001_pdb2pqr_Repair_125_r2_0001_out
     RDKit          3D

 82 86  0  0  0  0  0  0  0  0999 V2000
   -1.2240    8.5480   -1.3970 C   0  0  0  0  0  0  0  0  0  0  0  0
   -1.9160    9.3130   -0.2650 C   0  0  2  0  0  0  0  0  0  0  0  0
   -3.3620    9.7070   -0.6310 C   0  0  0  0  0  0  0  0  0  0  0  0
   -4.3760    8.5770   -0.4340 C   0  0  0  0  0  0  0  0  0  0  0  0
   -4.8830    8.0530   -1.7430 C   0  0  2  0  0  0  0  0  0  0  0  0
   -6.0050    8.7670   -2.2800 O   0  0  0  0  0  0  0  0  0  0  0  0
   -6.2410    7.3980   -1.9120 C   0  0  0  0  0  0  0  0  0  0  0  0
   -7.1770    7.2310   -0.7560 C   0  0  0  0  0  0  0  0  0  0  0  0
   -6.4560    6.4890   -3.0820 C   0  0  0  0  0  0  0  0  0  0  0  0
   -1.1110   10.5580    0.0900 C   0  0  1  0  0  0  0  0  0  0  0  0
   -0.0770   10.2980    1.2170 C   0  0  0  0  0  0  0  0  0  0  0  0
    1.1600   11.1780    0.9010 C   0  0  0  0  0  0  0  0  0  0  0  0
    0.6750   12.1530   -0.1980 C   0  0  1  0  0  0  0  0  0  0  0  0
   -0.0860   13.2780    0.5720 C   0  0  0  0  0  0  0  0  0  0  0  0
    1.7780   12.7400   -1.1370 C   0  0  2  0  0  0  0  0  0  0  0  0
    2.8400   13.6030   -0.4350 C   0  0  0  0  0  0  0  0  0  0  0  0
    2.5280   15.0610   -0.3570 C   0  0  0  0  0  0  0  0  0  0  0  0
    1.5830   15.6980   -1.0730 C   0  0  0  0  0  0  0  0  0  0  0  0
    0.7760   14.9570   -2.1480 C   0  0  1  0  0  0  0  0  0  0  0  0
    0.7230   15.8160   -3.4390 C   0  0  0  0  0  0  0  0  0  0  0  0
    0.1980   17.2250   -3.1830 C   0  0  0  0  0  0  0  0  0  0  0  0
    1.0600   17.9500   -2.1520 C   0  0  2  0  0  0  0  0  0  0  0  0
    2.3580   18.1720   -2.7120 O   0  0  0  0  0  0  0  0  0  0  0  0
    1.1940   17.1740   -0.8120 C   0  0  0  0  0  0  0  0  0  0  0  0
   -0.1590   17.1950   -0.0600 C   0  0  0  0  0  0  0  0  0  0  0  0
    2.2010   17.9430    0.0860 C   0  0  0  0  0  0  0  0  0  0  0  0
    1.2140   13.4560   -2.4310 C   0  0  1  0  0  0  0  0  0  0  0  0
    2.3570   13.4250   -3.4910 C   0  0  0  0  0  0  0  0  0  0  0  0
    0.0000   12.6780   -3.0640 C   0  0  0  0  0  0  0  0  0  0  0  0
   -0.9890   12.0180   -2.0850 C   0  0  0  0  0  0  0  0  0  0  0  0
   -0.2480   11.1900   -1.0310 C   0  0  2  0  0  0  0  0  0  0  0  0
    0.5080   10.0370   -1.7730 C   0  0  0  0  0  0  0  0  0  0  0  0
   -0.5441    7.7964   -0.9695 H   0  0  0  0  0  0  0  0  0  0  0  0
   -1.9815    8.0466   -2.0173 H   0  0  0  0  0  0  0  0  0  0  0  0
   -0.6494    9.2516   -2.0173 H   0  0  0  0  0  0  0  0  0  0  0  0
   -1.9659    8.6426    0.6056 H   0  0  0  0  0  0  0  0  0  0  0  0
   -3.6611   10.5562    0.0009 H   0  0  0  0  0  0  0  0  0  0  0  0
   -3.3654    9.9592   -1.7017 H   0  0  0  0  0  0  0  0  0  0  0  0
   -3.8924    7.7559    0.1155 H   0  0  0  0  0  0  0  0  0  0  0  0
   -5.2314    8.9782    0.1293 H   0  0  0  0  0  0  0  0  0  0  0  0
   -3.8705    7.7386   -2.0362 H   0  0  0  0  0  0  0  0  0  0  0  0
   -6.6178    7.3308    0.1860 H   0  0  0  0  0  0  0  0  0  0  0  0
   -7.9583    8.0039   -0.8022 H   0  0  0  0  0  0  0  0  0  0  0  0
   -7.6428    6.2356   -0.8022 H   0  0  0  0  0  0  0  0  0  0  0  0
   -6.6952    5.4777   -2.7215 H   0  0  0  0  0  0  0  0  0  0  0  0
   -7.2894    6.8675   -3.6921 H   0  0  0  0  0  0  0  0  0  0  0  0
   -5.5414    6.4540   -3.6921 H   0  0  0  0  0  0  0  0  0  0  0  0
   -1.9317   11.2383    0.3613 H   0  0  0  0  0  0  0  0  0  0  0  0
   -0.5016   10.5776    2.1925 H   0  0  0  0  0  0  0  0  0  0  0  0
    0.1970    9.2337    1.2637 H   0  0  0  0  0  0  0  0  0  0  0  0
    1.4821   11.7307    1.7958 H   0  0  0  0  0  0  0  0  0  0  0  0
    2.0249   10.5807    0.5766 H   0  0  0  0  0  0  0  0  0  0  0  0
    0.0219   13.1186    1.6550 H   0  0  0  0  0  0  0  0  0  0  0  0
    0.3359   14.2573    0.3017 H   0  0  0  0  0  0  0  0  0  0  0  0
   -1.1519   13.2508    0.3017 H   0  0  0  0  0  0  0  0  0  0  0  0
    2.3045   11.8359   -1.4767 H   0  0  0  0  0  0  0  0  0  0  0  0
    2.9601   13.2258    0.5913 H   0  0  0  0  0  0  0  0  0  0  0  0
    3.7515   13.5193   -1.0450 H   0  0  0  0  0  0  0  0  0  0  0  0
    3.1207   15.6658    0.3451 H   0  0  0  0  0  0  0  0  0  0  0  0
   -0.2378   14.8357   -1.7387 H   0  0  0  0  0  0  0  0  0  0  0  0
    1.7382   15.8884   -3.8563 H   0  0  0  0  0  0  0  0  0  0  0  0
    0.0316   15.3242   -4.1391 H   0  0  0  0  0  0  0  0  0  0  0  0
    0.2121   17.7912   -4.1260 H   0  0  0  0  0  0  0  0  0  0  0  0
   -0.8281   17.1518   -2.7934 H   0  0  0  0  0  0  0  0  0  0  0  0
    0.5618   18.9015   -1.9145 H   0  0  0  0  0  0  0  0  0  0  0  0
    2.6030   19.0950   -2.5290 H   0  0  0  0  0  0  0  0  0  0  0  0
    0.0243   17.1922    1.0246 H   0  0  0  0  0  0  0  0  0  0  0  0
   -0.7174   18.1019   -0.3351 H   0  0  0  0  0  0  0  0  0  0  0  0
   -0.7453   16.3058   -0.3351 H   0  0  0  0  0  0  0  0  0  0  0  0
    1.9621   17.7606    1.1441 H   0  0  0  0  0  0  0  0  0  0  0  0
    3.2222   17.5927   -0.1250 H   0  0  0  0  0  0  0  0  0  0  0  0
    2.1320   19.0204   -0.1250 H   0  0  0  0  0  0  0  0  0  0  0  0
    3.3306   13.3986   -2.9797 H   0  0  0  0  0  0  0  0  0  0  0  0
    2.2490   12.5295   -4.1206 H   0  0  0  0  0  0  0  0  0  0  0  0
    2.2977   14.3251   -4.1206 H   0  0  0  0  0  0  0  0  0  0  0  0
   -0.5675   13.3912   -3.6798 H   0  0  0  0  0  0  0  0  0  0  0  0
    0.4519   11.8445   -3.6218 H   0  0  0  0  0  0  0  0  0  0  0  0
   -1.5734   12.8019   -1.5810 H   0  0  0  0  0  0  0  0  0  0  0  0
   -1.6515   11.3491   -2.6539 H   0  0  0  0  0  0  0  0  0  0  0  0
    0.9545    9.3560   -1.0335 H   0  0  0  0  0  0  0  0  0  0  0  0
   -0.2008    9.4800   -2.4034 H   0  0  0  0  0  0  0  0  0  0  0  0
    1.3014   10.4650   -2.4034 H   0  0  0  0  0  0  0  0  0  0  0  0
  1  2  1  0
  2  3  1  0
  3  4  1  0
  4  5  1  0
  5  6  1  0
  6  7  1  0
  7  8  1  0
  7  9  1  0
  2 10  1  0
 10 11  1  0
 11 12  1  0
 12 13  1  0
 13 14  1  1
 13 15  1  0
 15 16  1  0
 16 17  1  0
 17 18  2  0
 18 19  1  0
 19 20  1  0
 20 21  1  0
 21 22  1  0
 22 23  1  0
 22 24  1  0
 24 25  1  0
 24 26  1  0
 19 27  1  0
 27 28  1  6
 27 29  1  0
 29 30  1  0
 30 31  1  0
 31 32  1  6
  7  5  1  0
 31 10  1  0
 31 13  1  0
 27 15  1  0
 24 18  1  0
  1 33  1  0
  1 34  1  0
  1 35  1  0
  2 36  1  1
  3 37  1  0
  3 38  1  0
  4 39  1  0
  4 40  1  0
  5 41  1  6
  8 42  1  0
  8 43  1  0
  8 44  1  0
  9 45  1  0
  9 46  1  0
  9 47  1  0
 10 48  1  1
 11 49  1  0
 11 50  1  0
 12 51  1  0
 12 52  1  0
 14 53  1  0
 14 54  1  0
 14 55  1  0
 15 56  1  6
 16 57  1  0
 16 58  1  0
 17 59  1  0
 19 60  1  1
 20 61  1  0
 20 62  1  0
 21 63  1  0
 21 64  1  0
 22 65  1  1
 23 66  1  0
 25 67  1  0
 25 68  1  0
 25 69  1  0
 26 70  1  0
 26 71  1  0
 26 72  1  0
 28 73  1  0
 28 74  1  0
 28 75  1  0
 29 76  1  0
 29 77  1  0
 30 78  1  0
 30 79  1  0
 32 80  1  0
 32 81  1  0
 32 82  1  0
M  END
>  <meeko>  (3) 
{"is_sidechain": [false], "intermolecular_energy": 2.731, "internal_energy": -0.839}

$$$$
EPH_relaxed_0001_pdb2pqr_Repair_125_r2_0001_out
     RDKit          3D

 82 86  0  0  0  0  0  0  0  0999 V2000
   -0.9920    8.1470   -1.1860 C   0  0  0  0  0  0  0  0  0  0  0  0
   -0.9440    9.0530    0.0470 C   0  0  2  0  0  0  0  0  0  0  0  0
   -2.2830    9.7810    0.2850 C   0  0  0  0  0  0  0  0  0  0  0  0
   -3.2840    9.6190   -0.8620 C   0  0  0  0  0  0  0  0  0  0  0  0
   -4.1690    8.4270   -0.6610 C   0  0  2  0  0  0  0  0  0  0  0  0
   -4.4200    7.6610   -1.8470 O   0  0  0  0  0  0  0  0  0  0  0  0
   -5.5600    8.3070   -1.2560 C   0  0  0  0  0  0  0  0  0  0  0  0
   -6.1450    9.3980   -2.0970 C   0  0  0  0  0  0  0  0  0  0  0  0
   -6.5300    7.3590   -0.6240 C   0  0  0  0  0  0  0  0  0  0  0  0
    0.1830   10.0690   -0.0980 C   0  0  1  0  0  0  0  0  0  0  0  0
    1.5780    9.4000   -0.2200 C   0  0  0  0  0  0  0  0  0  0  0  0
    2.4140   10.2820   -1.1820 C   0  0  0  0  0  0  0  0  0  0  0  0
    1.6010   11.5900   -1.3190 C   0  0  1  0  0  0  0  0  0  0  0  0
    1.9580   12.4200   -0.0460 C   0  0  0  0  0  0  0  0  0  0  0  0
    1.8310   12.4140   -2.6280 C   0  0  2  0  0  0  0  0  0  0  0  0
    3.2620   12.9430   -2.8220 C   0  0  0  0  0  0  0  0  0  0  0  0
    3.5220   14.3000   -2.2570 C   0  0  0  0  0  0  0  0  0  0  0  0
    2.5800   15.1810   -1.8720 C   0  0  0  0  0  0  0  0  0  0  0  0
    1.0900   14.8820   -2.0810 C   0  0  1  0  0  0  0  0  0  0  0  0
    0.3920   16.1280   -2.6870 C   0  0  0  0  0  0  0  0  0  0  0  0
    0.6240   17.3890   -1.8600 C   0  0  0  0  0  0  0  0  0  0  0  0
    2.1150   17.6850   -1.7230 C   0  0  2  0  0  0  0  0  0  0  0  0
    2.6360   18.0290   -3.0110 O   0  0  0  0  0  0  0  0  0  0  0  0
    2.9240   16.4970   -1.1320 C   0  0  0  0  0  0  0  0  0  0  0  0
    2.5700   16.3200    0.3650 C   0  0  0  0  0  0  0  0  0  0  0  0
    4.4300   16.8740   -1.1800 C   0  0  0  0  0  0  0  0  0  0  0  0
    0.7560   13.5480   -2.8770 C   0  0  1  0  0  0  0  0  0  0  0  0
    0.7540   13.8300   -4.4110 C   0  0  0  0  0  0  0  0  0  0  0  0
   -0.7030   13.0820   -2.5100 C   0  0  0  0  0  0  0  0  0  0  0  0
   -0.8510   12.1720   -1.2750 C   0  0  0  0  0  0  0  0  0  0  0  0
    0.1410   11.0060   -1.3310 C   0  0  2  0  0  0  0  0  0  0  0  0
   -0.2080   10.1410   -2.5900 C   0  0  0  0  0  0  0  0  0  0  0  0
   -1.0477    7.0958   -0.8667 H   0  0  0  0  0  0  0  0  0  0  0  0
   -1.8783    8.3946   -1.7887 H   0  0  0  0  0  0  0  0  0  0  0  0
   -0.0845    8.2996   -1.7887 H   0  0  0  0  0  0  0  0  0  0  0  0
   -0.7565    8.4125    0.9214 H   0  0  0  0  0  0  0  0  0  0  0  0
   -2.7382    9.3797    1.2025 H   0  0  0  0  0  0  0  0  0  0  0  0
   -2.0557   10.8543    0.3641 H   0  0  0  0  0  0  0  0  0  0  0  0
   -3.9097   10.5219   -0.9193 H   0  0  0  0  0  0  0  0  0  0  0  0
   -2.7174    9.4722   -1.7934 H   0  0  0  0  0  0  0  0  0  0  0  0
   -3.7902    8.2891    0.3625 H   0  0  0  0  0  0  0  0  0  0  0  0
   -6.5637   10.1789   -1.4452 H   0  0  0  0  0  0  0  0  0  0  0  0
   -5.3591    9.8329   -2.7320 H   0  0  0  0  0  0  0  0  0  0  0  0
   -6.9422    8.9841   -2.7320 H   0  0  0  0  0  0  0  0  0  0  0  0
   -6.4544    7.4329    0.4709 H   0  0  0  0  0  0  0  0  0  0  0  0
   -7.5521    7.6159   -0.9392 H   0  0  0  0  0  0  0  0  0  0  0  0
   -6.2966    6.3313   -0.9392 H   0  0  0  0  0  0  0  0  0  0  0  0
    0.0267   10.6509    0.8223 H   0  0  0  0  0  0  0  0  0  0  0  0
    2.0623    9.3511    0.7664 H   0  0  0  0  0  0  0  0  0  0  0  0
    1.4911    8.3720   -0.6015 H   0  0  0  0  0  0  0  0  0  0  0  0
    3.4080   10.4855   -0.7571 H   0  0  0  0  0  0  0  0  0  0  0  0
    2.5848    9.7938   -2.1528 H   0  0  0  0  0  0  0  0  0  0  0  0
    1.7077   11.8380    0.8533 H   0  0  0  0  0  0  0  0  0  0  0  0
    3.0340   12.6485   -0.0471 H   0  0  0  0  0  0  0  0  0  0  0  0
    1.3839   13.3583   -0.0471 H   0  0  0  0  0  0  0  0  0  0  0  0
    1.6836   11.6574   -3.4127 H   0  0  0  0  0  0  0  0  0  0  0  0
    3.9539   12.2361   -2.3407 H   0  0  0  0  0  0  0  0  0  0  0  0
    3.4088   13.0324   -3.9085 H   0  0  0  0  0  0  0  0  0  0  0  0
    4.5727   14.6060   -2.1458 H   0  0  0  0  0  0  0  0  0  0  0  0
    0.6786   14.6725   -1.0826 H   0  0  0  0  0  0  0  0  0  0  0  0
    0.7850   16.2940   -3.7009 H   0  0  0  0  0  0  0  0  0  0  0  0
   -0.6902   15.9313   -2.6993 H   0  0  0  0  0  0  0  0  0  0  0  0
    0.1321   18.2395   -2.3547 H   0  0  0  0  0  0  0  0  0  0  0  0
    0.2035   17.2324   -0.8557 H   0  0  0  0  0  0  0  0  0  0  0  0
    2.2223   18.5197   -1.0147 H   0  0  0  0  0  0  0  0  0  0  0  0
    2.2820   17.3900   -3.6520 H   0  0  0  0  0  0  0  0  0  0  0  0
    3.3830   16.7265    0.9846 H   0  0  0  0  0  0  0  0  0  0  0  0
    1.6361   16.8572    0.5869 H   0  0  0  0  0  0  0  0  0  0  0  0
    2.4394   15.2506    0.5869 H   0  0  0  0  0  0  0  0  0  0  0  0
    4.8166   16.9708   -0.1547 H   0  0  0  0  0  0  0  0  0  0  0  0
    4.9881   16.0878   -1.7096 H   0  0  0  0  0  0  0  0  0  0  0  0
    4.5519   17.8304   -1.7096 H   0  0  0  0  0  0  0  0  0  0  0  0
    0.7463   14.9163   -4.5841 H   0  0  0  0  0  0  0  0  0  0  0  0
    1.6553   13.3927   -4.8654 H   0  0  0  0  0  0  0  0  0  0  0  0
   -0.1410   13.3799   -4.8654 H   0  0  0  0  0  0  0  0  0  0  0  0
   -1.3061   13.9847   -2.3326 H   0  0  0  0  0  0  0  0  0  0  0  0
   -1.0322   12.4682   -3.3614 H   0  0  0  0  0  0  0  0  0  0  0  0
   -0.6603   12.7634   -0.3673 H   0  0  0  0  0  0  0  0  0  0  0  0
   -1.8722   11.7633   -1.2608 H   0  0  0  0  0  0  0  0  0  0  0  0
   -0.6015    9.1658   -2.2672 H   0  0  0  0  0  0  0  0  0  0  0  0
   -0.9667   10.6610   -3.1933 H   0  0  0  0  0  0  0  0  0  0  0  0
    0.6991    9.9889   -3.1933 H   0  0  0  0  0  0  0  0  0  0  0  0
  1  2  1  0
  2  3  1  0
  3  4  1  0
  4  5  1  0
  5  6  1  0
  6  7  1  0
  7  8  1  0
  7  9  1  0
  2 10  1  0
 10 11  1  0
 11 12  1  0
 12 13  1  0
 13 14  1  1
 13 15  1  0
 15 16  1  0
 16 17  1  0
 17 18  2  0
 18 19  1  0
 19 20  1  0
 20 21  1  0
 21 22  1  0
 22 23  1  0
 22 24  1  0
 24 25  1  0
 24 26  1  0
 19 27  1  0
 27 28  1  6
 27 29  1  0
 29 30  1  0
 30 31  1  0
 31 32  1  6
  7  5  1  0
 31 10  1  0
 31 13  1  0
 27 15  1  0
 24 18  1  0
  1 33  1  0
  1 34  1  0
  1 35  1  0
  2 36  1  1
  3 37  1  0
  3 38  1  0
  4 39  1  0
  4 40  1  0
  5 41  1  1
  8 42  1  0
  8 43  1  0
  8 44  1  0
  9 45  1  0
  9 46  1  0
  9 47  1  0
 10 48  1  1
 11 49  1  0
 11 50  1  0
 12 51  1  0
 12 52  1  0
 14 53  1  0
 14 54  1  0
 14 55  1  0
 15 56  1  6
 16 57  1  0
 16 58  1  0
 17 59  1  0
 19 60  1  1
 20 61  1  0
 20 62  1  0
 21 63  1  0
 21 64  1  0
 22 65  1  1
 23 66  1  0
 25 67  1  0
 25 68  1  0
 25 69  1  0
 26 70  1  0
 26 71  1  0
 26 72  1  0
 28 73  1  0
 28 74  1  0
 28 75  1  0
 29 76  1  0
 29 77  1  0
 30 78  1  0
 30 79  1  0
 32 80  1  0
 32 81  1  0
 32 82  1  0
M  END
>  <meeko>  (4) 
{"is_sidechain": [false], "intermolecular_energy": 2.731, "internal_energy": -0.839}

$$$$
EPH_relaxed_0001_pdb2pqr_Repair_125_r2_0001_out
     RDKit          3D

 82 86  0  0  0  0  0  0  0  0999 V2000
    1.2700   18.8460   -0.1460 C   0  0  0  0  0  0  0  0  0  0  0  0
    2.0310   17.5220   -0.0270 C   0  0  2  0  0  0  0  0  0  0  0  0
    3.3980   17.5730   -0.7390 C   0  0  0  0  0  0  0  0  0  0  0  0
    4.4930   18.2630    0.0790 C   0  0  0  0  0  0  0  0  0  0  0  0
    4.0230   18.5970    1.4630 C   0  0  2  0  0  0  0  0  0  0  0  0
    4.1630   19.9770    1.8250 O   0  0  0  0  0  0  0  0  0  0  0  0
    4.9530   19.0410    2.5770 C   0  0  0  0  0  0  0  0  0  0  0  0
    6.4270   19.1740    2.3570 C   0  0  0  0  0  0  0  0  0  0  0  0
    4.5010   18.8740    3.9940 C   0  0  0  0  0  0  0  0  0  0  0  0
    1.1900   16.3860   -0.5960 C   0  0  1  0  0  0  0  0  0  0  0  0
    0.4630   16.7800   -1.9090 C   0  0  0  0  0  0  0  0  0  0  0  0
    0.4270   15.5120   -2.7990 C   0  0  0  0  0  0  0  0  0  0  0  0
    0.8300   14.3580   -1.8510 C   0  0  1  0  0  0  0  0  0  0  0  0
   -0.4760   14.0030   -1.0740 C   0  0  0  0  0  0  0  0  0  0  0  0
    1.4620   13.0970   -2.5260 C   0  0  2  0  0  0  0  0  0  0  0  0
    0.5410   12.3530   -3.5090 C   0  0  0  0  0  0  0  0  0  0  0  0
   -0.2900   11.2680   -2.9070 C   0  0  0  0  0  0  0  0  0  0  0  0
   -0.0950   10.7140   -1.6960 C   0  0  0  0  0  0  0  0  0  0  0  0
    1.1120   11.1080   -0.8350 C   0  0  1  0  0  0  0  0  0  0  0  0
    1.7850    9.8280   -0.2720 C   0  0  0  0  0  0  0  0  0  0  0  0
    0.8030    8.9310    0.4750 C   0  0  0  0  0  0  0  0  0  0  0  0
   -0.3520    8.5130   -0.4320 C   0  0  2  0  0  0  0  0  0  0  0  0
    0.1570    7.6660   -1.4660 O   0  0  0  0  0  0  0  0  0  0  0  0
   -1.1010    9.7200   -1.0650 C   0  0  0  0  0  0  0  0  0  0  0  0
   -1.9020   10.4670    0.0290 C   0  0  0  0  0  0  0  0  0  0  0  0
   -2.1480    9.1600   -2.0650 C   0  0  0  0  0  0  0  0  0  0  0  0
    2.1540   12.0980   -1.5120 C   0  0  1  0  0  0  0  0  0  0  0  0
    3.2020   11.2870   -2.3330 C   0  0  0  0  0  0  0  0  0  0  0  0
    2.9570   12.8490   -0.3860 C   0  0  0  0  0  0  0  0  0  0  0  0
    2.3390   14.1520    0.1560 C   0  0  0  0  0  0  0  0  0  0  0  0
    1.9280   15.0820   -0.9890 C   0  0  2  0  0  0  0  0  0  0  0  0
    3.2250   15.4750   -1.7760 C   0  0  0  0  0  0  0  0  0  0  0  0
    1.0477   19.2328    0.8595 H   0  0  0  0  0  0  0  0  0  0  0  0
    1.8866   19.5756   -0.6915 H   0  0  0  0  0  0  0  0  0  0  0  0
    0.3292   18.6804   -0.6915 H   0  0  0  0  0  0  0  0  0  0  0  0
    2.2211   17.3442    1.0418 H   0  0  0  0  0  0  0  0  0  0  0  0
    3.7189   16.5420   -0.9488 H   0  0  0  0  0  0  0  0  0  0  0  0
    3.2608   18.1648   -1.6560 H   0  0  0  0  0  0  0  0  0  0  0  0
    5.3617   17.5919    0.1496 H   0  0  0  0  0  0  0  0  0  0  0  0
    4.7606   19.2016   -0.4285 H   0  0  0  0  0  0  0  0  0  0  0  0
    3.2491   17.8167    1.4150 H   0  0  0  0  0  0  0  0  0  0  0  0
    6.9401   19.2203    3.3289 H   0  0  0  0  0  0  0  0  0  0  0  0
    6.7930   18.3052    1.7902 H   0  0  0  0  0  0  0  0  0  0  0  0
    6.6316   20.0943    1.7902 H   0  0  0  0  0  0  0  0  0  0  0  0
    5.3113   19.1734    4.6750 H   0  0  0  0  0  0  0  0  0  0  0  0
    3.6185   19.5054    4.1742 H   0  0  0  0  0  0  0  0  0  0  0  0
    4.2410   17.8205    4.1742 H   0  0  0  0  0  0  0  0  0  0  0  0
    0.5282   16.1996    0.2627 H   0  0  0  0  0  0  0  0  0  0  0  0
   -0.5606   17.1171   -1.6886 H   0  0  0  0  0  0  0  0  0  0  0  0
    0.9852   17.6041   -2.4172 H   0  0  0  0  0  0  0  0  0  0  0  0
   -0.5836   15.3488   -3.2016 H   0  0  0  0  0  0  0  0  0  0  0  0
    1.0981   15.5924   -3.6669 H   0  0  0  0  0  0  0  0  0  0  0  0
   -0.2846   14.0550    0.0080 H   0  0  0  0  0  0  0  0  0  0  0  0
   -1.2676   14.7186   -1.3411 H   0  0  0  0  0  0  0  0  0  0  0  0
   -0.7964   12.9852   -1.3411 H   0  0  0  0  0  0  0  0  0  0  0  0
    2.2632   13.5338   -3.1403 H   0  0  0  0  0  0  0  0  0  0  0  0
   -0.1384   13.0898   -3.9623 H   0  0  0  0  0  0  0  0  0  0  0  0
    1.2047   11.8609   -4.2352 H   0  0  0  0  0  0  0  0  0  0  0  0
   -1.1329   10.8895   -3.5039 H   0  0  0  0  0  0  0  0  0  0  0  0
    0.7117   11.7143   -0.0091 H   0  0  0  0  0  0  0  0  0  0  0  0
    2.2159    9.2589   -1.1090 H   0  0  0  0  0  0  0  0  0  0  0  0
    2.5585   10.1445    0.4432 H   0  0  0  0  0  0  0  0  0  0  0  0
    1.3309    8.0311    0.8237 H   0  0  0  0  0  0  0  0  0  0  0  0
    0.3943    9.4918    1.3285 H   0  0  0  0  0  0  0  0  0  0  0  0
   -1.0855    7.9807    0.1914 H   0  0  0  0  0  0  0  0  0  0  0  0
    0.3510    8.2260   -2.2360 H   0  0  0  0  0  0  0  0  0  0  0  0
   -1.5557   10.1441    1.0219 H   0  0  0  0  0  0  0  0  0  0  0  0
   -1.7472   11.5507   -0.0788 H   0  0  0  0  0  0  0  0  0  0  0  0
   -2.9723   10.2370   -0.0788 H   0  0  0  0  0  0  0  0  0  0  0  0
   -2.9844    8.7126   -1.5080 H   0  0  0  0  0  0  0  0  0  0  0  0
   -2.5243    9.9772   -2.6978 H   0  0  0  0  0  0  0  0  0  0  0  0
   -1.6772    8.3933   -2.6978 H   0  0  0  0  0  0  0  0  0  0  0  0
    3.8805   10.7620   -1.6445 H   0  0  0  0  0  0  0  0  0  0  0  0
    2.6829   10.5531   -2.9669 H   0  0  0  0  0  0  0  0  0  0  0  0
    3.7822   11.9737   -2.9669 H   0  0  0  0  0  0  0  0  0  0  0  0
    3.0693   12.1563    0.4611 H   0  0  0  0  0  0  0  0  0  0  0  0
    3.9015   13.1538   -0.8603 H   0  0  0  0  0  0  0  0  0  0  0  0
    1.4507   13.9063    0.7564 H   0  0  0  0  0  0  0  0  0  0  0  0
    3.0907   14.6664    0.7728 H   0  0  0  0  0  0  0  0  0  0  0  0
    4.0269   15.7180   -1.0633 H   0  0  0  0  0  0  0  0  0  0  0  0
    3.5397   14.6319   -2.4086 H   0  0  0  0  0  0  0  0  0  0  0  0
    3.0188   16.3510   -2.4086 H   0  0  0  0  0  0  0  0  0  0  0  0
  1  2  1  0
  2  3  1  0
  3  4  1  0
  4  5  1  0
  5  6  1  0
  6  7  1  0
  7  8  1  0
  7  9  1  0
  2 10  1  0
 10 11  1  0
 11 12  1  0
 12 13  1  0
 13 14  1  1
 13 15  1  0
 15 16  1  0
 16 17  1  0
 17 18  2  0
 18 19  1  0
 19 20  1  0
 20 21  1  0
 21 22  1  0
 22 23  1  0
 22 24  1  0
 24 25  1  0
 24 26  1  0
 19 27  1  0
 27 28  1  6
 27 29  1  0
 29 30  1  0
 30 31  1  0
 31 32  1  6
  7  5  1  0
 31 10  1  0
 31 13  1  0
 27 15  1  0
 24 18  1  0
  1 33  1  0
  1 34  1  0
  1 35  1  0
  2 36  1  1
  3 37  1  0
  3 38  1  0
  4 39  1  0
  4 40  1  0
  5 41  1  1
  8 42  1  0
  8 43  1  0
  8 44  1  0
  9 45  1  0
  9 46  1  0
  9 47  1  0
 10 48  1  1
 11 49  1  0
 11 50  1  0
 12 51  1  0
 12 52  1  0
 14 53  1  0
 14 54  1  0
 14 55  1  0
 15 56  1  6
 16 57  1  0
 16 58  1  0
 17 59  1  0
 19 60  1  1
 20 61  1  0
 20 62  1  0
 21 63  1  0
 21 64  1  0
 22 65  1  1
 23 66  1  0
 25 67  1  0
 25 68  1  0
 25 69  1  0
 26 70  1  0
 26 71  1  0
 26 72  1  0
 28 73  1  0
 28 74  1  0
 28 75  1  0
 29 76  1  0
 29 77  1  0
 30 78  1  0
 30 79  1  0
 32 80  1  0
 32 81  1  0
 32 82  1  0
M  END
>  <meeko>  (5) 
{"is_sidechain": [false], "intermolecular_energy": 2.731, "internal_energy": -0.839}

$$$$
EPH_relaxed_0001_pdb2pqr_Repair_125_r2_0001_out
     RDKit          3D

 82 86  0  0  0  0  0  0  0  0999 V2000
    0.4540    8.8250   -2.3560 C   0  0  0  0  0  0  0  0  0  0  0  0
    1.1940    9.9610   -3.0690 C   0  0  2  0  0  0  0  0  0  0  0  0
    2.6980    9.9760   -2.7310 C   0  0  0  0  0  0  0  0  0  0  0  0
    3.5750   10.5380   -3.8540 C   0  0  0  0  0  0  0  0  0  0  0  0
    4.9710   10.8100   -3.3820 C   0  0  2  0  0  0  0  0  0  0  0  0
    5.5280   12.0490   -3.8420 O   0  0  0  0  0  0  0  0  0  0  0  0
    6.1730   10.8530   -4.3070 C   0  0  0  0  0  0  0  0  0  0  0  0
    6.0340   10.6190   -5.7790 C   0  0  0  0  0  0  0  0  0  0  0  0
    7.5340   10.6360   -3.7230 C   0  0  0  0  0  0  0  0  0  0  0  0
    0.5640   11.3000   -2.7050 C   0  0  1  0  0  0  0  0  0  0  0  0
   -0.7500   11.1420   -1.8950 C   0  0  0  0  0  0  0  0  0  0  0  0
   -0.8010   12.3220   -0.8900 C   0  0  0  0  0  0  0  0  0  0  0  0
    0.3010   13.2940   -1.3750 C   0  0  1  0  0  0  0  0  0  0  0  0
   -0.3560   14.0950   -2.5430 C   0  0  0  0  0  0  0  0  0  0  0  0
    0.9080   14.2450   -0.2930 C   0  0  2  0  0  0  0  0  0  0  0  0
   -0.0880   15.2320    0.3410 C   0  0  0  0  0  0  0  0  0  0  0  0
   -0.2060   16.5510   -0.3480 C   0  0  0  0  0  0  0  0  0  0  0  0
    0.6590   17.0380   -1.2570 C   0  0  0  0  0  0  0  0  0  0  0  0
    1.9470   16.2800   -1.6040 C   0  0  1  0  0  0  0  0  0  0  0  0
    3.1440   17.2680   -1.6110 C   0  0  0  0  0  0  0  0  0  0  0  0
    2.9080   18.4660   -2.5250 C   0  0  0  0  0  0  0  0  0  0  0  0
    1.6510   19.2280   -2.1120 C   0  0  2  0  0  0  0  0  0  0  0  0
    1.8730   19.8230   -0.8290 O   0  0  0  0  0  0  0  0  0  0  0  0
    0.3810   18.3330   -2.0600 C   0  0  0  0  0  0  0  0  0  0  0  0
   -0.0330   17.9330   -3.4980 C   0  0  0  0  0  0  0  0  0  0  0  0
   -0.7840   19.1890   -1.4940 C   0  0  0  0  0  0  0  0  0  0  0  0
    2.2370   14.9760   -0.7440 C   0  0  1  0  0  0  0  0  0  0  0  0
    3.0000   15.3580    0.5610 C   0  0  0  0  0  0  0  0  0  0  0  0
    3.1950   14.0260   -1.5560 C   0  0  0  0  0  0  0  0  0  0  0  0
    2.5290   13.0270   -2.5210 C   0  0  0  0  0  0  0  0  0  0  0  0
    1.3990   12.2630   -1.8240 C   0  0  2  0  0  0  0  0  0  0  0  0
    2.0330   11.4300   -0.6580 C   0  0  0  0  0  0  0  0  0  0  0  0
    0.5403    8.9576   -1.2674 H   0  0  0  0  0  0  0  0  0  0  0  0
   -0.6074    8.8411   -2.6443 H   0  0  0  0  0  0  0  0  0  0  0  0
    0.8977    7.8606   -2.6443 H   0  0  0  0  0  0  0  0  0  0  0  0
    1.1013    9.7890   -4.1515 H   0  0  0  0  0  0  0  0  0  0  0  0
    2.8461   10.5932   -1.8326 H   0  0  0  0  0  0  0  0  0  0  0  0
    3.0036    8.9307   -2.5765 H   0  0  0  0  0  0  0  0  0  0  0  0
    3.6123    9.8085   -4.6765 H   0  0  0  0  0  0  0  0  0  0  0  0
    3.1349   11.4883   -4.1905 H   0  0  0  0  0  0  0  0  0  0  0  0
    4.7828   10.2728   -2.4407 H   0  0  0  0  0  0  0  0  0  0  0  0
    5.4791    9.6849   -5.9510 H   0  0  0  0  0  0  0  0  0  0  0  0
    5.4882   11.4588   -6.2338 H   0  0  0  0  0  0  0  0  0  0  0  0
    7.0325   10.5414   -6.2338 H   0  0  0  0  0  0  0  0  0  0  0  0
    7.4678   10.6466   -2.6250 H   0  0  0  0  0  0  0  0  0  0  0  0
    7.9258    9.6640   -4.0574 H   0  0  0  0  0  0  0  0  0  0  0  0
    8.2086   11.4379   -4.0574 H   0  0  0  0  0  0  0  0  0  0  0  0
    0.4393   11.7244   -3.7121 H   0  0  0  0  0  0  0  0  0  0  0  0
   -1.6179   11.1813   -2.5697 H   0  0  0  0  0  0  0  0  0  0  0  0
   -0.7768   10.1754   -1.3707 H   0  0  0  0  0  0  0  0  0  0  0  0
   -1.7868   12.8096   -0.9130 H   0  0  0  0  0  0  0  0  0  0  0  0
   -0.6414   11.9940    0.1477 H   0  0  0  0  0  0  0  0  0  0  0  0
   -1.0023   14.8830   -2.1291 H   0  0  0  0  0  0  0  0  0  0  0  0
    0.4302   14.5528   -3.1614 H   0  0  0  0  0  0  0  0  0  0  0  0
   -0.9587   13.4136   -3.1614 H   0  0  0  0  0  0  0  0  0  0  0  0
    1.1852   13.5437    0.5078 H   0  0  0  0  0  0  0  0  0  0  0  0
   -1.0811   14.7590    0.3417 H   0  0  0  0  0  0  0  0  0  0  0  0
    0.2981   15.4486    1.3480 H   0  0  0  0  0  0  0  0  0  0  0  0
   -1.0728   17.1777   -0.0912 H   0  0  0  0  0  0  0  0  0  0  0  0
    1.7958   15.8700   -2.6135 H   0  0  0  0  0  0  0  0  0  0  0  0
    3.3060   17.6329   -0.5860 H   0  0  0  0  0  0  0  0  0  0  0  0
    4.0223   16.7258   -1.9912 H   0  0  0  0  0  0  0  0  0  0  0  0
    3.7744   19.1411   -2.4646 H   0  0  0  0  0  0  0  0  0  0  0  0
    2.7754   18.1016   -3.5544 H   0  0  0  0  0  0  0  0  0  0  0  0
    1.4634   19.9944   -2.8784 H   0  0  0  0  0  0  0  0  0  0  0  0
    1.0540   19.7250   -0.3140 H   0  0  0  0  0  0  0  0  0  0  0  0
   -0.8234   17.1693   -3.4530 H   0  0  0  0  0  0  0  0  0  0  0  0
   -0.4089   18.8187   -4.0311 H   0  0  0  0  0  0  0  0  0  0  0  0
    0.8393   17.5269   -4.0311 H   0  0  0  0  0  0  0  0  0  0  0  0
   -0.7545   19.1673   -0.3946 H   0  0  0  0  0  0  0  0  0  0  0  0
   -0.6797   20.2269   -1.8432 H   0  0  0  0  0  0  0  0  0  0  0  0
   -1.7433   18.7793   -1.8432 H   0  0  0  0  0  0  0  0  0  0  0  0
    2.4033   15.0592    1.4354 H   0  0  0  0  0  0  0  0  0  0  0  0
    3.9696   14.8390    0.5841 H   0  0  0  0  0  0  0  0  0  0  0  0
    3.1654   16.4452    0.5841 H   0  0  0  0  0  0  0  0  0  0  0  0
    3.8697   14.6614   -2.1485 H   0  0  0  0  0  0  0  0  0  0  0  0
    3.6939   13.4045   -0.7979 H   0  0  0  0  0  0  0  0  0  0  0  0
    2.1158   13.5767   -3.3795 H   0  0  0  0  0  0  0  0  0  0  0  0
    3.2872   12.3039   -2.8561 H   0  0  0  0  0  0  0  0  0  0  0  0
    1.7140   11.8492    0.3077 H   0  0  0  0  0  0  0  0  0  0  0  0
    1.7004   10.3841   -0.7316 H   0  0  0  0  0  0  0  0  0  0  0  0
    3.1297   11.4720   -0.7316 H   0  0  0  0  0  0  0  0  0  0  0  0
  1  2  1  0
  2  3  1  0
  3  4  1  0
  4  5  1  0
  5  6  1  0
  6  7  1  0
  7  8  1  0
  7  9  1  0
  2 10  1  0
 10 11  1  0
 11 12  1  0
 12 13  1  0
 13 14  1  6
 13 15  1  0
 15 16  1  0
 16 17  1  0
 17 18  2  0
 18 19  1  0
 19 20  1  0
 20 21  1  0
 21 22  1  0
 22 23  1  0
 22 24  1  0
 24 25  1  0
 24 26  1  0
 19 27  1  0
 27 28  1  1
 27 29  1  0
 29 30  1  0
 30 31  1  0
 31 32  1  1
  7  5  1  0
 31 10  1  0
 31 13  1  0
 27 15  1  0
 24 18  1  0
  1 33  1  0
  1 34  1  0
  1 35  1  0
  2 36  1  6
  3 37  1  0
  3 38  1  0
  4 39  1  0
  4 40  1  0
  5 41  1  1
  8 42  1  0
  8 43  1  0
  8 44  1  0
  9 45  1  0
  9 46  1  0
  9 47  1  0
 10 48  1  6
 11 49  1  0
 11 50  1  0
 12 51  1  0
 12 52  1  0
 14 53  1  0
 14 54  1  0
 14 55  1  0
 15 56  1  1
 16 57  1  0
 16 58  1  0
 17 59  1  0
 19 60  1  6
 20 61  1  0
 20 62  1  0
 21 63  1  0
 21 64  1  0
 22 65  1  6
 23 66  1  0
 25 67  1  0
 25 68  1  0
 25 69  1  0
 26 70  1  0
 26 71  1  0
 26 72  1  0
 28 73  1  0
 28 74  1  0
 28 75  1  0
 29 76  1  0
 29 77  1  0
 30 78  1  0
 30 79  1  0
 32 80  1  0
 32 81  1  0
 32 82  1  0
M  END
>  <meeko>  (6) 
{"is_sidechain": [false], "intermolecular_energy": 2.731, "internal_energy": -0.839}

$$$$
EPH_relaxed_0001_pdb2pqr_Repair_125_r2_0001_out
     RDKit          3D

 82 86  0  0  0  0  0  0  0  0999 V2000
   -5.1960    5.9220   -1.8060 C   0  0  0  0  0  0  0  0  0  0  0  0
   -5.4930    7.4180   -1.9480 C   0  0  2  0  0  0  0  0  0  0  0  0
   -5.2160    8.1920   -0.6440 C   0  0  0  0  0  0  0  0  0  0  0  0
   -4.2350    9.3550   -0.8150 C   0  0  0  0  0  0  0  0  0  0  0  0
   -2.8390    8.9640   -0.4340 C   0  0  2  0  0  0  0  0  0  0  0  0
   -2.2830    9.7140    0.6530 O   0  0  0  0  0  0  0  0  0  0  0  0
   -1.6360    9.8700   -0.6200 C   0  0  0  0  0  0  0  0  0  0  0  0
   -1.7740   11.2390   -1.2090 C   0  0  0  0  0  0  0  0  0  0  0  0
   -0.2760    9.2480   -0.6870 C   0  0  0  0  0  0  0  0  0  0  0  0
   -6.9410    7.6220   -2.3770 C   0  0  1  0  0  0  0  0  0  0  0  0
   -7.2770    6.9000   -3.7100 C   0  0  0  0  0  0  0  0  0  0  0  0
   -8.7440    6.4130   -3.5970 C   0  0  0  0  0  0  0  0  0  0  0  0
   -9.3060    7.1500   -2.3590 C   0  0  1  0  0  0  0  0  0  0  0  0
   -9.6850    8.5730   -2.8760 C   0  0  0  0  0  0  0  0  0  0  0  0
  -10.5060    6.4620   -1.6310 C   0  0  2  0  0  0  0  0  0  0  0  0
  -11.7820    6.3080   -2.4780 C   0  0  0  0  0  0  0  0  0  0  0  0
  -12.7450    7.4450   -2.3910 C   0  0  0  0  0  0  0  0  0  0  0  0
  -12.7340    8.4100   -1.4530 C   0  0  0  0  0  0  0  0  0  0  0  0
  -11.7370    8.3640   -0.2870 C   0  0  1  0  0  0  0  0  0  0  0  0
  -12.4810    8.6580    1.0420 C   0  0  0  0  0  0  0  0  0  0  0  0
  -13.2660    9.9660    0.9970 C   0  0  0  0  0  0  0  0  0  0  0  0
  -14.2860    9.9510   -0.1390 C   0  0  2  0  0  0  0  0  0  0  0  0
  -15.2860    8.9700    0.1540 O   0  0  0  0  0  0  0  0  0  0  0  0
  -13.6530    9.6540   -1.5270 C   0  0  0  0  0  0  0  0  0  0  0  0
  -12.7990   10.8640   -1.9790 C   0  0  0  0  0  0  0  0  0  0  0  0
  -14.8060    9.5270   -2.5600 C   0  0  0  0  0  0  0  0  0  0  0  0
  -10.8290    7.0620   -0.2030 C   0  0  1  0  0  0  0  0  0  0  0  0
  -11.5710    5.9460    0.5930 C   0  0  0  0  0  0  0  0  0  0  0  0
   -9.5250    7.3970    0.6140 C   0  0  0  0  0  0  0  0  0  0  0  0
   -8.3330    7.9630   -0.1810 C   0  0  0  0  0  0  0  0  0  0  0  0
   -8.0460    7.1090   -1.4200 C   0  0  2  0  0  0  0  0  0  0  0  0
   -7.6400    5.6770   -0.9300 C   0  0  0  0  0  0  0  0  0  0  0  0
   -5.1436    5.6582   -0.7394 H   0  0  0  0  0  0  0  0  0  0  0  0
   -5.9965    5.3419   -2.2883 H   0  0  0  0  0  0  0  0  0  0  0  0
   -4.2346    5.6916   -2.2883 H   0  0  0  0  0  0  0  0  0  0  0  0
   -4.8170    7.8174   -2.7184 H   0  0  0  0  0  0  0  0  0  0  0  0
   -6.1691    8.5938   -0.2696 H   0  0  0  0  0  0  0  0  0  0  0  0
   -4.7544    7.4828    0.0588 H   0  0  0  0  0  0  0  0  0  0  0  0
   -4.2409    9.6744   -1.8676 H   0  0  0  0  0  0  0  0  0  0  0  0
   -4.5546   10.1731   -0.1527 H   0  0  0  0  0  0  0  0  0  0  0  0
   -3.0277    7.9195   -0.7227 H   0  0  0  0  0  0  0  0  0  0  0  0
   -1.8487   11.9804   -0.3999 H   0  0  0  0  0  0  0  0  0  0  0  0
   -0.8937   11.4614   -1.8300 H   0  0  0  0  0  0  0  0  0  0  0  0
   -2.6810   11.2813   -1.8300 H   0  0  0  0  0  0  0  0  0  0  0  0
    0.0993    9.0763    0.3326 H   0  0  0  0  0  0  0  0  0  0  0  0
   -0.3375    8.2885   -1.2214 H   0  0  0  0  0  0  0  0  0  0  0  0
    0.4096    9.9221   -1.2214 H   0  0  0  0  0  0  0  0  0  0  0  0
   -6.9652    8.7207   -2.4252 H   0  0  0  0  0  0  0  0  0  0  0  0
   -7.1731    7.5967   -4.5549 H   0  0  0  0  0  0  0  0  0  0  0  0
   -6.5932    6.0565   -3.8857 H   0  0  0  0  0  0  0  0  0  0  0  0
   -9.3127    6.6810   -4.4997 H   0  0  0  0  0  0  0  0  0  0  0  0
   -8.8140    5.3196   -3.4987 H   0  0  0  0  0  0  0  0  0  0  0  0
   -9.8625    9.2393   -2.0189 H   0  0  0  0  0  0  0  0  0  0  0  0
   -8.8619    8.9725   -3.4867 H   0  0  0  0  0  0  0  0  0  0  0  0
  -10.5977    8.5102   -3.4867 H   0  0  0  0  0  0  0  0  0  0  0  0
  -10.1293    5.4411   -1.4699 H   0  0  0  0  0  0  0  0  0  0  0  0
  -11.4805    6.1974   -3.5301 H   0  0  0  0  0  0  0  0  0  0  0  0
  -12.3099    5.4302   -2.0769 H   0  0  0  0  0  0  0  0  0  0  0  0
  -13.5307    7.4988   -3.1590 H   0  0  0  0  0  0  0  0  0  0  0  0
  -10.9999    9.1561   -0.4850 H   0  0  0  0  0  0  0  0  0  0  0  0
  -13.1808    7.8337    1.2440 H   0  0  0  0  0  0  0  0  0  0  0  0
  -11.7240    8.7503    1.8347 H   0  0  0  0  0  0  0  0  0  0  0  0
  -13.7934   10.1025    1.9526 H   0  0  0  0  0  0  0  0  0  0  0  0
  -12.5612   10.7929    0.8253 H   0  0  0  0  0  0  0  0  0  0  0  0
  -14.7236   10.9581   -0.2037 H   0  0  0  0  0  0  0  0  0  0  0  0
  -14.8490    8.2310    0.6100 H   0  0  0  0  0  0  0  0  0  0  0  0
  -12.4222   11.3979   -1.0941 H   0  0  0  0  0  0  0  0  0  0  0  0
  -11.9503   10.5090   -2.5820 H   0  0  0  0  0  0  0  0  0  0  0  0
  -13.4178   11.5448   -2.5820 H   0  0  0  0  0  0  0  0  0  0  0  0
  -15.7637    9.4215   -2.0294 H   0  0  0  0  0  0  0  0  0  0  0  0
  -14.8337   10.4275   -3.1911 H   0  0  0  0  0  0  0  0  0  0  0  0
  -14.6371    8.6420   -3.1911 H   0  0  0  0  0  0  0  0  0  0  0  0
  -11.4523    6.1245    1.6719 H   0  0  0  0  0  0  0  0  0  0  0  0
  -12.6401    5.9602    0.3344 H   0  0  0  0  0  0  0  0  0  0  0  0
  -11.1442    4.9657    0.3344 H   0  0  0  0  0  0  0  0  0  0  0  0
   -9.7944    8.1372    1.3818 H   0  0  0  0  0  0  0  0  0  0  0  0
   -9.1758    6.4309    1.0072 H   0  0  0  0  0  0  0  0  0  0  0  0
   -8.5669    8.9900   -0.4980 H   0  0  0  0  0  0  0  0  0  0  0  0
   -7.4433    7.9532    0.4658 H   0  0  0  0  0  0  0  0  0  0  0  0
   -7.6335    5.6539    0.1697 H   0  0  0  0  0  0  0  0  0  0  0  0
   -8.3649    4.9409   -1.3079 H   0  0  0  0  0  0  0  0  0  0  0  0
   -6.6367    5.4309   -1.3079 H   0  0  0  0  0  0  0  0  0  0  0  0
  1  2  1  0
  2  3  1  0
  3  4  1  0
  4  5  1  0
  5  6  1  0
  6  7  1  0
  7  8  1  0
  7  9  1  0
  2 10  1  0
 10 11  1  0
 11 12  1  0
 12 13  1  0
 13 14  1  6
 13 15  1  0
 15 16  1  0
 16 17  1  0
 17 18  2  0
 18 19  1  0
 19 20  1  0
 20 21  1  0
 21 22  1  0
 22 23  1  0
 22 24  1  0
 24 25  1  0
 24 26  1  0
 19 27  1  0
 27 28  1  1
 27 29  1  0
 29 30  1  0
 30 31  1  0
 31 32  1  1
  7  5  1  0
 31 10  1  0
 31 13  1  0
 27 15  1  0
 24 18  1  0
  1 33  1  0
  1 34  1  0
  1 35  1  0
  2 36  1  6
  3 37  1  0
  3 38  1  0
  4 39  1  0
  4 40  1  0
  5 41  1  1
  8 42  1  0
  8 43  1  0
  8 44  1  0
  9 45  1  0
  9 46  1  0
  9 47  1  0
 10 48  1  6
 11 49  1  0
 11 50  1  0
 12 51  1  0
 12 52  1  0
 14 53  1  0
 14 54  1  0
 14 55  1  0
 15 56  1  1
 16 57  1  0
 16 58  1  0
 17 59  1  0
 19 60  1  6
 20 61  1  0
 20 62  1  0
 21 63  1  0
 21 64  1  0
 22 65  1  6
 23 66  1  0
 25 67  1  0
 25 68  1  0
 25 69  1  0
 26 70  1  0
 26 71  1  0
 26 72  1  0
 28 73  1  0
 28 74  1  0
 28 75  1  0
 29 76  1  0
 29 77  1  0
 30 78  1  0
 30 79  1  0
 32 80  1  0
 32 81  1  0
 32 82  1  0
M  END
>  <meeko>  (7) 
{"is_sidechain": [false], "intermolecular_energy": 2.731, "internal_energy": -0.839}

$$$$
EPH_relaxed_0001_pdb2pqr_Repair_125_r2_0001_out
     RDKit          3D

 82 86  0  0  0  0  0  0  0  0999 V2000
    3.9870   17.3950    0.7470 C   0  0  0  0  0  0  0  0  0  0  0  0
    3.7930   16.5620   -0.5230 C   0  0  2  0  0  0  0  0  0  0  0  0
    3.6970   17.4420   -1.7850 C   0  0  0  0  0  0  0  0  0  0  0  0
    3.0600   18.8120   -1.5340 C   0  0  0  0  0  0  0  0  0  0  0  0
    1.6570   18.8760   -2.0580 C   0  0  2  0  0  0  0  0  0  0  0  0
    1.2040   20.1930   -2.3960 O   0  0  0  0  0  0  0  0  0  0  0  0
    0.5160   19.5440   -1.3140 C   0  0  0  0  0  0  0  0  0  0  0  0
    0.7270   20.1940    0.0170 C   0  0  0  0  0  0  0  0  0  0  0  0
   -0.8870   19.1430   -1.6470 C   0  0  0  0  0  0  0  0  0  0  0  0
    2.5430   15.7000   -0.3930 C   0  0  1  0  0  0  0  0  0  0  0  0
    1.2420   16.5420   -0.3030 C   0  0  0  0  0  0  0  0  0  0  0  0
    0.1380   15.7390   -1.0370 C   0  0  0  0  0  0  0  0  0  0  0  0
    0.7440   14.3300   -1.2320 C   0  0  1  0  0  0  0  0  0  0  0  0
    0.5340   13.6100    0.1360 C   0  0  0  0  0  0  0  0  0  0  0  0
    0.1720   13.4900   -2.4200 C   0  0  2  0  0  0  0  0  0  0  0  0
   -1.3250   13.1480   -2.3160 C   0  0  0  0  0  0  0  0  0  0  0  0
   -1.6380   11.8620   -1.6240 C   0  0  0  0  0  0  0  0  0  0  0  0
   -0.7560   10.8810   -1.3600 C   0  0  0  0  0  0  0  0  0  0  0  0
    0.6930   10.9700   -1.8550 C   0  0  1  0  0  0  0  0  0  0  0  0
    1.1060    9.6180   -2.4940 C   0  0  0  0  0  0  0  0  0  0  0  0
    0.8820    8.4360   -1.5570 C   0  0  0  0  0  0  0  0  0  0  0  0
   -0.5820    8.3460   -1.1320 C   0  0  2  0  0  0  0  0  0  0  0  0
   -1.3750    8.0210   -2.2780 O   0  0  0  0  0  0  0  0  0  0  0  0
   -1.1130    9.6550   -0.4840 C   0  0  0  0  0  0  0  0  0  0  0  0
   -0.4620    9.8470    0.9090 C   0  0  0  0  0  0  0  0  0  0  0  0
   -2.6350    9.4800   -0.2320 C   0  0  0  0  0  0  0  0  0  0  0  0
    1.0330   12.2130   -2.7860 C   0  0  1  0  0  0  0  0  0  0  0  0
    0.7100   11.8700   -4.2720 C   0  0  0  0  0  0  0  0  0  0  0  0
    2.5800   12.4970   -2.7210 C   0  0  0  0  0  0  0  0  0  0  0  0
    3.0690   13.4300   -1.5970 C   0  0  0  0  0  0  0  0  0  0  0  0
    2.2350   14.7140   -1.5480 C   0  0  2  0  0  0  0  0  0  0  0  0
    2.4440   15.4710   -2.9040 C   0  0  0  0  0  0  0  0  0  0  0  0
    3.8383   16.7567    1.6304 H   0  0  0  0  0  0  0  0  0  0  0  0
    5.0058   17.8097    0.7615 H   0  0  0  0  0  0  0  0  0  0  0  0
    3.2563   18.2171    0.7615 H   0  0  0  0  0  0  0  0  0  0  0  0
    4.6782   15.9187   -0.6355 H   0  0  0  0  0  0  0  0  0  0  0  0
    4.7127   17.5981   -2.1775 H   0  0  0  0  0  0  0  0  0  0  0  0
    3.0482   16.9118   -2.4977 H   0  0  0  0  0  0  0  0  0  0  0  0
    3.0452   19.0051   -0.4512 H   0  0  0  0  0  0  0  0  0  0  0  0
    3.6578   19.5697   -2.0617 H   0  0  0  0  0  0  0  0  0  0  0  0
    1.7570   17.8804   -2.5149 H   0  0  0  0  0  0  0  0  0  0  0  0
    0.4939   19.4758    0.8169 H   0  0  0  0  0  0  0  0  0  0  0  0
    1.7754   20.5147    0.1063 H   0  0  0  0  0  0  0  0  0  0  0  0
    0.0669   21.0694    0.1063 H   0  0  0  0  0  0  0  0  0  0  0  0
   -1.4526   18.9814   -0.7175 H   0  0  0  0  0  0  0  0  0  0  0  0
   -1.3666   19.9400   -2.2341 H   0  0  0  0  0  0  0  0  0  0  0  0
   -0.8730   18.2129   -2.2341 H   0  0  0  0  0  0  0  0  0  0  0  0
    2.7990   15.1426    0.5201 H   0  0  0  0  0  0  0  0  0  0  0  0
    0.9622   16.6956    0.7497 H   0  0  0  0  0  0  0  0  0  0  0  0
    1.3802   17.5327   -0.7607 H   0  0  0  0  0  0  0  0  0  0  0  0
   -0.7756   15.6876   -0.4265 H   0  0  0  0  0  0  0  0  0  0  0  0
   -0.1513   16.2041   -1.9909 H   0  0  0  0  0  0  0  0  0  0  0  0
    0.7393   14.3138    0.9561 H   0  0  0  0  0  0  0  0  0  0  0  0
   -0.5049   13.2558    0.2082 H   0  0  0  0  0  0  0  0  0  0  0  0
    1.2195   12.7528    0.2082 H   0  0  0  0  0  0  0  0  0  0  0  0
    0.2612   14.1874   -3.2659 H   0  0  0  0  0  0  0  0  0  0  0  0
   -1.8220   13.9603   -1.7653 H   0  0  0  0  0  0  0  0  0  0  0  0
   -1.6839   13.0332   -3.3494 H   0  0  0  0  0  0  0  0  0  0  0  0
   -2.6781   11.7035   -1.3029 H   0  0  0  0  0  0  0  0  0  0  0  0
    1.3070   11.1651   -0.9634 H   0  0  0  0  0  0  0  0  0  0  0  0
    0.5110    9.4627   -3.4061 H   0  0  0  0  0  0  0  0  0  0  0  0
    2.1821    9.6686   -2.7164 H   0  0  0  0  0  0  0  0  0  0  0  0
    1.1642    7.5075   -2.0750 H   0  0  0  0  0  0  0  0  0  0  0  0
    1.5002    8.5784   -0.6584 H   0  0  0  0  0  0  0  0  0  0  0  0
   -0.6550    7.5630   -0.3628 H   0  0  0  0  0  0  0  0  0  0  0  0
   -1.8850    7.2210   -2.0640 H   0  0  0  0  0  0  0  0  0  0  0  0
   -1.2022    9.6287    1.6929 H   0  0  0  0  0  0  0  0  0  0  0  0
    0.3932    9.1628    1.0115 H   0  0  0  0  0  0  0  0  0  0  0  0
   -0.1149   10.8858    1.0115 H   0  0  0  0  0  0  0  0  0  0  0  0
   -2.8272    9.4579    0.8509 H   0  0  0  0  0  0  0  0  0  0  0  0
   -3.1806   10.3213   -0.6842 H   0  0  0  0  0  0  0  0  0  0  0  0
   -2.9755    8.5368   -0.6842 H   0  0  0  0  0  0  0  0  0  0  0  0
   -0.0437   11.0696   -4.3081 H   0  0  0  0  0  0  0  0  0  0  0  0
    0.3190   12.7649   -4.7782 H   0  0  0  0  0  0  0  0  0  0  0  0
    1.6268   11.5334   -4.7782 H   0  0  0  0  0  0  0  0  0  0  0  0
    3.0907   11.5307   -2.5969 H   0  0  0  0  0  0  0  0  0  0  0  0
    2.8147   13.0261   -3.6564 H   0  0  0  0  0  0  0  0  0  0  0  0
    2.9824   12.9077   -0.6328 H   0  0  0  0  0  0  0  0  0  0  0  0
    4.1166   13.6998   -1.7963 H   0  0  0  0  0  0  0  0  0  0  0  0
    2.7317   16.5132   -2.7015 H   0  0  0  0  0  0  0  0  0  0  0  0
    3.2392   14.9766   -3.4812 H   0  0  0  0  0  0  0  0  0  0  0  0
    1.5077   15.4546   -3.4812 H   0  0  0  0  0  0  0  0  0  0  0  0
  1  2  1  0
  2  3  1  0
  3  4  1  0
  4  5  1  0
  5  6  1  0
  6  7  1  0
  7  8  1  0
  7  9  1  0
  2 10  1  0
 10 11  1  0
 11 12  1  0
 12 13  1  0
 13 14  1  1
 13 15  1  0
 15 16  1  0
 16 17  1  0
 17 18  2  0
 18 19  1  0
 19 20  1  0
 20 21  1  0
 21 22  1  0
 22 23  1  0
 22 24  1  0
 24 25  1  0
 24 26  1  0
 19 27  1  0
 27 28  1  6
 27 29  1  0
 29 30  1  0
 30 31  1  0
 31 32  1  6
  7  5  1  0
 31 10  1  0
 31 13  1  0
 27 15  1  0
 24 18  1  0
  1 33  1  0
  1 34  1  0
  1 35  1  0
  2 36  1  6
  3 37  1  0
  3 38  1  0
  4 39  1  0
  4 40  1  0
  5 41  1  6
  8 42  1  0
  8 43  1  0
  8 44  1  0
  9 45  1  0
  9 46  1  0
  9 47  1  0
 10 48  1  1
 11 49  1  0
 11 50  1  0
 12 51  1  0
 12 52  1  0
 14 53  1  0
 14 54  1  0
 14 55  1  0
 15 56  1  6
 16 57  1  0
 16 58  1  0
 17 59  1  0
 19 60  1  1
 20 61  1  0
 20 62  1  0
 21 63  1  0
 21 64  1  0
 22 65  1  1
 23 66  1  0
 25 67  1  0
 25 68  1  0
 25 69  1  0
 26 70  1  0
 26 71  1  0
 26 72  1  0
 28 73  1  0
 28 74  1  0
 28 75  1  0
 29 76  1  0
 29 77  1  0
 30 78  1  0
 30 79  1  0
 32 80  1  0
 32 81  1  0
 32 82  1  0
M  END
>  <meeko>  (8) 
{"is_sidechain": [false], "intermolecular_energy": 2.731, "internal_energy": -0.839}

$$$$
EPH_relaxed_0001_pdb2pqr_Repair_125_r2_0001_out
     RDKit          3D

 82 86  0  0  0  0  0  0  0  0999 V2000
    3.0250   18.3890   -0.7450 C   0  0  0  0  0  0  0  0  0  0  0  0
    2.8210   17.8840   -2.1760 C   0  0  2  0  0  0  0  0  0  0  0  0
    1.4870   18.3700   -2.7780 C   0  0  0  0  0  0  0  0  0  0  0  0
    0.7920   19.4490   -1.9440 C   0  0  0  0  0  0  0  0  0  0  0  0
   -0.4680   18.9360   -1.3130 C   0  0  2  0  0  0  0  0  0  0  0  0
   -1.2910   19.9450   -0.7150 O   0  0  0  0  0  0  0  0  0  0  0  0
   -0.7300   18.9720    0.1810 C   0  0  0  0  0  0  0  0  0  0  0  0
    0.2760   19.5330    1.1360 C   0  0  0  0  0  0  0  0  0  0  0  0
   -1.7390   18.0260    0.7530 C   0  0  0  0  0  0  0  0  0  0  0  0
    2.8800   16.3610   -2.2020 C   0  0  1  0  0  0  0  0  0  0  0  0
    4.3300   15.8180   -2.0910 C   0  0  0  0  0  0  0  0  0  0  0  0
    4.2520   14.5010   -1.2750 C   0  0  0  0  0  0  0  0  0  0  0  0
    2.7450   14.1580   -1.2310 C   0  0  1  0  0  0  0  0  0  0  0  0
    2.4490   13.4740   -2.6020 C   0  0  0  0  0  0  0  0  0  0  0  0
    2.2730   13.2740   -0.0310 C   0  0  2  0  0  0  0  0  0  0  0  0
    2.8900   11.8660    0.0260 C   0  0  0  0  0  0  0  0  0  0  0  0
    2.1250   10.8050   -0.6930 C   0  0  0  0  0  0  0  0  0  0  0  0
    0.8510   10.9090   -1.1140 C   0  0  0  0  0  0  0  0  0  0  0  0
    0.0130   12.1520   -0.7910 C   0  0  1  0  0  0  0  0  0  0  0  0
   -1.3860   11.7160   -0.2810 C   0  0  0  0  0  0  0  0  0  0  0  0
   -2.0930   10.7720   -1.2480 C   0  0  0  0  0  0  0  0  0  0  0  0
   -1.2550    9.5210   -1.4990 C   0  0  2  0  0  0  0  0  0  0  0  0
   -1.1810    8.7650   -0.2870 O   0  0  0  0  0  0  0  0  0  0  0  0
    0.1800    9.8360   -2.0070 C   0  0  0  0  0  0  0  0  0  0  0  0
    0.1110   10.3820   -3.4550 C   0  0  0  0  0  0  0  0  0  0  0  0
    0.9630    8.4980   -2.0850 C   0  0  0  0  0  0  0  0  0  0  0  0
    0.7020   13.2250    0.1590 C   0  0  1  0  0  0  0  0  0  0  0  0
    0.4460   12.8560    1.6520 C   0  0  0  0  0  0  0  0  0  0  0  0
    0.0270   14.6270   -0.0750 C   0  0  0  0  0  0  0  0  0  0  0  0
    0.6150   15.5040   -1.1960 C   0  0  0  0  0  0  0  0  0  0  0  0
    2.1390   15.6000   -1.0750 C   0  0  2  0  0  0  0  0  0  0  0  0
    2.4670   16.3050    0.2860 C   0  0  0  0  0  0  0  0  0  0  0  0
    2.7108   17.6112   -0.0334 H   0  0  0  0  0  0  0  0  0  0  0  0
    4.0881   18.6229   -0.5868 H   0  0  0  0  0  0  0  0  0  0  0  0
    2.4226   19.2957   -0.5868 H   0  0  0  0  0  0  0  0  0  0  0  0
    3.6320   18.2984   -2.7929 H   0  0  0  0  0  0  0  0  0  0  0  0
    1.6867   18.7799   -3.7791 H   0  0  0  0  0  0  0  0  0  0  0  0
    0.8122   17.5018   -2.8067 H   0  0  0  0  0  0  0  0  0  0  0  0
    1.4773   19.7834   -1.1512 H   0  0  0  0  0  0  0  0  0  0  0  0
    0.5267   20.2814   -2.6124 H   0  0  0  0  0  0  0  0  0  0  0  0
   -0.5384   18.1270   -2.0550 H   0  0  0  0  0  0  0  0  0  0  0  0
   -0.0556   19.3481    2.1684 H   0  0  0  0  0  0  0  0  0  0  0  0
    1.2490   19.0473    0.9708 H   0  0  0  0  0  0  0  0  0  0  0  0
    0.3742   20.6161    0.9708 H   0  0  0  0  0  0  0  0  0  0  0  0
   -1.6970   18.0653    1.8515 H   0  0  0  0  0  0  0  0  0  0  0  0
   -2.7451   18.3139    0.4139 H   0  0  0  0  0  0  0  0  0  0  0  0
   -1.5165   17.0035    0.4139 H   0  0  0  0  0  0  0  0  0  0  0  0
    2.3869   16.1742   -3.1674 H   0  0  0  0  0  0  0  0  0  0  0  0
    4.7381   15.6194   -3.0930 H   0  0  0  0  0  0  0  0  0  0  0  0
    4.9895   16.5489   -1.6002 H   0  0  0  0  0  0  0  0  0  0  0  0
    4.8180   13.7007   -1.7743 H   0  0  0  0  0  0  0  0  0  0  0  0
    4.6852   14.6071   -0.2695 H   0  0  0  0  0  0  0  0  0  0  0  0
    2.0176   12.4771   -2.4288 H   0  0  0  0  0  0  0  0  0  0  0  0
    1.7361   14.0881   -3.1718 H   0  0  0  0  0  0  0  0  0  0  0  0
    3.3847   13.3747   -3.1718 H   0  0  0  0  0  0  0  0  0  0  0  0
    2.6833   13.8141    0.8349 H   0  0  0  0  0  0  0  0  0  0  0  0
    3.8962   11.9177   -0.4154 H   0  0  0  0  0  0  0  0  0  0  0  0
    2.8887   11.5759    1.0871 H   0  0  0  0  0  0  0  0  0  0  0  0
    2.6466    9.8580   -0.8959 H   0  0  0  0  0  0  0  0  0  0  0  0
   -0.0903   12.7032   -1.7373 H   0  0  0  0  0  0  0  0  0  0  0  0
   -1.2654   11.2051    0.6857 H   0  0  0  0  0  0  0  0  0  0  0  0
   -2.0039   12.6211   -0.1863 H   0  0  0  0  0  0  0  0  0  0  0  0
   -3.0618   10.4764   -0.8190 H   0  0  0  0  0  0  0  0  0  0  0  0
   -2.2397   11.2944   -2.2048 H   0  0  0  0  0  0  0  0  0  0  0  0
   -1.7504    8.9468   -2.2958 H   0  0  0  0  0  0  0  0  0  0  0  0
   -1.1380    7.8240   -0.5290 H   0  0  0  0  0  0  0  0  0  0  0  0
   -0.0269   11.4730   -3.4293 H   0  0  0  0  0  0  0  0  0  0  0  0
    1.0465   10.1430   -3.9820 H   0  0  0  0  0  0  0  0  0  0  0  0
   -0.7356    9.9177   -3.9820 H   0  0  0  0  0  0  0  0  0  0  0  0
    1.1743    8.1370   -1.0676 H   0  0  0  0  0  0  0  0  0  0  0  0
    0.3596    7.7508   -2.6213 H   0  0  0  0  0  0  0  0  0  0  0  0
    1.9100    8.6581   -2.6213 H   0  0  0  0  0  0  0  0  0  0  0  0
    0.9519   13.5852    2.3019 H   0  0  0  0  0  0  0  0  0  0  0  0
   -0.6352   12.8732    1.8538 H   0  0  0  0  0  0  0  0  0  0  0  0
    0.8407   11.8493    1.8538 H   0  0  0  0  0  0  0  0  0  0  0  0
   -1.0325   14.4505   -0.3121 H   0  0  0  0  0  0  0  0  0  0  0  0
    0.2050   15.1899    0.8532 H   0  0  0  0  0  0  0  0  0  0  0  0
    0.3585   15.0624   -2.1703 H   0  0  0  0  0  0  0  0  0  0  0  0
    0.1919   16.5156   -1.1083 H   0  0  0  0  0  0  0  0  0  0  0  0
    2.1639   15.6535    1.1188 H   0  0  0  0  0  0  0  0  0  0  0  0
    3.5480   16.4993    0.3471 H   0  0  0  0  0  0  0  0  0  0  0  0
    1.9193   17.2570    0.3471 H   0  0  0  0  0  0  0  0  0  0  0  0
  1  2  1  0
  2  3  1  0
  3  4  1  0
  4  5  1  0
  5  6  1  0
  6  7  1  0
  7  8  1  0
  7  9  1  0
  2 10  1  0
 10 11  1  0
 11 12  1  0
 12 13  1  0
 13 14  1  6
 13 15  1  0
 15 16  1  0
 16 17  1  0
 17 18  2  0
 18 19  1  0
 19 20  1  0
 20 21  1  0
 21 22  1  0
 22 23  1  0
 22 24  1  0
 24 25  1  0
 24 26  1  0
 19 27  1  0
 27 28  1  1
 27 29  1  0
 29 30  1  0
 30 31  1  0
 31 32  1  1
  7  5  1  0
 31 10  1  0
 31 13  1  0
 27 15  1  0
 24 18  1  0
  1 33  1  0
  1 34  1  0
  1 35  1  0
  2 36  1  6
  3 37  1  0
  3 38  1  0
  4 39  1  0
  4 40  1  0
  5 41  1  6
  8 42  1  0
  8 43  1  0
  8 44  1  0
  9 45  1  0
  9 46  1  0
  9 47  1  0
 10 48  1  6
 11 49  1  0
 11 50  1  0
 12 51  1  0
 12 52  1  0
 14 53  1  0
 14 54  1  0
 14 55  1  0
 15 56  1  1
 16 57  1  0
 16 58  1  0
 17 59  1  0
 19 60  1  6
 20 61  1  0
 20 62  1  0
 21 63  1  0
 21 64  1  0
 22 65  1  6
 23 66  1  0
 25 67  1  0
 25 68  1  0
 25 69  1  0
 26 70  1  0
 26 71  1  0
 26 72  1  0
 28 73  1  0
 28 74  1  0
 28 75  1  0
 29 76  1  0
 29 77  1  0
 30 78  1  0
 30 79  1  0
 32 80  1  0
 32 81  1  0
 32 82  1  0
M  END
>  <meeko>  (9) 
{"is_sidechain": [false], "intermolecular_energy": 2.731, "internal_energy": -0.839}

$$$$
EPH_relaxed_0001_pdb2pqr_Repair_125_r2_0001_out
     RDKit          3D

 82 86  0  0  0  0  0  0  0  0999 V2000
    2.1770   19.8660   -0.0990 C   0  0  0  0  0  0  0  0  0  0  0  0
    2.4370   19.2250   -1.4650 C   0  0  2  0  0  0  0  0  0  0  0  0
    1.1970   19.2870   -2.3810 C   0  0  0  0  0  0  0  0  0  0  0  0
    0.0840   20.1930   -1.8490 C   0  0  0  0  0  0  0  0  0  0  0  0
   -1.1130   19.4030   -1.4120 C   0  0  2  0  0  0  0  0  0  0  0  0
   -2.2420   20.1940   -1.0180 O   0  0  0  0  0  0  0  0  0  0  0  0
   -1.6360   19.3950    0.0120 C   0  0  0  0  0  0  0  0  0  0  0  0
   -0.9740   20.1940    1.0910 C   0  0  0  0  0  0  0  0  0  0  0  0
   -2.4830   18.2440    0.4570 C   0  0  0  0  0  0  0  0  0  0  0  0
    2.8800   17.7780   -1.2850 C   0  0  1  0  0  0  0  0  0  0  0  0
    3.7680   17.5780   -0.0290 C   0  0  0  0  0  0  0  0  0  0  0  0
    3.4270   16.1770    0.5420 C   0  0  0  0  0  0  0  0  0  0  0  0
    2.6090   15.4890   -0.5770 C   0  0  1  0  0  0  0  0  0  0  0  0
    3.6760   14.9570   -1.5840 C   0  0  0  0  0  0  0  0  0  0  0  0
    1.6310   14.3580   -0.1210 C   0  0  2  0  0  0  0  0  0  0  0  0
    2.3030   13.1390    0.5350 C   0  0  0  0  0  0  0  0  0  0  0  0
    2.6880   12.0420   -0.4010 C   0  0  0  0  0  0  0  0  0  0  0  0
    2.2530   11.9050   -1.6670 C   0  0  0  0  0  0  0  0  0  0  0  0
    1.2010   12.8600   -2.2460 C   0  0  1  0  0  0  0  0  0  0  0  0
    0.1090   12.0420   -2.9830 C   0  0  0  0  0  0  0  0  0  0  0  0
    0.6910   11.1070   -4.0380 C   0  0  0  0  0  0  0  0  0  0  0  0
    1.6880   10.1340   -3.4140 C   0  0  2  0  0  0  0  0  0  0  0  0
    0.9830    9.2510   -2.5360 O   0  0  0  0  0  0  0  0  0  0  0  0
    2.8310   10.8440   -2.6350 C   0  0  0  0  0  0  0  0  0  0  0  0
    3.7740   11.5600   -3.6330 C   0  0  0  0  0  0  0  0  0  0  0  0
    3.6840    9.7510   -1.9390 C   0  0  0  0  0  0  0  0  0  0  0  0
    0.5890   13.9170   -1.2280 C   0  0  1  0  0  0  0  0  0  0  0  0
   -0.6230   13.2900   -0.4740 C   0  0  0  0  0  0  0  0  0  0  0  0
    0.0230   15.1420   -2.0380 C   0  0  0  0  0  0  0  0  0  0  0  0
    1.0090   16.2830   -2.3540 C   0  0  0  0  0  0  0  0  0  0  0  0
    1.7710   16.7130   -1.0960 C   0  0  2  0  0  0  0  0  0  0  0  0
    0.7250   17.2740   -0.0730 C   0  0  0  0  0  0  0  0  0  0  0  0
    2.4625   19.1621    0.6966 H   0  0  0  0  0  0  0  0  0  0  0  0
    2.7731   20.7858   -0.0061 H   0  0  0  0  0  0  0  0  0  0  0  0
    1.1086   20.1106   -0.0061 H   0  0  0  0  0  0  0  0  0  0  0  0
    3.2374   19.8002   -1.9533 H   0  0  0  0  0  0  0  0  0  0  0  0
    1.5110   19.6641   -3.3655 H   0  0  0  0  0  0  0  0  0  0  0  0
    0.7849   18.2685   -2.4337 H   0  0  0  0  0  0  0  0  0  0  0  0
    0.4681   20.7626   -0.9900 H   0  0  0  0  0  0  0  0  0  0  0  0
   -0.2275   20.8664   -2.6611 H   0  0  0  0  0  0  0  0  0  0  0  0
   -0.8604   18.5909   -2.1096 H   0  0  0  0  0  0  0  0  0  0  0  0
   -1.2888   19.8141    2.0741 H   0  0  0  0  0  0  0  0  0  0  0  0
    0.1182   20.1045    0.9959 H   0  0  0  0  0  0  0  0  0  0  0  0
   -1.2650   21.2505    0.9959 H   0  0  0  0  0  0  0  0  0  0  0  0
   -2.5077   18.2104    1.5562 H   0  0  0  0  0  0  0  0  0  0  0  0
   -3.5053   18.3702    0.0709 H   0  0  0  0  0  0  0  0  0  0  0  0
   -2.0585   17.3055    0.0709 H   0  0  0  0  0  0  0  0  0  0  0  0
    3.3925   17.6209   -2.2456 H   0  0  0  0  0  0  0  0  0  0  0  0
    4.8316   17.6256   -0.3056 H   0  0  0  0  0  0  0  0  0  0  0  0
    3.5802   18.3646    0.7166 H   0  0  0  0  0  0  0  0  0  0  0  0
    4.3454   15.6107    0.7561 H   0  0  0  0  0  0  0  0  0  0  0  0
    2.8711   16.2362    1.4893 H   0  0  0  0  0  0  0  0  0  0  0  0
    4.5256   14.5334   -1.0283 H   0  0  0  0  0  0  0  0  0  0  0  0
    3.2265   14.1775   -2.2167 H   0  0  0  0  0  0  0  0  0  0  0  0
    4.0280   15.7851   -2.2167 H   0  0  0  0  0  0  0  0  0  0  0  0
    1.0585   14.8500    0.6791 H   0  0  0  0  0  0  0  0  0  0  0  0
    3.2140   13.4864    1.0444 H   0  0  0  0  0  0  0  0  0  0  0  0
    1.5539   12.7087    1.2160 H   0  0  0  0  0  0  0  0  0  0  0  0
    3.3868   11.2808   -0.0238 H   0  0  0  0  0  0  0  0  0  0  0  0
    1.7343   13.5014   -2.9630 H   0  0  0  0  0  0  0  0  0  0  0  0
   -0.4405   11.4409   -2.2436 H   0  0  0  0  0  0  0  0  0  0  0  0
   -0.5524   12.7550   -3.4970 H   0  0  0  0  0  0  0  0  0  0  0  0
   -0.1261   10.5362   -4.5033 H   0  0  0  0  0  0  0  0  0  0  0  0
    1.2157   11.7118   -4.7923 H   0  0  0  0  0  0  0  0  0  0  0  0
    2.1657    9.5792   -4.2350 H   0  0  0  0  0  0  0  0  0  0  0  0
    1.1620    9.5390   -1.6250 H   0  0  0  0  0  0  0  0  0  0  0  0
    4.5296   12.1337   -3.0763 H   0  0  0  0  0  0  0  0  0  0  0  0
    4.2742   10.8121   -4.2658 H   0  0  0  0  0  0  0  0  0  0  0  0
    3.1880   12.2428   -4.2658 H   0  0  0  0  0  0  0  0  0  0  0  0
    3.5993    9.8595   -0.8476 H   0  0  0  0  0  0  0  0  0  0  0  0
    3.3207    8.7567   -2.2379 H   0  0  0  0  0  0  0  0  0  0  0  0
    4.7368    9.8618   -2.2379 H   0  0  0  0  0  0  0  0  0  0  0  0
   -0.4626   13.3730    0.6111 H   0  0  0  0  0  0  0  0  0  0  0  0
   -1.5435   13.8250   -0.7505 H   0  0  0  0  0  0  0  0  0  0  0  0
   -0.7181   12.2296   -0.7505 H   0  0  0  0  0  0  0  0  0  0  0  0
   -0.3603   14.7591   -2.9953 H   0  0  0  0  0  0  0  0  0  0  0  0
   -0.7374   15.5926   -1.3832 H   0  0  0  0  0  0  0  0  0  0  0  0
    1.7290   15.9373   -3.1104 H   0  0  0  0  0  0  0  0  0  0  0  0
    0.4390   17.1450   -2.7308 H   0  0  0  0  0  0  0  0  0  0  0  0
    1.0769   17.0853    0.9520 H   0  0  0  0  0  0  0  0  0  0  0  0
    0.6064   18.3568   -0.2264 H   0  0  0  0  0  0  0  0  0  0  0  0
   -0.2426   16.7738   -0.2264 H   0  0  0  0  0  0  0  0  0  0  0  0
  1  2  1  0
  2  3  1  0
  3  4  1  0
  4  5  1  0
  5  6  1  0
  6  7  1  0
  7  8  1  0
  7  9  1  0
  2 10  1  0
 10 11  1  0
 11 12  1  0
 12 13  1  0
 13 14  1  6
 13 15  1  0
 15 16  1  0
 16 17  1  0
 17 18  2  0
 18 19  1  0
 19 20  1  0
 20 21  1  0
 21 22  1  0
 22 23  1  0
 22 24  1  0
 24 25  1  0
 24 26  1  0
 19 27  1  0
 27 28  1  1
 27 29  1  0
 29 30  1  0
 30 31  1  0
 31 32  1  1
  7  5  1  0
 31 10  1  0
 31 13  1  0
 27 15  1  0
 24 18  1  0
  1 33  1  0
  1 34  1  0
  1 35  1  0
  2 36  1  6
  3 37  1  0
  3 38  1  0
  4 39  1  0
  4 40  1  0
  5 41  1  6
  8 42  1  0
  8 43  1  0
  8 44  1  0
  9 45  1  0
  9 46  1  0
  9 47  1  0
 10 48  1  6
 11 49  1  0
 11 50  1  0
 12 51  1  0
 12 52  1  0
 14 53  1  0
 14 54  1  0
 14 55  1  0
 15 56  1  1
 16 57  1  0
 16 58  1  0
 17 59  1  0
 19 60  1  6
 20 61  1  0
 20 62  1  0
 21 63  1  0
 21 64  1  0
 22 65  1  6
 23 66  1  0
 25 67  1  0
 25 68  1  0
 25 69  1  0
 26 70  1  0
 26 71  1  0
 26 72  1  0
 28 73  1  0
 28 74  1  0
 28 75  1  0
 29 76  1  0
 29 77  1  0
 30 78  1  0
 30 79  1  0
 32 80  1  0
 32 81  1  0
 32 82  1  0
M  END
>  <meeko>  (10) 
{"is_sidechain": [false], "intermolecular_energy": 2.731, "internal_energy": -0.839}

$$$$
EPH_relaxed_0001_pdb2pqr_Repair_125_r2_0001_out
     RDKit          3D

 82 86  0  0  0  0  0  0  0  0999 V2000
   -0.0270   17.9510   -2.2030 C   0  0  0  0  0  0  0  0  0  0  0  0
    0.1060   17.1240   -0.9210 C   0  0  2  0  0  0  0  0  0  0  0  0
    0.3210   18.0110    0.3220 C   0  0  0  0  0  0  0  0  0  0  0  0
    1.2230   19.2220    0.0660 C   0  0  0  0  0  0  0  0  0  0  0  0
    2.2300   19.4040    1.1610 C   0  0  2  0  0  0  0  0  0  0  0  0
    3.3720   20.1910    0.7980 O   0  0  0  0  0  0  0  0  0  0  0  0
    3.6270   18.8140    1.1190 C   0  0  0  0  0  0  0  0  0  0  0  0
    4.0940   17.9950   -0.0440 C   0  0  0  0  0  0  0  0  0  0  0  0
    4.3620   18.6210    2.4090 C   0  0  0  0  0  0  0  0  0  0  0  0
    1.2560   16.1330   -1.0580 C   0  0  1  0  0  0  0  0  0  0  0  0
    1.9260   15.8040    0.3020 C   0  0  0  0  0  0  0  0  0  0  0  0
    2.3560   14.3160    0.2400 C   0  0  0  0  0  0  0  0  0  0  0  0
    2.2240   13.9330   -1.2520 C   0  0  1  0  0  0  0  0  0  0  0  0
    3.5280   14.4680   -1.9210 C   0  0  0  0  0  0  0  0  0  0  0  0
    1.9980   12.4170   -1.5600 C   0  0  2  0  0  0  0  0  0  0  0  0
    3.1420   11.4850   -1.1240 C   0  0  0  0  0  0  0  0  0  0  0  0
    4.1980   11.2480   -2.1530 C   0  0  0  0  0  0  0  0  0  0  0  0
    4.0880   11.5270   -3.4650 C   0  0  0  0  0  0  0  0  0  0  0  0
    2.7700   12.0500   -4.0520 C   0  0  1  0  0  0  0  0  0  0  0  0
    2.4350   11.2700   -5.3500 C   0  0  0  0  0  0  0  0  0  0  0  0
    3.5770   11.2990   -6.3610 C   0  0  0  0  0  0  0  0  0  0  0  0
    4.8540   10.7180   -5.7600 C   0  0  2  0  0  0  0  0  0  0  0  0
    4.6560    9.3210   -5.5200 O   0  0  0  0  0  0  0  0  0  0  0  0
    5.2850   11.4190   -4.4420 C   0  0  0  0  0  0  0  0  0  0  0  0
    5.7880   12.8500   -4.7540 C   0  0  0  0  0  0  0  0  0  0  0  0
    6.5030   10.6470   -3.8660 C   0  0  0  0  0  0  0  0  0  0  0  0
    1.5420   12.1170   -3.0450 C   0  0  1  0  0  0  0  0  0  0  0  0
    0.8020   10.7450   -3.0160 C   0  0  0  0  0  0  0  0  0  0  0  0
    0.5000   13.1720   -3.5760 C   0  0  0  0  0  0  0  0  0  0  0  0
    0.7090   14.6350   -3.1400 C   0  0  0  0  0  0  0  0  0  0  0  0
    0.9210   14.7310   -1.6260 C   0  0  2  0  0  0  0  0  0  0  0  0
   -0.3840   14.2200   -0.9260 C   0  0  0  0  0  0  0  0  0  0  0  0
   -0.1967   19.0062   -1.9427 H   0  0  0  0  0  0  0  0  0  0  0  0
    0.8968   17.8630   -2.7936 H   0  0  0  0  0  0  0  0  0  0  0  0
   -0.8767   17.5778   -2.7936 H   0  0  0  0  0  0  0  0  0  0  0  0
   -0.8391   16.5793   -0.7793 H   0  0  0  0  0  0  0  0  0  0  0  0
   -0.6596   18.3744    0.6631 H   0  0  0  0  0  0  0  0  0  0  0  0
    0.8243   17.3894    1.0772 H   0  0  0  0  0  0  0  0  0  0  0  0
    1.7541   19.0761   -0.8862 H   0  0  0  0  0  0  0  0  0  0  0  0
    0.5892   20.1203    0.0300 H   0  0  0  0  0  0  0  0  0  0  0  0
    1.4397   19.3748    1.9256 H   0  0  0  0  0  0  0  0  0  0  0  0
    4.6074   17.0946    0.3243 H   0  0  0  0  0  0  0  0  0  0  0  0
    3.2286   17.6995   -0.6554 H   0  0  0  0  0  0  0  0  0  0  0  0
    4.7891   18.5892   -0.6554 H   0  0  0  0  0  0  0  0  0  0  0  0
    3.6777   18.8007    3.2513 H   0  0  0  0  0  0  0  0  0  0  0  0
    4.7460   17.5916    2.4617 H   0  0  0  0  0  0  0  0  0  0  0  0
    5.2022   19.3290    2.4617 H   0  0  0  0  0  0  0  0  0  0  0  0
    1.8921   16.6841   -1.7663 H   0  0  0  0  0  0  0  0  0  0  0  0
    2.8055   16.4464    0.4563 H   0  0  0  0  0  0  0  0  0  0  0  0
    1.2321   15.9803    1.1371 H   0  0  0  0  0  0  0  0  0  0  0  0
    3.3952   14.1977    0.5807 H   0  0  0  0  0  0  0  0  0  0  0  0
    1.7408   13.6769    0.8905 H   0  0  0  0  0  0  0  0  0  0  0  0
    4.2459   14.7625   -1.1413 H   0  0  0  0  0  0  0  0  0  0  0  0
    3.9697   13.6784   -2.5467 H   0  0  0  0  0  0  0  0  0  0  0  0
    3.2878   15.3403   -2.5467 H   0  0  0  0  0  0  0  0  0  0  0  0
    1.1463   12.1695   -0.9094 H   0  0  0  0  0  0  0  0  0  0  0  0
    3.6227   11.9276   -0.2391 H   0  0  0  0  0  0  0  0  0  0  0  0
    2.6801   10.5057   -0.9303 H   0  0  0  0  0  0  0  0  0  0  0  0
    5.1459   10.8082   -1.8096 H   0  0  0  0  0  0  0  0  0  0  0  0
    2.9416   13.1104   -4.2889 H   0  0  0  0  0  0  0  0  0  0  0  0
    2.2229   10.2230   -5.0875 H   0  0  0  0  0  0  0  0  0  0  0  0
    1.5644   11.7549   -5.8157 H   0  0  0  0  0  0  0  0  0  0  0  0
    3.2921   10.7061   -7.2426 H   0  0  0  0  0  0  0  0  0  0  0  0
    3.7673   12.3445   -6.6450 H   0  0  0  0  0  0  0  0  0  0  0  0
    5.6654   10.8858   -6.4836 H   0  0  0  0  0  0  0  0  0  0  0  0
    5.5000    8.8710   -5.6890 H   0  0  0  0  0  0  0  0  0  0  0  0
    5.9764   13.3859   -3.8120 H   0  0  0  0  0  0  0  0  0  0  0  0
    6.7198   12.7924   -5.3358 H   0  0  0  0  0  0  0  0  0  0  0  0
    5.0251   13.3881   -5.3358 H   0  0  0  0  0  0  0  0  0  0  0  0
    6.4657   10.6707   -2.7669 H   0  0  0  0  0  0  0  0  0  0  0  0
    6.4722    9.6031   -4.2115 H   0  0  0  0  0  0  0  0  0  0  0  0
    7.4339   11.1203   -4.2115 H   0  0  0  0  0  0  0  0  0  0  0  0
    0.6371   10.4393   -1.9723 H   0  0  0  0  0  0  0  0  0  0  0  0
   -0.1671   10.8402   -3.5276 H   0  0  0  0  0  0  0  0  0  0  0  0
    1.4139    9.9875   -3.5276 H   0  0  0  0  0  0  0  0  0  0  0  0
    0.5297   13.1449   -4.6753 H   0  0  0  0  0  0  0  0  0  0  0  0
   -0.4620   12.8744   -3.1334 H   0  0  0  0  0  0  0  0  0  0  0  0
    1.5931   15.0407   -3.6536 H   0  0  0  0  0  0  0  0  0  0  0  0
   -0.1892   15.2119   -3.4056 H   0  0  0  0  0  0  0  0  0  0  0  0
   -0.2579   14.2694    0.1656 H   0  0  0  0  0  0  0  0  0  0  0  0
   -1.2327   14.8522   -1.2261 H   0  0  0  0  0  0  0  0  0  0  0  0
   -0.5777   13.1796   -1.2261 H   0  0  0  0  0  0  0  0  0  0  0  0
  1  2  1  0
  2  3  1  0
  3  4  1  0
  4  5  1  0
  5  6  1  0
  6  7  1  0
  7  8  1  0
  7  9  1  0
  2 10  1  0
 10 11  1  0
 11 12  1  0
 12 13  1  0
 13 14  1  6
 13 15  1  0
 15 16  1  0
 16 17  1  0
 17 18  2  0
 18 19  1  0
 19 20  1  0
 20 21  1  0
 21 22  1  0
 22 23  1  0
 22 24  1  0
 24 25  1  0
 24 26  1  0
 19 27  1  0
 27 28  1  1
 27 29  1  0
 29 30  1  0
 30 31  1  0
 31 32  1  1
  7  5  1  0
 31 10  1  0
 31 13  1  0
 27 15  1  0
 24 18  1  0
  1 33  1  0
  1 34  1  0
  1 35  1  0
  2 36  1  1
  3 37  1  0
  3 38  1  0
  4 39  1  0
  4 40  1  0
  5 41  1  1
  8 42  1  0
  8 43  1  0
  8 44  1  0
  9 45  1  0
  9 46  1  0
  9 47  1  0
 10 48  1  6
 11 49  1  0
 11 50  1  0
 12 51  1  0
 12 52  1  0
 14 53  1  0
 14 54  1  0
 14 55  1  0
 15 56  1  1
 16 57  1  0
 16 58  1  0
 17 59  1  0
 19 60  1  6
 20 61  1  0
 20 62  1  0
 21 63  1  0
 21 64  1  0
 22 65  1  6
 23 66  1  0
 25 67  1  0
 25 68  1  0
 25 69  1  0
 26 70  1  0
 26 71  1  0
 26 72  1  0
 28 73  1  0
 28 74  1  0
 28 75  1  0
 29 76  1  0
 29 77  1  0
 30 78  1  0
 30 79  1  0
 32 80  1  0
 32 81  1  0
 32 82  1  0
M  END
>  <meeko>  (11) 
{"is_sidechain": [false], "intermolecular_energy": 2.731, "internal_energy": -0.839}

$$$$
EPH_relaxed_0001_pdb2pqr_Repair_125_r2_0001_out
     RDKit          3D

 82 86  0  0  0  0  0  0  0  0999 V2000
   -2.7130    8.4960   -0.8450 C   0  0  0  0  0  0  0  0  0  0  0  0
   -3.0290    9.9800   -0.6390 C   0  0  2  0  0  0  0  0  0  0  0  0
   -4.4230   10.3570   -1.1800 C   0  0  0  0  0  0  0  0  0  0  0  0
   -5.4860    9.2810   -0.9450 C   0  0  0  0  0  0  0  0  0  0  0  0
   -5.8140    8.5410   -2.2070 C   0  0  2  0  0  0  0  0  0  0  0  0
   -7.1320    7.9790   -2.2450 O   0  0  0  0  0  0  0  0  0  0  0  0
   -6.0430    7.0420   -2.2620 C   0  0  0  0  0  0  0  0  0  0  0  0
   -5.9520    6.1930   -1.0330 C   0  0  0  0  0  0  0  0  0  0  0  0
   -5.8720    6.3400   -3.5730 C   0  0  0  0  0  0  0  0  0  0  0  0
   -1.9610   10.8370   -1.3100 C   0  0  1  0  0  0  0  0  0  0  0  0
   -2.1570   12.3530   -1.0440 C   0  0  0  0  0  0  0  0  0  0  0  0
   -0.7410   12.9760   -0.9420 C   0  0  0  0  0  0  0  0  0  0  0  0
    0.2070   11.8780   -1.4780 C   0  0  1  0  0  0  0  0  0  0  0  0
    0.1270   12.0020   -3.0320 C   0  0  0  0  0  0  0  0  0  0  0  0
    1.6850   11.9340   -0.9700 C   0  0  2  0  0  0  0  0  0  0  0  0
    2.4630   13.2020   -1.3620 C   0  0  0  0  0  0  0  0  0  0  0  0
    3.2060   13.1210   -2.6540 C   0  0  0  0  0  0  0  0  0  0  0  0
    3.4830   11.9890   -3.3270 C   0  0  0  0  0  0  0  0  0  0  0  0
    3.1210   10.6170   -2.7440 C   0  0  1  0  0  0  0  0  0  0  0  0
    4.3290    9.6560   -2.8910 C   0  0  0  0  0  0  0  0  0  0  0  0
    4.8320    9.5640   -4.3280 C   0  0  0  0  0  0  0  0  0  0  0  0
    5.2370   10.9390   -4.8530 C   0  0  2  0  0  0  0  0  0  0  0  0
    6.3840   11.3910   -4.1250 O   0  0  0  0  0  0  0  0  0  0  0  0
    4.1010   11.9950   -4.7470 C   0  0  0  0  0  0  0  0  0  0  0  0
    2.9840   11.6610   -5.7660 C   0  0  0  0  0  0  0  0  0  0  0  0
    4.6840   13.3680   -5.1770 C   0  0  0  0  0  0  0  0  0  0  0  0
    2.5240   10.6260   -1.2710 C   0  0  1  0  0  0  0  0  0  0  0  0
    3.6820   10.5900   -0.2270 C   0  0  0  0  0  0  0  0  0  0  0  0
    1.6840    9.3130   -1.0480 C   0  0  0  0  0  0  0  0  0  0  0  0
    0.2000    9.3590   -1.4600 C   0  0  0  0  0  0  0  0  0  0  0  0
   -0.4900   10.6000   -0.8850 C   0  0  2  0  0  0  0  0  0  0  0  0
   -0.4440   10.4930    0.6770 C   0  0  0  0  0  0  0  0  0  0  0  0
   -2.6083    8.0042    0.1333 H   0  0  0  0  0  0  0  0  0  0  0  0
   -3.5303    8.0218   -1.4082 H   0  0  0  0  0  0  0  0  0  0  0  0
   -1.7734    8.3959   -1.4082 H   0  0  0  0  0  0  0  0  0  0  0  0
   -3.0323   10.1705    0.4444 H   0  0  0  0  0  0  0  0  0  0  0  0
   -4.7498   11.2823   -0.6830 H   0  0  0  0  0  0  0  0  0  0  0  0
   -4.3233   10.4779   -2.2688 H   0  0  0  0  0  0  0  0  0  0  0  0
   -5.1099    8.5651   -0.1994 H   0  0  0  0  0  0  0  0  0  0  0  0
   -6.4019    9.7756   -0.5894 H   0  0  0  0  0  0  0  0  0  0  0  0
   -5.1702    9.2110   -2.7958 H   0  0  0  0  0  0  0  0  0  0  0  0
   -6.0205    6.8318   -0.1401 H   0  0  0  0  0  0  0  0  0  0  0  0
   -6.7773    5.4658   -1.0277 H   0  0  0  0  0  0  0  0  0  0  0  0
   -4.9913    5.6573   -1.0277 H   0  0  0  0  0  0  0  0  0  0  0  0
   -5.6152    5.2856   -3.3935 H   0  0  0  0  0  0  0  0  0  0  0  0
   -6.8102    6.3967   -4.1444 H   0  0  0  0  0  0  0  0  0  0  0  0
   -5.0650    6.8218   -4.1444 H   0  0  0  0  0  0  0  0  0  0  0  0
   -2.1058   10.5276   -2.3556 H   0  0  0  0  0  0  0  0  0  0  0  0
   -2.7148   12.8139   -1.8725 H   0  0  0  0  0  0  0  0  0  0  0  0
   -2.7299   12.5210   -0.1201 H   0  0  0  0  0  0  0  0  0  0  0  0
   -0.6710   13.8844   -1.5583 H   0  0  0  0  0  0  0  0  0  0  0  0
   -0.4909   13.2782    0.0857 H   0  0  0  0  0  0  0  0  0  0  0  0
   -0.4515   12.8987   -3.2990 H   0  0  0  0  0  0  0  0  0  0  0  0
    1.1428   12.0843   -3.4460 H   0  0  0  0  0  0  0  0  0  0  0  0
   -0.3666   11.1104   -3.4460 H   0  0  0  0  0  0  0  0  0  0  0  0
    1.5565   11.9878    0.1211 H   0  0  0  0  0  0  0  0  0  0  0  0
    1.7451   14.0323   -1.4344 H   0  0  0  0  0  0  0  0  0  0  0  0
    3.2249   13.3446   -0.5815 H   0  0  0  0  0  0  0  0  0  0  0  0
    3.5568   14.0665   -3.0932 H   0  0  0  0  0  0  0  0  0  0  0  0
    2.2753   10.2463   -3.3417 H   0  0  0  0  0  0  0  0  0  0  0  0
    5.1483   10.0194   -2.2533 H   0  0  0  0  0  0  0  0  0  0  0  0
    3.9956    8.6521   -2.5891 H   0  0  0  0  0  0  0  0  0  0  0  0
    5.7041    8.8944   -4.3620 H   0  0  0  0  0  0  0  0  0  0  0  0
    4.0212    9.1718   -4.9595 H   0  0  0  0  0  0  0  0  0  0  0  0
    5.4637   10.8294   -5.9238 H   0  0  0  0  0  0  0  0  0  0  0  0
    6.2350   12.3230   -3.8920 H   0  0  0  0  0  0  0  0  0  0  0  0
    2.0656   11.3864   -5.2264 H   0  0  0  0  0  0  0  0  0  0  0  0
    2.7891   12.5402   -6.3977 H   0  0  0  0  0  0  0  0  0  0  0  0
    3.3037   10.8192   -6.3977 H   0  0  0  0  0  0  0  0  0  0  0  0
    4.9340   13.9567   -4.2821 H   0  0  0  0  0  0  0  0  0  0  0  0
    5.5923   13.2091   -5.7768 H   0  0  0  0  0  0  0  0  0  0  0  0
    3.9389   13.9111   -5.7768 H   0  0  0  0  0  0  0  0  0  0  0  0
    3.2603   10.6031    0.7889 H   0  0  0  0  0  0  0  0  0  0  0  0
    4.2733    9.6730   -0.3668 H   0  0  0  0  0  0  0  0  0  0  0  0
    4.3291   11.4685   -0.3668 H   0  0  0  0  0  0  0  0  0  0  0  0
    2.1645    8.5087   -1.6243 H   0  0  0  0  0  0  0  0  0  0  0  0
    1.6756    9.1583    0.0410 H   0  0  0  0  0  0  0  0  0  0  0  0
    0.1318    9.3853   -2.5576 H   0  0  0  0  0  0  0  0  0  0  0  0
   -0.3019    8.4636   -1.0647 H   0  0  0  0  0  0  0  0  0  0  0  0
   -0.8417   11.4181    1.1198 H   0  0  0  0  0  0  0  0  0  0  0  0
   -1.0541    9.6382    1.0041 H   0  0  0  0  0  0  0  0  0  0  0  0
    0.5961   10.3476    1.0041 H   0  0  0  0  0  0  0  0  0  0  0  0
  1  2  1  0
  2  3  1  0
  3  4  1  0
  4  5  1  0
  5  6  1  0
  6  7  1  0
  7  8  1  0
  7  9  1  0
  2 10  1  0
 10 11  1  0
 11 12  1  0
 12 13  1  0
 13 14  1  6
 13 15  1  0
 15 16  1  0
 16 17  1  0
 17 18  2  0
 18 19  1  0
 19 20  1  0
 20 21  1  0
 21 22  1  0
 22 23  1  0
 22 24  1  0
 24 25  1  0
 24 26  1  0
 19 27  1  0
 27 28  1  1
 27 29  1  0
 29 30  1  0
 30 31  1  0
 31 32  1  1
  7  5  1  0
 31 10  1  0
 31 13  1  0
 27 15  1  0
 24 18  1  0
  1 33  1  0
  1 34  1  0
  1 35  1  0
  2 36  1  1
  3 37  1  0
  3 38  1  0
  4 39  1  0
  4 40  1  0
  5 41  1  6
  8 42  1  0
  8 43  1  0
  8 44  1  0
  9 45  1  0
  9 46  1  0
  9 47  1  0
 10 48  1  6
 11 49  1  0
 11 50  1  0
 12 51  1  0
 12 52  1  0
 14 53  1  0
 14 54  1  0
 14 55  1  0
 15 56  1  1
 16 57  1  0
 16 58  1  0
 17 59  1  0
 19 60  1  6
 20 61  1  0
 20 62  1  0
 21 63  1  0
 21 64  1  0
 22 65  1  6
 23 66  1  0
 25 67  1  0
 25 68  1  0
 25 69  1  0
 26 70  1  0
 26 71  1  0
 26 72  1  0
 28 73  1  0
 28 74  1  0
 28 75  1  0
 29 76  1  0
 29 77  1  0
 30 78  1  0
 30 79  1  0
 32 80  1  0
 32 81  1  0
 32 82  1  0
M  END
>  <meeko>  (12) 
{"is_sidechain": [false], "intermolecular_energy": 2.731, "internal_energy": -0.839}

$$$$
EPH_relaxed_0001_pdb2pqr_Repair_125_r2_0001_out
     RDKit          3D

 82 86  0  0  0  0  0  0  0  0999 V2000
   -2.3500    7.5170   -2.8680 C   0  0  0  0  0  0  0  0  0  0  0  0
   -2.9290    7.9250   -1.5100 C   0  0  2  0  0  0  0  0  0  0  0  0
   -4.4670    8.0250   -1.5410 C   0  0  0  0  0  0  0  0  0  0  0  0
   -5.1680    6.6770   -1.7280 C   0  0  0  0  0  0  0  0  0  0  0  0
   -6.2900    6.7690   -2.7180 C   0  0  2  0  0  0  0  0  0  0  0  0
   -7.0800    7.9610   -2.6180 O   0  0  0  0  0  0  0  0  0  0  0  0
   -7.7560    6.7270   -2.3270 C   0  0  0  0  0  0  0  0  0  0  0  0
   -8.1790    6.5870   -0.8980 C   0  0  0  0  0  0  0  0  0  0  0  0
   -8.7610    6.3300   -3.3630 C   0  0  0  0  0  0  0  0  0  0  0  0
   -2.3290    9.2540   -1.0670 C   0  0  1  0  0  0  0  0  0  0  0  0
   -2.8440    9.7090    0.3240 C   0  0  0  0  0  0  0  0  0  0  0  0
   -1.6650   10.4310    1.0240 C   0  0  0  0  0  0  0  0  0  0  0  0
   -0.6270   10.6610   -0.0990 C   0  0  1  0  0  0  0  0  0  0  0  0
   -1.1250   11.9350   -0.8510 C   0  0  0  0  0  0  0  0  0  0  0  0
    0.8620   10.8050    0.3560 C   0  0  2  0  0  0  0  0  0  0  0  0
    1.1530   12.0090    1.2680 C   0  0  0  0  0  0  0  0  0  0  0  0
    1.5410   13.2650    0.5610 C   0  0  0  0  0  0  0  0  0  0  0  0
    1.9290   13.3510   -0.7250 C   0  0  0  0  0  0  0  0  0  0  0  0
    2.1000   12.0910   -1.5820 C   0  0  1  0  0  0  0  0  0  0  0  0
    3.4430   12.1690   -2.3550 C   0  0  0  0  0  0  0  0  0  0  0  0
    3.5740   13.4510   -3.1710 C   0  0  0  0  0  0  0  0  0  0  0  0
    3.4560   14.6820   -2.2760 C   0  0  2  0  0  0  0  0  0  0  0  0
    4.5870   14.7250   -1.4010 O   0  0  0  0  0  0  0  0  0  0  0  0
    2.1460   14.7080   -1.4390 C   0  0  0  0  0  0  0  0  0  0  0  0
    0.9370   14.9650   -2.3730 C   0  0  0  0  0  0  0  0  0  0  0  0
    2.2180   15.9250   -0.4780 C   0  0  0  0  0  0  0  0  0  0  0  0
    1.9130   10.7060   -0.8240 C   0  0  1  0  0  0  0  0  0  0  0  0
    3.2630   10.2640   -0.1820 C   0  0  0  0  0  0  0  0  0  0  0  0
    1.5330    9.5940   -1.8710 C   0  0  0  0  0  0  0  0  0  0  0  0
    0.0360    9.4200   -2.1890 C   0  0  0  0  0  0  0  0  0  0  0  0
   -0.7900    9.3200   -0.9030 C   0  0  2  0  0  0  0  0  0  0  0  0
   -0.3260    8.0350   -0.1360 C   0  0  0  0  0  0  0  0  0  0  0  0
   -1.4597    6.8897   -2.7135 H   0  0  0  0  0  0  0  0  0  0  0  0
   -3.1046    6.9500   -3.4329 H   0  0  0  0  0  0  0  0  0  0  0  0
   -2.0699    8.4183   -3.4329 H   0  0  0  0  0  0  0  0  0  0  0  0
   -2.6641    7.1388   -0.7877 H   0  0  0  0  0  0  0  0  0  0  0  0
   -4.8057    8.4636   -0.5908 H   0  0  0  0  0  0  0  0  0  0  0  0
   -4.7311    8.6476   -2.4085 H   0  0  0  0  0  0  0  0  0  0  0  0
   -4.4345    5.9404   -2.0877 H   0  0  0  0  0  0  0  0  0  0  0  0
   -5.5895    6.3720   -0.7588 H   0  0  0  0  0  0  0  0  0  0  0  0
   -5.7091    6.2077   -3.4647 H   0  0  0  0  0  0  0  0  0  0  0  0
   -7.3427    6.8638   -0.2392 H   0  0  0  0  0  0  0  0  0  0  0  0
   -9.0348    7.2498   -0.7023 H   0  0  0  0  0  0  0  0  0  0  0  0
   -8.4704    5.5445   -0.7023 H   0  0  0  0  0  0  0  0  0  0  0  0
   -9.6747    5.9691   -2.8681 H   0  0  0  0  0  0  0  0  0  0  0  0
   -9.0034    7.1999   -3.9911 H   0  0  0  0  0  0  0  0  0  0  0  0
   -8.3434    5.5293   -3.9911 H   0  0  0  0  0  0  0  0  0  0  0  0
   -2.6456    9.8879   -1.9084 H   0  0  0  0  0  0  0  0  0  0  0  0
   -3.6936   10.3977    0.2065 H   0  0  0  0  0  0  0  0  0  0  0  0
   -3.1887    8.8495    0.9176 H   0  0  0  0  0  0  0  0  0  0  0  0
   -1.9948   11.3899    1.4504 H   0  0  0  0  0  0  0  0  0  0  0  0
   -1.2535    9.8451    1.8591 H   0  0  0  0  0  0  0  0  0  0  0  0
   -1.4239   12.6996   -0.1188 H   0  0  0  0  0  0  0  0  0  0  0  0
   -0.3145   12.3286   -1.4820 H   0  0  0  0  0  0  0  0  0  0  0  0
   -1.9875   11.6746   -1.4820 H   0  0  0  0  0  0  0  0  0  0  0  0
    1.0029    9.9137    0.9851 H   0  0  0  0  0  0  0  0  0  0  0  0
    0.2472   12.2162    1.8568 H   0  0  0  0  0  0  0  0  0  0  0  0
    2.0210   11.7240    1.8807 H   0  0  0  0  0  0  0  0  0  0  0  0
    1.5070   14.1996    1.1401 H   0  0  0  0  0  0  0  0  0  0  0  0
    1.2596   12.0899   -2.2917 H   0  0  0  0  0  0  0  0  0  0  0  0
    4.2698   12.1258   -1.6308 H   0  0  0  0  0  0  0  0  0  0  0  0
    3.4746   11.3220   -3.0561 H   0  0  0  0  0  0  0  0  0  0  0  0
    4.5542   13.4614   -3.6701 H   0  0  0  0  0  0  0  0  0  0  0  0
    2.7635   13.4784   -3.9142 H   0  0  0  0  0  0  0  0  0  0  0  0
    3.4266   15.5650   -2.9313 H   0  0  0  0  0  0  0  0  0  0  0  0
    4.2520   14.7630   -0.4890 H   0  0  0  0  0  0  0  0  0  0  0  0
    0.0393   15.1558   -1.7666 H   0  0  0  0  0  0  0  0  0  0  0  0
    1.1434   15.8393   -3.0078 H   0  0  0  0  0  0  0  0  0  0  0  0
    0.7699   14.0823   -3.0078 H   0  0  0  0  0  0  0  0  0  0  0  0
    2.1971   15.5716    0.5635 H   0  0  0  0  0  0  0  0  0  0  0  0
    3.1505   16.4799   -0.6582 H   0  0  0  0  0  0  0  0  0  0  0  0
    1.3574   16.5860   -0.6582 H   0  0  0  0  0  0  0  0  0  0  0  0
    3.1746   10.2929    0.9141 H   0  0  0  0  0  0  0  0  0  0  0  0
    3.5040    9.2400   -0.5035 H   0  0  0  0  0  0  0  0  0  0  0  0
    4.0630   10.9471   -0.5035 H   0  0  0  0  0  0  0  0  0  0  0  0
    2.0473    9.8347   -2.8131 H   0  0  0  0  0  0  0  0  0  0  0  0
    1.8401    8.6453   -1.4066 H   0  0  0  0  0  0  0  0  0  0  0  0
   -0.3107   10.2853   -2.7729 H   0  0  0  0  0  0  0  0  0  0  0  0
   -0.0948    8.4907   -2.7628 H   0  0  0  0  0  0  0  0  0  0  0  0
   -0.3898    8.2118    0.9478 H   0  0  0  0  0  0  0  0  0  0  0  0
   -0.9760    7.1905   -0.4087 H   0  0  0  0  0  0  0  0  0  0  0  0
    0.7136    7.8006   -0.4087 H   0  0  0  0  0  0  0  0  0  0  0  0
  1  2  1  0
  2  3  1  0
  3  4  1  0
  4  5  1  0
  5  6  1  0
  6  7  1  0
  7  8  1  0
  7  9  1  0
  2 10  1  0
 10 11  1  0
 11 12  1  0
 12 13  1  0
 13 14  1  6
 13 15  1  0
 15 16  1  0
 16 17  1  0
 17 18  2  0
 18 19  1  0
 19 20  1  0
 20 21  1  0
 21 22  1  0
 22 23  1  0
 22 24  1  0
 24 25  1  0
 24 26  1  0
 19 27  1  0
 27 28  1  1
 27 29  1  0
 29 30  1  0
 30 31  1  0
 31 32  1  1
  7  5  1  0
 31 10  1  0
 31 13  1  0
 27 15  1  0
 24 18  1  0
  1 33  1  0
  1 34  1  0
  1 35  1  0
  2 36  1  1
  3 37  1  0
  3 38  1  0
  4 39  1  0
  4 40  1  0
  5 41  1  6
  8 42  1  0
  8 43  1  0
  8 44  1  0
  9 45  1  0
  9 46  1  0
  9 47  1  0
 10 48  1  6
 11 49  1  0
 11 50  1  0
 12 51  1  0
 12 52  1  0
 14 53  1  0
 14 54  1  0
 14 55  1  0
 15 56  1  1
 16 57  1  0
 16 58  1  0
 17 59  1  0
 19 60  1  6
 20 61  1  0
 20 62  1  0
 21 63  1  0
 21 64  1  0
 22 65  1  6
 23 66  1  0
 25 67  1  0
 25 68  1  0
 25 69  1  0
 26 70  1  0
 26 71  1  0
 26 72  1  0
 28 73  1  0
 28 74  1  0
 28 75  1  0
 29 76  1  0
 29 77  1  0
 30 78  1  0
 30 79  1  0
 32 80  1  0
 32 81  1  0
 32 82  1  0
M  END
>  <meeko>  (13) 
{"is_sidechain": [false], "intermolecular_energy": 2.731, "internal_energy": -0.839}

$$$$
EPH_relaxed_0001_pdb2pqr_Repair_125_r2_0001_out
     RDKit          3D

 82 86  0  0  0  0  0  0  0  0999 V2000
    3.6900   11.6840   -5.2780 C   0  0  0  0  0  0  0  0  0  0  0  0
    2.2450   11.1970   -5.1450 C   0  0  2  0  0  0  0  0  0  0  0  0
    1.5890   10.9450   -6.5170 C   0  0  0  0  0  0  0  0  0  0  0  0
    1.9490   11.9930   -7.5730 C   0  0  0  0  0  0  0  0  0  0  0  0
    0.9090   13.0680   -7.6650 C   0  0  2  0  0  0  0  0  0  0  0  0
   -0.0770   12.8620   -8.6850 O   0  0  0  0  0  0  0  0  0  0  0  0
    0.7770   14.0050   -8.8510 C   0  0  0  0  0  0  0  0  0  0  0  0
    1.6980   13.9110  -10.0270 C   0  0  0  0  0  0  0  0  0  0  0  0
    0.0770   15.3140   -8.6540 C   0  0  0  0  0  0  0  0  0  0  0  0
    1.4250   12.2100   -4.3540 C   0  0  1  0  0  0  0  0  0  0  0  0
    0.0350   11.6600   -3.9390 C   0  0  0  0  0  0  0  0  0  0  0  0
   -0.2890   12.2650   -2.5490 C   0  0  0  0  0  0  0  0  0  0  0  0
    0.7560   13.3890   -2.3590 C   0  0  1  0  0  0  0  0  0  0  0  0
    0.1890   14.6030   -3.1600 C   0  0  0  0  0  0  0  0  0  0  0  0
    1.0930   13.7780   -0.8830 C   0  0  2  0  0  0  0  0  0  0  0  0
   -0.0860   14.3410   -0.0710 C   0  0  0  0  0  0  0  0  0  0  0  0
   -0.2490   15.8240   -0.1280 C   0  0  0  0  0  0  0  0  0  0  0  0
    0.6780   16.6960   -0.5660 C   0  0  0  0  0  0  0  0  0  0  0  0
    2.0780   16.2190   -0.9740 C   0  0  1  0  0  0  0  0  0  0  0  0
    3.1460   17.1480   -0.3390 C   0  0  0  0  0  0  0  0  0  0  0  0
    2.9130   18.6190   -0.6680 C   0  0  0  0  0  0  0  0  0  0  0  0
    1.5330   19.0710   -0.1950 C   0  0  2  0  0  0  0  0  0  0  0  0
    1.5020   19.0380    1.2350 O   0  0  0  0  0  0  0  0  0  0  0  0
    0.3760   18.2020   -0.7630 C   0  0  0  0  0  0  0  0  0  0  0  0
    0.2180   18.4730   -2.2800 C   0  0  0  0  0  0  0  0  0  0  0  0
   -0.9450   18.6740   -0.0980 C   0  0  0  0  0  0  0  0  0  0  0  0
    2.3840   14.6790   -0.7290 C   0  0  1  0  0  0  0  0  0  0  0  0
    2.9060   14.4650    0.7250 C   0  0  0  0  0  0  0  0  0  0  0  0
    3.5480   14.2280   -1.6890 C   0  0  0  0  0  0  0  0  0  0  0  0
    3.1410   13.7410   -3.0930 C   0  0  0  0  0  0  0  0  0  0  0  0
    2.0140   12.7060   -3.0090 C   0  0  2  0  0  0  0  0  0  0  0  0
    2.5630   11.4640   -2.2290 C   0  0  0  0  0  0  0  0  0  0  0  0
    4.1215   11.8294   -4.2767 H   0  0  0  0  0  0  0  0  0  0  0  0
    4.2803   10.9352   -5.8264 H   0  0  0  0  0  0  0  0  0  0  0  0
    3.7066   12.6374   -5.8264 H   0  0  0  0  0  0  0  0  0  0  0  0
    2.2677   10.2371   -4.6082 H   0  0  0  0  0  0  0  0  0  0  0  0
    1.9136    9.9592   -6.8813 H   0  0  0  0  0  0  0  0  0  0  0  0
    0.5005   10.9998   -6.3678 H   0  0  0  0  0  0  0  0  0  0  0  0
    2.9127   12.4514   -7.3061 H   0  0  0  0  0  0  0  0  0  0  0  0
    2.0085   11.4894   -8.5491 H   0  0  0  0  0  0  0  0  0  0  0  0
    0.9701   13.2521   -6.5822 H   0  0  0  0  0  0  0  0  0  0  0  0
    2.7343   13.8052   -9.6736 H   0  0  0  0  0  0  0  0  0  0  0  0
    1.4271   13.0358  -10.6359 H   0  0  0  0  0  0  0  0  0  0  0  0
    1.6095   14.8228  -10.6359 H   0  0  0  0  0  0  0  0  0  0  0  0
   -0.0301   15.5142   -7.5777 H   0  0  0  0  0  0  0  0  0  0  0  0
    0.6654   16.1182   -9.1198 H   0  0  0  0  0  0  0  0  0  0  0  0
   -0.9186   15.2712   -9.1198 H   0  0  0  0  0  0  0  0  0  0  0  0
    1.3991   13.0347   -5.0814 H   0  0  0  0  0  0  0  0  0  0  0  0
   -0.7269   11.9646   -4.6716 H   0  0  0  0  0  0  0  0  0  0  0  0
    0.0412   10.5607   -3.8994 H   0  0  0  0  0  0  0  0  0  0  0  0
   -1.3090   12.6765   -2.5329 H   0  0  0  0  0  0  0  0  0  0  0  0
   -0.2440   11.5139   -1.7466 H   0  0  0  0  0  0  0  0  0  0  0  0
   -0.1694   15.3703   -2.4580 H   0  0  0  0  0  0  0  0  0  0  0  0
    0.9822   15.0271   -3.7932 H   0  0  0  0  0  0  0  0  0  0  0  0
   -0.6453   14.2670   -3.7932 H   0  0  0  0  0  0  0  0  0  0  0  0
    1.3284   12.8035   -0.4303 H   0  0  0  0  0  0  0  0  0  0  0  0
   -1.0106   13.8825   -0.4517 H   0  0  0  0  0  0  0  0  0  0  0  0
    0.1254   14.0982    0.9808 H   0  0  0  0  0  0  0  0  0  0  0  0
   -1.2075   16.2389    0.2171 H   0  0  0  0  0  0  0  0  0  0  0  0
    2.1197   16.2975   -2.0704 H   0  0  0  0  0  0  0  0  0  0  0  0
    3.1177   17.0224    0.7534 H   0  0  0  0  0  0  0  0  0  0  0  0
    4.1242   16.8643   -0.7544 H   0  0  0  0  0  0  0  0  0  0  0  0
    3.6819   19.2261   -0.1678 H   0  0  0  0  0  0  0  0  0  0  0  0
    2.9707   18.7487   -1.7588 H   0  0  0  0  0  0  0  0  0  0  0  0
    1.3730   20.0919   -0.5722 H   0  0  0  0  0  0  0  0  0  0  0  0
    2.3210   18.6090    1.5370 H   0  0  0  0  0  0  0  0  0  0  0  0
   -0.3309   19.4145   -2.4291 H   0  0  0  0  0  0  0  0  0  0  0  0
    1.2123   18.5508   -2.7441 H   0  0  0  0  0  0  0  0  0  0  0  0
   -0.3395   17.6461   -2.7441 H   0  0  0  0  0  0  0  0  0  0  0  0
   -0.8387   18.6360    0.9962 H   0  0  0  0  0  0  0  0  0  0  0  0
   -1.1640   19.7060   -0.4095 H   0  0  0  0  0  0  0  0  0  0  0  0
   -1.7684   18.0144   -0.4095 H   0  0  0  0  0  0  0  0  0  0  0  0
    2.1341   14.7814    1.4420 H   0  0  0  0  0  0  0  0  0  0  0  0
    3.1353   13.4003    0.8793 H   0  0  0  0  0  0  0  0  0  0  0  0
    3.8167   15.0623    0.8793 H   0  0  0  0  0  0  0  0  0  0  0  0
    4.2247   15.0857   -1.8174 H   0  0  0  0  0  0  0  0  0  0  0  0
    4.0010   13.3526   -1.2007 H   0  0  0  0  0  0  0  0  0  0  0  0
    2.7965   14.6008   -3.6863 H   0  0  0  0  0  0  0  0  0  0  0  0
    4.0145   13.2707   -3.5681 H   0  0  0  0  0  0  0  0  0  0  0  0
    2.4827   11.6457   -1.1471 H   0  0  0  0  0  0  0  0  0  0  0  0
    1.9745   10.5739   -2.4960 H   0  0  0  0  0  0  0  0  0  0  0  0
    3.6174   11.3001   -2.4960 H   0  0  0  0  0  0  0  0  0  0  0  0
  1  2  1  0
  2  3  1  0
  3  4  1  0
  4  5  1  0
  5  6  1  0
  6  7  1  0
  7  8  1  0
  7  9  1  0
  2 10  1  0
 10 11  1  0
 11 12  1  0
 12 13  1  0
 13 14  1  6
 13 15  1  0
 15 16  1  0
 16 17  1  0
 17 18  2  0
 18 19  1  0
 19 20  1  0
 20 21  1  0
 21 22  1  0
 22 23  1  0
 22 24  1  0
 24 25  1  0
 24 26  1  0
 19 27  1  0
 27 28  1  1
 27 29  1  0
 29 30  1  0
 30 31  1  0
 31 32  1  1
  7  5  1  0
 31 10  1  0
 31 13  1  0
 27 15  1  0
 24 18  1  0
  1 33  1  0
  1 34  1  0
  1 35  1  0
  2 36  1  1
  3 37  1  0
  3 38  1  0
  4 39  1  0
  4 40  1  0
  5 41  1  1
  8 42  1  0
  8 43  1  0
  8 44  1  0
  9 45  1  0
  9 46  1  0
  9 47  1  0
 10 48  1  6
 11 49  1  0
 11 50  1  0
 12 51  1  0
 12 52  1  0
 14 53  1  0
 14 54  1  0
 14 55  1  0
 15 56  1  1
 16 57  1  0
 16 58  1  0
 17 59  1  0
 19 60  1  6
 20 61  1  0
 20 62  1  0
 21 63  1  0
 21 64  1  0
 22 65  1  1
 23 66  1  0
 25 67  1  0
 25 68  1  0
 25 69  1  0
 26 70  1  0
 26 71  1  0
 26 72  1  0
 28 73  1  0
 28 74  1  0
 28 75  1  0
 29 76  1  0
 29 77  1  0
 30 78  1  0
 30 79  1  0
 32 80  1  0
 32 81  1  0
 32 82  1  0
M  END
>  <meeko>  (14) 
{"is_sidechain": [false], "intermolecular_energy": 2.731, "internal_energy": -0.839}

$$$$
EPH_relaxed_0001_pdb2pqr_Repair_125_r2_0001_out
     RDKit          3D

 82 86  0  0  0  0  0  0  0  0999 V2000
    2.2600   19.1820    0.3650 C   0  0  0  0  0  0  0  0  0  0  0  0
    2.8840   17.8510   -0.0640 C   0  0  2  0  0  0  0  0  0  0  0  0
    3.6850   17.9810   -1.3750 C   0  0  0  0  0  0  0  0  0  0  0  0
    5.1150   17.4430   -1.2800 C   0  0  0  0  0  0  0  0  0  0  0  0
    5.9750   17.9520   -2.3970 C   0  0  2  0  0  0  0  0  0  0  0  0
    5.3900   17.8420   -3.7010 O   0  0  0  0  0  0  0  0  0  0  0  0
    6.5710   17.0580   -3.4680 C   0  0  0  0  0  0  0  0  0  0  0  0
    6.3320   15.5810   -3.4730 C   0  0  0  0  0  0  0  0  0  0  0  0
    7.7730   17.5430   -4.2160 C   0  0  0  0  0  0  0  0  0  0  0  0
    1.7980   16.7930   -0.2190 C   0  0  1  0  0  0  0  0  0  0  0  0
    0.4850   17.3680   -0.8160 C   0  0  0  0  0  0  0  0  0  0  0  0
   -0.1250   16.2560   -1.7070 C   0  0  0  0  0  0  0  0  0  0  0  0
    0.6670   14.9800   -1.3370 C   0  0  1  0  0  0  0  0  0  0  0  0
    0.0030   14.4640   -0.0210 C   0  0  0  0  0  0  0  0  0  0  0  0
    0.7270   13.8630   -2.4290 C   0  0  2  0  0  0  0  0  0  0  0  0
   -0.6320   13.2550   -2.8170 C   0  0  0  0  0  0  0  0  0  0  0  0
   -1.0490   12.0630   -2.0210 C   0  0  0  0  0  0  0  0  0  0  0  0
   -0.2430   11.3300   -1.2310 C   0  0  0  0  0  0  0  0  0  0  0  0
    1.2620   11.6200   -1.1550 C   0  0  1  0  0  0  0  0  0  0  0  0
    2.0520   10.2890   -1.2680 C   0  0  0  0  0  0  0  0  0  0  0  0
    1.6040    9.2540   -0.2410 C   0  0  0  0  0  0  0  0  0  0  0  0
    0.1160    8.9490   -0.3860 C   0  0  2  0  0  0  0  0  0  0  0  0
   -0.1010    8.2930   -1.6400 O   0  0  0  0  0  0  0  0  0  0  0  0
   -0.7800   10.2160   -0.2980 C   0  0  0  0  0  0  0  0  0  0  0  0
   -0.7790   10.7550    1.1540 C   0  0  0  0  0  0  0  0  0  0  0  0
   -2.2420    9.7900   -0.6010 C   0  0  0  0  0  0  0  0  0  0  0  0
    1.8040   12.7380   -2.1460 C   0  0  1  0  0  0  0  0  0  0  0  0
    2.1550   12.1010   -3.5250 C   0  0  0  0  0  0  0  0  0  0  0  0
    3.1470   13.3250   -1.5730 C   0  0  0  0  0  0  0  0  0  0  0  0
    3.0260   14.5060   -0.5900 C   0  0  0  0  0  0  0  0  0  0  0  0
    2.1020   15.5920   -1.1500 C   0  0  2  0  0  0  0  0  0  0  0  0
    2.7550   16.1460   -2.4620 C   0  0  0  0  0  0  0  0  0  0  0  0
    2.2339   19.2376    1.4633 H   0  0  0  0  0  0  0  0  0  0  0  0
    2.8621   20.0135   -0.0301 H   0  0  0  0  0  0  0  0  0  0  0  0
    1.2357   19.2510   -0.0301 H   0  0  0  0  0  0  0  0  0  0  0  0
    3.5885   17.5468    0.7241 H   0  0  0  0  0  0  0  0  0  0  0  0
    3.1559   17.4232   -2.1617 H   0  0  0  0  0  0  0  0  0  0  0  0
    3.7606   19.0552   -1.5996 H   0  0  0  0  0  0  0  0  0  0  0  0
    5.5518   17.7595   -0.3213 H   0  0  0  0  0  0  0  0  0  0  0  0
    5.0738   16.3461   -1.3519 H   0  0  0  0  0  0  0  0  0  0  0  0
    6.4204   18.7125   -1.7388 H   0  0  0  0  0  0  0  0  0  0  0  0
    6.2729   15.2156   -2.4371 H   0  0  0  0  0  0  0  0  0  0  0  0
    5.3871   15.3642   -3.9928 H   0  0  0  0  0  0  0  0  0  0  0  0
    7.1603   15.0773   -3.9928 H   0  0  0  0  0  0  0  0  0  0  0  0
    8.5482   17.8558   -3.5010 H   0  0  0  0  0  0  0  0  0  0  0  0
    8.1632   16.7319   -4.8484 H   0  0  0  0  0  0  0  0  0  0  0  0
    7.4911   18.3977   -4.8484 H   0  0  0  0  0  0  0  0  0  0  0  0
    1.7235   16.4513    0.8239 H   0  0  0  0  0  0  0  0  0  0  0  0
   -0.2140   17.6330   -0.0090 H   0  0  0  0  0  0  0  0  0  0  0  0
    0.6822   18.2789   -1.4003 H   0  0  0  0  0  0  0  0  0  0  0  0
   -1.1950   16.1260   -1.4875 H   0  0  0  0  0  0  0  0  0  0  0  0
   -0.0540   16.4946   -2.7785 H   0  0  0  0  0  0  0  0  0  0  0  0
    0.5372   14.8791    0.8464 H   0  0  0  0  0  0  0  0  0  0  0  0
   -1.0490   14.7839    0.0088 H   0  0  0  0  0  0  0  0  0  0  0  0
    0.0532   13.3655    0.0088 H   0  0  0  0  0  0  0  0  0  0  0  0
    1.0690   14.4178   -3.3151 H   0  0  0  0  0  0  0  0  0  0  0  0
   -1.4001   14.0325   -2.6921 H   0  0  0  0  0  0  0  0  0  0  0  0
   -0.5232   12.9049   -3.8541 H   0  0  0  0  0  0  0  0  0  0  0  0
   -2.1039   11.7581   -2.0856 H   0  0  0  0  0  0  0  0  0  0  0  0
    1.4349   12.0740   -0.1681 H   0  0  0  0  0  0  0  0  0  0  0  0
    1.9015    9.8741   -2.2756 H   0  0  0  0  0  0  0  0  0  0  0  0
    3.1119   10.5125   -1.0764 H   0  0  0  0  0  0  0  0  0  0  0  0
    2.1775    8.3273   -0.3904 H   0  0  0  0  0  0  0  0  0  0  0  0
    1.7824    9.6592    0.7660 H   0  0  0  0  0  0  0  0  0  0  0  0
   -0.1713    8.3017    0.4557 H   0  0  0  0  0  0  0  0  0  0  0  0
   -0.0590    8.9700   -2.3370 H   0  0  0  0  0  0  0  0  0  0  0  0
   -0.7806    9.9103    1.8587 H   0  0  0  0  0  0  0  0  0  0  0  0
    0.1203   11.3671    1.3173 H   0  0  0  0  0  0  0  0  0  0  0  0
   -1.6760   11.3704    1.3173 H   0  0  0  0  0  0  0  0  0  0  0  0
   -2.7816    9.6328    0.3446 H   0  0  0  0  0  0  0  0  0  0  0  0
   -2.7414   10.5800   -1.1811 H   0  0  0  0  0  0  0  0  0  0  0  0
   -2.2389    8.8554   -1.1811 H   0  0  0  0  0  0  0  0  0  0  0  0
    2.6803   11.1478   -3.3655 H   0  0  0  0  0  0  0  0  0  0  0  0
    1.2296   11.9195   -4.0912 H   0  0  0  0  0  0  0  0  0  0  0  0
    2.8028   12.7863   -4.0912 H   0  0  0  0  0  0  0  0  0  0  0  0
    3.6705   12.5102   -1.0514 H   0  0  0  0  0  0  0  0  0  0  0  0
    3.6793   13.7306   -2.4460 H   0  0  0  0  0  0  0  0  0  0  0  0
    2.6158   14.1406    0.3630 H   0  0  0  0  0  0  0  0  0  0  0  0
    4.0253   14.9397   -0.4375 H   0  0  0  0  0  0  0  0  0  0  0  0
    3.5701   16.8375   -2.2022 H   0  0  0  0  0  0  0  0  0  0  0  0
    3.1577   15.3099   -3.0525 H   0  0  0  0  0  0  0  0  0  0  0  0
    1.9957   16.6796   -3.0525 H   0  0  0  0  0  0  0  0  0  0  0  0
  1  2  1  0
  2  3  1  0
  3  4  1  0
  4  5  1  0
  5  6  1  0
  6  7  1  0
  7  8  1  0
  7  9  1  0
  2 10  1  0
 10 11  1  0
 11 12  1  0
 12 13  1  0
 13 14  1  1
 13 15  1  0
 15 16  1  0
 16 17  1  0
 17 18  2  0
 18 19  1  0
 19 20  1  0
 20 21  1  0
 21 22  1  0
 22 23  1  0
 22 24  1  0
 24 25  1  0
 24 26  1  0
 19 27  1  0
 27 28  1  6
 27 29  1  0
 29 30  1  0
 30 31  1  0
 31 32  1  6
  7  5  1  0
 31 10  1  0
 31 13  1  0
 27 15  1  0
 24 18  1  0
  1 33  1  0
  1 34  1  0
  1 35  1  0
  2 36  1  1
  3 37  1  0
  3 38  1  0
  4 39  1  0
  4 40  1  0
  5 41  1  1
  8 42  1  0
  8 43  1  0
  8 44  1  0
  9 45  1  0
  9 46  1  0
  9 47  1  0
 10 48  1  1
 11 49  1  0
 11 50  1  0
 12 51  1  0
 12 52  1  0
 14 53  1  0
 14 54  1  0
 14 55  1  0
 15 56  1  6
 16 57  1  0
 16 58  1  0
 17 59  1  0
 19 60  1  1
 20 61  1  0
 20 62  1  0
 21 63  1  0
 21 64  1  0
 22 65  1  1
 23 66  1  0
 25 67  1  0
 25 68  1  0
 25 69  1  0
 26 70  1  0
 26 71  1  0
 26 72  1  0
 28 73  1  0
 28 74  1  0
 28 75  1  0
 29 76  1  0
 29 77  1  0
 30 78  1  0
 30 79  1  0
 32 80  1  0
 32 81  1  0
 32 82  1  0
M  END
>  <meeko>  (15) 
{"is_sidechain": [false], "intermolecular_energy": 2.731, "internal_energy": -0.839}

$$$$
EPH_relaxed_0001_pdb2pqr_Repair_125_r2_0001_out
     RDKit          3D

 82 86  0  0  0  0  0  0  0  0999 V2000
    1.2970   19.1460   -2.2380 C   0  0  0  0  0  0  0  0  0  0  0  0
    1.3200   18.3600   -0.9240 C   0  0  2  0  0  0  0  0  0  0  0  0
    1.7890   19.2260    0.2620 C   0  0  0  0  0  0  0  0  0  0  0  0
    0.6690   19.5830    1.2440 C   0  0  0  0  0  0  0  0  0  0  0  0
   -0.5080   20.1920    0.5440 C   0  0  2  0  0  0  0  0  0  0  0  0
   -1.7220   20.1940    1.3060 O   0  0  0  0  0  0  0  0  0  0  0  0
   -1.7260   19.3980    0.1100 C   0  0  0  0  0  0  0  0  0  0  0  0
   -1.8280   17.9260    0.3600 C   0  0  0  0  0  0  0  0  0  0  0  0
   -2.5900   19.9520   -0.9790 C   0  0  0  0  0  0  0  0  0  0  0  0
    2.2210   17.1390   -1.0660 C   0  0  1  0  0  0  0  0  0  0  0  0
    2.9570   16.7840    0.2540 C   0  0  0  0  0  0  0  0  0  0  0  0
    3.0650   15.2380    0.3040 C   0  0  0  0  0  0  0  0  0  0  0  0
    2.6920   14.7740   -1.1240 C   0  0  1  0  0  0  0  0  0  0  0  0
    3.9970   14.9640   -1.9610 C   0  0  0  0  0  0  0  0  0  0  0  0
    2.1290   13.3220   -1.2540 C   0  0  2  0  0  0  0  0  0  0  0  0
    3.1010   12.2050   -0.8340 C   0  0  0  0  0  0  0  0  0  0  0  0
    3.9650   11.6670   -1.9250 C   0  0  0  0  0  0  0  0  0  0  0  0
    3.7700   11.8580   -3.2440 C   0  0  0  0  0  0  0  0  0  0  0  0
    2.5300   12.6010   -3.7560 C   0  0  1  0  0  0  0  0  0  0  0  0
    1.9010   11.8090   -4.9320 C   0  0  0  0  0  0  0  0  0  0  0  0
    2.9050   11.5140   -6.0430 C   0  0  0  0  0  0  0  0  0  0  0  0
    4.0950   10.7230   -5.5050 C   0  0  2  0  0  0  0  0  0  0  0  0
    3.6440    9.4250   -5.1070 O   0  0  0  0  0  0  0  0  0  0  0  0
    4.8040   11.4190   -4.3100 C   0  0  0  0  0  0  0  0  0  0  0  0
    5.5500   12.6800   -4.8100 C   0  0  0  0  0  0  0  0  0  0  0  0
    5.8940   10.4530   -3.7730 C   0  0  0  0  0  0  0  0  0  0  0  0
    1.4600   13.0090   -2.6540 C   0  0  1  0  0  0  0  0  0  0  0  0
    0.4640   11.8320   -2.4180 C   0  0  0  0  0  0  0  0  0  0  0  0
    0.6030   14.2150   -3.1900 C   0  0  0  0  0  0  0  0  0  0  0  0
    1.1530   15.6300   -2.9260 C   0  0  0  0  0  0  0  0  0  0  0  0
    1.5470   15.7990   -1.4550 C   0  0  2  0  0  0  0  0  0  0  0  0
    0.2510   15.6360   -0.5910 C   0  0  0  0  0  0  0  0  0  0  0  0
    1.2655   20.2237   -2.0201 H   0  0  0  0  0  0  0  0  0  0  0  0
    2.2023   18.9157   -2.8189 H   0  0  0  0  0  0  0  0  0  0  0  0
    0.4067   18.8632   -2.8189 H   0  0  0  0  0  0  0  0  0  0  0  0
    0.2895   18.0394   -0.7111 H   0  0  0  0  0  0  0  0  0  0  0  0
    2.5675   18.6738    0.8088 H   0  0  0  0  0  0  0  0  0  0  0  0
    2.1621   20.1717   -0.1580 H   0  0  0  0  0  0  0  0  0  0  0  0
    0.3426   18.6683    1.7605 H   0  0  0  0  0  0  0  0  0  0  0  0
    1.0620   20.3204    1.9594 H   0  0  0  0  0  0  0  0  0  0  0  0
    0.1455   20.8938    0.0052 H   0  0  0  0  0  0  0  0  0  0  0  0
   -1.8410   17.7382    1.4438 H   0  0  0  0  0  0  0  0  0  0  0  0
   -2.7550   17.5410   -0.0900 H   0  0  0  0  0  0  0  0  0  0  0  0
   -0.9630   17.4168   -0.0900 H   0  0  0  0  0  0  0  0  0  0  0  0
   -3.4370   20.4951   -0.5345 H   0  0  0  0  0  0  0  0  0  0  0  0
   -1.9992   20.6401   -1.6015 H   0  0  0  0  0  0  0  0  0  0  0  0
   -2.9688   19.1280   -1.6015 H   0  0  0  0  0  0  0  0  0  0  0  0
    2.8722   17.4838   -1.8828 H   0  0  0  0  0  0  0  0  0  0  0  0
    3.9606   17.2343    0.2610 H   0  0  0  0  0  0  0  0  0  0  0  0
    2.4106   17.1702    1.1271 H   0  0  0  0  0  0  0  0  0  0  0  0
    4.0896   14.9284    0.5576 H   0  0  0  0  0  0  0  0  0  0  0  0
    2.4090   14.7987    1.0699 H   0  0  0  0  0  0  0  0  0  0  0  0
    4.8533   15.0887   -1.2819 H   0  0  0  0  0  0  0  0  0  0  0  0
    4.1578   14.0798   -2.5953 H   0  0  0  0  0  0  0  0  0  0  0  0
    3.8990   15.8573   -2.5953 H   0  0  0  0  0  0  0  0  0  0  0  0
    1.3229   13.3140   -0.5056 H   0  0  0  0  0  0  0  0  0  0  0  0
    3.7572   12.6041   -0.0466 H   0  0  0  0  0  0  0  0  0  0  0  0
    2.4733   11.3651   -0.5015 H   0  0  0  0  0  0  0  0  0  0  0  0
    4.8349   11.0633   -1.6269 H   0  0  0  0  0  0  0  0  0  0  0  0
    2.8877   13.5784   -4.1122 H   0  0  0  0  0  0  0  0  0  0  0  0
    1.5116   10.8552   -4.5464 H   0  0  0  0  0  0  0  0  0  0  0  0
    1.1006   12.4293   -5.3617 H   0  0  0  0  0  0  0  0  0  0  0  0
    2.4090   10.9276   -6.8305 H   0  0  0  0  0  0  0  0  0  0  0  0
    3.2715   12.4686   -6.4485 H   0  0  0  0  0  0  0  0  0  0  0  0
    4.8378   10.6548   -6.3134 H   0  0  0  0  0  0  0  0  0  0  0  0
    3.5490    9.4300   -4.1400 H   0  0  0  0  0  0  0  0  0  0  0  0
    5.8972   13.2669   -3.9469 H   0  0  0  0  0  0  0  0  0  0  0  0
    6.4144   12.3772   -5.4192 H   0  0  0  0  0  0  0  0  0  0  0  0
    4.8684   13.2918   -5.4192 H   0  0  0  0  0  0  0  0  0  0  0  0
    5.8830   10.4628   -2.6731 H   0  0  0  0  0  0  0  0  0  0  0  0
    5.6900    9.4337   -4.1327 H   0  0  0  0  0  0  0  0  0  0  0  0
    6.8814   10.7780   -4.1327 H   0  0  0  0  0  0  0  0  0  0  0  0
    0.3312   11.6751   -1.3374 H   0  0  0  0  0  0  0  0  0  0  0  0
   -0.5064   12.0756   -2.8751 H   0  0  0  0  0  0  0  0  0  0  0  0
    0.8648   10.9153   -2.8751 H   0  0  0  0  0  0  0  0  0  0  0  0
    0.5035   14.0945   -4.2788 H   0  0  0  0  0  0  0  0  0  0  0  0
   -0.3438   14.1656   -2.6321 H   0  0  0  0  0  0  0  0  0  0  0  0
    2.0386   15.7955   -3.5571 H   0  0  0  0  0  0  0  0  0  0  0  0
    0.3677   16.3621   -3.1654 H   0  0  0  0  0  0  0  0  0  0  0  0
    0.5153   15.6692    0.4763 H   0  0  0  0  0  0  0  0  0  0  0  0
   -0.4483   16.4533   -0.8212 H   0  0  0  0  0  0  0  0  0  0  0  0
   -0.2242   14.6710   -0.8212 H   0  0  0  0  0  0  0  0  0  0  0  0
  1  2  1  0
  2  3  1  0
  3  4  1  0
  4  5  1  0
  5  6  1  0
  6  7  1  0
  7  8  1  0
  7  9  1  0
  2 10  1  0
 10 11  1  0
 11 12  1  0
 12 13  1  0
 13 14  1  6
 13 15  1  0
 15 16  1  0
 16 17  1  0
 17 18  2  0
 18 19  1  0
 19 20  1  0
 20 21  1  0
 21 22  1  0
 22 23  1  0
 22 24  1  0
 24 25  1  0
 24 26  1  0
 19 27  1  0
 27 28  1  1
 27 29  1  0
 29 30  1  0
 30 31  1  0
 31 32  1  1
  7  5  1  0
 31 10  1  0
 31 13  1  0
 27 15  1  0
 24 18  1  0
  1 33  1  0
  1 34  1  0
  1 35  1  0
  2 36  1  1
  3 37  1  0
  3 38  1  0
  4 39  1  0
  4 40  1  0
  5 41  1  6
  8 42  1  0
  8 43  1  0
  8 44  1  0
  9 45  1  0
  9 46  1  0
  9 47  1  0
 10 48  1  6
 11 49  1  0
 11 50  1  0
 12 51  1  0
 12 52  1  0
 14 53  1  0
 14 54  1  0
 14 55  1  0
 15 56  1  1
 16 57  1  0
 16 58  1  0
 17 59  1  0
 19 60  1  6
 20 61  1  0
 20 62  1  0
 21 63  1  0
 21 64  1  0
 22 65  1  6
 23 66  1  0
 25 67  1  0
 25 68  1  0
 25 69  1  0
 26 70  1  0
 26 71  1  0
 26 72  1  0
 28 73  1  0
 28 74  1  0
 28 75  1  0
 29 76  1  0
 29 77  1  0
 30 78  1  0
 30 79  1  0
 32 80  1  0
 32 81  1  0
 32 82  1  0
M  END
>  <meeko>  (16) 
{"is_sidechain": [false], "intermolecular_energy": 2.731, "internal_energy": -0.839}

$$$$
EPH_relaxed_0001_pdb2pqr_Repair_125_r2_0001_out
     RDKit          3D

 82 86  0  0  0  0  0  0  0  0999 V2000
    3.9810   17.8180   -2.0800 C   0  0  0  0  0  0  0  0  0  0  0  0
    2.5690   17.2590   -1.8800 C   0  0  2  0  0  0  0  0  0  0  0  0
    1.9930   17.6180   -0.4960 C   0  0  0  0  0  0  0  0  0  0  0  0
    2.2970   19.0530   -0.0560 C   0  0  0  0  0  0  0  0  0  0  0  0
    2.7800   19.1080    1.3610 C   0  0  2  0  0  0  0  0  0  0  0  0
    3.6710   20.1940    1.6480 O   0  0  0  0  0  0  0  0  0  0  0  0
    4.2240   18.8730    1.7630 C   0  0  0  0  0  0  0  0  0  0  0  0
    5.2770   18.5640    0.7440 C   0  0  0  0  0  0  0  0  0  0  0  0
    4.5180   18.4620    3.1720 C   0  0  0  0  0  0  0  0  0  0  0  0
    2.5790   15.7460   -2.0630 C   0  0  1  0  0  0  0  0  0  0  0  0
    4.0070   15.1800   -2.2850 C   0  0  0  0  0  0  0  0  0  0  0  0
    4.0490   13.7900   -1.6000 C   0  0  0  0  0  0  0  0  0  0  0  0
    2.5680   13.4590   -1.2990 C   0  0  1  0  0  0  0  0  0  0  0  0
    1.9970   12.9170   -2.6470 C   0  0  0  0  0  0  0  0  0  0  0  0
    2.3080   12.4650   -0.1210 C   0  0  2  0  0  0  0  0  0  0  0  0
    2.8850   11.0520   -0.3200 C   0  0  0  0  0  0  0  0  0  0  0  0
    1.9660   10.0750   -0.9760 C   0  0  0  0  0  0  0  0  0  0  0  0
    0.6390   10.2320   -1.1320 C   0  0  0  0  0  0  0  0  0  0  0  0
   -0.0860   11.4460   -0.5360 C   0  0  1  0  0  0  0  0  0  0  0  0
   -1.3740   10.9750    0.1900 C   0  0  0  0  0  0  0  0  0  0  0  0
   -2.2790   10.1380   -0.7090 C   0  0  0  0  0  0  0  0  0  0  0  0
   -1.5410    8.9100   -1.2350 C   0  0  2  0  0  0  0  0  0  0  0  0
   -1.2590    8.0370   -0.1380 O   0  0  0  0  0  0  0  0  0  0  0  0
   -0.2210    9.2600   -1.9770 C   0  0  0  0  0  0  0  0  0  0  0  0
   -0.5480    9.9490   -3.3260 C   0  0  0  0  0  0  0  0  0  0  0  0
    0.4950    7.9290   -2.3320 C   0  0  0  0  0  0  0  0  0  0  0  0
    0.8020   12.4110    0.3620 C   0  0  1  0  0  0  0  0  0  0  0  0
    0.8240   11.8990    1.8340 C   0  0  0  0  0  0  0  0  0  0  0  0
    0.1350   13.8370    0.3980 C   0  0  0  0  0  0  0  0  0  0  0  0
    0.5240   14.8150   -0.7270 C   0  0  0  0  0  0  0  0  0  0  0  0
    2.0450   14.8840   -0.8920 C   0  0  2  0  0  0  0  0  0  0  0  0
    2.6460   15.4470    0.4410 C   0  0  0  0  0  0  0  0  0  0  0  0
    4.4449   18.0017   -1.0997 H   0  0  0  0  0  0  0  0  0  0  0  0
    4.5867   17.0918   -2.6420 H   0  0  0  0  0  0  0  0  0  0  0  0
    3.9254   18.7620   -2.6420 H   0  0  0  0  0  0  0  0  0  0  0  0
    1.9195   17.7214   -2.6378 H   0  0  0  0  0  0  0  0  0  0  0  0
    0.9011   17.4892   -0.5303 H   0  0  0  0  0  0  0  0  0  0  0  0
    2.4718   16.9495    0.2347 H   0  0  0  0  0  0  0  0  0  0  0  0
    3.0736   19.4705   -0.7137 H   0  0  0  0  0  0  0  0  0  0  0  0
    1.3670   19.6366   -0.1240 H   0  0  0  0  0  0  0  0  0  0  0  0
    1.8341   18.6801    1.7246 H   0  0  0  0  0  0  0  0  0  0  0  0
    6.2120   18.2896    1.2545 H   0  0  0  0  0  0  0  0  0  0  0  0
    4.9434   17.7259    0.1145 H   0  0  0  0  0  0  0  0  0  0  0  0
    5.4492   19.4495    0.1145 H   0  0  0  0  0  0  0  0  0  0  0  0
    4.0221   19.1553    3.8672 H   0  0  0  0  0  0  0  0  0  0  0  0
    4.1435   17.4418    3.3421 H   0  0  0  0  0  0  0  0  0  0  0  0
    5.6045   18.4869    3.3421 H   0  0  0  0  0  0  0  0  0  0  0  0
    1.9066   15.6614   -2.9295 H   0  0  0  0  0  0  0  0  0  0  0  0
    4.2110   15.0782   -3.3611 H   0  0  0  0  0  0  0  0  0  0  0  0
    4.7682   15.8519   -1.8618 H   0  0  0  0  0  0  0  0  0  0  0  0
    4.4859   13.0381   -2.2736 H   0  0  0  0  0  0  0  0  0  0  0  0
    4.6694   13.7909   -0.6917 H   0  0  0  0  0  0  0  0  0  0  0  0
    1.2134   12.1732   -2.4406 H   0  0  0  0  0  0  0  0  0  0  0  0
    1.5693   13.7494   -3.2251 H   0  0  0  0  0  0  0  0  0  0  0  0
    2.8060   12.4465   -3.2251 H   0  0  0  0  0  0  0  0  0  0  0  0
    2.8898   12.9132    0.6979 H   0  0  0  0  0  0  0  0  0  0  0  0
    3.7890   11.1382   -0.9408 H   0  0  0  0  0  0  0  0  0  0  0  0
    3.0794   10.6576    0.6883 H   0  0  0  0  0  0  0  0  0  0  0  0
    2.4120    9.1477   -1.3649 H   0  0  0  0  0  0  0  0  0  0  0  0
   -0.3517   12.0900   -1.3873 H   0  0  0  0  0  0  0  0  0  0  0  0
   -1.0860   10.3697    1.0622 H   0  0  0  0  0  0  0  0  0  0  0  0
   -1.9365   11.8721    0.4880 H   0  0  0  0  0  0  0  0  0  0  0  0
   -3.1564    9.8108   -0.1319 H   0  0  0  0  0  0  0  0  0  0  0  0
   -2.5897   10.7543   -1.5655 H   0  0  0  0  0  0  0  0  0  0  0  0
   -2.1955    8.4225   -1.9725 H   0  0  0  0  0  0  0  0  0  0  0  0
   -2.0150    8.0770    0.4720 H   0  0  0  0  0  0  0  0  0  0  0  0
   -1.0125   10.9276   -3.1348 H   0  0  0  0  0  0  0  0  0  0  0  0
    0.3796   10.0893   -3.9004 H   0  0  0  0  0  0  0  0  0  0  0  0
   -1.2432    9.3191   -3.9004 H   0  0  0  0  0  0  0  0  0  0  0  0
    0.7764    7.4058   -1.4062 H   0  0  0  0  0  0  0  0  0  0  0  0
   -0.1830    7.2936   -2.9207 H   0  0  0  0  0  0  0  0  0  0  0  0
    1.3989    8.1446   -2.9207 H   0  0  0  0  0  0  0  0  0  0  0  0
    0.7871   12.7571    2.5213 H   0  0  0  0  0  0  0  0  0  0  0  0
   -0.0471   11.2507    2.0098 H   0  0  0  0  0  0  0  0  0  0  0  0
    1.7475   11.3278    2.0098 H   0  0  0  0  0  0  0  0  0  0  0  0
   -0.9550   13.6956    0.3538 H   0  0  0  0  0  0  0  0  0  0  0  0
    0.5025   14.3031    1.3241 H   0  0  0  0  0  0  0  0  0  0  0  0
    0.0747   14.4741   -1.6714 H   0  0  0  0  0  0  0  0  0  0  0  0
    0.1540   15.8170   -0.4641 H   0  0  0  0  0  0  0  0  0  0  0  0
    2.1427   14.9756    1.2980 H   0  0  0  0  0  0  0  0  0  0  0  0
    3.7226   15.2249    0.4804 H   0  0  0  0  0  0  0  0  0  0  0  0
    2.4946   16.5358    0.4804 H   0  0  0  0  0  0  0  0  0  0  0  0
  1  2  1  0
  2  3  1  0
  3  4  1  0
  4  5  1  0
  5  6  1  0
  6  7  1  0
  7  8  1  0
  7  9  1  0
  2 10  1  0
 10 11  1  0
 11 12  1  0
 12 13  1  0
 13 14  1  6
 13 15  1  0
 15 16  1  0
 16 17  1  0
 17 18  2  0
 18 19  1  0
 19 20  1  0
 20 21  1  0
 21 22  1  0
 22 23  1  0
 22 24  1  0
 24 25  1  0
 24 26  1  0
 19 27  1  0
 27 28  1  1
 27 29  1  0
 29 30  1  0
 30 31  1  0
 31 32  1  1
  7  5  1  0
 31 10  1  0
 31 13  1  0
 27 15  1  0
 24 18  1  0
  1 33  1  0
  1 34  1  0
  1 35  1  0
  2 36  1  6
  3 37  1  0
  3 38  1  0
  4 39  1  0
  4 40  1  0
  5 41  1  1
  8 42  1  0
  8 43  1  0
  8 44  1  0
  9 45  1  0
  9 46  1  0
  9 47  1  0
 10 48  1  6
 11 49  1  0
 11 50  1  0
 12 51  1  0
 12 52  1  0
 14 53  1  0
 14 54  1  0
 14 55  1  0
 15 56  1  1
 16 57  1  0
 16 58  1  0
 17 59  1  0
 19 60  1  6
 20 61  1  0
 20 62  1  0
 21 63  1  0
 21 64  1  0
 22 65  1  6
 23 66  1  0
 25 67  1  0
 25 68  1  0
 25 69  1  0
 26 70  1  0
 26 71  1  0
 26 72  1  0
 28 73  1  0
 28 74  1  0
 28 75  1  0
 29 76  1  0
 29 77  1  0
 30 78  1  0
 30 79  1  0
 32 80  1  0
 32 81  1  0
 32 82  1  0
M  END
>  <meeko>  (17) 
{"is_sidechain": [false], "intermolecular_energy": 2.731, "internal_energy": -0.839}

$$$$
EPH_relaxed_0001_pdb2pqr_Repair_125_r2_0001_out
     RDKit          3D

 82 86  0  0  0  0  0  0  0  0999 V2000
    3.9250   18.2450   -2.7460 C   0  0  0  0  0  0  0  0  0  0  0  0
    2.5650   17.5460   -2.6660 C   0  0  2  0  0  0  0  0  0  0  0  0
    1.5150   18.4000   -1.9270 C   0  0  0  0  0  0  0  0  0  0  0  0
    2.0500   19.7510   -1.4440 C   0  0  0  0  0  0  0  0  0  0  0  0
    2.5540   19.6760   -0.0350 C   0  0  2  0  0  0  0  0  0  0  0  0
    2.1300   18.5150    0.6920 O   0  0  0  0  0  0  0  0  0  0  0  0
    1.6530   19.7780    1.1820 C   0  0  0  0  0  0  0  0  0  0  0  0
    0.1750   19.9660    1.0450 C   0  0  0  0  0  0  0  0  0  0  0  0
    2.2600   20.1850    2.4890 C   0  0  0  0  0  0  0  0  0  0  0  0
    2.7150   16.1940   -1.9780 C   0  0  1  0  0  0  0  0  0  0  0  0
    3.4900   16.2900   -0.6370 C   0  0  0  0  0  0  0  0  0  0  0  0
    2.8610   15.2430    0.3190 C   0  0  0  0  0  0  0  0  0  0  0  0
    1.9810   14.3600   -0.5960 C   0  0  1  0  0  0  0  0  0  0  0  0
    2.9730   13.3500   -1.2540 C   0  0  0  0  0  0  0  0  0  0  0  0
    0.7850   13.6270    0.0950 C   0  0  2  0  0  0  0  0  0  0  0  0
    1.1810   12.6120    1.1810 C   0  0  0  0  0  0  0  0  0  0  0  0
    1.3930   11.2150    0.7000 C   0  0  0  0  0  0  0  0  0  0  0  0
    0.9990   10.7290   -0.4910 C   0  0  0  0  0  0  0  0  0  0  0  0
    0.1770   11.5890   -1.4590 C   0  0  1  0  0  0  0  0  0  0  0  0
   -1.0160   10.7590   -2.0040 C   0  0  0  0  0  0  0  0  0  0  0  0
   -0.5740    9.4390   -2.6270 C   0  0  0  0  0  0  0  0  0  0  0  0
    0.1900    8.5870   -1.6170 C   0  0  2  0  0  0  0  0  0  0  0  0
   -0.7110    8.1830   -0.5800 O   0  0  0  0  0  0  0  0  0  0  0  0
    1.4090    9.3220   -0.9930 C   0  0  0  0  0  0  0  0  0  0  0  0
    2.5170    9.4910   -2.0620 C   0  0  0  0  0  0  0  0  0  0  0  0
    2.0050    8.4060    0.1100 C   0  0  0  0  0  0  0  0  0  0  0  0
   -0.2690   13.0130   -0.9140 C   0  0  1  0  0  0  0  0  0  0  0  0
   -1.6120   12.8870   -0.1320 C   0  0  0  0  0  0  0  0  0  0  0  0
   -0.5540   13.9650   -2.1350 C   0  0  0  0  0  0  0  0  0  0  0  0
    0.6460   14.7530   -2.6970 C   0  0  0  0  0  0  0  0  0  0  0  0
    1.4160   15.4540   -1.5730 C   0  0  2  0  0  0  0  0  0  0  0  0
    0.4500   16.4920   -0.9070 C   0  0  0  0  0  0  0  0  0  0  0  0
    4.2989   18.4372   -1.7295 H   0  0  0  0  0  0  0  0  0  0  0  0
    4.6371   17.6012   -3.2830 H   0  0  0  0  0  0  0  0  0  0  0  0
    3.8160   19.1988   -3.2830 H   0  0  0  0  0  0  0  0  0  0  0  0
    2.2066   17.4013   -3.6959 H   0  0  0  0  0  0  0  0  0  0  0  0
    0.6734   18.5842   -2.6109 H   0  0  0  0  0  0  0  0  0  0  0  0
    1.2131   17.8354   -1.0326 H   0  0  0  0  0  0  0  0  0  0  0  0
    2.8747   20.0634   -2.1014 H   0  0  0  0  0  0  0  0  0  0  0  0
    1.2245   20.4774   -1.4746 H   0  0  0  0  0  0  0  0  0  0  0  0
    3.4805   20.1994   -0.3135 H   0  0  0  0  0  0  0  0  0  0  0  0
   -0.2814   20.0241    2.0442 H   0  0  0  0  0  0  0  0  0  0  0  0
   -0.0268   20.8970    0.4951 H   0  0  0  0  0  0  0  0  0  0  0  0
   -0.2534   19.1151    0.4951 H   0  0  0  0  0  0  0  0  0  0  0  0
    1.6568   19.7805    3.3152 H   0  0  0  0  0  0  0  0  0  0  0  0
    3.2847   19.7907    2.5560 H   0  0  0  0  0  0  0  0  0  0  0  0
    2.2844   21.2827    2.5560 H   0  0  0  0  0  0  0  0  0  0  0  0
    3.2317   15.6379   -2.7741 H   0  0  0  0  0  0  0  0  0  0  0  0
    4.5546   16.0648   -0.7978 H   0  0  0  0  0  0  0  0  0  0  0  0
    3.4223   17.3028   -0.2132 H   0  0  0  0  0  0  0  0  0  0  0  0
    3.6431   14.6409    0.8045 H   0  0  0  0  0  0  0  0  0  0  0  0
    2.2826   15.7114    1.1290 H   0  0  0  0  0  0  0  0  0  0  0  0
    3.5123   12.8009   -0.4681 H   0  0  0  0  0  0  0  0  0  0  0  0
    2.4121   12.6394   -1.8788 H   0  0  0  0  0  0  0  0  0  0  0  0
    3.6936   13.8981   -1.8788 H   0  0  0  0  0  0  0  0  0  0  0  0
    0.2795   14.4480    0.6245 H   0  0  0  0  0  0  0  0  0  0  0  0
    2.1167   12.9577    1.6446 H   0  0  0  0  0  0  0  0  0  0  0  0
    0.3333   12.5680    1.8806 H   0  0  0  0  0  0  0  0  0  0  0  0
    1.9161   10.5238    1.3772 H   0  0  0  0  0  0  0  0  0  0  0  0
    0.8562   11.8524   -2.2832 H   0  0  0  0  0  0  0  0  0  0  0  0
   -1.7045   10.5439   -1.1735 H   0  0  0  0  0  0  0  0  0  0  0  0
   -1.5039   11.3528   -2.7910 H   0  0  0  0  0  0  0  0  0  0  0  0
   -1.4623    8.8856   -2.9657 H   0  0  0  0  0  0  0  0  0  0  0  0
    0.0906    9.6570   -3.4760 H   0  0  0  0  0  0  0  0  0  0  0  0
    0.5915    7.7164   -2.1563 H   0  0  0  0  0  0  0  0  0  0  0  0
   -0.2190    7.6050    0.0270 H   0  0  0  0  0  0  0  0  0  0  0  0
    3.4869    9.6389   -1.5646 H   0  0  0  0  0  0  0  0  0  0  0  0
    2.5609    8.5892   -2.6903 H   0  0  0  0  0  0  0  0  0  0  0  0
    2.2901   10.3649   -2.6903 H   0  0  0  0  0  0  0  0  0  0  0  0
    1.7440    8.8072    1.1004 H   0  0  0  0  0  0  0  0  0  0  0  0
    1.5938    7.3911    0.0055 H   0  0  0  0  0  0  0  0  0  0  0  0
    3.0995    8.3708    0.0055 H   0  0  0  0  0  0  0  0  0  0  0  0
   -1.4100   12.9060    0.9491 H   0  0  0  0  0  0  0  0  0  0  0  0
   -2.2707   13.7273   -0.3967 H   0  0  0  0  0  0  0  0  0  0  0  0
   -2.1029   11.9389   -0.3967 H   0  0  0  0  0  0  0  0  0  0  0  0
   -0.9583   13.3478   -2.9509 H   0  0  0  0  0  0  0  0  0  0  0  0
   -1.2448   14.7291   -1.7491 H   0  0  0  0  0  0  0  0  0  0  0  0
    1.3215   14.0577   -3.2168 H   0  0  0  0  0  0  0  0  0  0  0  0
    0.2693   15.5165   -3.3935 H   0  0  0  0  0  0  0  0  0  0  0  0
    0.5243   16.4122    0.1876 H   0  0  0  0  0  0  0  0  0  0  0  0
    0.7312   17.5082   -1.2205 H   0  0  0  0  0  0  0  0  0  0  0  0
   -0.5838   16.2845   -1.2205 H   0  0  0  0  0  0  0  0  0  0  0  0
  1  2  1  0
  2  3  1  0
  3  4  1  0
  4  5  1  0
  5  6  1  0
  6  7  1  0
  7  8  1  0
  7  9  1  0
  2 10  1  0
 10 11  1  0
 11 12  1  0
 12 13  1  0
 13 14  1  6
 13 15  1  0
 15 16  1  0
 16 17  1  0
 17 18  2  0
 18 19  1  0
 19 20  1  0
 20 21  1  0
 21 22  1  0
 22 23  1  0
 22 24  1  0
 24 25  1  0
 24 26  1  0
 19 27  1  0
 27 28  1  1
 27 29  1  0
 29 30  1  0
 30 31  1  0
 31 32  1  1
  7  5  1  0
 31 10  1  0
 31 13  1  0
 27 15  1  0
 24 18  1  0
  1 33  1  0
  1 34  1  0
  1 35  1  0
  2 36  1  6
  3 37  1  0
  3 38  1  0
  4 39  1  0
  4 40  1  0
  5 41  1  1
  8 42  1  0
  8 43  1  0
  8 44  1  0
  9 45  1  0
  9 46  1  0
  9 47  1  0
 10 48  1  6
 11 49  1  0
 11 50  1  0
 12 51  1  0
 12 52  1  0
 14 53  1  0
 14 54  1  0
 14 55  1  0
 15 56  1  1
 16 57  1  0
 16 58  1  0
 17 59  1  0
 19 60  1  6
 20 61  1  0
 20 62  1  0
 21 63  1  0
 21 64  1  0
 22 65  1  6
 23 66  1  0
 25 67  1  0
 25 68  1  0
 25 69  1  0
 26 70  1  0
 26 71  1  0
 26 72  1  0
 28 73  1  0
 28 74  1  0
 28 75  1  0
 29 76  1  0
 29 77  1  0
 30 78  1  0
 30 79  1  0
 32 80  1  0
 32 81  1  0
 32 82  1  0
M  END
>  <meeko>  (18) 
{"is_sidechain": [false], "intermolecular_energy": 2.731, "internal_energy": -0.839}

$$$$
EPH_relaxed_0001_pdb2pqr_Repair_125_r2_0001_out
     RDKit          3D

 82 86  0  0  0  0  0  0  0  0999 V2000
    0.8770    8.8740   -0.1340 C   0  0  0  0  0  0  0  0  0  0  0  0
   -0.1790    9.9450   -0.4220 C   0  0  2  0  0  0  0  0  0  0  0  0
   -1.3810    9.3790   -1.2060 C   0  0  0  0  0  0  0  0  0  0  0  0
   -2.7130    9.4970   -0.4610 C   0  0  0  0  0  0  0  0  0  0  0  0
   -3.5410    8.2560   -0.6050 C   0  0  2  0  0  0  0  0  0  0  0  0
   -3.8240    7.8800   -1.9590 O   0  0  0  0  0  0  0  0  0  0  0  0
   -4.9550    8.2540   -1.1560 C   0  0  0  0  0  0  0  0  0  0  0  0
   -5.6230    9.5180   -1.5970 C   0  0  0  0  0  0  0  0  0  0  0  0
   -5.8540    7.1080   -0.8110 C   0  0  0  0  0  0  0  0  0  0  0  0
    0.4480   11.1000   -1.1930 C   0  0  1  0  0  0  0  0  0  0  0  0
    0.1690   11.0230   -2.7180 C   0  0  0  0  0  0  0  0  0  0  0  0
    0.0180   12.4820   -3.2200 C   0  0  0  0  0  0  0  0  0  0  0  0
    0.5380   13.3520   -2.0520 C   0  0  1  0  0  0  0  0  0  0  0  0
    2.0920   13.3300   -2.1970 C   0  0  0  0  0  0  0  0  0  0  0  0
   -0.0140   14.8130   -1.9790 C   0  0  2  0  0  0  0  0  0  0  0  0
    0.3390   15.7050   -3.1820 C   0  0  0  0  0  0  0  0  0  0  0  0
    1.6090   16.4780   -3.0520 C   0  0  0  0  0  0  0  0  0  0  0  0
    2.2870   16.6800   -1.9070 C   0  0  0  0  0  0  0  0  0  0  0  0
    1.7320   16.1880   -0.5650 C   0  0  1  0  0  0  0  0  0  0  0  0
    1.8550   17.3170    0.4920 C   0  0  0  0  0  0  0  0  0  0  0  0
    3.2770   17.8540    0.6120 C   0  0  0  0  0  0  0  0  0  0  0  0
    3.7730   18.3880   -0.7300 C   0  0  2  0  0  0  0  0  0  0  0  0
    3.0060   19.5450   -1.0770 O   0  0  0  0  0  0  0  0  0  0  0  0
    3.6880   17.3410   -1.8750 C   0  0  0  0  0  0  0  0  0  0  0  0
    4.7440   16.2310   -1.6450 C   0  0  0  0  0  0  0  0  0  0  0  0
    4.0830   18.0490   -3.1990 C   0  0  0  0  0  0  0  0  0  0  0  0
    0.2780   15.5490   -0.6090 C   0  0  1  0  0  0  0  0  0  0  0  0
   -0.8000   16.6670   -0.4660 C   0  0  0  0  0  0  0  0  0  0  0  0
    0.0960   14.5960    0.6320 C   0  0  0  0  0  0  0  0  0  0  0  0
    0.5510   13.1350    0.4580 C   0  0  0  0  0  0  0  0  0  0  0  0
   -0.0170   12.5330   -0.8300 C   0  0  2  0  0  0  0  0  0  0  0  0
   -1.5790   12.5210   -0.7040 C   0  0  0  0  0  0  0  0  0  0  0  0
    0.9929    8.7565    0.9535 H   0  0  0  0  0  0  0  0  0  0  0  0
    0.5588    7.9175   -0.5743 H   0  0  0  0  0  0  0  0  0  0  0  0
    1.8379    9.1787   -0.5743 H   0  0  0  0  0  0  0  0  0  0  0  0
   -0.5562   10.3062    0.5461 H   0  0  0  0  0  0  0  0  0  0  0  0
   -1.4649    9.9270   -2.1561 H   0  0  0  0  0  0  0  0  0  0  0  0
   -1.1905    8.3060   -1.3554 H   0  0  0  0  0  0  0  0  0  0  0  0
   -2.5103    9.6684    0.6065 H   0  0  0  0  0  0  0  0  0  0  0  0
   -3.2755   10.3366   -0.8954 H   0  0  0  0  0  0  0  0  0  0  0  0
   -3.1052    7.8295    0.3105 H   0  0  0  0  0  0  0  0  0  0  0  0
   -5.9295   10.0980   -0.7141 H   0  0  0  0  0  0  0  0  0  0  0  0
   -4.9212   10.1123   -2.2006 H   0  0  0  0  0  0  0  0  0  0  0  0
   -6.5094    9.2730   -2.2006 H   0  0  0  0  0  0  0  0  0  0  0  0
   -5.9267    7.0153    0.2827 H   0  0  0  0  0  0  0  0  0  0  0  0
   -6.8546    7.2876   -1.2311 H   0  0  0  0  0  0  0  0  0  0  0  0
   -5.4413    6.1789   -1.2311 H   0  0  0  0  0  0  0  0  0  0  0  0
    1.5011   10.9617   -0.9068 H   0  0  0  0  0  0  0  0  0  0  0  0
    1.0076   10.5306   -3.2320 H   0  0  0  0  0  0  0  0  0  0  0  0
   -0.7399   10.4387   -2.9239 H   0  0  0  0  0  0  0  0  0  0  0  0
    0.6216   12.6458   -4.1249 H   0  0  0  0  0  0  0  0  0  0  0  0
   -1.0201   12.7247   -3.4910 H   0  0  0  0  0  0  0  0  0  0  0  0
    2.5534   13.3235   -1.1985 H   0  0  0  0  0  0  0  0  0  0  0  0
    2.3962   12.4275   -2.7474 H   0  0  0  0  0  0  0  0  0  0  0  0
    2.4216   14.2236   -2.7474 H   0  0  0  0  0  0  0  0  0  0  0  0
   -1.1015   14.6564   -2.0318 H   0  0  0  0  0  0  0  0  0  0  0  0
    0.4226   15.0608   -4.0697 H   0  0  0  0  0  0  0  0  0  0  0  0
   -0.4656   16.4517   -3.2534 H   0  0  0  0  0  0  0  0  0  0  0  0
    2.0260   16.9198   -3.9690 H   0  0  0  0  0  0  0  0  0  0  0  0
    2.3589   15.3330   -0.2718 H   0  0  0  0  0  0  0  0  0  0  0  0
    1.1891   18.1438    0.2038 H   0  0  0  0  0  0  0  0  0  0  0  0
    1.5752   16.8927    1.4675 H   0  0  0  0  0  0  0  0  0  0  0  0
    3.2933   18.6680    1.3517 H   0  0  0  0  0  0  0  0  0  0  0  0
    3.9370   17.0332    0.9292 H   0  0  0  0  0  0  0  0  0  0  0  0
    4.8378   18.6379   -0.6130 H   0  0  0  0  0  0  0  0  0  0  0  0
    2.1650   19.2370   -1.4550 H   0  0  0  0  0  0  0  0  0  0  0  0
    4.8878   16.0798   -0.5650 H   0  0  0  0  0  0  0  0  0  0  0  0
    4.3963   15.2935   -2.1034 H   0  0  0  0  0  0  0  0  0  0  0  0
    5.6977   16.5316   -2.1034 H   0  0  0  0  0  0  0  0  0  0  0  0
    4.6072   18.9886   -2.9701 H   0  0  0  0  0  0  0  0  0  0  0  0
    4.7452   17.3924   -3.7825 H   0  0  0  0  0  0  0  0  0  0  0  0
    3.1765   18.2676   -3.7825 H   0  0  0  0  0  0  0  0  0  0  0  0
   -0.9874   16.8614    0.6003 H   0  0  0  0  0  0  0  0  0  0  0  0
   -0.4399   17.5875   -0.9487 H   0  0  0  0  0  0  0  0  0  0  0  0
   -1.7330   16.3407   -0.9487 H   0  0  0  0  0  0  0  0  0  0  0  0
    0.6677   15.0253    1.4680 H   0  0  0  0  0  0  0  0  0  0  0  0
   -0.9903   14.5416    0.7964 H   0  0  0  0  0  0  0  0  0  0  0  0
    1.6497   13.1030    0.4160 H   0  0  0  0  0  0  0  0  0  0  0  0
    0.1807   12.5486    1.3119 H   0  0  0  0  0  0  0  0  0  0  0  0
   -1.8611   12.5188    0.3592 H   0  0  0  0  0  0  0  0  0  0  0  0
   -1.9931   13.4160   -1.1914 H   0  0  0  0  0  0  0  0  0  0  0  0
   -1.9793   11.6198   -1.1914 H   0  0  0  0  0  0  0  0  0  0  0  0
  1  2  1  0
  2  3  1  0
  3  4  1  0
  4  5  1  0
  5  6  1  0
  6  7  1  0
  7  8  1  0
  7  9  1  0
  2 10  1  0
 10 11  1  0
 11 12  1  0
 12 13  1  0
 13 14  1  1
 13 15  1  0
 15 16  1  0
 16 17  1  0
 17 18  2  0
 18 19  1  0
 19 20  1  0
 20 21  1  0
 21 22  1  0
 22 23  1  0
 22 24  1  0
 24 25  1  0
 24 26  1  0
 19 27  1  0
 27 28  1  1
 27 29  1  0
 29 30  1  0
 30 31  1  0
 31 32  1  1
  7  5  1  0
 31 10  1  0
 31 13  1  0
 27 15  1  0
 24 18  1  0
  1 33  1  0
  1 34  1  0
  1 35  1  0
  2 36  1  1
  3 37  1  0
  3 38  1  0
  4 39  1  0
  4 40  1  0
  5 41  1  1
  8 42  1  0
  8 43  1  0
  8 44  1  0
  9 45  1  0
  9 46  1  0
  9 47  1  0
 10 48  1  6
 11 49  1  0
 11 50  1  0
 12 51  1  0
 12 52  1  0
 14 53  1  0
 14 54  1  0
 14 55  1  0
 15 56  1  1
 16 57  1  0
 16 58  1  0
 17 59  1  0
 19 60  1  1
 20 61  1  0
 20 62  1  0
 21 63  1  0
 21 64  1  0
 22 65  1  1
 23 66  1  0
 25 67  1  0
 25 68  1  0
 25 69  1  0
 26 70  1  0
 26 71  1  0
 26 72  1  0
 28 73  1  0
 28 74  1  0
 28 75  1  0
 29 76  1  0
 29 77  1  0
 30 78  1  0
 30 79  1  0
 32 80  1  0
 32 81  1  0
 32 82  1  0
M  END
>  <meeko>  (19) 
{"is_sidechain": [false], "intermolecular_energy": 2.731, "internal_energy": -0.839}

$$$$
