EPH_relaxed_0001_pdb2pqr_Repair_93_r2_0001_out
     RDKit          3D

 82 86  0  0  0  0  0  0  0  0999 V2000
   -1.5640    8.5370   -1.7690 C   0  0  0  0  0  0  0  0  0  0  0  0
   -1.9790    9.1260   -0.4180 C   0  0  2  0  0  0  0  0  0  0  0  0
   -3.4690    9.5190   -0.3890 C   0  0  0  0  0  0  0  0  0  0  0  0
   -4.4190    8.3240   -0.2740 C   0  0  0  0  0  0  0  0  0  0  0  0
   -5.0610    7.9980   -1.5890 C   0  0  2  0  0  0  0  0  0  0  0  0
   -6.3240    8.6370   -1.8130 O   0  0  0  0  0  0  0  0  0  0  0  0
   -6.3470    7.2040   -1.7180 C   0  0  0  0  0  0  0  0  0  0  0  0
   -7.0680    6.6850   -0.5140 C   0  0  0  0  0  0  0  0  0  0  0  0
   -6.6370    6.5180   -3.0170 C   0  0  0  0  0  0  0  0  0  0  0  0
   -1.1140   10.3370   -0.0910 C   0  0  1  0  0  0  0  0  0  0  0  0
   -0.0390   10.0310    0.9860 C   0  0  0  0  0  0  0  0  0  0  0  0
    1.2130   10.8690    0.6190 C   0  0  0  0  0  0  0  0  0  0  0  0
    0.7140   11.8690   -0.4490 C   0  0  1  0  0  0  0  0  0  0  0  0
    0.0310   13.0150    0.3620 C   0  0  0  0  0  0  0  0  0  0  0  0
    1.7940   12.4250   -1.4340 C   0  0  2  0  0  0  0  0  0  0  0  0
    2.9180   13.2430   -0.7750 C   0  0  0  0  0  0  0  0  0  0  0  0
    2.6620   14.7110   -0.6730 C   0  0  0  0  0  0  0  0  0  0  0  0
    1.7100   15.3870   -1.3410 C   0  0  0  0  0  0  0  0  0  0  0  0
    0.8290   14.6850   -2.3820 C   0  0  1  0  0  0  0  0  0  0  0  0
    0.7480   15.5560   -3.6640 C   0  0  0  0  0  0  0  0  0  0  0  0
    0.2870   16.9810   -3.3750 C   0  0  0  0  0  0  0  0  0  0  0  0
    1.2200   17.6650   -2.3800 C   0  0  2  0  0  0  0  0  0  0  0  0
    2.4990   17.8460   -2.9960 O   0  0  0  0  0  0  0  0  0  0  0  0
    1.3870   16.8740   -1.0520 C   0  0  0  0  0  0  0  0  0  0  0  0
    0.0710   16.9370   -0.2390 C   0  0  0  0  0  0  0  0  0  0  0  0
    2.4610   17.5990   -0.1960 C   0  0  0  0  0  0  0  0  0  0  0  0
    1.1980   13.1710   -2.6950 C   0  0  1  0  0  0  0  0  0  0  0  0
    2.2900   13.1090   -3.8070 C   0  0  0  0  0  0  0  0  0  0  0  0
   -0.0700   12.4430   -3.2780 C   0  0  0  0  0  0  0  0  0  0  0  0
   -1.0380   11.8110   -2.2590 C   0  0  0  0  0  0  0  0  0  0  0  0
   -0.2800   10.9480   -1.2460 C   0  0  2  0  0  0  0  0  0  0  0  0
    0.4000    9.7740   -2.0300 C   0  0  0  0  0  0  0  0  0  0  0  0
   -0.9376    7.6479   -1.6045 H   0  0  0  0  0  0  0  0  0  0  0  0
   -2.4624    8.2527   -2.3366 H   0  0  0  0  0  0  0  0  0  0  0  0
   -0.9939    9.2873   -2.3366 H   0  0  0  0  0  0  0  0  0  0  0  0
   -1.8289    8.3461    0.3430 H   0  0  0  0  0  0  0  0  0  0  0  0
   -3.6369   10.1803    0.4738 H   0  0  0  0  0  0  0  0  0  0  0  0
   -3.6895   10.0137   -1.3464 H   0  0  0  0  0  0  0  0  0  0  0  0
   -3.8502    7.4483    0.0719 H   0  0  0  0  0  0  0  0  0  0  0  0
   -5.2137    8.5850    0.4404 H   0  0  0  0  0  0  0  0  0  0  0  0
   -4.0773    7.8922   -2.0698 H   0  0  0  0  0  0  0  0  0  0  0  0
   -6.5674    7.0454    0.3968 H   0  0  0  0  0  0  0  0  0  0  0  0
   -8.1080    7.0430   -0.5268 H   0  0  0  0  0  0  0  0  0  0  0  0
   -7.0586    5.5851   -0.5268 H   0  0  0  0  0  0  0  0  0  0  0  0
   -7.0583    5.5213   -2.8192 H   0  0  0  0  0  0  0  0  0  0  0  0
   -7.3601    7.1141   -3.5930 H   0  0  0  0  0  0  0  0  0  0  0  0
   -5.7056    6.4146   -3.5930 H   0  0  0  0  0  0  0  0  0  0  0  0
   -1.8969   11.0430    0.2230 H   0  0  0  0  0  0  0  0  0  0  0  0
   -0.4081   10.3176    1.9818 H   0  0  0  0  0  0  0  0  0  0  0  0
    0.1984    8.9573    1.0132 H   0  0  0  0  0  0  0  0  0  0  0  0
    1.5956   11.4024    1.5017 H   0  0  0  0  0  0  0  0  0  0  0  0
    2.0400   10.2439    0.2510 H   0  0  0  0  0  0  0  0  0  0  0  0
    0.1464   12.8214    1.4387 H   0  0  0  0  0  0  0  0  0  0  0  0
    0.5042   13.9753    0.1094 H   0  0  0  0  0  0  0  0  0  0  0  0
   -1.0388   13.0557    0.1094 H   0  0  0  0  0  0  0  0  0  0  0  0
    2.2718   11.5059   -1.8042 H   0  0  0  0  0  0  0  0  0  0  0  0
    3.0709   12.8530    0.2421 H   0  0  0  0  0  0  0  0  0  0  0  0
    3.7977   13.1316   -1.4259 H   0  0  0  0  0  0  0  0  0  0  0  0
    3.3067   15.2883    0.0060 H   0  0  0  0  0  0  0  0  0  0  0  0
   -0.1685   14.5973   -1.9268 H   0  0  0  0  0  0  0  0  0  0  0  0
    1.7449   15.5951   -4.1273 H   0  0  0  0  0  0  0  0  0  0  0  0
    0.0077   15.0951   -4.3345 H   0  0  0  0  0  0  0  0  0  0  0  0
    0.2793   17.5542   -4.3138 H   0  0  0  0  0  0  0  0  0  0  0  0
   -0.7225   16.9419   -2.9398 H   0  0  0  0  0  0  0  0  0  0  0  0
    0.7666   18.6314   -2.1143 H   0  0  0  0  0  0  0  0  0  0  0  0
    2.8900   16.9650   -3.1260 H   0  0  0  0  0  0  0  0  0  0  0  0
    0.3033   16.9259    0.8361 H   0  0  0  0  0  0  0  0  0  0  0  0
   -0.4697   17.8621   -0.4877 H   0  0  0  0  0  0  0  0  0  0  0  0
   -0.5556   16.0678   -0.4877 H   0  0  0  0  0  0  0  0  0  0  0  0
    2.2408   17.4503    0.8714 H   0  0  0  0  0  0  0  0  0  0  0  0
    3.4540   17.1857   -0.4266 H   0  0  0  0  0  0  0  0  0  0  0  0
    2.4490   18.6745   -0.4266 H   0  0  0  0  0  0  0  0  0  0  0  0
    3.2849   13.0525   -3.3412 H   0  0  0  0  0  0  0  0  0  0  0  0
    2.1267   12.2187   -4.4320 H   0  0  0  0  0  0  0  0  0  0  0  0
    2.2285   14.0121   -4.4320 H   0  0  0  0  0  0  0  0  0  0  0  0
   -0.6380   13.1813   -3.8630 H   0  0  0  0  0  0  0  0  0  0  0  0
    0.3257   11.5985   -3.8613 H   0  0  0  0  0  0  0  0  0  0  0  0
   -1.5698   12.6113   -1.7235 H   0  0  0  0  0  0  0  0  0  0  0  0
   -1.7502   11.1717   -2.8013 H   0  0  0  0  0  0  0  0  0  0  0  0
    0.8192    9.0503   -1.3155 H   0  0  0  0  0  0  0  0  0  0  0  0
   -0.3481    9.2736   -2.6624 H   0  0  0  0  0  0  0  0  0  0  0  0
    1.2063   10.1739   -2.6624 H   0  0  0  0  0  0  0  0  0  0  0  0
  1  2  1  0
  2  3  1  0
  3  4  1  0
  4  5  1  0
  5  6  1  0
  6  7  1  0
  7  8  1  0
  7  9  1  0
  2 10  1  0
 10 11  1  0
 11 12  1  0
 12 13  1  0
 13 14  1  1
 13 15  1  0
 15 16  1  0
 16 17  1  0
 17 18  2  0
 18 19  1  0
 19 20  1  0
 20 21  1  0
 21 22  1  0
 22 23  1  0
 22 24  1  0
 24 25  1  0
 24 26  1  0
 19 27  1  0
 27 28  1  6
 27 29  1  0
 29 30  1  0
 30 31  1  0
 31 32  1  6
  7  5  1  0
 31 10  1  0
 31 13  1  0
 27 15  1  0
 24 18  1  0
  1 33  1  0
  1 34  1  0
  1 35  1  0
  2 36  1  1
  3 37  1  0
  3 38  1  0
  4 39  1  0
  4 40  1  0
  5 41  1  6
  8 42  1  0
  8 43  1  0
  8 44  1  0
  9 45  1  0
  9 46  1  0
  9 47  1  0
 10 48  1  1
 11 49  1  0
 11 50  1  0
 12 51  1  0
 12 52  1  0
 14 53  1  0
 14 54  1  0
 14 55  1  0
 15 56  1  6
 16 57  1  0
 16 58  1  0
 17 59  1  0
 19 60  1  1
 20 61  1  0
 20 62  1  0
 21 63  1  0
 21 64  1  0
 22 65  1  1
 23 66  1  0
 25 67  1  0
 25 68  1  0
 25 69  1  0
 26 70  1  0
 26 71  1  0
 26 72  1  0
 28 73  1  0
 28 74  1  0
 28 75  1  0
 29 76  1  0
 29 77  1  0
 30 78  1  0
 30 79  1  0
 32 80  1  0
 32 81  1  0
 32 82  1  0
M  END
>  <meeko>  (1) 
{"is_sidechain": [false], "intermolecular_energy": 2.731, "internal_energy": -0.839}

$$$$
EPH_relaxed_0001_pdb2pqr_Repair_93_r2_0001_out
     RDKit          3D

 82 86  0  0  0  0  0  0  0  0999 V2000
    4.2660   17.5340   -0.6520 C   0  0  0  0  0  0  0  0  0  0  0  0
    2.9050   18.1170   -0.2620 C   0  0  2  0  0  0  0  0  0  0  0  0
    2.9510   18.8410    1.0990 C   0  0  0  0  0  0  0  0  0  0  0  0
    4.2960   18.7130    1.8180 C   0  0  0  0  0  0  0  0  0  0  0  0
    4.2310   19.2500    3.2160 C   0  0  2  0  0  0  0  0  0  0  0  0
    5.2580   20.1940    3.5430 O   0  0  0  0  0  0  0  0  0  0  0  0
    5.2780   18.9580    4.2750 C   0  0  0  0  0  0  0  0  0  0  0  0
    6.4650   18.0950    3.9810 C   0  0  0  0  0  0  0  0  0  0  0  0
    4.8980   19.1040    5.7150 C   0  0  0  0  0  0  0  0  0  0  0  0
    1.8560   17.0120   -0.2290 C   0  0  1  0  0  0  0  0  0  0  0  0
    0.4230   17.5390   -0.5090 C   0  0  0  0  0  0  0  0  0  0  0  0
   -0.3160   16.4280   -1.2970 C   0  0  0  0  0  0  0  0  0  0  0  0
    0.5890   15.1820   -1.1570 C   0  0  1  0  0  0  0  0  0  0  0  0
    0.2450   14.5910    0.2460 C   0  0  0  0  0  0  0  0  0  0  0  0
    0.4630   14.1050   -2.2830 C   0  0  2  0  0  0  0  0  0  0  0  0
   -0.9220   13.4430   -2.4010 C   0  0  0  0  0  0  0  0  0  0  0  0
   -1.1080   12.2060   -1.5860 C   0  0  0  0  0  0  0  0  0  0  0  0
   -0.1220   11.4890   -1.0160 C   0  0  0  0  0  0  0  0  0  0  0  0
    1.3510   11.8510   -1.2480 C   0  0  1  0  0  0  0  0  0  0  0  0
    2.1530   10.5670   -1.5820 C   0  0  0  0  0  0  0  0  0  0  0  0
    1.9790    9.4770   -0.5290 C   0  0  0  0  0  0  0  0  0  0  0  0
    0.5080    9.1030   -0.3680 C   0  0  2  0  0  0  0  0  0  0  0  0
    0.0570    8.4780   -1.5740 O   0  0  0  0  0  0  0  0  0  0  0  0
   -0.4010   10.3200   -0.0390 C   0  0  0  0  0  0  0  0  0  0  0  0
   -0.1120   10.8110    1.4010 C   0  0  0  0  0  0  0  0  0  0  0  0
   -1.8740    9.8310   -0.0430 C   0  0  0  0  0  0  0  0  0  0  0  0
    1.6210   13.0270   -2.2830 C   0  0  1  0  0  0  0  0  0  0  0  0
    1.6960   12.4530   -3.7310 C   0  0  0  0  0  0  0  0  0  0  0  0
    3.0300   13.6620   -1.9830 C   0  0  0  0  0  0  0  0  0  0  0  0
    3.0710   14.8030   -0.9480 C   0  0  0  0  0  0  0  0  0  0  0  0
    2.0050   15.8590   -1.2530 C   0  0  2  0  0  0  0  0  0  0  0  0
    2.3380   16.4870   -2.6490 C   0  0  0  0  0  0  0  0  0  0  0  0
    4.8347   17.2904    0.2575 H   0  0  0  0  0  0  0  0  0  0  0  0
    4.1169   16.6208   -1.2468 H   0  0  0  0  0  0  0  0  0  0  0  0
    4.8242   18.2720   -1.2468 H   0  0  0  0  0  0  0  0  0  0  0  0
    2.6348   18.8633   -1.0236 H   0  0  0  0  0  0  0  0  0  0  0  0
    2.7468   19.9088    0.9315 H   0  0  0  0  0  0  0  0  0  0  0  0
    2.1958   18.3655    1.7421 H   0  0  0  0  0  0  0  0  0  0  0  0
    4.5797   17.6509    1.8570 H   0  0  0  0  0  0  0  0  0  0  0  0
    5.0403   19.2997    1.2597 H   0  0  0  0  0  0  0  0  0  0  0  0
    3.1341   19.1681    3.2210 H   0  0  0  0  0  0  0  0  0  0  0  0
    6.9206   17.7638    4.9259 H   0  0  0  0  0  0  0  0  0  0  0  0
    6.1453   17.2170    3.4005 H   0  0  0  0  0  0  0  0  0  0  0  0
    7.2016   18.6699    3.4005 H   0  0  0  0  0  0  0  0  0  0  0  0
    5.7365   18.7818    6.3500 H   0  0  0  0  0  0  0  0  0  0  0  0
    4.6612   20.1571    5.9268 H   0  0  0  0  0  0  0  0  0  0  0  0
    4.0170   18.4803    5.9268 H   0  0  0  0  0  0  0  0  0  0  0  0
    2.0198   16.6335    0.7907 H   0  0  0  0  0  0  0  0  0  0  0  0
   -0.0978   17.7418    0.4384 H   0  0  0  0  0  0  0  0  0  0  0  0
    0.4523   18.4772   -1.0826 H   0  0  0  0  0  0  0  0  0  0  0  0
   -1.3083   16.2380   -0.8620 H   0  0  0  0  0  0  0  0  0  0  0  0
   -0.4852   16.7045   -2.3482 H   0  0  0  0  0  0  0  0  0  0  0  0
    0.6332   15.2579    1.0300 H   0  0  0  0  0  0  0  0  0  0  0  0
   -0.8465   14.5011    0.3484 H   0  0  0  0  0  0  0  0  0  0  0  0
    0.7059   13.5975    0.3484 H   0  0  0  0  0  0  0  0  0  0  0  0
    0.5866   14.7047   -3.1968 H   0  0  0  0  0  0  0  0  0  0  0  0
   -1.6777   14.1765   -2.0832 H   0  0  0  0  0  0  0  0  0  0  0  0
   -1.0235   13.1338   -3.4518 H   0  0  0  0  0  0  0  0  0  0  0  0
   -2.1385   11.8504   -1.4389 H   0  0  0  0  0  0  0  0  0  0  0  0
    1.7119   12.2801   -0.3016 H   0  0  0  0  0  0  0  0  0  0  0  0
    1.8084   10.1785   -2.5517 H   0  0  0  0  0  0  0  0  0  0  0  0
    3.2189   10.8372   -1.6093 H   0  0  0  0  0  0  0  0  0  0  0  0
    2.5454    8.5856   -0.8367 H   0  0  0  0  0  0  0  0  0  0  0  0
    2.3519    9.8566    0.4338 H   0  0  0  0  0  0  0  0  0  0  0  0
    0.4339    8.4158    0.4877 H   0  0  0  0  0  0  0  0  0  0  0  0
    0.6800    8.7190   -2.2810 H   0  0  0  0  0  0  0  0  0  0  0  0
   -0.5327   10.0962    2.1235 H   0  0  0  0  0  0  0  0  0  0  0  0
    0.9750   10.8872    1.5512 H   0  0  0  0  0  0  0  0  0  0  0  0
   -0.5730   11.7984    1.5512 H   0  0  0  0  0  0  0  0  0  0  0  0
   -2.2245    9.7146    0.9931 H   0  0  0  0  0  0  0  0  0  0  0  0
   -2.5037   10.5683   -0.5625 H   0  0  0  0  0  0  0  0  0  0  0  0
   -1.9377    8.8635   -0.5625 H   0  0  0  0  0  0  0  0  0  0  0  0
    1.8384   11.3632   -3.6865 H   0  0  0  0  0  0  0  0  0  0  0  0
    0.7607   12.6791   -4.2640 H   0  0  0  0  0  0  0  0  0  0  0  0
    2.5418   12.9118   -4.2640 H   0  0  0  0  0  0  0  0  0  0  0  0
    3.6866   12.8582   -1.6186 H   0  0  0  0  0  0  0  0  0  0  0  0
    3.3468   14.1214   -2.9310 H   0  0  0  0  0  0  0  0  0  0  0  0
    2.8887   14.3867    0.0537 H   0  0  0  0  0  0  0  0  0  0  0  0
    4.0607   15.2811   -0.9924 H   0  0  0  0  0  0  0  0  0  0  0  0
    2.8489   17.4505   -2.5052 H   0  0  0  0  0  0  0  0  0  0  0  0
    2.9930   15.8050   -3.2110 H   0  0  0  0  0  0  0  0  0  0  0  0
    1.4060   16.6465   -3.2110 H   0  0  0  0  0  0  0  0  0  0  0  0
  1  2  1  0
  2  3  1  0
  3  4  1  0
  4  5  1  0
  5  6  1  0
  6  7  1  0
  7  8  1  0
  7  9  1  0
  2 10  1  0
 10 11  1  0
 11 12  1  0
 12 13  1  0
 13 14  1  1
 13 15  1  0
 15 16  1  0
 16 17  1  0
 17 18  2  0
 18 19  1  0
 19 20  1  0
 20 21  1  0
 21 22  1  0
 22 23  1  0
 22 24  1  0
 24 25  1  0
 24 26  1  0
 19 27  1  0
 27 28  1  6
 27 29  1  0
 29 30  1  0
 30 31  1  0
 31 32  1  6
  7  5  1  0
 31 10  1  0
 31 13  1  0
 27 15  1  0
 24 18  1  0
  1 33  1  0
  1 34  1  0
  1 35  1  0
  2 36  1  6
  3 37  1  0
  3 38  1  0
  4 39  1  0
  4 40  1  0
  5 41  1  1
  8 42  1  0
  8 43  1  0
  8 44  1  0
  9 45  1  0
  9 46  1  0
  9 47  1  0
 10 48  1  1
 11 49  1  0
 11 50  1  0
 12 51  1  0
 12 52  1  0
 14 53  1  0
 14 54  1  0
 14 55  1  0
 15 56  1  6
 16 57  1  0
 16 58  1  0
 17 59  1  0
 19 60  1  1
 20 61  1  0
 20 62  1  0
 21 63  1  0
 21 64  1  0
 22 65  1  1
 23 66  1  0
 25 67  1  0
 25 68  1  0
 25 69  1  0
 26 70  1  0
 26 71  1  0
 26 72  1  0
 28 73  1  0
 28 74  1  0
 28 75  1  0
 29 76  1  0
 29 77  1  0
 30 78  1  0
 30 79  1  0
 32 80  1  0
 32 81  1  0
 32 82  1  0
M  END
>  <meeko>  (2) 
{"is_sidechain": [false], "intermolecular_energy": 2.731, "internal_energy": -0.839}

$$$$
EPH_relaxed_0001_pdb2pqr_Repair_93_r2_0001_out
     RDKit          3D

 82 86  0  0  0  0  0  0  0  0999 V2000
    0.4010   18.3950   -0.0210 C   0  0  0  0  0  0  0  0  0  0  0  0
    1.4950   17.3500   -0.2560 C   0  0  2  0  0  0  0  0  0  0  0  0
    2.6940   17.9290   -1.0330 C   0  0  0  0  0  0  0  0  0  0  0  0
    3.9250   18.1890   -0.1600 C   0  0  0  0  0  0  0  0  0  0  0  0
    3.5430   18.6560    1.2120 C   0  0  2  0  0  0  0  0  0  0  0  0
    3.8020   20.0430    1.4660 O   0  0  0  0  0  0  0  0  0  0  0  0
    4.5510   19.1040    2.2540 C   0  0  0  0  0  0  0  0  0  0  0  0
    6.0200   19.1040    1.9690 C   0  0  0  0  0  0  0  0  0  0  0  0
    4.1500   19.0730    3.6960 C   0  0  0  0  0  0  0  0  0  0  0  0
    0.9180   16.1530   -1.0040 C   0  0  1  0  0  0  0  0  0  0  0  0
    0.7880   16.4080   -2.5290 C   0  0  0  0  0  0  0  0  0  0  0  0
    1.0750   15.0580   -3.2340 C   0  0  0  0  0  0  0  0  0  0  0  0
    1.0310   14.0080   -2.0990 C   0  0  1  0  0  0  0  0  0  0  0  0
   -0.4870   13.7160   -1.8810 C   0  0  0  0  0  0  0  0  0  0  0  0
    1.8420   12.6940   -2.3420 C   0  0  2  0  0  0  0  0  0  0  0  0
    1.3700   11.8460   -3.5360 C   0  0  0  0  0  0  0  0  0  0  0  0
    0.3370   10.8170   -3.2180 C   0  0  0  0  0  0  0  0  0  0  0  0
    0.0150   10.3870   -1.9840 C   0  0  0  0  0  0  0  0  0  0  0  0
    0.7880   10.8770   -0.7520 C   0  0  1  0  0  0  0  0  0  0  0  0
    1.1420    9.6670    0.1520 C   0  0  0  0  0  0  0  0  0  0  0  0
   -0.0820    8.8360    0.5240 C   0  0  0  0  0  0  0  0  0  0  0  0
   -0.7900    8.3180   -0.7260 C   0  0  2  0  0  0  0  0  0  0  0  0
    0.0650    7.3790   -1.3840 O   0  0  0  0  0  0  0  0  0  0  0  0
   -1.1870    9.4480   -1.7170 C   0  0  0  0  0  0  0  0  0  0  0  0
   -2.3380   10.2910   -1.1130 C   0  0  0  0  0  0  0  0  0  0  0  0
   -1.7640    8.7800   -2.9950 C   0  0  0  0  0  0  0  0  0  0  0  0
    2.0420   11.8070   -1.0460 C   0  0  1  0  0  0  0  0  0  0  0  0
    3.3070   10.9310   -1.2970 C   0  0  0  0  0  0  0  0  0  0  0  0
    2.3490   12.6750    0.2310 C   0  0  0  0  0  0  0  0  0  0  0  0
    1.6050   14.0180    0.3540 C   0  0  0  0  0  0  0  0  0  0  0  0
    1.7140   14.8260   -0.9430 C   0  0  2  0  0  0  0  0  0  0  0  0
    3.2280   15.1530   -1.1770 C   0  0  0  0  0  0  0  0  0  0  0  0
    0.2541   18.5353    1.0601 H   0  0  0  0  0  0  0  0  0  0  0  0
    0.7018   19.3497   -0.4771 H   0  0  0  0  0  0  0  0  0  0  0  0
   -0.5389   18.0508   -0.4771 H   0  0  0  0  0  0  0  0  0  0  0  0
    1.8643   17.0300    0.7295 H   0  0  0  0  0  0  0  0  0  0  0  0
    2.9728   17.2163   -1.8232 H   0  0  0  0  0  0  0  0  0  0  0  0
    2.3758   18.9009   -1.4380 H   0  0  0  0  0  0  0  0  0  0  0  0
    4.5025   17.2570   -0.0714 H   0  0  0  0  0  0  0  0  0  0  0  0
    4.5230   18.9794   -0.6371 H   0  0  0  0  0  0  0  0  0  0  0  0
    2.7115   17.9369    1.2510 H   0  0  0  0  0  0  0  0  0  0  0  0
    6.3800   18.0669    1.8992 H   0  0  0  0  0  0  0  0  0  0  0  0
    6.2089   19.6225    1.0175 H   0  0  0  0  0  0  0  0  0  0  0  0
    6.5510   19.6225    2.7809 H   0  0  0  0  0  0  0  0  0  0  0  0
    5.0478   19.1424    4.3278 H   0  0  0  0  0  0  0  0  0  0  0  0
    3.4846   19.9224    3.9099 H   0  0  0  0  0  0  0  0  0  0  0  0
    3.6230   18.1314    3.9099 H   0  0  0  0  0  0  0  0  0  0  0  0
   -0.0370   16.0438   -0.4691 H   0  0  0  0  0  0  0  0  0  0  0  0
   -0.2284   16.7527   -2.7701 H   0  0  0  0  0  0  0  0  0  0  0  0
    1.4926   17.1847   -2.8611 H   0  0  0  0  0  0  0  0  0  0  0  0
    0.3061   14.8440   -3.9910 H   0  0  0  0  0  0  0  0  0  0  0  0
    2.0395   15.0604   -3.7629 H   0  0  0  0  0  0  0  0  0  0  0  0
   -0.7013   13.6748   -0.8029 H   0  0  0  0  0  0  0  0  0  0  0  0
   -1.0843   14.5157   -2.3433 H   0  0  0  0  0  0  0  0  0  0  0  0
   -0.7450   12.7518   -2.3433 H   0  0  0  0  0  0  0  0  0  0  0  0
    2.8338   13.0780   -2.6229 H   0  0  0  0  0  0  0  0  0  0  0  0
    0.9506   12.5265   -4.2916 H   0  0  0  0  0  0  0  0  0  0  0  0
    2.2542   11.2921   -3.8845 H   0  0  0  0  0  0  0  0  0  0  0  0
   -0.2075   10.3722   -4.0640 H   0  0  0  0  0  0  0  0  0  0  0  0
    0.1086   11.5564   -0.2164 H   0  0  0  0  0  0  0  0  0  0  0  0
    1.8554    9.0235   -0.3838 H   0  0  0  0  0  0  0  0  0  0  0  0
    1.5731   10.0616    1.0839 H   0  0  0  0  0  0  0  0  0  0  0  0
    0.2366    7.9806    1.1379 H   0  0  0  0  0  0  0  0  0  0  0  0
   -0.7815    9.4728    1.0854 H   0  0  0  0  0  0  0  0  0  0  0  0
   -1.7270    7.8418   -0.4016 H   0  0  0  0  0  0  0  0  0  0  0  0
   -0.2350    7.3050   -2.3060 H   0  0  0  0  0  0  0  0  0  0  0  0
   -2.2842   10.2516   -0.0150 H   0  0  0  0  0  0  0  0  0  0  0  0
   -2.2428   11.3346   -1.4476 H   0  0  0  0  0  0  0  0  0  0  0  0
   -3.3042    9.8854   -1.4476 H   0  0  0  0  0  0  0  0  0  0  0  0
   -2.4580    7.9765   -2.7073 H   0  0  0  0  0  0  0  0  0  0  0  0
   -2.3010    9.5323   -3.5914 H   0  0  0  0  0  0  0  0  0  0  0  0
   -0.9416    8.3581   -3.5914 H   0  0  0  0  0  0  0  0  0  0  0  0
    3.7418   10.6299   -0.3325 H   0  0  0  0  0  0  0  0  0  0  0  0
    3.0246   10.0341   -1.8678 H   0  0  0  0  0  0  0  0  0  0  0  0
    4.0472   11.5109   -1.8678 H   0  0  0  0  0  0  0  0  0  0  0  0
    2.0925   12.0706    1.1136 H   0  0  0  0  0  0  0  0  0  0  0  0
    3.4128   12.9422    0.1481 H   0  0  0  0  0  0  0  0  0  0  0  0
    0.5439   13.8232    0.5685 H   0  0  0  0  0  0  0  0  0  0  0  0
    2.0621   14.5989    1.1686 H   0  0  0  0  0  0  0  0  0  0  0  0
    3.7338   15.2622   -0.2063 H   0  0  0  0  0  0  0  0  0  0  0  0
    3.6963   14.3353   -1.7445 H   0  0  0  0  0  0  0  0  0  0  0  0
    3.3171   16.0911   -1.7445 H   0  0  0  0  0  0  0  0  0  0  0  0
  1  2  1  0
  2  3  1  0
  3  4  1  0
  4  5  1  0
  5  6  1  0
  6  7  1  0
  7  8  1  0
  7  9  1  0
  2 10  1  0
 10 11  1  0
 11 12  1  0
 12 13  1  0
 13 14  1  1
 13 15  1  0
 15 16  1  0
 16 17  1  0
 17 18  2  0
 18 19  1  0
 19 20  1  0
 20 21  1  0
 21 22  1  0
 22 23  1  0
 22 24  1  0
 24 25  1  0
 24 26  1  0
 19 27  1  0
 27 28  1  6
 27 29  1  0
 29 30  1  0
 30 31  1  0
 31 32  1  6
  7  5  1  0
 31 10  1  0
 31 13  1  0
 27 15  1  0
 24 18  1  0
  1 33  1  0
  1 34  1  0
  1 35  1  0
  2 36  1  1
  3 37  1  0
  3 38  1  0
  4 39  1  0
  4 40  1  0
  5 41  1  1
  8 42  1  0
  8 43  1  0
  8 44  1  0
  9 45  1  0
  9 46  1  0
  9 47  1  0
 10 48  1  1
 11 49  1  0
 11 50  1  0
 12 51  1  0
 12 52  1  0
 14 53  1  0
 14 54  1  0
 14 55  1  0
 15 56  1  6
 16 57  1  0
 16 58  1  0
 17 59  1  0
 19 60  1  1
 20 61  1  0
 20 62  1  0
 21 63  1  0
 21 64  1  0
 22 65  1  1
 23 66  1  0
 25 67  1  0
 25 68  1  0
 25 69  1  0
 26 70  1  0
 26 71  1  0
 26 72  1  0
 28 73  1  0
 28 74  1  0
 28 75  1  0
 29 76  1  0
 29 77  1  0
 30 78  1  0
 30 79  1  0
 32 80  1  0
 32 81  1  0
 32 82  1  0
M  END
>  <meeko>  (3) 
{"is_sidechain": [false], "intermolecular_energy": 2.731, "internal_energy": -0.839}

$$$$
EPH_relaxed_0001_pdb2pqr_Repair_93_r2_0001_out
     RDKit          3D

 82 86  0  0  0  0  0  0  0  0999 V2000
    3.7780   18.0370    0.5160 C   0  0  0  0  0  0  0  0  0  0  0  0
    2.6370   18.5260   -0.3810 C   0  0  2  0  0  0  0  0  0  0  0  0
    1.9070   19.7440    0.2190 C   0  0  0  0  0  0  0  0  0  0  0  0
    0.6530   19.3770    1.0180 C   0  0  0  0  0  0  0  0  0  0  0  0
   -0.5650   20.0710    0.4860 C   0  0  2  0  0  0  0  0  0  0  0  0
   -1.6470   20.1810    1.4210 O   0  0  0  0  0  0  0  0  0  0  0  0
   -1.8930   19.3730    0.2590 C   0  0  0  0  0  0  0  0  0  0  0  0
   -2.0710   17.9170    0.5570 C   0  0  0  0  0  0  0  0  0  0  0  0
   -2.8650   19.9810   -0.7030 C   0  0  0  0  0  0  0  0  0  0  0  0
    1.6470   17.3930   -0.6260 C   0  0  1  0  0  0  0  0  0  0  0  0
    0.4730   17.8150   -1.5490 C   0  0  0  0  0  0  0  0  0  0  0  0
    0.1060   16.5730   -2.4020 C   0  0  0  0  0  0  0  0  0  0  0  0
    0.8450   15.3980   -1.7180 C   0  0  1  0  0  0  0  0  0  0  0  0
   -0.0660   14.9980   -0.5150 C   0  0  0  0  0  0  0  0  0  0  0  0
    1.1760   14.1690   -2.6250 C   0  0  2  0  0  0  0  0  0  0  0  0
   -0.0460   13.4400   -3.2090 C   0  0  0  0  0  0  0  0  0  0  0  0
   -0.5810   12.3240   -2.3740 C   0  0  0  0  0  0  0  0  0  0  0  0
    0.0620   11.7360   -1.3480 C   0  0  0  0  0  0  0  0  0  0  0  0
    1.5050   12.1240   -0.9980 C   0  0  1  0  0  0  0  0  0  0  0  0
    2.3470   10.8390   -0.7780 C   0  0  0  0  0  0  0  0  0  0  0  0
    1.7260    9.9030    0.2550 C   0  0  0  0  0  0  0  0  0  0  0  0
    0.3150    9.4940   -0.1570 C   0  0  2  0  0  0  0  0  0  0  0  0
    0.3950    8.6870   -1.3360 O   0  0  0  0  0  0  0  0  0  0  0  0
   -0.6230   10.7060   -0.4170 C   0  0  0  0  0  0  0  0  0  0  0  0
   -0.9510   11.4070    0.9250 C   0  0  0  0  0  0  0  0  0  0  0  0
   -1.9700   10.1600   -0.9610 C   0  0  0  0  0  0  0  0  0  0  0  0
    2.2060   13.1510   -1.9870 C   0  0  1  0  0  0  0  0  0  0  0  0
    2.8660   12.3830   -3.1720 C   0  0  0  0  0  0  0  0  0  0  0  0
    3.3750   13.8810   -1.2250 C   0  0  0  0  0  0  0  0  0  0  0  0
    3.0050   15.1570   -0.4440 C   0  0  0  0  0  0  0  0  0  0  0  0
    2.1850   16.1140   -1.3150 C   0  0  2  0  0  0  0  0  0  0  0  0
    3.0830   16.5520   -2.5220 C   0  0  0  0  0  0  0  0  0  0  0  0
    3.4929   18.1592    1.5714 H   0  0  0  0  0  0  0  0  0  0  0  0
    3.9765   16.9748    0.3105 H   0  0  0  0  0  0  0  0  0  0  0  0
    4.6841   18.6258    0.3105 H   0  0  0  0  0  0  0  0  0  0  0  0
    3.0802   18.8454   -1.3357 H   0  0  0  0  0  0  0  0  0  0  0  0
    2.6031   20.2715    0.8878 H   0  0  0  0  0  0  0  0  0  0  0  0
    1.5797   20.3704   -0.6239 H   0  0  0  0  0  0  0  0  0  0  0  0
    0.4982   18.2895    0.9592 H   0  0  0  0  0  0  0  0  0  0  0  0
    0.8034   19.6974    2.0595 H   0  0  0  0  0  0  0  0  0  0  0  0
    0.0527   20.7105   -0.1617 H   0  0  0  0  0  0  0  0  0  0  0  0
   -2.0895   17.7653    1.6463 H   0  0  0  0  0  0  0  0  0  0  0  0
   -3.0186   17.5668    0.1218 H   0  0  0  0  0  0  0  0  0  0  0  0
   -1.2356   17.3489    0.1218 H   0  0  0  0  0  0  0  0  0  0  0  0
   -3.6683   20.4835   -0.1442 H   0  0  0  0  0  0  0  0  0  0  0  0
   -2.3443   20.7146   -1.3359 H   0  0  0  0  0  0  0  0  0  0  0  0
   -3.2969   19.1918   -1.3359 H   0  0  0  0  0  0  0  0  0  0  0  0
    1.3631   17.1689    0.4128 H   0  0  0  0  0  0  0  0  0  0  0  0
   -0.3909   18.1278   -0.9441 H   0  0  0  0  0  0  0  0  0  0  0  0
    0.7586   18.6631   -2.1886 H   0  0  0  0  0  0  0  0  0  0  0  0
   -0.9810   16.4047   -2.3954 H   0  0  0  0  0  0  0  0  0  0  0  0
    0.3955   16.6907   -3.4567 H   0  0  0  0  0  0  0  0  0  0  0  0
    0.4518   15.2253    0.4285 H   0  0  0  0  0  0  0  0  0  0  0  0
   -1.0069   15.5658   -0.5629 H   0  0  0  0  0  0  0  0  0  0  0  0
   -0.2848   13.9210   -0.5629 H   0  0  0  0  0  0  0  0  0  0  0  0
    1.6805   14.6387   -3.4822 H   0  0  0  0  0  0  0  0  0  0  0  0
   -0.8497   14.1786   -3.3448 H   0  0  0  0  0  0  0  0  0  0  0  0
    0.2936   12.9812   -4.1493 H   0  0  0  0  0  0  0  0  0  0  0  0
   -1.5864   11.9504   -2.6180 H   0  0  0  0  0  0  0  0  0  0  0  0
    1.4475   12.6980   -0.0614 H   0  0  0  0  0  0  0  0  0  0  0  0
    2.4294   10.3031   -1.7351 H   0  0  0  0  0  0  0  0  0  0  0  0
    3.3333   11.1464   -0.4002 H   0  0  0  0  0  0  0  0  0  0  0  0
    2.3501    9.0017    0.3450 H   0  0  0  0  0  0  0  0  0  0  0  0
    1.6709   10.4310    1.2184 H   0  0  0  0  0  0  0  0  0  0  0  0
   -0.1233    8.9319    0.6808 H   0  0  0  0  0  0  0  0  0  0  0  0
    0.7540    7.8220   -1.0760 H   0  0  0  0  0  0  0  0  0  0  0  0
   -0.6479   10.7592    1.7607 H   0  0  0  0  0  0  0  0  0  0  0  0
   -0.4055   12.3604    0.9836 H   0  0  0  0  0  0  0  0  0  0  0  0
   -2.0325   11.5991    0.9836 H   0  0  0  0  0  0  0  0  0  0  0  0
   -2.6252    9.8944   -0.1182 H   0  0  0  0  0  0  0  0  0  0  0  0
   -2.4572   10.9316   -1.5752 H   0  0  0  0  0  0  0  0  0  0  0  0
   -1.7824    9.2669   -1.5752 H   0  0  0  0  0  0  0  0  0  0  0  0
    3.5351   11.6044   -2.7770 H   0  0  0  0  0  0  0  0  0  0  0  0
    2.0831   11.9159   -3.7876 H   0  0  0  0  0  0  0  0  0  0  0  0
    3.4455   13.0867   -3.7876 H   0  0  0  0  0  0  0  0  0  0  0  0
    3.8036   13.1648   -0.5085 H   0  0  0  0  0  0  0  0  0  0  0  0
    4.0669   14.2156   -2.0120 H   0  0  0  0  0  0  0  0  0  0  0  0
    2.4132   14.8787    0.4405 H   0  0  0  0  0  0  0  0  0  0  0  0
    3.9327   15.6650   -0.1420 H   0  0  0  0  0  0  0  0  0  0  0  0
    4.0112   17.0047   -2.1431 H   0  0  0  0  0  0  0  0  0  0  0  0
    3.3279   15.6721   -3.1351 H   0  0  0  0  0  0  0  0  0  0  0  0
    2.5404   17.2866   -3.1351 H   0  0  0  0  0  0  0  0  0  0  0  0
  1  2  1  0
  2  3  1  0
  3  4  1  0
  4  5  1  0
  5  6  1  0
  6  7  1  0
  7  8  1  0
  7  9  1  0
  2 10  1  0
 10 11  1  0
 11 12  1  0
 12 13  1  0
 13 14  1  1
 13 15  1  0
 15 16  1  0
 16 17  1  0
 17 18  2  0
 18 19  1  0
 19 20  1  0
 20 21  1  0
 21 22  1  0
 22 23  1  0
 22 24  1  0
 24 25  1  0
 24 26  1  0
 19 27  1  0
 27 28  1  6
 27 29  1  0
 29 30  1  0
 30 31  1  0
 31 32  1  6
  7  5  1  0
 31 10  1  0
 31 13  1  0
 27 15  1  0
 24 18  1  0
  1 33  1  0
  1 34  1  0
  1 35  1  0
  2 36  1  6
  3 37  1  0
  3 38  1  0
  4 39  1  0
  4 40  1  0
  5 41  1  6
  8 42  1  0
  8 43  1  0
  8 44  1  0
  9 45  1  0
  9 46  1  0
  9 47  1  0
 10 48  1  1
 11 49  1  0
 11 50  1  0
 12 51  1  0
 12 52  1  0
 14 53  1  0
 14 54  1  0
 14 55  1  0
 15 56  1  6
 16 57  1  0
 16 58  1  0
 17 59  1  0
 19 60  1  1
 20 61  1  0
 20 62  1  0
 21 63  1  0
 21 64  1  0
 22 65  1  1
 23 66  1  0
 25 67  1  0
 25 68  1  0
 25 69  1  0
 26 70  1  0
 26 71  1  0
 26 72  1  0
 28 73  1  0
 28 74  1  0
 28 75  1  0
 29 76  1  0
 29 77  1  0
 30 78  1  0
 30 79  1  0
 32 80  1  0
 32 81  1  0
 32 82  1  0
M  END
>  <meeko>  (4) 
{"is_sidechain": [false], "intermolecular_energy": 2.731, "internal_energy": -0.839}

$$$$
EPH_relaxed_0001_pdb2pqr_Repair_93_r2_0001_out
     RDKit          3D

 82 86  0  0  0  0  0  0  0  0999 V2000
   -5.1230    5.8980   -1.8460 C   0  0  0  0  0  0  0  0  0  0  0  0
   -5.4530    7.3930   -1.8410 C   0  0  2  0  0  0  0  0  0  0  0  0
   -5.2460    8.0290   -0.4520 C   0  0  0  0  0  0  0  0  0  0  0  0
   -4.1920    9.1390   -0.4340 C   0  0  0  0  0  0  0  0  0  0  0  0
   -2.8280    8.6150   -0.7650 C   0  0  2  0  0  0  0  0  0  0  0  0
   -1.8110    8.9460    0.1890 O   0  0  0  0  0  0  0  0  0  0  0  0
   -1.6540    9.5050   -1.1250 C   0  0  0  0  0  0  0  0  0  0  0  0
   -1.7900   10.9950   -1.1720 C   0  0  0  0  0  0  0  0  0  0  0  0
   -0.5180    8.9140   -1.9000 C   0  0  0  0  0  0  0  0  0  0  0  0
   -6.8890    7.6100   -2.3040 C   0  0  1  0  0  0  0  0  0  0  0  0
   -7.1950    6.9030   -3.6520 C   0  0  0  0  0  0  0  0  0  0  0  0
   -8.6680    6.4240   -3.5810 C   0  0  0  0  0  0  0  0  0  0  0  0
   -9.2560    7.1520   -2.3500 C   0  0  1  0  0  0  0  0  0  0  0  0
   -9.6140    8.5820   -2.8620 C   0  0  0  0  0  0  0  0  0  0  0  0
  -10.4780    6.4630   -1.6590 C   0  0  2  0  0  0  0  0  0  0  0  0
  -11.7330    6.3260   -2.5390 C   0  0  0  0  0  0  0  0  0  0  0  0
  -12.6920    7.4680   -2.4650 C   0  0  0  0  0  0  0  0  0  0  0  0
  -12.6980    8.4230   -1.5170 C   0  0  0  0  0  0  0  0  0  0  0  0
  -11.7320    8.3590   -0.3270 C   0  0  1  0  0  0  0  0  0  0  0  0
  -12.5070    8.6450    0.9860 C   0  0  0  0  0  0  0  0  0  0  0  0
  -13.2830    9.9580    0.9340 C   0  0  0  0  0  0  0  0  0  0  0  0
  -14.2740    9.9600   -0.2270 C   0  0  2  0  0  0  0  0  0  0  0  0
  -15.2870    8.9820    0.0310 O   0  0  0  0  0  0  0  0  0  0  0  0
  -13.6090    9.6730   -1.6020 C   0  0  0  0  0  0  0  0  0  0  0  0
  -12.7360   10.8830   -2.0200 C   0  0  0  0  0  0  0  0  0  0  0  0
  -14.7360    9.5630   -2.6640 C   0  0  0  0  0  0  0  0  0  0  0  0
  -10.8330    7.0520   -0.2330 C   0  0  1  0  0  0  0  0  0  0  0  0
  -11.6020    5.9320    0.5320 C   0  0  0  0  0  0  0  0  0  0  0  0
   -9.5490    7.3710    0.6190 C   0  0  0  0  0  0  0  0  0  0  0  0
   -8.3340    7.9370   -0.1400 C   0  0  0  0  0  0  0  0  0  0  0  0
   -8.0200    7.0940   -1.3800 C   0  0  2  0  0  0  0  0  0  0  0  0
   -7.6350    5.6550   -0.8940 C   0  0  0  0  0  0  0  0  0  0  0  0
   -5.0432    5.5367   -0.8101 H   0  0  0  0  0  0  0  0  0  0  0  0
   -5.9214    5.3480   -2.3657 H   0  0  0  0  0  0  0  0  0  0  0  0
   -4.1673    5.7352   -2.3657 H   0  0  0  0  0  0  0  0  0  0  0  0
   -4.7590    7.8870   -2.5370 H   0  0  0  0  0  0  0  0  0  0  0  0
   -6.2041    8.4545   -0.1187 H   0  0  0  0  0  0  0  0  0  0  0  0
   -4.8853    7.2326    0.2156 H   0  0  0  0  0  0  0  0  0  0  0  0
   -4.4685    9.9049   -1.1735 H   0  0  0  0  0  0  0  0  0  0  0  0
   -4.1589    9.5633    0.5803 H   0  0  0  0  0  0  0  0  0  0  0  0
   -3.2618    7.7315   -1.2562 H   0  0  0  0  0  0  0  0  0  0  0  0
   -1.8263   11.3924   -0.1469 H   0  0  0  0  0  0  0  0  0  0  0  0
   -0.9274   11.4254   -1.7018 H   0  0  0  0  0  0  0  0  0  0  0  0
   -2.7163   11.2621   -1.7018 H   0  0  0  0  0  0  0  0  0  0  0  0
    0.2366    8.5214   -1.2026 H   0  0  0  0  0  0  0  0  0  0  0  0
   -0.8924    8.0964   -2.5335 H   0  0  0  0  0  0  0  0  0  0  0  0
   -0.0634    9.6899   -2.5335 H   0  0  0  0  0  0  0  0  0  0  0  0
   -6.9065    8.7092   -2.3419 H   0  0  0  0  0  0  0  0  0  0  0  0
   -7.0654    7.6071   -4.4871 H   0  0  0  0  0  0  0  0  0  0  0  0
   -6.5119    6.0570   -3.8185 H   0  0  0  0  0  0  0  0  0  0  0  0
   -9.2121    6.7048   -4.4948 H   0  0  0  0  0  0  0  0  0  0  0  0
   -8.7473    5.3302   -3.4960 H   0  0  0  0  0  0  0  0  0  0  0  0
   -9.7808    9.2481   -2.0026 H   0  0  0  0  0  0  0  0  0  0  0  0
   -8.7855    8.9711   -3.4721 H   0  0  0  0  0  0  0  0  0  0  0  0
  -10.5281    8.5348   -3.4721 H   0  0  0  0  0  0  0  0  0  0  0  0
  -10.1121    5.4381   -1.4990 H   0  0  0  0  0  0  0  0  0  0  0  0
  -11.4057    6.2243   -3.5842 H   0  0  0  0  0  0  0  0  0  0  0  0
  -12.2760    5.4478   -2.1597 H   0  0  0  0  0  0  0  0  0  0  0  0
  -13.4581    7.5342   -3.2516 H   0  0  0  0  0  0  0  0  0  0  0  0
  -10.9858    9.1487   -0.4989 H   0  0  0  0  0  0  0  0  0  0  0  0
  -13.2163    7.8231    1.1628 H   0  0  0  0  0  0  0  0  0  0  0  0
  -11.7694    8.7253    1.7981 H   0  0  0  0  0  0  0  0  0  0  0  0
  -13.8334   10.0885    1.8774 H   0  0  0  0  0  0  0  0  0  0  0  0
  -12.5693   10.7822    0.7880 H   0  0  0  0  0  0  0  0  0  0  0  0
  -14.7036   10.9706   -0.2922 H   0  0  0  0  0  0  0  0  0  0  0  0
  -15.5410    9.0610    0.9660 H   0  0  0  0  0  0  0  0  0  0  0  0
  -12.3657   11.3962   -1.1203 H   0  0  0  0  0  0  0  0  0  0  0  0
  -11.8829   10.5304   -2.6182 H   0  0  0  0  0  0  0  0  0  0  0  0
  -13.3396   11.5814   -2.6182 H   0  0  0  0  0  0  0  0  0  0  0  0
  -15.7083    9.4681   -2.1584 H   0  0  0  0  0  0  0  0  0  0  0  0
  -14.7364   10.4654   -3.2931 H   0  0  0  0  0  0  0  0  0  0  0  0
  -14.5619    8.6776   -3.2931 H   0  0  0  0  0  0  0  0  0  0  0  0
  -11.4948    6.0881    1.6156 H   0  0  0  0  0  0  0  0  0  0  0  0
  -12.6673    5.9672    0.2601 H   0  0  0  0  0  0  0  0  0  0  0  0
  -11.1864    4.9505    0.2601 H   0  0  0  0  0  0  0  0  0  0  0  0
   -9.8333    8.1056    1.3868 H   0  0  0  0  0  0  0  0  0  0  0  0
   -9.2156    6.3990    1.0115 H   0  0  0  0  0  0  0  0  0  0  0  0
   -8.5537    8.9685   -0.4525 H   0  0  0  0  0  0  0  0  0  0  0  0
   -7.4612    7.9147    0.5292 H   0  0  0  0  0  0  0  0  0  0  0  0
   -7.6280    5.6290    0.2057 H   0  0  0  0  0  0  0  0  0  0  0  0
   -8.3710    4.9308   -1.2732 H   0  0  0  0  0  0  0  0  0  0  0  0
   -6.6357    5.3950   -1.2732 H   0  0  0  0  0  0  0  0  0  0  0  0
  1  2  1  0
  2  3  1  0
  3  4  1  0
  4  5  1  0
  5  6  1  0
  6  7  1  0
  7  8  1  0
  7  9  1  0
  2 10  1  0
 10 11  1  0
 11 12  1  0
 12 13  1  0
 13 14  1  6
 13 15  1  0
 15 16  1  0
 16 17  1  0
 17 18  2  0
 18 19  1  0
 19 20  1  0
 20 21  1  0
 21 22  1  0
 22 23  1  0
 22 24  1  0
 24 25  1  0
 24 26  1  0
 19 27  1  0
 27 28  1  1
 27 29  1  0
 29 30  1  0
 30 31  1  0
 31 32  1  1
  7  5  1  0
 31 10  1  0
 31 13  1  0
 27 15  1  0
 24 18  1  0
  1 33  1  0
  1 34  1  0
  1 35  1  0
  2 36  1  6
  3 37  1  0
  3 38  1  0
  4 39  1  0
  4 40  1  0
  5 41  1  6
  8 42  1  0
  8 43  1  0
  8 44  1  0
  9 45  1  0
  9 46  1  0
  9 47  1  0
 10 48  1  6
 11 49  1  0
 11 50  1  0
 12 51  1  0
 12 52  1  0
 14 53  1  0
 14 54  1  0
 14 55  1  0
 15 56  1  1
 16 57  1  0
 16 58  1  0
 17 59  1  0
 19 60  1  6
 20 61  1  0
 20 62  1  0
 21 63  1  0
 21 64  1  0
 22 65  1  6
 23 66  1  0
 25 67  1  0
 25 68  1  0
 25 69  1  0
 26 70  1  0
 26 71  1  0
 26 72  1  0
 28 73  1  0
 28 74  1  0
 28 75  1  0
 29 76  1  0
 29 77  1  0
 30 78  1  0
 30 79  1  0
 32 80  1  0
 32 81  1  0
 32 82  1  0
M  END
>  <meeko>  (5) 
{"is_sidechain": [false], "intermolecular_energy": 2.731, "internal_energy": -0.839}

$$$$
EPH_relaxed_0001_pdb2pqr_Repair_93_r2_0001_out
     RDKit          3D

 82 86  0  0  0  0  0  0  0  0999 V2000
    0.4490    8.8190   -2.3760 C   0  0  0  0  0  0  0  0  0  0  0  0
    1.1920    9.9640   -3.0710 C   0  0  2  0  0  0  0  0  0  0  0  0
    2.6920    9.9850   -2.7120 C   0  0  0  0  0  0  0  0  0  0  0  0
    3.5790   10.5780   -3.8100 C   0  0  0  0  0  0  0  0  0  0  0  0
    4.9750   10.8230   -3.3230 C   0  0  2  0  0  0  0  0  0  0  0  0
    5.5660   12.0420   -3.7910 O   0  0  0  0  0  0  0  0  0  0  0  0
    6.1900   10.8250   -4.2320 C   0  0  0  0  0  0  0  0  0  0  0  0
    6.0650   10.5760   -5.7020 C   0  0  0  0  0  0  0  0  0  0  0  0
    7.5370   10.5840   -3.6250 C   0  0  0  0  0  0  0  0  0  0  0  0
    0.5500   11.2970   -2.7050 C   0  0  1  0  0  0  0  0  0  0  0  0
   -0.8260   11.1260   -2.0090 C   0  0  0  0  0  0  0  0  0  0  0  0
   -0.9440   12.2670   -0.9650 C   0  0  0  0  0  0  0  0  0  0  0  0
    0.2040   13.2410   -1.3210 C   0  0  1  0  0  0  0  0  0  0  0  0
   -0.3480   14.0960   -2.5040 C   0  0  0  0  0  0  0  0  0  0  0  0
    0.7320   14.1400   -0.1560 C   0  0  2  0  0  0  0  0  0  0  0  0
   -0.3010   15.1150    0.4360 C   0  0  0  0  0  0  0  0  0  0  0  0
   -0.3470   16.4620   -0.2070 C   0  0  0  0  0  0  0  0  0  0  0  0
    0.5940   16.9720   -1.0240 C   0  0  0  0  0  0  0  0  0  0  0  0
    1.8970   16.2090   -1.2970 C   0  0  1  0  0  0  0  0  0  0  0  0
    3.1010   17.1790   -1.1680 C   0  0  0  0  0  0  0  0  0  0  0  0
    2.9530   18.4160   -2.0490 C   0  0  0  0  0  0  0  0  0  0  0  0
    1.6760   19.1790   -1.7070 C   0  0  2  0  0  0  0  0  0  0  0  0
    1.8000   19.7190   -0.3880 O   0  0  0  0  0  0  0  0  0  0  0  0
    0.3960   18.3010   -1.7940 C   0  0  0  0  0  0  0  0  0  0  0  0
    0.0940   17.9640   -3.2750 C   0  0  0  0  0  0  0  0  0  0  0  0
   -0.8010   19.1510   -1.2890 C   0  0  0  0  0  0  0  0  0  0  0  0
    2.1020   14.8680   -0.4690 C   0  0  1  0  0  0  0  0  0  0  0  0
    2.7610   15.1880    0.9070 C   0  0  0  0  0  0  0  0  0  0  0  0
    3.1110   13.9370   -1.2400 C   0  0  0  0  0  0  0  0  0  0  0  0
    2.5130   12.9860   -2.2940 C   0  0  0  0  0  0  0  0  0  0  0  0
    1.3230   12.2120   -1.7220 C   0  0  2  0  0  0  0  0  0  0  0  0
    1.8510   11.3250   -0.5430 C   0  0  0  0  0  0  0  0  0  0  0  0
    0.5273    8.9397   -1.2854 H   0  0  0  0  0  0  0  0  0  0  0  0
   -0.6104    8.8364   -2.6717 H   0  0  0  0  0  0  0  0  0  0  0  0
    0.8965    7.8586   -2.6717 H   0  0  0  0  0  0  0  0  0  0  0  0
    1.1146    9.7993   -4.1558 H   0  0  0  0  0  0  0  0  0  0  0  0
    2.8222   10.5843   -1.7988 H   0  0  0  0  0  0  0  0  0  0  0  0
    3.0047    8.9392   -2.5757 H   0  0  0  0  0  0  0  0  0  0  0  0
    3.6148    9.8768   -4.6568 H   0  0  0  0  0  0  0  0  0  0  0  0
    3.1480   11.5430   -4.1151 H   0  0  0  0  0  0  0  0  0  0  0  0
    4.7621   10.3026   -2.3776 H   0  0  0  0  0  0  0  0  0  0  0  0
    5.5772    9.6043   -5.8691 H   0  0  0  0  0  0  0  0  0  0  0  0
    5.4603   11.3733   -6.1588 H   0  0  0  0  0  0  0  0  0  0  0  0
    7.0656   10.5673   -6.1588 H   0  0  0  0  0  0  0  0  0  0  0  0
    7.4530   10.5990   -2.5283 H   0  0  0  0  0  0  0  0  0  0  0  0
    7.9157    9.6038   -3.9503 H   0  0  0  0  0  0  0  0  0  0  0  0
    8.2321   11.3720   -3.9503 H   0  0  0  0  0  0  0  0  0  0  0  0
    0.5108   11.7628   -3.7007 H   0  0  0  0  0  0  0  0  0  0  0  0
   -1.6368   11.2037   -2.7483 H   0  0  0  0  0  0  0  0  0  0  0  0
   -0.9054   10.1402   -1.5275 H   0  0  0  0  0  0  0  0  0  0  0  0
   -1.9191   12.7693   -1.0471 H   0  0  0  0  0  0  0  0  0  0  0  0
   -0.8718   11.8965    0.0682 H   0  0  0  0  0  0  0  0  0  0  0  0
   -0.9041   14.9574   -2.1056 H   0  0  0  0  0  0  0  0  0  0  0  0
    0.4901   14.4538   -3.1201 H   0  0  0  0  0  0  0  0  0  0  0  0
   -1.0190   13.4795   -3.1201 H   0  0  0  0  0  0  0  0  0  0  0  0
    0.9354   13.4043    0.6361 H   0  0  0  0  0  0  0  0  0  0  0  0
   -1.2963   14.6570    0.3376 H   0  0  0  0  0  0  0  0  0  0  0  0
    0.0038   15.2855    1.4791 H   0  0  0  0  0  0  0  0  0  0  0  0
   -1.2242   17.0911    0.0048 H   0  0  0  0  0  0  0  0  0  0  0  0
    1.8232   15.8406   -2.3308 H   0  0  0  0  0  0  0  0  0  0  0  0
    3.1837   17.5008   -0.1194 H   0  0  0  0  0  0  0  0  0  0  0  0
    4.0010   16.6397   -1.4983 H   0  0  0  0  0  0  0  0  0  0  0  0
    3.8194   19.0754   -1.8923 H   0  0  0  0  0  0  0  0  0  0  0  0
    2.8996   18.0947   -3.0997 H   0  0  0  0  0  0  0  0  0  0  0  0
    1.5598   19.9783   -2.4537 H   0  0  0  0  0  0  0  0  0  0  0  0
    0.9130   19.9890   -0.0960 H   0  0  0  0  0  0  0  0  0  0  0  0
   -0.6394   17.1456   -3.3226 H   0  0  0  0  0  0  0  0  0  0  0  0
   -0.3154   18.8529   -3.7772 H   0  0  0  0  0  0  0  0  0  0  0  0
    1.0223   17.6541   -3.7772 H   0  0  0  0  0  0  0  0  0  0  0  0
   -0.8086   19.1564   -0.1890 H   0  0  0  0  0  0  0  0  0  0  0  0
   -0.7012   20.1817   -1.6601 H   0  0  0  0  0  0  0  0  0  0  0  0
   -1.7412   18.7171   -1.6601 H   0  0  0  0  0  0  0  0  0  0  0  0
    2.0925   14.8634    1.7180 H   0  0  0  0  0  0  0  0  0  0  0  0
    3.7201   14.6553    0.9870 H   0  0  0  0  0  0  0  0  0  0  0  0
    2.9354   16.2711    0.9870 H   0  0  0  0  0  0  0  0  0  0  0  0
    3.8378   14.5854   -1.7512 H   0  0  0  0  0  0  0  0  0  0  0  0
    3.5410   13.2793   -0.4703 H   0  0  0  0  0  0  0  0  0  0  0  0
    2.1764   13.5748   -3.1600 H   0  0  0  0  0  0  0  0  0  0  0  0
    3.2875   12.2654   -2.5955 H   0  0  0  0  0  0  0  0  0  0  0  0
    1.5754   11.7879    0.4160 H   0  0  0  0  0  0  0  0  0  0  0  0
    1.4023   10.3228   -0.6087 H   0  0  0  0  0  0  0  0  0  0  0  0
    2.9459   11.2416   -0.6087 H   0  0  0  0  0  0  0  0  0  0  0  0
  1  2  1  0
  2  3  1  0
  3  4  1  0
  4  5  1  0
  5  6  1  0
  6  7  1  0
  7  8  1  0
  7  9  1  0
  2 10  1  0
 10 11  1  0
 11 12  1  0
 12 13  1  0
 13 14  1  6
 13 15  1  0
 15 16  1  0
 16 17  1  0
 17 18  2  0
 18 19  1  0
 19 20  1  0
 20 21  1  0
 21 22  1  0
 22 23  1  0
 22 24  1  0
 24 25  1  0
 24 26  1  0
 19 27  1  0
 27 28  1  1
 27 29  1  0
 29 30  1  0
 30 31  1  0
 31 32  1  1
  7  5  1  0
 31 10  1  0
 31 13  1  0
 27 15  1  0
 24 18  1  0
  1 33  1  0
  1 34  1  0
  1 35  1  0
  2 36  1  6
  3 37  1  0
  3 38  1  0
  4 39  1  0
  4 40  1  0
  5 41  1  1
  8 42  1  0
  8 43  1  0
  8 44  1  0
  9 45  1  0
  9 46  1  0
  9 47  1  0
 10 48  1  6
 11 49  1  0
 11 50  1  0
 12 51  1  0
 12 52  1  0
 14 53  1  0
 14 54  1  0
 14 55  1  0
 15 56  1  1
 16 57  1  0
 16 58  1  0
 17 59  1  0
 19 60  1  6
 20 61  1  0
 20 62  1  0
 21 63  1  0
 21 64  1  0
 22 65  1  6
 23 66  1  0
 25 67  1  0
 25 68  1  0
 25 69  1  0
 26 70  1  0
 26 71  1  0
 26 72  1  0
 28 73  1  0
 28 74  1  0
 28 75  1  0
 29 76  1  0
 29 77  1  0
 30 78  1  0
 30 79  1  0
 32 80  1  0
 32 81  1  0
 32 82  1  0
M  END
>  <meeko>  (6) 
{"is_sidechain": [false], "intermolecular_energy": 2.731, "internal_energy": -0.839}

$$$$
EPH_relaxed_0001_pdb2pqr_Repair_93_r2_0001_out
     RDKit          3D

 82 86  0  0  0  0  0  0  0  0999 V2000
   -0.2190   10.5560   -4.0660 C   0  0  0  0  0  0  0  0  0  0  0  0
    0.9580   10.3620   -3.1060 C   0  0  2  0  0  0  0  0  0  0  0  0
    0.8700    9.0260   -2.3420 C   0  0  0  0  0  0  0  0  0  0  0  0
   -0.5470    8.6700   -1.8850 C   0  0  0  0  0  0  0  0  0  0  0  0
   -0.7650    9.0090   -0.4410 C   0  0  2  0  0  0  0  0  0  0  0  0
   -2.1390    9.0280   -0.0320 O   0  0  0  0  0  0  0  0  0  0  0  0
   -1.4430   10.2830    0.0260 C   0  0  0  0  0  0  0  0  0  0  0  0
   -1.9450   11.3030   -0.9480 C   0  0  0  0  0  0  0  0  0  0  0  0
   -1.1800   10.7630    1.4200 C   0  0  0  0  0  0  0  0  0  0  0  0
    1.0220   11.5230   -2.1200 C   0  0  1  0  0  0  0  0  0  0  0  0
    2.0750   11.3000   -1.0030 C   0  0  0  0  0  0  0  0  0  0  0  0
    2.6770   12.6900   -0.6710 C   0  0  0  0  0  0  0  0  0  0  0  0
    1.7290   13.6990   -1.3600 C   0  0  1  0  0  0  0  0  0  0  0  0
    0.5220   13.8480   -0.3820 C   0  0  0  0  0  0  0  0  0  0  0  0
    2.3470   15.0870   -1.7300 C   0  0  2  0  0  0  0  0  0  0  0  0
    2.8370   15.9220   -0.5340 C   0  0  0  0  0  0  0  0  0  0  0  0
    1.8240   16.8460    0.0570 C   0  0  0  0  0  0  0  0  0  0  0  0
    0.6660   17.2110   -0.5240 C   0  0  0  0  0  0  0  0  0  0  0  0
    0.3220   16.7580   -1.9490 C   0  0  1  0  0  0  0  0  0  0  0  0
   -0.2010   17.9690   -2.7660 C   0  0  0  0  0  0  0  0  0  0  0  0
   -1.3670   18.6760   -2.0810 C   0  0  0  0  0  0  0  0  0  0  0  0
   -0.9680   19.1630   -0.6900 C   0  0  2  0  0  0  0  0  0  0  0  0
    0.0150   20.1930   -0.8270 O   0  0  0  0  0  0  0  0  0  0  0  0
   -0.4170   18.0310    0.2210 C   0  0  0  0  0  0  0  0  0  0  0  0
   -1.5670   17.0720    0.6150 C   0  0  0  0  0  0  0  0  0  0  0  0
    0.0790   18.6800    1.5410 C   0  0  0  0  0  0  0  0  0  0  0  0
    1.4590   15.9510   -2.7130 C   0  0  1  0  0  0  0  0  0  0  0  0
    2.4240   16.9440   -3.4300 C   0  0  0  0  0  0  0  0  0  0  0  0
    0.7980   15.0790   -3.8450 C   0  0  0  0  0  0  0  0  0  0  0  0
    0.3150   13.6720   -3.4460 C   0  0  0  0  0  0  0  0  0  0  0  0
    1.4060   12.9140   -2.6830 C   0  0  2  0  0  0  0  0  0  0  0  0
    2.6250   12.7290   -3.6500 C   0  0  0  0  0  0  0  0  0  0  0  0
   -1.1424   10.7082   -3.4879 H   0  0  0  0  0  0  0  0  0  0  0  0
   -0.0340   11.4358   -4.6999 H   0  0  0  0  0  0  0  0  0  0  0  0
   -0.3261    9.6634   -4.6999 H   0  0  0  0  0  0  0  0  0  0  0  0
    1.8768   10.3367   -3.7102 H   0  0  0  0  0  0  0  0  0  0  0  0
    1.2338    8.2243   -3.0015 H   0  0  0  0  0  0  0  0  0  0  0  0
    1.4825    9.1338   -1.4347 H   0  0  0  0  0  0  0  0  0  0  0  0
   -1.2700    9.2304   -2.4959 H   0  0  0  0  0  0  0  0  0  0  0  0
   -0.6847    7.5855   -2.0074 H   0  0  0  0  0  0  0  0  0  0  0  0
    0.1874    8.5350   -0.1613 H   0  0  0  0  0  0  0  0  0  0  0  0
   -2.3659   12.1582   -0.3990 H   0  0  0  0  0  0  0  0  0  0  0  0
   -1.1131   11.6467   -1.5803 H   0  0  0  0  0  0  0  0  0  0  0  0
   -2.7248   10.8535   -1.5803 H   0  0  0  0  0  0  0  0  0  0  0  0
   -1.5795   10.0339    2.1403 H   0  0  0  0  0  0  0  0  0  0  0  0
   -0.0960   10.8722    1.5718 H   0  0  0  0  0  0  0  0  0  0  0  0
   -1.6713   11.7354    1.5718 H   0  0  0  0  0  0  0  0  0  0  0  0
   -0.0232   11.5316   -1.7773 H   0  0  0  0  0  0  0  0  0  0  0  0
    1.5954   10.8720   -0.1104 H   0  0  0  0  0  0  0  0  0  0  0  0
    2.8568   10.5995   -1.3317 H   0  0  0  0  0  0  0  0  0  0  0  0
    2.6965   12.8553    0.4163 H   0  0  0  0  0  0  0  0  0  0  0  0
    3.7160   12.7889   -1.0184 H   0  0  0  0  0  0  0  0  0  0  0  0
    0.8834   13.8034    0.6560 H   0  0  0  0  0  0  0  0  0  0  0  0
    0.0259   14.8142   -0.5563 H   0  0  0  0  0  0  0  0  0  0  0  0
   -0.1941   13.0314   -0.5563 H   0  0  0  0  0  0  0  0  0  0  0  0
    3.2520   14.8015   -2.2863 H   0  0  0  0  0  0  0  0  0  0  0  0
    3.1642   15.2276    0.2539 H   0  0  0  0  0  0  0  0  0  0  0  0
    3.6438   16.5622   -0.9203 H   0  0  0  0  0  0  0  0  0  0  0  0
    2.0424   17.2636    1.0509 H   0  0  0  0  0  0  0  0  0  0  0  0
   -0.4746   16.0066   -1.8454 H   0  0  0  0  0  0  0  0  0  0  0  0
    0.6209   18.6885   -2.8956 H   0  0  0  0  0  0  0  0  0  0  0  0
   -0.5620   17.5890   -3.7331 H   0  0  0  0  0  0  0  0  0  0  0  0
   -1.6731   19.5390   -2.6906 H   0  0  0  0  0  0  0  0  0  0  0  0
   -2.1987   17.9634   -1.9786 H   0  0  0  0  0  0  0  0  0  0  0  0
   -1.8764   19.5440   -0.2005 H   0  0  0  0  0  0  0  0  0  0  0  0
    0.8670   19.7640   -1.0140 H   0  0  0  0  0  0  0  0  0  0  0  0
   -1.6367   17.0139    1.7113 H   0  0  0  0  0  0  0  0  0  0  0  0
   -2.5159   17.4502    0.2068 H   0  0  0  0  0  0  0  0  0  0  0  0
   -1.3655   16.0706    0.2068 H   0  0  0  0  0  0  0  0  0  0  0  0
   -0.3393   18.1326    2.3985 H   0  0  0  0  0  0  0  0  0  0  0  0
    1.1775   18.6383    1.5799 H   0  0  0  0  0  0  0  0  0  0  0  0
   -0.2497   19.7290    1.5799 H   0  0  0  0  0  0  0  0  0  0  0  0
    2.9833   17.5195   -2.6777 H   0  0  0  0  0  0  0  0  0  0  0  0
    3.1288   16.3806   -4.0591 H   0  0  0  0  0  0  0  0  0  0  0  0
    1.8406   17.6324   -4.0591 H   0  0  0  0  0  0  0  0  0  0  0  0
   -0.0719   15.6335   -4.2268 H   0  0  0  0  0  0  0  0  0  0  0  0
    1.5973   14.9104   -4.5817 H   0  0  0  0  0  0  0  0  0  0  0  0
   -0.5741   13.7650   -2.8050 H   0  0  0  0  0  0  0  0  0  0  0  0
    0.0728   13.1116   -4.3610 H   0  0  0  0  0  0  0  0  0  0  0  0
    3.5430   12.5897   -3.0602 H   0  0  0  0  0  0  0  0  0  0  0  0
    2.4591   11.8457   -4.2843 H   0  0  0  0  0  0  0  0  0  0  0  0
    2.7286   13.6217   -4.2843 H   0  0  0  0  0  0  0  0  0  0  0  0
  1  2  1  0
  2  3  1  0
  3  4  1  0
  4  5  1  0
  5  6  1  0
  6  7  1  0
  7  8  1  0
  7  9  1  0
  2 10  1  0
 10 11  1  0
 11 12  1  0
 12 13  1  0
 13 14  1  1
 13 15  1  0
 15 16  1  0
 16 17  1  0
 17 18  2  0
 18 19  1  0
 19 20  1  0
 20 21  1  0
 21 22  1  0
 22 23  1  0
 22 24  1  0
 24 25  1  0
 24 26  1  0
 19 27  1  0
 27 28  1  6
 27 29  1  0
 29 30  1  0
 30 31  1  0
 31 32  1  6
  7  5  1  0
 31 10  1  0
 31 13  1  0
 27 15  1  0
 24 18  1  0
  1 33  1  0
  1 34  1  0
  1 35  1  0
  2 36  1  6
  3 37  1  0
  3 38  1  0
  4 39  1  0
  4 40  1  0
  5 41  1  1
  8 42  1  0
  8 43  1  0
  8 44  1  0
  9 45  1  0
  9 46  1  0
  9 47  1  0
 10 48  1  1
 11 49  1  0
 11 50  1  0
 12 51  1  0
 12 52  1  0
 14 53  1  0
 14 54  1  0
 14 55  1  0
 15 56  1  6
 16 57  1  0
 16 58  1  0
 17 59  1  0
 19 60  1  1
 20 61  1  0
 20 62  1  0
 21 63  1  0
 21 64  1  0
 22 65  1  1
 23 66  1  0
 25 67  1  0
 25 68  1  0
 25 69  1  0
 26 70  1  0
 26 71  1  0
 26 72  1  0
 28 73  1  0
 28 74  1  0
 28 75  1  0
 29 76  1  0
 29 77  1  0
 30 78  1  0
 30 79  1  0
 32 80  1  0
 32 81  1  0
 32 82  1  0
M  END
>  <meeko>  (7) 
{"is_sidechain": [false], "intermolecular_energy": 2.731, "internal_energy": -0.839}

$$$$
EPH_relaxed_0001_pdb2pqr_Repair_93_r2_0001_out
     RDKit          3D

 82 86  0  0  0  0  0  0  0  0999 V2000
   -0.8860   16.3630   -5.8490 C   0  0  0  0  0  0  0  0  0  0  0  0
    0.2070   15.6680   -6.6650 C   0  0  2  0  0  0  0  0  0  0  0  0
   -0.1950   15.4920   -8.1430 C   0  0  0  0  0  0  0  0  0  0  0  0
    0.4590   16.5080   -9.0840 C   0  0  0  0  0  0  0  0  0  0  0  0
    1.8640   16.1170   -9.4320 C   0  0  2  0  0  0  0  0  0  0  0  0
    2.3550   16.6780  -10.6560 O   0  0  0  0  0  0  0  0  0  0  0  0
    2.2190   15.2480  -10.6230 C   0  0  0  0  0  0  0  0  0  0  0  0
    1.1660   14.7140  -11.5420 C   0  0  0  0  0  0  0  0  0  0  0  0
    3.5270   14.5180  -10.6110 C   0  0  0  0  0  0  0  0  0  0  0  0
    0.5330   14.3120   -6.0490 C   0  0  1  0  0  0  0  0  0  0  0  0
    1.7840   13.6520   -6.6860 C   0  0  0  0  0  0  0  0  0  0  0  0
    2.5090   12.8820   -5.5520 C   0  0  0  0  0  0  0  0  0  0  0  0
    1.4890   12.8460   -4.3910 C   0  0  1  0  0  0  0  0  0  0  0  0
    0.5220   11.6710   -4.7420 C   0  0  0  0  0  0  0  0  0  0  0  0
    2.0830   12.6930   -2.9530 C   0  0  2  0  0  0  0  0  0  0  0  0
    2.8530   11.3850   -2.7000 C   0  0  0  0  0  0  0  0  0  0  0  0
    2.0330   10.2530   -2.1770 C   0  0  0  0  0  0  0  0  0  0  0  0
    0.7980   10.3600   -1.6510 C   0  0  0  0  0  0  0  0  0  0  0  0
    0.1420   11.7320   -1.4540 C   0  0  1  0  0  0  0  0  0  0  0  0
   -0.4810   11.8090   -0.0350 C   0  0  0  0  0  0  0  0  0  0  0  0
   -1.4410   10.6580    0.2460 C   0  0  0  0  0  0  0  0  0  0  0  0
   -0.7370    9.3120    0.0960 C   0  0  2  0  0  0  0  0  0  0  0  0
    0.2460    9.1880    1.1290 O   0  0  0  0  0  0  0  0  0  0  0  0
   -0.0630    9.1240   -1.2920 C   0  0  0  0  0  0  0  0  0  0  0  0
   -1.1510    8.9560   -2.3810 C   0  0  0  0  0  0  0  0  0  0  0  0
    0.7300    7.7890   -1.2610 C   0  0  0  0  0  0  0  0  0  0  0  0
    1.0520   12.9910   -1.7900 C   0  0  1  0  0  0  0  0  0  0  0  0
    1.8940   13.3880   -0.5390 C   0  0  0  0  0  0  0  0  0  0  0  0
    0.1270   14.2240   -2.1120 C   0  0  0  0  0  0  0  0  0  0  0  0
   -0.3300   14.3860   -3.5740 C   0  0  0  0  0  0  0  0  0  0  0  0
    0.8580   14.2780   -4.5350 C   0  0  2  0  0  0  0  0  0  0  0  0
    1.8370   15.4610   -4.2200 C   0  0  0  0  0  0  0  0  0  0  0  0
   -0.6813   16.2328   -4.7761 H   0  0  0  0  0  0  0  0  0  0  0  0
   -0.8991   17.4357   -6.0923 H   0  0  0  0  0  0  0  0  0  0  0  0
   -1.8630   15.9199   -6.0923 H   0  0  0  0  0  0  0  0  0  0  0  0
    1.0985   16.3119   -6.6397 H   0  0  0  0  0  0  0  0  0  0  0  0
    0.0982   14.4818   -8.4647 H   0  0  0  0  0  0  0  0  0  0  0  0
   -1.2817   15.6523   -8.2019 H   0  0  0  0  0  0  0  0  0  0  0  0
   -0.1333   16.5700  -10.0089 H   0  0  0  0  0  0  0  0  0  0  0  0
    0.4908   17.4802   -8.5704 H   0  0  0  0  0  0  0  0  0  0  0  0
    2.1365   16.0571   -8.3680 H   0  0  0  0  0  0  0  0  0  0  0  0
    0.3398   14.2950  -10.9488 H   0  0  0  0  0  0  0  0  0  0  0  0
    0.7858   15.5282  -12.1764 H   0  0  0  0  0  0  0  0  0  0  0  0
    1.5982   13.9262  -12.1764 H   0  0  0  0  0  0  0  0  0  0  0  0
    3.8399   14.3434   -9.5710 H   0  0  0  0  0  0  0  0  0  0  0  0
    3.4131   13.5530  -11.1266 H   0  0  0  0  0  0  0  0  0  0  0  0
    4.2885   15.1216  -11.1266 H   0  0  0  0  0  0  0  0  0  0  0  0
   -0.4156   13.7895   -6.2415 H   0  0  0  0  0  0  0  0  0  0  0  0
    1.4813   12.9566   -7.4828 H   0  0  0  0  0  0  0  0  0  0  0  0
    2.4445   14.4084   -7.1351 H   0  0  0  0  0  0  0  0  0  0  0  0
    2.7642   11.8624   -5.8765 H   0  0  0  0  0  0  0  0  0  0  0  0
    3.4553   13.3614   -5.2611 H   0  0  0  0  0  0  0  0  0  0  0  0
    0.1468   11.2151   -3.8139 H   0  0  0  0  0  0  0  0  0  0  0  0
   -0.3245   12.0558   -5.3297 H   0  0  0  0  0  0  0  0  0  0  0  0
    1.0625   10.9144   -5.3297 H   0  0  0  0  0  0  0  0  0  0  0  0
    2.8369   13.4935   -2.9239 H   0  0  0  0  0  0  0  0  0  0  0  0
    3.3040   11.0667   -3.6515 H   0  0  0  0  0  0  0  0  0  0  0  0
    3.5910   11.6132   -1.9169 H   0  0  0  0  0  0  0  0  0  0  0  0
    2.4746    9.2467   -2.2252 H   0  0  0  0  0  0  0  0  0  0  0  0
   -0.6501   11.8020   -2.2141 H   0  0  0  0  0  0  0  0  0  0  0  0
    0.3297   11.7812    0.7079 H   0  0  0  0  0  0  0  0  0  0  0  0
   -1.0553   12.7451    0.0269 H   0  0  0  0  0  0  0  0  0  0  0  0
   -1.8244   10.7514    1.2728 H   0  0  0  0  0  0  0  0  0  0  0  0
   -2.2673   10.7049   -0.4786 H   0  0  0  0  0  0  0  0  0  0  0  0
   -1.5037    8.5278    0.1809 H   0  0  0  0  0  0  0  0  0  0  0  0
    1.0610    8.8500    0.7210 H   0  0  0  0  0  0  0  0  0  0  0  0
   -2.1294    8.8049   -1.9016 H   0  0  0  0  0  0  0  0  0  0  0  0
   -1.1853    9.8595   -3.0075 H   0  0  0  0  0  0  0  0  0  0  0  0
   -0.9112    8.0842   -3.0075 H   0  0  0  0  0  0  0  0  0  0  0  0
    0.9066    7.4916   -0.2168 H   0  0  0  0  0  0  0  0  0  0  0  0
    0.1503    7.0062   -1.7721 H   0  0  0  0  0  0  0  0  0  0  0  0
    1.6947    7.9236   -1.7721 H   0  0  0  0  0  0  0  0  0  0  0  0
    1.3394   13.1265    0.3743 H   0  0  0  0  0  0  0  0  0  0  0  0
    2.8513   12.8464   -0.5544 H   0  0  0  0  0  0  0  0  0  0  0  0
    2.0852   14.4711   -0.5544 H   0  0  0  0  0  0  0  0  0  0  0  0
   -0.7753   14.1348   -1.4892 H   0  0  0  0  0  0  0  0  0  0  0  0
    0.7450   15.1098   -1.9037 H   0  0  0  0  0  0  0  0  0  0  0  0
   -1.0588   13.5974   -3.8127 H   0  0  0  0  0  0  0  0  0  0  0  0
   -0.7863   15.3801   -3.6907 H   0  0  0  0  0  0  0  0  0  0  0  0
    1.9331   15.5772   -3.1304 H   0  0  0  0  0  0  0  0  0  0  0  0
    2.8244   15.2454   -4.6543 H   0  0  0  0  0  0  0  0  0  0  0  0
    1.4405   16.3906   -4.6543 H   0  0  0  0  0  0  0  0  0  0  0  0
  1  2  1  0
  2  3  1  0
  3  4  1  0
  4  5  1  0
  5  6  1  0
  6  7  1  0
  7  8  1  0
  7  9  1  0
  2 10  1  0
 10 11  1  0
 11 12  1  0
 12 13  1  0
 13 14  1  6
 13 15  1  0
 15 16  1  0
 16 17  1  0
 17 18  2  0
 18 19  1  0
 19 20  1  0
 20 21  1  0
 21 22  1  0
 22 23  1  0
 22 24  1  0
 24 25  1  0
 24 26  1  0
 19 27  1  0
 27 28  1  1
 27 29  1  0
 29 30  1  0
 30 31  1  0
 31 32  1  1
  7  5  1  0
 31 10  1  0
 31 13  1  0
 27 15  1  0
 24 18  1  0
  1 33  1  0
  1 34  1  0
  1 35  1  0
  2 36  1  6
  3 37  1  0
  3 38  1  0
  4 39  1  0
  4 40  1  0
  5 41  1  1
  8 42  1  0
  8 43  1  0
  8 44  1  0
  9 45  1  0
  9 46  1  0
  9 47  1  0
 10 48  1  1
 11 49  1  0
 11 50  1  0
 12 51  1  0
 12 52  1  0
 14 53  1  0
 14 54  1  0
 14 55  1  0
 15 56  1  6
 16 57  1  0
 16 58  1  0
 17 59  1  0
 19 60  1  6
 20 61  1  0
 20 62  1  0
 21 63  1  0
 21 64  1  0
 22 65  1  1
 23 66  1  0
 25 67  1  0
 25 68  1  0
 25 69  1  0
 26 70  1  0
 26 71  1  0
 26 72  1  0
 28 73  1  0
 28 74  1  0
 28 75  1  0
 29 76  1  0
 29 77  1  0
 30 78  1  0
 30 79  1  0
 32 80  1  0
 32 81  1  0
 32 82  1  0
M  END
>  <meeko>  (8) 
{"is_sidechain": [false], "intermolecular_energy": 2.731, "internal_energy": -0.839}

$$$$
EPH_relaxed_0001_pdb2pqr_Repair_93_r2_0001_out
     RDKit          3D

 82 86  0  0  0  0  0  0  0  0999 V2000
    0.0360    9.4070   -2.5390 C   0  0  0  0  0  0  0  0  0  0  0  0
    1.1420   10.3930   -2.9250 C   0  0  2  0  0  0  0  0  0  0  0  0
    2.5300    9.7240   -2.9630 C   0  0  0  0  0  0  0  0  0  0  0  0
    3.4960   10.3650   -3.9640 C   0  0  0  0  0  0  0  0  0  0  0  0
    4.8590   10.5590   -3.3720 C   0  0  2  0  0  0  0  0  0  0  0  0
    5.4300   11.8550   -3.5950 O   0  0  0  0  0  0  0  0  0  0  0  0
    6.1130   10.7490   -4.2050 C   0  0  0  0  0  0  0  0  0  0  0  0
    6.0630   10.7530   -5.7010 C   0  0  0  0  0  0  0  0  0  0  0  0
    7.4390   10.4410   -3.5820 C   0  0  0  0  0  0  0  0  0  0  0  0
    1.1560   11.5660   -1.9520 C   0  0  1  0  0  0  0  0  0  0  0  0
    2.2230   11.4050   -0.8370 C   0  0  0  0  0  0  0  0  0  0  0  0
    2.7600   12.8240   -0.5230 C   0  0  0  0  0  0  0  0  0  0  0  0
    1.7640   13.7810   -1.2180 C   0  0  1  0  0  0  0  0  0  0  0  0
    0.5550   13.8850   -0.2360 C   0  0  0  0  0  0  0  0  0  0  0  0
    2.3160   15.1920   -1.6050 C   0  0  2  0  0  0  0  0  0  0  0  0
    2.7710   16.0620   -0.4200 C   0  0  0  0  0  0  0  0  0  0  0  0
    1.7190   16.9440    0.1650 C   0  0  0  0  0  0  0  0  0  0  0  0
    0.5430   17.2490   -0.4140 C   0  0  0  0  0  0  0  0  0  0  0  0
    0.2140   16.7650   -1.8330 C   0  0  1  0  0  0  0  0  0  0  0  0
   -0.3680   17.9410   -2.6600 C   0  0  0  0  0  0  0  0  0  0  0  0
   -1.5620   18.6010   -1.9770 C   0  0  0  0  0  0  0  0  0  0  0  0
   -1.1810   19.1210   -0.5940 C   0  0  2  0  0  0  0  0  0  0  0  0
   -0.2470   20.1940   -0.7460 O   0  0  0  0  0  0  0  0  0  0  0  0
   -0.5730   18.0260    0.3270 C   0  0  0  0  0  0  0  0  0  0  0  0
   -1.6770   17.0190    0.7360 C   0  0  0  0  0  0  0  0  0  0  0  0
   -0.1030   18.7110    1.6380 C   0  0  0  0  0  0  0  0  0  0  0  0
    1.3840   16.0040   -2.5940 C   0  0  1  0  0  0  0  0  0  0  0  0
    2.3000   17.0320   -3.3250 C   0  0  0  0  0  0  0  0  0  0  0  0
    0.7600   15.0900   -3.7130 C   0  0  0  0  0  0  0  0  0  0  0  0
    0.3440   13.6660   -3.2970 C   0  0  0  0  0  0  0  0  0  0  0  0
    1.4720   12.9680   -2.5310 C   0  0  2  0  0  0  0  0  0  0  0  0
    2.6940   12.8290   -3.5020 C   0  0  0  0  0  0  0  0  0  0  0  0
   -0.0337    9.3449   -1.4430 H   0  0  0  0  0  0  0  0  0  0  0  0
   -0.9241    9.7543   -2.9484 H   0  0  0  0  0  0  0  0  0  0  0  0
    0.2712    8.4135   -2.9484 H   0  0  0  0  0  0  0  0  0  0  0  0
    0.9222   10.7546   -3.9404 H   0  0  0  0  0  0  0  0  0  0  0  0
    2.9752    9.7909   -1.9593 H   0  0  0  0  0  0  0  0  0  0  0  0
    2.3764    8.6837   -3.2859 H   0  0  0  0  0  0  0  0  0  0  0  0
    3.5799    9.7131   -4.8461 H   0  0  0  0  0  0  0  0  0  0  0  0
    3.0982   11.3526   -4.2403 H   0  0  0  0  0  0  0  0  0  0  0  0
    4.6208    9.8789   -2.5409 H   0  0  0  0  0  0  0  0  0  0  0  0
    5.0175   10.8367   -6.0327 H   0  0  0  0  0  0  0  0  0  0  0  0
    6.6390   11.6079   -6.0848 H   0  0  0  0  0  0  0  0  0  0  0  0
    6.4957    9.8174   -6.0848 H   0  0  0  0  0  0  0  0  0  0  0  0
    7.3434   10.4632   -2.4864 H   0  0  0  0  0  0  0  0  0  0  0  0
    7.7707    9.4419   -3.9009 H   0  0  0  0  0  0  0  0  0  0  0  0
    8.1772   11.1916   -3.9009 H   0  0  0  0  0  0  0  0  0  0  0  0
    0.1128   11.5288   -1.6050 H   0  0  0  0  0  0  0  0  0  0  0  0
    1.7675   10.9649    0.0623 H   0  0  0  0  0  0  0  0  0  0  0  0
    3.0356   10.7384   -1.1616 H   0  0  0  0  0  0  0  0  0  0  0  0
    2.7761   13.0017    0.5624 H   0  0  0  0  0  0  0  0  0  0  0  0
    3.7917   12.9671   -0.8767 H   0  0  0  0  0  0  0  0  0  0  0  0
    0.9210   13.8535    0.8008 H   0  0  0  0  0  0  0  0  0  0  0  0
    0.0230   14.8322   -0.4084 H   0  0  0  0  0  0  0  0  0  0  0  0
   -0.1310   13.0425   -0.4084 H   0  0  0  0  0  0  0  0  0  0  0  0
    3.2315   14.9426   -2.1616 H   0  0  0  0  0  0  0  0  0  0  0  0
    3.1329   15.3922    0.3740 H   0  0  0  0  0  0  0  0  0  0  0  0
    3.5457   16.7347   -0.8166 H   0  0  0  0  0  0  0  0  0  0  0  0
    1.9220   17.3821    1.1534 H   0  0  0  0  0  0  0  0  0  0  0  0
   -0.5463   15.9785   -1.7174 H   0  0  0  0  0  0  0  0  0  0  0  0
    0.4192   18.6962   -2.8017 H   0  0  0  0  0  0  0  0  0  0  0  0
   -0.7156   17.5340   -3.6210 H   0  0  0  0  0  0  0  0  0  0  0  0
   -1.9101   19.4422   -2.5945 H   0  0  0  0  0  0  0  0  0  0  0  0
   -2.3591   17.8517   -1.8627 H   0  0  0  0  0  0  0  0  0  0  0  0
   -2.1048   19.4643   -0.1053 H   0  0  0  0  0  0  0  0  0  0  0  0
   -0.3880   20.8140   -0.0100 H   0  0  0  0  0  0  0  0  0  0  0  0
   -1.7360   16.9652    1.8331 H   0  0  0  0  0  0  0  0  0  0  0  0
   -2.6447   17.3520    0.3327 H   0  0  0  0  0  0  0  0  0  0  0  0
   -1.4342   16.0248    0.3327 H   0  0  0  0  0  0  0  0  0  0  0  0
   -0.4876   18.1505    2.5028 H   0  0  0  0  0  0  0  0  0  0  0  0
    0.9964   18.7259    1.6702 H   0  0  0  0  0  0  0  0  0  0  0  0
   -0.4847   19.7421    1.6702 H   0  0  0  0  0  0  0  0  0  0  0  0
    2.8390   17.6369   -2.5809 H   0  0  0  0  0  0  0  0  0  0  0  0
    3.0242   16.4947   -3.9549 H   0  0  0  0  0  0  0  0  0  0  0  0
    1.6831   17.6898   -3.9549 H   0  0  0  0  0  0  0  0  0  0  0  0
   -0.1362   15.5994   -4.0970 H   0  0  0  0  0  0  0  0  0  0  0  0
    1.5637   14.9503   -4.4510 H   0  0  0  0  0  0  0  0  0  0  0  0
   -0.5459   13.7246   -2.6531 H   0  0  0  0  0  0  0  0  0  0  0  0
    0.1242   13.0851   -4.2049 H   0  0  0  0  0  0  0  0  0  0  0  0
    3.6185   12.7238   -2.9152 H   0  0  0  0  0  0  0  0  0  0  0  0
    2.5592   11.9404   -4.1362 H   0  0  0  0  0  0  0  0  0  0  0  0
    2.7622   13.7252   -4.1362 H   0  0  0  0  0  0  0  0  0  0  0  0
  1  2  1  0
  2  3  1  0
  3  4  1  0
  4  5  1  0
  5  6  1  0
  6  7  1  0
  7  8  1  0
  7  9  1  0
  2 10  1  0
 10 11  1  0
 11 12  1  0
 12 13  1  0
 13 14  1  1
 13 15  1  0
 15 16  1  0
 16 17  1  0
 17 18  2  0
 18 19  1  0
 19 20  1  0
 20 21  1  0
 21 22  1  0
 22 23  1  0
 22 24  1  0
 24 25  1  0
 24 26  1  0
 19 27  1  0
 27 28  1  6
 27 29  1  0
 29 30  1  0
 30 31  1  0
 31 32  1  6
  7  5  1  0
 31 10  1  0
 31 13  1  0
 27 15  1  0
 24 18  1  0
  1 33  1  0
  1 34  1  0
  1 35  1  0
  2 36  1  6
  3 37  1  0
  3 38  1  0
  4 39  1  0
  4 40  1  0
  5 41  1  1
  8 42  1  0
  8 43  1  0
  8 44  1  0
  9 45  1  0
  9 46  1  0
  9 47  1  0
 10 48  1  1
 11 49  1  0
 11 50  1  0
 12 51  1  0
 12 52  1  0
 14 53  1  0
 14 54  1  0
 14 55  1  0
 15 56  1  6
 16 57  1  0
 16 58  1  0
 17 59  1  0
 19 60  1  1
 20 61  1  0
 20 62  1  0
 21 63  1  0
 21 64  1  0
 22 65  1  1
 23 66  1  0
 25 67  1  0
 25 68  1  0
 25 69  1  0
 26 70  1  0
 26 71  1  0
 26 72  1  0
 28 73  1  0
 28 74  1  0
 28 75  1  0
 29 76  1  0
 29 77  1  0
 30 78  1  0
 30 79  1  0
 32 80  1  0
 32 81  1  0
 32 82  1  0
M  END
>  <meeko>  (9) 
{"is_sidechain": [false], "intermolecular_energy": 2.731, "internal_energy": -0.839}

$$$$
EPH_relaxed_0001_pdb2pqr_Repair_93_r2_0001_out
     RDKit          3D

 82 86  0  0  0  0  0  0  0  0999 V2000
    3.5390   18.6570   -2.5260 C   0  0  0  0  0  0  0  0  0  0  0  0
    2.2500   17.8610   -2.7520 C   0  0  2  0  0  0  0  0  0  0  0  0
    0.9960   18.6640   -2.3540 C   0  0  0  0  0  0  0  0  0  0  0  0
    1.1090   19.3470   -0.9890 C   0  0  0  0  0  0  0  0  0  0  0  0
   -0.1770   20.0040   -0.5890 C   0  0  2  0  0  0  0  0  0  0  0  0
   -0.3390   20.1940    0.8230 O   0  0  0  0  0  0  0  0  0  0  0  0
   -1.2690   19.2990    0.1930 C   0  0  0  0  0  0  0  0  0  0  0  0
   -1.1250   17.8720    0.6210 C   0  0  0  0  0  0  0  0  0  0  0  0
   -2.6650   19.8350    0.1170 C   0  0  0  0  0  0  0  0  0  0  0  0
    2.3020   16.5550   -1.9690 C   0  0  1  0  0  0  0  0  0  0  0  0
    2.5180   16.7770   -0.4480 C   0  0  0  0  0  0  0  0  0  0  0  0
    1.7160   15.6700    0.2840 C   0  0  0  0  0  0  0  0  0  0  0  0
    1.3430   14.6600   -0.8260 C   0  0  1  0  0  0  0  0  0  0  0  0
    2.6210   13.7840   -1.0180 C   0  0  0  0  0  0  0  0  0  0  0  0
    0.0760   13.7830   -0.5650 C   0  0  2  0  0  0  0  0  0  0  0  0
    0.1690   12.8490    0.6550 C   0  0  0  0  0  0  0  0  0  0  0  0
    0.7090   11.4860    0.3750 C   0  0  0  0  0  0  0  0  0  0  0  0
    0.8380   10.9310   -0.8450 C   0  0  0  0  0  0  0  0  0  0  0  0
    0.3270   11.6550   -2.0970 C   0  0  1  0  0  0  0  0  0  0  0  0
   -0.4760   10.6620   -2.9780 C   0  0  0  0  0  0  0  0  0  0  0  0
    0.3190    9.4040   -3.3140 C   0  0  0  0  0  0  0  0  0  0  0  0
    0.7590    8.6810   -2.0440 C   0  0  2  0  0  0  0  0  0  0  0  0
   -0.4010    8.1750   -1.3750 O   0  0  0  0  0  0  0  0  0  0  0  0
    1.5690    9.5860   -1.0740 C   0  0  0  0  0  0  0  0  0  0  0  0
    2.9610    9.8860   -1.6820 C   0  0  0  0  0  0  0  0  0  0  0  0
    1.8290    8.7780    0.2270 C   0  0  0  0  0  0  0  0  0  0  0  0
   -0.4560   13.0140   -1.8420 C   0  0  1  0  0  0  0  0  0  0  0  0
   -1.9660   12.7190   -1.5870 C   0  0  0  0  0  0  0  0  0  0  0  0
   -0.3890   13.8980   -3.1430 C   0  0  0  0  0  0  0  0  0  0  0  0
    0.8280   14.8320   -3.2870 C   0  0  0  0  0  0  0  0  0  0  0  0
    1.0450   15.6510   -2.0100 C   0  0  2  0  0  0  0  0  0  0  0  0
   -0.2160   16.5580   -1.8040 C   0  0  0  0  0  0  0  0  0  0  0  0
    3.7174   18.7671   -1.4462 H   0  0  0  0  0  0  0  0  0  0  0  0
    4.3846   18.1236   -2.9848 H   0  0  0  0  0  0  0  0  0  0  0  0
    3.4408   19.6519   -2.9848 H   0  0  0  0  0  0  0  0  0  0  0  0
    2.1773   17.6463   -3.8284 H   0  0  0  0  0  0  0  0  0  0  0  0
    0.8232   19.4381   -3.1162 H   0  0  0  0  0  0  0  0  0  0  0  0
    0.1641   17.9475   -2.2865 H   0  0  0  0  0  0  0  0  0  0  0  0
    1.3736   18.5923   -0.2337 H   0  0  0  0  0  0  0  0  0  0  0  0
    1.8839   20.1246   -1.0581 H   0  0  0  0  0  0  0  0  0  0  0  0
   -0.1962   20.5868   -1.5217 H   0  0  0  0  0  0  0  0  0  0  0  0
   -1.1195   17.8175    1.7196 H   0  0  0  0  0  0  0  0  0  0  0  0
   -1.9684   17.2847    0.2290 H   0  0  0  0  0  0  0  0  0  0  0  0
   -0.1812   17.4651    0.2290 H   0  0  0  0  0  0  0  0  0  0  0  0
   -3.0560   19.9851    1.1341 H   0  0  0  0  0  0  0  0  0  0  0  0
   -2.6604   20.7953   -0.4195 H   0  0  0  0  0  0  0  0  0  0  0  0
   -3.3042   19.1184   -0.4195 H   0  0  0  0  0  0  0  0  0  0  0  0
    3.1372   16.0626   -2.4886 H   0  0  0  0  0  0  0  0  0  0  0  0
    3.5870   16.6962   -0.2014 H   0  0  0  0  0  0  0  0  0  0  0  0
    2.1787   17.7779   -0.1428 H   0  0  0  0  0  0  0  0  0  0  0  0
    2.3345   15.1882    1.0556 H   0  0  0  0  0  0  0  0  0  0  0  0
    0.8302   16.0687    0.8001 H   0  0  0  0  0  0  0  0  0  0  0  0
    3.0263   13.5062   -0.0339 H   0  0  0  0  0  0  0  0  0  0  0  0
    2.3608   12.8735   -1.5777 H   0  0  0  0  0  0  0  0  0  0  0  0
    3.3763   14.3551   -1.5777 H   0  0  0  0  0  0  0  0  0  0  0  0
   -0.6828   14.5368   -0.3079 H   0  0  0  0  0  0  0  0  0  0  0  0
    0.8222   13.3269    1.3999 H   0  0  0  0  0  0  0  0  0  0  0  0
   -0.8635   12.7013    1.0045 H   0  0  0  0  0  0  0  0  0  0  0  0
    1.0286   10.8840    1.2383 H   0  0  0  0  0  0  0  0  0  0  0  0
    1.2227   11.9947   -2.6378 H   0  0  0  0  0  0  0  0  0  0  0  0
   -1.3881   10.3690   -2.4375 H   0  0  0  0  0  0  0  0  0  0  0  0
   -0.7123   11.1706   -3.9243 H   0  0  0  0  0  0  0  0  0  0  0  0
   -0.3108    8.7293   -3.9124 H   0  0  0  0  0  0  0  0  0  0  0  0
    1.2158    9.6963   -3.8800 H   0  0  0  0  0  0  0  0  0  0  0  0
    1.4308    7.8638   -2.3456 H   0  0  0  0  0  0  0  0  0  0  0  0
   -0.6190    8.7930   -0.6570 H   0  0  0  0  0  0  0  0  0  0  0  0
    3.6887   10.0428   -0.8722 H   0  0  0  0  0  0  0  0  0  0  0  0
    3.2808    9.0362   -2.3029 H   0  0  0  0  0  0  0  0  0  0  0  0
    2.9024   10.7921   -2.3029 H   0  0  0  0  0  0  0  0  0  0  0  0
    1.6243    9.4141    1.1008 H   0  0  0  0  0  0  0  0  0  0  0  0
    1.1684    7.8987    0.2507 H   0  0  0  0  0  0  0  0  0  0  0  0
    2.8784    8.4490    0.2507 H   0  0  0  0  0  0  0  0  0  0  0  0
   -2.1546   12.6822   -0.5039 H   0  0  0  0  0  0  0  0  0  0  0  0
   -2.5764   13.5149   -2.0386 H   0  0  0  0  0  0  0  0  0  0  0  0
   -2.2320   11.7519   -2.0386 H   0  0  0  0  0  0  0  0  0  0  0  0
   -0.3907   13.2180   -4.0077 H   0  0  0  0  0  0  0  0  0  0  0  0
   -1.2596   14.5675   -3.0810 H   0  0  0  0  0  0  0  0  0  0  0  0
    1.7252   14.2264   -3.4829 H   0  0  0  0  0  0  0  0  0  0  0  0
    0.6416   15.5250   -4.1207 H   0  0  0  0  0  0  0  0  0  0  0  0
   -0.4004   16.6906   -0.7277 H   0  0  0  0  0  0  0  0  0  0  0  0
   -0.0420   17.5392   -2.2698 H   0  0  0  0  0  0  0  0  0  0  0  0
   -1.0909   16.0809   -2.2698 H   0  0  0  0  0  0  0  0  0  0  0  0
  1  2  1  0
  2  3  1  0
  3  4  1  0
  4  5  1  0
  5  6  1  0
  6  7  1  0
  7  8  1  0
  7  9  1  0
  2 10  1  0
 10 11  1  0
 11 12  1  0
 12 13  1  0
 13 14  1  6
 13 15  1  0
 15 16  1  0
 16 17  1  0
 17 18  2  0
 18 19  1  0
 19 20  1  0
 20 21  1  0
 21 22  1  0
 22 23  1  0
 22 24  1  0
 24 25  1  0
 24 26  1  0
 19 27  1  0
 27 28  1  1
 27 29  1  0
 29 30  1  0
 30 31  1  0
 31 32  1  1
  7  5  1  0
 31 10  1  0
 31 13  1  0
 27 15  1  0
 24 18  1  0
  1 33  1  0
  1 34  1  0
  1 35  1  0
  2 36  1  6
  3 37  1  0
  3 38  1  0
  4 39  1  0
  4 40  1  0
  5 41  1  6
  8 42  1  0
  8 43  1  0
  8 44  1  0
  9 45  1  0
  9 46  1  0
  9 47  1  0
 10 48  1  6
 11 49  1  0
 11 50  1  0
 12 51  1  0
 12 52  1  0
 14 53  1  0
 14 54  1  0
 14 55  1  0
 15 56  1  1
 16 57  1  0
 16 58  1  0
 17 59  1  0
 19 60  1  6
 20 61  1  0
 20 62  1  0
 21 63  1  0
 21 64  1  0
 22 65  1  6
 23 66  1  0
 25 67  1  0
 25 68  1  0
 25 69  1  0
 26 70  1  0
 26 71  1  0
 26 72  1  0
 28 73  1  0
 28 74  1  0
 28 75  1  0
 29 76  1  0
 29 77  1  0
 30 78  1  0
 30 79  1  0
 32 80  1  0
 32 81  1  0
 32 82  1  0
M  END
>  <meeko>  (10) 
{"is_sidechain": [false], "intermolecular_energy": 2.731, "internal_energy": -0.839}

$$$$
EPH_relaxed_0001_pdb2pqr_Repair_93_r2_0001_out
     RDKit          3D

 82 86  0  0  0  0  0  0  0  0999 V2000
   -3.7130    7.1390   -3.3420 C   0  0  0  0  0  0  0  0  0  0  0  0
   -3.7700    7.2550   -1.8170 C   0  0  2  0  0  0  0  0  0  0  0  0
   -5.2010    7.0680   -1.2730 C   0  0  0  0  0  0  0  0  0  0  0  0
   -6.2930    7.3060   -2.3190 C   0  0  0  0  0  0  0  0  0  0  0  0
   -7.6340    7.5140   -1.6820 C   0  0  2  0  0  0  0  0  0  0  0  0
   -8.2220    6.3320   -1.1250 O   0  0  0  0  0  0  0  0  0  0  0  0
   -8.9210    6.9260   -2.2310 C   0  0  0  0  0  0  0  0  0  0  0  0
   -8.9290    6.0850   -3.4690 C   0  0  0  0  0  0  0  0  0  0  0  0
  -10.2190    7.5660   -1.8500 C   0  0  0  0  0  0  0  0  0  0  0  0
   -3.2190    8.6070   -1.3780 C   0  0  1  0  0  0  0  0  0  0  0  0
   -3.8260    9.0920   -0.0350 C   0  0  0  0  0  0  0  0  0  0  0  0
   -2.7030    9.8540    0.7140 C   0  0  0  0  0  0  0  0  0  0  0  0
   -1.6010   10.0700   -0.3500 C   0  0  1  0  0  0  0  0  0  0  0  0
   -2.0720   11.3130   -1.1680 C   0  0  0  0  0  0  0  0  0  0  0  0
   -0.1460   10.2520    0.1900 C   0  0  2  0  0  0  0  0  0  0  0  0
    0.0700   11.4880    1.0820 C   0  0  0  0  0  0  0  0  0  0  0  0
    0.4810   12.7290    0.3630 C   0  0  0  0  0  0  0  0  0  0  0  0
    0.9460   12.7850   -0.8990 C   0  0  0  0  0  0  0  0  0  0  0  0
    1.1890   11.5030   -1.7060 C   0  0  1  0  0  0  0  0  0  0  0  0
    2.5750   11.5820   -2.3980 C   0  0  0  0  0  0  0  0  0  0  0  0
    2.7360   12.8430   -3.2430 C   0  0  0  0  0  0  0  0  0  0  0  0
    2.5440   14.0960   -2.3930 C   0  0  2  0  0  0  0  0  0  0  0  0
    3.6190   14.1840   -1.4520 O   0  0  0  0  0  0  0  0  0  0  0  0
    1.1860   14.1240   -1.6390 C   0  0  0  0  0  0  0  0  0  0  0  0
    0.0320   14.3330   -2.6520 C   0  0  0  0  0  0  0  0  0  0  0  0
    1.1800   15.3690   -0.7110 C   0  0  0  0  0  0  0  0  0  0  0  0
    0.9760   10.1380   -0.9200 C   0  0  1  0  0  0  0  0  0  0  0  0
    2.2920    9.7380   -0.1840 C   0  0  0  0  0  0  0  0  0  0  0  0
    0.6790    8.9900   -1.9550 C   0  0  0  0  0  0  0  0  0  0  0  0
   -0.7930    8.7810   -2.3580 C   0  0  0  0  0  0  0  0  0  0  0  0
   -1.6940    8.7040   -1.1220 C   0  0  2  0  0  0  0  0  0  0  0  0
   -1.2590    7.4500   -0.2900 C   0  0  0  0  0  0  0  0  0  0  0  0
   -3.2436    6.1837   -3.6198 H   0  0  0  0  0  0  0  0  0  0  0  0
   -4.7333    7.1788   -3.7512 H   0  0  0  0  0  0  0  0  0  0  0  0
   -3.1211    7.9710   -3.7512 H   0  0  0  0  0  0  0  0  0  0  0  0
   -3.1503    6.4473   -1.4004 H   0  0  0  0  0  0  0  0  0  0  0  0
   -5.2981    6.0386   -0.8977 H   0  0  0  0  0  0  0  0  0  0  0  0
   -5.3447    7.8185   -0.4818 H   0  0  0  0  0  0  0  0  0  0  0  0
   -6.0351    8.1992   -2.9069 H   0  0  0  0  0  0  0  0  0  0  0  0
   -6.3527    6.4152   -2.9616 H   0  0  0  0  0  0  0  0  0  0  0  0
   -7.3589    8.5357   -1.3811 H   0  0  0  0  0  0  0  0  0  0  0  0
   -8.9391    5.0211   -3.1895 H   0  0  0  0  0  0  0  0  0  0  0  0
   -9.8250    6.3164   -4.0637 H   0  0  0  0  0  0  0  0  0  0  0  0
   -8.0288    6.2993   -4.0637 H   0  0  0  0  0  0  0  0  0  0  0  0
  -10.3002    7.6060   -0.7537 H   0  0  0  0  0  0  0  0  0  0  0  0
  -10.2582    8.5867   -2.2581 H   0  0  0  0  0  0  0  0  0  0  0  0
  -11.0526    6.9756   -2.2581 H   0  0  0  0  0  0  0  0  0  0  0  0
   -3.4926    9.2113   -2.2555 H   0  0  0  0  0  0  0  0  0  0  0  0
   -4.6774    9.7623   -0.2243 H   0  0  0  0  0  0  0  0  0  0  0  0
   -4.1935    8.2440    0.5614 H   0  0  0  0  0  0  0  0  0  0  0  0
   -3.0732   10.8188    1.0910 H   0  0  0  0  0  0  0  0  0  0  0  0
   -2.3345    9.2990    1.5893 H   0  0  0  0  0  0  0  0  0  0  0  0
   -2.3752   12.1133   -0.4769 H   0  0  0  0  0  0  0  0  0  0  0  0
   -1.2465   11.6691   -1.8018 H   0  0  0  0  0  0  0  0  0  0  0  0
   -2.9262   11.0326   -1.8018 H   0  0  0  0  0  0  0  0  0  0  0  0
   -0.0301    9.3816    0.8525 H   0  0  0  0  0  0  0  0  0  0  0  0
   -0.8733   11.6966    1.6080 H   0  0  0  0  0  0  0  0  0  0  0  0
    0.9031   11.2360    1.7546 H   0  0  0  0  0  0  0  0  0  0  0  0
    0.3969   13.6792    0.9108 H   0  0  0  0  0  0  0  0  0  0  0  0
    0.3941   11.4663   -2.4655 H   0  0  0  0  0  0  0  0  0  0  0  0
    3.3566   11.5740   -1.6240 H   0  0  0  0  0  0  0  0  0  0  0  0
    2.6624   10.7159   -3.0705 H   0  0  0  0  0  0  0  0  0  0  0  0
    3.7447   12.8563   -3.6816 H   0  0  0  0  0  0  0  0  0  0  0  0
    1.9728   12.8352   -4.0352 H   0  0  0  0  0  0  0  0  0  0  0  0
    2.5409   14.9591   -3.0749 H   0  0  0  0  0  0  0  0  0  0  0  0
    3.2810   14.6370   -0.6620 H   0  0  0  0  0  0  0  0  0  0  0  0
   -0.9081   14.5033   -2.1068 H   0  0  0  0  0  0  0  0  0  0  0  0
    0.2525   15.2058   -3.2841 H   0  0  0  0  0  0  0  0  0  0  0  0
   -0.0676   13.4383   -3.2841 H   0  0  0  0  0  0  0  0  0  0  0  0
    1.1816   15.0432    0.3396 H   0  0  0  0  0  0  0  0  0  0  0  0
    2.0752   15.9772   -0.9076 H   0  0  0  0  0  0  0  0  0  0  0  0
    0.2790   15.9685   -0.9076 H   0  0  0  0  0  0  0  0  0  0  0  0
    2.1332    9.7863    0.9034 H   0  0  0  0  0  0  0  0  0  0  0  0
    2.5742    8.7135   -0.4682 H   0  0  0  0  0  0  0  0  0  0  0  0
    3.0966   10.4322   -0.4682 H   0  0  0  0  0  0  0  0  0  0  0  0
    1.2462    9.2128   -2.8708 H   0  0  0  0  0  0  0  0  0  0  0  0
    0.9723    8.0604   -1.4453 H   0  0  0  0  0  0  0  0  0  0  0  0
   -1.1168    9.6230   -2.9875 H   0  0  0  0  0  0  0  0  0  0  0  0
   -0.8742    7.8335   -2.9108 H   0  0  0  0  0  0  0  0  0  0  0  0
   -1.3377    7.6769    0.7835 H   0  0  0  0  0  0  0  0  0  0  0  0
   -1.9155    6.6019   -0.5346 H   0  0  0  0  0  0  0  0  0  0  0  0
   -0.2184    7.1906   -0.5346 H   0  0  0  0  0  0  0  0  0  0  0  0
  1  2  1  0
  2  3  1  0
  3  4  1  0
  4  5  1  0
  5  6  1  0
  6  7  1  0
  7  8  1  0
  7  9  1  0
  2 10  1  0
 10 11  1  0
 11 12  1  0
 12 13  1  0
 13 14  1  6
 13 15  1  0
 15 16  1  0
 16 17  1  0
 17 18  2  0
 18 19  1  0
 19 20  1  0
 20 21  1  0
 21 22  1  0
 22 23  1  0
 22 24  1  0
 24 25  1  0
 24 26  1  0
 19 27  1  0
 27 28  1  1
 27 29  1  0
 29 30  1  0
 30 31  1  0
 31 32  1  1
  7  5  1  0
 31 10  1  0
 31 13  1  0
 27 15  1  0
 24 18  1  0
  1 33  1  0
  1 34  1  0
  1 35  1  0
  2 36  1  1
  3 37  1  0
  3 38  1  0
  4 39  1  0
  4 40  1  0
  5 41  1  1
  8 42  1  0
  8 43  1  0
  8 44  1  0
  9 45  1  0
  9 46  1  0
  9 47  1  0
 10 48  1  6
 11 49  1  0
 11 50  1  0
 12 51  1  0
 12 52  1  0
 14 53  1  0
 14 54  1  0
 14 55  1  0
 15 56  1  1
 16 57  1  0
 16 58  1  0
 17 59  1  0
 19 60  1  6
 20 61  1  0
 20 62  1  0
 21 63  1  0
 21 64  1  0
 22 65  1  6
 23 66  1  0
 25 67  1  0
 25 68  1  0
 25 69  1  0
 26 70  1  0
 26 71  1  0
 26 72  1  0
 28 73  1  0
 28 74  1  0
 28 75  1  0
 29 76  1  0
 29 77  1  0
 30 78  1  0
 30 79  1  0
 32 80  1  0
 32 81  1  0
 32 82  1  0
M  END
>  <meeko>  (11) 
{"is_sidechain": [false], "intermolecular_energy": 2.731, "internal_energy": -0.839}

$$$$
EPH_relaxed_0001_pdb2pqr_Repair_93_r2_0001_out
     RDKit          3D

 82 86  0  0  0  0  0  0  0  0999 V2000
   -2.0440    7.7860   -2.0960 C   0  0  0  0  0  0  0  0  0  0  0  0
   -2.2710    8.4960   -0.7580 C   0  0  2  0  0  0  0  0  0  0  0  0
   -3.7600    8.5230   -0.3600 C   0  0  0  0  0  0  0  0  0  0  0  0
   -4.6720    7.7740   -1.3360 C   0  0  0  0  0  0  0  0  0  0  0  0
   -5.9220    7.2880   -0.6670 C   0  0  2  0  0  0  0  0  0  0  0  0
   -6.1340    5.8730   -0.7500 O   0  0  0  0  0  0  0  0  0  0  0  0
   -7.1000    6.6990   -1.4200 C   0  0  0  0  0  0  0  0  0  0  0  0
   -7.0850    6.5660   -2.9110 C   0  0  0  0  0  0  0  0  0  0  0  0
   -8.4450    6.7080   -0.7640 C   0  0  0  0  0  0  0  0  0  0  0  0
   -1.7240    9.9170   -0.8240 C   0  0  1  0  0  0  0  0  0  0  0  0
   -1.2690   10.4470    0.5620 C   0  0  0  0  0  0  0  0  0  0  0  0
   -0.0360   11.3520    0.3130 C   0  0  0  0  0  0  0  0  0  0  0  0
   -0.0230   11.5800   -1.2170 C   0  0  1  0  0  0  0  0  0  0  0  0
   -1.0640   12.7170   -1.4620 C   0  0  0  0  0  0  0  0  0  0  0  0
    1.3650   11.9210   -1.8530 C   0  0  2  0  0  0  0  0  0  0  0  0
    2.0030   13.2320   -1.3610 C   0  0  0  0  0  0  0  0  0  0  0  0
    1.6560   14.4480   -2.1540 C   0  0  0  0  0  0  0  0  0  0  0  0
    1.0980   14.4490   -3.3790 C   0  0  0  0  0  0  0  0  0  0  0  0
    0.8480   13.1360   -4.1330 C   0  0  1  0  0  0  0  0  0  0  0  0
    1.3360   13.2790   -5.5980 C   0  0  0  0  0  0  0  0  0  0  0  0
    0.7220   14.4830   -6.3050 C   0  0  0  0  0  0  0  0  0  0  0  0
    1.0410   15.7760   -5.5580 C   0  0  2  0  0  0  0  0  0  0  0  0
    2.4490   16.0200   -5.6410 O   0  0  0  0  0  0  0  0  0  0  0  0
    0.6030   15.7460   -4.0670 C   0  0  0  0  0  0  0  0  0  0  0  0
   -0.9420   15.7840   -3.9780 C   0  0  0  0  0  0  0  0  0  0  0  0
    1.1090   17.0500   -3.3940 C   0  0  0  0  0  0  0  0  0  0  0  0
    1.3960   11.8200   -3.4320 C   0  0  1  0  0  0  0  0  0  0  0  0
    2.8850   11.5840   -3.8330 C   0  0  0  0  0  0  0  0  0  0  0  0
    0.5900   10.5780   -3.9680 C   0  0  0  0  0  0  0  0  0  0  0  0
   -0.7100   10.2200   -3.2230 C   0  0  0  0  0  0  0  0  0  0  0  0
   -0.4770   10.1580   -1.7110 C   0  0  2  0  0  0  0  0  0  0  0  0
    0.5500    9.0080   -1.4310 C   0  0  0  0  0  0  0  0  0  0  0  0
   -1.7138    6.7531   -1.9116 H   0  0  0  0  0  0  0  0  0  0  0  0
   -2.9831    7.7740   -2.6687 H   0  0  0  0  0  0  0  0  0  0  0  0
   -1.2721    8.3210   -2.6687 H   0  0  0  0  0  0  0  0  0  0  0  0
   -1.7333    7.9260    0.0140 H   0  0  0  0  0  0  0  0  0  0  0  0
   -3.8622    8.0625    0.6337 H   0  0  0  0  0  0  0  0  0  0  0  0
   -4.0760    9.5766   -0.3690 H   0  0  0  0  0  0  0  0  0  0  0  0
   -4.9480    8.4518   -2.1572 H   0  0  0  0  0  0  0  0  0  0  0  0
   -4.1235    6.8986   -1.7138 H   0  0  0  0  0  0  0  0  0  0  0  0
   -5.8536    8.0832    0.0899 H   0  0  0  0  0  0  0  0  0  0  0  0
   -6.9656    5.5070   -3.1835 H   0  0  0  0  0  0  0  0  0  0  0  0
   -8.0317    6.9460   -3.3226 H   0  0  0  0  0  0  0  0  0  0  0  0
   -6.2467    7.1473   -3.3226 H   0  0  0  0  0  0  0  0  0  0  0  0
   -8.3199    6.7072    0.3289 H   0  0  0  0  0  0  0  0  0  0  0  0
   -8.9958    7.6099   -1.0693 H   0  0  0  0  0  0  0  0  0  0  0  0
   -9.0079    5.8136   -1.0693 H   0  0  0  0  0  0  0  0  0  0  0  0
   -2.5967   10.4309   -1.2534 H   0  0  0  0  0  0  0  0  0  0  0  0
   -2.0775   11.0287    1.0290 H   0  0  0  0  0  0  0  0  0  0  0  0
   -1.0189    9.6169    1.2391 H   0  0  0  0  0  0  0  0  0  0  0  0
   -0.1414   12.3077    0.8473 H   0  0  0  0  0  0  0  0  0  0  0  0
    0.8970   10.8954    0.6750 H   0  0  0  0  0  0  0  0  0  0  0  0
   -1.4185   13.1041   -0.4953 H   0  0  0  0  0  0  0  0  0  0  0  0
   -0.5911   13.5306   -2.0317 H   0  0  0  0  0  0  0  0  0  0  0  0
   -1.9160   12.3176   -2.0317 H   0  0  0  0  0  0  0  0  0  0  0  0
    2.0062   11.1140   -1.4688 H   0  0  0  0  0  0  0  0  0  0  0  0
    1.6786   13.3992   -0.3233 H   0  0  0  0  0  0  0  0  0  0  0  0
    3.0898   13.0997   -1.4675 H   0  0  0  0  0  0  0  0  0  0  0  0
    1.8746   15.4254   -1.6992 H   0  0  0  0  0  0  0  0  0  0  0  0
   -0.2405   12.9780   -4.1170 H   0  0  0  0  0  0  0  0  0  0  0  0
    2.4302   13.3919   -5.5956 H   0  0  0  0  0  0  0  0  0  0  0  0
    1.0229   12.3765   -6.1434 H   0  0  0  0  0  0  0  0  0  0  0  0
    1.1283   14.5471   -7.3252 H   0  0  0  0  0  0  0  0  0  0  0  0
   -0.3701   14.3542   -6.3331 H   0  0  0  0  0  0  0  0  0  0  0  0
    0.4684   16.5841   -6.0367 H   0  0  0  0  0  0  0  0  0  0  0  0
    2.6060   16.5730   -6.4250 H   0  0  0  0  0  0  0  0  0  0  0  0
   -1.2483   15.7915   -2.9215 H   0  0  0  0  0  0  0  0  0  0  0  0
   -1.3157   16.6916   -4.4746 H   0  0  0  0  0  0  0  0  0  0  0  0
   -1.3598   14.8959   -4.4746 H   0  0  0  0  0  0  0  0  0  0  0  0
    1.0659   16.9388   -2.3005 H   0  0  0  0  0  0  0  0  0  0  0  0
    2.1472   17.2427   -3.7023 H   0  0  0  0  0  0  0  0  0  0  0  0
    0.4725   17.8925   -3.7023 H   0  0  0  0  0  0  0  0  0  0  0  0
    3.4983   11.4868   -2.9250 H   0  0  0  0  0  0  0  0  0  0  0  0
    2.9627   10.6623   -4.4284 H   0  0  0  0  0  0  0  0  0  0  0  0
    3.2439   12.4365   -4.4284 H   0  0  0  0  0  0  0  0  0  0  0  0
    0.3278   10.7790   -5.0172 H   0  0  0  0  0  0  0  0  0  0  0  0
    1.2557    9.7155   -3.8165 H   0  0  0  0  0  0  0  0  0  0  0  0
   -1.4705   10.9850   -3.4387 H   0  0  0  0  0  0  0  0  0  0  0  0
   -1.0495    9.2315   -3.5660 H   0  0  0  0  0  0  0  0  0  0  0  0
    0.6669    8.8771   -0.3451 H   0  0  0  0  0  0  0  0  0  0  0  0
    0.1821    8.0716   -1.8757 H   0  0  0  0  0  0  0  0  0  0  0  0
    1.5219    9.2681   -1.8757 H   0  0  0  0  0  0  0  0  0  0  0  0
  1  2  1  0
  2  3  1  0
  3  4  1  0
  4  5  1  0
  5  6  1  0
  6  7  1  0
  7  8  1  0
  7  9  1  0
  2 10  1  0
 10 11  1  0
 11 12  1  0
 12 13  1  0
 13 14  1  1
 13 15  1  0
 15 16  1  0
 16 17  1  0
 17 18  2  0
 18 19  1  0
 19 20  1  0
 20 21  1  0
 21 22  1  0
 22 23  1  0
 22 24  1  0
 24 25  1  0
 24 26  1  0
 19 27  1  0
 27 28  1  6
 27 29  1  0
 29 30  1  0
 30 31  1  0
 31 32  1  6
  7  5  1  0
 31 10  1  0
 31 13  1  0
 27 15  1  0
 24 18  1  0
  1 33  1  0
  1 34  1  0
  1 35  1  0
  2 36  1  1
  3 37  1  0
  3 38  1  0
  4 39  1  0
  4 40  1  0
  5 41  1  1
  8 42  1  0
  8 43  1  0
  8 44  1  0
  9 45  1  0
  9 46  1  0
  9 47  1  0
 10 48  1  6
 11 49  1  0
 11 50  1  0
 12 51  1  0
 12 52  1  0
 14 53  1  0
 14 54  1  0
 14 55  1  0
 15 56  1  1
 16 57  1  0
 16 58  1  0
 17 59  1  0
 19 60  1  6
 20 61  1  0
 20 62  1  0
 21 63  1  0
 21 64  1  0
 22 65  1  6
 23 66  1  0
 25 67  1  0
 25 68  1  0
 25 69  1  0
 26 70  1  0
 26 71  1  0
 26 72  1  0
 28 73  1  0
 28 74  1  0
 28 75  1  0
 29 76  1  0
 29 77  1  0
 30 78  1  0
 30 79  1  0
 32 80  1  0
 32 81  1  0
 32 82  1  0
M  END
>  <meeko>  (12) 
{"is_sidechain": [false], "intermolecular_energy": 2.731, "internal_energy": -0.839}

$$$$
EPH_relaxed_0001_pdb2pqr_Repair_93_r2_0001_out
     RDKit          3D

 82 86  0  0  0  0  0  0  0  0999 V2000
   -0.0220   19.7370   -1.2450 C   0  0  0  0  0  0  0  0  0  0  0  0
    1.0020   19.0910   -0.3090 C   0  0  2  0  0  0  0  0  0  0  0  0
    2.4430   19.2320   -0.8390 C   0  0  0  0  0  0  0  0  0  0  0  0
    3.5160   18.8490    0.1850 C   0  0  0  0  0  0  0  0  0  0  0  0
    3.3930   19.6530    1.4440 C   0  0  2  0  0  0  0  0  0  0  0  0
    4.6310   20.1740    1.9450 O   0  0  0  0  0  0  0  0  0  0  0  0
    3.9650   19.2110    2.7780 C   0  0  0  0  0  0  0  0  0  0  0  0
    4.7030   17.9160    2.9200 C   0  0  0  0  0  0  0  0  0  0  0  0
    3.3910   19.7930    4.0310 C   0  0  0  0  0  0  0  0  0  0  0  0
    0.6640   17.6180   -0.1060 C   0  0  1  0  0  0  0  0  0  0  0  0
   -0.7530   17.4070    0.4890 C   0  0  0  0  0  0  0  0  0  0  0  0
   -1.3130   16.1060   -0.1410 C   0  0  0  0  0  0  0  0  0  0  0  0
   -0.0900   15.4390   -0.8120 C   0  0  1  0  0  0  0  0  0  0  0  0
    0.6550   14.7070    0.3480 C   0  0  0  0  0  0  0  0  0  0  0  0
   -0.3960   14.4720   -2.0020 C   0  0  2  0  0  0  0  0  0  0  0  0
   -1.2340   13.2350   -1.6380 C   0  0  0  0  0  0  0  0  0  0  0  0
   -0.4510   12.0310   -1.2300 C   0  0  0  0  0  0  0  0  0  0  0  0
    0.8680   11.8520   -1.4280 C   0  0  0  0  0  0  0  0  0  0  0  0
    1.6940   12.8810   -2.2110 C   0  0  1  0  0  0  0  0  0  0  0  0
    2.5930   12.1480   -3.2400 C   0  0  0  0  0  0  0  0  0  0  0  0
    3.4620   11.0720   -2.5960 C   0  0  0  0  0  0  0  0  0  0  0  0
    2.6020   10.0360   -1.8760 C   0  0  2  0  0  0  0  0  0  0  0  0
    1.8400    9.3140   -2.8490 O   0  0  0  0  0  0  0  0  0  0  0  0
    1.6460   10.6590   -0.8210 C   0  0  0  0  0  0  0  0  0  0  0  0
    2.4690   11.1770    0.3840 C   0  0  0  0  0  0  0  0  0  0  0  0
    0.7380    9.5260   -0.2710 C   0  0  0  0  0  0  0  0  0  0  0  0
    0.8740   14.0780   -2.8600 C   0  0  1  0  0  0  0  0  0  0  0  0
    0.3490   13.6610   -4.2680 C   0  0  0  0  0  0  0  0  0  0  0  0
    1.8420   15.2980   -3.0910 C   0  0  0  0  0  0  0  0  0  0  0  0
    2.0100   16.2840   -1.9180 C   0  0  0  0  0  0  0  0  0  0  0  0
    0.6490   16.7130   -1.3630 C   0  0  2  0  0  0  0  0  0  0  0  0
   -0.1140   17.4720   -2.5020 C   0  0  0  0  0  0  0  0  0  0  0  0
   -0.8038   20.2302   -0.6488 H   0  0  0  0  0  0  0  0  0  0  0  0
    0.4801   20.4822   -1.8795 H   0  0  0  0  0  0  0  0  0  0  0  0
   -0.4783   18.9629   -1.8795 H   0  0  0  0  0  0  0  0  0  0  0  0
    0.9507   19.6207    0.6537 H   0  0  0  0  0  0  0  0  0  0  0  0
    2.5546   18.5813   -1.7189 H   0  0  0  0  0  0  0  0  0  0  0  0
    2.5941   20.2944   -1.0808 H   0  0  0  0  0  0  0  0  0  0  0  0
    3.4090   17.7823    0.4314 H   0  0  0  0  0  0  0  0  0  0  0  0
    4.5017   19.0544   -0.2581 H   0  0  0  0  0  0  0  0  0  0  0  0
    2.3928   20.0041    1.1500 H   0  0  0  0  0  0  0  0  0  0  0  0
    4.8350   17.6843    3.9872 H   0  0  0  0  0  0  0  0  0  0  0  0
    4.1278   17.1114    2.4386 H   0  0  0  0  0  0  0  0  0  0  0  0
    5.6884   18.0008    2.4386 H   0  0  0  0  0  0  0  0  0  0  0  0
    3.8602   19.3172    4.9047 H   0  0  0  0  0  0  0  0  0  0  0  0
    3.5848   20.8755    4.0548 H   0  0  0  0  0  0  0  0  0  0  0  0
    2.3059   19.6142    4.0548 H   0  0  0  0  0  0  0  0  0  0  0  0
    1.4926   17.3278    0.5567 H   0  0  0  0  0  0  0  0  0  0  0  0
   -0.6932   17.3032    1.5825 H   0  0  0  0  0  0  0  0  0  0  0  0
   -1.4055   18.2649    0.2695 H   0  0  0  0  0  0  0  0  0  0  0  0
   -1.7362   15.4502    0.6342 H   0  0  0  0  0  0  0  0  0  0  0  0
   -2.1242   16.3050   -0.8567 H   0  0  0  0  0  0  0  0  0  0  0  0
    0.2802   15.0752    1.3144 H   0  0  0  0  0  0  0  0  0  0  0  0
    0.4754   13.6243    0.2735 H   0  0  0  0  0  0  0  0  0  0  0  0
    1.7344   14.9056    0.2735 H   0  0  0  0  0  0  0  0  0  0  0  0
   -1.0386   15.0885   -2.6478 H   0  0  0  0  0  0  0  0  0  0  0  0
   -1.8975   13.5075   -0.8040 H   0  0  0  0  0  0  0  0  0  0  0  0
   -1.7718   12.9516   -2.5548 H   0  0  0  0  0  0  0  0  0  0  0  0
   -0.9986   11.2218   -0.7248 H   0  0  0  0  0  0  0  0  0  0  0  0
    2.3210   13.3968   -1.4688 H   0  0  0  0  0  0  0  0  0  0  0  0
    1.9496   11.6754   -3.9968 H   0  0  0  0  0  0  0  0  0  0  0  0
    3.2643   12.8950   -3.6887 H   0  0  0  0  0  0  0  0  0  0  0  0
    4.0519   10.5702   -3.3772 H   0  0  0  0  0  0  0  0  0  0  0  0
    4.1259   11.5499   -1.8606 H   0  0  0  0  0  0  0  0  0  0  0  0
    3.2813    9.3675   -1.3267 H   0  0  0  0  0  0  0  0  0  0  0  0
    2.2310    8.4270   -2.9300 H   0  0  0  0  0  0  0  0  0  0  0  0
    1.9808   10.8698    1.3206 H   0  0  0  0  0  0  0  0  0  0  0  0
    3.4838   10.7545    0.3437 H   0  0  0  0  0  0  0  0  0  0  0  0
    2.5270   12.2747    0.3437 H   0  0  0  0  0  0  0  0  0  0  0  0
    0.7533    9.5451    0.8287 H   0  0  0  0  0  0  0  0  0  0  0  0
   -0.2922    9.6768   -0.6260 H   0  0  0  0  0  0  0  0  0  0  0  0
    1.1095    8.5534   -0.6260 H   0  0  0  0  0  0  0  0  0  0  0  0
   -0.5076   12.9806   -4.1532 H   0  0  0  0  0  0  0  0  0  0  0  0
    0.0336   14.5574   -4.8220 H   0  0  0  0  0  0  0  0  0  0  0  0
    1.1508   13.1509   -4.8220 H   0  0  0  0  0  0  0  0  0  0  0  0
    2.8364   14.8931   -3.3304 H   0  0  0  0  0  0  0  0  0  0  0  0
    1.3773   15.8856   -3.8965 H   0  0  0  0  0  0  0  0  0  0  0  0
    2.5873   15.7968   -1.1184 H   0  0  0  0  0  0  0  0  0  0  0  0
    2.5369   17.1776   -2.2839 H   0  0  0  0  0  0  0  0  0  0  0  0
   -0.8270   18.1812   -2.0562 H   0  0  0  0  0  0  0  0  0  0  0  0
    0.6081   18.0205   -3.1246 H   0  0  0  0  0  0  0  0  0  0  0  0
   -0.6587   16.7470   -3.1246 H   0  0  0  0  0  0  0  0  0  0  0  0
  1  2  1  0
  2  3  1  0
  3  4  1  0
  4  5  1  0
  5  6  1  0
  6  7  1  0
  7  8  1  0
  7  9  1  0
  2 10  1  0
 10 11  1  0
 11 12  1  0
 12 13  1  0
 13 14  1  1
 13 15  1  0
 15 16  1  0
 16 17  1  0
 17 18  2  0
 18 19  1  0
 19 20  1  0
 20 21  1  0
 21 22  1  0
 22 23  1  0
 22 24  1  0
 24 25  1  0
 24 26  1  0
 19 27  1  0
 27 28  1  6
 27 29  1  0
 29 30  1  0
 30 31  1  0
 31 32  1  6
  7  5  1  0
 31 10  1  0
 31 13  1  0
 27 15  1  0
 24 18  1  0
  1 33  1  0
  1 34  1  0
  1 35  1  0
  2 36  1  1
  3 37  1  0
  3 38  1  0
  4 39  1  0
  4 40  1  0
  5 41  1  1
  8 42  1  0
  8 43  1  0
  8 44  1  0
  9 45  1  0
  9 46  1  0
  9 47  1  0
 10 48  1  1
 11 49  1  0
 11 50  1  0
 12 51  1  0
 12 52  1  0
 14 53  1  0
 14 54  1  0
 14 55  1  0
 15 56  1  6
 16 57  1  0
 16 58  1  0
 17 59  1  0
 19 60  1  1
 20 61  1  0
 20 62  1  0
 21 63  1  0
 21 64  1  0
 22 65  1  1
 23 66  1  0
 25 67  1  0
 25 68  1  0
 25 69  1  0
 26 70  1  0
 26 71  1  0
 26 72  1  0
 28 73  1  0
 28 74  1  0
 28 75  1  0
 29 76  1  0
 29 77  1  0
 30 78  1  0
 30 79  1  0
 32 80  1  0
 32 81  1  0
 32 82  1  0
M  END
>  <meeko>  (13) 
{"is_sidechain": [false], "intermolecular_energy": 2.731, "internal_energy": -0.839}

$$$$
EPH_relaxed_0001_pdb2pqr_Repair_93_r2_0001_out
     RDKit          3D

 82 86  0  0  0  0  0  0  0  0999 V2000
    2.8400   11.3300   -5.2470 C   0  0  0  0  0  0  0  0  0  0  0  0
    1.7940   11.0350   -4.1680 C   0  0  2  0  0  0  0  0  0  0  0  0
    0.6780   10.1030   -4.6810 C   0  0  0  0  0  0  0  0  0  0  0  0
   -0.3940    9.7920   -3.6330 C   0  0  0  0  0  0  0  0  0  0  0  0
    0.1680    9.0180   -2.4780 C   0  0  2  0  0  0  0  0  0  0  0  0
   -0.6550    7.9340   -2.0270 O   0  0  0  0  0  0  0  0  0  0  0  0
   -0.4560    9.0100   -1.0950 C   0  0  0  0  0  0  0  0  0  0  0  0
   -1.6960    9.7910   -0.7930 C   0  0  0  0  0  0  0  0  0  0  0  0
    0.4030    8.6430    0.0740 C   0  0  0  0  0  0  0  0  0  0  0  0
    1.1910   12.3390   -3.6590 C   0  0  1  0  0  0  0  0  0  0  0  0
   -0.3440   12.2460   -3.4500 C   0  0  0  0  0  0  0  0  0  0  0  0
   -0.6830   13.1250   -2.2190 C   0  0  0  0  0  0  0  0  0  0  0  0
    0.6000   13.9510   -1.9650 C   0  0  1  0  0  0  0  0  0  0  0  0
    0.5270   15.1300   -2.9860 C   0  0  0  0  0  0  0  0  0  0  0  0
    0.8130   14.4640   -0.5040 C   0  0  2  0  0  0  0  0  0  0  0  0
   -0.2620   15.4380    0.0090 C   0  0  0  0  0  0  0  0  0  0  0  0
    0.0160   16.8840   -0.2410 C   0  0  0  0  0  0  0  0  0  0  0  0
    1.2070   17.4020   -0.5930 C   0  0  0  0  0  0  0  0  0  0  0  0
    2.4570   16.5160   -0.6800 C   0  0  1  0  0  0  0  0  0  0  0  0
    3.6400   17.2190    0.0350 C   0  0  0  0  0  0  0  0  0  0  0  0
    3.8870   18.6290   -0.4910 C   0  0  0  0  0  0  0  0  0  0  0  0
    2.6410   19.4960   -0.3350 C   0  0  2  0  0  0  0  0  0  0  0  0
    2.3920   19.6980    1.0600 O   0  0  0  0  0  0  0  0  0  0  0  0
    1.3800   18.8840   -1.0070 C   0  0  0  0  0  0  0  0  0  0  0  0
    1.5310   18.9440   -2.5470 C   0  0  0  0  0  0  0  0  0  0  0  0
    0.1660   19.7850   -0.6550 C   0  0  0  0  0  0  0  0  0  0  0  0
    2.2710   15.0080   -0.2140 C   0  0  1  0  0  0  0  0  0  0  0  0
    2.4900   14.8960    1.3260 C   0  0  0  0  0  0  0  0  0  0  0  0
    3.3850   14.1210   -0.8870 C   0  0  0  0  0  0  0  0  0  0  0  0
    3.0670   13.5440   -2.2790 C   0  0  0  0  0  0  0  0  0  0  0  0
    1.6930   12.8680   -2.2920 C   0  0  2  0  0  0  0  0  0  0  0  0
    1.7420   11.6640   -1.2910 C   0  0  0  0  0  0  0  0  0  0  0  0
    3.7937   11.5990   -4.7694 H   0  0  0  0  0  0  0  0  0  0  0  0
    2.9826   10.4370   -5.8733 H   0  0  0  0  0  0  0  0  0  0  0  0
    2.4950   12.1659   -5.8733 H   0  0  0  0  0  0  0  0  0  0  0  0
    2.3052   10.5153   -3.3442 H   0  0  0  0  0  0  0  0  0  0  0  0
    0.1922   10.5844   -5.5425 H   0  0  0  0  0  0  0  0  0  0  0  0
    1.1539    9.1478   -4.9474 H   0  0  0  0  0  0  0  0  0  0  0  0
   -0.8117   10.7382   -3.2586 H   0  0  0  0  0  0  0  0  0  0  0  0
   -1.1727    9.1790   -4.1103 H   0  0  0  0  0  0  0  0  0  0  0  0
    1.1961    9.2033   -2.8226 H   0  0  0  0  0  0  0  0  0  0  0  0
   -1.8227    9.8708    0.2968 H   0  0  0  0  0  0  0  0  0  0  0  0
   -1.6098   10.7981   -1.2269 H   0  0  0  0  0  0  0  0  0  0  0  0
   -2.5671    9.2782   -1.2269 H   0  0  0  0  0  0  0  0  0  0  0  0
   -0.1316    8.8714    1.0079 H   0  0  0  0  0  0  0  0  0  0  0  0
    0.6331    7.5680    0.0367 H   0  0  0  0  0  0  0  0  0  0  0  0
    1.3389    9.2198    0.0367 H   0  0  0  0  0  0  0  0  0  0  0  0
    1.5090   13.0165   -4.4651 H   0  0  0  0  0  0  0  0  0  0  0  0
   -0.8707   12.6213   -4.3398 H   0  0  0  0  0  0  0  0  0  0  0  0
   -0.6578   11.2041   -3.2892 H   0  0  0  0  0  0  0  0  0  0  0  0
   -1.5343   13.7868   -2.4368 H   0  0  0  0  0  0  0  0  0  0  0  0
   -0.9727   12.5243   -1.3442 H   0  0  0  0  0  0  0  0  0  0  0  0
    0.4679   16.0838   -2.4411 H   0  0  0  0  0  0  0  0  0  0  0  0
    1.4272   15.1239   -3.6181 H   0  0  0  0  0  0  0  0  0  0  0  0
   -0.3656   15.0129   -3.6181 H   0  0  0  0  0  0  0  0  0  0  0  0
    0.6910   13.5452    0.0884 H   0  0  0  0  0  0  0  0  0  0  0  0
   -1.2128   15.1847   -0.4828 H   0  0  0  0  0  0  0  0  0  0  0  0
   -0.2856   15.3171    1.1021 H   0  0  0  0  0  0  0  0  0  0  0  0
   -0.8241   17.5850   -0.1278 H   0  0  0  0  0  0  0  0  0  0  0  0
    2.6800   16.4079   -1.7517 H   0  0  0  0  0  0  0  0  0  0  0  0
    3.4171   17.2780    1.1106 H   0  0  0  0  0  0  0  0  0  0  0  0
    4.5465   16.6269   -0.1588 H   0  0  0  0  0  0  0  0  0  0  0  0
    4.7147   19.0837    0.0731 H   0  0  0  0  0  0  0  0  0  0  0  0
    4.1387   18.5656   -1.5599 H   0  0  0  0  0  0  0  0  0  0  0  0
    2.8370   20.4499   -0.8464 H   0  0  0  0  0  0  0  0  0  0  0  0
    1.6950   20.3710    1.1400 H   0  0  0  0  0  0  0  0  0  0  0  0
    2.5252   19.3391   -2.8028 H   0  0  0  0  0  0  0  0  0  0  0  0
    1.4192   17.9331   -2.9661 H   0  0  0  0  0  0  0  0  0  0  0  0
    0.7559   19.6025   -2.9661 H   0  0  0  0  0  0  0  0  0  0  0  0
    0.0681   19.8577    0.4382 H   0  0  0  0  0  0  0  0  0  0  0  0
    0.3201   20.7891   -1.0769 H   0  0  0  0  0  0  0  0  0  0  0  0
   -0.7505   19.3467   -1.0769 H   0  0  0  0  0  0  0  0  0  0  0  0
    1.6297   15.3360    1.8516 H   0  0  0  0  0  0  0  0  0  0  0  0
    2.5884   13.8369    1.6063 H   0  0  0  0  0  0  0  0  0  0  0  0
    3.4063   15.4362    1.6063 H   0  0  0  0  0  0  0  0  0  0  0  0
    4.2901   14.7389   -0.9818 H   0  0  0  0  0  0  0  0  0  0  0  0
    3.4912   13.2452   -0.2300 H   0  0  0  0  0  0  0  0  0  0  0  0
    3.0735   14.3600   -3.0167 H   0  0  0  0  0  0  0  0  0  0  0  0
    3.8299   12.7921   -2.5294 H   0  0  0  0  0  0  0  0  0  0  0  0
    1.7265   12.0443   -0.2590 H   0  0  0  0  0  0  0  0  0  0  0  0
    0.8695   11.0146   -1.4556 H   0  0  0  0  0  0  0  0  0  0  0  0
    2.6643   11.0876   -1.4556 H   0  0  0  0  0  0  0  0  0  0  0  0
  1  2  1  0
  2  3  1  0
  3  4  1  0
  4  5  1  0
  5  6  1  0
  6  7  1  0
  7  8  1  0
  7  9  1  0
  2 10  1  0
 10 11  1  0
 11 12  1  0
 12 13  1  0
 13 14  1  6
 13 15  1  0
 15 16  1  0
 16 17  1  0
 17 18  2  0
 18 19  1  0
 19 20  1  0
 20 21  1  0
 21 22  1  0
 22 23  1  0
 22 24  1  0
 24 25  1  0
 24 26  1  0
 19 27  1  0
 27 28  1  1
 27 29  1  0
 29 30  1  0
 30 31  1  0
 31 32  1  1
  7  5  1  0
 31 10  1  0
 31 13  1  0
 27 15  1  0
 24 18  1  0
  1 33  1  0
  1 34  1  0
  1 35  1  0
  2 36  1  1
  3 37  1  0
  3 38  1  0
  4 39  1  0
  4 40  1  0
  5 41  1  1
  8 42  1  0
  8 43  1  0
  8 44  1  0
  9 45  1  0
  9 46  1  0
  9 47  1  0
 10 48  1  6
 11 49  1  0
 11 50  1  0
 12 51  1  0
 12 52  1  0
 14 53  1  0
 14 54  1  0
 14 55  1  0
 15 56  1  1
 16 57  1  0
 16 58  1  0
 17 59  1  0
 19 60  1  6
 20 61  1  0
 20 62  1  0
 21 63  1  0
 21 64  1  0
 22 65  1  6
 23 66  1  0
 25 67  1  0
 25 68  1  0
 25 69  1  0
 26 70  1  0
 26 71  1  0
 26 72  1  0
 28 73  1  0
 28 74  1  0
 28 75  1  0
 29 76  1  0
 29 77  1  0
 30 78  1  0
 30 79  1  0
 32 80  1  0
 32 81  1  0
 32 82  1  0
M  END
>  <meeko>  (14) 
{"is_sidechain": [false], "intermolecular_energy": 2.731, "internal_energy": -0.839}

$$$$
EPH_relaxed_0001_pdb2pqr_Repair_93_r2_0001_out
     RDKit          3D

 82 86  0  0  0  0  0  0  0  0999 V2000
    0.8700   14.8990   -2.6010 C   0  0  0  0  0  0  0  0  0  0  0  0
    1.1590   14.2250   -3.9450 C   0  0  2  0  0  0  0  0  0  0  0  0
    0.4740   14.9540   -5.1190 C   0  0  0  0  0  0  0  0  0  0  0  0
    1.0640   14.6060   -6.4880 C   0  0  0  0  0  0  0  0  0  0  0  0
    0.8220   15.6950   -7.4890 C   0  0  2  0  0  0  0  0  0  0  0  0
    0.3780   15.2390   -8.7740 O   0  0  0  0  0  0  0  0  0  0  0  0
    1.6620   15.8830   -8.7390 C   0  0  0  0  0  0  0  0  0  0  0  0
    2.8080   14.9750   -9.0540 C   0  0  0  0  0  0  0  0  0  0  0  0
    1.6780   17.2300   -9.3930 C   0  0  0  0  0  0  0  0  0  0  0  0
    0.7100   12.7690   -3.9040 C   0  0  1  0  0  0  0  0  0  0  0  0
    1.8420   11.7830   -4.2960 C   0  0  0  0  0  0  0  0  0  0  0  0
    1.6460   10.5100   -3.4340 C   0  0  0  0  0  0  0  0  0  0  0  0
    0.2330   10.6660   -2.8250 C   0  0  1  0  0  0  0  0  0  0  0  0
   -0.7440   10.2060   -3.9520 C   0  0  0  0  0  0  0  0  0  0  0  0
   -0.0300    9.9020   -1.4860 C   0  0  2  0  0  0  0  0  0  0  0  0
    0.0760    8.3700   -1.5770 C   0  0  0  0  0  0  0  0  0  0  0  0
   -1.1960    7.6610   -1.9060 C   0  0  0  0  0  0  0  0  0  0  0  0
   -2.4290    8.1960   -1.8390 C   0  0  0  0  0  0  0  0  0  0  0  0
   -2.6430    9.6180   -1.3050 C   0  0  1  0  0  0  0  0  0  0  0  0
   -3.8220    9.6210   -0.2970 C   0  0  0  0  0  0  0  0  0  0  0  0
   -5.0960    9.0200   -0.8840 C   0  0  0  0  0  0  0  0  0  0  0  0
   -4.8580    7.5860   -1.3500 C   0  0  2  0  0  0  0  0  0  0  0  0
   -4.5980    6.7670   -0.2060 O   0  0  0  0  0  0  0  0  0  0  0  0
   -3.6860    7.4580   -2.3630 C   0  0  0  0  0  0  0  0  0  0  0  0
   -4.0950    8.0930   -3.7150 C   0  0  0  0  0  0  0  0  0  0  0  0
   -3.4610    5.9470   -2.6430 C   0  0  0  0  0  0  0  0  0  0  0  0
   -1.3510   10.3460   -0.7350 C   0  0  1  0  0  0  0  0  0  0  0  0
   -1.1530    9.9800    0.7680 C   0  0  0  0  0  0  0  0  0  0  0  0
   -1.5730   11.9040   -0.7870 C   0  0  0  0  0  0  0  0  0  0  0  0
   -1.1820   12.6190   -2.0950 C   0  0  0  0  0  0  0  0  0  0  0  0
    0.2250   12.2130   -2.5420 C   0  0  2  0  0  0  0  0  0  0  0  0
    1.2320   12.6820   -1.4370 C   0  0  0  0  0  0  0  0  0  0  0  0
    1.1596   14.2237   -1.7824 H   0  0  0  0  0  0  0  0  0  0  0  0
    1.4469   15.8327   -2.5275 H   0  0  0  0  0  0  0  0  0  0  0  0
   -0.2041   15.1248   -2.5275 H   0  0  0  0  0  0  0  0  0  0  0  0
    2.2449   14.2746   -4.1131 H   0  0  0  0  0  0  0  0  0  0  0  0
   -0.5921   14.6831   -5.1213 H   0  0  0  0  0  0  0  0  0  0  0  0
    0.6331   16.0315   -4.9650 H   0  0  0  0  0  0  0  0  0  0  0  0
    2.1483   14.4548   -6.3809 H   0  0  0  0  0  0  0  0  0  0  0  0
    0.5724   13.6913   -6.8508 H   0  0  0  0  0  0  0  0  0  0  0  0
    0.5157   16.3908   -6.6940 H   0  0  0  0  0  0  0  0  0  0  0  0
    3.2601   14.6168   -8.1174 H   0  0  0  0  0  0  0  0  0  0  0  0
    2.4456   14.1163   -9.6381 H   0  0  0  0  0  0  0  0  0  0  0  0
    3.5611   15.5242   -9.6381 H   0  0  0  0  0  0  0  0  0  0  0  0
    1.6873   18.0127   -8.6202 H   0  0  0  0  0  0  0  0  0  0  0  0
    2.5773   17.3227  -10.0196 H   0  0  0  0  0  0  0  0  0  0  0  0
    0.7811   17.3440  -10.0196 H   0  0  0  0  0  0  0  0  0  0  0  0
   -0.1301   12.8153   -4.6126 H   0  0  0  0  0  0  0  0  0  0  0  0
    1.7717   11.5313   -5.3645 H   0  0  0  0  0  0  0  0  0  0  0  0
    2.8321   12.2293   -4.1211 H   0  0  0  0  0  0  0  0  0  0  0  0
    1.7024    9.6059   -4.0580 H   0  0  0  0  0  0  0  0  0  0  0  0
    2.4235   10.4040   -2.6631 H   0  0  0  0  0  0  0  0  0  0  0  0
   -1.6510    9.7790   -3.4992 H   0  0  0  0  0  0  0  0  0  0  0  0
   -1.0174   11.0700   -4.5755 H   0  0  0  0  0  0  0  0  0  0  0  0
   -0.2522    9.4448   -4.5755 H   0  0  0  0  0  0  0  0  0  0  0  0
    0.8164   10.2235   -0.8612 H   0  0  0  0  0  0  0  0  0  0  0  0
    0.8126    8.1260   -2.3567 H   0  0  0  0  0  0  0  0  0  0  0  0
    0.3658    8.0250   -0.5735 H   0  0  0  0  0  0  0  0  0  0  0  0
   -1.1188    6.6128   -2.2306 H   0  0  0  0  0  0  0  0  0  0  0  0
   -2.8979   10.2356   -2.1788 H   0  0  0  0  0  0  0  0  0  0  0  0
   -3.5310    9.0354    0.5875 H   0  0  0  0  0  0  0  0  0  0  0  0
   -4.0361   10.6682   -0.0371 H   0  0  0  0  0  0  0  0  0  0  0  0
   -5.8828    9.0229   -0.1153 H   0  0  0  0  0  0  0  0  0  0  0  0
   -5.4027    9.6245   -1.7503 H   0  0  0  0  0  0  0  0  0  0  0  0
   -5.7650    7.2549   -1.8771 H   0  0  0  0  0  0  0  0  0  0  0  0
   -3.6780    6.9260    0.0670 H   0  0  0  0  0  0  0  0  0  0  0  0
   -4.6821    9.0045   -3.5293 H   0  0  0  0  0  0  0  0  0  0  0  0
   -3.1916    8.3491   -4.2880 H   0  0  0  0  0  0  0  0  0  0  0  0
   -4.7018    7.3764   -4.2880 H   0  0  0  0  0  0  0  0  0  0  0  0
   -3.3803    5.4053   -1.6890 H   0  0  0  0  0  0  0  0  0  0  0  0
   -4.3100    5.5505   -3.2192 H   0  0  0  0  0  0  0  0  0  0  0  0
   -2.5333    5.8150   -3.2192 H   0  0  0  0  0  0  0  0  0  0  0  0
   -1.5820   10.7730    1.3981 H   0  0  0  0  0  0  0  0  0  0  0  0
   -1.6586    9.0270    0.9830 H   0  0  0  0  0  0  0  0  0  0  0  0
   -0.0787    9.8818    0.9830 H   0  0  0  0  0  0  0  0  0  0  0  0
   -2.6421   12.0937   -0.6110 H   0  0  0  0  0  0  0  0  0  0  0  0
   -0.8991   12.3162   -0.0215 H   0  0  0  0  0  0  0  0  0  0  0  0
   -1.9016   12.3487   -2.8818 H   0  0  0  0  0  0  0  0  0  0  0  0
   -1.1943   13.7047   -1.9185 H   0  0  0  0  0  0  0  0  0  0  0  0
    0.8046   12.4830   -0.4431 H   0  0  0  0  0  0  0  0  0  0  0  0
    2.1784   12.1320   -1.5460 H   0  0  0  0  0  0  0  0  0  0  0  0
    1.4200   13.7603   -1.5460 H   0  0  0  0  0  0  0  0  0  0  0  0
  1  2  1  0
  2  3  1  0
  3  4  1  0
  4  5  1  0
  5  6  1  0
  6  7  1  0
  7  8  1  0
  7  9  1  0
  2 10  1  0
 10 11  1  0
 11 12  1  0
 12 13  1  0
 13 14  1  6
 13 15  1  0
 15 16  1  0
 16 17  1  0
 17 18  2  0
 18 19  1  0
 19 20  1  0
 20 21  1  0
 21 22  1  0
 22 23  1  0
 22 24  1  0
 24 25  1  0
 24 26  1  0
 19 27  1  0
 27 28  1  1
 27 29  1  0
 29 30  1  0
 30 31  1  0
 31 32  1  1
  7  5  1  0
 31 10  1  0
 31 13  1  0
 27 15  1  0
 24 18  1  0
  1 33  1  0
  1 34  1  0
  1 35  1  0
  2 36  1  6
  3 37  1  0
  3 38  1  0
  4 39  1  0
  4 40  1  0
  5 41  1  1
  8 42  1  0
  8 43  1  0
  8 44  1  0
  9 45  1  0
  9 46  1  0
  9 47  1  0
 10 48  1  6
 11 49  1  0
 11 50  1  0
 12 51  1  0
 12 52  1  0
 14 53  1  0
 14 54  1  0
 14 55  1  0
 15 56  1  1
 16 57  1  0
 16 58  1  0
 17 59  1  0
 19 60  1  6
 20 61  1  0
 20 62  1  0
 21 63  1  0
 21 64  1  0
 22 65  1  6
 23 66  1  0
 25 67  1  0
 25 68  1  0
 25 69  1  0
 26 70  1  0
 26 71  1  0
 26 72  1  0
 28 73  1  0
 28 74  1  0
 28 75  1  0
 29 76  1  0
 29 77  1  0
 30 78  1  0
 30 79  1  0
 32 80  1  0
 32 81  1  0
 32 82  1  0
M  END
>  <meeko>  (15) 
{"is_sidechain": [false], "intermolecular_energy": 2.731, "internal_energy": -0.839}

$$$$
EPH_relaxed_0001_pdb2pqr_Repair_93_r2_0001_out
     RDKit          3D

 82 86  0  0  0  0  0  0  0  0999 V2000
   -0.1340    9.3110   -4.1810 C   0  0  0  0  0  0  0  0  0  0  0  0
    0.0400    9.5210   -2.6740 C   0  0  2  0  0  0  0  0  0  0  0  0
   -0.7570    8.4920   -1.8480 C   0  0  0  0  0  0  0  0  0  0  0  0
   -2.2700    8.5640   -2.0700 C   0  0  0  0  0  0  0  0  0  0  0  0
   -2.8010    7.3050   -2.6860 C   0  0  2  0  0  0  0  0  0  0  0  0
   -3.8370    7.5050   -3.6560 O   0  0  0  0  0  0  0  0  0  0  0  0
   -4.2130    6.7960   -2.4640 C   0  0  0  0  0  0  0  0  0  0  0  0
   -5.1820    7.5360   -1.5950 C   0  0  0  0  0  0  0  0  0  0  0  0
   -4.4920    5.3430   -2.6890 C   0  0  0  0  0  0  0  0  0  0  0  0
   -0.3840   10.9350   -2.2950 C   0  0  1  0  0  0  0  0  0  0  0  0
   -1.5930   10.9550   -1.3230 C   0  0  0  0  0  0  0  0  0  0  0  0
   -1.3830   12.1620   -0.3720 C   0  0  0  0  0  0  0  0  0  0  0  0
   -0.2500   12.9840   -1.0300 C   0  0  1  0  0  0  0  0  0  0  0  0
   -0.9560   13.8220   -2.1430 C   0  0  0  0  0  0  0  0  0  0  0  0
    0.5920   13.8890   -0.0730 C   0  0  2  0  0  0  0  0  0  0  0  0
   -0.1980   15.0040    0.6340 C   0  0  0  0  0  0  0  0  0  0  0  0
   -0.2530   16.3070   -0.0920 C   0  0  0  0  0  0  0  0  0  0  0  0
    0.5380   16.6630   -1.1210 C   0  0  0  0  0  0  0  0  0  0  0  0
    1.6780   15.7500   -1.5900 C   0  0  1  0  0  0  0  0  0  0  0  0
    2.9670   16.5900   -1.7870 C   0  0  0  0  0  0  0  0  0  0  0  0
    2.7530   17.7810   -2.7160 C   0  0  0  0  0  0  0  0  0  0  0  0
    1.6520   18.6960   -2.1860 C   0  0  2  0  0  0  0  0  0  0  0  0
    2.1010   19.2980   -0.9680 O   0  0  0  0  0  0  0  0  0  0  0  0
    0.3070   17.9570   -1.9390 C   0  0  0  0  0  0  0  0  0  0  0  0
   -0.3290   17.5670   -3.2970 C   0  0  0  0  0  0  0  0  0  0  0  0
   -0.6730   18.9600   -1.2730 C   0  0  0  0  0  0  0  0  0  0  0  0
    1.9270   14.4460   -0.7160 C   0  0  1  0  0  0  0  0  0  0  0  0
    2.8880   14.7740    0.4680 C   0  0  0  0  0  0  0  0  0  0  0  0
    2.6610   13.3680   -1.5980 C   0  0  0  0  0  0  0  0  0  0  0  0
    1.7700   12.4250   -2.4290 C   0  0  0  0  0  0  0  0  0  0  0  0
    0.6590   11.8190   -1.5660 C   0  0  2  0  0  0  0  0  0  0  0  0
    1.3390   10.9530   -0.4510 C   0  0  0  0  0  0  0  0  0  0  0  0
   -0.8268    8.4749   -4.3571 H   0  0  0  0  0  0  0  0  0  0  0  0
   -0.5417   10.2267   -4.6341 H   0  0  0  0  0  0  0  0  0  0  0  0
    0.8415    9.0806   -4.6341 H   0  0  0  0  0  0  0  0  0  0  0  0
    1.1051    9.3767   -2.4402 H   0  0  0  0  0  0  0  0  0  0  0  0
   -0.4131    7.4841   -2.1236 H   0  0  0  0  0  0  0  0  0  0  0  0
   -0.5763    8.7217   -0.7875 H   0  0  0  0  0  0  0  0  0  0  0  0
   -2.7652    8.7229   -1.1007 H   0  0  0  0  0  0  0  0  0  0  0  0
   -2.4760    9.3961   -2.7593 H   0  0  0  0  0  0  0  0  0  0  0  0
   -1.8188    6.8181   -2.5957 H   0  0  0  0  0  0  0  0  0  0  0  0
   -4.9409    7.3519   -0.5377 H   0  0  0  0  0  0  0  0  0  0  0  0
   -5.1134    8.6137   -1.8045 H   0  0  0  0  0  0  0  0  0  0  0  0
   -6.2036    7.1861   -1.8045 H   0  0  0  0  0  0  0  0  0  0  0  0
   -4.5898    4.8339   -1.7188 H   0  0  0  0  0  0  0  0  0  0  0  0
   -5.4277    5.2329   -3.2568 H   0  0  0  0  0  0  0  0  0  0  0  0
   -3.6636    4.8942   -3.2568 H   0  0  0  0  0  0  0  0  0  0  0  0
   -0.5872   11.3416   -3.2967 H   0  0  0  0  0  0  0  0  0  0  0  0
   -2.5300   11.0753   -1.8865 H   0  0  0  0  0  0  0  0  0  0  0  0
   -1.6606   10.0139   -0.7575 H   0  0  0  0  0  0  0  0  0  0  0  0
   -2.3027   12.7605   -0.2950 H   0  0  0  0  0  0  0  0  0  0  0  0
   -1.1305   11.8479    0.6515 H   0  0  0  0  0  0  0  0  0  0  0  0
   -1.5979   14.5839   -1.6767 H   0  0  0  0  0  0  0  0  0  0  0  0
   -0.1968   14.3148   -2.7681 H   0  0  0  0  0  0  0  0  0  0  0  0
   -1.5705   13.1575   -2.7681 H   0  0  0  0  0  0  0  0  0  0  0  0
    0.8876   13.1844    0.7183 H   0  0  0  0  0  0  0  0  0  0  0  0
   -1.2300   14.6509    0.7768 H   0  0  0  0  0  0  0  0  0  0  0  0
    0.3345   15.2033    1.5757 H   0  0  0  0  0  0  0  0  0  0  0  0
   -1.0037   17.0383    0.2423 H   0  0  0  0  0  0  0  0  0  0  0  0
    1.3544   15.3313   -2.5544 H   0  0  0  0  0  0  0  0  0  0  0  0
    3.2983   16.9627   -0.8065 H   0  0  0  0  0  0  0  0  0  0  0  0
    3.7230   15.9380   -2.2489 H   0  0  0  0  0  0  0  0  0  0  0  0
    3.6903   18.3519   -2.7911 H   0  0  0  0  0  0  0  0  0  0  0  0
    2.4511   17.4050   -3.7047 H   0  0  0  0  0  0  0  0  0  0  0  0
    1.4548   19.4561   -2.9563 H   0  0  0  0  0  0  0  0  0  0  0  0
    2.9300   18.8600   -0.7110 H   0  0  0  0  0  0  0  0  0  0  0  0
   -1.2544   16.9996   -3.1190 H   0  0  0  0  0  0  0  0  0  0  0  0
   -0.5616   18.4779   -3.8680 H   0  0  0  0  0  0  0  0  0  0  0  0
    0.3774   16.9466   -3.8680 H   0  0  0  0  0  0  0  0  0  0  0  0
   -0.5935   18.8787   -0.1789 H   0  0  0  0  0  0  0  0  0  0  0  0
   -0.4175   19.9837   -1.5841 H   0  0  0  0  0  0  0  0  0  0  0  0
   -1.7023   18.7283   -1.5841 H   0  0  0  0  0  0  0  0  0  0  0  0
    2.3689   14.5968    1.4215 H   0  0  0  0  0  0  0  0  0  0  0  0
    3.7765   14.1282    0.4088 H   0  0  0  0  0  0  0  0  0  0  0  0
    3.1963   15.8282    0.4088 H   0  0  0  0  0  0  0  0  0  0  0  0
    3.3210   13.9032   -2.2965 H   0  0  0  0  0  0  0  0  0  0  0  0
    3.1800   12.7150   -0.8809 H   0  0  0  0  0  0  0  0  0  0  0  0
    1.3155   12.9933   -3.2539 H   0  0  0  0  0  0  0  0  0  0  0  0
    2.3938   11.6086   -2.8220 H   0  0  0  0  0  0  0  0  0  0  0  0
    1.0424   11.3308    0.5386 H   0  0  0  0  0  0  0  0  0  0  0  0
    1.0196    9.9055   -0.5545 H   0  0  0  0  0  0  0  0  0  0  0  0
    2.4324   11.0148   -0.5545 H   0  0  0  0  0  0  0  0  0  0  0  0
  1  2  1  0
  2  3  1  0
  3  4  1  0
  4  5  1  0
  5  6  1  0
  6  7  1  0
  7  8  1  0
  7  9  1  0
  2 10  1  0
 10 11  1  0
 11 12  1  0
 12 13  1  0
 13 14  1  6
 13 15  1  0
 15 16  1  0
 16 17  1  0
 17 18  2  0
 18 19  1  0
 19 20  1  0
 20 21  1  0
 21 22  1  0
 22 23  1  0
 22 24  1  0
 24 25  1  0
 24 26  1  0
 19 27  1  0
 27 28  1  1
 27 29  1  0
 29 30  1  0
 30 31  1  0
 31 32  1  1
  7  5  1  0
 31 10  1  0
 31 13  1  0
 27 15  1  0
 24 18  1  0
  1 33  1  0
  1 34  1  0
  1 35  1  0
  2 36  1  6
  3 37  1  0
  3 38  1  0
  4 39  1  0
  4 40  1  0
  5 41  1  6
  8 42  1  0
  8 43  1  0
  8 44  1  0
  9 45  1  0
  9 46  1  0
  9 47  1  0
 10 48  1  6
 11 49  1  0
 11 50  1  0
 12 51  1  0
 12 52  1  0
 14 53  1  0
 14 54  1  0
 14 55  1  0
 15 56  1  1
 16 57  1  0
 16 58  1  0
 17 59  1  0
 19 60  1  6
 20 61  1  0
 20 62  1  0
 21 63  1  0
 21 64  1  0
 22 65  1  6
 23 66  1  0
 25 67  1  0
 25 68  1  0
 25 69  1  0
 26 70  1  0
 26 71  1  0
 26 72  1  0
 28 73  1  0
 28 74  1  0
 28 75  1  0
 29 76  1  0
 29 77  1  0
 30 78  1  0
 30 79  1  0
 32 80  1  0
 32 81  1  0
 32 82  1  0
M  END
>  <meeko>  (16) 
{"is_sidechain": [false], "intermolecular_energy": 2.731, "internal_energy": -0.839}

$$$$
EPH_relaxed_0001_pdb2pqr_Repair_93_r2_0001_out
     RDKit          3D

 82 86  0  0  0  0  0  0  0  0999 V2000
  -14.4990    5.4820    0.5020 C   0  0  0  0  0  0  0  0  0  0  0  0
  -13.8940    6.8840    0.3880 C   0  0  2  0  0  0  0  0  0  0  0  0
  -14.9660    7.9580    0.1150 C   0  0  0  0  0  0  0  0  0  0  0  0
  -14.4290    9.3910    0.1640 C   0  0  0  0  0  0  0  0  0  0  0  0
  -15.1900   10.3000   -0.7530 C   0  0  2  0  0  0  0  0  0  0  0  0
  -15.1110    9.9530   -2.1410 O   0  0  0  0  0  0  0  0  0  0  0  0
  -14.5260   11.2110   -1.7680 C   0  0  0  0  0  0  0  0  0  0  0  0
  -13.0380   11.2590   -1.9180 C   0  0  0  0  0  0  0  0  0  0  0  0
  -15.2860   12.4010   -2.2660 C   0  0  0  0  0  0  0  0  0  0  0  0
  -12.8410    6.9080   -0.7130 C   0  0  1  0  0  0  0  0  0  0  0  0
  -13.2240    7.8490   -1.8860 C   0  0  0  0  0  0  0  0  0  0  0  0
  -11.9050    8.4750   -2.4070 C   0  0  0  0  0  0  0  0  0  0  0  0
  -10.7870    7.6340   -1.7480 C   0  0  1  0  0  0  0  0  0  0  0  0
  -10.6750    6.3530   -2.6320 C   0  0  0  0  0  0  0  0  0  0  0  0
   -9.4020    8.3390   -1.5750 C   0  0  2  0  0  0  0  0  0  0  0  0
   -8.7140    8.7560   -2.8860 C   0  0  0  0  0  0  0  0  0  0  0  0
   -7.8030    7.7330   -3.4810 C   0  0  0  0  0  0  0  0  0  0  0  0
   -7.3260    6.6470   -2.8460 C   0  0  0  0  0  0  0  0  0  0  0  0
   -7.6190    6.4120   -1.3590 C   0  0  1  0  0  0  0  0  0  0  0  0
   -6.3100    6.0130   -0.6290 C   0  0  0  0  0  0  0  0  0  0  0  0
   -5.6160    4.8210   -1.2830 C   0  0  0  0  0  0  0  0  0  0  0  0
   -5.2880    5.1150   -2.7440 C   0  0  2  0  0  0  0  0  0  0  0  0
   -4.3000    6.1490   -2.7960 O   0  0  0  0  0  0  0  0  0  0  0  0
   -6.5300    5.5380   -3.5780 C   0  0  0  0  0  0  0  0  0  0  0  0
   -7.4640    4.3180   -3.7740 C   0  0  0  0  0  0  0  0  0  0  0  0
   -6.0400    5.9420   -4.9940 C   0  0  0  0  0  0  0  0  0  0  0  0
   -8.4020    7.5770   -0.6140 C   0  0  1  0  0  0  0  0  0  0  0  0
   -7.3940    8.6420   -0.0850 C   0  0  0  0  0  0  0  0  0  0  0  0
   -9.1250    6.9830    0.6520 C   0  0  0  0  0  0  0  0  0  0  0  0
  -10.5390    6.4090    0.4400 C   0  0  0  0  0  0  0  0  0  0  0  0
  -11.4220    7.3970   -0.3290 C   0  0  2  0  0  0  0  0  0  0  0  0
  -11.5710    8.6880    0.5460 C   0  0  0  0  0  0  0  0  0  0  0  0
  -14.6133    5.2172    1.5635 H   0  0  0  0  0  0  0  0  0  0  0  0
  -15.4838    5.4667    0.0122 H   0  0  0  0  0  0  0  0  0  0  0  0
  -13.8345    4.7550    0.0122 H   0  0  0  0  0  0  0  0  0  0  0  0
  -13.4262    7.1221    1.3547 H   0  0  0  0  0  0  0  0  0  0  0  0
  -15.3892    7.7799   -0.8846 H   0  0  0  0  0  0  0  0  0  0  0  0
  -15.7192    7.8698    0.9119 H   0  0  0  0  0  0  0  0  0  0  0  0
  -14.5157    9.7691    1.1933 H   0  0  0  0  0  0  0  0  0  0  0  0
  -13.3789    9.3750   -0.1631 H   0  0  0  0  0  0  0  0  0  0  0  0
  -15.9468   10.4876    0.0229 H   0  0  0  0  0  0  0  0  0  0  0  0
  -12.5695   11.2741   -0.9229 H   0  0  0  0  0  0  0  0  0  0  0  0
  -12.6964   10.3714   -2.4707 H   0  0  0  0  0  0  0  0  0  0  0  0
  -12.7543   12.1668   -2.4707 H   0  0  0  0  0  0  0  0  0  0  0  0
  -15.6578   12.9831   -1.4099 H   0  0  0  0  0  0  0  0  0  0  0  0
  -14.6223   13.0305   -2.8770 H   0  0  0  0  0  0  0  0  0  0  0  0
  -16.1362   12.0636   -2.8770 H   0  0  0  0  0  0  0  0  0  0  0  0
  -12.8151    5.8379   -0.9664 H   0  0  0  0  0  0  0  0  0  0  0  0
  -13.7134    7.2757   -2.6871 H   0  0  0  0  0  0  0  0  0  0  0  0
  -13.9264    8.6278   -1.5541 H   0  0  0  0  0  0  0  0  0  0  0  0
  -11.8485    8.4051   -3.5033 H   0  0  0  0  0  0  0  0  0  0  0  0
  -11.8241    9.5437   -2.1592 H   0  0  0  0  0  0  0  0  0  0  0  0
  -10.5975    5.4667   -1.9851 H   0  0  0  0  0  0  0  0  0  0  0  0
  -11.5690    6.2664   -3.2670 H   0  0  0  0  0  0  0  0  0  0  0  0
   -9.7795    6.4229   -3.2670 H   0  0  0  0  0  0  0  0  0  0  0  0
   -9.6765    9.2771   -1.0704 H   0  0  0  0  0  0  0  0  0  0  0  0
   -9.4975    8.9837   -3.6237 H   0  0  0  0  0  0  0  0  0  0  0  0
   -8.0803    9.6197   -2.6361 H   0  0  0  0  0  0  0  0  0  0  0  0
   -7.4960    7.8799   -4.5270 H   0  0  0  0  0  0  0  0  0  0  0  0
   -8.3368    5.5794   -1.3192 H   0  0  0  0  0  0  0  0  0  0  0  0
   -5.6229    6.8719   -0.6420 H   0  0  0  0  0  0  0  0  0  0  0  0
   -6.5753    5.7229    0.3983 H   0  0  0  0  0  0  0  0  0  0  0  0
   -4.6834    4.6056   -0.7410 H   0  0  0  0  0  0  0  0  0  0  0  0
   -6.2931    3.9551   -1.2426 H   0  0  0  0  0  0  0  0  0  0  0  0
   -4.9121    4.1829   -3.1911 H   0  0  0  0  0  0  0  0  0  0  0  0
   -4.3930    6.6860   -1.9910 H   0  0  0  0  0  0  0  0  0  0  0  0
   -7.7649    3.9250   -2.7916 H   0  0  0  0  0  0  0  0  0  0  0  0
   -8.3584    4.6273   -4.3348 H   0  0  0  0  0  0  0  0  0  0  0  0
   -6.9321    3.5353   -4.3348 H   0  0  0  0  0  0  0  0  0  0  0  0
   -5.1941    6.6394   -4.9042 H   0  0  0  0  0  0  0  0  0  0  0  0
   -5.7179    5.0435   -5.5408 H   0  0  0  0  0  0  0  0  0  0  0  0
   -6.8606    6.4294   -5.5408 H   0  0  0  0  0  0  0  0  0  0  0  0
   -7.3988    8.6369    1.0150 H   0  0  0  0  0  0  0  0  0  0  0  0
   -6.3836    8.4029   -0.4483 H   0  0  0  0  0  0  0  0  0  0  0  0
   -7.6882    9.6377   -0.4483 H   0  0  0  0  0  0  0  0  0  0  0  0
   -8.4932    6.1736    1.0467 H   0  0  0  0  0  0  0  0  0  0  0  0
   -9.2603    7.8365    1.3326 H   0  0  0  0  0  0  0  0  0  0  0  0
  -10.4651    5.4721   -0.1316 H   0  0  0  0  0  0  0  0  0  0  0  0
  -10.9940    6.2245    1.4244 H   0  0  0  0  0  0  0  0  0  0  0  0
  -11.5395    8.4147    1.6111 H   0  0  0  0  0  0  0  0  0  0  0  0
  -10.7469    9.3808    0.3207 H   0  0  0  0  0  0  0  0  0  0  0  0
  -12.5313    9.1749    0.3207 H   0  0  0  0  0  0  0  0  0  0  0  0
  1  2  1  0
  2  3  1  0
  3  4  1  0
  4  5  1  0
  5  6  1  0
  6  7  1  0
  7  8  1  0
  7  9  1  0
  2 10  1  0
 10 11  1  0
 11 12  1  0
 12 13  1  0
 13 14  1  6
 13 15  1  0
 15 16  1  0
 16 17  1  0
 17 18  2  0
 18 19  1  0
 19 20  1  0
 20 21  1  0
 21 22  1  0
 22 23  1  0
 22 24  1  0
 24 25  1  0
 24 26  1  0
 19 27  1  0
 27 28  1  1
 27 29  1  0
 29 30  1  0
 30 31  1  0
 31 32  1  1
  7  5  1  0
 31 10  1  0
 31 13  1  0
 27 15  1  0
 24 18  1  0
  1 33  1  0
  1 34  1  0
  1 35  1  0
  2 36  1  1
  3 37  1  0
  3 38  1  0
  4 39  1  0
  4 40  1  0
  5 41  1  1
  8 42  1  0
  8 43  1  0
  8 44  1  0
  9 45  1  0
  9 46  1  0
  9 47  1  0
 10 48  1  6
 11 49  1  0
 11 50  1  0
 12 51  1  0
 12 52  1  0
 14 53  1  0
 14 54  1  0
 14 55  1  0
 15 56  1  1
 16 57  1  0
 16 58  1  0
 17 59  1  0
 19 60  1  6
 20 61  1  0
 20 62  1  0
 21 63  1  0
 21 64  1  0
 22 65  1  6
 23 66  1  0
 25 67  1  0
 25 68  1  0
 25 69  1  0
 26 70  1  0
 26 71  1  0
 26 72  1  0
 28 73  1  0
 28 74  1  0
 28 75  1  0
 29 76  1  0
 29 77  1  0
 30 78  1  0
 30 79  1  0
 32 80  1  0
 32 81  1  0
 32 82  1  0
M  END
>  <meeko>  (17) 
{"is_sidechain": [false], "intermolecular_energy": 2.731, "internal_energy": -0.839}

$$$$
EPH_relaxed_0001_pdb2pqr_Repair_93_r2_0001_out
     RDKit          3D

 82 86  0  0  0  0  0  0  0  0999 V2000
   -0.6070   19.0970   -1.9010 C   0  0  0  0  0  0  0  0  0  0  0  0
    0.5710   18.6790   -1.0160 C   0  0  2  0  0  0  0  0  0  0  0  0
    1.6950   19.7350   -1.0090 C   0  0  0  0  0  0  0  0  0  0  0  0
    2.9740   19.2670   -0.3100 C   0  0  0  0  0  0  0  0  0  0  0  0
    3.0600   19.7830    1.0940 C   0  0  2  0  0  0  0  0  0  0  0  0
    4.3720   20.1910    1.5030 O   0  0  0  0  0  0  0  0  0  0  0  0
    3.8100   19.0700    2.2030 C   0  0  0  0  0  0  0  0  0  0  0  0
    4.5240   17.7780    1.9570 C   0  0  0  0  0  0  0  0  0  0  0  0
    3.4420   19.3690    3.6230 C   0  0  0  0  0  0  0  0  0  0  0  0
    1.1200   17.3370   -1.4830 C   0  0  1  0  0  0  0  0  0  0  0  0
    2.6580   17.3600   -1.6890 C   0  0  0  0  0  0  0  0  0  0  0  0
    3.1860   15.9600   -1.2800 C   0  0  0  0  0  0  0  0  0  0  0  0
    1.9170   15.0820   -1.1720 C   0  0  1  0  0  0  0  0  0  0  0  0
    1.5900   14.6680   -2.6410 C   0  0  0  0  0  0  0  0  0  0  0  0
    2.0170   13.8380   -0.2300 C   0  0  2  0  0  0  0  0  0  0  0  0
    3.0610   12.7870   -0.6460 C   0  0  0  0  0  0  0  0  0  0  0  0
    2.5570   11.7110   -1.5500 C   0  0  0  0  0  0  0  0  0  0  0  0
    1.2620   11.4270   -1.7820 C   0  0  0  0  0  0  0  0  0  0  0  0
    0.1470   12.1630   -1.0280 C   0  0  1  0  0  0  0  0  0  0  0  0
   -0.8960   11.1350   -0.5140 C   0  0  0  0  0  0  0  0  0  0  0  0
   -1.4350   10.2420   -1.6270 C   0  0  0  0  0  0  0  0  0  0  0  0
   -0.3030    9.4840   -2.3150 C   0  0  2  0  0  0  0  0  0  0  0  0
    0.2610    8.5550   -1.3850 O   0  0  0  0  0  0  0  0  0  0  0  0
    0.8130   10.4160   -2.8650 C   0  0  0  0  0  0  0  0  0  0  0  0
    0.2750   11.2110   -4.0800 C   0  0  0  0  0  0  0  0  0  0  0  0
    1.9590    9.5190   -3.4070 C   0  0  0  0  0  0  0  0  0  0  0  0
    0.6240   13.1670    0.1070 C   0  0  1  0  0  0  0  0  0  0  0  0
    0.8130   12.4010    1.4520 C   0  0  0  0  0  0  0  0  0  0  0  0
   -0.5080   14.2330    0.3590 C   0  0  0  0  0  0  0  0  0  0  0  0
   -0.4820   15.4960   -0.5230 C   0  0  0  0  0  0  0  0  0  0  0  0
    0.9170   16.1200   -0.5450 C   0  0  2  0  0  0  0  0  0  0  0  0
    1.2650   16.5670    0.9150 C   0  0  0  0  0  0  0  0  0  0  0  0
   -1.4538   19.3975   -1.2665 H   0  0  0  0  0  0  0  0  0  0  0  0
   -0.3063   19.9433   -2.5361 H   0  0  0  0  0  0  0  0  0  0  0  0
   -0.9070   18.2504   -2.5361 H   0  0  0  0  0  0  0  0  0  0  0  0
    0.1962   18.5892    0.0143 H   0  0  0  0  0  0  0  0  0  0  0  0
    1.9410   19.9873   -2.0510 H   0  0  0  0  0  0  0  0  0  0  0  0
    1.3189   20.6014   -0.4452 H   0  0  0  0  0  0  0  0  0  0  0  0
    2.9853   18.1673   -0.2867 H   0  0  0  0  0  0  0  0  0  0  0  0
    3.8345   19.6588   -0.8722 H   0  0  0  0  0  0  0  0  0  0  0  0
    2.0373   20.1837    1.0340 H   0  0  0  0  0  0  0  0  0  0  0  0
    4.7814   17.3122    2.9197 H   0  0  0  0  0  0  0  0  0  0  0  0
    3.8716   17.1016    1.3852 H   0  0  0  0  0  0  0  0  0  0  0  0
    5.4438   17.9705    1.3852 H   0  0  0  0  0  0  0  0  0  0  0  0
    4.1153   18.8219    4.2993 H   0  0  0  0  0  0  0  0  0  0  0  0
    3.5365   20.4495    3.8066 H   0  0  0  0  0  0  0  0  0  0  0  0
    2.4038   19.0553    3.8066 H   0  0  0  0  0  0  0  0  0  0  0  0
    0.5303   17.2065   -2.4024 H   0  0  0  0  0  0  0  0  0  0  0  0
    2.8958   17.5610   -2.7440 H   0  0  0  0  0  0  0  0  0  0  0  0
    3.1255   18.1505   -1.0835 H   0  0  0  0  0  0  0  0  0  0  0  0
    3.8689   15.5634   -2.0457 H   0  0  0  0  0  0  0  0  0  0  0  0
    3.7564   15.9871   -0.3398 H   0  0  0  0  0  0  0  0  0  0  0  0
    0.9082   13.8048   -2.6356 H   0  0  0  0  0  0  0  0  0  0  0  0
    1.1109   15.5104   -3.1614 H   0  0  0  0  0  0  0  0  0  0  0  0
    2.5205   14.3970   -3.1614 H   0  0  0  0  0  0  0  0  0  0  0  0
    2.3934   14.2792    0.7047 H   0  0  0  0  0  0  0  0  0  0  0  0
    3.8810   13.3080   -1.1619 H   0  0  0  0  0  0  0  0  0  0  0  0
    3.3731   12.2842    0.2813 H   0  0  0  0  0  0  0  0  0  0  0  0
    3.3077   11.0984   -2.0706 H   0  0  0  0  0  0  0  0  0  0  0  0
   -0.3220   12.8369   -1.7600 H   0  0  0  0  0  0  0  0  0  0  0  0
   -0.4197   10.5003    0.2478 H   0  0  0  0  0  0  0  0  0  0  0  0
   -1.7440   11.6991   -0.0985 H   0  0  0  0  0  0  0  0  0  0  0  0
   -2.1433    9.5186   -1.1969 H   0  0  0  0  0  0  0  0  0  0  0  0
   -1.9374   10.8754   -2.3729 H   0  0  0  0  0  0  0  0  0  0  0  0
   -0.7338    8.9646   -3.1837 H   0  0  0  0  0  0  0  0  0  0  0  0
    1.2140    8.4940   -1.5700 H   0  0  0  0  0  0  0  0  0  0  0  0
   -0.3085   12.0732   -3.7248 H   0  0  0  0  0  0  0  0  0  0  0  0
    1.1195   11.5657   -4.6892 H   0  0  0  0  0  0  0  0  0  0  0  0
   -0.3682   10.5589   -4.6892 H   0  0  0  0  0  0  0  0  0  0  0  0
    2.5146    9.0841   -2.5631 H   0  0  0  0  0  0  0  0  0  0  0  0
    1.5335    8.7115   -4.0209 H   0  0  0  0  0  0  0  0  0  0  0  0
    2.6407   10.1260   -4.0209 H   0  0  0  0  0  0  0  0  0  0  0  0
    0.6432   13.0894    2.2930 H   0  0  0  0  0  0  0  0  0  0  0  0
    0.0926   11.5715    1.5059 H   0  0  0  0  0  0  0  0  0  0  0  0
    1.8366   12.0018    1.5059 H   0  0  0  0  0  0  0  0  0  0  0  0
   -1.4756   13.7350    0.1986 H   0  0  0  0  0  0  0  0  0  0  0  0
   -0.3397   14.5945    1.3842 H   0  0  0  0  0  0  0  0  0  0  0  0
   -0.7712   15.2246   -1.5490 H   0  0  0  0  0  0  0  0  0  0  0  0
   -1.1872   16.2300   -0.1059 H   0  0  0  0  0  0  0  0  0  0  0  0
    0.7525   15.9087    1.6320 H   0  0  0  0  0  0  0  0  0  0  0  0
    2.3522   16.5014    1.0693 H   0  0  0  0  0  0  0  0  0  0  0  0
    0.9348   17.6049    1.0693 H   0  0  0  0  0  0  0  0  0  0  0  0
  1  2  1  0
  2  3  1  0
  3  4  1  0
  4  5  1  0
  5  6  1  0
  6  7  1  0
  7  8  1  0
  7  9  1  0
  2 10  1  0
 10 11  1  0
 11 12  1  0
 12 13  1  0
 13 14  1  6
 13 15  1  0
 15 16  1  0
 16 17  1  0
 17 18  2  0
 18 19  1  0
 19 20  1  0
 20 21  1  0
 21 22  1  0
 22 23  1  0
 22 24  1  0
 24 25  1  0
 24 26  1  0
 19 27  1  0
 27 28  1  1
 27 29  1  0
 29 30  1  0
 30 31  1  0
 31 32  1  1
  7  5  1  0
 31 10  1  0
 31 13  1  0
 27 15  1  0
 24 18  1  0
  1 33  1  0
  1 34  1  0
  1 35  1  0
  2 36  1  1
  3 37  1  0
  3 38  1  0
  4 39  1  0
  4 40  1  0
  5 41  1  1
  8 42  1  0
  8 43  1  0
  8 44  1  0
  9 45  1  0
  9 46  1  0
  9 47  1  0
 10 48  1  6
 11 49  1  0
 11 50  1  0
 12 51  1  0
 12 52  1  0
 14 53  1  0
 14 54  1  0
 14 55  1  0
 15 56  1  1
 16 57  1  0
 16 58  1  0
 17 59  1  0
 19 60  1  6
 20 61  1  0
 20 62  1  0
 21 63  1  0
 21 64  1  0
 22 65  1  6
 23 66  1  0
 25 67  1  0
 25 68  1  0
 25 69  1  0
 26 70  1  0
 26 71  1  0
 26 72  1  0
 28 73  1  0
 28 74  1  0
 28 75  1  0
 29 76  1  0
 29 77  1  0
 30 78  1  0
 30 79  1  0
 32 80  1  0
 32 81  1  0
 32 82  1  0
M  END
>  <meeko>  (18) 
{"is_sidechain": [false], "intermolecular_energy": 2.731, "internal_energy": -0.839}

$$$$
