EPH_relaxed_0001_pdb2pqr_Repair_6_r2_0001_out
     RDKit          3D

 82 86  0  0  0  0  0  0  0  0999 V2000
   -1.5810    8.5770   -1.8670 C   0  0  0  0  0  0  0  0  0  0  0  0
   -2.0070    9.1580   -0.5160 C   0  0  2  0  0  0  0  0  0  0  0  0
   -3.4940    9.5630   -0.5010 C   0  0  0  0  0  0  0  0  0  0  0  0
   -4.4540    8.3800   -0.3460 C   0  0  0  0  0  0  0  0  0  0  0  0
   -5.0970    8.0140   -1.6490 C   0  0  2  0  0  0  0  0  0  0  0  0
   -6.3640    8.6400   -1.8890 O   0  0  0  0  0  0  0  0  0  0  0  0
   -6.3800    7.2100   -1.7520 C   0  0  0  0  0  0  0  0  0  0  0  0
   -7.0960    6.7240   -0.5310 C   0  0  0  0  0  0  0  0  0  0  0  0
   -6.6700    6.4860   -3.0300 C   0  0  0  0  0  0  0  0  0  0  0  0
   -1.1360   10.3590   -0.1700 C   0  0  1  0  0  0  0  0  0  0  0  0
   -0.0670   10.0320    0.9070 C   0  0  0  0  0  0  0  0  0  0  0  0
    1.1910   10.8670    0.5570 C   0  0  0  0  0  0  0  0  0  0  0  0
    0.7020   11.8850   -0.4990 C   0  0  1  0  0  0  0  0  0  0  0  0
    0.0230   13.0230    0.3250 C   0  0  0  0  0  0  0  0  0  0  0  0
    1.7890   12.4480   -1.4720 C   0  0  2  0  0  0  0  0  0  0  0  0
    2.9160   13.2500   -0.7980 C   0  0  0  0  0  0  0  0  0  0  0  0
    2.6680   14.7170   -0.6760 C   0  0  0  0  0  0  0  0  0  0  0  0
    1.7220   15.4090   -1.3380 C   0  0  0  0  0  0  0  0  0  0  0  0
    0.8410   14.7270   -2.3930 C   0  0  1  0  0  0  0  0  0  0  0  0
    0.7710   15.6160   -3.6620 C   0  0  0  0  0  0  0  0  0  0  0  0
    0.3170   17.0400   -3.3550 C   0  0  0  0  0  0  0  0  0  0  0  0
    1.2510   17.7040   -2.3470 C   0  0  2  0  0  0  0  0  0  0  0  0
    2.5330   17.8860   -2.9560 O   0  0  0  0  0  0  0  0  0  0  0  0
    1.4080   16.8940   -1.0300 C   0  0  0  0  0  0  0  0  0  0  0  0
    0.0890   16.9530   -0.2210 C   0  0  0  0  0  0  0  0  0  0  0  0
    2.4830   17.6000   -0.1600 C   0  0  0  0  0  0  0  0  0  0  0  0
    1.2030   13.2150   -2.7260 C   0  0  1  0  0  0  0  0  0  0  0  0
    2.2990   13.1620   -3.8330 C   0  0  0  0  0  0  0  0  0  0  0  0
   -0.0680   12.5030   -3.3230 C   0  0  0  0  0  0  0  0  0  0  0  0
   -1.0430   11.8620   -2.3170 C   0  0  0  0  0  0  0  0  0  0  0  0
   -0.2940   10.9810   -1.3120 C   0  0  2  0  0  0  0  0  0  0  0  0
    0.3810    9.8140   -2.1100 C   0  0  0  0  0  0  0  0  0  0  0  0
   -0.9379    7.6999   -1.7025 H   0  0  0  0  0  0  0  0  0  0  0  0
   -2.4738    8.2758   -2.4345 H   0  0  0  0  0  0  0  0  0  0  0  0
   -1.0252    9.3379   -2.4345 H   0  0  0  0  0  0  0  0  0  0  0  0
   -1.8724    8.3709    0.2405 H   0  0  0  0  0  0  0  0  0  0  0  0
   -3.6569   10.2545    0.3389 H   0  0  0  0  0  0  0  0  0  0  0  0
   -3.7103   10.0263   -1.4750 H   0  0  0  0  0  0  0  0  0  0  0  0
   -3.8926    7.5123    0.0307 H   0  0  0  0  0  0  0  0  0  0  0  0
   -5.2473    8.6719    0.3579 H   0  0  0  0  0  0  0  0  0  0  0  0
   -4.1137    7.8997   -2.1287 H   0  0  0  0  0  0  0  0  0  0  0  0
   -6.5713    7.0801    0.3678 H   0  0  0  0  0  0  0  0  0  0  0  0
   -8.1259    7.1105   -0.5317 H   0  0  0  0  0  0  0  0  0  0  0  0
   -7.1171    5.6242   -0.5317 H   0  0  0  0  0  0  0  0  0  0  0  0
   -7.0702    5.4869   -2.8027 H   0  0  0  0  0  0  0  0  0  0  0  0
   -7.4102    7.0535   -3.6131 H   0  0  0  0  0  0  0  0  0  0  0  0
   -5.7427    6.3856   -3.6131 H   0  0  0  0  0  0  0  0  0  0  0  0
   -1.9165   11.0652    0.1496 H   0  0  0  0  0  0  0  0  0  0  0  0
   -0.4385   10.3071    1.9051 H   0  0  0  0  0  0  0  0  0  0  0  0
    0.1641    8.9566    0.9202 H   0  0  0  0  0  0  0  0  0  0  0  0
    1.5732   11.3857    1.4486 H   0  0  0  0  0  0  0  0  0  0  0  0
    2.0158   10.2422    0.1836 H   0  0  0  0  0  0  0  0  0  0  0  0
    0.1441   12.8201    1.3993 H   0  0  0  0  0  0  0  0  0  0  0  0
    0.4944   13.9857    0.0783 H   0  0  0  0  0  0  0  0  0  0  0  0
   -1.0481   13.0653    0.0783 H   0  0  0  0  0  0  0  0  0  0  0  0
    2.2620   11.5306   -1.8524 H   0  0  0  0  0  0  0  0  0  0  0  0
    3.0637   12.8447    0.2139 H   0  0  0  0  0  0  0  0  0  0  0  0
    3.7971   13.1428   -1.4477 H   0  0  0  0  0  0  0  0  0  0  0  0
    3.3134   15.2806    0.0138 H   0  0  0  0  0  0  0  0  0  0  0  0
   -0.1591   14.6388   -1.9436 H   0  0  0  0  0  0  0  0  0  0  0  0
    1.7702   15.6556   -4.1202 H   0  0  0  0  0  0  0  0  0  0  0  0
    0.0309   15.1691   -4.3421 H   0  0  0  0  0  0  0  0  0  0  0  0
    0.3162   17.6263   -4.2857 H   0  0  0  0  0  0  0  0  0  0  0  0
   -0.6945   17.0013   -2.9244 H   0  0  0  0  0  0  0  0  0  0  0  0
    0.8028   18.6693   -2.0692 H   0  0  0  0  0  0  0  0  0  0  0  0
    3.1600   18.1300   -2.2550 H   0  0  0  0  0  0  0  0  0  0  0  0
    0.3180   16.9428    0.8549 H   0  0  0  0  0  0  0  0  0  0  0  0
   -0.4538   17.8763   -0.4716 H   0  0  0  0  0  0  0  0  0  0  0  0
   -0.5341   16.0818   -0.4716 H   0  0  0  0  0  0  0  0  0  0  0  0
    2.2511   17.4477    0.9045 H   0  0  0  0  0  0  0  0  0  0  0  0
    3.4727   17.1755   -0.3841 H   0  0  0  0  0  0  0  0  0  0  0  0
    2.4867   18.6769   -0.3841 H   0  0  0  0  0  0  0  0  0  0  0  0
    3.2925   13.1140   -3.3633 H   0  0  0  0  0  0  0  0  0  0  0  0
    2.1456   12.2702   -4.4585 H   0  0  0  0  0  0  0  0  0  0  0  0
    2.2324   14.0644   -4.4585 H   0  0  0  0  0  0  0  0  0  0  0  0
   -0.6298   13.2532   -3.8988 H   0  0  0  0  0  0  0  0  0  0  0  0
    0.3246   11.6645   -3.9169 H   0  0  0  0  0  0  0  0  0  0  0  0
   -1.5731   12.6576   -1.7729 H   0  0  0  0  0  0  0  0  0  0  0  0
   -1.7556   11.2335   -2.8712 H   0  0  0  0  0  0  0  0  0  0  0  0
    0.8035    9.0836   -1.4043 H   0  0  0  0  0  0  0  0  0  0  0  0
   -0.3707    9.3198   -2.7430 H   0  0  0  0  0  0  0  0  0  0  0  0
    1.1842   10.2192   -2.7430 H   0  0  0  0  0  0  0  0  0  0  0  0
  1  2  1  0
  2  3  1  0
  3  4  1  0
  4  5  1  0
  5  6  1  0
  6  7  1  0
  7  8  1  0
  7  9  1  0
  2 10  1  0
 10 11  1  0
 11 12  1  0
 12 13  1  0
 13 14  1  1
 13 15  1  0
 15 16  1  0
 16 17  1  0
 17 18  2  0
 18 19  1  0
 19 20  1  0
 20 21  1  0
 21 22  1  0
 22 23  1  0
 22 24  1  0
 24 25  1  0
 24 26  1  0
 19 27  1  0
 27 28  1  6
 27 29  1  0
 29 30  1  0
 30 31  1  0
 31 32  1  6
  7  5  1  0
 31 10  1  0
 31 13  1  0
 27 15  1  0
 24 18  1  0
  1 33  1  0
  1 34  1  0
  1 35  1  0
  2 36  1  1
  3 37  1  0
  3 38  1  0
  4 39  1  0
  4 40  1  0
  5 41  1  6
  8 42  1  0
  8 43  1  0
  8 44  1  0
  9 45  1  0
  9 46  1  0
  9 47  1  0
 10 48  1  1
 11 49  1  0
 11 50  1  0
 12 51  1  0
 12 52  1  0
 14 53  1  0
 14 54  1  0
 14 55  1  0
 15 56  1  6
 16 57  1  0
 16 58  1  0
 17 59  1  0
 19 60  1  1
 20 61  1  0
 20 62  1  0
 21 63  1  0
 21 64  1  0
 22 65  1  1
 23 66  1  0
 25 67  1  0
 25 68  1  0
 25 69  1  0
 26 70  1  0
 26 71  1  0
 26 72  1  0
 28 73  1  0
 28 74  1  0
 28 75  1  0
 29 76  1  0
 29 77  1  0
 30 78  1  0
 30 79  1  0
 32 80  1  0
 32 81  1  0
 32 82  1  0
M  END
>  <meeko>  (1) 
{"is_sidechain": [false], "intermolecular_energy": 2.731, "internal_energy": -0.839}

$$$$
EPH_relaxed_0001_pdb2pqr_Repair_6_r2_0001_out
     RDKit          3D

 82 86  0  0  0  0  0  0  0  0999 V2000
    2.1460   19.5090   -0.8100 C   0  0  0  0  0  0  0  0  0  0  0  0
    2.3790   18.3910    0.2100 C   0  0  2  0  0  0  0  0  0  0  0  0
    3.8330   17.8780    0.1870 C   0  0  0  0  0  0  0  0  0  0  0  0
    4.7780   18.6640    1.1000 C   0  0  0  0  0  0  0  0  0  0  0  0
    4.2090   18.8280    2.4770 C   0  0  2  0  0  0  0  0  0  0  0  0
    4.0490   20.1880    2.9000 O   0  0  0  0  0  0  0  0  0  0  0  0
    4.9930   19.4000    3.6430 C   0  0  0  0  0  0  0  0  0  0  0  0
    6.4140   19.8430    3.4860 C   0  0  0  0  0  0  0  0  0  0  0  0
    4.5450   19.0750    5.0340 C   0  0  0  0  0  0  0  0  0  0  0  0
    1.4160   17.2390   -0.0520 C   0  0  1  0  0  0  0  0  0  0  0  0
    0.1250   17.6940   -0.7820 C   0  0  0  0  0  0  0  0  0  0  0  0
   -0.2870   16.5360   -1.7270 C   0  0  0  0  0  0  0  0  0  0  0  0
    0.5760   15.3360   -1.2730 C   0  0  1  0  0  0  0  0  0  0  0  0
   -0.1680   14.7540   -0.0300 C   0  0  0  0  0  0  0  0  0  0  0  0
    0.8510   14.2350   -2.3480 C   0  0  2  0  0  0  0  0  0  0  0  0
   -0.4000   13.5080   -2.8720 C   0  0  0  0  0  0  0  0  0  0  0  0
   -0.7850   12.2780   -2.1180 C   0  0  0  0  0  0  0  0  0  0  0  0
   -0.0000   11.6170   -1.2460 C   0  0  0  0  0  0  0  0  0  0  0  0
    1.4560   12.0430   -1.0180 C   0  0  1  0  0  0  0  0  0  0  0  0
    2.3710   10.7920   -1.0440 C   0  0  0  0  0  0  0  0  0  0  0  0
    1.9180    9.7140   -0.0650 C   0  0  0  0  0  0  0  0  0  0  0  0
    0.4860    9.2750   -0.3610 C   0  0  2  0  0  0  0  0  0  0  0  0
    0.4610    8.6090   -1.6270 O   0  0  0  0  0  0  0  0  0  0  0  0
   -0.5260   10.4540   -0.3700 C   0  0  0  0  0  0  0  0  0  0  0  0
   -0.7230   10.9820    1.0720 C   0  0  0  0  0  0  0  0  0  0  0  0
   -1.9040    9.8970   -0.8200 C   0  0  0  0  0  0  0  0  0  0  0  0
    1.9910   13.2120   -1.9520 C   0  0  1  0  0  0  0  0  0  0  0  0
    2.5390   12.6170   -3.2860 C   0  0  0  0  0  0  0  0  0  0  0  0
    3.2090   13.9170   -1.2470 C   0  0  0  0  0  0  0  0  0  0  0  0
    2.8800   15.0760   -0.2860 C   0  0  0  0  0  0  0  0  0  0  0  0
    1.9230   16.0760   -0.9420 C   0  0  2  0  0  0  0  0  0  0  0  0
    2.6540   16.6940   -2.1830 C   0  0  0  0  0  0  0  0  0  0  0  0
    1.9493   20.4530   -0.2808 H   0  0  0  0  0  0  0  0  0  0  0  0
    3.0399   19.6218   -1.4410 H   0  0  0  0  0  0  0  0  0  0  0  0
    1.2814   19.2553   -1.4410 H   0  0  0  0  0  0  0  0  0  0  0  0
    2.1928   18.8109    1.2095 H   0  0  0  0  0  0  0  0  0  0  0  0
    3.8351   16.8260    0.5083 H   0  0  0  0  0  0  0  0  0  0  0  0
    4.2018   18.0037   -0.8417 H   0  0  0  0  0  0  0  0  0  0  0  0
    5.7346   18.1256    1.1713 H   0  0  0  0  0  0  0  0  0  0  0  0
    4.9205   19.6648    0.6663 H   0  0  0  0  0  0  0  0  0  0  0  0
    3.6157   17.9082    2.3673 H   0  0  0  0  0  0  0  0  0  0  0  0
    6.8660   19.9839    4.4789 H   0  0  0  0  0  0  0  0  0  0  0  0
    6.9775   19.0779    2.9319 H   0  0  0  0  0  0  0  0  0  0  0  0
    6.4429   20.7928    2.9319 H   0  0  0  0  0  0  0  0  0  0  0  0
    5.2153   19.5612    5.7581 H   0  0  0  0  0  0  0  0  0  0  0  0
    3.5179   19.4395    5.1830 H   0  0  0  0  0  0  0  0  0  0  0  0
    4.5727   17.9855    5.1830 H   0  0  0  0  0  0  0  0  0  0  0  0
    1.2663   16.8862    0.9791 H   0  0  0  0  0  0  0  0  0  0  0  0
   -0.6741   17.8894   -0.0518 H   0  0  0  0  0  0  0  0  0  0  0  0
    0.2972   18.6221   -1.3468 H   0  0  0  0  0  0  0  0  0  0  0  0
   -1.3575   16.3078   -1.6177 H   0  0  0  0  0  0  0  0  0  0  0  0
   -0.1292   16.7861   -2.7865 H   0  0  0  0  0  0  0  0  0  0  0  0
    0.3076   15.1261    0.8894 H   0  0  0  0  0  0  0  0  0  0  0  0
   -1.2213   15.0703   -0.0518 H   0  0  0  0  0  0  0  0  0  0  0  0
   -0.1145   13.6555   -0.0518 H   0  0  0  0  0  0  0  0  0  0  0  0
    1.2317   14.8234   -3.1958 H   0  0  0  0  0  0  0  0  0  0  0  0
   -1.2448   14.2113   -2.8294 H   0  0  0  0  0  0  0  0  0  0  0  0
   -0.1546   13.1759   -3.8915 H   0  0  0  0  0  0  0  0  0  0  0  0
   -1.7953   11.8780   -2.2893 H   0  0  0  0  0  0  0  0  0  0  0  0
    1.4853   12.5054   -0.0203 H   0  0  0  0  0  0  0  0  0  0  0  0
    2.3633   10.3709   -2.0602 H   0  0  0  0  0  0  0  0  0  0  0  0
    3.3803   11.1110   -0.7449 H   0  0  0  0  0  0  0  0  0  0  0  0
    2.5863    8.8447   -0.1522 H   0  0  0  0  0  0  0  0  0  0  0  0
    1.9551   10.1270    0.9538 H   0  0  0  0  0  0  0  0  0  0  0  0
    0.1731    8.5998    0.4490 H   0  0  0  0  0  0  0  0  0  0  0  0
   -0.4280    8.2310   -1.7430 H   0  0  0  0  0  0  0  0  0  0  0  0
   -0.4320   10.2020    1.7910 H   0  0  0  0  0  0  0  0  0  0  0  0
   -0.0970   11.8735    1.2248 H   0  0  0  0  0  0  0  0  0  0  0  0
   -1.7800   11.2456    1.2248 H   0  0  0  0  0  0  0  0  0  0  0  0
   -2.5080    9.6529    0.0663 H   0  0  0  0  0  0  0  0  0  0  0  0
   -2.4266   10.6545   -1.4225 H   0  0  0  0  0  0  0  0  0  0  0  0
   -1.7535    8.9891   -1.4225 H   0  0  0  0  0  0  0  0  0  0  0  0
    3.2686   11.8249   -3.0618 H   0  0  0  0  0  0  0  0  0  0  0  0
    1.7068   12.1948   -3.8684 H   0  0  0  0  0  0  0  0  0  0  0  0
    3.0281   13.4118   -3.8684 H   0  0  0  0  0  0  0  0  0  0  0  0
    3.7494   13.1509   -0.6717 H   0  0  0  0  0  0  0  0  0  0  0  0
    3.7879   14.3749   -2.0626 H   0  0  0  0  0  0  0  0  0  0  0  0
    2.4092   14.6690    0.6210 H   0  0  0  0  0  0  0  0  0  0  0  0
    3.8144   15.5984   -0.0330 H   0  0  0  0  0  0  0  0  0  0  0  0
    3.4521   17.3688   -1.8399 H   0  0  0  0  0  0  0  0  0  0  0  0
    3.0913   15.8876   -2.7900 H   0  0  0  0  0  0  0  0  0  0  0  0
    1.9316   17.2594   -2.7900 H   0  0  0  0  0  0  0  0  0  0  0  0
  1  2  1  0
  2  3  1  0
  3  4  1  0
  4  5  1  0
  5  6  1  0
  6  7  1  0
  7  8  1  0
  7  9  1  0
  2 10  1  0
 10 11  1  0
 11 12  1  0
 12 13  1  0
 13 14  1  1
 13 15  1  0
 15 16  1  0
 16 17  1  0
 17 18  2  0
 18 19  1  0
 19 20  1  0
 20 21  1  0
 21 22  1  0
 22 23  1  0
 22 24  1  0
 24 25  1  0
 24 26  1  0
 19 27  1  0
 27 28  1  6
 27 29  1  0
 29 30  1  0
 30 31  1  0
 31 32  1  6
  7  5  1  0
 31 10  1  0
 31 13  1  0
 27 15  1  0
 24 18  1  0
  1 33  1  0
  1 34  1  0
  1 35  1  0
  2 36  1  1
  3 37  1  0
  3 38  1  0
  4 39  1  0
  4 40  1  0
  5 41  1  1
  8 42  1  0
  8 43  1  0
  8 44  1  0
  9 45  1  0
  9 46  1  0
  9 47  1  0
 10 48  1  1
 11 49  1  0
 11 50  1  0
 12 51  1  0
 12 52  1  0
 14 53  1  0
 14 54  1  0
 14 55  1  0
 15 56  1  6
 16 57  1  0
 16 58  1  0
 17 59  1  0
 19 60  1  1
 20 61  1  0
 20 62  1  0
 21 63  1  0
 21 64  1  0
 22 65  1  1
 23 66  1  0
 25 67  1  0
 25 68  1  0
 25 69  1  0
 26 70  1  0
 26 71  1  0
 26 72  1  0
 28 73  1  0
 28 74  1  0
 28 75  1  0
 29 76  1  0
 29 77  1  0
 30 78  1  0
 30 79  1  0
 32 80  1  0
 32 81  1  0
 32 82  1  0
M  END
>  <meeko>  (2) 
{"is_sidechain": [false], "intermolecular_energy": 2.731, "internal_energy": -0.839}

$$$$
EPH_relaxed_0001_pdb2pqr_Repair_6_r2_0001_out
     RDKit          3D

 82 86  0  0  0  0  0  0  0  0999 V2000
    0.5130   18.4080    0.0670 C   0  0  0  0  0  0  0  0  0  0  0  0
    1.5890   17.3480   -0.1840 C   0  0  2  0  0  0  0  0  0  0  0  0
    2.7930   17.9140   -0.9630 C   0  0  0  0  0  0  0  0  0  0  0  0
    4.0270   18.1630   -0.0920 C   0  0  0  0  0  0  0  0  0  0  0  0
    3.6500   18.6050    1.2900 C   0  0  2  0  0  0  0  0  0  0  0  0
    3.8620   19.9990    1.5510 O   0  0  0  0  0  0  0  0  0  0  0  0
    4.6580   19.0820    2.3190 C   0  0  0  0  0  0  0  0  0  0  0  0
    6.1210   19.1400    2.0110 C   0  0  0  0  0  0  0  0  0  0  0  0
    4.2820   19.0250    3.7670 C   0  0  0  0  0  0  0  0  0  0  0  0
    0.9880   16.1680   -0.9400 C   0  0  1  0  0  0  0  0  0  0  0  0
    0.8160   16.4540   -2.4550 C   0  0  0  0  0  0  0  0  0  0  0  0
    1.0790   15.1170   -3.1960 C   0  0  0  0  0  0  0  0  0  0  0  0
    1.0650   14.0450   -2.0810 C   0  0  1  0  0  0  0  0  0  0  0  0
   -0.4460   13.7510   -1.8260 C   0  0  0  0  0  0  0  0  0  0  0  0
    1.8660   12.7350   -2.3740 C   0  0  2  0  0  0  0  0  0  0  0  0
    1.3580   11.9120   -3.5710 C   0  0  0  0  0  0  0  0  0  0  0  0
    0.3320   10.8780   -3.2450 C   0  0  0  0  0  0  0  0  0  0  0  0
    0.0440   10.4240   -2.0110 C   0  0  0  0  0  0  0  0  0  0  0  0
    0.8530   10.8870   -0.7920 C   0  0  1  0  0  0  0  0  0  0  0  0
    1.2300    9.6580    0.0760 C   0  0  0  0  0  0  0  0  0  0  0  0
    0.0150    8.8220    0.4660 C   0  0  0  0  0  0  0  0  0  0  0  0
   -0.7290    8.3320   -0.7730 C   0  0  2  0  0  0  0  0  0  0  0  0
    0.1040    7.4040   -1.4750 O   0  0  0  0  0  0  0  0  0  0  0  0
   -1.1520    9.4820   -1.7290 C   0  0  0  0  0  0  0  0  0  0  0  0
   -2.2820   10.3140   -1.0750 C   0  0  0  0  0  0  0  0  0  0  0  0
   -1.7660    8.8420   -3.0040 C   0  0  0  0  0  0  0  0  0  0  0  0
    2.1010   11.8210   -1.1030 C   0  0  1  0  0  0  0  0  0  0  0  0
    3.3560   10.9480   -1.4080 C   0  0  0  0  0  0  0  0  0  0  0  0
    2.4460   12.6620    0.1830 C   0  0  0  0  0  0  0  0  0  0  0  0
    1.7090   14.0040    0.3540 C   0  0  0  0  0  0  0  0  0  0  0  0
    1.7820   14.8370   -0.9280 C   0  0  2  0  0  0  0  0  0  0  0  0
    3.2900   15.1670   -1.1990 C   0  0  0  0  0  0  0  0  0  0  0  0
    0.3764   18.5425    1.1502 H   0  0  0  0  0  0  0  0  0  0  0  0
    0.8251   19.3613   -0.3844 H   0  0  0  0  0  0  0  0  0  0  0  0
   -0.4355   18.0817   -0.3844 H   0  0  0  0  0  0  0  0  0  0  0  0
    1.9590   17.0135    0.7964 H   0  0  0  0  0  0  0  0  0  0  0  0
    3.0639   17.1974   -1.7524 H   0  0  0  0  0  0  0  0  0  0  0  0
    2.4840   18.8885   -1.3691 H   0  0  0  0  0  0  0  0  0  0  0  0
    4.6080   17.2316   -0.0223 H   0  0  0  0  0  0  0  0  0  0  0  0
    4.6201   18.9635   -0.5583 H   0  0  0  0  0  0  0  0  0  0  0  0
    2.8462   17.8556    1.3366 H   0  0  0  0  0  0  0  0  0  0  0  0
    6.6929   19.1627    2.9504 H   0  0  0  0  0  0  0  0  0  0  0  0
    6.4084   18.2525    1.4281 H   0  0  0  0  0  0  0  0  0  0  0  0
    6.3373   20.0474    1.4281 H   0  0  0  0  0  0  0  0  0  0  0  0
    5.1817   19.1614    4.3851 H   0  0  0  0  0  0  0  0  0  0  0  0
    3.5594   19.8239    3.9899 H   0  0  0  0  0  0  0  0  0  0  0  0
    3.8287   18.0479    3.9899 H   0  0  0  0  0  0  0  0  0  0  0  0
    0.0479   16.0505   -0.3810 H   0  0  0  0  0  0  0  0  0  0  0  0
   -0.2057   16.8062   -2.6603 H   0  0  0  0  0  0  0  0  0  0  0  0
    1.5136   17.2354   -2.7909 H   0  0  0  0  0  0  0  0  0  0  0  0
    0.2879   14.9199   -3.9344 H   0  0  0  0  0  0  0  0  0  0  0  0
    2.0275   15.1278   -3.7530 H   0  0  0  0  0  0  0  0  0  0  0  0
   -0.6347   13.7143   -0.7429 H   0  0  0  0  0  0  0  0  0  0  0  0
   -1.0558   14.5473   -2.2776 H   0  0  0  0  0  0  0  0  0  0  0  0
   -0.7127   12.7841   -2.2776 H   0  0  0  0  0  0  0  0  0  0  0  0
    2.8500   13.1236   -2.6752 H   0  0  0  0  0  0  0  0  0  0  0  0
    0.9187   12.6085   -4.3003 H   0  0  0  0  0  0  0  0  0  0  0  0
    2.2308   11.3638   -3.9554 H   0  0  0  0  0  0  0  0  0  0  0  0
   -0.2368   10.4509   -4.0841 H   0  0  0  0  0  0  0  0  0  0  0  0
    0.1909   11.5563   -0.2231 H   0  0  0  0  0  0  0  0  0  0  0  0
    1.9259    9.0243   -0.4934 H   0  0  0  0  0  0  0  0  0  0  0  0
    1.6891   10.0323    1.0029 H   0  0  0  0  0  0  0  0  0  0  0  0
    0.3487    7.9534    1.0527 H   0  0  0  0  0  0  0  0  0  0  0  0
   -0.6665    9.4482    1.0605 H   0  0  0  0  0  0  0  0  0  0  0  0
   -1.6576    7.8516   -0.4309 H   0  0  0  0  0  0  0  0  0  0  0  0
    0.5040    6.8110   -0.8160 H   0  0  0  0  0  0  0  0  0  0  0  0
   -2.1968   10.2513    0.0199 H   0  0  0  0  0  0  0  0  0  0  0  0
   -2.1935   11.3642   -1.3901 H   0  0  0  0  0  0  0  0  0  0  0  0
   -3.2585    9.9177   -1.3901 H   0  0  0  0  0  0  0  0  0  0  0  0
   -2.5004    8.0765   -2.7128 H   0  0  0  0  0  0  0  0  0  0  0  0
   -2.2644    9.6199   -3.6011 H   0  0  0  0  0  0  0  0  0  0  0  0
   -0.9681    8.3763   -3.6011 H   0  0  0  0  0  0  0  0  0  0  0  0
    3.8178   10.6268   -0.4627 H   0  0  0  0  0  0  0  0  0  0  0  0
    3.0550   10.0633   -1.9883 H   0  0  0  0  0  0  0  0  0  0  0  0
    4.0808   11.5379   -1.9883 H   0  0  0  0  0  0  0  0  0  0  0  0
    2.2126   12.0401    1.0598 H   0  0  0  0  0  0  0  0  0  0  0  0
    3.5079   12.9285    0.0762 H   0  0  0  0  0  0  0  0  0  0  0  0
    0.6541   13.8069    0.5953 H   0  0  0  0  0  0  0  0  0  0  0  0
    2.1912   14.5677    1.1662 H   0  0  0  0  0  0  0  0  0  0  0  0
    3.8180   15.2825   -0.2409 H   0  0  0  0  0  0  0  0  0  0  0  0
    3.7472   14.3477   -1.7731 H   0  0  0  0  0  0  0  0  0  0  0  0
    3.3632   16.1024   -1.7731 H   0  0  0  0  0  0  0  0  0  0  0  0
  1  2  1  0
  2  3  1  0
  3  4  1  0
  4  5  1  0
  5  6  1  0
  6  7  1  0
  7  8  1  0
  7  9  1  0
  2 10  1  0
 10 11  1  0
 11 12  1  0
 12 13  1  0
 13 14  1  1
 13 15  1  0
 15 16  1  0
 16 17  1  0
 17 18  2  0
 18 19  1  0
 19 20  1  0
 20 21  1  0
 21 22  1  0
 22 23  1  0
 22 24  1  0
 24 25  1  0
 24 26  1  0
 19 27  1  0
 27 28  1  6
 27 29  1  0
 29 30  1  0
 30 31  1  0
 31 32  1  6
  7  5  1  0
 31 10  1  0
 31 13  1  0
 27 15  1  0
 24 18  1  0
  1 33  1  0
  1 34  1  0
  1 35  1  0
  2 36  1  1
  3 37  1  0
  3 38  1  0
  4 39  1  0
  4 40  1  0
  5 41  1  1
  8 42  1  0
  8 43  1  0
  8 44  1  0
  9 45  1  0
  9 46  1  0
  9 47  1  0
 10 48  1  1
 11 49  1  0
 11 50  1  0
 12 51  1  0
 12 52  1  0
 14 53  1  0
 14 54  1  0
 14 55  1  0
 15 56  1  6
 16 57  1  0
 16 58  1  0
 17 59  1  0
 19 60  1  1
 20 61  1  0
 20 62  1  0
 21 63  1  0
 21 64  1  0
 22 65  1  1
 23 66  1  0
 25 67  1  0
 25 68  1  0
 25 69  1  0
 26 70  1  0
 26 71  1  0
 26 72  1  0
 28 73  1  0
 28 74  1  0
 28 75  1  0
 29 76  1  0
 29 77  1  0
 30 78  1  0
 30 79  1  0
 32 80  1  0
 32 81  1  0
 32 82  1  0
M  END
>  <meeko>  (3) 
{"is_sidechain": [false], "intermolecular_energy": 2.731, "internal_energy": -0.839}

$$$$
EPH_relaxed_0001_pdb2pqr_Repair_6_r2_0001_out
     RDKit          3D

 82 86  0  0  0  0  0  0  0  0999 V2000
    2.1180   18.0970   -2.6310 C   0  0  0  0  0  0  0  0  0  0  0  0
    0.5980   17.9170   -2.6720 C   0  0  2  0  0  0  0  0  0  0  0  0
   -0.0770   18.3740   -1.3630 C   0  0  0  0  0  0  0  0  0  0  0  0
    0.6880   17.9650   -0.1010 C   0  0  0  0  0  0  0  0  0  0  0  0
    1.2850   19.1520    0.5940 C   0  0  2  0  0  0  0  0  0  0  0  0
    2.2310   19.8910   -0.1890 O   0  0  0  0  0  0  0  0  0  0  0  0
    2.7480   19.2440    0.9850 C   0  0  0  0  0  0  0  0  0  0  0  0
    3.7040   18.1300    0.6960 C   0  0  0  0  0  0  0  0  0  0  0  0
    3.1380   20.1940    2.0740 C   0  0  0  0  0  0  0  0  0  0  0  0
    0.2550   16.4590   -2.9540 C   0  0  1  0  0  0  0  0  0  0  0  0
    0.3030   16.1160   -4.4670 C   0  0  0  0  0  0  0  0  0  0  0  0
    0.8200   14.6590   -4.5790 C   0  0  0  0  0  0  0  0  0  0  0  0
    0.7370   14.1040   -3.1380 C   0  0  1  0  0  0  0  0  0  0  0  0
   -0.7570   13.6920   -2.9530 C   0  0  0  0  0  0  0  0  0  0  0  0
    1.7070   12.9270   -2.7940 C   0  0  2  0  0  0  0  0  0  0  0  0
    1.4890   11.6410   -3.6110 C   0  0  0  0  0  0  0  0  0  0  0  0
    0.5360   10.6600   -3.0140 C   0  0  0  0  0  0  0  0  0  0  0  0
    0.1000   10.6690   -1.7400 C   0  0  0  0  0  0  0  0  0  0  0  0
    0.6470   11.6830   -0.7280 C   0  0  1  0  0  0  0  0  0  0  0  0
    1.0030   10.9540    0.5950 C   0  0  0  0  0  0  0  0  0  0  0  0
   -0.1660   10.1470    1.1510 C   0  0  0  0  0  0  0  0  0  0  0  0
   -0.6430    9.1100    0.1370 C   0  0  2  0  0  0  0  0  0  0  0  0
    0.3850    8.1310   -0.0400 O   0  0  0  0  0  0  0  0  0  0  0  0
   -1.0220    9.7260   -1.2380 C   0  0  0  0  0  0  0  0  0  0  0  0
   -2.3240   10.5530   -1.0980 C   0  0  0  0  0  0  0  0  0  0  0  0
   -1.3500    8.5610   -2.2100 C   0  0  0  0  0  0  0  0  0  0  0  0
    1.8250   12.6150   -1.2470 C   0  0  1  0  0  0  0  0  0  0  0  0
    3.1970   11.9040   -1.0390 C   0  0  0  0  0  0  0  0  0  0  0  0
    1.8660   13.9250   -0.3750 C   0  0  0  0  0  0  0  0  0  0  0  0
    0.9760   15.0950   -0.8340 C   0  0  0  0  0  0  0  0  0  0  0  0
    1.1700   15.3790   -2.3270 C   0  0  2  0  0  0  0  0  0  0  0  0
    2.6590   15.8170   -2.5400 C   0  0  0  0  0  0  0  0  0  0  0  0
    2.4544   18.1368   -1.5845 H   0  0  0  0  0  0  0  0  0  0  0  0
    2.6014   17.2498   -3.1395 H   0  0  0  0  0  0  0  0  0  0  0  0
    2.3902   19.0337   -3.1395 H   0  0  0  0  0  0  0  0  0  0  0  0
    0.2112   18.5533   -3.4817 H   0  0  0  0  0  0  0  0  0  0  0  0
   -0.1593   19.4708   -1.3792 H   0  0  0  0  0  0  0  0  0  0  0  0
   -1.0589   17.8803   -1.3181 H   0  0  0  0  0  0  0  0  0  0  0  0
   -0.0048   17.4596    0.5879 H   0  0  0  0  0  0  0  0  0  0  0  0
    1.5071   17.2938   -0.3986 H   0  0  0  0  0  0  0  0  0  0  0  0
    0.3577   19.3149    1.1628 H   0  0  0  0  0  0  0  0  0  0  0  0
    4.0687   17.7050    1.6427 H   0  0  0  0  0  0  0  0  0  0  0  0
    3.1915   17.3481    0.1164 H   0  0  0  0  0  0  0  0  0  0  0  0
    4.5546   18.5179    0.1164 H   0  0  0  0  0  0  0  0  0  0  0  0
    2.9470   19.7287    3.0523 H   0  0  0  0  0  0  0  0  0  0  0  0
    4.2077   20.4346    1.9850 H   0  0  0  0  0  0  0  0  0  0  0  0
    2.5460   21.1168    1.9850 H   0  0  0  0  0  0  0  0  0  0  0  0
   -0.7457   16.4141   -2.4994 H   0  0  0  0  0  0  0  0  0  0  0  0
   -0.7026   16.1959   -4.9056 H   0  0  0  0  0  0  0  0  0  0  0  0
    0.9609   16.8113   -5.0090 H   0  0  0  0  0  0  0  0  0  0  0  0
    0.1841   14.0724   -5.2583 H   0  0  0  0  0  0  0  0  0  0  0  0
    1.8401   14.6085   -4.9874 H   0  0  0  0  0  0  0  0  0  0  0  0
   -0.9895   13.6279   -1.8798 H   0  0  0  0  0  0  0  0  0  0  0  0
   -1.4060   14.4447   -3.4244 H   0  0  0  0  0  0  0  0  0  0  0  0
   -0.9285   12.7130   -3.4244 H   0  0  0  0  0  0  0  0  0  0  0  0
    2.6814   13.3237   -3.1153 H   0  0  0  0  0  0  0  0  0  0  0  0
    1.1052   11.9283   -4.6010 H   0  0  0  0  0  0  0  0  0  0  0  0
    2.4647   11.1342   -3.6466 H   0  0  0  0  0  0  0  0  0  0  0  0
    0.1578    9.8622   -3.6701 H   0  0  0  0  0  0  0  0  0  0  0  0
   -0.1652   12.4034   -0.5507 H   0  0  0  0  0  0  0  0  0  0  0  0
    1.8445   10.2713    0.4060 H   0  0  0  0  0  0  0  0  0  0  0  0
    1.2632   11.7210    1.3393 H   0  0  0  0  0  0  0  0  0  0  0  0
    0.1556    9.6323    2.0684 H   0  0  0  0  0  0  0  0  0  0  0  0
   -0.9966   10.8349    1.3676 H   0  0  0  0  0  0  0  0  0  0  0  0
   -1.5600    8.6540    0.5385 H   0  0  0  0  0  0  0  0  0  0  0  0
    0.7030    8.2010   -0.9570 H   0  0  0  0  0  0  0  0  0  0  0  0
   -2.5531   10.6985   -0.0320 H   0  0  0  0  0  0  0  0  0  0  0  0
   -2.1903   11.5321   -1.5813 H   0  0  0  0  0  0  0  0  0  0  0  0
   -3.1534   10.0158   -1.5813 H   0  0  0  0  0  0  0  0  0  0  0  0
   -1.6035    7.6607   -1.6310 H   0  0  0  0  0  0  0  0  0  0  0  0
   -2.2040    8.8418   -2.8439 H   0  0  0  0  0  0  0  0  0  0  0  0
   -0.4749    8.3550   -2.8439 H   0  0  0  0  0  0  0  0  0  0  0  0
    3.3968   11.8005    0.0377 H   0  0  0  0  0  0  0  0  0  0  0  0
    3.1678   10.9075   -1.5040 H   0  0  0  0  0  0  0  0  0  0  0  0
    3.9943   12.5024   -1.5040 H   0  0  0  0  0  0  0  0  0  0  0  0
    1.5589   13.6544    0.6460 H   0  0  0  0  0  0  0  0  0  0  0  0
    2.8974   14.2969   -0.4640 H   0  0  0  0  0  0  0  0  0  0  0  0
   -0.0779   14.8389   -0.6504 H   0  0  0  0  0  0  0  0  0  0  0  0
    1.2584   15.9940   -0.2665 H   0  0  0  0  0  0  0  0  0  0  0  0
    3.1428   15.9593   -1.5624 H   0  0  0  0  0  0  0  0  0  0  0  0
    3.1933   15.0380   -3.1036 H   0  0  0  0  0  0  0  0  0  0  0  0
    2.6864   16.7613   -3.1036 H   0  0  0  0  0  0  0  0  0  0  0  0
  1  2  1  0
  2  3  1  0
  3  4  1  0
  4  5  1  0
  5  6  1  0
  6  7  1  0
  7  8  1  0
  7  9  1  0
  2 10  1  0
 10 11  1  0
 11 12  1  0
 12 13  1  0
 13 14  1  1
 13 15  1  0
 15 16  1  0
 16 17  1  0
 17 18  2  0
 18 19  1  0
 19 20  1  0
 20 21  1  0
 21 22  1  0
 22 23  1  0
 22 24  1  0
 24 25  1  0
 24 26  1  0
 19 27  1  0
 27 28  1  6
 27 29  1  0
 29 30  1  0
 30 31  1  0
 31 32  1  1
  7  5  1  0
 31 10  1  0
 31 13  1  0
 27 15  1  0
 24 18  1  0
  1 33  1  0
  1 34  1  0
  1 35  1  0
  2 36  1  6
  3 37  1  0
  3 38  1  0
  4 39  1  0
  4 40  1  0
  5 41  1  1
  8 42  1  0
  8 43  1  0
  8 44  1  0
  9 45  1  0
  9 46  1  0
  9 47  1  0
 10 48  1  1
 11 49  1  0
 11 50  1  0
 12 51  1  0
 12 52  1  0
 14 53  1  0
 14 54  1  0
 14 55  1  0
 15 56  1  6
 16 57  1  0
 16 58  1  0
 17 59  1  0
 19 60  1  1
 20 61  1  0
 20 62  1  0
 21 63  1  0
 21 64  1  0
 22 65  1  1
 23 66  1  0
 25 67  1  0
 25 68  1  0
 25 69  1  0
 26 70  1  0
 26 71  1  0
 26 72  1  0
 28 73  1  0
 28 74  1  0
 28 75  1  0
 29 76  1  0
 29 77  1  0
 30 78  1  0
 30 79  1  0
 32 80  1  0
 32 81  1  0
 32 82  1  0
M  END
>  <meeko>  (4) 
{"is_sidechain": [false], "intermolecular_energy": 2.731, "internal_energy": -0.839}

$$$$
EPH_relaxed_0001_pdb2pqr_Repair_6_r2_0001_out
     RDKit          3D

 82 86  0  0  0  0  0  0  0  0999 V2000
    2.3120   18.0290   -2.6650 C   0  0  0  0  0  0  0  0  0  0  0  0
    1.0020   17.6440   -1.9730 C   0  0  2  0  0  0  0  0  0  0  0  0
    1.1160   17.7090   -0.4360 C   0  0  0  0  0  0  0  0  0  0  0  0
    0.7950   19.0880    0.1470 C   0  0  0  0  0  0  0  0  0  0  0  0
   -0.6350   19.1850    0.5840 C   0  0  2  0  0  0  0  0  0  0  0  0
   -1.5230   18.2650   -0.0650 O   0  0  0  0  0  0  0  0  0  0  0  0
   -1.7560   19.6590   -0.3220 C   0  0  0  0  0  0  0  0  0  0  0  0
   -1.4950   20.0680   -1.7380 C   0  0  0  0  0  0  0  0  0  0  0  0
   -3.0090   20.1870    0.3050 C   0  0  0  0  0  0  0  0  0  0  0  0
    0.5760   16.2460   -2.4050 C   0  0  1  0  0  0  0  0  0  0  0  0
    0.6400   16.0510   -3.9430 C   0  0  0  0  0  0  0  0  0  0  0  0
    1.0700   14.5820   -4.1900 C   0  0  0  0  0  0  0  0  0  0  0  0
    0.9170   13.8940   -2.8130 C   0  0  1  0  0  0  0  0  0  0  0  0
   -0.6040   13.5620   -2.6980 C   0  0  0  0  0  0  0  0  0  0  0  0
    1.8030   12.6290   -2.5700 C   0  0  2  0  0  0  0  0  0  0  0  0
    1.5270   11.4470   -3.5150 C   0  0  0  0  0  0  0  0  0  0  0  0
    0.5010   10.4740   -3.0350 C   0  0  0  0  0  0  0  0  0  0  0  0
    0.0350   10.3860   -1.7760 C   0  0  0  0  0  0  0  0  0  0  0  0
    0.6180   11.2590   -0.6570 C   0  0  1  0  0  0  0  0  0  0  0  0
    0.8960   10.3830    0.5920 C   0  0  0  0  0  0  0  0  0  0  0  0
   -0.3340    9.6010    1.0440 C   0  0  0  0  0  0  0  0  0  0  0  0
   -0.8500    8.7010   -0.0770 C   0  0  2  0  0  0  0  0  0  0  0  0
    0.1210    7.6810   -0.3320 O   0  0  0  0  0  0  0  0  0  0  0  0
   -1.1550    9.4730   -1.3910 C   0  0  0  0  0  0  0  0  0  0  0  0
   -2.4070   10.3630   -1.1930 C   0  0  0  0  0  0  0  0  0  0  0  0
   -1.5300    8.4310   -2.4790 C   0  0  0  0  0  0  0  0  0  0  0  0
    1.8630   12.1610   -1.0600 C   0  0  1  0  0  0  0  0  0  0  0  0
    3.1840   11.3470   -0.8980 C   0  0  0  0  0  0  0  0  0  0  0  0
    1.9640   13.3730   -0.0600 C   0  0  0  0  0  0  0  0  0  0  0  0
    1.1590   14.6370   -0.4180 C   0  0  0  0  0  0  0  0  0  0  0  0
    1.4080   15.0530   -1.8710 C   0  0  2  0  0  0  0  0  0  0  0  0
    2.9260   15.4140   -2.0120 C   0  0  0  0  0  0  0  0  0  0  0  0
    3.0756   18.2534   -1.9057 H   0  0  0  0  0  0  0  0  0  0  0  0
    2.6541   17.1934   -3.2933 H   0  0  0  0  0  0  0  0  0  0  0  0
    2.1476   18.9168   -3.2933 H   0  0  0  0  0  0  0  0  0  0  0  0
    0.2395   18.3754   -2.2789 H   0  0  0  0  0  0  0  0  0  0  0  0
    0.4163   16.9781   -0.0046 H   0  0  0  0  0  0  0  0  0  0  0  0
    2.1631   17.4881   -0.1816 H   0  0  0  0  0  0  0  0  0  0  0  0
    1.4462   19.2686    1.0150 H   0  0  0  0  0  0  0  0  0  0  0  0
    0.9661   19.8404   -0.6370 H   0  0  0  0  0  0  0  0  0  0  0  0
   -0.3298   19.4828    1.5980 H   0  0  0  0  0  0  0  0  0  0  0  0
   -0.9033   20.9952   -1.7487 H   0  0  0  0  0  0  0  0  0  0  0  0
   -0.9378   19.2715   -2.2530 H   0  0  0  0  0  0  0  0  0  0  0  0
   -2.4521   20.2378   -2.2530 H   0  0  0  0  0  0  0  0  0  0  0  0
   -2.9156   20.1477    1.4003 H   0  0  0  0  0  0  0  0  0  0  0  0
   -3.1672   21.2283   -0.0123 H   0  0  0  0  0  0  0  0  0  0  0  0
   -3.8647   19.5730   -0.0123 H   0  0  0  0  0  0  0  0  0  0  0  0
   -0.4367   16.2204   -1.9763 H   0  0  0  0  0  0  0  0  0  0  0  0
   -0.3478   16.2368   -4.3898 H   0  0  0  0  0  0  0  0  0  0  0  0
    1.3521   16.7533   -4.4009 H   0  0  0  0  0  0  0  0  0  0  0  0
    0.4168   14.1064   -4.9365 H   0  0  0  0  0  0  0  0  0  0  0  0
    2.0951   14.5076   -4.5819 H   0  0  0  0  0  0  0  0  0  0  0  0
   -0.8866   13.5003   -1.6367 H   0  0  0  0  0  0  0  0  0  0  0  0
   -1.1901   14.3534   -3.1881 H   0  0  0  0  0  0  0  0  0  0  0  0
   -0.8070   12.5984   -3.1881 H   0  0  0  0  0  0  0  0  0  0  0  0
    2.8081   12.9910   -2.8322 H   0  0  0  0  0  0  0  0  0  0  0  0
    1.1853   11.8541   -4.4781 H   0  0  0  0  0  0  0  0  0  0  0  0
    2.4704   10.8856   -3.5845 H   0  0  0  0  0  0  0  0  0  0  0  0
    0.0914    9.7693   -3.7736 H   0  0  0  0  0  0  0  0  0  0  0  0
   -0.1526   12.0081   -0.4223 H   0  0  0  0  0  0  0  0  0  0  0  0
    1.6982    9.6700    0.3511 H   0  0  0  0  0  0  0  0  0  0  0  0
    1.1848   11.0551    1.4135 H   0  0  0  0  0  0  0  0  0  0  0  0
   -0.0668    8.9790    1.9110 H   0  0  0  0  0  0  0  0  0  0  0  0
   -1.1255   10.3158    1.3133 H   0  0  0  0  0  0  0  0  0  0  0  0
   -1.8031    8.2672    0.2597 H   0  0  0  0  0  0  0  0  0  0  0  0
   -0.0690    6.9380    0.2660 H   0  0  0  0  0  0  0  0  0  0  0  0
   -2.5953   10.4969   -0.1175 H   0  0  0  0  0  0  0  0  0  0  0  0
   -2.2371   11.3441   -1.6604 H   0  0  0  0  0  0  0  0  0  0  0  0
   -3.2778    9.8801   -1.6604 H   0  0  0  0  0  0  0  0  0  0  0  0
   -1.8647    7.5010   -1.9962 H   0  0  0  0  0  0  0  0  0  0  0  0
   -2.3406    8.8310   -3.1059 H   0  0  0  0  0  0  0  0  0  0  0  0
   -0.6504    8.2227   -3.1059 H   0  0  0  0  0  0  0  0  0  0  0  0
    3.4028   11.2122    0.1716 H   0  0  0  0  0  0  0  0  0  0  0  0
    3.0691   10.3628   -1.3757 H   0  0  0  0  0  0  0  0  0  0  0  0
    4.0115   11.8921   -1.3757 H   0  0  0  0  0  0  0  0  0  0  0  0
    1.6153   13.0235    0.9230 H   0  0  0  0  0  0  0  0  0  0  0  0
    3.0185   13.6847   -0.0905 H   0  0  0  0  0  0  0  0  0  0  0  0
    0.0870   14.4315   -0.2813 H   0  0  0  0  0  0  0  0  0  0  0  0
    1.4814   15.4563    0.2413 H   0  0  0  0  0  0  0  0  0  0  0  0
    3.3721   15.5201   -1.0121 H   0  0  0  0  0  0  0  0  0  0  0  0
    3.4437   14.6139   -2.5614 H   0  0  0  0  0  0  0  0  0  0  0  0
    3.0281   16.3615   -2.5614 H   0  0  0  0  0  0  0  0  0  0  0  0
  1  2  1  0
  2  3  1  0
  3  4  1  0
  4  5  1  0
  5  6  1  0
  6  7  1  0
  7  8  1  0
  7  9  1  0
  2 10  1  0
 10 11  1  0
 11 12  1  0
 12 13  1  0
 13 14  1  1
 13 15  1  0
 15 16  1  0
 16 17  1  0
 17 18  2  0
 18 19  1  0
 19 20  1  0
 20 21  1  0
 21 22  1  0
 22 23  1  0
 22 24  1  0
 24 25  1  0
 24 26  1  0
 19 27  1  0
 27 28  1  6
 27 29  1  0
 29 30  1  0
 30 31  1  0
 31 32  1  1
  7  5  1  0
 31 10  1  0
 31 13  1  0
 27 15  1  0
 24 18  1  0
  1 33  1  0
  1 34  1  0
  1 35  1  0
  2 36  1  6
  3 37  1  0
  3 38  1  0
  4 39  1  0
  4 40  1  0
  5 41  1  1
  8 42  1  0
  8 43  1  0
  8 44  1  0
  9 45  1  0
  9 46  1  0
  9 47  1  0
 10 48  1  1
 11 49  1  0
 11 50  1  0
 12 51  1  0
 12 52  1  0
 14 53  1  0
 14 54  1  0
 14 55  1  0
 15 56  1  6
 16 57  1  0
 16 58  1  0
 17 59  1  0
 19 60  1  1
 20 61  1  0
 20 62  1  0
 21 63  1  0
 21 64  1  0
 22 65  1  1
 23 66  1  0
 25 67  1  0
 25 68  1  0
 25 69  1  0
 26 70  1  0
 26 71  1  0
 26 72  1  0
 28 73  1  0
 28 74  1  0
 28 75  1  0
 29 76  1  0
 29 77  1  0
 30 78  1  0
 30 79  1  0
 32 80  1  0
 32 81  1  0
 32 82  1  0
M  END
>  <meeko>  (5) 
{"is_sidechain": [false], "intermolecular_energy": 2.731, "internal_energy": -0.839}

$$$$
EPH_relaxed_0001_pdb2pqr_Repair_6_r2_0001_out
     RDKit          3D

 82 86  0  0  0  0  0  0  0  0999 V2000
    3.8160   17.9980    0.7270 C   0  0  0  0  0  0  0  0  0  0  0  0
    2.7320   18.4820   -0.2400 C   0  0  2  0  0  0  0  0  0  0  0  0
    1.9930   19.7270    0.2920 C   0  0  0  0  0  0  0  0  0  0  0  0
    0.7300   19.3980    1.0920 C   0  0  0  0  0  0  0  0  0  0  0  0
   -0.4840   20.0530    0.5070 C   0  0  2  0  0  0  0  0  0  0  0  0
   -1.5970   20.1610    1.4030 O   0  0  0  0  0  0  0  0  0  0  0  0
   -1.7890   19.3220    0.2530 C   0  0  0  0  0  0  0  0  0  0  0  0
   -1.9460   17.8700    0.5790 C   0  0  0  0  0  0  0  0  0  0  0  0
   -2.7420   19.8870   -0.7530 C   0  0  0  0  0  0  0  0  0  0  0  0
    1.7360   17.3600   -0.5080 C   0  0  1  0  0  0  0  0  0  0  0  0
    0.5540   17.8120   -1.4060 C   0  0  0  0  0  0  0  0  0  0  0  0
    0.1740   16.5970   -2.2910 C   0  0  0  0  0  0  0  0  0  0  0  0
    0.9160   15.4010   -1.6500 C   0  0  1  0  0  0  0  0  0  0  0  0
    0.0160   14.9670   -0.4500 C   0  0  0  0  0  0  0  0  0  0  0  0
    1.2340   14.1980   -2.5960 C   0  0  2  0  0  0  0  0  0  0  0  0
    0.0040   13.4900   -3.1890 C   0  0  0  0  0  0  0  0  0  0  0  0
   -0.5270   12.3510   -2.3820 C   0  0  0  0  0  0  0  0  0  0  0  0
    0.1250   11.7320   -1.3800 C   0  0  0  0  0  0  0  0  0  0  0  0
    1.5720   12.1040   -1.0330 C   0  0  1  0  0  0  0  0  0  0  0  0
    2.4120   10.8120   -0.8600 C   0  0  0  0  0  0  0  0  0  0  0  0
    1.8000    9.8470    0.1510 C   0  0  0  0  0  0  0  0  0  0  0  0
    0.3830    9.4550   -0.2590 C   0  0  2  0  0  0  0  0  0  0  0  0
    0.4480    8.6820   -1.4610 O   0  0  0  0  0  0  0  0  0  0  0  0
   -0.5540   10.6770   -0.4730 C   0  0  0  0  0  0  0  0  0  0  0  0
   -0.8660   11.3380    0.8920 C   0  0  0  0  0  0  0  0  0  0  0  0
   -1.9080   10.1500   -1.0190 C   0  0  0  0  0  0  0  0  0  0  0  0
    2.2670   13.1580   -1.9990 C   0  0  1  0  0  0  0  0  0  0  0  0
    2.9130   12.4230   -3.2130 C   0  0  0  0  0  0  0  0  0  0  0  0
    3.4460   13.8620   -1.2280 C   0  0  0  0  0  0  0  0  0  0  0  0
    3.0880   15.1160   -0.4060 C   0  0  0  0  0  0  0  0  0  0  0  0
    2.2630   16.1000   -1.2400 C   0  0  2  0  0  0  0  0  0  0  0  0
    3.1500   16.5710   -2.4420 C   0  0  0  0  0  0  0  0  0  0  0  0
    3.4775   18.1491    1.7627 H   0  0  0  0  0  0  0  0  0  0  0  0
    4.0084   16.9285    0.5565 H   0  0  0  0  0  0  0  0  0  0  0  0
    4.7408   18.5687    0.5565 H   0  0  0  0  0  0  0  0  0  0  0  0
    3.2296   18.7692   -1.1780 H   0  0  0  0  0  0  0  0  0  0  0  0
    2.6804   20.2870    0.9430 H   0  0  0  0  0  0  0  0  0  0  0  0
    1.6753   20.3111   -0.5843 H   0  0  0  0  0  0  0  0  0  0  0  0
    0.5818   18.3080    1.0916 H   0  0  0  0  0  0  0  0  0  0  0  0
    0.8643   19.7777    2.1156 H   0  0  0  0  0  0  0  0  0  0  0  0
    0.1413   20.6911   -0.1347 H   0  0  0  0  0  0  0  0  0  0  0  0
   -1.9602   17.7388    1.6711 H   0  0  0  0  0  0  0  0  0  0  0  0
   -2.8896   17.4985    0.1528 H   0  0  0  0  0  0  0  0  0  0  0  0
   -1.1037   17.3053    0.1528 H   0  0  0  0  0  0  0  0  0  0  0  0
   -3.5752   20.3810   -0.2317 H   0  0  0  0  0  0  0  0  0  0  0  0
   -2.2176   20.6202   -1.3834 H   0  0  0  0  0  0  0  0  0  0  0  0
   -3.1337   19.0751   -1.3834 H   0  0  0  0  0  0  0  0  0  0  0  0
    1.4619   17.1066    0.5267 H   0  0  0  0  0  0  0  0  0  0  0  0
   -0.3025   18.1096   -0.7832 H   0  0  0  0  0  0  0  0  0  0  0  0
    0.8359   18.6775   -2.0236 H   0  0  0  0  0  0  0  0  0  0  0  0
   -0.9134   16.4318   -2.2777 H   0  0  0  0  0  0  0  0  0  0  0  0
    0.4526   16.7448   -3.3448 H   0  0  0  0  0  0  0  0  0  0  0  0
    0.5225   15.2113    0.4954 H   0  0  0  0  0  0  0  0  0  0  0  0
   -0.9444   15.5010   -0.5000 H   0  0  0  0  0  0  0  0  0  0  0  0
   -0.1642   13.8830   -0.5000 H   0  0  0  0  0  0  0  0  0  0  0  0
    1.7317   14.6918   -3.4436 H   0  0  0  0  0  0  0  0  0  0  0  0
   -0.7986   14.2347   -3.2951 H   0  0  0  0  0  0  0  0  0  0  0  0
    0.3332   13.0579   -4.1455 H   0  0  0  0  0  0  0  0  0  0  0  0
   -1.5358   11.9873   -2.6270 H   0  0  0  0  0  0  0  0  0  0  0  0
    1.5251   12.6491   -0.0787 H   0  0  0  0  0  0  0  0  0  0  0  0
    2.4830   10.3046   -1.8334 H   0  0  0  0  0  0  0  0  0  0  0  0
    3.4028   11.1060   -0.4834 H   0  0  0  0  0  0  0  0  0  0  0  0
    2.4222    8.9416    0.2070 H   0  0  0  0  0  0  0  0  0  0  0  0
    1.7573   10.3450    1.1309 H   0  0  0  0  0  0  0  0  0  0  0  0
   -0.0489    8.8702    0.5665 H   0  0  0  0  0  0  0  0  0  0  0  0
   -0.3080    8.0700   -1.4600 H   0  0  0  0  0  0  0  0  0  0  0  0
   -0.5496   10.6677    1.7048 H   0  0  0  0  0  0  0  0  0  0  0  0
   -0.3228   12.2913    0.9705 H   0  0  0  0  0  0  0  0  0  0  0  0
   -1.9472   11.5246    0.9705 H   0  0  0  0  0  0  0  0  0  0  0  0
   -2.5678    9.8932   -0.1772 H   0  0  0  0  0  0  0  0  0  0  0  0
   -2.3836   10.9286   -1.6334 H   0  0  0  0  0  0  0  0  0  0  0  0
   -1.7321    9.2547   -1.6334 H   0  0  0  0  0  0  0  0  0  0  0  0
    3.5980   11.6437   -2.8476 H   0  0  0  0  0  0  0  0  0  0  0  0
    2.1238   11.9605   -3.8239 H   0  0  0  0  0  0  0  0  0  0  0  0
    3.4730   13.1463   -3.8239 H   0  0  0  0  0  0  0  0  0  0  0  0
    3.8795   13.1239   -0.5372 H   0  0  0  0  0  0  0  0  0  0  0  0
    4.1309   14.2175   -2.0119 H   0  0  0  0  0  0  0  0  0  0  0  0
    2.5041   14.8137    0.4759 H   0  0  0  0  0  0  0  0  0  0  0  0
    4.0204   15.6121   -0.0985 H   0  0  0  0  0  0  0  0  0  0  0  0
    4.0605   17.0545   -2.0584 H   0  0  0  0  0  0  0  0  0  0  0  0
    3.4274   15.7014   -3.0559 H   0  0  0  0  0  0  0  0  0  0  0  0
    2.5850   17.2879   -3.0559 H   0  0  0  0  0  0  0  0  0  0  0  0
  1  2  1  0
  2  3  1  0
  3  4  1  0
  4  5  1  0
  5  6  1  0
  6  7  1  0
  7  8  1  0
  7  9  1  0
  2 10  1  0
 10 11  1  0
 11 12  1  0
 12 13  1  0
 13 14  1  1
 13 15  1  0
 15 16  1  0
 16 17  1  0
 17 18  2  0
 18 19  1  0
 19 20  1  0
 20 21  1  0
 21 22  1  0
 22 23  1  0
 22 24  1  0
 24 25  1  0
 24 26  1  0
 19 27  1  0
 27 28  1  6
 27 29  1  0
 29 30  1  0
 30 31  1  0
 31 32  1  6
  7  5  1  0
 31 10  1  0
 31 13  1  0
 27 15  1  0
 24 18  1  0
  1 33  1  0
  1 34  1  0
  1 35  1  0
  2 36  1  6
  3 37  1  0
  3 38  1  0
  4 39  1  0
  4 40  1  0
  5 41  1  6
  8 42  1  0
  8 43  1  0
  8 44  1  0
  9 45  1  0
  9 46  1  0
  9 47  1  0
 10 48  1  1
 11 49  1  0
 11 50  1  0
 12 51  1  0
 12 52  1  0
 14 53  1  0
 14 54  1  0
 14 55  1  0
 15 56  1  6
 16 57  1  0
 16 58  1  0
 17 59  1  0
 19 60  1  1
 20 61  1  0
 20 62  1  0
 21 63  1  0
 21 64  1  0
 22 65  1  1
 23 66  1  0
 25 67  1  0
 25 68  1  0
 25 69  1  0
 26 70  1  0
 26 71  1  0
 26 72  1  0
 28 73  1  0
 28 74  1  0
 28 75  1  0
 29 76  1  0
 29 77  1  0
 30 78  1  0
 30 79  1  0
 32 80  1  0
 32 81  1  0
 32 82  1  0
M  END
>  <meeko>  (6) 
{"is_sidechain": [false], "intermolecular_energy": 2.731, "internal_energy": -0.839}

$$$$
EPH_relaxed_0001_pdb2pqr_Repair_6_r2_0001_out
     RDKit          3D

 82 86  0  0  0  0  0  0  0  0999 V2000
   -5.1730    5.8260   -1.6590 C   0  0  0  0  0  0  0  0  0  0  0  0
   -5.4480    7.3290   -1.7660 C   0  0  2  0  0  0  0  0  0  0  0  0
   -5.2090    8.0590   -0.4300 C   0  0  0  0  0  0  0  0  0  0  0  0
   -4.1780    9.1880   -0.5210 C   0  0  0  0  0  0  0  0  0  0  0  0
   -2.8400    8.6820   -0.9670 C   0  0  2  0  0  0  0  0  0  0  0  0
   -1.7760    8.8990   -0.0310 O   0  0  0  0  0  0  0  0  0  0  0  0
   -1.6670    9.5890   -1.2870 C   0  0  0  0  0  0  0  0  0  0  0  0
   -1.7780   11.0770   -1.1750 C   0  0  0  0  0  0  0  0  0  0  0  0
   -0.5770    9.0650   -2.1690 C   0  0  0  0  0  0  0  0  0  0  0  0
   -6.8770    7.5630   -2.2400 C   0  0  1  0  0  0  0  0  0  0  0  0
   -7.1760    6.8790   -3.6010 C   0  0  0  0  0  0  0  0  0  0  0  0
   -8.6530    6.4100   -3.5510 C   0  0  0  0  0  0  0  0  0  0  0  0
   -9.2470    7.1250   -2.3150 C   0  0  1  0  0  0  0  0  0  0  0  0
   -9.5890    8.5650   -2.8100 C   0  0  0  0  0  0  0  0  0  0  0  0
  -10.4810    6.4360   -1.6460 C   0  0  2  0  0  0  0  0  0  0  0  0
  -11.7290    6.3210   -2.5400 C   0  0  0  0  0  0  0  0  0  0  0  0
  -12.6790    7.4690   -2.4590 C   0  0  0  0  0  0  0  0  0  0  0  0
  -12.6880    8.4110   -1.4970 C   0  0  0  0  0  0  0  0  0  0  0  0
  -11.7340    8.3230   -0.2990 C   0  0  1  0  0  0  0  0  0  0  0  0
  -12.5200    8.5950    1.0100 C   0  0  0  0  0  0  0  0  0  0  0  0
  -13.2840    9.9150    0.9700 C   0  0  0  0  0  0  0  0  0  0  0  0
  -14.2640    9.9410   -0.2000 C   0  0  2  0  0  0  0  0  0  0  0  0
  -15.2870    8.9680    0.0330 O   0  0  0  0  0  0  0  0  0  0  0  0
  -13.5870    9.6700   -1.5730 C   0  0  0  0  0  0  0  0  0  0  0  0
  -12.7020   10.8780   -1.9650 C   0  0  0  0  0  0  0  0  0  0  0  0
  -14.7050    9.5840   -2.6480 C   0  0  0  0  0  0  0  0  0  0  0  0
  -10.8460    7.0070   -0.2160 C   0  0  1  0  0  0  0  0  0  0  0  0
  -11.6310    5.8820    0.5250 C   0  0  0  0  0  0  0  0  0  0  0  0
   -9.5670    7.3030    0.6530 C   0  0  0  0  0  0  0  0  0  0  0  0
   -8.3410    7.8710   -0.0860 C   0  0  0  0  0  0  0  0  0  0  0  0
   -8.0210    7.0430   -1.3340 C   0  0  2  0  0  0  0  0  0  0  0  0
   -7.6520    5.5940   -0.8660 C   0  0  0  0  0  0  0  0  0  0  0  0
   -5.1202    5.5375   -0.5988 H   0  0  0  0  0  0  0  0  0  0  0  0
   -5.9841    5.2689   -2.1507 H   0  0  0  0  0  0  0  0  0  0  0  0
   -4.2172    5.5922   -2.1507 H   0  0  0  0  0  0  0  0  0  0  0  0
   -4.7409    7.7439   -2.4994 H   0  0  0  0  0  0  0  0  0  0  0  0
   -6.1643    8.4875   -0.0927 H   0  0  0  0  0  0  0  0  0  0  0  0
   -4.8100    7.3155    0.2756 H   0  0  0  0  0  0  0  0  0  0  0  0
   -4.5338    9.9384   -1.2423 H   0  0  0  0  0  0  0  0  0  0  0  0
   -4.0618    9.6279    0.4805 H   0  0  0  0  0  0  0  0  0  0  0  0
   -3.3107    7.8600   -1.5263 H   0  0  0  0  0  0  0  0  0  0  0  0
   -1.7994   11.3642   -0.1134 H   0  0  0  0  0  0  0  0  0  0  0  0
   -0.9124   11.5471   -1.6646 H   0  0  0  0  0  0  0  0  0  0  0  0
   -2.7037   11.4135   -1.6646 H   0  0  0  0  0  0  0  0  0  0  0  0
    0.2408    8.6719   -1.5471 H   0  0  0  0  0  0  0  0  0  0  0  0
   -0.9745    8.2596   -2.8040 H   0  0  0  0  0  0  0  0  0  0  0  0
   -0.1962    9.8785   -2.8040 H   0  0  0  0  0  0  0  0  0  0  0  0
   -6.8851    8.6627   -2.2626 H   0  0  0  0  0  0  0  0  0  0  0  0
   -7.0335    7.5947   -4.4240 H   0  0  0  0  0  0  0  0  0  0  0  0
   -6.4978    6.0304   -3.7740 H   0  0  0  0  0  0  0  0  0  0  0  0
   -9.1864    6.7080   -4.4657 H   0  0  0  0  0  0  0  0  0  0  0  0
   -8.7414    5.3157   -3.4827 H   0  0  0  0  0  0  0  0  0  0  0  0
   -9.7454    9.2234   -1.9428 H   0  0  0  0  0  0  0  0  0  0  0  0
   -8.7575    8.9508   -3.4181 H   0  0  0  0  0  0  0  0  0  0  0  0
  -10.5052    8.5358   -3.4181 H   0  0  0  0  0  0  0  0  0  0  0  0
  -10.1237    5.4063   -1.4974 H   0  0  0  0  0  0  0  0  0  0  0  0
  -11.3926    6.2312   -3.5834 H   0  0  0  0  0  0  0  0  0  0  0  0
  -12.2825    5.4419   -2.1784 H   0  0  0  0  0  0  0  0  0  0  0  0
  -13.4361    7.5527   -3.2525 H   0  0  0  0  0  0  0  0  0  0  0  0
  -10.9803    9.1096   -0.4514 H   0  0  0  0  0  0  0  0  0  0  0  0
  -13.2381    7.7766    1.1667 H   0  0  0  0  0  0  0  0  0  0  0  0
  -11.7905    8.6562    1.8310 H   0  0  0  0  0  0  0  0  0  0  0  0
  -13.8420   10.0370    1.9101 H   0  0  0  0  0  0  0  0  0  0  0  0
  -12.5624   10.7354    0.8427 H   0  0  0  0  0  0  0  0  0  0  0  0
  -14.6861   10.9554   -0.2537 H   0  0  0  0  0  0  0  0  0  0  0  0
  -15.9610    9.0780   -0.6600 H   0  0  0  0  0  0  0  0  0  0  0  0
  -12.3372   11.3760   -1.0546 H   0  0  0  0  0  0  0  0  0  0  0  0
  -11.8455   10.5274   -2.5595 H   0  0  0  0  0  0  0  0  0  0  0  0
  -13.2945   11.5890   -2.5595 H   0  0  0  0  0  0  0  0  0  0  0  0
  -15.6845    9.5087   -2.1531 H   0  0  0  0  0  0  0  0  0  0  0  0
  -14.6800   10.4867   -3.2761 H   0  0  0  0  0  0  0  0  0  0  0  0
  -14.5422    8.6957   -3.2761 H   0  0  0  0  0  0  0  0  0  0  0  0
  -11.5336    6.0216    1.6117 H   0  0  0  0  0  0  0  0  0  0  0  0
  -12.6932    5.9293    0.2430 H   0  0  0  0  0  0  0  0  0  0  0  0
  -11.2201    4.9014    0.2430 H   0  0  0  0  0  0  0  0  0  0  0  0
   -9.8528    8.0279    1.4294 H   0  0  0  0  0  0  0  0  0  0  0  0
   -9.2447    6.3226    1.0336 H   0  0  0  0  0  0  0  0  0  0  0  0
   -8.5506    8.9082   -0.3863 H   0  0  0  0  0  0  0  0  0  0  0  0
   -7.4750    7.8337    0.5912 H   0  0  0  0  0  0  0  0  0  0  0  0
   -7.6421    5.5551    0.2333 H   0  0  0  0  0  0  0  0  0  0  0  0
   -8.3978    4.8831   -1.2513 H   0  0  0  0  0  0  0  0  0  0  0  0
   -6.6571    5.3264   -1.2513 H   0  0  0  0  0  0  0  0  0  0  0  0
  1  2  1  0
  2  3  1  0
  3  4  1  0
  4  5  1  0
  5  6  1  0
  6  7  1  0
  7  8  1  0
  7  9  1  0
  2 10  1  0
 10 11  1  0
 11 12  1  0
 12 13  1  0
 13 14  1  6
 13 15  1  0
 15 16  1  0
 16 17  1  0
 17 18  2  0
 18 19  1  0
 19 20  1  0
 20 21  1  0
 21 22  1  0
 22 23  1  0
 22 24  1  0
 24 25  1  0
 24 26  1  0
 19 27  1  0
 27 28  1  1
 27 29  1  0
 29 30  1  0
 30 31  1  0
 31 32  1  1
  7  5  1  0
 31 10  1  0
 31 13  1  0
 27 15  1  0
 24 18  1  0
  1 33  1  0
  1 34  1  0
  1 35  1  0
  2 36  1  6
  3 37  1  0
  3 38  1  0
  4 39  1  0
  4 40  1  0
  5 41  1  6
  8 42  1  0
  8 43  1  0
  8 44  1  0
  9 45  1  0
  9 46  1  0
  9 47  1  0
 10 48  1  6
 11 49  1  0
 11 50  1  0
 12 51  1  0
 12 52  1  0
 14 53  1  0
 14 54  1  0
 14 55  1  0
 15 56  1  1
 16 57  1  0
 16 58  1  0
 17 59  1  0
 19 60  1  6
 20 61  1  0
 20 62  1  0
 21 63  1  0
 21 64  1  0
 22 65  1  6
 23 66  1  0
 25 67  1  0
 25 68  1  0
 25 69  1  0
 26 70  1  0
 26 71  1  0
 26 72  1  0
 28 73  1  0
 28 74  1  0
 28 75  1  0
 29 76  1  0
 29 77  1  0
 30 78  1  0
 30 79  1  0
 32 80  1  0
 32 81  1  0
 32 82  1  0
M  END
>  <meeko>  (7) 
{"is_sidechain": [false], "intermolecular_energy": 2.731, "internal_energy": -0.839}

$$$$
EPH_relaxed_0001_pdb2pqr_Repair_6_r2_0001_out
     RDKit          3D

 82 86  0  0  0  0  0  0  0  0999 V2000
    0.4400    8.7960   -2.3780 C   0  0  0  0  0  0  0  0  0  0  0  0
    1.1820    9.9400   -3.0760 C   0  0  2  0  0  0  0  0  0  0  0  0
    2.6830    9.9600   -2.7230 C   0  0  0  0  0  0  0  0  0  0  0  0
    3.5650   10.5660   -3.8170 C   0  0  0  0  0  0  0  0  0  0  0  0
    4.9610   10.8140   -3.3300 C   0  0  2  0  0  0  0  0  0  0  0  0
    5.5540   12.0290   -3.8060 O   0  0  0  0  0  0  0  0  0  0  0  0
    6.1770   10.8090   -4.2380 C   0  0  0  0  0  0  0  0  0  0  0  0
    6.0530   10.5500   -5.7070 C   0  0  0  0  0  0  0  0  0  0  0  0
    7.5230   10.5710   -3.6290 C   0  0  0  0  0  0  0  0  0  0  0  0
    0.5430   11.2740   -2.7100 C   0  0  1  0  0  0  0  0  0  0  0  0
   -0.8390   11.1060   -2.0240 C   0  0  0  0  0  0  0  0  0  0  0  0
   -0.9600   12.2430   -0.9780 C   0  0  0  0  0  0  0  0  0  0  0  0
    0.1940   13.2140   -1.3210 C   0  0  1  0  0  0  0  0  0  0  0  0
   -0.3460   14.0760   -2.5050 C   0  0  0  0  0  0  0  0  0  0  0  0
    0.7180   14.1070   -0.1500 C   0  0  2  0  0  0  0  0  0  0  0  0
   -0.3150   15.0840    0.4380 C   0  0  0  0  0  0  0  0  0  0  0  0
   -0.3520   16.4330   -0.2000 C   0  0  0  0  0  0  0  0  0  0  0  0
    0.5960   16.9430   -1.0080 C   0  0  0  0  0  0  0  0  0  0  0  0
    1.8980   16.1760   -1.2750 C   0  0  1  0  0  0  0  0  0  0  0  0
    3.1050   17.1410   -1.1340 C   0  0  0  0  0  0  0  0  0  0  0  0
    2.9680   18.3810   -2.0120 C   0  0  0  0  0  0  0  0  0  0  0  0
    1.6910   19.1480   -1.6770 C   0  0  2  0  0  0  0  0  0  0  0  0
    1.8090   19.6830   -0.3550 O   0  0  0  0  0  0  0  0  0  0  0  0
    0.4090   18.2750   -1.7750 C   0  0  0  0  0  0  0  0  0  0  0  0
    0.1160   17.9450   -3.2590 C   0  0  0  0  0  0  0  0  0  0  0  0
   -0.7890   19.1280   -1.2760 C   0  0  0  0  0  0  0  0  0  0  0  0
    2.0920   14.8310   -0.4510 C   0  0  1  0  0  0  0  0  0  0  0  0
    2.7430   15.1430    0.9310 C   0  0  0  0  0  0  0  0  0  0  0  0
    3.1040   13.9000   -1.2180 C   0  0  0  0  0  0  0  0  0  0  0  0
    2.5100   12.9550   -2.2800 C   0  0  0  0  0  0  0  0  0  0  0  0
    1.3120   12.1830   -1.7180 C   0  0  2  0  0  0  0  0  0  0  0  0
    1.8290   11.2900   -0.5390 C   0  0  0  0  0  0  0  0  0  0  0  0
    0.5195    8.9186   -1.2878 H   0  0  0  0  0  0  0  0  0  0  0  0
   -0.6197    8.8127   -2.6725 H   0  0  0  0  0  0  0  0  0  0  0  0
    0.8873    7.8352   -2.6725 H   0  0  0  0  0  0  0  0  0  0  0  0
    1.1004    9.7739   -4.1603 H   0  0  0  0  0  0  0  0  0  0  0  0
    2.8156   10.5496   -1.8039 H   0  0  0  0  0  0  0  0  0  0  0  0
    2.9979    8.9133   -2.5997 H   0  0  0  0  0  0  0  0  0  0  0  0
    3.6029    9.8719   -4.6695 H   0  0  0  0  0  0  0  0  0  0  0  0
    3.1288   11.5313   -4.1136 H   0  0  0  0  0  0  0  0  0  0  0  0
    4.7465   10.3007   -2.3810 H   0  0  0  0  0  0  0  0  0  0  0  0
    5.5831    9.5685   -5.8679 H   0  0  0  0  0  0  0  0  0  0  0  0
    5.4323   11.3334   -6.1663 H   0  0  0  0  0  0  0  0  0  0  0  0
    7.0525   10.5577   -6.1663 H   0  0  0  0  0  0  0  0  0  0  0  0
    7.4372   10.5862   -2.5325 H   0  0  0  0  0  0  0  0  0  0  0  0
    7.9042    9.5915   -3.9534 H   0  0  0  0  0  0  0  0  0  0  0  0
    8.2170   11.3604   -3.9534 H   0  0  0  0  0  0  0  0  0  0  0  0
    0.5133   11.7431   -3.7045 H   0  0  0  0  0  0  0  0  0  0  0  0
   -1.6442   11.1892   -2.7688 H   0  0  0  0  0  0  0  0  0  0  0  0
   -0.9254   10.1189   -1.5463 H   0  0  0  0  0  0  0  0  0  0  0  0
   -1.9325   12.7494   -1.0658 H   0  0  0  0  0  0  0  0  0  0  0  0
   -0.8967   11.8683    0.0543 H   0  0  0  0  0  0  0  0  0  0  0  0
   -0.8905   14.9451   -2.1073 H   0  0  0  0  0  0  0  0  0  0  0  0
    0.4971   14.4220   -3.1210 H   0  0  0  0  0  0  0  0  0  0  0  0
   -1.0252   13.4684   -3.1210 H   0  0  0  0  0  0  0  0  0  0  0  0
    0.9139   13.3675    0.6404 H   0  0  0  0  0  0  0  0  0  0  0  0
   -1.3113   14.6301    0.3313 H   0  0  0  0  0  0  0  0  0  0  0  0
   -0.0162   15.2500    1.4835 H   0  0  0  0  0  0  0  0  0  0  0  0
   -1.2287   17.0640    0.0079 H   0  0  0  0  0  0  0  0  0  0  0  0
    1.8300   15.8119   -2.3108 H   0  0  0  0  0  0  0  0  0  0  0  0
    3.1813   17.4592   -0.0838 H   0  0  0  0  0  0  0  0  0  0  0  0
    4.0054   16.5993   -1.4592 H   0  0  0  0  0  0  0  0  0  0  0  0
    3.8356   19.0367   -1.8469 H   0  0  0  0  0  0  0  0  0  0  0  0
    2.9210   18.0631   -3.0640 H   0  0  0  0  0  0  0  0  0  0  0  0
    1.5819   19.9499   -2.4221 H   0  0  0  0  0  0  0  0  0  0  0  0
    2.6150   20.2260   -0.3280 H   0  0  0  0  0  0  0  0  0  0  0  0
   -0.6134   17.1235   -3.3148 H   0  0  0  0  0  0  0  0  0  0  0  0
   -0.2950   18.8348   -3.7583 H   0  0  0  0  0  0  0  0  0  0  0  0
    1.0482   17.6422   -3.7583 H   0  0  0  0  0  0  0  0  0  0  0  0
   -0.8004   19.1361   -0.1761 H   0  0  0  0  0  0  0  0  0  0  0  0
   -0.6866   20.1577   -1.6492 H   0  0  0  0  0  0  0  0  0  0  0  0
   -1.7285   18.6944   -1.6492 H   0  0  0  0  0  0  0  0  0  0  0  0
    2.0671   14.8191    1.7362 H   0  0  0  0  0  0  0  0  0  0  0  0
    3.6987   14.6051    1.0159 H   0  0  0  0  0  0  0  0  0  0  0  0
    2.9224   16.2249    1.0159 H   0  0  0  0  0  0  0  0  0  0  0  0
    3.8365   14.5481   -1.7215 H   0  0  0  0  0  0  0  0  0  0  0  0
    3.5269   13.2382   -0.4479 H   0  0  0  0  0  0  0  0  0  0  0  0
    2.1817   13.5481   -3.1463 H   0  0  0  0  0  0  0  0  0  0  0  0
    3.2838   12.2327   -2.5791 H   0  0  0  0  0  0  0  0  0  0  0  0
    1.5590   11.7564    0.4199 H   0  0  0  0  0  0  0  0  0  0  0  0
    1.3682   10.2933   -0.6046 H   0  0  0  0  0  0  0  0  0  0  0  0
    2.9228   11.1933   -0.6046 H   0  0  0  0  0  0  0  0  0  0  0  0
  1  2  1  0
  2  3  1  0
  3  4  1  0
  4  5  1  0
  5  6  1  0
  6  7  1  0
  7  8  1  0
  7  9  1  0
  2 10  1  0
 10 11  1  0
 11 12  1  0
 12 13  1  0
 13 14  1  6
 13 15  1  0
 15 16  1  0
 16 17  1  0
 17 18  2  0
 18 19  1  0
 19 20  1  0
 20 21  1  0
 21 22  1  0
 22 23  1  0
 22 24  1  0
 24 25  1  0
 24 26  1  0
 19 27  1  0
 27 28  1  1
 27 29  1  0
 29 30  1  0
 30 31  1  0
 31 32  1  1
  7  5  1  0
 31 10  1  0
 31 13  1  0
 27 15  1  0
 24 18  1  0
  1 33  1  0
  1 34  1  0
  1 35  1  0
  2 36  1  6
  3 37  1  0
  3 38  1  0
  4 39  1  0
  4 40  1  0
  5 41  1  1
  8 42  1  0
  8 43  1  0
  8 44  1  0
  9 45  1  0
  9 46  1  0
  9 47  1  0
 10 48  1  6
 11 49  1  0
 11 50  1  0
 12 51  1  0
 12 52  1  0
 14 53  1  0
 14 54  1  0
 14 55  1  0
 15 56  1  1
 16 57  1  0
 16 58  1  0
 17 59  1  0
 19 60  1  6
 20 61  1  0
 20 62  1  0
 21 63  1  0
 21 64  1  0
 22 65  1  6
 23 66  1  0
 25 67  1  0
 25 68  1  0
 25 69  1  0
 26 70  1  0
 26 71  1  0
 26 72  1  0
 28 73  1  0
 28 74  1  0
 28 75  1  0
 29 76  1  0
 29 77  1  0
 30 78  1  0
 30 79  1  0
 32 80  1  0
 32 81  1  0
 32 82  1  0
M  END
>  <meeko>  (8) 
{"is_sidechain": [false], "intermolecular_energy": 2.731, "internal_energy": -0.839}

$$$$
EPH_relaxed_0001_pdb2pqr_Repair_6_r2_0001_out
     RDKit          3D

 82 86  0  0  0  0  0  0  0  0999 V2000
    2.7560   19.3420   -1.5310 C   0  0  0  0  0  0  0  0  0  0  0  0
    1.4220   19.3170   -0.7800 C   0  0  2  0  0  0  0  0  0  0  0  0
    1.4520   20.1920    0.4880 C   0  0  0  0  0  0  0  0  0  0  0  0
    2.1410   19.5240    1.6810 C   0  0  0  0  0  0  0  0  0  0  0  0
    3.6330   19.6530    1.6030 C   0  0  2  0  0  0  0  0  0  0  0  0
    4.3550   18.4590    1.9300 O   0  0  0  0  0  0  0  0  0  0  0  0
    4.5430   19.5760    2.8140 C   0  0  0  0  0  0  0  0  0  0  0  0
    3.9950   19.3610    4.1900 C   0  0  0  0  0  0  0  0  0  0  0  0
    5.9050   20.1910    2.7260 C   0  0  0  0  0  0  0  0  0  0  0  0
    1.0580   17.8820   -0.4150 C   0  0  1  0  0  0  0  0  0  0  0  0
   -0.2820   17.7850    0.3620 C   0  0  0  0  0  0  0  0  0  0  0  0
   -0.9610   16.4640   -0.0830 C   0  0  0  0  0  0  0  0  0  0  0  0
    0.1460   15.6900   -0.8370 C   0  0  1  0  0  0  0  0  0  0  0  0
    1.0010   15.0200    0.2840 C   0  0  0  0  0  0  0  0  0  0  0  0
   -0.3390   14.6470   -1.8950 C   0  0  2  0  0  0  0  0  0  0  0  0
   -1.1700   13.4820   -1.3300 C   0  0  0  0  0  0  0  0  0  0  0  0
   -0.3860   12.2800   -0.9170 C   0  0  0  0  0  0  0  0  0  0  0  0
    0.8910   12.0260   -1.2560 C   0  0  0  0  0  0  0  0  0  0  0  0
    1.6510   12.9500   -2.2170 C   0  0  1  0  0  0  0  0  0  0  0  0
    2.3900   12.0960   -3.2800 C   0  0  0  0  0  0  0  0  0  0  0  0
    3.2920   11.0360   -2.6550 C   0  0  0  0  0  0  0  0  0  0  0  0
    2.4910   10.1010   -1.7530 C   0  0  2  0  0  0  0  0  0  0  0  0
    1.5890    9.3400   -2.5620 O   0  0  0  0  0  0  0  0  0  0  0  0
    1.6950   10.8500   -0.6470 C   0  0  0  0  0  0  0  0  0  0  0  0
    2.6780   11.4250    0.4020 C   0  0  0  0  0  0  0  0  0  0  0  0
    0.8210    9.8080    0.1010 C   0  0  0  0  0  0  0  0  0  0  0  0
    0.8010   14.1270   -2.8630 C   0  0  1  0  0  0  0  0  0  0  0  0
    0.0920   13.6240   -4.1570 C   0  0  0  0  0  0  0  0  0  0  0  0
    1.7760   15.2790   -3.3110 C   0  0  0  0  0  0  0  0  0  0  0  0
    2.1230   16.3460   -2.2550 C   0  0  0  0  0  0  0  0  0  0  0  0
    0.8560   16.8810   -1.5790 C   0  0  2  0  0  0  0  0  0  0  0  0
   -0.0140   17.5800   -2.6780 C   0  0  0  0  0  0  0  0  0  0  0  0
    3.5841   19.3575   -0.8071 H   0  0  0  0  0  0  0  0  0  0  0  0
    2.8380   18.4452   -2.1627 H   0  0  0  0  0  0  0  0  0  0  0  0
    2.8043   20.2412   -2.1627 H   0  0  0  0  0  0  0  0  0  0  0  0
    0.6572   19.7357   -1.4507 H   0  0  0  0  0  0  0  0  0  0  0  0
    1.9882   21.1236    0.2544 H   0  0  0  0  0  0  0  0  0  0  0  0
    0.4066   20.3710    0.7796 H   0  0  0  0  0  0  0  0  0  0  0  0
    1.7899   20.0006    2.6082 H   0  0  0  0  0  0  0  0  0  0  0  0
    1.8881   18.4535    1.6679 H   0  0  0  0  0  0  0  0  0  0  0  0
    3.5507   20.3865    0.7874 H   0  0  0  0  0  0  0  0  0  0  0  0
    4.7484   19.6566    4.9350 H   0  0  0  0  0  0  0  0  0  0  0  0
    3.0889   19.9703    4.3232 H   0  0  0  0  0  0  0  0  0  0  0  0
    3.7450   18.2981    4.3232 H   0  0  0  0  0  0  0  0  0  0  0  0
    6.2942   20.3667    3.7397 H   0  0  0  0  0  0  0  0  0  0  0  0
    6.5804   19.5105    2.1868 H   0  0  0  0  0  0  0  0  0  0  0  0
    5.8412   21.1477    2.1868 H   0  0  0  0  0  0  0  0  0  0  0  0
    1.9513   17.6074    0.1652 H   0  0  0  0  0  0  0  0  0  0  0  0
   -0.0916   17.7671    1.4452 H   0  0  0  0  0  0  0  0  0  0  0  0
   -0.9257   18.6515    0.1500 H   0  0  0  0  0  0  0  0  0  0  0  0
   -1.3081   15.8925    0.7905 H   0  0  0  0  0  0  0  0  0  0  0  0
   -1.8468   16.6415   -0.7105 H   0  0  0  0  0  0  0  0  0  0  0  0
    0.6156   15.3220    1.2690 H   0  0  0  0  0  0  0  0  0  0  0  0
    0.9410   13.9260    0.1865 H   0  0  0  0  0  0  0  0  0  0  0  0
    2.0489   15.3399    0.1865 H   0  0  0  0  0  0  0  0  0  0  0  0
   -1.0336   15.2397   -2.5084 H   0  0  0  0  0  0  0  0  0  0  0  0
   -1.7166   13.8503   -0.4493 H   0  0  0  0  0  0  0  0  0  0  0  0
   -1.8255   13.1508   -2.1489 H   0  0  0  0  0  0  0  0  0  0  0  0
   -0.8954   11.5400   -0.2822 H   0  0  0  0  0  0  0  0  0  0  0  0
    2.3825   13.4944   -1.6018 H   0  0  0  0  0  0  0  0  0  0  0  0
    1.6420   11.5945   -3.9116 H   0  0  0  0  0  0  0  0  0  0  0  0
    3.0277   12.7728   -3.8675 H   0  0  0  0  0  0  0  0  0  0  0  0
    3.7637   10.4472   -3.4555 H   0  0  0  0  0  0  0  0  0  0  0  0
    4.0571   11.5405   -2.0466 H   0  0  0  0  0  0  0  0  0  0  0  0
    3.2087    9.4473   -1.2357 H   0  0  0  0  0  0  0  0  0  0  0  0
    0.6860    9.6320   -2.3520 H   0  0  0  0  0  0  0  0  0  0  0  0
    2.3043   11.2064    1.4132 H   0  0  0  0  0  0  0  0  0  0  0  0
    3.6675   10.9633    0.2690 H   0  0  0  0  0  0  0  0  0  0  0  0
    2.7606   12.5138    0.2690 H   0  0  0  0  0  0  0  0  0  0  0  0
    0.9357    9.9448    1.1864 H   0  0  0  0  0  0  0  0  0  0  0  0
   -0.2342    9.9476   -0.1767 H   0  0  0  0  0  0  0  0  0  0  0  0
    1.1421    8.7932   -0.1767 H   0  0  0  0  0  0  0  0  0  0  0  0
   -0.7769   13.0076   -3.8830 H   0  0  0  0  0  0  0  0  0  0  0  0
   -0.2434   14.4873   -4.7505 H   0  0  0  0  0  0  0  0  0  0  0  0
    0.7960   13.0222   -4.7505 H   0  0  0  0  0  0  0  0  0  0  0  0
    2.7180   14.8111   -3.6332 H   0  0  0  0  0  0  0  0  0  0  0  0
    1.2364   15.8214   -4.1014 H   0  0  0  0  0  0  0  0  0  0  0  0
    2.7762   15.8979   -1.4918 H   0  0  0  0  0  0  0  0  0  0  0  0
    2.6332   17.1821   -2.7557 H   0  0  0  0  0  0  0  0  0  0  0  0
   -0.7849   18.1994   -2.1963 H   0  0  0  0  0  0  0  0  0  0  0  0
    0.6285   18.2159   -3.3047 H   0  0  0  0  0  0  0  0  0  0  0  0
   -0.4966   16.8156   -3.3047 H   0  0  0  0  0  0  0  0  0  0  0  0
  1  2  1  0
  2  3  1  0
  3  4  1  0
  4  5  1  0
  5  6  1  0
  6  7  1  0
  7  8  1  0
  7  9  1  0
  2 10  1  0
 10 11  1  0
 11 12  1  0
 12 13  1  0
 13 14  1  1
 13 15  1  0
 15 16  1  0
 16 17  1  0
 17 18  2  0
 18 19  1  0
 19 20  1  0
 20 21  1  0
 21 22  1  0
 22 23  1  0
 22 24  1  0
 24 25  1  0
 24 26  1  0
 19 27  1  0
 27 28  1  6
 27 29  1  0
 29 30  1  0
 30 31  1  0
 31 32  1  6
  7  5  1  0
 31 10  1  0
 31 13  1  0
 27 15  1  0
 24 18  1  0
  1 33  1  0
  1 34  1  0
  1 35  1  0
  2 36  1  6
  3 37  1  0
  3 38  1  0
  4 39  1  0
  4 40  1  0
  5 41  1  6
  8 42  1  0
  8 43  1  0
  8 44  1  0
  9 45  1  0
  9 46  1  0
  9 47  1  0
 10 48  1  1
 11 49  1  0
 11 50  1  0
 12 51  1  0
 12 52  1  0
 14 53  1  0
 14 54  1  0
 14 55  1  0
 15 56  1  6
 16 57  1  0
 16 58  1  0
 17 59  1  0
 19 60  1  1
 20 61  1  0
 20 62  1  0
 21 63  1  0
 21 64  1  0
 22 65  1  1
 23 66  1  0
 25 67  1  0
 25 68  1  0
 25 69  1  0
 26 70  1  0
 26 71  1  0
 26 72  1  0
 28 73  1  0
 28 74  1  0
 28 75  1  0
 29 76  1  0
 29 77  1  0
 30 78  1  0
 30 79  1  0
 32 80  1  0
 32 81  1  0
 32 82  1  0
M  END
>  <meeko>  (9) 
{"is_sidechain": [false], "intermolecular_energy": 2.731, "internal_energy": -0.839}

$$$$
EPH_relaxed_0001_pdb2pqr_Repair_6_r2_0001_out
     RDKit          3D

 82 86  0  0  0  0  0  0  0  0999 V2000
    3.2140   18.6900   -1.1210 C   0  0  0  0  0  0  0  0  0  0  0  0
    2.8530   17.6490   -2.1840 C   0  0  2  0  0  0  0  0  0  0  0  0
    1.4680   17.9120   -2.8070 C   0  0  0  0  0  0  0  0  0  0  0  0
    0.8150   19.2110   -2.3300 C   0  0  0  0  0  0  0  0  0  0  0  0
   -0.5850   18.9830   -1.8460 C   0  0  2  0  0  0  0  0  0  0  0  0
   -1.3730   20.1730   -1.7080 O   0  0  0  0  0  0  0  0  0  0  0  0
   -1.0910   19.4560   -0.4950 C   0  0  0  0  0  0  0  0  0  0  0  0
   -0.2020   20.1930    0.4560 C   0  0  0  0  0  0  0  0  0  0  0  0
   -2.2880   18.7800    0.0970 C   0  0  0  0  0  0  0  0  0  0  0  0
    2.8960   16.2510   -1.5790 C   0  0  1  0  0  0  0  0  0  0  0  0
    3.5380   16.2310   -0.1660 C   0  0  0  0  0  0  0  0  0  0  0  0
    2.7890   15.1470    0.6500 C   0  0  0  0  0  0  0  0  0  0  0  0
    1.9770   14.3570   -0.4030 C   0  0  1  0  0  0  0  0  0  0  0  0
    2.9990   13.3580   -1.0310 C   0  0  0  0  0  0  0  0  0  0  0  0
    0.6980   13.6240    0.1180 C   0  0  2  0  0  0  0  0  0  0  0  0
    0.9560   12.5260    1.1650 C   0  0  0  0  0  0  0  0  0  0  0  0
    1.1740   11.1570    0.6120 C   0  0  0  0  0  0  0  0  0  0  0  0
    0.8850   10.7640   -0.6420 C   0  0  0  0  0  0  0  0  0  0  0  0
    0.1870   11.7140   -1.6240 C   0  0  1  0  0  0  0  0  0  0  0  0
   -0.9700   10.9650   -2.3350 C   0  0  0  0  0  0  0  0  0  0  0  0
   -0.5080    9.6740   -3.0030 C   0  0  0  0  0  0  0  0  0  0  0  0
    0.1280    8.7310   -1.9840 C   0  0  2  0  0  0  0  0  0  0  0  0
   -0.8810    8.2920   -1.0690 O   0  0  0  0  0  0  0  0  0  0  0  0
    1.3010    9.3800   -1.1980 C   0  0  0  0  0  0  0  0  0  0  0  0
    2.5130    9.5790   -2.1410 C   0  0  0  0  0  0  0  0  0  0  0  0
    1.7590    8.3730   -0.1080 C   0  0  0  0  0  0  0  0  0  0  0  0
   -0.2690   13.1150   -1.0270 C   0  0  1  0  0  0  0  0  0  0  0  0
   -1.6850   12.9860   -0.3880 C   0  0  0  0  0  0  0  0  0  0  0  0
   -0.4040   14.1550   -2.2020 C   0  0  0  0  0  0  0  0  0  0  0  0
    0.8670   14.9340   -2.5900 C   0  0  0  0  0  0  0  0  0  0  0  0
    1.5430   15.5320   -1.3530 C   0  0  2  0  0  0  0  0  0  0  0  0
    0.5470   16.5580   -0.7130 C   0  0  0  0  0  0  0  0  0  0  0  0
    3.0645   18.2590   -0.1201 H   0  0  0  0  0  0  0  0  0  0  0  0
    4.2670   18.9852   -1.2396 H   0  0  0  0  0  0  0  0  0  0  0  0
    2.5699   19.5737   -1.2396 H   0  0  0  0  0  0  0  0  0  0  0  0
    3.5974   17.7274   -2.9900 H   0  0  0  0  0  0  0  0  0  0  0  0
    1.5827   17.9620   -3.8999 H   0  0  0  0  0  0  0  0  0  0  0  0
    0.8118   17.0877   -2.4909 H   0  0  0  0  0  0  0  0  0  0  0  0
    1.4130   19.6292   -1.5069 H   0  0  0  0  0  0  0  0  0  0  0  0
    0.7743   19.9068   -3.1810 H   0  0  0  0  0  0  0  0  0  0  0  0
   -0.6238   18.0047   -2.3475 H   0  0  0  0  0  0  0  0  0  0  0  0
   -0.4917   19.9529    1.4896 H   0  0  0  0  0  0  0  0  0  0  0  0
    0.8429   19.8926    0.2888 H   0  0  0  0  0  0  0  0  0  0  0  0
   -0.3035   21.2755    0.2888 H   0  0  0  0  0  0  0  0  0  0  0  0
   -2.2241   18.8161    1.1945 H   0  0  0  0  0  0  0  0  0  0  0  0
   -3.2015   19.2956   -0.2342 H   0  0  0  0  0  0  0  0  0  0  0  0
   -2.3182   17.7315   -0.2342 H   0  0  0  0  0  0  0  0  0  0  0  0
    3.4728   15.7308   -2.3579 H   0  0  0  0  0  0  0  0  0  0  0  0
    4.6064   15.9795   -0.2389 H   0  0  0  0  0  0  0  0  0  0  0  0
    3.4580   17.2155    0.3182 H   0  0  0  0  0  0  0  0  0  0  0  0
    3.5023   14.4870    1.1654 H   0  0  0  0  0  0  0  0  0  0  0  0
    2.1477   15.5817    1.4309 H   0  0  0  0  0  0  0  0  0  0  0  0
    3.5374   12.8317   -0.2290 H   0  0  0  0  0  0  0  0  0  0  0  0
    2.4621   12.6269   -1.6532 H   0  0  0  0  0  0  0  0  0  0  0  0
    3.7177   13.9114   -1.6532 H   0  0  0  0  0  0  0  0  0  0  0  0
    0.1670   14.4263    0.6512 H   0  0  0  0  0  0  0  0  0  0  0  0
    1.8511   12.8073    1.7391 H   0  0  0  0  0  0  0  0  0  0  0  0
    0.0425   12.4661    1.7749 H   0  0  0  0  0  0  0  0  0  0  0  0
    1.6080   10.4050    1.2873 H   0  0  0  0  0  0  0  0  0  0  0  0
    0.9506   12.0058   -2.3601 H   0  0  0  0  0  0  0  0  0  0  0  0
   -1.7417   10.7201   -1.5903 H   0  0  0  0  0  0  0  0  0  0  0  0
   -1.3620   11.6262   -3.1219 H   0  0  0  0  0  0  0  0  0  0  0  0
   -1.3745    9.1762   -3.4627 H   0  0  0  0  0  0  0  0  0  0  0  0
    0.2423    9.9229   -3.7679 H   0  0  0  0  0  0  0  0  0  0  0  0
    0.5548    7.8833   -2.5402 H   0  0  0  0  0  0  0  0  0  0  0  0
   -0.8270    8.8570   -0.2800 H   0  0  0  0  0  0  0  0  0  0  0  0
    3.4232    9.7285   -1.5417 H   0  0  0  0  0  0  0  0  0  0  0  0
    2.6339    8.6887   -2.7756 H   0  0  0  0  0  0  0  0  0  0  0  0
    2.3429   10.4612   -2.7756 H   0  0  0  0  0  0  0  0  0  0  0  0
    1.5658    8.7978    0.8881 H   0  0  0  0  0  0  0  0  0  0  0  0
    1.2003    7.4321   -0.2200 H   0  0  0  0  0  0  0  0  0  0  0  0
    2.8354    8.1758   -0.2200 H   0  0  0  0  0  0  0  0  0  0  0  0
   -1.5947   12.9942    0.7083 H   0  0  0  0  0  0  0  0  0  0  0  0
   -2.3112   13.8308   -0.7107 H   0  0  0  0  0  0  0  0  0  0  0  0
   -2.1483   12.0419   -0.7107 H   0  0  0  0  0  0  0  0  0  0  0  0
   -0.7438   13.6075   -3.0935 H   0  0  0  0  0  0  0  0  0  0  0  0
   -1.1067   14.9165   -1.8328 H   0  0  0  0  0  0  0  0  0  0  0  0
    1.5697   14.2504   -3.0889 H   0  0  0  0  0  0  0  0  0  0  0  0
    0.5828   15.7545   -3.2652 H   0  0  0  0  0  0  0  0  0  0  0  0
    0.6090   16.4941    0.3834 H   0  0  0  0  0  0  0  0  0  0  0  0
    0.8108   17.5757   -1.0365 H   0  0  0  0  0  0  0  0  0  0  0  0
   -0.4781   16.3245   -1.0365 H   0  0  0  0  0  0  0  0  0  0  0  0
  1  2  1  0
  2  3  1  0
  3  4  1  0
  4  5  1  0
  5  6  1  0
  6  7  1  0
  7  8  1  0
  7  9  1  0
  2 10  1  0
 10 11  1  0
 11 12  1  0
 12 13  1  0
 13 14  1  6
 13 15  1  0
 15 16  1  0
 16 17  1  0
 17 18  2  0
 18 19  1  0
 19 20  1  0
 20 21  1  0
 21 22  1  0
 22 23  1  0
 22 24  1  0
 24 25  1  0
 24 26  1  0
 19 27  1  0
 27 28  1  1
 27 29  1  0
 29 30  1  0
 30 31  1  0
 31 32  1  1
  7  5  1  0
 31 10  1  0
 31 13  1  0
 27 15  1  0
 24 18  1  0
  1 33  1  0
  1 34  1  0
  1 35  1  0
  2 36  1  6
  3 37  1  0
  3 38  1  0
  4 39  1  0
  4 40  1  0
  5 41  1  6
  8 42  1  0
  8 43  1  0
  8 44  1  0
  9 45  1  0
  9 46  1  0
  9 47  1  0
 10 48  1  6
 11 49  1  0
 11 50  1  0
 12 51  1  0
 12 52  1  0
 14 53  1  0
 14 54  1  0
 14 55  1  0
 15 56  1  1
 16 57  1  0
 16 58  1  0
 17 59  1  0
 19 60  1  6
 20 61  1  0
 20 62  1  0
 21 63  1  0
 21 64  1  0
 22 65  1  6
 23 66  1  0
 25 67  1  0
 25 68  1  0
 25 69  1  0
 26 70  1  0
 26 71  1  0
 26 72  1  0
 28 73  1  0
 28 74  1  0
 28 75  1  0
 29 76  1  0
 29 77  1  0
 30 78  1  0
 30 79  1  0
 32 80  1  0
 32 81  1  0
 32 82  1  0
M  END
>  <meeko>  (10) 
{"is_sidechain": [false], "intermolecular_energy": 2.731, "internal_energy": -0.839}

$$$$
EPH_relaxed_0001_pdb2pqr_Repair_6_r2_0001_out
     RDKit          3D

 82 86  0  0  0  0  0  0  0  0999 V2000
   -1.0460   20.1460   -2.1660 C   0  0  0  0  0  0  0  0  0  0  0  0
   -0.4750   19.2840   -1.0370 C   0  0  2  0  0  0  0  0  0  0  0  0
    0.4290   20.0940   -0.0880 C   0  0  0  0  0  0  0  0  0  0  0  0
    1.9220   19.8040   -0.2630 C   0  0  0  0  0  0  0  0  0  0  0  0
    2.6950   20.0980    0.9870 C   0  0  2  0  0  0  0  0  0  0  0  0
    4.1140   20.1940    0.8060 O   0  0  0  0  0  0  0  0  0  0  0  0
    3.6520   19.1120    1.6310 C   0  0  0  0  0  0  0  0  0  0  0  0
    3.8870   17.7560    1.0430 C   0  0  0  0  0  0  0  0  0  0  0  0
    3.9820   19.2780    3.0810 C   0  0  0  0  0  0  0  0  0  0  0  0
    0.3020   18.1100   -1.6210 C   0  0  1  0  0  0  0  0  0  0  0  0
    1.7790   18.4680   -1.9330 C   0  0  0  0  0  0  0  0  0  0  0  0
    2.6180   17.1950   -1.6470 C   0  0  0  0  0  0  0  0  0  0  0  0
    1.5730   16.0640   -1.5030 C   0  0  1  0  0  0  0  0  0  0  0  0
    1.2200   15.6550   -2.9680 C   0  0  0  0  0  0  0  0  0  0  0  0
    2.0050   14.8290   -0.6470 C   0  0  2  0  0  0  0  0  0  0  0  0
    3.2080   14.0420   -1.1980 C   0  0  0  0  0  0  0  0  0  0  0  0
    2.8670   12.9250   -2.1270 C   0  0  0  0  0  0  0  0  0  0  0  0
    1.6450   12.3840   -2.2850 C   0  0  0  0  0  0  0  0  0  0  0  0
    0.4660   12.8320   -1.4110 C   0  0  1  0  0  0  0  0  0  0  0  0
   -0.2950   11.5850   -0.8880 C   0  0  0  0  0  0  0  0  0  0  0  0
   -0.7250   10.6480   -2.0120 C   0  0  0  0  0  0  0  0  0  0  0  0
    0.4800   10.1780   -2.8220 C   0  0  2  0  0  0  0  0  0  0  0  0
    1.2990    9.3500   -1.9910 O   0  0  0  0  0  0  0  0  0  0  0  0
    1.3290   11.3490   -3.3930 C   0  0  0  0  0  0  0  0  0  0  0  0
    0.5400   12.0650   -4.5170 C   0  0  0  0  0  0  0  0  0  0  0  0
    2.5890   10.7400   -4.0660 C   0  0  0  0  0  0  0  0  0  0  0  0
    0.8140   13.8640   -0.2540 C   0  0  1  0  0  0  0  0  0  0  0  0
    1.2680   13.0960    1.0260 C   0  0  0  0  0  0  0  0  0  0  0  0
   -0.4900   14.6530    0.1410 C   0  0  0  0  0  0  0  0  0  0  0  0
   -0.7990   15.9310   -0.6630 C   0  0  0  0  0  0  0  0  0  0  0  0
    0.4330   16.8380   -0.7460 C   0  0  2  0  0  0  0  0  0  0  0  0
    0.7980   17.2830    0.7110 C   0  0  0  0  0  0  0  0  0  0  0  0
   -1.6051   20.9901   -1.7360 H   0  0  0  0  0  0  0  0  0  0  0  0
   -0.2228   20.5296   -2.7866 H   0  0  0  0  0  0  0  0  0  0  0  0
   -1.7203   19.5377   -2.7866 H   0  0  0  0  0  0  0  0  0  0  0  0
   -1.3236   18.9104   -0.4451 H   0  0  0  0  0  0  0  0  0  0  0  0
    0.2589   21.1644   -0.2758 H   0  0  0  0  0  0  0  0  0  0  0  0
    0.1627   19.8002    0.9381 H   0  0  0  0  0  0  0  0  0  0  0  0
    2.0510   18.7423   -0.5203 H   0  0  0  0  0  0  0  0  0  0  0  0
    2.3055   20.4535   -1.0636 H   0  0  0  0  0  0  0  0  0  0  0  0
    1.8593   20.6873    1.3924 H   0  0  0  0  0  0  0  0  0  0  0  0
    4.0142   17.0223    1.8526 H   0  0  0  0  0  0  0  0  0  0  0  0
    3.0248   17.4711    0.4221 H   0  0  0  0  0  0  0  0  0  0  0  0
    4.7947   17.7779    0.4221 H   0  0  0  0  0  0  0  0  0  0  0  0
    3.1651   18.8671    3.6923 H   0  0  0  0  0  0  0  0  0  0  0  0
    4.9154   18.7421    3.3083 H   0  0  0  0  0  0  0  0  0  0  0  0
    4.1082   20.3468    3.3083 H   0  0  0  0  0  0  0  0  0  0  0  0
   -0.3201   17.8973   -2.5029 H   0  0  0  0  0  0  0  0  0  0  0  0
    1.8830   18.7611   -2.9881 H   0  0  0  0  0  0  0  0  0  0  0  0
    2.1196   19.3124   -1.3158 H   0  0  0  0  0  0  0  0  0  0  0  0
    3.3038   16.9863   -2.4813 H   0  0  0  0  0  0  0  0  0  0  0  0
    3.2446   17.3011   -0.7492 H   0  0  0  0  0  0  0  0  0  0  0  0
    0.5013   14.8223   -2.9532 H   0  0  0  0  0  0  0  0  0  0  0  0
    0.7751   16.5141   -3.4914 H   0  0  0  0  0  0  0  0  0  0  0  0
    2.1349   15.3404   -3.4914 H   0  0  0  0  0  0  0  0  0  0  0  0
    2.3558   15.2982    0.2840 H   0  0  0  0  0  0  0  0  0  0  0  0
    3.8571   14.7471   -1.7379 H   0  0  0  0  0  0  0  0  0  0  0  0
    3.6921   13.5765   -0.3269 H   0  0  0  0  0  0  0  0  0  0  0  0
    3.6841   12.5084   -2.7343 H   0  0  0  0  0  0  0  0  0  0  0  0
   -0.1913   13.4221   -2.0666 H   0  0  0  0  0  0  0  0  0  0  0  0
    0.3631   11.0328   -0.2010 H   0  0  0  0  0  0  0  0  0  0  0  0
   -1.2052   11.9378   -0.3809 H   0  0  0  0  0  0  0  0  0  0  0  0
   -1.2301    9.7727   -1.5775 H   0  0  0  0  0  0  0  0  0  0  0  0
   -1.4069   11.1929   -2.6815 H   0  0  0  0  0  0  0  0  0  0  0  0
    0.0976    9.6172   -3.6876 H   0  0  0  0  0  0  0  0  0  0  0  0
    2.0210    9.9020   -1.6460 H   0  0  0  0  0  0  0  0  0  0  0  0
   -0.2042   12.7403   -4.0696 H   0  0  0  0  0  0  0  0  0  0  0  0
    1.2355   12.6467   -5.1398 H   0  0  0  0  0  0  0  0  0  0  0  0
    0.0283   11.3165   -5.1398 H   0  0  0  0  0  0  0  0  0  0  0  0
    3.2912   10.4006   -3.2903 H   0  0  0  0  0  0  0  0  0  0  0  0
    2.2933    9.8854   -4.6922 H   0  0  0  0  0  0  0  0  0  0  0  0
    3.0750   11.5026   -4.6922 H   0  0  0  0  0  0  0  0  0  0  0  0
    0.9417   13.6479    1.9198 H   0  0  0  0  0  0  0  0  0  0  0  0
    0.8180   12.0923    1.0303 H   0  0  0  0  0  0  0  0  0  0  0  0
    2.3643   13.0064    1.0303 H   0  0  0  0  0  0  0  0  0  0  0  0
   -1.3427   13.9688    0.0192 H   0  0  0  0  0  0  0  0  0  0  0  0
   -0.3179   14.9959    1.1719 H   0  0  0  0  0  0  0  0  0  0  0  0
   -1.1082   15.6500   -1.6806 H   0  0  0  0  0  0  0  0  0  0  0  0
   -1.6048   16.4797   -0.1534 H   0  0  0  0  0  0  0  0  0  0  0  0
    0.2717   16.6414    1.4330 H   0  0  0  0  0  0  0  0  0  0  0  0
    1.8837   17.1905    0.8615 H   0  0  0  0  0  0  0  0  0  0  0  0
    0.4949   18.3296    0.8615 H   0  0  0  0  0  0  0  0  0  0  0  0
  1  2  1  0
  2  3  1  0
  3  4  1  0
  4  5  1  0
  5  6  1  0
  6  7  1  0
  7  8  1  0
  7  9  1  0
  2 10  1  0
 10 11  1  0
 11 12  1  0
 12 13  1  0
 13 14  1  6
 13 15  1  0
 15 16  1  0
 16 17  1  0
 17 18  2  0
 18 19  1  0
 19 20  1  0
 20 21  1  0
 21 22  1  0
 22 23  1  0
 22 24  1  0
 24 25  1  0
 24 26  1  0
 19 27  1  0
 27 28  1  1
 27 29  1  0
 29 30  1  0
 30 31  1  0
 31 32  1  1
  7  5  1  0
 31 10  1  0
 31 13  1  0
 27 15  1  0
 24 18  1  0
  1 33  1  0
  1 34  1  0
  1 35  1  0
  2 36  1  1
  3 37  1  0
  3 38  1  0
  4 39  1  0
  4 40  1  0
  5 41  1  1
  8 42  1  0
  8 43  1  0
  8 44  1  0
  9 45  1  0
  9 46  1  0
  9 47  1  0
 10 48  1  6
 11 49  1  0
 11 50  1  0
 12 51  1  0
 12 52  1  0
 14 53  1  0
 14 54  1  0
 14 55  1  0
 15 56  1  1
 16 57  1  0
 16 58  1  0
 17 59  1  0
 19 60  1  6
 20 61  1  0
 20 62  1  0
 21 63  1  0
 21 64  1  0
 22 65  1  6
 23 66  1  0
 25 67  1  0
 25 68  1  0
 25 69  1  0
 26 70  1  0
 26 71  1  0
 26 72  1  0
 28 73  1  0
 28 74  1  0
 28 75  1  0
 29 76  1  0
 29 77  1  0
 30 78  1  0
 30 79  1  0
 32 80  1  0
 32 81  1  0
 32 82  1  0
M  END
>  <meeko>  (11) 
{"is_sidechain": [false], "intermolecular_energy": 2.731, "internal_energy": -0.839}

$$$$
EPH_relaxed_0001_pdb2pqr_Repair_6_r2_0001_out
     RDKit          3D

 82 86  0  0  0  0  0  0  0  0999 V2000
   -0.9620   16.4160   -5.8980 C   0  0  0  0  0  0  0  0  0  0  0  0
    0.1460   15.7230   -6.6960 C   0  0  2  0  0  0  0  0  0  0  0  0
   -0.2430   15.5220   -8.1750 C   0  0  0  0  0  0  0  0  0  0  0  0
    0.4130   16.5270   -9.1250 C   0  0  0  0  0  0  0  0  0  0  0  0
    1.8210   16.1370   -9.4580 C   0  0  2  0  0  0  0  0  0  0  0  0
    2.3230   16.6930  -10.6810 O   0  0  0  0  0  0  0  0  0  0  0  0
    2.1890   15.2630  -10.6430 C   0  0  0  0  0  0  0  0  0  0  0  0
    1.1450   14.7240  -11.5690 C   0  0  0  0  0  0  0  0  0  0  0  0
    3.4970   14.5350  -10.6160 C   0  0  0  0  0  0  0  0  0  0  0  0
    0.4820   14.3790   -6.0590 C   0  0  1  0  0  0  0  0  0  0  0  0
    1.6850   13.6780   -6.7450 C   0  0  0  0  0  0  0  0  0  0  0  0
    2.4600   12.9280   -5.6310 C   0  0  0  0  0  0  0  0  0  0  0  0
    1.5060   12.9440   -4.4140 C   0  0  1  0  0  0  0  0  0  0  0  0
    0.5020   11.7780   -4.6760 C   0  0  0  0  0  0  0  0  0  0  0  0
    2.1780   12.8220   -3.0080 C   0  0  2  0  0  0  0  0  0  0  0  0
    2.9390   11.5080   -2.7600 C   0  0  0  0  0  0  0  0  0  0  0  0
    2.1300   10.4070   -2.1580 C   0  0  0  0  0  0  0  0  0  0  0  0
    0.9290   10.5510   -1.5680 C   0  0  0  0  0  0  0  0  0  0  0  0
    0.3080   11.9400   -1.3750 C   0  0  1  0  0  0  0  0  0  0  0  0
   -0.2320   12.0690    0.0740 C   0  0  0  0  0  0  0  0  0  0  0  0
   -1.1940   10.9440    0.4420 C   0  0  0  0  0  0  0  0  0  0  0  0
   -0.5220    9.5820    0.2930 C   0  0  2  0  0  0  0  0  0  0  0  0
    0.5150    9.4700    1.2730 O   0  0  0  0  0  0  0  0  0  0  0  0
    0.0690    9.3420   -1.1240 C   0  0  0  0  0  0  0  0  0  0  0  0
   -1.0810    9.1630   -2.1450 C   0  0  0  0  0  0  0  0  0  0  0  0
    0.8400    7.9940   -1.0980 C   0  0  0  0  0  0  0  0  0  0  0  0
    1.2190   13.1720   -1.7980 C   0  0  1  0  0  0  0  0  0  0  0  0
    2.1370   13.5890   -0.6090 C   0  0  0  0  0  0  0  0  0  0  0  0
    0.2980   14.4110   -2.1040 C   0  0  0  0  0  0  0  0  0  0  0  0
   -0.2380   14.5410   -3.5430 C   0  0  0  0  0  0  0  0  0  0  0  0
    0.8920   14.3830   -4.5650 C   0  0  2  0  0  0  0  0  0  0  0  0
    1.9070   15.5560   -4.3410 C   0  0  0  0  0  0  0  0  0  0  0  0
   -0.7691   16.2953   -4.8218 H   0  0  0  0  0  0  0  0  0  0  0  0
   -0.9802   17.4867   -6.1495 H   0  0  0  0  0  0  0  0  0  0  0  0
   -1.9327   15.9638   -6.1495 H   0  0  0  0  0  0  0  0  0  0  0  0
    1.0299   16.3773   -6.6726 H   0  0  0  0  0  0  0  0  0  0  0  0
    0.0585   14.5087   -8.4789 H   0  0  0  0  0  0  0  0  0  0  0  0
   -1.3301   15.6748   -8.2455 H   0  0  0  0  0  0  0  0  0  0  0  0
   -0.1733   16.5740  -10.0546 H   0  0  0  0  0  0  0  0  0  0  0  0
    0.4376   17.5063   -8.6246 H   0  0  0  0  0  0  0  0  0  0  0  0
    2.0834   16.0825   -8.3911 H   0  0  0  0  0  0  0  0  0  0  0  0
    0.3187   14.2974  -10.9814 H   0  0  0  0  0  0  0  0  0  0  0  0
    0.7623   15.5372  -12.2032 H   0  0  0  0  0  0  0  0  0  0  0  0
    1.5863   13.9411  -12.2032 H   0  0  0  0  0  0  0  0  0  0  0  0
    3.8010   14.3658   -9.5725 H   0  0  0  0  0  0  0  0  0  0  0  0
    3.3887   13.5674  -11.1278 H   0  0  0  0  0  0  0  0  0  0  0  0
    4.2623   15.1369  -11.1278 H   0  0  0  0  0  0  0  0  0  0  0  0
   -0.4847   13.8688   -6.1824 H   0  0  0  0  0  0  0  0  0  0  0  0
    1.3266   12.9656   -7.5026 H   0  0  0  0  0  0  0  0  0  0  0  0
    2.3315   14.4092   -7.2524 H   0  0  0  0  0  0  0  0  0  0  0  0
    2.6797   11.8950   -5.9387 H   0  0  0  0  0  0  0  0  0  0  0  0
    3.4290   13.3983   -5.4078 H   0  0  0  0  0  0  0  0  0  0  0  0
    0.1526   11.3722   -3.7152 H   0  0  0  0  0  0  0  0  0  0  0  0
   -0.3577   12.1561   -5.2487 H   0  0  0  0  0  0  0  0  0  0  0  0
    1.0035   10.9840   -5.2487 H   0  0  0  0  0  0  0  0  0  0  0  0
    2.9455   13.6091   -3.0449 H   0  0  0  0  0  0  0  0  0  0  0  0
    3.3298   11.1540   -3.7254 H   0  0  0  0  0  0  0  0  0  0  0  0
    3.7244   11.7446   -2.0271 H   0  0  0  0  0  0  0  0  0  0  0  0
    2.5514    9.3918   -2.2003 H   0  0  0  0  0  0  0  0  0  0  0  0
   -0.5246   12.0027   -2.0911 H   0  0  0  0  0  0  0  0  0  0  0  0
    0.6190   12.0473    0.7707 H   0  0  0  0  0  0  0  0  0  0  0  0
   -0.7858   13.0171    0.1408 H   0  0  0  0  0  0  0  0  0  0  0  0
   -1.5175   11.0737    1.4853 H   0  0  0  0  0  0  0  0  0  0  0  0
   -2.0588   10.9852   -0.2365 H   0  0  0  0  0  0  0  0  0  0  0  0
   -1.2952    8.8143    0.4437 H   0  0  0  0  0  0  0  0  0  0  0  0
    0.5540   10.3120    1.7570 H   0  0  0  0  0  0  0  0  0  0  0  0
   -2.0291    9.0154   -1.6072 H   0  0  0  0  0  0  0  0  0  0  0  0
   -1.1536   10.0607   -2.7766 H   0  0  0  0  0  0  0  0  0  0  0  0
   -0.8773    8.2857   -2.7766 H   0  0  0  0  0  0  0  0  0  0  0  0
    1.0134    7.6908   -0.0549 H   0  0  0  0  0  0  0  0  0  0  0  0
    0.2467    7.2223   -1.6103 H   0  0  0  0  0  0  0  0  0  0  0  0
    1.8060    8.1141   -1.6103 H   0  0  0  0  0  0  0  0  0  0  0  0
    1.6327   13.3599    0.3414 H   0  0  0  0  0  0  0  0  0  0  0  0
    3.0845   13.0329   -0.6647 H   0  0  0  0  0  0  0  0  0  0  0  0
    2.3415   14.6684   -0.6647 H   0  0  0  0  0  0  0  0  0  0  0  0
   -0.5694   14.3552   -1.4298 H   0  0  0  0  0  0  0  0  0  0  0  0
    0.9415   15.2909   -1.9564 H   0  0  0  0  0  0  0  0  0  0  0  0
   -0.9930   13.7604   -3.7177 H   0  0  0  0  0  0  0  0  0  0  0  0
   -0.6824   15.5400   -3.6630 H   0  0  0  0  0  0  0  0  0  0  0  0
    2.0475   15.7183   -3.2622 H   0  0  0  0  0  0  0  0  0  0  0  0
    2.8721   15.2988   -4.8018 H   0  0  0  0  0  0  0  0  0  0  0  0
    1.5138   16.4742   -4.8018 H   0  0  0  0  0  0  0  0  0  0  0  0
  1  2  1  0
  2  3  1  0
  3  4  1  0
  4  5  1  0
  5  6  1  0
  6  7  1  0
  7  8  1  0
  7  9  1  0
  2 10  1  0
 10 11  1  0
 11 12  1  0
 12 13  1  0
 13 14  1  6
 13 15  1  0
 15 16  1  0
 16 17  1  0
 17 18  2  0
 18 19  1  0
 19 20  1  0
 20 21  1  0
 21 22  1  0
 22 23  1  0
 22 24  1  0
 24 25  1  0
 24 26  1  0
 19 27  1  0
 27 28  1  1
 27 29  1  0
 29 30  1  0
 30 31  1  0
 31 32  1  6
  7  5  1  0
 31 10  1  0
 31 13  1  0
 27 15  1  0
 24 18  1  0
  1 33  1  0
  1 34  1  0
  1 35  1  0
  2 36  1  6
  3 37  1  0
  3 38  1  0
  4 39  1  0
  4 40  1  0
  5 41  1  1
  8 42  1  0
  8 43  1  0
  8 44  1  0
  9 45  1  0
  9 46  1  0
  9 47  1  0
 10 48  1  1
 11 49  1  0
 11 50  1  0
 12 51  1  0
 12 52  1  0
 14 53  1  0
 14 54  1  0
 14 55  1  0
 15 56  1  6
 16 57  1  0
 16 58  1  0
 17 59  1  0
 19 60  1  6
 20 61  1  0
 20 62  1  0
 21 63  1  0
 21 64  1  0
 22 65  1  1
 23 66  1  0
 25 67  1  0
 25 68  1  0
 25 69  1  0
 26 70  1  0
 26 71  1  0
 26 72  1  0
 28 73  1  0
 28 74  1  0
 28 75  1  0
 29 76  1  0
 29 77  1  0
 30 78  1  0
 30 79  1  0
 32 80  1  0
 32 81  1  0
 32 82  1  0
M  END
>  <meeko>  (12) 
{"is_sidechain": [false], "intermolecular_energy": 2.731, "internal_energy": -0.839}

$$$$
EPH_relaxed_0001_pdb2pqr_Repair_6_r2_0001_out
     RDKit          3D

 82 86  0  0  0  0  0  0  0  0999 V2000
   -2.3170    7.7270   -2.5400 C   0  0  0  0  0  0  0  0  0  0  0  0
   -2.3160    8.2850   -1.1140 C   0  0  2  0  0  0  0  0  0  0  0  0
   -3.7130    8.2230   -0.4660 C   0  0  0  0  0  0  0  0  0  0  0  0
   -4.8320    7.8610   -1.4470 C   0  0  0  0  0  0  0  0  0  0  0  0
   -5.9670    7.1630   -0.7600 C   0  0  2  0  0  0  0  0  0  0  0  0
   -6.5150    6.0550   -1.4850 O   0  0  0  0  0  0  0  0  0  0  0  0
   -7.3920    7.1740   -1.2800 C   0  0  0  0  0  0  0  0  0  0  0  0
   -7.7590    7.8980   -2.5380 C   0  0  0  0  0  0  0  0  0  0  0  0
   -8.5070    6.8980   -0.3200 C   0  0  0  0  0  0  0  0  0  0  0  0
   -1.8070    9.7210   -1.1180 C   0  0  1  0  0  0  0  0  0  0  0  0
   -1.4440   10.2300    0.3020 C   0  0  0  0  0  0  0  0  0  0  0  0
   -0.2250   11.1750    0.1410 C   0  0  0  0  0  0  0  0  0  0  0  0
   -0.1350   11.4400   -1.3800 C   0  0  1  0  0  0  0  0  0  0  0  0
   -1.1940   12.5530   -1.6570 C   0  0  0  0  0  0  0  0  0  0  0  0
    1.2740   11.8340   -1.9310 C   0  0  2  0  0  0  0  0  0  0  0  0
    1.8480   13.1490   -1.3750 C   0  0  0  0  0  0  0  0  0  0  0  0
    1.5090   14.3730   -2.1590 C   0  0  0  0  0  0  0  0  0  0  0  0
    1.0180   14.3890   -3.4130 C   0  0  0  0  0  0  0  0  0  0  0  0
    0.8470   13.0880   -4.2080 C   0  0  1  0  0  0  0  0  0  0  0  0
    1.4110   13.2790   -5.6400 C   0  0  0  0  0  0  0  0  0  0  0  0
    0.8010   14.4830   -6.3530 C   0  0  0  0  0  0  0  0  0  0  0  0
    1.0420   15.7650   -5.5600 C   0  0  2  0  0  0  0  0  0  0  0  0
    2.4450   16.0500   -5.5610 O   0  0  0  0  0  0  0  0  0  0  0  0
    0.5250   15.6880   -4.0970 C   0  0  0  0  0  0  0  0  0  0  0  0
   -1.0240   15.6820   -4.0920 C   0  0  0  0  0  0  0  0  0  0  0  0
    0.9560   16.9890   -3.3680 C   0  0  0  0  0  0  0  0  0  0  0  0
    1.3950   11.7710   -3.5080 C   0  0  1  0  0  0  0  0  0  0  0  0
    2.9090   11.5860   -3.8310 C   0  0  0  0  0  0  0  0  0  0  0  0
    0.6550   10.5210   -4.1150 C   0  0  0  0  0  0  0  0  0  0  0  0
   -0.6730   10.1090   -3.4510 C   0  0  0  0  0  0  0  0  0  0  0  0
   -0.5210   10.0180   -1.9300 C   0  0  2  0  0  0  0  0  0  0  0  0
    0.5220    8.8900   -1.6200 C   0  0  0  0  0  0  0  0  0  0  0  0
   -2.3190    6.6276   -2.5035 H   0  0  0  0  0  0  0  0  0  0  0  0
   -3.2145    8.0779   -3.0704 H   0  0  0  0  0  0  0  0  0  0  0  0
   -1.4182    8.0747   -3.0704 H   0  0  0  0  0  0  0  0  0  0  0  0
   -1.6446    7.6547   -0.5124 H   0  0  0  0  0  0  0  0  0  0  0  0
   -3.6923    7.4659    0.3317 H   0  0  0  0  0  0  0  0  0  0  0  0
   -3.9346    9.2303   -0.0836 H   0  0  0  0  0  0  0  0  0  0  0  0
   -5.2100    8.7831   -1.9127 H   0  0  0  0  0  0  0  0  0  0  0  0
   -4.4174    7.1787   -2.2037 H   0  0  0  0  0  0  0  0  0  0  0  0
   -5.5401    7.3900    0.2280 H   0  0  0  0  0  0  0  0  0  0  0  0
   -8.2429    8.8526   -2.2838 H   0  0  0  0  0  0  0  0  0  0  0  0
   -6.8508    8.0928   -3.1272 H   0  0  0  0  0  0  0  0  0  0  0  0
   -8.4530    7.2806   -3.1272 H   0  0  0  0  0  0  0  0  0  0  0  0
   -8.1345    6.9902    0.7109 H   0  0  0  0  0  0  0  0  0  0  0  0
   -9.3187    7.6223   -0.4827 H   0  0  0  0  0  0  0  0  0  0  0  0
   -8.8871    5.8787   -0.4827 H   0  0  0  0  0  0  0  0  0  0  0  0
   -2.6694   10.2207   -1.5834 H   0  0  0  0  0  0  0  0  0  0  0  0
   -2.2931   10.7779    0.7365 H   0  0  0  0  0  0  0  0  0  0  0  0
   -1.2075    9.3914    0.9735 H   0  0  0  0  0  0  0  0  0  0  0  0
   -0.3867   12.1144    0.6899 H   0  0  0  0  0  0  0  0  0  0  0  0
    0.6996   10.7354    0.5433 H   0  0  0  0  0  0  0  0  0  0  0  0
   -1.5696   12.9477   -0.7014 H   0  0  0  0  0  0  0  0  0  0  0  0
   -0.7286   13.3669   -2.2324 H   0  0  0  0  0  0  0  0  0  0  0  0
   -2.0300   12.1287   -2.2324 H   0  0  0  0  0  0  0  0  0  0  0  0
    1.9153   11.0352   -1.5300 H   0  0  0  0  0  0  0  0  0  0  0  0
    1.4639   13.2825   -0.3529 H   0  0  0  0  0  0  0  0  0  0  0  0
    2.9423   13.0489   -1.4241 H   0  0  0  0  0  0  0  0  0  0  0  0
    1.6743   15.3449   -1.6710 H   0  0  0  0  0  0  0  0  0  0  0  0
   -0.2358   12.9001   -4.2547 H   0  0  0  0  0  0  0  0  0  0  0  0
    2.4996   13.4224   -5.5741 H   0  0  0  0  0  0  0  0  0  0  0  0
    1.1557   12.3813   -6.2222 H   0  0  0  0  0  0  0  0  0  0  0  0
    1.2599   14.5831   -7.3477 H   0  0  0  0  0  0  0  0  0  0  0  0
   -0.2837   14.3249   -6.4446 H   0  0  0  0  0  0  0  0  0  0  0  0
    0.4726   16.5682   -6.0505 H   0  0  0  0  0  0  0  0  0  0  0  0
    2.5510   17.0040   -5.4060 H   0  0  0  0  0  0  0  0  0  0  0  0
   -1.3873   15.6806   -3.0537 H   0  0  0  0  0  0  0  0  0  0  0  0
   -1.3958   16.5787   -4.6094 H   0  0  0  0  0  0  0  0  0  0  0  0
   -1.3889   14.7824   -4.6094 H   0  0  0  0  0  0  0  0  0  0  0  0
    0.9046   16.8340   -2.2802 H   0  0  0  0  0  0  0  0  0  0  0  0
    1.9870   17.2450   -3.6536 H   0  0  0  0  0  0  0  0  0  0  0  0
    0.2818   17.8099   -3.6536 H   0  0  0  0  0  0  0  0  0  0  0  0
    3.4783   11.5164   -2.8924 H   0  0  0  0  0  0  0  0  0  0  0  0
    3.0495   10.6640   -4.4143 H   0  0  0  0  0  0  0  0  0  0  0  0
    3.2674   12.4470   -4.4143 H   0  0  0  0  0  0  0  0  0  0  0  0
    0.4444   10.7401   -5.1722 H   0  0  0  0  0  0  0  0  0  0  0  0
    1.3359    9.6737   -3.9462 H   0  0  0  0  0  0  0  0  0  0  0  0
   -1.4427   10.8571   -3.6915 H   0  0  0  0  0  0  0  0  0  0  0  0
   -0.9642    9.1198   -3.8339 H   0  0  0  0  0  0  0  0  0  0  0  0
    0.6267    8.7767   -0.5309 H   0  0  0  0  0  0  0  0  0  0  0  0
    0.1762    7.9410   -2.0558 H   0  0  0  0  0  0  0  0  0  0  0  0
    1.4951    9.1605   -2.0558 H   0  0  0  0  0  0  0  0  0  0  0  0
  1  2  1  0
  2  3  1  0
  3  4  1  0
  4  5  1  0
  5  6  1  0
  6  7  1  0
  7  8  1  0
  7  9  1  0
  2 10  1  0
 10 11  1  0
 11 12  1  0
 12 13  1  0
 13 14  1  6
 13 15  1  0
 15 16  1  0
 16 17  1  0
 17 18  2  0
 18 19  1  0
 19 20  1  0
 20 21  1  0
 21 22  1  0
 22 23  1  0
 22 24  1  0
 24 25  1  0
 24 26  1  0
 19 27  1  0
 27 28  1  1
 27 29  1  0
 29 30  1  0
 30 31  1  0
 31 32  1  6
  7  5  1  0
 31 10  1  0
 31 13  1  0
 27 15  1  0
 24 18  1  0
  1 33  1  0
  1 34  1  0
  1 35  1  0
  2 36  1  1
  3 37  1  0
  3 38  1  0
  4 39  1  0
  4 40  1  0
  5 41  1  1
  8 42  1  0
  8 43  1  0
  8 44  1  0
  9 45  1  0
  9 46  1  0
  9 47  1  0
 10 48  1  6
 11 49  1  0
 11 50  1  0
 12 51  1  0
 12 52  1  0
 14 53  1  0
 14 54  1  0
 14 55  1  0
 15 56  1  1
 16 57  1  0
 16 58  1  0
 17 59  1  0
 19 60  1  6
 20 61  1  0
 20 62  1  0
 21 63  1  0
 21 64  1  0
 22 65  1  6
 23 66  1  0
 25 67  1  0
 25 68  1  0
 25 69  1  0
 26 70  1  0
 26 71  1  0
 26 72  1  0
 28 73  1  0
 28 74  1  0
 28 75  1  0
 29 76  1  0
 29 77  1  0
 30 78  1  0
 30 79  1  0
 32 80  1  0
 32 81  1  0
 32 82  1  0
M  END
>  <meeko>  (13) 
{"is_sidechain": [false], "intermolecular_energy": 2.731, "internal_energy": -0.839}

$$$$
EPH_relaxed_0001_pdb2pqr_Repair_6_r2_0001_out
     RDKit          3D

 82 86  0  0  0  0  0  0  0  0999 V2000
    2.8270   11.3690   -5.3910 C   0  0  0  0  0  0  0  0  0  0  0  0
    1.8390   11.0590   -4.2630 C   0  0  2  0  0  0  0  0  0  0  0  0
    0.7200   10.1020   -4.7170 C   0  0  0  0  0  0  0  0  0  0  0  0
   -0.3420    9.8430   -3.6450 C   0  0  0  0  0  0  0  0  0  0  0  0
    0.2040    9.0320   -2.5090 C   0  0  2  0  0  0  0  0  0  0  0  0
   -0.6160    7.9220   -2.1180 O   0  0  0  0  0  0  0  0  0  0  0  0
   -0.4490    8.9630   -1.1410 C   0  0  0  0  0  0  0  0  0  0  0  0
   -1.7040    9.7180   -0.8360 C   0  0  0  0  0  0  0  0  0  0  0  0
    0.3900    8.5590    0.0320 C   0  0  0  0  0  0  0  0  0  0  0  0
    1.2340   12.3540   -3.7320 C   0  0  1  0  0  0  0  0  0  0  0  0
   -0.3050   12.2640   -3.5530 C   0  0  0  0  0  0  0  0  0  0  0  0
   -0.6600   13.1160   -2.3070 C   0  0  0  0  0  0  0  0  0  0  0  0
    0.6220   13.9280   -2.0110 C   0  0  1  0  0  0  0  0  0  0  0  0
    0.5730   15.1320   -3.0040 C   0  0  0  0  0  0  0  0  0  0  0  0
    0.8130   14.4050   -0.5340 C   0  0  2  0  0  0  0  0  0  0  0  0
   -0.2660   15.3730   -0.0170 C   0  0  0  0  0  0  0  0  0  0  0  0
    0.0230   16.8220   -0.2270 C   0  0  0  0  0  0  0  0  0  0  0  0
    1.2230   17.3420   -0.5460 C   0  0  0  0  0  0  0  0  0  0  0  0
    2.4690   16.4520   -0.6330 C   0  0  1  0  0  0  0  0  0  0  0  0
    3.6440   17.1310    0.1190 C   0  0  0  0  0  0  0  0  0  0  0  0
    3.9070   18.5520   -0.3690 C   0  0  0  0  0  0  0  0  0  0  0  0
    2.6620   19.4220   -0.2130 C   0  0  2  0  0  0  0  0  0  0  0  0
    2.3910   19.5910    1.1820 O   0  0  0  0  0  0  0  0  0  0  0  0
    1.4110   18.8330   -0.9210 C   0  0  0  0  0  0  0  0  0  0  0  0
    1.5880   18.9290   -2.4570 C   0  0  0  0  0  0  0  0  0  0  0  0
    0.1950   19.7310   -0.5680 C   0  0  0  0  0  0  0  0  0  0  0  0
    2.2680   14.9340   -0.2070 C   0  0  1  0  0  0  0  0  0  0  0  0
    2.4600   14.7840    1.3340 C   0  0  0  0  0  0  0  0  0  0  0  0
    3.3890   14.0580   -0.8810 C   0  0  0  0  0  0  0  0  0  0  0  0
    3.0920   13.5160   -2.2930 C   0  0  0  0  0  0  0  0  0  0  0  0
    1.7150   12.8480   -2.3450 C   0  0  2  0  0  0  0  0  0  0  0  0
    1.7410   11.6200   -1.3720 C   0  0  0  0  0  0  0  0  0  0  0  0
    3.7925   11.6720   -4.9598 H   0  0  0  0  0  0  0  0  0  0  0  0
    2.9680   10.4719   -6.0118 H   0  0  0  0  0  0  0  0  0  0  0  0
    2.4302   12.1858   -6.0118 H   0  0  0  0  0  0  0  0  0  0  0  0
    2.3991   10.5541   -3.4622 H   0  0  0  0  0  0  0  0  0  0  0  0
    0.2255   10.5389   -5.5971 H   0  0  0  0  0  0  0  0  0  0  0  0
    1.1949    9.1349   -4.9388 H   0  0  0  0  0  0  0  0  0  0  0  0
   -0.6981   10.8081   -3.2553 H   0  0  0  0  0  0  0  0  0  0  0  0
   -1.1645    9.2769   -4.1065 H   0  0  0  0  0  0  0  0  0  0  0  0
    1.2369    9.2423   -2.8236 H   0  0  0  0  0  0  0  0  0  0  0  0
   -1.8304    9.7940    0.2541 H   0  0  0  0  0  0  0  0  0  0  0  0
   -1.6392   10.7272   -1.2689 H   0  0  0  0  0  0  0  0  0  0  0  0
   -2.5652    9.1879   -1.2689 H   0  0  0  0  0  0  0  0  0  0  0  0
   -0.1364    8.8125    0.9640 H   0  0  0  0  0  0  0  0  0  0  0  0
    0.5717    7.4747   -0.0032 H   0  0  0  0  0  0  0  0  0  0  0  0
    1.3510    9.0931   -0.0032 H   0  0  0  0  0  0  0  0  0  0  0  0
    1.5701   13.0495   -4.5152 H   0  0  0  0  0  0  0  0  0  0  0  0
   -0.8140   12.6633   -4.4427 H   0  0  0  0  0  0  0  0  0  0  0  0
   -0.6276   11.2204   -3.4233 H   0  0  0  0  0  0  0  0  0  0  0  0
   -1.5037   13.7878   -2.5236 H   0  0  0  0  0  0  0  0  0  0  0  0
   -0.9677   12.4962   -1.4519 H   0  0  0  0  0  0  0  0  0  0  0  0
    0.5347   16.0737   -2.4368 H   0  0  0  0  0  0  0  0  0  0  0  0
    1.4723   15.1218   -3.6374 H   0  0  0  0  0  0  0  0  0  0  0  0
   -0.3225   15.0487   -3.6374 H   0  0  0  0  0  0  0  0  0  0  0  0
    0.6767   13.4734    0.0348 H   0  0  0  0  0  0  0  0  0  0  0  0
   -1.2091   15.1366   -0.5314 H   0  0  0  0  0  0  0  0  0  0  0  0
   -0.3091   15.2264    1.0723 H   0  0  0  0  0  0  0  0  0  0  0  0
   -0.8155   17.5245   -0.1113 H   0  0  0  0  0  0  0  0  0  0  0  0
    2.7091   16.3689   -1.7033 H   0  0  0  0  0  0  0  0  0  0  0  0
    3.4032   17.1654    1.1918 H   0  0  0  0  0  0  0  0  0  0  0  0
    4.5506   16.5385   -0.0735 H   0  0  0  0  0  0  0  0  0  0  0  0
    4.7273   18.9887    0.2196 H   0  0  0  0  0  0  0  0  0  0  0  0
    4.1765   18.5129   -1.4347 H   0  0  0  0  0  0  0  0  0  0  0  0
    2.8703   20.3874   -0.6973 H   0  0  0  0  0  0  0  0  0  0  0  0
    2.6220   18.7600    1.6300 H   0  0  0  0  0  0  0  0  0  0  0  0
    2.5338   19.4420   -2.6858 H   0  0  0  0  0  0  0  0  0  0  0  0
    1.6061   17.9171   -2.8880 H   0  0  0  0  0  0  0  0  0  0  0  0
    0.7497   19.4961   -2.8880 H   0  0  0  0  0  0  0  0  0  0  0  0
    0.0975   19.8030    0.5253 H   0  0  0  0  0  0  0  0  0  0  0  0
    0.3465   20.7357   -0.9896 H   0  0  0  0  0  0  0  0  0  0  0  0
   -0.7206   19.2907   -0.9896 H   0  0  0  0  0  0  0  0  0  0  0  0
    1.6979   15.3794    1.8581 H   0  0  0  0  0  0  0  0  0  0  0  0
    2.3558   13.7257    1.6152 H   0  0  0  0  0  0  0  0  0  0  0  0
    3.4617   15.1412    1.6152 H   0  0  0  0  0  0  0  0  0  0  0  0
    4.2986   14.6732   -0.9452 H   0  0  0  0  0  0  0  0  0  0  0  0
    3.4799   13.1662   -0.2434 H   0  0  0  0  0  0  0  0  0  0  0  0
    3.1150   14.3494   -3.0106 H   0  0  0  0  0  0  0  0  0  0  0  0
    3.8554   12.7665   -2.5489 H   0  0  0  0  0  0  0  0  0  0  0  0
    1.7335   11.9765   -0.3314 H   0  0  0  0  0  0  0  0  0  0  0  0
    0.8560   10.9917   -1.5508 H   0  0  0  0  0  0  0  0  0  0  0  0
    2.6518   11.0297   -1.5508 H   0  0  0  0  0  0  0  0  0  0  0  0
  1  2  1  0
  2  3  1  0
  3  4  1  0
  4  5  1  0
  5  6  1  0
  6  7  1  0
  7  8  1  0
  7  9  1  0
  2 10  1  0
 10 11  1  0
 11 12  1  0
 12 13  1  0
 13 14  1  6
 13 15  1  0
 15 16  1  0
 16 17  1  0
 17 18  2  0
 18 19  1  0
 19 20  1  0
 20 21  1  0
 21 22  1  0
 22 23  1  0
 22 24  1  0
 24 25  1  0
 24 26  1  0
 19 27  1  0
 27 28  1  1
 27 29  1  0
 29 30  1  0
 30 31  1  0
 31 32  1  1
  7  5  1  0
 31 10  1  0
 31 13  1  0
 27 15  1  0
 24 18  1  0
  1 33  1  0
  1 34  1  0
  1 35  1  0
  2 36  1  1
  3 37  1  0
  3 38  1  0
  4 39  1  0
  4 40  1  0
  5 41  1  1
  8 42  1  0
  8 43  1  0
  8 44  1  0
  9 45  1  0
  9 46  1  0
  9 47  1  0
 10 48  1  6
 11 49  1  0
 11 50  1  0
 12 51  1  0
 12 52  1  0
 14 53  1  0
 14 54  1  0
 14 55  1  0
 15 56  1  1
 16 57  1  0
 16 58  1  0
 17 59  1  0
 19 60  1  6
 20 61  1  0
 20 62  1  0
 21 63  1  0
 21 64  1  0
 22 65  1  6
 23 66  1  0
 25 67  1  0
 25 68  1  0
 25 69  1  0
 26 70  1  0
 26 71  1  0
 26 72  1  0
 28 73  1  0
 28 74  1  0
 28 75  1  0
 29 76  1  0
 29 77  1  0
 30 78  1  0
 30 79  1  0
 32 80  1  0
 32 81  1  0
 32 82  1  0
M  END
>  <meeko>  (14) 
{"is_sidechain": [false], "intermolecular_energy": 2.731, "internal_energy": -0.839}

$$$$
EPH_relaxed_0001_pdb2pqr_Repair_6_r2_0001_out
     RDKit          3D

 82 86  0  0  0  0  0  0  0  0999 V2000
   -4.0720    7.3940   -3.7470 C   0  0  0  0  0  0  0  0  0  0  0  0
   -3.6550    7.2620   -2.2800 C   0  0  2  0  0  0  0  0  0  0  0  0
   -4.8050    6.7410   -1.3940 C   0  0  0  0  0  0  0  0  0  0  0  0
   -6.1650    6.7290   -2.0960 C   0  0  0  0  0  0  0  0  0  0  0  0
   -7.2870    6.5030   -1.1280 C   0  0  2  0  0  0  0  0  0  0  0  0
   -8.3330    5.6500   -1.6110 O   0  0  0  0  0  0  0  0  0  0  0  0
   -8.6980    7.0150   -1.3480 C   0  0  0  0  0  0  0  0  0  0  0  0
   -9.0630    7.7940   -2.5730 C   0  0  0  0  0  0  0  0  0  0  0  0
   -9.5930    7.1810   -0.1600 C   0  0  0  0  0  0  0  0  0  0  0  0
   -3.1630    8.6060   -1.7570 C   0  0  1  0  0  0  0  0  0  0  0  0
   -3.8830    9.0400   -0.4520 C   0  0  0  0  0  0  0  0  0  0  0  0
   -2.8360    9.7930    0.4070 C   0  0  0  0  0  0  0  0  0  0  0  0
   -1.6560   10.0580   -0.5570 C   0  0  1  0  0  0  0  0  0  0  0  0
   -2.0800   11.3200   -1.3730 C   0  0  0  0  0  0  0  0  0  0  0  0
   -0.2510   10.2420    0.1030 C   0  0  2  0  0  0  0  0  0  0  0  0
   -0.1270   11.4510    1.0470 C   0  0  0  0  0  0  0  0  0  0  0  0
    0.3200   12.7210    0.4020 C   0  0  0  0  0  0  0  0  0  0  0  0
    0.8830   12.8230   -0.8170 C   0  0  0  0  0  0  0  0  0  0  0  0
    1.2100   11.5710   -1.6410 C   0  0  1  0  0  0  0  0  0  0  0  0
    2.6460   11.6910   -2.2170 C   0  0  0  0  0  0  0  0  0  0  0  0
    2.8530   12.9800   -3.0060 C   0  0  0  0  0  0  0  0  0  0  0  0
    2.5750   14.2030   -2.1370 C   0  0  2  0  0  0  0  0  0  0  0  0
    3.5690   14.2750   -1.1100 O   0  0  0  0  0  0  0  0  0  0  0  0
    1.1600   14.1880   -1.4940 C   0  0  0  0  0  0  0  0  0  0  0  0
    0.0880   14.4140   -2.5890 C   0  0  0  0  0  0  0  0  0  0  0  0
    1.0600   15.4020   -0.5320 C   0  0  0  0  0  0  0  0  0  0  0  0
    0.9580   10.1790   -0.9160 C   0  0  1  0  0  0  0  0  0  0  0  0
    2.2160    9.7730   -0.0900 C   0  0  0  0  0  0  0  0  0  0  0  0
    0.7630    9.0600   -2.0070 C   0  0  0  0  0  0  0  0  0  0  0  0
   -0.6690    8.8450   -2.5330 C   0  0  0  0  0  0  0  0  0  0  0  0
   -1.6650    8.7160   -1.3760 C   0  0  2  0  0  0  0  0  0  0  0  0
   -1.2770    7.4420   -0.5510 C   0  0  0  0  0  0  0  0  0  0  0  0
   -5.1194    7.7256   -3.8021 H   0  0  0  0  0  0  0  0  0  0  0  0
   -3.4271    8.1319   -4.2465 H   0  0  0  0  0  0  0  0  0  0  0  0
   -3.9692    6.4194   -4.2465 H   0  0  0  0  0  0  0  0  0  0  0  0
   -2.8410    6.5237   -2.2324 H   0  0  0  0  0  0  0  0  0  0  0  0
   -4.5656    5.7134   -1.0828 H   0  0  0  0  0  0  0  0  0  0  0  0
   -4.8900    7.4289   -0.5398 H   0  0  0  0  0  0  0  0  0  0  0  0
   -6.3160    7.6965   -2.5971 H   0  0  0  0  0  0  0  0  0  0  0  0
   -6.1681    5.9036   -2.8231 H   0  0  0  0  0  0  0  0  0  0  0  0
   -6.5975    6.5838   -0.2747 H   0  0  0  0  0  0  0  0  0  0  0  0
   -9.5125    8.7534   -2.2770 H   0  0  0  0  0  0  0  0  0  0  0  0
   -8.1591    7.9816   -3.1711 H   0  0  0  0  0  0  0  0  0  0  0  0
   -9.7857    7.2195   -3.1711 H   0  0  0  0  0  0  0  0  0  0  0  0
   -9.0029    7.0715    0.7618 H   0  0  0  0  0  0  0  0  0  0  0  0
  -10.0532    8.1798   -0.1843 H   0  0  0  0  0  0  0  0  0  0  0  0
  -10.3808    6.4136   -0.1843 H   0  0  0  0  0  0  0  0  0  0  0  0
   -3.3756    9.2337   -2.6349 H   0  0  0  0  0  0  0  0  0  0  0  0
   -4.7275    9.7041   -0.6882 H   0  0  0  0  0  0  0  0  0  0  0  0
   -4.2830    8.1685    0.0870 H   0  0  0  0  0  0  0  0  0  0  0  0
   -3.2508   10.7402    0.7823 H   0  0  0  0  0  0  0  0  0  0  0  0
   -2.5296    9.2152    1.2915 H   0  0  0  0  0  0  0  0  0  0  0  0
   -2.3522   12.1301   -0.6804 H   0  0  0  0  0  0  0  0  0  0  0  0
   -1.2419   11.6455   -2.0067 H   0  0  0  0  0  0  0  0  0  0  0  0
   -2.9446   11.0734   -2.0067 H   0  0  0  0  0  0  0  0  0  0  0  0
   -0.1742    9.3518    0.7446 H   0  0  0  0  0  0  0  0  0  0  0  0
   -1.1125   11.6294    1.5019 H   0  0  0  0  0  0  0  0  0  0  0  0
    0.6540   11.1888    1.7759 H   0  0  0  0  0  0  0  0  0  0  0  0
    0.1774   13.6519    0.9704 H   0  0  0  0  0  0  0  0  0  0  0  0
    0.4788   11.5476   -2.4625 H   0  0  0  0  0  0  0  0  0  0  0  0
    3.3635   11.6685   -1.3835 H   0  0  0  0  0  0  0  0  0  0  0  0
    2.8010   10.8483   -2.9068 H   0  0  0  0  0  0  0  0  0  0  0  0
    3.8929   13.0207   -3.3624 H   0  0  0  0  0  0  0  0  0  0  0  0
    2.1542   12.9872   -3.8555 H   0  0  0  0  0  0  0  0  0  0  0  0
    2.6140   15.0874   -2.7900 H   0  0  0  0  0  0  0  0  0  0  0  0
    3.9280   13.3800   -0.9860 H   0  0  0  0  0  0  0  0  0  0  0  0
   -0.8831   14.6187   -2.1147 H   0  0  0  0  0  0  0  0  0  0  0  0
    0.3782   15.2707   -3.2150 H   0  0  0  0  0  0  0  0  0  0  0  0
    0.0077   13.5131   -3.2150 H   0  0  0  0  0  0  0  0  0  0  0  0
    1.0891   15.0482    0.5091 H   0  0  0  0  0  0  0  0  0  0  0  0
    1.9051   16.0828   -0.7117 H   0  0  0  0  0  0  0  0  0  0  0  0
    0.1149   15.9353   -0.7117 H   0  0  0  0  0  0  0  0  0  0  0  0
    1.9889    9.8463    0.9838 H   0  0  0  0  0  0  0  0  0  0  0  0
    2.4976    8.7384   -0.3355 H   0  0  0  0  0  0  0  0  0  0  0  0
    3.0493   10.4478   -0.3355 H   0  0  0  0  0  0  0  0  0  0  0  0
    1.3980    9.3193   -2.8669 H   0  0  0  0  0  0  0  0  0  0  0  0
    1.0296    8.1185   -1.5046 H   0  0  0  0  0  0  0  0  0  0  0  0
   -0.9547    9.7027   -3.1597 H   0  0  0  0  0  0  0  0  0  0  0  0
   -0.6910    7.9149   -3.1198 H   0  0  0  0  0  0  0  0  0  0  0  0
   -1.3453    7.6663    0.5237 H   0  0  0  0  0  0  0  0  0  0  0  0
   -1.9658    6.6209   -0.7987 H   0  0  0  0  0  0  0  0  0  0  0  0
   -0.2474    7.1443   -0.7987 H   0  0  0  0  0  0  0  0  0  0  0  0
  1  2  1  0
  2  3  1  0
  3  4  1  0
  4  5  1  0
  5  6  1  0
  6  7  1  0
  7  8  1  0
  7  9  1  0
  2 10  1  0
 10 11  1  0
 11 12  1  0
 12 13  1  0
 13 14  1  6
 13 15  1  0
 15 16  1  0
 16 17  1  0
 17 18  2  0
 18 19  1  0
 19 20  1  0
 20 21  1  0
 21 22  1  0
 22 23  1  0
 22 24  1  0
 24 25  1  0
 24 26  1  0
 19 27  1  0
 27 28  1  1
 27 29  1  0
 29 30  1  0
 30 31  1  0
 31 32  1  1
  7  5  1  0
 31 10  1  0
 31 13  1  0
 27 15  1  0
 24 18  1  0
  1 33  1  0
  1 34  1  0
  1 35  1  0
  2 36  1  6
  3 37  1  0
  3 38  1  0
  4 39  1  0
  4 40  1  0
  5 41  1  1
  8 42  1  0
  8 43  1  0
  8 44  1  0
  9 45  1  0
  9 46  1  0
  9 47  1  0
 10 48  1  6
 11 49  1  0
 11 50  1  0
 12 51  1  0
 12 52  1  0
 14 53  1  0
 14 54  1  0
 14 55  1  0
 15 56  1  1
 16 57  1  0
 16 58  1  0
 17 59  1  0
 19 60  1  6
 20 61  1  0
 20 62  1  0
 21 63  1  0
 21 64  1  0
 22 65  1  6
 23 66  1  0
 25 67  1  0
 25 68  1  0
 25 69  1  0
 26 70  1  0
 26 71  1  0
 26 72  1  0
 28 73  1  0
 28 74  1  0
 28 75  1  0
 29 76  1  0
 29 77  1  0
 30 78  1  0
 30 79  1  0
 32 80  1  0
 32 81  1  0
 32 82  1  0
M  END
>  <meeko>  (15) 
{"is_sidechain": [false], "intermolecular_energy": 2.731, "internal_energy": -0.839}

$$$$
EPH_relaxed_0001_pdb2pqr_Repair_6_r2_0001_out
     RDKit          3D

 82 86  0  0  0  0  0  0  0  0999 V2000
   -1.8660   14.5610    0.2830 C   0  0  0  0  0  0  0  0  0  0  0  0
   -0.5140   15.2690    0.4020 C   0  0  2  0  0  0  0  0  0  0  0  0
   -0.4110   16.4860   -0.5400 C   0  0  0  0  0  0  0  0  0  0  0  0
    1.0290   16.9130   -0.8390 C   0  0  0  0  0  0  0  0  0  0  0  0
    1.2550   18.3600   -0.5180 C   0  0  2  0  0  0  0  0  0  0  0  0
    2.3550   18.9620   -1.2140 O   0  0  0  0  0  0  0  0  0  0  0  0
    2.4810   18.8720    0.2150 C   0  0  0  0  0  0  0  0  0  0  0  0
    3.5610   17.9430    0.6730 C   0  0  0  0  0  0  0  0  0  0  0  0
    2.3970   20.1940    0.9110 C   0  0  0  0  0  0  0  0  0  0  0  0
    0.6150   14.2880    0.1090 C   0  0  1  0  0  0  0  0  0  0  0  0
    0.8190   13.2550    1.2500 C   0  0  0  0  0  0  0  0  0  0  0  0
    1.2380   11.9230    0.5770 C   0  0  0  0  0  0  0  0  0  0  0  0
    1.5830   12.3130   -0.8800 C   0  0  1  0  0  0  0  0  0  0  0  0
    3.0350   12.8810   -0.8100 C   0  0  0  0  0  0  0  0  0  0  0  0
    1.4580   11.1770   -1.9470 C   0  0  2  0  0  0  0  0  0  0  0  0
    2.4010    9.9790   -1.7390 C   0  0  0  0  0  0  0  0  0  0  0  0
    3.7260   10.0860   -2.4170 C   0  0  0  0  0  0  0  0  0  0  0  0
    4.0390   10.9620   -3.3900 C   0  0  0  0  0  0  0  0  0  0  0  0
    2.9780   11.9040   -3.9730 C   0  0  1  0  0  0  0  0  0  0  0  0
    3.0670   11.8900   -5.5210 C   0  0  0  0  0  0  0  0  0  0  0  0
    4.4700   12.2070   -6.0300 C   0  0  0  0  0  0  0  0  0  0  0  0
    5.4880   11.2130   -5.4750 C   0  0  2  0  0  0  0  0  0  0  0  0
    5.2160    9.9200   -6.0240 O   0  0  0  0  0  0  0  0  0  0  0  0
    5.4830   11.1330   -3.9230 C   0  0  0  0  0  0  0  0  0  0  0  0
    6.0670   12.4410   -3.3330 C   0  0  0  0  0  0  0  0  0  0  0  0
    6.4520    9.9960   -3.5000 C   0  0  0  0  0  0  0  0  0  0  0  0
    1.4950   11.6890   -3.4440 C   0  0  1  0  0  0  0  0  0  0  0  0
    0.7760   10.6030   -4.3030 C   0  0  0  0  0  0  0  0  0  0  0  0
    0.6800   13.0210   -3.6420 C   0  0  0  0  0  0  0  0  0  0  0  0
    0.7480   14.0530   -2.4990 C   0  0  0  0  0  0  0  0  0  0  0  0
    0.4700   13.3910   -1.1460 C   0  0  2  0  0  0  0  0  0  0  0  0
   -0.9920   12.8300   -1.1790 C   0  0  0  0  0  0  0  0  0  0  0  0
   -2.2613   14.3540    1.2884 H   0  0  0  0  0  0  0  0  0  0  0  0
   -2.5708   15.2058   -0.2625 H   0  0  0  0  0  0  0  0  0  0  0  0
   -1.7375   13.6145   -0.2625 H   0  0  0  0  0  0  0  0  0  0  0  0
   -0.4254   15.6405    1.4336 H   0  0  0  0  0  0  0  0  0  0  0  0
   -0.9023   16.2318   -1.4908 H   0  0  0  0  0  0  0  0  0  0  0  0
   -0.8970   17.3301   -0.0289 H   0  0  0  0  0  0  0  0  0  0  0  0
    1.7151   16.3020   -0.2341 H   0  0  0  0  0  0  0  0  0  0  0  0
    1.2147   16.7664   -1.9133 H   0  0  0  0  0  0  0  0  0  0  0  0
    0.1786   18.5172   -0.3545 H   0  0  0  0  0  0  0  0  0  0  0  0
    3.5850   17.9224    1.7725 H   0  0  0  0  0  0  0  0  0  0  0  0
    3.3603   16.9310    0.2916 H   0  0  0  0  0  0  0  0  0  0  0  0
    4.5317   18.2928    0.2916 H   0  0  0  0  0  0  0  0  0  0  0  0
    2.4070   20.0365    1.9996 H   0  0  0  0  0  0  0  0  0  0  0  0
    3.2575   20.8156    0.6225 H   0  0  0  0  0  0  0  0  0  0  0  0
    1.4648   20.7017    0.6225 H   0  0  0  0  0  0  0  0  0  0  0  0
    1.4447   14.9969   -0.0293 H   0  0  0  0  0  0  0  0  0  0  0  0
    1.6083   13.5981    1.9350 H   0  0  0  0  0  0  0  0  0  0  0  0
   -0.1022   13.1282    1.8376 H   0  0  0  0  0  0  0  0  0  0  0  0
    2.1153   11.4921    1.0817 H   0  0  0  0  0  0  0  0  0  0  0  0
    0.4451   11.1623    0.6284 H   0  0  0  0  0  0  0  0  0  0  0  0
    3.3328   12.9975    0.2425 H   0  0  0  0  0  0  0  0  0  0  0  0
    3.7250   12.1865   -1.3116 H   0  0  0  0  0  0  0  0  0  0  0  0
    3.0706   13.8593   -1.3116 H   0  0  0  0  0  0  0  0  0  0  0  0
    0.4436   10.7924   -1.7652 H   0  0  0  0  0  0  0  0  0  0  0  0
    2.5795    9.8704   -0.6590 H   0  0  0  0  0  0  0  0  0  0  0  0
    1.8966    9.1124   -2.1913 H   0  0  0  0  0  0  0  0  0  0  0  0
    4.5141    9.3898   -2.0942 H   0  0  0  0  0  0  0  0  0  0  0  0
    3.2217   12.9079   -3.5953 H   0  0  0  0  0  0  0  0  0  0  0  0
    2.7784   10.8917   -5.8816 H   0  0  0  0  0  0  0  0  0  0  0  0
    2.3902   12.6694   -5.9011 H   0  0  0  0  0  0  0  0  0  0  0  0
    4.4755   12.1527   -7.1286 H   0  0  0  0  0  0  0  0  0  0  0  0
    4.7460   13.2175   -5.6942 H   0  0  0  0  0  0  0  0  0  0  0  0
    6.4877   11.5668   -5.7675 H   0  0  0  0  0  0  0  0  0  0  0  0
    6.0680    9.4710   -6.1550 H   0  0  0  0  0  0  0  0  0  0  0  0
    6.0442   12.3899   -2.2344 H   0  0  0  0  0  0  0  0  0  0  0  0
    7.1058   12.5647   -3.6728 H   0  0  0  0  0  0  0  0  0  0  0  0
    5.4656   13.2971   -3.6728 H   0  0  0  0  0  0  0  0  0  0  0  0
    6.4976    9.9425   -2.4022 H   0  0  0  0  0  0  0  0  0  0  0  0
    6.0889    9.0374   -3.8990 H   0  0  0  0  0  0  0  0  0  0  0  0
    7.4560   10.2025   -3.8990 H   0  0  0  0  0  0  0  0  0  0  0  0
    0.2918    9.8717   -3.6391 H   0  0  0  0  0  0  0  0  0  0  0  0
    0.0157   11.0816   -4.9378 H   0  0  0  0  0  0  0  0  0  0  0  0
    1.5135   10.0900   -4.9378 H   0  0  0  0  0  0  0  0  0  0  0  0
    1.0556   13.5087   -4.5536 H   0  0  0  0  0  0  0  0  0  0  0  0
   -0.3741   12.7099   -3.6870 H   0  0  0  0  0  0  0  0  0  0  0  0
    1.7514   14.5034   -2.4799 H   0  0  0  0  0  0  0  0  0  0  0  0
   -0.0165   14.8238   -2.6762 H   0  0  0  0  0  0  0  0  0  0  0  0
   -1.3546   12.6908   -0.1499 H   0  0  0  0  0  0  0  0  0  0  0  0
   -1.6458   13.5411   -1.7052 H   0  0  0  0  0  0  0  0  0  0  0  0
   -1.0023   11.8641   -1.7052 H   0  0  0  0  0  0  0  0  0  0  0  0
  1  2  1  0
  2  3  1  0
  3  4  1  0
  4  5  1  0
  5  6  1  0
  6  7  1  0
  7  8  1  0
  7  9  1  0
  2 10  1  0
 10 11  1  0
 11 12  1  0
 12 13  1  0
 13 14  1  1
 13 15  1  0
 15 16  1  0
 16 17  1  0
 17 18  2  0
 18 19  1  0
 19 20  1  0
 20 21  1  0
 21 22  1  0
 22 23  1  0
 22 24  1  0
 24 25  1  0
 24 26  1  0
 19 27  1  0
 27 28  1  6
 27 29  1  0
 29 30  1  0
 30 31  1  0
 31 32  1  6
  7  5  1  0
 31 10  1  0
 31 13  1  0
 27 15  1  0
 24 18  1  0
  1 33  1  0
  1 34  1  0
  1 35  1  0
  2 36  1  1
  3 37  1  0
  3 38  1  0
  4 39  1  0
  4 40  1  0
  5 41  1  1
  8 42  1  0
  8 43  1  0
  8 44  1  0
  9 45  1  0
  9 46  1  0
  9 47  1  0
 10 48  1  6
 11 49  1  0
 11 50  1  0
 12 51  1  0
 12 52  1  0
 14 53  1  0
 14 54  1  0
 14 55  1  0
 15 56  1  1
 16 57  1  0
 16 58  1  0
 17 59  1  0
 19 60  1  1
 20 61  1  0
 20 62  1  0
 21 63  1  0
 21 64  1  0
 22 65  1  6
 23 66  1  0
 25 67  1  0
 25 68  1  0
 25 69  1  0
 26 70  1  0
 26 71  1  0
 26 72  1  0
 28 73  1  0
 28 74  1  0
 28 75  1  0
 29 76  1  0
 29 77  1  0
 30 78  1  0
 30 79  1  0
 32 80  1  0
 32 81  1  0
 32 82  1  0
M  END
>  <meeko>  (16) 
{"is_sidechain": [false], "intermolecular_energy": 2.731, "internal_energy": -0.839}

$$$$
EPH_relaxed_0001_pdb2pqr_Repair_6_r2_0001_out
     RDKit          3D

 82 86  0  0  0  0  0  0  0  0999 V2000
    0.9650   14.9730   -2.7420 C   0  0  0  0  0  0  0  0  0  0  0  0
    1.1970   14.2950   -4.0950 C   0  0  2  0  0  0  0  0  0  0  0  0
    0.4600   15.0160   -5.2400 C   0  0  0  0  0  0  0  0  0  0  0  0
    0.9520   14.6210   -6.6350 C   0  0  0  0  0  0  0  0  0  0  0  0
    0.7360   15.7200   -7.6310 C   0  0  2  0  0  0  0  0  0  0  0  0
    0.4040   15.2730   -8.9520 O   0  0  0  0  0  0  0  0  0  0  0  0
    1.6530   15.9690   -8.8140 C   0  0  0  0  0  0  0  0  0  0  0  0
    2.8570   15.1150   -9.0620 C   0  0  0  0  0  0  0  0  0  0  0  0
    1.6580   17.3280   -9.4410 C   0  0  0  0  0  0  0  0  0  0  0  0
    0.7560   12.8370   -4.0280 C   0  0  1  0  0  0  0  0  0  0  0  0
    1.8870   11.8520   -4.4280 C   0  0  0  0  0  0  0  0  0  0  0  0
    1.7110   10.5880   -3.5470 C   0  0  0  0  0  0  0  0  0  0  0  0
    0.3080   10.7450   -2.9150 C   0  0  1  0  0  0  0  0  0  0  0  0
   -0.6850   10.2670   -4.0200 C   0  0  0  0  0  0  0  0  0  0  0  0
    0.0720    9.9970   -1.5630 C   0  0  2  0  0  0  0  0  0  0  0  0
    0.1840    8.4640   -1.6370 C   0  0  0  0  0  0  0  0  0  0  0  0
   -1.0900    7.7450   -1.9350 C   0  0  0  0  0  0  0  0  0  0  0  0
   -2.3240    8.2750   -1.8540 C   0  0  0  0  0  0  0  0  0  0  0  0
   -2.5360    9.7030   -1.3330 C   0  0  1  0  0  0  0  0  0  0  0  0
   -3.6970    9.7120   -0.3050 C   0  0  0  0  0  0  0  0  0  0  0  0
   -4.9780    9.0990   -0.8620 C   0  0  0  0  0  0  0  0  0  0  0  0
   -4.7410    7.6600   -1.3150 C   0  0  2  0  0  0  0  0  0  0  0  0
   -4.4570    6.8560   -0.1660 O   0  0  0  0  0  0  0  0  0  0  0  0
   -3.5860    7.5250   -2.3470 C   0  0  0  0  0  0  0  0  0  0  0  0
   -4.0210    8.1410   -3.6990 C   0  0  0  0  0  0  0  0  0  0  0  0
   -3.3580    6.0120   -2.6130 C   0  0  0  0  0  0  0  0  0  0  0  0
   -1.2370   10.4440   -0.7950 C   0  0  1  0  0  0  0  0  0  0  0  0
   -1.0120   10.0970    0.7090 C   0  0  0  0  0  0  0  0  0  0  0  0
   -1.4680   12.0000   -0.8620 C   0  0  0  0  0  0  0  0  0  0  0  0
   -1.1040   12.7000   -2.1850 C   0  0  0  0  0  0  0  0  0  0  0  0
    0.2980   12.2950   -2.6510 C   0  0  2  0  0  0  0  0  0  0  0  0
    1.3220   12.7830   -1.5700 C   0  0  0  0  0  0  0  0  0  0  0  0
    1.2062   14.2682   -1.9326 H   0  0  0  0  0  0  0  0  0  0  0  0
    1.6109   15.8597   -2.6607 H   0  0  0  0  0  0  0  0  0  0  0  0
   -0.0887   15.2782   -2.6607 H   0  0  0  0  0  0  0  0  0  0  0  0
    2.2742   14.3483   -4.3113 H   0  0  0  0  0  0  0  0  0  0  0  0
   -0.6111   14.7759   -5.1688 H   0  0  0  0  0  0  0  0  0  0  0  0
    0.6583   16.0916   -5.1223 H   0  0  0  0  0  0  0  0  0  0  0  0
    2.0270   14.3936   -6.5827 H   0  0  0  0  0  0  0  0  0  0  0  0
    0.3786   13.7420   -6.9646 H   0  0  0  0  0  0  0  0  0  0  0  0
    0.3453   16.3859   -6.8474 H   0  0  0  0  0  0  0  0  0  0  0  0
    3.2921   14.8064   -8.1000 H   0  0  0  0  0  0  0  0  0  0  0  0
    2.5622   14.2229   -9.6341 H   0  0  0  0  0  0  0  0  0  0  0  0
    3.6015   15.6881   -9.6341 H   0  0  0  0  0  0  0  0  0  0  0  0
    1.6608   18.0954   -8.6529 H   0  0  0  0  0  0  0  0  0  0  0  0
    2.5566   17.4404  -10.0655 H   0  0  0  0  0  0  0  0  0  0  0  0
    0.7603   17.4470  -10.0655 H   0  0  0  0  0  0  0  0  0  0  0  0
   -0.0971   12.8703   -4.7217 H   0  0  0  0  0  0  0  0  0  0  0  0
    1.8001   11.5873   -5.4921 H   0  0  0  0  0  0  0  0  0  0  0  0
    2.8778   12.3050   -4.2757 H   0  0  0  0  0  0  0  0  0  0  0  0
    1.7605    9.6767   -4.1611 H   0  0  0  0  0  0  0  0  0  0  0  0
    2.5021   10.4948   -2.7884 H   0  0  0  0  0  0  0  0  0  0  0  0
   -1.5799    9.8362   -3.5473 H   0  0  0  0  0  0  0  0  0  0  0  0
   -0.9770   11.1232   -4.6458 H   0  0  0  0  0  0  0  0  0  0  0  0
   -0.1979    9.5047   -4.6458 H   0  0  0  0  0  0  0  0  0  0  0  0
    0.9274   10.3302   -0.9570 H   0  0  0  0  0  0  0  0  0  0  0  0
    0.9081    8.2138   -2.4264 H   0  0  0  0  0  0  0  0  0  0  0  0
    0.4930    8.1328   -0.6346 H   0  0  0  0  0  0  0  0  0  0  0  0
   -1.0133    6.6930   -2.2472 H   0  0  0  0  0  0  0  0  0  0  0  0
   -2.8096   10.3095   -2.2089 H   0  0  0  0  0  0  0  0  0  0  0  0
   -3.3878    9.1378    0.5808 H   0  0  0  0  0  0  0  0  0  0  0  0
   -3.9115   10.7612   -0.0536 H   0  0  0  0  0  0  0  0  0  0  0  0
   -5.7512    9.1076   -0.0797 H   0  0  0  0  0  0  0  0  0  0  0  0
   -5.3030    9.6918   -1.7298 H   0  0  0  0  0  0  0  0  0  0  0  0
   -5.6555    7.3185   -1.8220 H   0  0  0  0  0  0  0  0  0  0  0  0
   -5.2860    6.4270    0.1050 H   0  0  0  0  0  0  0  0  0  0  0  0
   -4.6465    9.0267   -3.5140 H   0  0  0  0  0  0  0  0  0  0  0  0
   -3.1291    8.4351   -4.2718 H   0  0  0  0  0  0  0  0  0  0  0  0
   -4.5965    7.3989   -4.2718 H   0  0  0  0  0  0  0  0  0  0  0  0
   -3.2777    5.4791   -1.6540 H   0  0  0  0  0  0  0  0  0  0  0  0
   -4.2055    5.6088   -3.1867 H   0  0  0  0  0  0  0  0  0  0  0  0
   -2.4293    5.8764   -3.1867 H   0  0  0  0  0  0  0  0  0  0  0  0
   -1.5031   10.8545    1.3375 H   0  0  0  0  0  0  0  0  0  0  0  0
   -1.4407    9.1073    0.9251 H   0  0  0  0  0  0  0  0  0  0  0  0
    0.0665   10.0846    0.9251 H   0  0  0  0  0  0  0  0  0  0  0  0
   -2.5348   12.1866   -0.6693 H   0  0  0  0  0  0  0  0  0  0  0  0
   -0.7830   12.4251   -0.1136 H   0  0  0  0  0  0  0  0  0  0  0  0
   -1.8356   12.4159   -2.9557 H   0  0  0  0  0  0  0  0  0  0  0  0
   -1.1194   13.7878   -2.0224 H   0  0  0  0  0  0  0  0  0  0  0  0
    0.9157   12.5894   -0.5663 H   0  0  0  0  0  0  0  0  0  0  0  0
    2.2709   12.2403   -1.6924 H   0  0  0  0  0  0  0  0  0  0  0  0
    1.4982   13.8619   -1.6924 H   0  0  0  0  0  0  0  0  0  0  0  0
  1  2  1  0
  2  3  1  0
  3  4  1  0
  4  5  1  0
  5  6  1  0
  6  7  1  0
  7  8  1  0
  7  9  1  0
  2 10  1  0
 10 11  1  0
 11 12  1  0
 12 13  1  0
 13 14  1  6
 13 15  1  0
 15 16  1  0
 16 17  1  0
 17 18  2  0
 18 19  1  0
 19 20  1  0
 20 21  1  0
 21 22  1  0
 22 23  1  0
 22 24  1  0
 24 25  1  0
 24 26  1  0
 19 27  1  0
 27 28  1  1
 27 29  1  0
 29 30  1  0
 30 31  1  0
 31 32  1  1
  7  5  1  0
 31 10  1  0
 31 13  1  0
 27 15  1  0
 24 18  1  0
  1 33  1  0
  1 34  1  0
  1 35  1  0
  2 36  1  6
  3 37  1  0
  3 38  1  0
  4 39  1  0
  4 40  1  0
  5 41  1  1
  8 42  1  0
  8 43  1  0
  8 44  1  0
  9 45  1  0
  9 46  1  0
  9 47  1  0
 10 48  1  6
 11 49  1  0
 11 50  1  0
 12 51  1  0
 12 52  1  0
 14 53  1  0
 14 54  1  0
 14 55  1  0
 15 56  1  1
 16 57  1  0
 16 58  1  0
 17 59  1  0
 19 60  1  6
 20 61  1  0
 20 62  1  0
 21 63  1  0
 21 64  1  0
 22 65  1  6
 23 66  1  0
 25 67  1  0
 25 68  1  0
 25 69  1  0
 26 70  1  0
 26 71  1  0
 26 72  1  0
 28 73  1  0
 28 74  1  0
 28 75  1  0
 29 76  1  0
 29 77  1  0
 30 78  1  0
 30 79  1  0
 32 80  1  0
 32 81  1  0
 32 82  1  0
M  END
>  <meeko>  (17) 
{"is_sidechain": [false], "intermolecular_energy": 2.731, "internal_energy": -0.839}

$$$$
EPH_relaxed_0001_pdb2pqr_Repair_6_r2_0001_out
     RDKit          3D

 82 86  0  0  0  0  0  0  0  0999 V2000
    3.1400   14.7910   -7.5290 C   0  0  0  0  0  0  0  0  0  0  0  0
    1.6200   14.9010   -7.3760 C   0  0  2  0  0  0  0  0  0  0  0  0
    1.0640   16.1890   -8.0150 C   0  0  0  0  0  0  0  0  0  0  0  0
    1.9810   16.7930   -9.0820 C   0  0  0  0  0  0  0  0  0  0  0  0
    1.5770   16.3740  -10.4630 C   0  0  2  0  0  0  0  0  0  0  0  0
    0.9700   15.0770  -10.5410 O   0  0  0  0  0  0  0  0  0  0  0  0
    2.2300   15.2290  -11.2150 C   0  0  0  0  0  0  0  0  0  0  0  0
    3.3440   14.4330  -10.6100 C   0  0  0  0  0  0  0  0  0  0  0  0
    2.1230   15.2010  -12.7080 C   0  0  0  0  0  0  0  0  0  0  0  0
    1.2420   14.8470   -5.9000 C   0  0  1  0  0  0  0  0  0  0  0  0
    0.0030   15.7210   -5.5690 C   0  0  0  0  0  0  0  0  0  0  0  0
   -0.7830   14.9790   -4.4570 C   0  0  0  0  0  0  0  0  0  0  0  0
    0.1890   13.8850   -3.9550 C   0  0  1  0  0  0  0  0  0  0  0  0
    1.1440   14.6210   -2.9640 C   0  0  0  0  0  0  0  0  0  0  0  0
   -0.4660   12.6270   -3.2990 C   0  0  2  0  0  0  0  0  0  0  0  0
   -1.2730   12.9040   -2.0180 C   0  0  0  0  0  0  0  0  0  0  0  0
   -0.4980   12.8180   -0.7450 C   0  0  0  0  0  0  0  0  0  0  0  0
    0.7160   12.2540   -0.6050 C   0  0  0  0  0  0  0  0  0  0  0  0
    1.3930   11.5390   -1.7820 C   0  0  1  0  0  0  0  0  0  0  0  0
    1.9590   10.1770   -1.3030 C   0  0  0  0  0  0  0  0  0  0  0  0
    2.8830   10.3180   -0.0970 C   0  0  0  0  0  0  0  0  0  0  0  0
    2.1570   10.9810    1.0710 C   0  0  2  0  0  0  0  0  0  0  0  0
    1.1310   10.0990    1.5370 O   0  0  0  0  0  0  0  0  0  0  0  0
    1.5350   12.3580    0.7050 C   0  0  0  0  0  0  0  0  0  0  0  0
    2.6630   13.3980    0.4920 C   0  0  0  0  0  0  0  0  0  0  0  0
    0.7140   12.8510    1.9260 C   0  0  0  0  0  0  0  0  0  0  0  0
    0.5230   11.4070   -3.1060 C   0  0  1  0  0  0  0  0  0  0  0  0
   -0.3600   10.1240   -3.0370 C   0  0  0  0  0  0  0  0  0  0  0  0
    1.4870   11.2170   -4.3360 C   0  0  0  0  0  0  0  0  0  0  0  0
    2.0050   12.4990   -5.0170 C   0  0  0  0  0  0  0  0  0  0  0  0
    0.8550   13.4650   -5.3160 C   0  0  2  0  0  0  0  0  0  0  0  0
   -0.1100   12.7600   -6.3290 C   0  0  0  0  0  0  0  0  0  0  0  0
    3.6072   14.7572   -6.5337 H   0  0  0  0  0  0  0  0  0  0  0  0
    3.3874   13.8726   -8.0816 H   0  0  0  0  0  0  0  0  0  0  0  0
    3.5170   15.6642   -8.0816 H   0  0  0  0  0  0  0  0  0  0  0  0
    1.1709   14.0487   -7.9070 H   0  0  0  0  0  0  0  0  0  0  0  0
    0.0957   15.9550   -8.4815 H   0  0  0  0  0  0  0  0  0  0  0  0
    0.9737   16.9336   -7.2103 H   0  0  0  0  0  0  0  0  0  0  0  0
    1.9326   17.8898   -9.0140 H   0  0  0  0  0  0  0  0  0  0  0  0
    3.0036   16.4310   -8.8996 H   0  0  0  0  0  0  0  0  0  0  0  0
    1.3679   17.4168  -10.7439 H   0  0  0  0  0  0  0  0  0  0  0  0
    3.2758   14.4817   -9.5132 H   0  0  0  0  0  0  0  0  0  0  0  0
    3.2652   13.3854  -10.9361 H   0  0  0  0  0  0  0  0  0  0  0  0
    4.3096   14.8469  -10.9361 H   0  0  0  0  0  0  0  0  0  0  0  0
    1.0962   14.9323  -12.9970 H   0  0  0  0  0  0  0  0  0  0  0  0
    2.3697   16.1939  -13.1120 H   0  0  0  0  0  0  0  0  0  0  0  0
    2.8244   14.4562  -13.1120 H   0  0  0  0  0  0  0  0  0  0  0  0
    2.1861   15.1931   -5.4541 H   0  0  0  0  0  0  0  0  0  0  0  0
    0.3223   16.7109   -5.2112 H   0  0  0  0  0  0  0  0  0  0  0  0
   -0.6227   15.8734   -6.4607 H   0  0  0  0  0  0  0  0  0  0  0  0
   -1.0461   15.6686   -3.6414 H   0  0  0  0  0  0  0  0  0  0  0  0
   -1.7300   14.5581   -4.8258 H   0  0  0  0  0  0  0  0  0  0  0  0
    0.8468   14.3919   -1.9300 H   0  0  0  0  0  0  0  0  0  0  0  0
    2.1774   14.2835   -3.1318 H   0  0  0  0  0  0  0  0  0  0  0  0
    1.0809   15.7063   -3.1318 H   0  0  0  0  0  0  0  0  0  0  0  0
   -1.2032   12.3235   -4.0569 H   0  0  0  0  0  0  0  0  0  0  0  0
   -1.6921   13.9183   -2.0929 H   0  0  0  0  0  0  0  0  0  0  0  0
   -2.0371   12.1146   -1.9630 H   0  0  0  0  0  0  0  0  0  0  0  0
   -0.9581   13.2524    0.1548 H   0  0  0  0  0  0  0  0  0  0  0  0
    2.2167   12.1935   -2.1031 H   0  0  0  0  0  0  0  0  0  0  0  0
    1.1183    9.5229   -1.0283 H   0  0  0  0  0  0  0  0  0  0  0  0
    2.5499    9.7526   -2.1281 H   0  0  0  0  0  0  0  0  0  0  0  0
    3.2263    9.3198    0.2123 H   0  0  0  0  0  0  0  0  0  0  0  0
    3.7389   10.9476   -0.3817 H   0  0  0  0  0  0  0  0  0  0  0  0
    2.9033   11.1728    1.8560 H   0  0  0  0  0  0  0  0  0  0  0  0
    1.3560    9.2020    1.2370 H   0  0  0  0  0  0  0  0  0  0  0  0
    3.0349   13.7408    1.4688 H   0  0  0  0  0  0  0  0  0  0  0  0
    3.4864   12.9355   -0.0720 H   0  0  0  0  0  0  0  0  0  0  0  0
    2.2688   14.2562   -0.0720 H   0  0  0  0  0  0  0  0  0  0  0  0
    1.2196   12.5474    2.8545 H   0  0  0  0  0  0  0  0  0  0  0  0
    0.6326   13.9475    1.8945 H   0  0  0  0  0  0  0  0  0  0  0  0
   -0.2922   12.4076    1.8945 H   0  0  0  0  0  0  0  0  0  0  0  0
   -0.5416    9.8601   -1.9847 H   0  0  0  0  0  0  0  0  0  0  0  0
   -1.3205   10.3125   -3.5388 H   0  0  0  0  0  0  0  0  0  0  0  0
    0.1592    9.2942   -3.5388 H   0  0  0  0  0  0  0  0  0  0  0  0
    2.3619   10.6479   -3.9884 H   0  0  0  0  0  0  0  0  0  0  0  0
    0.8812   10.7092   -5.1009 H   0  0  0  0  0  0  0  0  0  0  0  0
    2.7264   12.9940   -4.3503 H   0  0  0  0  0  0  0  0  0  0  0  0
    2.4854   12.2215   -5.9669 H   0  0  0  0  0  0  0  0  0  0  0  0
   -0.8773   12.1994   -5.7750 H   0  0  0  0  0  0  0  0  0  0  0  0
   -0.5949   13.5180   -6.9616 H   0  0  0  0  0  0  0  0  0  0  0  0
    0.4647   12.0676   -6.9616 H   0  0  0  0  0  0  0  0  0  0  0  0
  1  2  1  0
  2  3  1  0
  3  4  1  0
  4  5  1  0
  5  6  1  0
  6  7  1  0
  7  8  1  0
  7  9  1  0
  2 10  1  0
 10 11  1  0
 11 12  1  0
 12 13  1  0
 13 14  1  1
 13 15  1  0
 15 16  1  0
 16 17  1  0
 17 18  2  0
 18 19  1  0
 19 20  1  0
 20 21  1  0
 21 22  1  0
 22 23  1  0
 22 24  1  0
 24 25  1  0
 24 26  1  0
 19 27  1  0
 27 28  1  1
 27 29  1  0
 29 30  1  0
 30 31  1  0
 31 32  1  6
  7  5  1  0
 31 10  1  0
 31 13  1  0
 27 15  1  0
 24 18  1  0
  1 33  1  0
  1 34  1  0
  1 35  1  0
  2 36  1  6
  3 37  1  0
  3 38  1  0
  4 39  1  0
  4 40  1  0
  5 41  1  6
  8 42  1  0
  8 43  1  0
  8 44  1  0
  9 45  1  0
  9 46  1  0
  9 47  1  0
 10 48  1  1
 11 49  1  0
 11 50  1  0
 12 51  1  0
 12 52  1  0
 14 53  1  0
 14 54  1  0
 14 55  1  0
 15 56  1  6
 16 57  1  0
 16 58  1  0
 17 59  1  0
 19 60  1  6
 20 61  1  0
 20 62  1  0
 21 63  1  0
 21 64  1  0
 22 65  1  1
 23 66  1  0
 25 67  1  0
 25 68  1  0
 25 69  1  0
 26 70  1  0
 26 71  1  0
 26 72  1  0
 28 73  1  0
 28 74  1  0
 28 75  1  0
 29 76  1  0
 29 77  1  0
 30 78  1  0
 30 79  1  0
 32 80  1  0
 32 81  1  0
 32 82  1  0
M  END
>  <meeko>  (18) 
{"is_sidechain": [false], "intermolecular_energy": 2.731, "internal_energy": -0.839}

$$$$
EPH_relaxed_0001_pdb2pqr_Repair_6_r2_0001_out
     RDKit          3D

 82 86  0  0  0  0  0  0  0  0999 V2000
    0.3500   10.7200   -4.1760 C   0  0  0  0  0  0  0  0  0  0  0  0
    1.2080   10.3750   -2.9560 C   0  0  2  0  0  0  0  0  0  0  0  0
    0.7110    9.1050   -2.2360 C   0  0  0  0  0  0  0  0  0  0  0  0
    0.2840    9.3470   -0.7860 C   0  0  0  0  0  0  0  0  0  0  0  0
   -1.1410    8.9440   -0.5540 C   0  0  2  0  0  0  0  0  0  0  0  0
   -1.9580    8.9270   -1.7310 O   0  0  0  0  0  0  0  0  0  0  0  0
   -2.3160    9.8880   -0.7250 C   0  0  0  0  0  0  0  0  0  0  0  0
   -2.1190   11.3110   -1.1440 C   0  0  0  0  0  0  0  0  0  0  0  0
   -3.5970    9.5710   -0.0180 C   0  0  0  0  0  0  0  0  0  0  0  0
    1.2270   11.5500   -1.9850 C   0  0  1  0  0  0  0  0  0  0  0  0
    2.2850   11.3810   -0.8620 C   0  0  0  0  0  0  0  0  0  0  0  0
    2.8350   12.7960   -0.5480 C   0  0  0  0  0  0  0  0  0  0  0  0
    1.8520   13.7610   -1.2520 C   0  0  1  0  0  0  0  0  0  0  0  0
    0.6380   13.8790   -0.2780 C   0  0  0  0  0  0  0  0  0  0  0  0
    2.4200   15.1650   -1.6390 C   0  0  2  0  0  0  0  0  0  0  0  0
    2.8760   16.0330   -0.4530 C   0  0  0  0  0  0  0  0  0  0  0  0
    1.8290   16.9270    0.1230 C   0  0  0  0  0  0  0  0  0  0  0  0
    0.6600   17.2420   -0.4650 C   0  0  0  0  0  0  0  0  0  0  0  0
    0.3360   16.7580   -1.8840 C   0  0  1  0  0  0  0  0  0  0  0  0
   -0.2290   17.9380   -2.7170 C   0  0  0  0  0  0  0  0  0  0  0  0
   -1.4210   18.6110   -2.0450 C   0  0  0  0  0  0  0  0  0  0  0  0
   -1.0440   19.1310   -0.6600 C   0  0  2  0  0  0  0  0  0  0  0  0
   -0.0990   20.1950   -0.8080 O   0  0  0  0  0  0  0  0  0  0  0  0
   -0.4540   18.0320    0.2670 C   0  0  0  0  0  0  0  0  0  0  0  0
   -1.5700   17.0370    0.6710 C   0  0  0  0  0  0  0  0  0  0  0  0
    0.0150   18.7150    1.5800 C   0  0  0  0  0  0  0  0  0  0  0  0
    1.5030   15.9840   -2.6350 C   0  0  1  0  0  0  0  0  0  0  0  0
    2.4340   17.0010   -3.3630 C   0  0  0  0  0  0  0  0  0  0  0  0
    0.8770   15.0740   -3.7570 C   0  0  0  0  0  0  0  0  0  0  0  0
    0.4450   13.6550   -3.3400 C   0  0  0  0  0  0  0  0  0  0  0  0
    1.5610   12.9470   -2.5650 C   0  0  2  0  0  0  0  0  0  0  0  0
    2.7880   12.7950   -3.5270 C   0  0  0  0  0  0  0  0  0  0  0  0
   -0.6223   11.1110   -3.8417 H   0  0  0  0  0  0  0  0  0  0  0  0
    0.8630   11.4818   -4.7814 H   0  0  0  0  0  0  0  0  0  0  0  0
    0.1928    9.8152   -4.7814 H   0  0  0  0  0  0  0  0  0  0  0  0
    2.2277   10.1727   -3.3156 H   0  0  0  0  0  0  0  0  0  0  0  0
   -0.1517    8.7067   -2.7902 H   0  0  0  0  0  0  0  0  0  0  0  0
    1.5546    8.3996   -2.2093 H   0  0  0  0  0  0  0  0  0  0  0  0
    0.9336    8.7599   -0.1202 H   0  0  0  0  0  0  0  0  0  0  0  0
    0.3749   10.4230   -0.5764 H   0  0  0  0  0  0  0  0  0  0  0  0
   -0.8428    8.2788    0.2698 H   0  0  0  0  0  0  0  0  0  0  0  0
   -2.0309   11.9473   -0.2511 H   0  0  0  0  0  0  0  0  0  0  0  0
   -1.2010   11.3927   -1.7445 H   0  0  0  0  0  0  0  0  0  0  0  0
   -2.9803   11.6390   -1.7445 H   0  0  0  0  0  0  0  0  0  0  0  0
   -3.4353    9.6110    1.0693 H   0  0  0  0  0  0  0  0  0  0  0  0
   -4.3642   10.3064   -0.3019 H   0  0  0  0  0  0  0  0  0  0  0  0
   -3.9327    8.5627   -0.3019 H   0  0  0  0  0  0  0  0  0  0  0  0
    0.1813   11.5238   -1.6448 H   0  0  0  0  0  0  0  0  0  0  0  0
    1.8188   10.9482    0.0354 H   0  0  0  0  0  0  0  0  0  0  0  0
    3.0927   10.7051   -1.1793 H   0  0  0  0  0  0  0  0  0  0  0  0
    2.8463   12.9764    0.5370 H   0  0  0  0  0  0  0  0  0  0  0  0
    3.8703   12.9280   -0.8954 H   0  0  0  0  0  0  0  0  0  0  0  0
    0.9969   13.8441    0.7612 H   0  0  0  0  0  0  0  0  0  0  0  0
    0.1177   14.8320   -0.4544 H   0  0  0  0  0  0  0  0  0  0  0  0
   -0.0561   13.0441   -0.4544 H   0  0  0  0  0  0  0  0  0  0  0  0
    3.3360   14.9050   -2.1898 H   0  0  0  0  0  0  0  0  0  0  0  0
    3.2259   15.3614    0.3449 H   0  0  0  0  0  0  0  0  0  0  0  0
    3.6602   16.6969   -0.8458 H   0  0  0  0  0  0  0  0  0  0  0  0
    2.0296   17.3656    1.1116 H   0  0  0  0  0  0  0  0  0  0  0  0
   -0.4325   15.9790   -1.7722 H   0  0  0  0  0  0  0  0  0  0  0  0
    0.5665   18.6853   -2.8543 H   0  0  0  0  0  0  0  0  0  0  0  0
   -0.5740   17.5320   -3.6794 H   0  0  0  0  0  0  0  0  0  0  0  0
   -1.7564   19.4539   -2.6671 H   0  0  0  0  0  0  0  0  0  0  0  0
   -2.2266   17.8701   -1.9348 H   0  0  0  0  0  0  0  0  0  0  0  0
   -1.9672   19.4850   -0.1780 H   0  0  0  0  0  0  0  0  0  0  0  0
    0.2280   20.1720   -1.7230 H   0  0  0  0  0  0  0  0  0  0  0  0
   -1.6323   16.9815    1.7678 H   0  0  0  0  0  0  0  0  0  0  0  0
   -2.5329   17.3818    0.2661 H   0  0  0  0  0  0  0  0  0  0  0  0
   -1.3375   16.0410    0.2661 H   0  0  0  0  0  0  0  0  0  0  0  0
   -0.3707   18.1533    2.4435 H   0  0  0  0  0  0  0  0  0  0  0  0
    1.1144   18.7294    1.6134 H   0  0  0  0  0  0  0  0  0  0  0  0
   -0.3664   19.7462    1.6134 H   0  0  0  0  0  0  0  0  0  0  0  0
    2.9799   17.5973   -2.6171 H   0  0  0  0  0  0  0  0  0  0  0  0
    3.1519   16.4551   -3.9928 H   0  0  0  0  0  0  0  0  0  0  0  0
    1.8270   17.6680   -3.9928 H   0  0  0  0  0  0  0  0  0  0  0  0
   -0.0118   15.5912   -4.1475 H   0  0  0  0  0  0  0  0  0  0  0  0
    1.6833   14.9255   -4.4903 H   0  0  0  0  0  0  0  0  0  0  0  0
   -0.4483   13.7239   -2.7019 H   0  0  0  0  0  0  0  0  0  0  0  0
    0.2260   13.0742   -4.2481 H   0  0  0  0  0  0  0  0  0  0  0  0
    3.7072   12.6811   -2.9337 H   0  0  0  0  0  0  0  0  0  0  0  0
    2.6488   11.9072   -4.1614 H   0  0  0  0  0  0  0  0  0  0  0  0
    2.8696   13.6899   -4.1614 H   0  0  0  0  0  0  0  0  0  0  0  0
  1  2  1  0
  2  3  1  0
  3  4  1  0
  4  5  1  0
  5  6  1  0
  6  7  1  0
  7  8  1  0
  7  9  1  0
  2 10  1  0
 10 11  1  0
 11 12  1  0
 12 13  1  0
 13 14  1  1
 13 15  1  0
 15 16  1  0
 16 17  1  0
 17 18  2  0
 18 19  1  0
 19 20  1  0
 20 21  1  0
 21 22  1  0
 22 23  1  0
 22 24  1  0
 24 25  1  0
 24 26  1  0
 19 27  1  0
 27 28  1  6
 27 29  1  0
 29 30  1  0
 30 31  1  0
 31 32  1  6
  7  5  1  0
 31 10  1  0
 31 13  1  0
 27 15  1  0
 24 18  1  0
  1 33  1  0
  1 34  1  0
  1 35  1  0
  2 36  1  6
  3 37  1  0
  3 38  1  0
  4 39  1  0
  4 40  1  0
  5 41  1  1
  8 42  1  0
  8 43  1  0
  8 44  1  0
  9 45  1  0
  9 46  1  0
  9 47  1  0
 10 48  1  1
 11 49  1  0
 11 50  1  0
 12 51  1  0
 12 52  1  0
 14 53  1  0
 14 54  1  0
 14 55  1  0
 15 56  1  6
 16 57  1  0
 16 58  1  0
 17 59  1  0
 19 60  1  1
 20 61  1  0
 20 62  1  0
 21 63  1  0
 21 64  1  0
 22 65  1  1
 23 66  1  0
 25 67  1  0
 25 68  1  0
 25 69  1  0
 26 70  1  0
 26 71  1  0
 26 72  1  0
 28 73  1  0
 28 74  1  0
 28 75  1  0
 29 76  1  0
 29 77  1  0
 30 78  1  0
 30 79  1  0
 32 80  1  0
 32 81  1  0
 32 82  1  0
M  END
>  <meeko>  (19) 
{"is_sidechain": [false], "intermolecular_energy": 2.731, "internal_energy": -0.839}

$$$$
