EPH_relaxed_0001_pdb2pqr_Repair_249_r2_0001_out
     RDKit          3D

 82 86  0  0  0  0  0  0  0  0999 V2000
   -1.4850    8.5650   -1.7440 C   0  0  0  0  0  0  0  0  0  0  0  0
   -1.8310    9.2070   -0.3980 C   0  0  2  0  0  0  0  0  0  0  0  0
   -3.2990    9.6770   -0.3400 C   0  0  0  0  0  0  0  0  0  0  0  0
   -4.3080    8.5310   -0.2260 C   0  0  0  0  0  0  0  0  0  0  0  0
   -4.9500    8.2240   -1.5450 C   0  0  2  0  0  0  0  0  0  0  0  0
   -6.3450    8.5480   -1.6200 O   0  0  0  0  0  0  0  0  0  0  0  0
   -6.0110    7.1550   -1.7300 C   0  0  0  0  0  0  0  0  0  0  0  0
   -6.4880    6.3220   -0.5820 C   0  0  0  0  0  0  0  0  0  0  0  0
   -6.2240    6.5900   -3.1000 C   0  0  0  0  0  0  0  0  0  0  0  0
   -0.8980   10.3810   -0.1270 C   0  0  1  0  0  0  0  0  0  0  0  0
    0.2520   10.0160    0.8500 C   0  0  0  0  0  0  0  0  0  0  0  0
    1.4990   10.8150    0.3920 C   0  0  0  0  0  0  0  0  0  0  0  0
    0.9490   11.8540   -0.6140 C   0  0  1  0  0  0  0  0  0  0  0  0
    0.3790   13.0060    0.2710 C   0  0  0  0  0  0  0  0  0  0  0  0
    1.9610   12.3890   -1.6780 C   0  0  2  0  0  0  0  0  0  0  0  0
    3.1670   13.1550   -1.1040 C   0  0  0  0  0  0  0  0  0  0  0  0
    2.9750   14.6280   -0.9560 C   0  0  0  0  0  0  0  0  0  0  0  0
    1.9950   15.3500   -1.5300 C   0  0  0  0  0  0  0  0  0  0  0  0
    1.0040   14.7000   -2.5040 C   0  0  1  0  0  0  0  0  0  0  0  0
    0.8480   15.5980   -3.7590 C   0  0  0  0  0  0  0  0  0  0  0  0
    0.4650   17.0330   -3.4090 C   0  0  0  0  0  0  0  0  0  0  0  0
    1.5040   17.6640   -2.4860 C   0  0  2  0  0  0  0  0  0  0  0  0
    2.7320   17.8110   -3.2060 O   0  0  0  0  0  0  0  0  0  0  0  0
    1.7530   16.8420   -1.1910 C   0  0  0  0  0  0  0  0  0  0  0  0
    0.5130   16.9360   -0.2680 C   0  0  0  0  0  0  0  0  0  0  0  0
    2.9210   17.5120   -0.4170 C   0  0  0  0  0  0  0  0  0  0  0  0
    1.2890   13.1810   -2.8720 C   0  0  1  0  0  0  0  0  0  0  0  0
    2.2810   13.1010   -4.0730 C   0  0  0  0  0  0  0  0  0  0  0  0
   -0.0500   12.5090   -3.3560 C   0  0  0  0  0  0  0  0  0  0  0  0
   -0.9510   11.8920   -2.2690 C   0  0  0  0  0  0  0  0  0  0  0  0
   -0.1420   10.9840   -1.3380 C   0  0  2  0  0  0  0  0  0  0  0  0
    0.4250    9.8020   -2.1960 C   0  0  0  0  0  0  0  0  0  0  0  0
   -0.9695    7.6085   -1.5723 H   0  0  0  0  0  0  0  0  0  0  0  0
   -2.4091    8.3865   -2.3134 H   0  0  0  0  0  0  0  0  0  0  0  0
   -0.8278    9.2387   -2.3134 H   0  0  0  0  0  0  0  0  0  0  0  0
   -1.6982    8.4396    0.3788 H   0  0  0  0  0  0  0  0  0  0  0  0
   -3.4191   10.3337    0.5342 H   0  0  0  0  0  0  0  0  0  0  0  0
   -3.5080   10.1964   -1.2869 H   0  0  0  0  0  0  0  0  0  0  0  0
   -3.7869    7.6319    0.1346 H   0  0  0  0  0  0  0  0  0  0  0  0
   -5.0972    8.8377    0.4762 H   0  0  0  0  0  0  0  0  0  0  0  0
   -4.0104    8.4308   -2.0783 H   0  0  0  0  0  0  0  0  0  0  0  0
   -6.2095    6.8083    0.3645 H   0  0  0  0  0  0  0  0  0  0  0  0
   -7.5820    6.2190   -0.6333 H   0  0  0  0  0  0  0  0  0  0  0  0
   -6.0232    5.3264   -0.6333 H   0  0  0  0  0  0  0  0  0  0  0  0
   -6.6109    5.5636   -3.0173 H   0  0  0  0  0  0  0  0  0  0  0  0
   -6.9492    7.2125   -3.6447 H   0  0  0  0  0  0  0  0  0  0  0  0
   -5.2684    6.5788   -3.6447 H   0  0  0  0  0  0  0  0  0  0  0  0
   -1.6254   11.1085    0.2624 H   0  0  0  0  0  0  0  0  0  0  0  0
   -0.0210   10.2965    1.8780 H   0  0  0  0  0  0  0  0  0  0  0  0
    0.4505    8.9341    0.8395 H   0  0  0  0  0  0  0  0  0  0  0  0
    1.9745   11.3168    1.2476 H   0  0  0  0  0  0  0  0  0  0  0  0
    2.2680   10.1679   -0.0551 H   0  0  0  0  0  0  0  0  0  0  0  0
    0.5059   12.7495    1.3331 H   0  0  0  0  0  0  0  0  0  0  0  0
    0.9196   13.9386    0.0519 H   0  0  0  0  0  0  0  0  0  0  0  0
   -0.6903   13.1420    0.0519 H   0  0  0  0  0  0  0  0  0  0  0  0
    2.3703   11.4601   -2.1018 H   0  0  0  0  0  0  0  0  0  0  0  0
    3.3916   12.7400   -0.1104 H   0  0  0  0  0  0  0  0  0  0  0  0
    3.9831   13.0259   -1.8301 H   0  0  0  0  0  0  0  0  0  0  0  0
    3.6952   15.1689   -0.3246 H   0  0  0  0  0  0  0  0  0  0  0  0
    0.0457   14.6384   -1.9674 H   0  0  0  0  0  0  0  0  0  0  0  0
    1.8035   15.6112   -4.3039 H   0  0  0  0  0  0  0  0  0  0  0  0
    0.0376   15.1766   -4.3719 H   0  0  0  0  0  0  0  0  0  0  0  0
    0.3989   17.6241   -4.3343 H   0  0  0  0  0  0  0  0  0  0  0  0
   -0.5051   17.0215   -2.8905 H   0  0  0  0  0  0  0  0  0  0  0  0
    1.1113   18.6407   -2.1667 H   0  0  0  0  0  0  0  0  0  0  0  0
    2.6520   17.3030   -4.0310 H   0  0  0  0  0  0  0  0  0  0  0  0
    0.8358   16.9115    0.7833 H   0  0  0  0  0  0  0  0  0  0  0  0
   -0.0209   17.8772   -0.4659 H   0  0  0  0  0  0  0  0  0  0  0  0
   -0.1566   16.0860   -0.4659 H   0  0  0  0  0  0  0  0  0  0  0  0
    2.7484   17.4130    0.6649 H   0  0  0  0  0  0  0  0  0  0  0  0
    3.8678   17.0197   -0.6838 H   0  0  0  0  0  0  0  0  0  0  0  0
    2.9740   18.5778   -0.6838 H   0  0  0  0  0  0  0  0  0  0  0  0
    3.3102   13.0180   -3.6936 H   0  0  0  0  0  0  0  0  0  0  0  0
    2.0440   12.2191   -4.6862 H   0  0  0  0  0  0  0  0  0  0  0  0
    2.1884   14.0095   -4.6862 H   0  0  0  0  0  0  0  0  0  0  0  0
   -0.6381   13.2778   -3.8785 H   0  0  0  0  0  0  0  0  0  0  0  0
    0.2639   11.6622   -3.9840 H   0  0  0  0  0  0  0  0  0  0  0  0
   -1.4064   12.7000   -1.6775 H   0  0  0  0  0  0  0  0  0  0  0  0
   -1.7292   11.2885   -2.7590 H   0  0  0  0  0  0  0  0  0  0  0  0
    0.8033    9.0133   -1.5290 H   0  0  0  0  0  0  0  0  0  0  0  0
   -0.3749    9.3930   -2.8307 H   0  0  0  0  0  0  0  0  0  0  0  0
    1.2447   10.1699   -2.8307 H   0  0  0  0  0  0  0  0  0  0  0  0
  1  2  1  0
  2  3  1  0
  3  4  1  0
  4  5  1  0
  5  6  1  0
  6  7  1  0
  7  8  1  0
  7  9  1  0
  2 10  1  0
 10 11  1  0
 11 12  1  0
 12 13  1  0
 13 14  1  1
 13 15  1  0
 15 16  1  0
 16 17  1  0
 17 18  2  0
 18 19  1  0
 19 20  1  0
 20 21  1  0
 21 22  1  0
 22 23  1  0
 22 24  1  0
 24 25  1  0
 24 26  1  0
 19 27  1  0
 27 28  1  6
 27 29  1  0
 29 30  1  0
 30 31  1  0
 31 32  1  6
  7  5  1  0
 31 10  1  0
 31 13  1  0
 27 15  1  0
 24 18  1  0
  1 33  1  0
  1 34  1  0
  1 35  1  0
  2 36  1  1
  3 37  1  0
  3 38  1  0
  4 39  1  0
  4 40  1  0
  5 41  1  6
  8 42  1  0
  8 43  1  0
  8 44  1  0
  9 45  1  0
  9 46  1  0
  9 47  1  0
 10 48  1  1
 11 49  1  0
 11 50  1  0
 12 51  1  0
 12 52  1  0
 14 53  1  0
 14 54  1  0
 14 55  1  0
 15 56  1  6
 16 57  1  0
 16 58  1  0
 17 59  1  0
 19 60  1  1
 20 61  1  0
 20 62  1  0
 21 63  1  0
 21 64  1  0
 22 65  1  1
 23 66  1  0
 25 67  1  0
 25 68  1  0
 25 69  1  0
 26 70  1  0
 26 71  1  0
 26 72  1  0
 28 73  1  0
 28 74  1  0
 28 75  1  0
 29 76  1  0
 29 77  1  0
 30 78  1  0
 30 79  1  0
 32 80  1  0
 32 81  1  0
 32 82  1  0
M  END
>  <meeko>  (1) 
{"is_sidechain": [false], "intermolecular_energy": 2.731, "internal_energy": -0.839}

$$$$
EPH_relaxed_0001_pdb2pqr_Repair_249_r2_0001_out
     RDKit          3D

 82 86  0  0  0  0  0  0  0  0999 V2000
    2.2860   18.3240   -2.1960 C   0  0  0  0  0  0  0  0  0  0  0  0
    1.7760   17.4080   -1.0790 C   0  0  2  0  0  0  0  0  0  0  0  0
    2.8910   17.0280   -0.0850 C   0  0  0  0  0  0  0  0  0  0  0  0
    3.8330   18.1860    0.2560 C   0  0  0  0  0  0  0  0  0  0  0  0
    3.5710   18.7270    1.6290 C   0  0  2  0  0  0  0  0  0  0  0  0
    3.9230   20.1060    1.8060 O   0  0  0  0  0  0  0  0  0  0  0  0
    4.6700   19.1560    2.5830 C   0  0  0  0  0  0  0  0  0  0  0  0
    6.1140   19.0610    2.2030 C   0  0  0  0  0  0  0  0  0  0  0  0
    4.3670   19.2040    4.0480 C   0  0  0  0  0  0  0  0  0  0  0  0
    1.1610   16.1500   -1.6800 C   0  0  1  0  0  0  0  0  0  0  0  0
    1.0690   16.2100   -3.2280 C   0  0  0  0  0  0  0  0  0  0  0  0
    1.3090   14.7680   -3.7460 C   0  0  0  0  0  0  0  0  0  0  0  0
    1.2010   13.8770   -2.4870 C   0  0  1  0  0  0  0  0  0  0  0  0
   -0.3320   13.6780   -2.2670 C   0  0  0  0  0  0  0  0  0  0  0  0
    1.9590   12.5110   -2.5390 C   0  0  2  0  0  0  0  0  0  0  0  0
    1.4710   11.5360   -3.6250 C   0  0  0  0  0  0  0  0  0  0  0  0
    0.3890   10.5990   -3.2010 C   0  0  0  0  0  0  0  0  0  0  0  0
    0.0280   10.3460   -1.9290 C   0  0  0  0  0  0  0  0  0  0  0  0
    0.8000   10.9590   -0.7540 C   0  0  1  0  0  0  0  0  0  0  0  0
    1.0860    9.8640    0.3060 C   0  0  0  0  0  0  0  0  0  0  0  0
   -0.1790    9.1380    0.7540 C   0  0  0  0  0  0  0  0  0  0  0  0
   -0.8870    8.4920   -0.4340 C   0  0  2  0  0  0  0  0  0  0  0  0
   -0.0620    7.4410   -0.9460 O   0  0  0  0  0  0  0  0  0  0  0  0
   -1.2180    9.4990   -1.5710 C   0  0  0  0  0  0  0  0  0  0  0  0
   -2.3410   10.4590   -1.1060 C   0  0  0  0  0  0  0  0  0  0  0  0
   -1.8010    8.6950   -2.7650 C   0  0  0  0  0  0  0  0  0  0  0  0
    2.0980   11.7920   -1.1360 C   0  0  1  0  0  0  0  0  0  0  0  0
    3.3280   10.8410   -1.2440 C   0  0  0  0  0  0  0  0  0  0  0  0
    2.4200   12.8050    0.0250 C   0  0  0  0  0  0  0  0  0  0  0  0
    1.7320   14.1820   -0.0430 C   0  0  0  0  0  0  0  0  0  0  0  0
    1.8980   14.8100   -1.4300 C   0  0  2  0  0  0  0  0  0  0  0  0
    3.4280   15.0430   -1.6700 C   0  0  0  0  0  0  0  0  0  0  0  0
    2.7759   19.2039   -1.7536 H   0  0  0  0  0  0  0  0  0  0  0  0
    3.0089   17.7760   -2.8182 H   0  0  0  0  0  0  0  0  0  0  0  0
    1.4394   18.6498   -2.8182 H   0  0  0  0  0  0  0  0  0  0  0  0
    1.0106   17.9640   -0.5177 H   0  0  0  0  0  0  0  0  0  0  0  0
    2.4215   16.6767    0.8457 H   0  0  0  0  0  0  0  0  0  0  0  0
    3.5002   16.2497   -0.5677 H   0  0  0  0  0  0  0  0  0  0  0  0
    4.8717   17.8272    0.2063 H   0  0  0  0  0  0  0  0  0  0  0  0
    3.6602   18.9941   -0.4700 H   0  0  0  0  0  0  0  0  0  0  0  0
    2.7057   18.0592    1.7529 H   0  0  0  0  0  0  0  0  0  0  0  0
    6.7307   19.0204    3.1130 H   0  0  0  0  0  0  0  0  0  0  0  0
    6.2775   18.1502    1.6083 H   0  0  0  0  0  0  0  0  0  0  0  0
    6.3954   19.9426    1.6083 H   0  0  0  0  0  0  0  0  0  0  0  0
    5.2953   19.0569    4.6194 H   0  0  0  0  0  0  0  0  0  0  0  0
    3.9320   20.1823    4.3006 H   0  0  0  0  0  0  0  0  0  0  0  0
    3.6510   18.4081    4.3006 H   0  0  0  0  0  0  0  0  0  0  0  0
    0.1926   16.1506   -1.1583 H   0  0  0  0  0  0  0  0  0  0  0  0
    0.0731   16.5621   -3.5350 H   0  0  0  0  0  0  0  0  0  0  0  0
    1.8125   16.9073   -3.6414 H   0  0  0  0  0  0  0  0  0  0  0  0
    0.5442   14.4890   -4.4857 H   0  0  0  0  0  0  0  0  0  0  0  0
    2.2815   14.6624   -4.2490 H   0  0  0  0  0  0  0  0  0  0  0  0
   -0.5471   13.6501   -1.1886 H   0  0  0  0  0  0  0  0  0  0  0  0
   -0.8801   14.5125   -2.7287 H   0  0  0  0  0  0  0  0  0  0  0  0
   -0.6488   12.7312   -2.7287 H   0  0  0  0  0  0  0  0  0  0  0  0
    2.9718   12.8144   -2.8426 H   0  0  0  0  0  0  0  0  0  0  0  0
    1.0942   12.1300   -4.4706 H   0  0  0  0  0  0  0  0  0  0  0  0
    2.3363   10.9064   -3.8798 H   0  0  0  0  0  0  0  0  0  0  0  0
   -0.1595   10.0708   -3.9948 H   0  0  0  0  0  0  0  0  0  0  0  0
    0.1408   11.7289   -0.3265 H   0  0  0  0  0  0  0  0  0  0  0  0
    1.7805    9.1283   -0.1257 H   0  0  0  0  0  0  0  0  0  0  0  0
    1.5172   10.3587    1.1888 H   0  0  0  0  0  0  0  0  0  0  0  0
    0.0920    8.3570    1.4797 H   0  0  0  0  0  0  0  0  0  0  0  0
   -0.8600    9.8699    1.2129 H   0  0  0  0  0  0  0  0  0  0  0  0
   -1.8493    8.1007   -0.0724 H   0  0  0  0  0  0  0  0  0  0  0  0
   -0.4310    7.1700   -1.8040 H   0  0  0  0  0  0  0  0  0  0  0  0
   -2.3702   10.4839   -0.0067 H   0  0  0  0  0  0  0  0  0  0  0  0
   -2.1416   11.4701   -1.4905 H   0  0  0  0  0  0  0  0  0  0  0  0
   -3.3088   10.1047   -1.4905 H   0  0  0  0  0  0  0  0  0  0  0  0
   -2.4067    7.8597   -2.3837 H   0  0  0  0  0  0  0  0  0  0  0  0
   -2.4317    9.3552   -3.3785 H   0  0  0  0  0  0  0  0  0  0  0  0
   -0.9775    8.3007   -3.3785 H   0  0  0  0  0  0  0  0  0  0  0  0
    3.6742   10.5733   -0.2348 H   0  0  0  0  0  0  0  0  0  0  0  0
    3.0396    9.9287   -1.7867 H   0  0  0  0  0  0  0  0  0  0  0  0
    4.1383   11.3498   -1.7867 H   0  0  0  0  0  0  0  0  0  0  0  0
    2.1227   12.3310    0.9721 H   0  0  0  0  0  0  0  0  0  0  0  0
    3.4956   13.0160   -0.0675 H   0  0  0  0  0  0  0  0  0  0  0  0
    0.6599   14.0595    0.1705 H   0  0  0  0  0  0  0  0  0  0  0  0
    2.1995   14.8447    0.7002 H   0  0  0  0  0  0  0  0  0  0  0  0
    3.9433   15.1215   -0.7013 H   0  0  0  0  0  0  0  0  0  0  0  0
    3.8429   14.1977   -2.2386 H   0  0  0  0  0  0  0  0  0  0  0  0
    3.5724   15.9735   -2.2386 H   0  0  0  0  0  0  0  0  0  0  0  0
  1  2  1  0
  2  3  1  0
  3  4  1  0
  4  5  1  0
  5  6  1  0
  6  7  1  0
  7  8  1  0
  7  9  1  0
  2 10  1  0
 10 11  1  0
 11 12  1  0
 12 13  1  0
 13 14  1  1
 13 15  1  0
 15 16  1  0
 16 17  1  0
 17 18  2  0
 18 19  1  0
 19 20  1  0
 20 21  1  0
 21 22  1  0
 22 23  1  0
 22 24  1  0
 24 25  1  0
 24 26  1  0
 19 27  1  0
 27 28  1  6
 27 29  1  0
 29 30  1  0
 30 31  1  0
 31 32  1  6
  7  5  1  0
 31 10  1  0
 31 13  1  0
 27 15  1  0
 24 18  1  0
  1 33  1  0
  1 34  1  0
  1 35  1  0
  2 36  1  1
  3 37  1  0
  3 38  1  0
  4 39  1  0
  4 40  1  0
  5 41  1  1
  8 42  1  0
  8 43  1  0
  8 44  1  0
  9 45  1  0
  9 46  1  0
  9 47  1  0
 10 48  1  1
 11 49  1  0
 11 50  1  0
 12 51  1  0
 12 52  1  0
 14 53  1  0
 14 54  1  0
 14 55  1  0
 15 56  1  6
 16 57  1  0
 16 58  1  0
 17 59  1  0
 19 60  1  1
 20 61  1  0
 20 62  1  0
 21 63  1  0
 21 64  1  0
 22 65  1  1
 23 66  1  0
 25 67  1  0
 25 68  1  0
 25 69  1  0
 26 70  1  0
 26 71  1  0
 26 72  1  0
 28 73  1  0
 28 74  1  0
 28 75  1  0
 29 76  1  0
 29 77  1  0
 30 78  1  0
 30 79  1  0
 32 80  1  0
 32 81  1  0
 32 82  1  0
M  END
>  <meeko>  (2) 
{"is_sidechain": [false], "intermolecular_energy": 2.731, "internal_energy": -0.839}

$$$$
EPH_relaxed_0001_pdb2pqr_Repair_249_r2_0001_out
     RDKit          3D

 82 86  0  0  0  0  0  0  0  0999 V2000
    2.3810   18.0610   -2.6950 C   0  0  0  0  0  0  0  0  0  0  0  0
    0.8580   17.9820   -2.8380 C   0  0  2  0  0  0  0  0  0  0  0  0
    0.1300   18.5430   -1.6000 C   0  0  0  0  0  0  0  0  0  0  0  0
    0.7320   18.0820   -0.2700 C   0  0  0  0  0  0  0  0  0  0  0  0
    1.2970   19.2310    0.5100 C   0  0  2  0  0  0  0  0  0  0  0  0
    2.2750   20.0090   -0.1930 O   0  0  0  0  0  0  0  0  0  0  0  0
    2.7430   19.3010    0.9670 C   0  0  0  0  0  0  0  0  0  0  0  0
    3.7120   18.2040    0.6600 C   0  0  0  0  0  0  0  0  0  0  0  0
    3.0860   20.1930    2.1190 C   0  0  0  0  0  0  0  0  0  0  0  0
    0.4330   16.5400   -3.0840 C   0  0  1  0  0  0  0  0  0  0  0  0
    0.3870   16.1790   -4.5930 C   0  0  0  0  0  0  0  0  0  0  0  0
    0.8300   14.6980   -4.7120 C   0  0  0  0  0  0  0  0  0  0  0  0
    0.7940   14.1620   -3.2620 C   0  0  1  0  0  0  0  0  0  0  0  0
   -0.7060   13.8240   -2.9960 C   0  0  0  0  0  0  0  0  0  0  0  0
    1.7240   12.9440   -2.9530 C   0  0  2  0  0  0  0  0  0  0  0  0
    1.4050   11.6620   -3.7420 C   0  0  0  0  0  0  0  0  0  0  0  0
    0.4390   10.7330   -3.0840 C   0  0  0  0  0  0  0  0  0  0  0  0
    0.0690   10.7750   -1.7910 C   0  0  0  0  0  0  0  0  0  0  0  0
    0.7140   11.7730   -0.8200 C   0  0  1  0  0  0  0  0  0  0  0  0
    1.1030   11.0410    0.4920 C   0  0  0  0  0  0  0  0  0  0  0  0
   -0.0720   10.2960    1.1160 C   0  0  0  0  0  0  0  0  0  0  0  0
   -0.6490    9.2730    0.1420 C   0  0  2  0  0  0  0  0  0  0  0  0
    0.3220    8.2450   -0.0760 O   0  0  0  0  0  0  0  0  0  0  0  0
   -1.0680    9.8920   -1.2210 C   0  0  0  0  0  0  0  0  0  0  0  0
   -2.3210   10.7810   -1.0250 C   0  0  0  0  0  0  0  0  0  0  0  0
   -1.5000    8.7340   -2.1600 C   0  0  0  0  0  0  0  0  0  0  0  0
    1.9060   12.6430   -1.4100 C   0  0  1  0  0  0  0  0  0  0  0  0
    3.2520   11.8700   -1.2630 C   0  0  0  0  0  0  0  0  0  0  0  0
    2.0540   13.9580   -0.5570 C   0  0  0  0  0  0  0  0  0  0  0  0
    1.1970   15.1640   -0.9860 C   0  0  0  0  0  0  0  0  0  0  0  0
    1.3280   15.4230   -2.4900 C   0  0  2  0  0  0  0  0  0  0  0  0
    2.8230   15.7880   -2.7840 C   0  0  0  0  0  0  0  0  0  0  0  0
    2.6489   18.0749   -1.6282 H   0  0  0  0  0  0  0  0  0  0  0  0
    2.8404   17.1855   -3.1770 H   0  0  0  0  0  0  0  0  0  0  0  0
    2.7474   18.9794   -3.1770 H   0  0  0  0  0  0  0  0  0  0  0  0
    0.5731   18.6045   -3.6990 H   0  0  0  0  0  0  0  0  0  0  0  0
    0.1746   19.6414   -1.6391 H   0  0  0  0  0  0  0  0  0  0  0  0
   -0.9017   18.1631   -1.6345 H   0  0  0  0  0  0  0  0  0  0  0  0
   -0.0536   17.5970    0.3280 H   0  0  0  0  0  0  0  0  0  0  0  0
    1.5503   17.3801   -0.4886 H   0  0  0  0  0  0  0  0  0  0  0  0
    0.3461   19.3653    1.0464 H   0  0  0  0  0  0  0  0  0  0  0  0
    4.0905   17.7755    1.5997 H   0  0  0  0  0  0  0  0  0  0  0  0
    3.2060   17.4202    0.0772 H   0  0  0  0  0  0  0  0  0  0  0  0
    4.5522   18.6094    0.0772 H   0  0  0  0  0  0  0  0  0  0  0  0
    2.8835   19.6665    3.0634 H   0  0  0  0  0  0  0  0  0  0  0  0
    4.1516   20.4617    2.0701 H   0  0  0  0  0  0  0  0  0  0  0  0
    2.4750   21.1064    2.0701 H   0  0  0  0  0  0  0  0  0  0  0  0
   -0.5442   16.5480   -2.5790 H   0  0  0  0  0  0  0  0  0  0  0  0
   -0.6351   16.3010   -4.9807 H   0  0  0  0  0  0  0  0  0  0  0  0
    1.0473   16.8370   -5.1770 H   0  0  0  0  0  0  0  0  0  0  0  0
    0.1344   14.1348   -5.3515 H   0  0  0  0  0  0  0  0  0  0  0  0
    1.8250   14.5959   -5.1698 H   0  0  0  0  0  0  0  0  0  0  0  0
   -0.8860   13.7834   -1.9116 H   0  0  0  0  0  0  0  0  0  0  0  0
   -1.3421   14.6013   -3.4445 H   0  0  0  0  0  0  0  0  0  0  0  0
   -0.9473   12.8490   -3.4445 H   0  0  0  0  0  0  0  0  0  0  0  0
    2.6984   13.2903   -3.3281 H   0  0  0  0  0  0  0  0  0  0  0  0
    0.9843   11.9571   -4.7146 H   0  0  0  0  0  0  0  0  0  0  0  0
    2.3529   11.1096   -3.8219 H   0  0  0  0  0  0  0  0  0  0  0  0
   -0.0086    9.9469   -3.7099 H   0  0  0  0  0  0  0  0  0  0  0  0
   -0.0533   12.5327   -0.6103 H   0  0  0  0  0  0  0  0  0  0  0  0
    1.9009   10.3175    0.2689 H   0  0  0  0  0  0  0  0  0  0  0  0
    1.4367   11.8020    1.2128 H   0  0  0  0  0  0  0  0  0  0  0  0
    0.2720    9.7760    2.0222 H   0  0  0  0  0  0  0  0  0  0  0  0
   -0.8572   11.0250    1.3651 H   0  0  0  0  0  0  0  0  0  0  0  0
   -1.5643    8.8659    0.5964 H   0  0  0  0  0  0  0  0  0  0  0  0
   -0.1220    7.5130   -0.5360 H   0  0  0  0  0  0  0  0  0  0  0  0
   -2.5106   10.9155    0.0502 H   0  0  0  0  0  0  0  0  0  0  0  0
   -2.1515   11.7619   -1.4930 H   0  0  0  0  0  0  0  0  0  0  0  0
   -3.1909   10.2969   -1.4930 H   0  0  0  0  0  0  0  0  0  0  0  0
   -1.8213    7.8726   -1.5560 H   0  0  0  0  0  0  0  0  0  0  0  0
   -2.3339    9.0683   -2.7947 H   0  0  0  0  0  0  0  0  0  0  0  0
   -0.6509    8.4404   -2.7947 H   0  0  0  0  0  0  0  0  0  0  0  0
    3.4837   11.7369   -0.1960 H   0  0  0  0  0  0  0  0  0  0  0  0
    3.1637   10.8850   -1.7447 H   0  0  0  0  0  0  0  0  0  0  0  0
    4.0582   12.4427   -1.7447 H   0  0  0  0  0  0  0  0  0  0  0  0
    1.7873   13.7128    0.4816 H   0  0  0  0  0  0  0  0  0  0  0  0
    3.0961   14.2793   -0.7016 H   0  0  0  0  0  0  0  0  0  0  0  0
    0.1430   14.9597   -0.7466 H   0  0  0  0  0  0  0  0  0  0  0  0
    1.5493   16.0546   -0.4449 H   0  0  0  0  0  0  0  0  0  0  0  0
    3.3619   15.9196   -1.8341 H   0  0  0  0  0  0  0  0  0  0  0  0
    3.2914   14.9778   -3.3621 H   0  0  0  0  0  0  0  0  0  0  0  0
    2.8653   16.7229   -3.3621 H   0  0  0  0  0  0  0  0  0  0  0  0
  1  2  1  0
  2  3  1  0
  3  4  1  0
  4  5  1  0
  5  6  1  0
  6  7  1  0
  7  8  1  0
  7  9  1  0
  2 10  1  0
 10 11  1  0
 11 12  1  0
 12 13  1  0
 13 14  1  1
 13 15  1  0
 15 16  1  0
 16 17  1  0
 17 18  2  0
 18 19  1  0
 19 20  1  0
 20 21  1  0
 21 22  1  0
 22 23  1  0
 22 24  1  0
 24 25  1  0
 24 26  1  0
 19 27  1  0
 27 28  1  6
 27 29  1  0
 29 30  1  0
 30 31  1  0
 31 32  1  1
  7  5  1  0
 31 10  1  0
 31 13  1  0
 27 15  1  0
 24 18  1  0
  1 33  1  0
  1 34  1  0
  1 35  1  0
  2 36  1  6
  3 37  1  0
  3 38  1  0
  4 39  1  0
  4 40  1  0
  5 41  1  1
  8 42  1  0
  8 43  1  0
  8 44  1  0
  9 45  1  0
  9 46  1  0
  9 47  1  0
 10 48  1  1
 11 49  1  0
 11 50  1  0
 12 51  1  0
 12 52  1  0
 14 53  1  0
 14 54  1  0
 14 55  1  0
 15 56  1  6
 16 57  1  0
 16 58  1  0
 17 59  1  0
 19 60  1  1
 20 61  1  0
 20 62  1  0
 21 63  1  0
 21 64  1  0
 22 65  1  1
 23 66  1  0
 25 67  1  0
 25 68  1  0
 25 69  1  0
 26 70  1  0
 26 71  1  0
 26 72  1  0
 28 73  1  0
 28 74  1  0
 28 75  1  0
 29 76  1  0
 29 77  1  0
 30 78  1  0
 30 79  1  0
 32 80  1  0
 32 81  1  0
 32 82  1  0
M  END
>  <meeko>  (3) 
{"is_sidechain": [false], "intermolecular_energy": 2.731, "internal_energy": -0.839}

$$$$
EPH_relaxed_0001_pdb2pqr_Repair_249_r2_0001_out
     RDKit          3D

 82 86  0  0  0  0  0  0  0  0999 V2000
    2.5060   17.9410   -3.0930 C   0  0  0  0  0  0  0  0  0  0  0  0
    1.2880   17.5740   -2.2400 C   0  0  2  0  0  0  0  0  0  0  0  0
    1.5970   17.6320   -0.7310 C   0  0  0  0  0  0  0  0  0  0  0  0
    1.4260   19.0260   -0.1200 C   0  0  0  0  0  0  0  0  0  0  0  0
    0.0730   19.1970    0.5010 C   0  0  2  0  0  0  0  0  0  0  0  0
   -0.8960   18.2170    0.1050 O   0  0  0  0  0  0  0  0  0  0  0  0
   -1.1680   19.5720   -0.2880 C   0  0  0  0  0  0  0  0  0  0  0  0
   -1.1140   19.7990   -1.7660 C   0  0  0  0  0  0  0  0  0  0  0  0
   -2.3190   20.1910    0.4410 C   0  0  0  0  0  0  0  0  0  0  0  0
    0.7890   16.1840   -2.6160 C   0  0  1  0  0  0  0  0  0  0  0  0
    0.8480   15.9220   -4.1450 C   0  0  0  0  0  0  0  0  0  0  0  0
    1.1990   14.4230   -4.3290 C   0  0  0  0  0  0  0  0  0  0  0  0
    1.0040   13.8020   -2.9260 C   0  0  1  0  0  0  0  0  0  0  0  0
   -0.5330   13.5570   -2.8050 C   0  0  0  0  0  0  0  0  0  0  0  0
    1.8210   12.5030   -2.6250 C   0  0  2  0  0  0  0  0  0  0  0  0
    1.4840   11.2990   -3.5220 C   0  0  0  0  0  0  0  0  0  0  0  0
    0.4060   10.4030   -3.0090 C   0  0  0  0  0  0  0  0  0  0  0  0
   -0.0690   10.3920   -1.7490 C   0  0  0  0  0  0  0  0  0  0  0  0
    0.5570   11.2790   -0.6650 C   0  0  1  0  0  0  0  0  0  0  0  0
    0.7820   10.4410    0.6220 C   0  0  0  0  0  0  0  0  0  0  0  0
   -0.4890    9.7460    1.0980 C   0  0  0  0  0  0  0  0  0  0  0  0
   -1.0480    8.8290    0.0130 C   0  0  2  0  0  0  0  0  0  0  0  0
   -0.1330    7.7490   -0.1950 O   0  0  0  0  0  0  0  0  0  0  0  0
   -1.3070    9.5610   -1.3340 C   0  0  0  0  0  0  0  0  0  0  0  0
   -2.5100   10.5240   -1.1800 C   0  0  0  0  0  0  0  0  0  0  0  0
   -1.7350    8.4970   -2.3810 C   0  0  0  0  0  0  0  0  0  0  0  0
    1.8500   12.0950   -1.0970 C   0  0  1  0  0  0  0  0  0  0  0  0
    3.1240   11.2190   -0.8940 C   0  0  0  0  0  0  0  0  0  0  0  0
    2.0130   13.3410   -0.1480 C   0  0  0  0  0  0  0  0  0  0  0  0
    1.2780   14.6300   -0.5620 C   0  0  0  0  0  0  0  0  0  0  0  0
    1.5530   14.9710   -2.0290 C   0  0  2  0  0  0  0  0  0  0  0  0
    3.0890   15.2440   -2.1770 C   0  0  0  0  0  0  0  0  0  0  0  0
    3.3506   18.1955   -2.4358 H   0  0  0  0  0  0  0  0  0  0  0  0
    2.7802   17.0856   -3.7279 H   0  0  0  0  0  0  0  0  0  0  0  0
    2.2620   18.8055   -3.7279 H   0  0  0  0  0  0  0  0  0  0  0  0
    0.5045   18.3183   -2.4455 H   0  0  0  0  0  0  0  0  0  0  0  0
    0.9189   16.9394   -0.2109 H   0  0  0  0  0  0  0  0  0  0  0  0
    2.6546   17.3553   -0.6089 H   0  0  0  0  0  0  0  0  0  0  0  0
    2.1943   19.1729    0.6534 H   0  0  0  0  0  0  0  0  0  0  0  0
    1.5300   19.7683   -0.9251 H   0  0  0  0  0  0  0  0  0  0  0  0
    0.5195   19.6132    1.4161 H   0  0  0  0  0  0  0  0  0  0  0  0
   -0.8637   20.8512   -1.9665 H   0  0  0  0  0  0  0  0  0  0  0  0
   -0.3455   19.1485   -2.2090 H   0  0  0  0  0  0  0  0  0  0  0  0
   -2.0931   19.5642   -2.2090 H   0  0  0  0  0  0  0  0  0  0  0  0
   -2.1561   20.1034    1.5253 H   0  0  0  0  0  0  0  0  0  0  0  0
   -2.3981   21.2533    0.1668 H   0  0  0  0  0  0  0  0  0  0  0  0
   -3.2489   19.6713    0.1668 H   0  0  0  0  0  0  0  0  0  0  0  0
   -0.2248   16.2309   -2.1918 H   0  0  0  0  0  0  0  0  0  0  0  0
   -0.1268   16.1420   -4.6049 H   0  0  0  0  0  0  0  0  0  0  0  0
    1.5987   16.5654   -4.6272 H   0  0  0  0  0  0  0  0  0  0  0  0
    0.5238   13.9528   -5.0591 H   0  0  0  0  0  0  0  0  0  0  0  0
    2.2200   14.2774   -4.7116 H   0  0  0  0  0  0  0  0  0  0  0  0
   -0.8146   13.5121   -1.7426 H   0  0  0  0  0  0  0  0  0  0  0  0
   -1.0751   14.3801   -3.2936 H   0  0  0  0  0  0  0  0  0  0  0  0
   -0.7923   12.6062   -3.2936 H   0  0  0  0  0  0  0  0  0  0  0  0
    2.8452   12.8000   -2.8949 H   0  0  0  0  0  0  0  0  0  0  0  0
    1.1678   11.6839   -4.5028 H   0  0  0  0  0  0  0  0  0  0  0  0
    2.3960   10.6852   -3.5624 H   0  0  0  0  0  0  0  0  0  0  0  0
   -0.0381    9.6913   -3.7206 H   0  0  0  0  0  0  0  0  0  0  0  0
   -0.1718   12.0789   -0.4674 H   0  0  0  0  0  0  0  0  0  0  0  0
    1.5456    9.6765    0.4158 H   0  0  0  0  0  0  0  0  0  0  0  0
    1.1028   11.1303    1.4169 H   0  0  0  0  0  0  0  0  0  0  0  0
   -0.2590    9.1476    1.9919 H   0  0  0  0  0  0  0  0  0  0  0  0
   -1.2421   10.5129    1.3321 H   0  0  0  0  0  0  0  0  0  0  0  0
   -2.0237    8.4609    0.3630 H   0  0  0  0  0  0  0  0  0  0  0  0
    0.4870    8.0190   -0.8930 H   0  0  0  0  0  0  0  0  0  0  0  0
   -2.7143   10.6876   -0.1116 H   0  0  0  0  0  0  0  0  0  0  0  0
   -2.2738   11.4854   -1.6595 H   0  0  0  0  0  0  0  0  0  0  0  0
   -3.3964   10.0831   -1.6595 H   0  0  0  0  0  0  0  0  0  0  0  0
   -2.0970    7.5971   -1.8623 H   0  0  0  0  0  0  0  0  0  0  0  0
   -2.5388    8.9053   -3.0112 H   0  0  0  0  0  0  0  0  0  0  0  0
   -0.8723    8.2349   -3.0112 H   0  0  0  0  0  0  0  0  0  0  0  0
    3.3123   11.0895    0.1820 H   0  0  0  0  0  0  0  0  0  0  0  0
    2.9703   10.2347   -1.3604 H   0  0  0  0  0  0  0  0  0  0  0  0
    3.9881   11.7148   -1.3604 H   0  0  0  0  0  0  0  0  0  0  0  0
    1.6435   13.0521    0.8470 H   0  0  0  0  0  0  0  0  0  0  0  0
    3.0827   13.5944   -0.1867 H   0  0  0  0  0  0  0  0  0  0  0  0
    0.1962   14.4880   -0.4223 H   0  0  0  0  0  0  0  0  0  0  0  0
    1.6419   15.4577    0.0645 H   0  0  0  0  0  0  0  0  0  0  0  0
    3.5448   15.3250   -1.1792 H   0  0  0  0  0  0  0  0  0  0  0  0
    3.5573   14.4150   -2.7279 H   0  0  0  0  0  0  0  0  0  0  0  0
    3.2430   16.1836   -2.7279 H   0  0  0  0  0  0  0  0  0  0  0  0
  1  2  1  0
  2  3  1  0
  3  4  1  0
  4  5  1  0
  5  6  1  0
  6  7  1  0
  7  8  1  0
  7  9  1  0
  2 10  1  0
 10 11  1  0
 11 12  1  0
 12 13  1  0
 13 14  1  1
 13 15  1  0
 15 16  1  0
 16 17  1  0
 17 18  2  0
 18 19  1  0
 19 20  1  0
 20 21  1  0
 21 22  1  0
 22 23  1  0
 22 24  1  0
 24 25  1  0
 24 26  1  0
 19 27  1  0
 27 28  1  6
 27 29  1  0
 29 30  1  0
 30 31  1  0
 31 32  1  1
  7  5  1  0
 31 10  1  0
 31 13  1  0
 27 15  1  0
 24 18  1  0
  1 33  1  0
  1 34  1  0
  1 35  1  0
  2 36  1  1
  3 37  1  0
  3 38  1  0
  4 39  1  0
  4 40  1  0
  5 41  1  1
  8 42  1  0
  8 43  1  0
  8 44  1  0
  9 45  1  0
  9 46  1  0
  9 47  1  0
 10 48  1  1
 11 49  1  0
 11 50  1  0
 12 51  1  0
 12 52  1  0
 14 53  1  0
 14 54  1  0
 14 55  1  0
 15 56  1  6
 16 57  1  0
 16 58  1  0
 17 59  1  0
 19 60  1  1
 20 61  1  0
 20 62  1  0
 21 63  1  0
 21 64  1  0
 22 65  1  1
 23 66  1  0
 25 67  1  0
 25 68  1  0
 25 69  1  0
 26 70  1  0
 26 71  1  0
 26 72  1  0
 28 73  1  0
 28 74  1  0
 28 75  1  0
 29 76  1  0
 29 77  1  0
 30 78  1  0
 30 79  1  0
 32 80  1  0
 32 81  1  0
 32 82  1  0
M  END
>  <meeko>  (4) 
{"is_sidechain": [false], "intermolecular_energy": 2.731, "internal_energy": -0.839}

$$$$
EPH_relaxed_0001_pdb2pqr_Repair_249_r2_0001_out
     RDKit          3D

 82 86  0  0  0  0  0  0  0  0999 V2000
   -5.1300    5.8890   -1.7420 C   0  0  0  0  0  0  0  0  0  0  0  0
   -5.4410    7.3880   -1.7810 C   0  0  2  0  0  0  0  0  0  0  0  0
   -5.2260    8.0610   -0.4100 C   0  0  0  0  0  0  0  0  0  0  0  0
   -4.1660    9.1660   -0.4260 C   0  0  0  0  0  0  0  0  0  0  0  0
   -2.8140    8.6320   -0.7930 C   0  0  2  0  0  0  0  0  0  0  0  0
   -1.7780    8.9240    0.1540 O   0  0  0  0  0  0  0  0  0  0  0  0
   -1.6330    9.5160   -1.1470 C   0  0  0  0  0  0  0  0  0  0  0  0
   -1.7500   11.0080   -1.1530 C   0  0  0  0  0  0  0  0  0  0  0  0
   -0.5180    8.9300   -1.9560 C   0  0  0  0  0  0  0  0  0  0  0  0
   -6.8730    7.6100   -2.2510 C   0  0  1  0  0  0  0  0  0  0  0  0
   -7.1710    6.9150   -3.6070 C   0  0  0  0  0  0  0  0  0  0  0  0
   -8.6440    6.4360   -3.5500 C   0  0  0  0  0  0  0  0  0  0  0  0
   -9.2400    7.1540   -2.3160 C   0  0  1  0  0  0  0  0  0  0  0  0
   -9.5940    8.5880   -2.8180 C   0  0  0  0  0  0  0  0  0  0  0  0
  -10.4670    6.4600   -1.6390 C   0  0  2  0  0  0  0  0  0  0  0  0
  -11.7160    6.3310   -2.5280 C   0  0  0  0  0  0  0  0  0  0  0  0
  -12.6750    7.4730   -2.4500 C   0  0  0  0  0  0  0  0  0  0  0  0
  -12.6870    8.4200   -1.4940 C   0  0  0  0  0  0  0  0  0  0  0  0
  -11.7280    8.3450   -0.2990 C   0  0  1  0  0  0  0  0  0  0  0  0
  -12.5120    8.6190    1.0120 C   0  0  0  0  0  0  0  0  0  0  0  0
  -13.2870    9.9330    0.9660 C   0  0  0  0  0  0  0  0  0  0  0  0
  -14.2710    9.9460   -0.2000 C   0  0  2  0  0  0  0  0  0  0  0  0
  -15.2860    8.9670    0.0420 O   0  0  0  0  0  0  0  0  0  0  0  0
  -13.5960    9.6710   -1.5740 C   0  0  0  0  0  0  0  0  0  0  0  0
  -12.7200   10.8830   -1.9750 C   0  0  0  0  0  0  0  0  0  0  0  0
  -14.7160    9.5710   -2.6440 C   0  0  0  0  0  0  0  0  0  0  0  0
  -10.8310    7.0360   -0.2110 C   0  0  1  0  0  0  0  0  0  0  0  0
  -11.6050    5.9100    0.5400 C   0  0  0  0  0  0  0  0  0  0  0  0
   -9.5520    7.3470    0.6530 C   0  0  0  0  0  0  0  0  0  0  0  0
   -8.3320    7.9190   -0.0940 C   0  0  0  0  0  0  0  0  0  0  0  0
   -8.0110    7.0860   -1.3390 C   0  0  2  0  0  0  0  0  0  0  0  0
   -7.6290    5.6430   -0.8630 C   0  0  0  0  0  0  0  0  0  0  0  0
   -5.0609    5.5560   -0.6959 H   0  0  0  0  0  0  0  0  0  0  0  0
   -5.9323    5.3347   -2.2510 H   0  0  0  0  0  0  0  0  0  0  0  0
   -4.1734    5.6996   -2.2510 H   0  0  0  0  0  0  0  0  0  0  0  0
   -4.7410    7.8528   -2.4908 H   0  0  0  0  0  0  0  0  0  0  0  0
   -6.1807    8.5004   -0.0853 H   0  0  0  0  0  0  0  0  0  0  0  0
   -4.8672    7.2813    0.2780 H   0  0  0  0  0  0  0  0  0  0  0  0
   -4.4589    9.9304   -1.1608 H   0  0  0  0  0  0  0  0  0  0  0  0
   -4.1025    9.5950    0.5849 H   0  0  0  0  0  0  0  0  0  0  0  0
   -3.2672    7.7680   -1.3011 H   0  0  0  0  0  0  0  0  0  0  0  0
   -1.7790   11.3777   -0.1174 H   0  0  0  0  0  0  0  0  0  0  0  0
   -0.8831   11.4417   -1.6730 H   0  0  0  0  0  0  0  0  0  0  0  0
   -2.6739   11.3013   -1.6730 H   0  0  0  0  0  0  0  0  0  0  0  0
    0.2512    8.5257   -1.2815 H   0  0  0  0  0  0  0  0  0  0  0  0
   -0.9108    8.1218   -2.5905 H   0  0  0  0  0  0  0  0  0  0  0  0
   -0.0751    9.7119   -2.5905 H   0  0  0  0  0  0  0  0  0  0  0  0
   -6.8892    8.7095   -2.2789 H   0  0  0  0  0  0  0  0  0  0  0  0
   -7.0358    7.6264   -4.4350 H   0  0  0  0  0  0  0  0  0  0  0  0
   -6.4873    6.0701   -3.7763 H   0  0  0  0  0  0  0  0  0  0  0  0
   -9.1820    6.7249   -4.4649 H   0  0  0  0  0  0  0  0  0  0  0  0
   -8.7243    5.3415   -3.4751 H   0  0  0  0  0  0  0  0  0  0  0  0
   -9.7572    9.2490   -1.9541 H   0  0  0  0  0  0  0  0  0  0  0  0
   -8.7652    8.9783   -3.4270 H   0  0  0  0  0  0  0  0  0  0  0  0
  -10.5092    8.5478   -3.4270 H   0  0  0  0  0  0  0  0  0  0  0  0
  -10.1023    5.4336   -1.4856 H   0  0  0  0  0  0  0  0  0  0  0  0
  -11.3821    6.2383   -3.5720 H   0  0  0  0  0  0  0  0  0  0  0  0
  -12.2617    5.4496   -2.1601 H   0  0  0  0  0  0  0  0  0  0  0  0
  -13.4360    7.5463   -3.2409 H   0  0  0  0  0  0  0  0  0  0  0  0
  -10.9801    9.1356   -0.4591 H   0  0  0  0  0  0  0  0  0  0  0  0
  -13.2228    7.7958    1.1765 H   0  0  0  0  0  0  0  0  0  0  0  0
  -11.7802    8.6911    1.8301 H   0  0  0  0  0  0  0  0  0  0  0  0
  -13.8427   10.0562    1.9073 H   0  0  0  0  0  0  0  0  0  0  0  0
  -12.5717   10.7576    0.8305 H   0  0  0  0  0  0  0  0  0  0  0  0
  -14.7006   10.9570   -0.2581 H   0  0  0  0  0  0  0  0  0  0  0  0
  -15.3430    8.8330    1.0030 H   0  0  0  0  0  0  0  0  0  0  0  0
  -12.3552   11.3877   -1.0683 H   0  0  0  0  0  0  0  0  0  0  0  0
  -11.8633   10.5351   -2.5708 H   0  0  0  0  0  0  0  0  0  0  0  0
  -13.3191   11.5873   -2.5708 H   0  0  0  0  0  0  0  0  0  0  0  0
  -15.6927    9.4838   -2.1455 H   0  0  0  0  0  0  0  0  0  0  0  0
  -14.7044   10.4738   -3.2724 H   0  0  0  0  0  0  0  0  0  0  0  0
  -14.5447    8.6846   -3.2724 H   0  0  0  0  0  0  0  0  0  0  0  0
  -11.5040    6.0569    1.6255 H   0  0  0  0  0  0  0  0  0  0  0  0
  -12.6687    5.9481    0.2622 H   0  0  0  0  0  0  0  0  0  0  0  0
  -11.1884    4.9306    0.2622 H   0  0  0  0  0  0  0  0  0  0  0  0
   -9.8409    8.0751    1.4252 H   0  0  0  0  0  0  0  0  0  0  0  0
   -9.2216    6.3717    1.0399 H   0  0  0  0  0  0  0  0  0  0  0  0
   -8.5494    8.9532   -0.3993 H   0  0  0  0  0  0  0  0  0  0  0  0
   -7.4633    7.8910    0.5802 H   0  0  0  0  0  0  0  0  0  0  0  0
   -7.6202    5.6099    0.2365 H   0  0  0  0  0  0  0  0  0  0  0  0
   -8.3675    4.9232   -1.2456 H   0  0  0  0  0  0  0  0  0  0  0  0
   -6.6310    5.3828   -1.2456 H   0  0  0  0  0  0  0  0  0  0  0  0
  1  2  1  0
  2  3  1  0
  3  4  1  0
  4  5  1  0
  5  6  1  0
  6  7  1  0
  7  8  1  0
  7  9  1  0
  2 10  1  0
 10 11  1  0
 11 12  1  0
 12 13  1  0
 13 14  1  6
 13 15  1  0
 15 16  1  0
 16 17  1  0
 17 18  2  0
 18 19  1  0
 19 20  1  0
 20 21  1  0
 21 22  1  0
 22 23  1  0
 22 24  1  0
 24 25  1  0
 24 26  1  0
 19 27  1  0
 27 28  1  1
 27 29  1  0
 29 30  1  0
 30 31  1  0
 31 32  1  1
  7  5  1  0
 31 10  1  0
 31 13  1  0
 27 15  1  0
 24 18  1  0
  1 33  1  0
  1 34  1  0
  1 35  1  0
  2 36  1  6
  3 37  1  0
  3 38  1  0
  4 39  1  0
  4 40  1  0
  5 41  1  6
  8 42  1  0
  8 43  1  0
  8 44  1  0
  9 45  1  0
  9 46  1  0
  9 47  1  0
 10 48  1  6
 11 49  1  0
 11 50  1  0
 12 51  1  0
 12 52  1  0
 14 53  1  0
 14 54  1  0
 14 55  1  0
 15 56  1  1
 16 57  1  0
 16 58  1  0
 17 59  1  0
 19 60  1  6
 20 61  1  0
 20 62  1  0
 21 63  1  0
 21 64  1  0
 22 65  1  6
 23 66  1  0
 25 67  1  0
 25 68  1  0
 25 69  1  0
 26 70  1  0
 26 71  1  0
 26 72  1  0
 28 73  1  0
 28 74  1  0
 28 75  1  0
 29 76  1  0
 29 77  1  0
 30 78  1  0
 30 79  1  0
 32 80  1  0
 32 81  1  0
 32 82  1  0
M  END
>  <meeko>  (5) 
{"is_sidechain": [false], "intermolecular_energy": 2.731, "internal_energy": -0.839}

$$$$
EPH_relaxed_0001_pdb2pqr_Repair_249_r2_0001_out
     RDKit          3D

 82 86  0  0  0  0  0  0  0  0999 V2000
   -2.1060    7.9430   -2.2660 C   0  0  0  0  0  0  0  0  0  0  0  0
   -1.9810    8.5680   -0.8740 C   0  0  2  0  0  0  0  0  0  0  0  0
   -3.3060    8.5060   -0.0880 C   0  0  0  0  0  0  0  0  0  0  0  0
   -4.5520    8.6070   -0.9730 C   0  0  0  0  0  0  0  0  0  0  0  0
   -5.3360    7.3300   -0.9740 C   0  0  2  0  0  0  0  0  0  0  0  0
   -5.4370    6.6900   -2.2530 O   0  0  0  0  0  0  0  0  0  0  0  0
   -6.6670    7.1660   -1.6840 C   0  0  0  0  0  0  0  0  0  0  0  0
   -7.2910    8.2960   -2.4420 C   0  0  0  0  0  0  0  0  0  0  0  0
   -7.5870    6.0740   -1.2360 C   0  0  0  0  0  0  0  0  0  0  0  0
   -1.5140   10.0140   -0.9940 C   0  0  1  0  0  0  0  0  0  0  0  0
   -1.0920   10.6200    0.3710 C   0  0  0  0  0  0  0  0  0  0  0  0
    0.0890   11.5830    0.0860 C   0  0  0  0  0  0  0  0  0  0  0  0
    0.0920   11.7540   -1.4510 C   0  0  1  0  0  0  0  0  0  0  0  0
   -1.0110   12.8200   -1.7380 C   0  0  0  0  0  0  0  0  0  0  0  0
    1.4590   12.1470   -2.1000 C   0  0  2  0  0  0  0  0  0  0  0  0
    2.0230   13.5090   -1.6580 C   0  0  0  0  0  0  0  0  0  0  0  0
    1.6100   14.6730   -2.4970 C   0  0  0  0  0  0  0  0  0  0  0  0
    1.0540   14.5970   -3.7200 C   0  0  0  0  0  0  0  0  0  0  0  0
    0.8790   13.2450   -4.4230 C   0  0  1  0  0  0  0  0  0  0  0  0
    1.3610   13.3600   -5.8930 C   0  0  0  0  0  0  0  0  0  0  0  0
    0.6820   14.5000   -6.6450 C   0  0  0  0  0  0  0  0  0  0  0  0
    0.9270   15.8360   -5.9470 C   0  0  2  0  0  0  0  0  0  0  0  0
    2.3190   16.1550   -6.0400 O   0  0  0  0  0  0  0  0  0  0  0  0
    0.4890   15.8370   -4.4560 C   0  0  0  0  0  0  0  0  0  0  0  0
   -1.0570   15.7930   -4.3680 C   0  0  0  0  0  0  0  0  0  0  0  0
    0.9200   17.1930   -3.8330 C   0  0  0  0  0  0  0  0  0  0  0  0
    1.4990   11.9880   -3.6740 C   0  0  1  0  0  0  0  0  0  0  0  0
    2.9990   11.8210   -4.0660 C   0  0  0  0  0  0  0  0  0  0  0  0
    0.7640   10.6840   -4.1620 C   0  0  0  0  0  0  0  0  0  0  0  0
   -0.5150   10.2820   -3.4040 C   0  0  0  0  0  0  0  0  0  0  0  0
   -0.2810   10.2910   -1.8900 C   0  0  2  0  0  0  0  0  0  0  0  0
    0.8080    9.2120   -1.5680 C   0  0  0  0  0  0  0  0  0  0  0  0
   -2.3209    6.8687   -2.1676 H   0  0  0  0  0  0  0  0  0  0  0  0
   -2.9242    8.4318   -2.8153 H   0  0  0  0  0  0  0  0  0  0  0  0
   -1.1628    8.0795   -2.8153 H   0  0  0  0  0  0  0  0  0  0  0  0
   -1.2375    7.9820   -0.3138 H   0  0  0  0  0  0  0  0  0  0  0  0
   -3.3428    7.5506    0.4559 H   0  0  0  0  0  0  0  0  0  0  0  0
   -3.3201    9.3741    0.5874 H   0  0  0  0  0  0  0  0  0  0  0  0
   -5.1923    9.4181   -0.5960 H   0  0  0  0  0  0  0  0  0  0  0  0
   -4.2251    8.8095   -2.0036 H   0  0  0  0  0  0  0  0  0  0  0  0
   -5.0151    7.1049    0.0538 H   0  0  0  0  0  0  0  0  0  0  0  0
   -7.6977    9.0325   -1.7334 H   0  0  0  0  0  0  0  0  0  0  0  0
   -6.5307    8.7771   -3.0748 H   0  0  0  0  0  0  0  0  0  0  0  0
   -8.1031    7.9088   -3.0748 H   0  0  0  0  0  0  0  0  0  0  0  0
   -7.6124    6.0439   -0.1367 H   0  0  0  0  0  0  0  0  0  0  0  0
   -8.5993    6.2664   -1.6210 H   0  0  0  0  0  0  0  0  0  0  0  0
   -7.2256    5.1090   -1.6210 H   0  0  0  0  0  0  0  0  0  0  0  0
   -2.4130   10.4619   -1.4425 H   0  0  0  0  0  0  0  0  0  0  0  0
   -1.9325   11.1725    0.8164 H   0  0  0  0  0  0  0  0  0  0  0  0
   -0.7971    9.8317    1.0792 H   0  0  0  0  0  0  0  0  0  0  0  0
   -0.0705   12.5508    0.5839 H   0  0  0  0  0  0  0  0  0  0  0  0
    1.0455   11.1927    0.4638 H   0  0  0  0  0  0  0  0  0  0  0  0
   -1.4073   13.2030   -0.7860 H   0  0  0  0  0  0  0  0  0  0  0  0
   -0.5774   13.6500   -2.3151 H   0  0  0  0  0  0  0  0  0  0  0  0
   -1.8257   12.3584   -2.3151 H   0  0  0  0  0  0  0  0  0  0  0  0
    2.1429   11.3915   -1.6858 H   0  0  0  0  0  0  0  0  0  0  0  0
    1.6882   13.6972   -0.6272 H   0  0  0  0  0  0  0  0  0  0  0  0
    3.1157   13.4333   -1.7594 H   0  0  0  0  0  0  0  0  0  0  0  0
    1.7741   15.6776   -2.0801 H   0  0  0  0  0  0  0  0  0  0  0  0
   -0.1990   13.0273   -4.3992 H   0  0  0  0  0  0  0  0  0  0  0  0
    2.4471   13.5341   -5.8951 H   0  0  0  0  0  0  0  0  0  0  0  0
    1.0998   12.4215   -6.4038 H   0  0  0  0  0  0  0  0  0  0  0  0
    1.0861   14.5483   -7.6670 H   0  0  0  0  0  0  0  0  0  0  0  0
   -0.4011   14.3094   -6.6685 H   0  0  0  0  0  0  0  0  0  0  0  0
    0.3109   16.5925   -6.4551 H   0  0  0  0  0  0  0  0  0  0  0  0
    2.7930   15.5940   -5.4030 H   0  0  0  0  0  0  0  0  0  0  0  0
   -1.3640   15.7843   -3.3118 H   0  0  0  0  0  0  0  0  0  0  0  0
   -1.4779   16.6795   -4.8649 H   0  0  0  0  0  0  0  0  0  0  0  0
   -1.4268   14.8840   -4.8649 H   0  0  0  0  0  0  0  0  0  0  0  0
    0.8957   17.1167   -2.7359 H   0  0  0  0  0  0  0  0  0  0  0  0
    1.9407   17.4393   -4.1609 H   0  0  0  0  0  0  0  0  0  0  0  0
    0.2288   17.9834   -4.1609 H   0  0  0  0  0  0  0  0  0  0  0  0
    3.6108   11.7529   -3.1544 H   0  0  0  0  0  0  0  0  0  0  0  0
    3.1228   10.9035   -4.6601 H   0  0  0  0  0  0  0  0  0  0  0  0
    3.3215   12.6888   -4.6601 H   0  0  0  0  0  0  0  0  0  0  0  0
    0.4927   10.8304   -5.2179 H   0  0  0  0  0  0  0  0  0  0  0  0
    1.4764    9.8664   -3.9778 H   0  0  0  0  0  0  0  0  0  0  0  0
   -1.3170   10.9941   -3.6484 H   0  0  0  0  0  0  0  0  0  0  0  0
   -0.7980    9.2638   -3.7091 H   0  0  0  0  0  0  0  0  0  0  0  0
    0.9115    9.1095   -0.4777 H   0  0  0  0  0  0  0  0  0  0  0  0
    0.5065    8.2464   -2.0001 H   0  0  0  0  0  0  0  0  0  0  0  0
    1.7708    9.5224   -2.0001 H   0  0  0  0  0  0  0  0  0  0  0  0
  1  2  1  0
  2  3  1  0
  3  4  1  0
  4  5  1  0
  5  6  1  0
  6  7  1  0
  7  8  1  0
  7  9  1  0
  2 10  1  0
 10 11  1  0
 11 12  1  0
 12 13  1  0
 13 14  1  1
 13 15  1  0
 15 16  1  0
 16 17  1  0
 17 18  2  0
 18 19  1  0
 19 20  1  0
 20 21  1  0
 21 22  1  0
 22 23  1  0
 22 24  1  0
 24 25  1  0
 24 26  1  0
 19 27  1  0
 27 28  1  6
 27 29  1  0
 29 30  1  0
 30 31  1  0
 31 32  1  6
  7  5  1  0
 31 10  1  0
 31 13  1  0
 27 15  1  0
 24 18  1  0
  1 33  1  0
  1 34  1  0
  1 35  1  0
  2 36  1  1
  3 37  1  0
  3 38  1  0
  4 39  1  0
  4 40  1  0
  5 41  1  1
  8 42  1  0
  8 43  1  0
  8 44  1  0
  9 45  1  0
  9 46  1  0
  9 47  1  0
 10 48  1  6
 11 49  1  0
 11 50  1  0
 12 51  1  0
 12 52  1  0
 14 53  1  0
 14 54  1  0
 14 55  1  0
 15 56  1  1
 16 57  1  0
 16 58  1  0
 17 59  1  0
 19 60  1  6
 20 61  1  0
 20 62  1  0
 21 63  1  0
 21 64  1  0
 22 65  1  6
 23 66  1  0
 25 67  1  0
 25 68  1  0
 25 69  1  0
 26 70  1  0
 26 71  1  0
 26 72  1  0
 28 73  1  0
 28 74  1  0
 28 75  1  0
 29 76  1  0
 29 77  1  0
 30 78  1  0
 30 79  1  0
 32 80  1  0
 32 81  1  0
 32 82  1  0
M  END
>  <meeko>  (6) 
{"is_sidechain": [false], "intermolecular_energy": 2.731, "internal_energy": -0.839}

$$$$
EPH_relaxed_0001_pdb2pqr_Repair_249_r2_0001_out
     RDKit          3D

 82 86  0  0  0  0  0  0  0  0999 V2000
   -0.6530   16.4990   -5.6900 C   0  0  0  0  0  0  0  0  0  0  0  0
    0.3190   15.7380   -6.5970 C   0  0  2  0  0  0  0  0  0  0  0  0
   -0.2080   15.6150   -8.0400 C   0  0  0  0  0  0  0  0  0  0  0  0
    0.4390   16.6000   -9.0180 C   0  0  0  0  0  0  0  0  0  0  0  0
    1.8330   16.1860   -9.3800 C   0  0  2  0  0  0  0  0  0  0  0  0
    2.3200   16.7340  -10.6120 O   0  0  0  0  0  0  0  0  0  0  0  0
    2.1630   15.3070  -10.5720 C   0  0  0  0  0  0  0  0  0  0  0  0
    1.0910   14.7870  -11.4780 C   0  0  0  0  0  0  0  0  0  0  0  0
    3.4580   14.5570  -10.5710 C   0  0  0  0  0  0  0  0  0  0  0  0
    0.5900   14.3530   -6.0220 C   0  0  1  0  0  0  0  0  0  0  0  0
    1.8000   13.6520   -6.6960 C   0  0  0  0  0  0  0  0  0  0  0  0
    2.5050   12.8190   -5.5950 C   0  0  0  0  0  0  0  0  0  0  0  0
    1.5020   12.8000   -4.4180 C   0  0  1  0  0  0  0  0  0  0  0  0
    0.4760   11.6820   -4.7830 C   0  0  0  0  0  0  0  0  0  0  0  0
    2.1110   12.5820   -2.9940 C   0  0  2  0  0  0  0  0  0  0  0  0
    2.8230   11.2340   -2.7890 C   0  0  0  0  0  0  0  0  0  0  0  0
    1.9580   10.1280   -2.2810 C   0  0  0  0  0  0  0  0  0  0  0  0
    0.7380   10.2770   -1.7320 C   0  0  0  0  0  0  0  0  0  0  0  0
    0.1500   11.6730   -1.4880 C   0  0  1  0  0  0  0  0  0  0  0  0
   -0.4460   11.7410   -0.0580 C   0  0  0  0  0  0  0  0  0  0  0  0
   -1.4540   10.6290    0.2100 C   0  0  0  0  0  0  0  0  0  0  0  0
   -0.8170    9.2560    0.0130 C   0  0  2  0  0  0  0  0  0  0  0  0
    0.1750    9.0590    1.0260 O   0  0  0  0  0  0  0  0  0  0  0  0
   -0.1740    9.0740   -1.3900 C   0  0  0  0  0  0  0  0  0  0  0  0
   -1.2860    8.9850   -2.4640 C   0  0  0  0  0  0  0  0  0  0  0  0
    0.5560    7.7030   -1.4070 C   0  0  0  0  0  0  0  0  0  0  0  0
    1.1140   12.8970   -1.8070 C   0  0  1  0  0  0  0  0  0  0  0  0
    1.9930   13.2210   -0.5610 C   0  0  0  0  0  0  0  0  0  0  0  0
    0.2420   14.1790   -2.0810 C   0  0  0  0  0  0  0  0  0  0  0  0
   -0.2290   14.4020   -3.5310 C   0  0  0  0  0  0  0  0  0  0  0  0
    0.9370   14.2640   -4.5140 C   0  0  2  0  0  0  0  0  0  0  0  0
    1.9750   15.3910   -4.1860 C   0  0  0  0  0  0  0  0  0  0  0  0
   -0.4022   16.3026   -4.6371 H   0  0  0  0  0  0  0  0  0  0  0  0
   -0.5737   17.5776   -5.8908 H   0  0  0  0  0  0  0  0  0  0  0  0
   -1.6811   16.1632   -5.8908 H   0  0  0  0  0  0  0  0  0  0  0  0
    1.2550   16.3145   -6.6358 H   0  0  0  0  0  0  0  0  0  0  0  0
   -0.0112   14.5928   -8.3956 H   0  0  0  0  0  0  0  0  0  0  0  0
   -1.2822   15.8499   -8.0109 H   0  0  0  0  0  0  0  0  0  0  0  0
   -0.1689   16.6445   -9.9337 H   0  0  0  0  0  0  0  0  0  0  0  0
    0.4893   17.5847   -8.5303 H   0  0  0  0  0  0  0  0  0  0  0  0
    2.1152   16.1261   -8.3185 H   0  0  0  0  0  0  0  0  0  0  0  0
    0.2636   14.3856  -10.8744 H   0  0  0  0  0  0  0  0  0  0  0  0
    0.7188   15.6047  -12.1127 H   0  0  0  0  0  0  0  0  0  0  0  0
    1.5028   13.9885  -12.1127 H   0  0  0  0  0  0  0  0  0  0  0  0
    3.7747   14.3736   -9.5337 H   0  0  0  0  0  0  0  0  0  0  0  0
    3.3255   13.5959  -11.0893 H   0  0  0  0  0  0  0  0  0  0  0  0
    4.2257   15.1503  -11.0893 H   0  0  0  0  0  0  0  0  0  0  0  0
   -0.3850   13.8807   -6.2127 H   0  0  0  0  0  0  0  0  0  0  0  0
    1.4532   12.9931   -7.5057 H   0  0  0  0  0  0  0  0  0  0  0  0
    2.4886   14.3888   -7.1354 H   0  0  0  0  0  0  0  0  0  0  0  0
    2.7065   11.7976   -5.9500 H   0  0  0  0  0  0  0  0  0  0  0  0
    3.4774   13.2454   -5.3076 H   0  0  0  0  0  0  0  0  0  0  0  0
    0.0710   11.2406   -3.8604 H   0  0  0  0  0  0  0  0  0  0  0  0
   -0.3448   12.1160   -5.3729 H   0  0  0  0  0  0  0  0  0  0  0  0
    0.9787   10.9014   -5.3729 H   0  0  0  0  0  0  0  0  0  0  0  0
    2.9017   13.3458   -2.9559 H   0  0  0  0  0  0  0  0  0  0  0  0
    3.2429   10.9206   -3.7562 H   0  0  0  0  0  0  0  0  0  0  0  0
    3.5844   11.4061   -2.0140 H   0  0  0  0  0  0  0  0  0  0  0  0
    2.3513    9.1039   -2.3623 H   0  0  0  0  0  0  0  0  0  0  0  0
   -0.6502   11.8004   -2.2320 H   0  0  0  0  0  0  0  0  0  0  0  0
    0.3742   11.6561    0.6700 H   0  0  0  0  0  0  0  0  0  0  0  0
   -0.9751   12.7007    0.0374 H   0  0  0  0  0  0  0  0  0  0  0  0
   -1.8156   10.7128    1.2455 H   0  0  0  0  0  0  0  0  0  0  0  0
   -2.2888   10.7336   -0.4987 H   0  0  0  0  0  0  0  0  0  0  0  0
   -1.6184    8.5065    0.0898 H   0  0  0  0  0  0  0  0  0  0  0  0
    0.4450    9.9360    1.3470 H   0  0  0  0  0  0  0  0  0  0  0  0
   -2.2663    8.9065   -1.9712 H   0  0  0  0  0  0  0  0  0  0  0  0
   -1.2625    9.8879   -3.0919 H   0  0  0  0  0  0  0  0  0  0  0  0
   -1.1192    8.0973   -3.0919 H   0  0  0  0  0  0  0  0  0  0  0  0
    0.7337    7.3694   -0.3740 H   0  0  0  0  0  0  0  0  0  0  0  0
   -0.0671    6.9623   -1.9295 H   0  0  0  0  0  0  0  0  0  0  0  0
    1.5184    7.8065   -1.9295 H   0  0  0  0  0  0  0  0  0  0  0  0
    1.4220   13.0105    0.3553 H   0  0  0  0  0  0  0  0  0  0  0  0
    2.8993   12.5978   -0.5795 H   0  0  0  0  0  0  0  0  0  0  0  0
    2.2780   14.2833   -0.5795 H   0  0  0  0  0  0  0  0  0  0  0  0
   -0.6541   14.1138   -1.4463 H   0  0  0  0  0  0  0  0  0  0  0  0
    0.9032   15.0296   -1.8591 H   0  0  0  0  0  0  0  0  0  0  0  0
   -0.9982   13.6555   -3.7782 H   0  0  0  0  0  0  0  0  0  0  0  0
   -0.6387   15.4195   -3.6139 H   0  0  0  0  0  0  0  0  0  0  0  0
    2.0708   15.4950   -3.0951 H   0  0  0  0  0  0  0  0  0  0  0  0
    2.9521   15.1261   -4.6163 H   0  0  0  0  0  0  0  0  0  0  0  0
    1.6308   16.3430   -4.6163 H   0  0  0  0  0  0  0  0  0  0  0  0
  1  2  1  0
  2  3  1  0
  3  4  1  0
  4  5  1  0
  5  6  1  0
  6  7  1  0
  7  8  1  0
  7  9  1  0
  2 10  1  0
 10 11  1  0
 11 12  1  0
 12 13  1  0
 13 14  1  6
 13 15  1  0
 15 16  1  0
 16 17  1  0
 17 18  2  0
 18 19  1  0
 19 20  1  0
 20 21  1  0
 21 22  1  0
 22 23  1  0
 22 24  1  0
 24 25  1  0
 24 26  1  0
 19 27  1  0
 27 28  1  1
 27 29  1  0
 29 30  1  0
 30 31  1  0
 31 32  1  1
  7  5  1  0
 31 10  1  0
 31 13  1  0
 27 15  1  0
 24 18  1  0
  1 33  1  0
  1 34  1  0
  1 35  1  0
  2 36  1  6
  3 37  1  0
  3 38  1  0
  4 39  1  0
  4 40  1  0
  5 41  1  1
  8 42  1  0
  8 43  1  0
  8 44  1  0
  9 45  1  0
  9 46  1  0
  9 47  1  0
 10 48  1  1
 11 49  1  0
 11 50  1  0
 12 51  1  0
 12 52  1  0
 14 53  1  0
 14 54  1  0
 14 55  1  0
 15 56  1  1
 16 57  1  0
 16 58  1  0
 17 59  1  0
 19 60  1  6
 20 61  1  0
 20 62  1  0
 21 63  1  0
 21 64  1  0
 22 65  1  1
 23 66  1  0
 25 67  1  0
 25 68  1  0
 25 69  1  0
 26 70  1  0
 26 71  1  0
 26 72  1  0
 28 73  1  0
 28 74  1  0
 28 75  1  0
 29 76  1  0
 29 77  1  0
 30 78  1  0
 30 79  1  0
 32 80  1  0
 32 81  1  0
 32 82  1  0
M  END
>  <meeko>  (7) 
{"is_sidechain": [false], "intermolecular_energy": 2.731, "internal_energy": -0.839}

$$$$
EPH_relaxed_0001_pdb2pqr_Repair_249_r2_0001_out
     RDKit          3D

 82 86  0  0  0  0  0  0  0  0999 V2000
   -3.7910    7.3370   -3.3210 C   0  0  0  0  0  0  0  0  0  0  0  0
   -3.7570    7.4400   -1.7940 C   0  0  2  0  0  0  0  0  0  0  0  0
   -5.1620    7.3090   -1.1720 C   0  0  0  0  0  0  0  0  0  0  0  0
   -6.2790    7.1350   -2.2050 C   0  0  0  0  0  0  0  0  0  0  0  0
   -7.6280    7.4110   -1.6150 C   0  0  2  0  0  0  0  0  0  0  0  0
   -8.3000    6.2580   -1.0910 O   0  0  0  0  0  0  0  0  0  0  0  0
   -8.9250    6.9000   -2.2150 C   0  0  0  0  0  0  0  0  0  0  0  0
   -8.9340    6.0710   -3.4610 C   0  0  0  0  0  0  0  0  0  0  0  0
  -10.1990    7.6080   -1.8740 C   0  0  0  0  0  0  0  0  0  0  0  0
   -3.1240    8.7620   -1.3760 C   0  0  1  0  0  0  0  0  0  0  0  0
   -3.7180    9.3180   -0.0550 C   0  0  0  0  0  0  0  0  0  0  0  0
   -2.5590   10.0210    0.6970 C   0  0  0  0  0  0  0  0  0  0  0  0
   -1.4280   10.1380   -0.3520 C   0  0  1  0  0  0  0  0  0  0  0  0
   -1.8010   11.3890   -1.2070 C   0  0  0  0  0  0  0  0  0  0  0  0
    0.0280   10.2350    0.2090 C   0  0  2  0  0  0  0  0  0  0  0  0
    0.3110   11.4730    1.0770 C   0  0  0  0  0  0  0  0  0  0  0  0
    0.8170   12.6680    0.3370 C   0  0  0  0  0  0  0  0  0  0  0  0
    1.3050   12.6620   -0.9170 C   0  0  0  0  0  0  0  0  0  0  0  0
    1.4740   11.3480   -1.6910 C   0  0  1  0  0  0  0  0  0  0  0  0
    2.8730   11.3180   -2.3600 C   0  0  0  0  0  0  0  0  0  0  0  0
    3.1320   12.5440   -3.2300 C   0  0  0  0  0  0  0  0  0  0  0  0
    3.0120   13.8280   -2.4120 C   0  0  2  0  0  0  0  0  0  0  0  0
    4.0740   13.8660   -1.4550 O   0  0  0  0  0  0  0  0  0  0  0  0
    1.6460   13.9640   -1.6830 C   0  0  0  0  0  0  0  0  0  0  0  0
    0.5260   14.2260   -2.7200 C   0  0  0  0  0  0  0  0  0  0  0  0
    1.7090   15.2280   -0.7840 C   0  0  0  0  0  0  0  0  0  0  0  0
    1.1570   10.0200   -0.8780 C   0  0  1  0  0  0  0  0  0  0  0  0
    2.4310    9.5490   -0.1100 C   0  0  0  0  0  0  0  0  0  0  0  0
    0.8010    8.8690   -1.8920 C   0  0  0  0  0  0  0  0  0  0  0  0
   -0.6760    8.7500   -2.3160 C   0  0  0  0  0  0  0  0  0  0  0  0
   -1.6000    8.7630   -1.0950 C   0  0  2  0  0  0  0  0  0  0  0  0
   -1.2630    7.5020   -0.2270 C   0  0  0  0  0  0  0  0  0  0  0  0
   -4.1234    6.3300   -3.6133 H   0  0  0  0  0  0  0  0  0  0  0  0
   -4.4899    8.0850   -3.7235 H   0  0  0  0  0  0  0  0  0  0  0  0
   -2.7841    7.5220   -3.7235 H   0  0  0  0  0  0  0  0  0  0  0  0
   -3.1503    6.6024   -1.4193 H   0  0  0  0  0  0  0  0  0  0  0  0
   -5.1663    6.4342   -0.5052 H   0  0  0  0  0  0  0  0  0  0  0  0
   -5.3644    8.2473   -0.6348 H   0  0  0  0  0  0  0  0  0  0  0  0
   -6.1053    7.8315   -3.0385 H   0  0  0  0  0  0  0  0  0  0  0  0
   -6.2642    6.0917   -2.5532 H   0  0  0  0  0  0  0  0  0  0  0  0
   -7.3082    8.4135   -1.2945 H   0  0  0  0  0  0  0  0  0  0  0  0
   -8.9456    5.0045   -3.1918 H   0  0  0  0  0  0  0  0  0  0  0  0
   -9.8296    6.3093   -4.0535 H   0  0  0  0  0  0  0  0  0  0  0  0
   -8.0334    6.2898   -4.0535 H   0  0  0  0  0  0  0  0  0  0  0  0
  -10.3046    7.6667   -0.7806 H   0  0  0  0  0  0  0  0  0  0  0  0
  -10.1780    8.6239   -2.2954 H   0  0  0  0  0  0  0  0  0  0  0  0
  -11.0506    7.0537   -2.2954 H   0  0  0  0  0  0  0  0  0  0  0  0
   -3.3427    9.3621   -2.2715 H   0  0  0  0  0  0  0  0  0  0  0  0
   -4.5194   10.0389   -0.2742 H   0  0  0  0  0  0  0  0  0  0  0  0
   -4.1506    8.5103    0.5537 H   0  0  0  0  0  0  0  0  0  0  0  0
   -2.8698   11.0169    1.0457 H   0  0  0  0  0  0  0  0  0  0  0  0
   -2.2429    9.4636    1.5911 H   0  0  0  0  0  0  0  0  0  0  0  0
   -2.0510   12.2275   -0.5403 H   0  0  0  0  0  0  0  0  0  0  0  0
   -0.9468   11.6673   -1.8417 H   0  0  0  0  0  0  0  0  0  0  0  0
   -2.6682   11.1541   -1.8417 H   0  0  0  0  0  0  0  0  0  0  0  0
    0.0757    9.3742    0.8922 H   0  0  0  0  0  0  0  0  0  0  0  0
   -0.6249   11.7562    1.5809 H   0  0  0  0  0  0  0  0  0  0  0  0
    1.1136   11.1818    1.7706 H   0  0  0  0  0  0  0  0  0  0  0  0
    0.7882   13.6345    0.8615 H   0  0  0  0  0  0  0  0  0  0  0  0
    0.6912   11.3463   -2.4638 H   0  0  0  0  0  0  0  0  0  0  0  0
    3.6397   11.2763   -1.5723 H   0  0  0  0  0  0  0  0  0  0  0  0
    2.9127   10.4323   -3.0111 H   0  0  0  0  0  0  0  0  0  0  0  0
    4.1460   12.4789   -3.6514 H   0  0  0  0  0  0  0  0  0  0  0  0
    2.3824   12.5686   -4.0347 H   0  0  0  0  0  0  0  0  0  0  0  0
    3.0791   14.6732   -3.1128 H   0  0  0  0  0  0  0  0  0  0  0  0
    3.7090   14.2120   -0.6230 H   0  0  0  0  0  0  0  0  0  0  0  0
   -0.4154   14.4462   -2.1952 H   0  0  0  0  0  0  0  0  0  0  0  0
    0.8035   15.0835   -3.3507 H   0  0  0  0  0  0  0  0  0  0  0  0
    0.3943   13.3344   -3.3507 H   0  0  0  0  0  0  0  0  0  0  0  0
    1.6940   14.9267    0.2738 H   0  0  0  0  0  0  0  0  0  0  0  0
    2.6359   15.7818   -0.9944 H   0  0  0  0  0  0  0  0  0  0  0  0
    0.8418   15.8712   -0.9944 H   0  0  0  0  0  0  0  0  0  0  0  0
    2.2516    9.6153    0.9732 H   0  0  0  0  0  0  0  0  0  0  0  0
    2.6583    8.5074   -0.3809 H   0  0  0  0  0  0  0  0  0  0  0  0
    3.2812   10.1922   -0.3809 H   0  0  0  0  0  0  0  0  0  0  0  0
    1.3967    9.0312   -2.8024 H   0  0  0  0  0  0  0  0  0  0  0  0
    1.0235    7.9342   -1.3567 H   0  0  0  0  0  0  0  0  0  0  0  0
   -0.9319    9.5967   -2.9699 H   0  0  0  0  0  0  0  0  0  0  0  0
   -0.8121    7.7972   -2.8485 H   0  0  0  0  0  0  0  0  0  0  0  0
   -1.3324    7.7618    0.8396 H   0  0  0  0  0  0  0  0  0  0  0  0
   -1.9777    6.6977   -0.4557 H   0  0  0  0  0  0  0  0  0  0  0  0
   -0.2423    7.1615   -0.4557 H   0  0  0  0  0  0  0  0  0  0  0  0
  1  2  1  0
  2  3  1  0
  3  4  1  0
  4  5  1  0
  5  6  1  0
  6  7  1  0
  7  8  1  0
  7  9  1  0
  2 10  1  0
 10 11  1  0
 11 12  1  0
 12 13  1  0
 13 14  1  6
 13 15  1  0
 15 16  1  0
 16 17  1  0
 17 18  2  0
 18 19  1  0
 19 20  1  0
 20 21  1  0
 21 22  1  0
 22 23  1  0
 22 24  1  0
 24 25  1  0
 24 26  1  0
 19 27  1  0
 27 28  1  1
 27 29  1  0
 29 30  1  0
 30 31  1  0
 31 32  1  1
  7  5  1  0
 31 10  1  0
 31 13  1  0
 27 15  1  0
 24 18  1  0
  1 33  1  0
  1 34  1  0
  1 35  1  0
  2 36  1  1
  3 37  1  0
  3 38  1  0
  4 39  1  0
  4 40  1  0
  5 41  1  1
  8 42  1  0
  8 43  1  0
  8 44  1  0
  9 45  1  0
  9 46  1  0
  9 47  1  0
 10 48  1  6
 11 49  1  0
 11 50  1  0
 12 51  1  0
 12 52  1  0
 14 53  1  0
 14 54  1  0
 14 55  1  0
 15 56  1  1
 16 57  1  0
 16 58  1  0
 17 59  1  0
 19 60  1  6
 20 61  1  0
 20 62  1  0
 21 63  1  0
 21 64  1  0
 22 65  1  6
 23 66  1  0
 25 67  1  0
 25 68  1  0
 25 69  1  0
 26 70  1  0
 26 71  1  0
 26 72  1  0
 28 73  1  0
 28 74  1  0
 28 75  1  0
 29 76  1  0
 29 77  1  0
 30 78  1  0
 30 79  1  0
 32 80  1  0
 32 81  1  0
 32 82  1  0
M  END
>  <meeko>  (8) 
{"is_sidechain": [false], "intermolecular_energy": 2.731, "internal_energy": -0.839}

$$$$
EPH_relaxed_0001_pdb2pqr_Repair_249_r2_0001_out
     RDKit          3D

 82 86  0  0  0  0  0  0  0  0999 V2000
    4.3640   17.7580    0.0990 C   0  0  0  0  0  0  0  0  0  0  0  0
    2.9590   18.3640    0.0710 C   0  0  2  0  0  0  0  0  0  0  0  0
    2.6150   19.0970    1.3840 C   0  0  0  0  0  0  0  0  0  0  0  0
    3.7640   19.9480    1.9320 C   0  0  0  0  0  0  0  0  0  0  0  0
    4.3990   19.3160    3.1330 C   0  0  2  0  0  0  0  0  0  0  0  0
    5.2570   20.1850    3.8840 O   0  0  0  0  0  0  0  0  0  0  0  0
    5.8890   19.0590    3.2540 C   0  0  0  0  0  0  0  0  0  0  0  0
    6.8360   19.4300    2.1560 C   0  0  0  0  0  0  0  0  0  0  0  0
    6.3600   18.0140    4.2170 C   0  0  0  0  0  0  0  0  0  0  0  0
    1.9280   17.2750   -0.2020 C   0  0  1  0  0  0  0  0  0  0  0  0
    0.7020   17.7980   -0.9960 C   0  0  0  0  0  0  0  0  0  0  0  0
    0.2480   16.6460   -1.9290 C   0  0  0  0  0  0  0  0  0  0  0  0
    1.0060   15.4020   -1.4090 C   0  0  1  0  0  0  0  0  0  0  0  0
    0.1740   14.9070   -0.1850 C   0  0  0  0  0  0  0  0  0  0  0  0
    1.2450   14.2560   -2.4460 C   0  0  2  0  0  0  0  0  0  0  0  0
   -0.0320   13.6030   -3.0020 C   0  0  0  0  0  0  0  0  0  0  0  0
   -0.5320   12.4240   -2.2350 C   0  0  0  0  0  0  0  0  0  0  0  0
    0.1690   11.7340   -1.3160 C   0  0  0  0  0  0  0  0  0  0  0  0
    1.6410   12.0650   -1.0380 C   0  0  1  0  0  0  0  0  0  0  0  0
    2.4680   10.7530   -0.9960 C   0  0  0  0  0  0  0  0  0  0  0  0
    1.9010    9.7360   -0.0100 C   0  0  0  0  0  0  0  0  0  0  0  0
    0.4550    9.3890   -0.3540 C   0  0  2  0  0  0  0  0  0  0  0  0
    0.4330    8.6920   -1.6040 O   0  0  0  0  0  0  0  0  0  0  0  0
   -0.4710   10.6350   -0.4340 C   0  0  0  0  0  0  0  0  0  0  0  0
   -0.6870   11.2140    0.9860 C   0  0  0  0  0  0  0  0  0  0  0  0
   -1.8660   10.1620   -0.9260 C   0  0  0  0  0  0  0  0  0  0  0  0
    2.2940   13.1680   -1.9780 C   0  0  1  0  0  0  0  0  0  0  0  0
    2.8510   12.5010   -3.2730 C   0  0  0  0  0  0  0  0  0  0  0  0
    3.5300   13.8060   -1.2400 C   0  0  0  0  0  0  0  0  0  0  0  0
    3.2450   15.0100   -0.3230 C   0  0  0  0  0  0  0  0  0  0  0  0
    2.3870   16.0560   -1.0420 C   0  0  2  0  0  0  0  0  0  0  0  0
    3.2070   16.5880   -2.2660 C   0  0  0  0  0  0  0  0  0  0  0  0
    4.6832   17.6203    1.1426 H   0  0  0  0  0  0  0  0  0  0  0  0
    4.3536   16.7843   -0.4128 H   0  0  0  0  0  0  0  0  0  0  0  0
    5.0651   18.4338   -0.4128 H   0  0  0  0  0  0  0  0  0  0  0  0
    2.9371   19.1087   -0.7383 H   0  0  0  0  0  0  0  0  0  0  0  0
    1.7529   19.7548    1.1991 H   0  0  0  0  0  0  0  0  0  0  0  0
    2.3991   18.3246    2.1368 H   0  0  0  0  0  0  0  0  0  0  0  0
    4.5255   20.0664    1.1471 H   0  0  0  0  0  0  0  0  0  0  0  0
    3.3541   20.9230    2.2344 H   0  0  0  0  0  0  0  0  0  0  0  0
    3.5239   18.6666    3.2827 H   0  0  0  0  0  0  0  0  0  0  0  0
    7.7764   19.7984    2.5918 H   0  0  0  0  0  0  0  0  0  0  0  0
    7.0414   18.5459    1.5346 H   0  0  0  0  0  0  0  0  0  0  0  0
    6.3862   20.2184    1.5346 H   0  0  0  0  0  0  0  0  0  0  0  0
    6.2012   18.3663    5.2469 H   0  0  0  0  0  0  0  0  0  0  0  0
    5.7936   17.0849    4.0558 H   0  0  0  0  0  0  0  0  0  0  0  0
    7.4312   17.8230    4.0558 H   0  0  0  0  0  0  0  0  0  0  0  0
    1.7128   16.9622    0.8304 H   0  0  0  0  0  0  0  0  0  0  0  0
   -0.1099   18.0677   -0.3046 H   0  0  0  0  0  0  0  0  0  0  0  0
    0.9610   18.6964   -1.5754 H   0  0  0  0  0  0  0  0  0  0  0  0
   -0.8394   16.4955   -1.8595 H   0  0  0  0  0  0  0  0  0  0  0  0
    0.4653   16.8553   -2.9868 H   0  0  0  0  0  0  0  0  0  0  0  0
    0.6776   15.2066    0.7459 H   0  0  0  0  0  0  0  0  0  0  0  0
   -0.8302   15.3546   -0.2191 H   0  0  0  0  0  0  0  0  0  0  0  0
    0.0882   13.8109   -0.2191 H   0  0  0  0  0  0  0  0  0  0  0  0
    1.6981   14.7933   -3.2921 H   0  0  0  0  0  0  0  0  0  0  0  0
   -0.8263   14.3639   -3.0114 H   0  0  0  0  0  0  0  0  0  0  0  0
    0.2297   13.2264   -4.0018 H   0  0  0  0  0  0  0  0  0  0  0  0
   -1.5605   12.0908   -2.4380 H   0  0  0  0  0  0  0  0  0  0  0  0
    1.6617   12.5513   -0.0515 H   0  0  0  0  0  0  0  0  0  0  0  0
    2.4714   10.3059   -2.0010 H   0  0  0  0  0  0  0  0  0  0  0  0
    3.4848   11.0094   -0.6638 H   0  0  0  0  0  0  0  0  0  0  0  0
    2.5095    8.8204   -0.0476 H   0  0  0  0  0  0  0  0  0  0  0  0
    1.9261   10.1738    0.9988 H   0  0  0  0  0  0  0  0  0  0  0  0
    0.0642    8.7592    0.4588 H   0  0  0  0  0  0  0  0  0  0  0  0
    0.9450    9.2160   -2.2420 H   0  0  0  0  0  0  0  0  0  0  0  0
   -0.4058   10.4601    1.7361 H   0  0  0  0  0  0  0  0  0  0  0  0
   -0.0628   12.1105    1.1153 H   0  0  0  0  0  0  0  0  0  0  0  0
   -1.7458   11.4826    1.1153 H   0  0  0  0  0  0  0  0  0  0  0  0
   -2.5065    9.9448   -0.0585 H   0  0  0  0  0  0  0  0  0  0  0  0
   -2.3282   10.9537   -1.5340 H   0  0  0  0  0  0  0  0  0  0  0  0
   -1.7514    9.2525   -1.5340 H   0  0  0  0  0  0  0  0  0  0  0  0
    3.5339   11.6832   -2.9996 H   0  0  0  0  0  0  0  0  0  0  0  0
    2.0166   12.0990   -3.8664 H   0  0  0  0  0  0  0  0  0  0  0  0
    3.3953   13.2504   -3.8664 H   0  0  0  0  0  0  0  0  0  0  0  0
    3.9918   13.0203   -0.6240 H   0  0  0  0  0  0  0  0  0  0  0  0
    4.1721   14.2000   -2.0415 H   0  0  0  0  0  0  0  0  0  0  0  0
    2.7112   14.6612    0.5733 H   0  0  0  0  0  0  0  0  0  0  0  0
    4.2030   15.4734   -0.0447 H   0  0  0  0  0  0  0  0  0  0  0  0
    4.0788   17.1536   -1.9054 H   0  0  0  0  0  0  0  0  0  0  0  0
    3.5479   15.7385   -2.8761 H   0  0  0  0  0  0  0  0  0  0  0  0
    2.5702   17.2455   -2.8761 H   0  0  0  0  0  0  0  0  0  0  0  0
  1  2  1  0
  2  3  1  0
  3  4  1  0
  4  5  1  0
  5  6  1  0
  6  7  1  0
  7  8  1  0
  7  9  1  0
  2 10  1  0
 10 11  1  0
 11 12  1  0
 12 13  1  0
 13 14  1  1
 13 15  1  0
 15 16  1  0
 16 17  1  0
 17 18  2  0
 18 19  1  0
 19 20  1  0
 20 21  1  0
 21 22  1  0
 22 23  1  0
 22 24  1  0
 24 25  1  0
 24 26  1  0
 19 27  1  0
 27 28  1  6
 27 29  1  0
 29 30  1  0
 30 31  1  0
 31 32  1  6
  7  5  1  0
 31 10  1  0
 31 13  1  0
 27 15  1  0
 24 18  1  0
  1 33  1  0
  1 34  1  0
  1 35  1  0
  2 36  1  6
  3 37  1  0
  3 38  1  0
  4 39  1  0
  4 40  1  0
  5 41  1  1
  8 42  1  0
  8 43  1  0
  8 44  1  0
  9 45  1  0
  9 46  1  0
  9 47  1  0
 10 48  1  1
 11 49  1  0
 11 50  1  0
 12 51  1  0
 12 52  1  0
 14 53  1  0
 14 54  1  0
 14 55  1  0
 15 56  1  6
 16 57  1  0
 16 58  1  0
 17 59  1  0
 19 60  1  1
 20 61  1  0
 20 62  1  0
 21 63  1  0
 21 64  1  0
 22 65  1  1
 23 66  1  0
 25 67  1  0
 25 68  1  0
 25 69  1  0
 26 70  1  0
 26 71  1  0
 26 72  1  0
 28 73  1  0
 28 74  1  0
 28 75  1  0
 29 76  1  0
 29 77  1  0
 30 78  1  0
 30 79  1  0
 32 80  1  0
 32 81  1  0
 32 82  1  0
M  END
>  <meeko>  (9) 
{"is_sidechain": [false], "intermolecular_energy": 2.731, "internal_energy": -0.839}

$$$$
EPH_relaxed_0001_pdb2pqr_Repair_249_r2_0001_out
     RDKit          3D

 82 86  0  0  0  0  0  0  0  0999 V2000
   -4.2190    6.9370   -2.8870 C   0  0  0  0  0  0  0  0  0  0  0  0
   -4.4640    7.4200   -1.4550 C   0  0  2  0  0  0  0  0  0  0  0  0
   -5.9630    7.6320   -1.1610 C   0  0  0  0  0  0  0  0  0  0  0  0
   -6.8340    6.4220   -1.5080 C   0  0  0  0  0  0  0  0  0  0  0  0
   -8.1410    6.8360   -2.1150 C   0  0  2  0  0  0  0  0  0  0  0  0
   -8.4810    8.2150   -1.9210 O   0  0  0  0  0  0  0  0  0  0  0  0
   -9.3480    7.2550   -1.2960 C   0  0  0  0  0  0  0  0  0  0  0  0
   -9.3060    7.2790    0.2000 C   0  0  0  0  0  0  0  0  0  0  0  0
  -10.7040    7.1680   -1.9240 C   0  0  0  0  0  0  0  0  0  0  0  0
   -3.6960    8.7130   -1.2040 C   0  0  1  0  0  0  0  0  0  0  0  0
   -4.1420    9.4290    0.0990 C   0  0  0  0  0  0  0  0  0  0  0  0
   -2.8750   10.0910    0.7010 C   0  0  0  0  0  0  0  0  0  0  0  0
   -1.8230   10.0200   -0.4300 C   0  0  1  0  0  0  0  0  0  0  0  0
   -2.1590   11.2220   -1.3680 C   0  0  0  0  0  0  0  0  0  0  0  0
   -0.3250   10.0380    0.0170 C   0  0  2  0  0  0  0  0  0  0  0  0
    0.1220   11.3170    0.7470 C   0  0  0  0  0  0  0  0  0  0  0  0
    0.6630   12.3960   -0.1320 C   0  0  0  0  0  0  0  0  0  0  0  0
    1.0510   12.2420   -1.4120 C   0  0  0  0  0  0  0  0  0  0  0  0
    1.0550   10.8570   -2.0720 C   0  0  1  0  0  0  0  0  0  0  0  0
    2.3920   10.6490   -2.8320 C   0  0  0  0  0  0  0  0  0  0  0  0
    2.6800   11.7700   -3.8250 C   0  0  0  0  0  0  0  0  0  0  0  0
    2.7260   13.1240   -3.1220 C   0  0  2  0  0  0  0  0  0  0  0  0
    3.8590   13.1520   -2.2480 O   0  0  0  0  0  0  0  0  0  0  0  0
    1.4350   13.4390   -2.3150 C   0  0  0  0  0  0  0  0  0  0  0  0
    0.2640   13.7080   -3.2910 C   0  0  0  0  0  0  0  0  0  0  0  0
    1.6680   14.7650   -1.5410 C   0  0  0  0  0  0  0  0  0  0  0  0
    0.6970    9.6350   -1.1220 C   0  0  1  0  0  0  0  0  0  0  0  0
    1.9840    9.1230   -0.4040 C   0  0  0  0  0  0  0  0  0  0  0  0
    0.1720    8.4370   -1.9990 C   0  0  0  0  0  0  0  0  0  0  0  0
   -1.3370    8.4110   -2.3070 C   0  0  0  0  0  0  0  0  0  0  0  0
   -2.1610    8.6060   -1.0310 C   0  0  2  0  0  0  0  0  0  0  0  0
   -1.8600    7.4000   -0.0780 C   0  0  0  0  0  0  0  0  0  0  0  0
   -3.7215    5.9562   -2.8631 H   0  0  0  0  0  0  0  0  0  0  0  0
   -5.1807    6.8476   -3.4134 H   0  0  0  0  0  0  0  0  0  0  0  0
   -3.5787    7.6602   -3.4134 H   0  0  0  0  0  0  0  0  0  0  0  0
   -4.1026    6.6345   -0.7750 H   0  0  0  0  0  0  0  0  0  0  0  0
   -6.0797    7.8481   -0.0888 H   0  0  0  0  0  0  0  0  0  0  0  0
   -6.3010    8.4646   -1.7955 H   0  0  0  0  0  0  0  0  0  0  0  0
   -6.2930    5.7871   -2.2251 H   0  0  0  0  0  0  0  0  0  0  0  0
   -7.0459    5.8738   -0.5782 H   0  0  0  0  0  0  0  0  0  0  0  0
   -8.0194    6.1088   -2.9313 H   0  0  0  0  0  0  0  0  0  0  0  0
  -10.1957    6.7706    0.6000 H   0  0  0  0  0  0  0  0  0  0  0  0
   -8.4001    6.7622    0.5497 H   0  0  0  0  0  0  0  0  0  0  0  0
   -9.2913    8.3218    0.5497 H   0  0  0  0  0  0  0  0  0  0  0  0
  -11.4704    7.1188   -1.1364 H   0  0  0  0  0  0  0  0  0  0  0  0
  -10.8766    8.0569   -2.5485 H   0  0  0  0  0  0  0  0  0  0  0  0
  -10.7615    6.2643   -2.5485 H   0  0  0  0  0  0  0  0  0  0  0  0
   -3.9327    9.2517   -2.1334 H   0  0  0  0  0  0  0  0  0  0  0  0
   -4.8977   10.1950   -0.1292 H   0  0  0  0  0  0  0  0  0  0  0  0
   -4.5906    8.7171    0.8075 H   0  0  0  0  0  0  0  0  0  0  0  0
   -3.0773   11.1361    0.9781 H   0  0  0  0  0  0  0  0  0  0  0  0
   -2.5364    9.5865    1.6179 H   0  0  0  0  0  0  0  0  0  0  0  0
   -2.4057   12.1044   -0.7592 H   0  0  0  0  0  0  0  0  0  0  0  0
   -1.2891   11.4460   -2.0028 H   0  0  0  0  0  0  0  0  0  0  0  0
   -3.0190   10.9625   -2.0028 H   0  0  0  0  0  0  0  0  0  0  0  0
   -0.2939    9.2371    0.7704 H   0  0  0  0  0  0  0  0  0  0  0  0
   -0.7468   11.7217    1.2868 H   0  0  0  0  0  0  0  0  0  0  0  0
    0.9497   11.0178    1.4068 H   0  0  0  0  0  0  0  0  0  0  0  0
    0.7521   13.4023    0.3033 H   0  0  0  0  0  0  0  0  0  0  0  0
    0.2168   10.8576   -2.7843 H   0  0  0  0  0  0  0  0  0  0  0  0
    3.2115   10.6076   -2.0993 H   0  0  0  0  0  0  0  0  0  0  0  0
    2.3105    9.7112   -3.4011 H   0  0  0  0  0  0  0  0  0  0  0  0
    3.6502   11.5823   -4.3082 H   0  0  0  0  0  0  0  0  0  0  0  0
    1.8745   11.7908   -4.5739 H   0  0  0  0  0  0  0  0  0  0  0  0
    2.8061   13.8973   -3.9002 H   0  0  0  0  0  0  0  0  0  0  0  0
    4.5310   13.7230   -2.6560 H   0  0  0  0  0  0  0  0  0  0  0  0
   -0.6507   13.9181   -2.7172 H   0  0  0  0  0  0  0  0  0  0  0  0
    0.5064   14.5739   -3.9247 H   0  0  0  0  0  0  0  0  0  0  0  0
    0.1042   12.8232   -3.9247 H   0  0  0  0  0  0  0  0  0  0  0  0
    1.6336   14.5690   -0.4592 H   0  0  0  0  0  0  0  0  0  0  0  0
    2.6523   15.1772   -1.8078 H   0  0  0  0  0  0  0  0  0  0  0  0
    0.8831   15.4881   -1.8078 H   0  0  0  0  0  0  0  0  0  0  0  0
    1.8430    9.1791    0.6855 H   0  0  0  0  0  0  0  0  0  0  0  0
    2.1762    8.0799   -0.6956 H   0  0  0  0  0  0  0  0  0  0  0  0
    2.8402    9.7490   -0.6956 H   0  0  0  0  0  0  0  0  0  0  0  0
    0.7072    8.4681   -2.9595 H   0  0  0  0  0  0  0  0  0  0  0  0
    0.3584    7.5358   -1.3965 H   0  0  0  0  0  0  0  0  0  0  0  0
   -1.5736    9.2190   -3.0150 H   0  0  0  0  0  0  0  0  0  0  0  0
   -1.5893    7.4322   -2.7409 H   0  0  0  0  0  0  0  0  0  0  0  0
   -1.9423    7.7299    0.9681 H   0  0  0  0  0  0  0  0  0  0  0  0
   -2.5845    6.5941   -0.2664 H   0  0  0  0  0  0  0  0  0  0  0  0
   -0.8417    7.0290   -0.2664 H   0  0  0  0  0  0  0  0  0  0  0  0
  1  2  1  0
  2  3  1  0
  3  4  1  0
  4  5  1  0
  5  6  1  0
  6  7  1  0
  7  8  1  0
  7  9  1  0
  2 10  1  0
 10 11  1  0
 11 12  1  0
 12 13  1  0
 13 14  1  6
 13 15  1  0
 15 16  1  0
 16 17  1  0
 17 18  2  0
 18 19  1  0
 19 20  1  0
 20 21  1  0
 21 22  1  0
 22 23  1  0
 22 24  1  0
 24 25  1  0
 24 26  1  0
 19 27  1  0
 27 28  1  1
 27 29  1  0
 29 30  1  0
 30 31  1  0
 31 32  1  1
  7  5  1  0
 31 10  1  0
 31 13  1  0
 27 15  1  0
 24 18  1  0
  1 33  1  0
  1 34  1  0
  1 35  1  0
  2 36  1  1
  3 37  1  0
  3 38  1  0
  4 39  1  0
  4 40  1  0
  5 41  1  6
  8 42  1  0
  8 43  1  0
  8 44  1  0
  9 45  1  0
  9 46  1  0
  9 47  1  0
 10 48  1  6
 11 49  1  0
 11 50  1  0
 12 51  1  0
 12 52  1  0
 14 53  1  0
 14 54  1  0
 14 55  1  0
 15 56  1  1
 16 57  1  0
 16 58  1  0
 17 59  1  0
 19 60  1  6
 20 61  1  0
 20 62  1  0
 21 63  1  0
 21 64  1  0
 22 65  1  6
 23 66  1  0
 25 67  1  0
 25 68  1  0
 25 69  1  0
 26 70  1  0
 26 71  1  0
 26 72  1  0
 28 73  1  0
 28 74  1  0
 28 75  1  0
 29 76  1  0
 29 77  1  0
 30 78  1  0
 30 79  1  0
 32 80  1  0
 32 81  1  0
 32 82  1  0
M  END
>  <meeko>  (10) 
{"is_sidechain": [false], "intermolecular_energy": 2.731, "internal_energy": -0.839}

$$$$
EPH_relaxed_0001_pdb2pqr_Repair_249_r2_0001_out
     RDKit          3D

 82 86  0  0  0  0  0  0  0  0999 V2000
    0.2910   16.0500   -8.2630 C   0  0  0  0  0  0  0  0  0  0  0  0
    1.5380   16.1040   -7.3770 C   0  0  2  0  0  0  0  0  0  0  0  0
    2.6500   15.1630   -7.8810 C   0  0  0  0  0  0  0  0  0  0  0  0
    2.3360   14.5050   -9.2270 C   0  0  0  0  0  0  0  0  0  0  0  0
    2.8410   15.3230  -10.3760 C   0  0  2  0  0  0  0  0  0  0  0  0
    1.9750   16.3930  -10.7760 O   0  0  0  0  0  0  0  0  0  0  0  0
    2.1780   15.3490  -11.7410 C   0  0  0  0  0  0  0  0  0  0  0  0
    0.9530   14.5390  -12.0280 C   0  0  0  0  0  0  0  0  0  0  0  0
    2.9920   15.7710  -12.9240 C   0  0  0  0  0  0  0  0  0  0  0  0
    1.1700   15.7530   -5.9400 C   0  0  1  0  0  0  0  0  0  0  0  0
   -0.1720   16.3920   -5.4940 C   0  0  0  0  0  0  0  0  0  0  0  0
   -0.8550   15.3790   -4.5400 C   0  0  0  0  0  0  0  0  0  0  0  0
    0.2510   14.3500   -4.2070 C   0  0  1  0  0  0  0  0  0  0  0  0
    1.1020   15.0240   -3.0860 C   0  0  0  0  0  0  0  0  0  0  0  0
   -0.2350   12.9250   -3.7860 C   0  0  2  0  0  0  0  0  0  0  0  0
   -1.0710   12.8760   -2.4950 C   0  0  0  0  0  0  0  0  0  0  0  0
   -0.2920   12.6760   -1.2370 C   0  0  0  0  0  0  0  0  0  0  0  0
    0.9860   12.2570   -1.1670 C   0  0  0  0  0  0  0  0  0  0  0  0
    1.7490   11.8430   -2.4320 C   0  0  1  0  0  0  0  0  0  0  0  0
    2.4880   10.5030   -2.1760 C   0  0  0  0  0  0  0  0  0  0  0  0
    3.3850   10.5560   -0.9430 C   0  0  0  0  0  0  0  0  0  0  0  0
    2.5800   10.9140    0.3030 C   0  0  2  0  0  0  0  0  0  0  0  0
    1.6770    9.8410    0.5920 O   0  0  0  0  0  0  0  0  0  0  0  0
    1.7850   12.2410    0.1590 C   0  0  0  0  0  0  0  0  0  0  0  0
    2.7680   13.4380    0.1490 C   0  0  0  0  0  0  0  0  0  0  0  0
    0.9070   12.4120    1.4280 C   0  0  0  0  0  0  0  0  0  0  0  0
    0.9040   11.8270   -3.7780 C   0  0  1  0  0  0  0  0  0  0  0  0
    0.1950   10.4480   -3.9440 C   0  0  0  0  0  0  0  0  0  0  0  0
    1.8840   11.9730   -5.0020 C   0  0  0  0  0  0  0  0  0  0  0  0
    2.2320   13.4070   -5.4460 C   0  0  0  0  0  0  0  0  0  0  0  0
    0.9660   14.2540   -5.6040 C   0  0  2  0  0  0  0  0  0  0  0  0
    0.1000   13.6130   -6.7420 C   0  0  0  0  0  0  0  0  0  0  0  0
   -0.6075   16.0111   -7.6295 H   0  0  0  0  0  0  0  0  0  0  0  0
    0.2533   16.9474   -8.8981 H   0  0  0  0  0  0  0  0  0  0  0  0
    0.3310   15.1527   -8.8981 H   0  0  0  0  0  0  0  0  0  0  0  0
    1.9303   17.1308   -7.4203 H   0  0  0  0  0  0  0  0  0  0  0  0
    3.5767   15.7461   -7.9873 H   0  0  0  0  0  0  0  0  0  0  0  0
    2.7458   14.3538   -7.1421 H   0  0  0  0  0  0  0  0  0  0  0  0
    2.8121   13.5139   -9.2588 H   0  0  0  0  0  0  0  0  0  0  0  0
    1.2432   14.4211   -9.3205 H   0  0  0  0  0  0  0  0  0  0  0  0
    3.8832   15.1585  -10.0648 H   0  0  0  0  0  0  0  0  0  0  0  0
    0.4869   14.2308  -11.0805 H   0  0  0  0  0  0  0  0  0  0  0  0
    0.2404   15.1446  -12.6072 H   0  0  0  0  0  0  0  0  0  0  0  0
    1.2312   13.6462  -12.6072 H   0  0  0  0  0  0  0  0  0  0  0  0
    3.9191   16.2517  -12.5785 H   0  0  0  0  0  0  0  0  0  0  0  0
    3.2409   14.8884  -13.5315 H   0  0  0  0  0  0  0  0  0  0  0  0
    2.4142   16.4831  -13.5315 H   0  0  0  0  0  0  0  0  0  0  0  0
    2.0614   16.1370   -5.4223 H   0  0  0  0  0  0  0  0  0  0  0  0
    0.0161   17.3398   -4.9683 H   0  0  0  0  0  0  0  0  0  0  0  0
   -0.8123   16.6111   -6.3612 H   0  0  0  0  0  0  0  0  0  0  0  0
   -1.2057   15.8815   -3.6265 H   0  0  0  0  0  0  0  0  0  0  0  0
   -1.7393   14.9086   -4.9947 H   0  0  0  0  0  0  0  0  0  0  0  0
    0.7179   14.7198   -2.1011 H   0  0  0  0  0  0  0  0  0  0  0  0
    2.1516   14.7096   -3.1833 H   0  0  0  0  0  0  0  0  0  0  0  0
    1.0363   16.1177   -3.1833 H   0  0  0  0  0  0  0  0  0  0  0  0
   -0.9259   12.6619   -4.6005 H   0  0  0  0  0  0  0  0  0  0  0  0
   -1.6182   13.8263   -2.4083 H   0  0  0  0  0  0  0  0  0  0  0  0
   -1.7257   11.9972   -2.5900 H   0  0  0  0  0  0  0  0  0  0  0  0
   -0.8051   12.8888   -0.2875 H   0  0  0  0  0  0  0  0  0  0  0  0
    2.4806   12.6424   -2.6208 H   0  0  0  0  0  0  0  0  0  0  0  0
    1.7398    9.7092   -2.0339 H   0  0  0  0  0  0  0  0  0  0  0  0
    3.1293   10.3036   -3.0472 H   0  0  0  0  0  0  0  0  0  0  0  0
    3.8550    9.5722   -0.7974 H   0  0  0  0  0  0  0  0  0  0  0  0
    4.1513   11.3294   -1.0997 H   0  0  0  0  0  0  0  0  0  0  0  0
    3.2948   11.0649    1.1254 H   0  0  0  0  0  0  0  0  0  0  0  0
    0.8130   10.0740    0.2130 H   0  0  0  0  0  0  0  0  0  0  0  0
    3.0049   13.7265    1.1837 H   0  0  0  0  0  0  0  0  0  0  0  0
    3.6927   13.1488   -0.3719 H   0  0  0  0  0  0  0  0  0  0  0  0
    2.3045   14.2888   -0.3719 H   0  0  0  0  0  0  0  0  0  0  0  0
    1.5317   12.2903    2.3252 H   0  0  0  0  0  0  0  0  0  0  0  0
    0.4553   13.4150    1.4289 H   0  0  0  0  0  0  0  0  0  0  0  0
    0.1119   11.6518    1.4289 H   0  0  0  0  0  0  0  0  0  0  0  0
   -0.0222   10.0256   -2.9518 H   0  0  0  0  0  0  0  0  0  0  0  0
   -0.7452   10.5835   -4.4986 H   0  0  0  0  0  0  0  0  0  0  0  0
    0.8523    9.7622   -4.4986 H   0  0  0  0  0  0  0  0  0  0  0  0
    2.8251   11.4691   -4.7368 H   0  0  0  0  0  0  0  0  0  0  0  0
    1.3482   11.5298   -5.8543 H   0  0  0  0  0  0  0  0  0  0  0  0
    2.8827   13.8700   -4.6896 H   0  0  0  0  0  0  0  0  0  0  0  0
    2.7453   13.3586   -6.4177 H   0  0  0  0  0  0  0  0  0  0  0  0
   -0.7079   13.0150   -6.2952 H   0  0  0  0  0  0  0  0  0  0  0  0
   -0.3343   14.4090   -7.3648 H   0  0  0  0  0  0  0  0  0  0  0  0
    0.7344   12.9651   -7.3648 H   0  0  0  0  0  0  0  0  0  0  0  0
  1  2  1  0
  2  3  1  0
  3  4  1  0
  4  5  1  0
  5  6  1  0
  6  7  1  0
  7  8  1  0
  7  9  1  0
  2 10  1  0
 10 11  1  0
 11 12  1  0
 12 13  1  0
 13 14  1  1
 13 15  1  0
 15 16  1  0
 16 17  1  0
 17 18  2  0
 18 19  1  0
 19 20  1  0
 20 21  1  0
 21 22  1  0
 22 23  1  0
 22 24  1  0
 24 25  1  0
 24 26  1  0
 19 27  1  0
 27 28  1  6
 27 29  1  0
 29 30  1  0
 30 31  1  0
 31 32  1  6
  7  5  1  0
 31 10  1  0
 31 13  1  0
 27 15  1  0
 24 18  1  0
  1 33  1  0
  1 34  1  0
  1 35  1  0
  2 36  1  1
  3 37  1  0
  3 38  1  0
  4 39  1  0
  4 40  1  0
  5 41  1  6
  8 42  1  0
  8 43  1  0
  8 44  1  0
  9 45  1  0
  9 46  1  0
  9 47  1  0
 10 48  1  1
 11 49  1  0
 11 50  1  0
 12 51  1  0
 12 52  1  0
 14 53  1  0
 14 54  1  0
 14 55  1  0
 15 56  1  6
 16 57  1  0
 16 58  1  0
 17 59  1  0
 19 60  1  6
 20 61  1  0
 20 62  1  0
 21 63  1  0
 21 64  1  0
 22 65  1  1
 23 66  1  0
 25 67  1  0
 25 68  1  0
 25 69  1  0
 26 70  1  0
 26 71  1  0
 26 72  1  0
 28 73  1  0
 28 74  1  0
 28 75  1  0
 29 76  1  0
 29 77  1  0
 30 78  1  0
 30 79  1  0
 32 80  1  0
 32 81  1  0
 32 82  1  0
M  END
>  <meeko>  (11) 
{"is_sidechain": [false], "intermolecular_energy": 2.731, "internal_energy": -0.839}

$$$$
EPH_relaxed_0001_pdb2pqr_Repair_249_r2_0001_out
     RDKit          3D

 82 86  0  0  0  0  0  0  0  0999 V2000
    1.0540   14.9240   -2.6540 C   0  0  0  0  0  0  0  0  0  0  0  0
    1.2440   14.2730   -4.0260 C   0  0  2  0  0  0  0  0  0  0  0  0
    0.4910   15.0310   -5.1380 C   0  0  0  0  0  0  0  0  0  0  0  0
    0.9380   14.6520   -6.5530 C   0  0  0  0  0  0  0  0  0  0  0  0
    0.7660   15.7900   -7.5120 C   0  0  2  0  0  0  0  0  0  0  0  0
    0.3830   15.4040   -8.8380 O   0  0  0  0  0  0  0  0  0  0  0  0
    1.6730   16.0220   -8.7060 C   0  0  0  0  0  0  0  0  0  0  0  0
    2.8200   15.1070   -9.0040 C   0  0  0  0  0  0  0  0  0  0  0  0
    1.7460   17.3970   -9.2940 C   0  0  0  0  0  0  0  0  0  0  0  0
    0.7830   12.8210   -3.9810 C   0  0  1  0  0  0  0  0  0  0  0  0
    1.8970   11.8260   -4.4040 C   0  0  0  0  0  0  0  0  0  0  0  0
    1.7080   10.5510   -3.5430 C   0  0  0  0  0  0  0  0  0  0  0  0
    0.3110   10.7180   -2.9000 C   0  0  1  0  0  0  0  0  0  0  0  0
   -0.6960   10.2720   -4.0060 C   0  0  0  0  0  0  0  0  0  0  0  0
    0.0710    9.9500   -1.5590 C   0  0  2  0  0  0  0  0  0  0  0  0
    0.1610    8.4180   -1.6590 C   0  0  0  0  0  0  0  0  0  0  0  0
   -1.1250    7.7220   -1.9610 C   0  0  0  0  0  0  0  0  0  0  0  0
   -2.3510    8.2680   -1.8640 C   0  0  0  0  0  0  0  0  0  0  0  0
   -2.5390    9.6900   -1.3190 C   0  0  1  0  0  0  0  0  0  0  0  0
   -3.6940    9.6990   -0.2830 C   0  0  0  0  0  0  0  0  0  0  0  0
   -4.9870    9.1130   -0.8430 C   0  0  0  0  0  0  0  0  0  0  0  0
   -4.7730    7.6790   -1.3210 C   0  0  2  0  0  0  0  0  0  0  0  0
   -4.4940    6.8520   -0.1870 O   0  0  0  0  0  0  0  0  0  0  0  0
   -3.6260    7.5440   -2.3610 C   0  0  0  0  0  0  0  0  0  0  0  0
   -4.0600    8.1890   -3.7010 C   0  0  0  0  0  0  0  0  0  0  0  0
   -3.4220    6.0330   -2.6530 C   0  0  0  0  0  0  0  0  0  0  0  0
   -1.2270   10.4030   -0.7760 C   0  0  1  0  0  0  0  0  0  0  0  0
   -0.9980   10.0290    0.7200 C   0  0  0  0  0  0  0  0  0  0  0  0
   -1.4360   11.9640   -0.8160 C   0  0  0  0  0  0  0  0  0  0  0  0
   -1.0690   12.6800   -2.1290 C   0  0  0  0  0  0  0  0  0  0  0  0
    0.3240   12.2630   -2.6100 C   0  0  2  0  0  0  0  0  0  0  0  0
    1.3610   12.7180   -1.5270 C   0  0  0  0  0  0  0  0  0  0  0  0
    1.2690   14.1875   -1.8658 H   0  0  0  0  0  0  0  0  0  0  0  0
    1.7404   15.7778   -2.5551 H   0  0  0  0  0  0  0  0  0  0  0  0
    0.0161   15.2746   -2.5551 H   0  0  0  0  0  0  0  0  0  0  0  0
    2.3166   14.3150   -4.2662 H   0  0  0  0  0  0  0  0  0  0  0  0
   -0.5826   14.8112   -5.0424 H   0  0  0  0  0  0  0  0  0  0  0  0
    0.7140   16.1000   -5.0060 H   0  0  0  0  0  0  0  0  0  0  0  0
    1.9997   14.3654   -6.5267 H   0  0  0  0  0  0  0  0  0  0  0  0
    0.3123   13.8156   -6.8977 H   0  0  0  0  0  0  0  0  0  0  0  0
    0.4291   16.4526   -6.7012 H   0  0  0  0  0  0  0  0  0  0  0  0
    3.2623   14.7542   -8.0606 H   0  0  0  0  0  0  0  0  0  0  0  0
    2.4601   14.2452   -9.5852 H   0  0  0  0  0  0  0  0  0  0  0  0
    3.5803   15.6494   -9.5852 H   0  0  0  0  0  0  0  0  0  0  0  0
    1.7855   18.1404   -8.4842 H   0  0  0  0  0  0  0  0  0  0  0  0
    2.6500   17.4828   -9.9149 H   0  0  0  0  0  0  0  0  0  0  0  0
    0.8562   17.5780   -9.9149 H   0  0  0  0  0  0  0  0  0  0  0  0
   -0.0728   12.8781   -4.6698 H   0  0  0  0  0  0  0  0  0  0  0  0
    1.7997   11.5800   -5.4717 H   0  0  0  0  0  0  0  0  0  0  0  0
    2.8952   12.2620   -4.2505 H   0  0  0  0  0  0  0  0  0  0  0  0
    1.7407    9.6492   -4.1721 H   0  0  0  0  0  0  0  0  0  0  0  0
    2.5021   10.4340   -2.7909 H   0  0  0  0  0  0  0  0  0  0  0  0
   -1.6045    9.8696   -3.5340 H   0  0  0  0  0  0  0  0  0  0  0  0
   -0.9603   11.1372   -4.6317 H   0  0  0  0  0  0  0  0  0  0  0  0
   -0.2329    9.4948   -4.6317 H   0  0  0  0  0  0  0  0  0  0  0  0
    0.9344   10.2604   -0.9522 H   0  0  0  0  0  0  0  0  0  0  0  0
    0.8768    8.1709   -2.4569 H   0  0  0  0  0  0  0  0  0  0  0  0
    0.4714    8.0658   -0.6642 H   0  0  0  0  0  0  0  0  0  0  0  0
   -1.0651    6.6743   -2.2907 H   0  0  0  0  0  0  0  0  0  0  0  0
   -2.8084   10.3141   -2.1838 H   0  0  0  0  0  0  0  0  0  0  0  0
   -3.3879    9.1061    0.5915 H   0  0  0  0  0  0  0  0  0  0  0  0
   -3.8919   10.7467   -0.0127 H   0  0  0  0  0  0  0  0  0  0  0  0
   -5.7557    9.1194   -0.0562 H   0  0  0  0  0  0  0  0  0  0  0  0
   -5.3082    9.7246   -1.6990 H   0  0  0  0  0  0  0  0  0  0  0  0
   -5.6952    7.3597   -1.8286 H   0  0  0  0  0  0  0  0  0  0  0  0
   -5.1010    6.0930   -0.2200 H   0  0  0  0  0  0  0  0  0  0  0  0
   -4.6635    9.0859   -3.4977 H   0  0  0  0  0  0  0  0  0  0  0  0
   -3.1672    8.4709   -4.2784 H   0  0  0  0  0  0  0  0  0  0  0  0
   -4.6575    7.4681   -4.2784 H   0  0  0  0  0  0  0  0  0  0  0  0
   -3.3477    5.4828   -1.7034 H   0  0  0  0  0  0  0  0  0  0  0  0
   -4.2769    5.6526   -3.2313 H   0  0  0  0  0  0  0  0  0  0  0  0
   -2.4968    5.8929   -3.2313 H   0  0  0  0  0  0  0  0  0  0  0  0
   -1.4638   10.7898    1.3636 H   0  0  0  0  0  0  0  0  0  0  0  0
   -1.4503    9.0477    0.9260 H   0  0  0  0  0  0  0  0  0  0  0  0
    0.0817    9.9857    0.9260 H   0  0  0  0  0  0  0  0  0  0  0  0
   -2.4989   12.1627   -0.6144 H   0  0  0  0  0  0  0  0  0  0  0  0
   -0.7412   12.3669   -0.0644 H   0  0  0  0  0  0  0  0  0  0  0  0
   -1.8089   12.4192   -2.9000 H   0  0  0  0  0  0  0  0  0  0  0  0
   -1.0674   13.7650   -1.9482 H   0  0  0  0  0  0  0  0  0  0  0  0
    0.9473   12.5365   -0.5241 H   0  0  0  0  0  0  0  0  0  0  0  0
    2.2927   12.1460   -1.6483 H   0  0  0  0  0  0  0  0  0  0  0  0
    1.5710   13.7909   -1.6483 H   0  0  0  0  0  0  0  0  0  0  0  0
  1  2  1  0
  2  3  1  0
  3  4  1  0
  4  5  1  0
  5  6  1  0
  6  7  1  0
  7  8  1  0
  7  9  1  0
  2 10  1  0
 10 11  1  0
 11 12  1  0
 12 13  1  0
 13 14  1  6
 13 15  1  0
 15 16  1  0
 16 17  1  0
 17 18  2  0
 18 19  1  0
 19 20  1  0
 20 21  1  0
 21 22  1  0
 22 23  1  0
 22 24  1  0
 24 25  1  0
 24 26  1  0
 19 27  1  0
 27 28  1  1
 27 29  1  0
 29 30  1  0
 30 31  1  0
 31 32  1  1
  7  5  1  0
 31 10  1  0
 31 13  1  0
 27 15  1  0
 24 18  1  0
  1 33  1  0
  1 34  1  0
  1 35  1  0
  2 36  1  6
  3 37  1  0
  3 38  1  0
  4 39  1  0
  4 40  1  0
  5 41  1  1
  8 42  1  0
  8 43  1  0
  8 44  1  0
  9 45  1  0
  9 46  1  0
  9 47  1  0
 10 48  1  6
 11 49  1  0
 11 50  1  0
 12 51  1  0
 12 52  1  0
 14 53  1  0
 14 54  1  0
 14 55  1  0
 15 56  1  1
 16 57  1  0
 16 58  1  0
 17 59  1  0
 19 60  1  6
 20 61  1  0
 20 62  1  0
 21 63  1  0
 21 64  1  0
 22 65  1  6
 23 66  1  0
 25 67  1  0
 25 68  1  0
 25 69  1  0
 26 70  1  0
 26 71  1  0
 26 72  1  0
 28 73  1  0
 28 74  1  0
 28 75  1  0
 29 76  1  0
 29 77  1  0
 30 78  1  0
 30 79  1  0
 32 80  1  0
 32 81  1  0
 32 82  1  0
M  END
>  <meeko>  (12) 
{"is_sidechain": [false], "intermolecular_energy": 2.731, "internal_energy": -0.839}

$$$$
EPH_relaxed_0001_pdb2pqr_Repair_249_r2_0001_out
     RDKit          3D

 82 86  0  0  0  0  0  0  0  0999 V2000
    3.7640   17.5700    0.9690 C   0  0  0  0  0  0  0  0  0  0  0  0
    3.6390   16.7030   -0.2870 C   0  0  2  0  0  0  0  0  0  0  0  0
    3.5680   17.5500   -1.5740 C   0  0  0  0  0  0  0  0  0  0  0  0
    2.7800   18.8530   -1.4100 C   0  0  0  0  0  0  0  0  0  0  0  0
    1.5720   18.8850   -2.2960 C   0  0  2  0  0  0  0  0  0  0  0  0
    1.2030   20.1910   -2.7590 O   0  0  0  0  0  0  0  0  0  0  0  0
    0.2590   19.5340   -1.8980 C   0  0  0  0  0  0  0  0  0  0  0  0
    0.0880   20.1940   -0.5660 C   0  0  0  0  0  0  0  0  0  0  0  0
   -0.9930   19.1010   -2.5950 C   0  0  0  0  0  0  0  0  0  0  0  0
    2.4070   15.8110   -0.1830 C   0  0  1  0  0  0  0  0  0  0  0  0
    1.0850   16.6220   -0.1340 C   0  0  0  0  0  0  0  0  0  0  0  0
    0.0200   15.7860   -0.8890 C   0  0  0  0  0  0  0  0  0  0  0  0
    0.6660   14.3910   -1.0560 C   0  0  1  0  0  0  0  0  0  0  0  0
    0.4380   13.6770    0.3130 C   0  0  0  0  0  0  0  0  0  0  0  0
    0.1460   13.5270   -2.2520 C   0  0  2  0  0  0  0  0  0  0  0  0
   -1.3440   13.1490   -2.1830 C   0  0  0  0  0  0  0  0  0  0  0  0
   -1.6440   11.8620   -1.4890 C   0  0  0  0  0  0  0  0  0  0  0  0
   -0.7450   10.9050   -1.1930 C   0  0  0  0  0  0  0  0  0  0  0  0
    0.7140   11.0260   -1.6510 C   0  0  1  0  0  0  0  0  0  0  0  0
    1.1770    9.6790   -2.2670 C   0  0  0  0  0  0  0  0  0  0  0  0
    0.9570    8.4990   -1.3260 C   0  0  0  0  0  0  0  0  0  0  0  0
   -0.5150    8.3770   -0.9390 C   0  0  2  0  0  0  0  0  0  0  0  0
   -1.2690    8.0220   -2.1020 O   0  0  0  0  0  0  0  0  0  0  0  0
   -1.0950    9.6770   -0.3160 C   0  0  0  0  0  0  0  0  0  0  0  0
   -0.4860    9.8960    1.0920 C   0  0  0  0  0  0  0  0  0  0  0  0
   -2.6180    9.4660   -0.1020 C   0  0  0  0  0  0  0  0  0  0  0  0
    1.0470   12.2690   -2.5830 C   0  0  1  0  0  0  0  0  0  0  0  0
    0.7730   11.9060   -4.0740 C   0  0  0  0  0  0  0  0  0  0  0  0
    2.5850   12.5920   -2.4800 C   0  0  0  0  0  0  0  0  0  0  0  0
    3.0210   13.5460   -1.3520 C   0  0  0  0  0  0  0  0  0  0  0  0
    2.1550   14.8090   -1.3370 C   0  0  2  0  0  0  0  0  0  0  0  0
    2.3810   15.5600   -2.6930 C   0  0  0  0  0  0  0  0  0  0  0  0
    3.6725   16.9357    1.8630 H   0  0  0  0  0  0  0  0  0  0  0  0
    4.7436   18.0704    0.9731 H   0  0  0  0  0  0  0  0  0  0  0  0
    2.9657   18.3267    0.9731 H   0  0  0  0  0  0  0  0  0  0  0  0
    4.5444   16.0815   -0.3503 H   0  0  0  0  0  0  0  0  0  0  0  0
    4.5938   17.8008   -1.8819 H   0  0  0  0  0  0  0  0  0  0  0  0
    3.0397   16.9471   -2.3272 H   0  0  0  0  0  0  0  0  0  0  0  0
    2.4565   18.9446   -0.3626 H   0  0  0  0  0  0  0  0  0  0  0  0
    3.4362   19.6888   -1.6943 H   0  0  0  0  0  0  0  0  0  0  0  0
    1.8111   17.8891   -2.6972 H   0  0  0  0  0  0  0  0  0  0  0  0
    0.2776   19.4621    0.2329 H   0  0  0  0  0  0  0  0  0  0  0  0
    0.7998   21.0278   -0.4759 H   0  0  0  0  0  0  0  0  0  0  0  0
   -0.9391   20.5773   -0.4759 H   0  0  0  0  0  0  0  0  0  0  0  0
   -1.7560   18.8371   -1.8479 H   0  0  0  0  0  0  0  0  0  0  0  0
   -1.3651   19.9227   -3.2246 H   0  0  0  0  0  0  0  0  0  0  0  0
   -0.7779   18.2250   -3.2246 H   0  0  0  0  0  0  0  0  0  0  0  0
    2.6512   15.2663    0.7409 H   0  0  0  0  0  0  0  0  0  0  0  0
    0.7744   16.7777    0.9097 H   0  0  0  0  0  0  0  0  0  0  0  0
    1.2112   17.6119   -0.5967 H   0  0  0  0  0  0  0  0  0  0  0  0
   -0.9074   15.7167   -0.3015 H   0  0  0  0  0  0  0  0  0  0  0  0
   -0.2565   16.2360   -1.8539 H   0  0  0  0  0  0  0  0  0  0  0  0
    0.6612   14.3758    1.1327 H   0  0  0  0  0  0  0  0  0  0  0  0
   -0.6095   13.3492    0.3856 H   0  0  0  0  0  0  0  0  0  0  0  0
    1.1017   12.8028    0.3856 H   0  0  0  0  0  0  0  0  0  0  0  0
    0.2402   14.2187   -3.1021 H   0  0  0  0  0  0  0  0  0  0  0  0
   -1.8744   13.9532   -1.6519 H   0  0  0  0  0  0  0  0  0  0  0  0
   -1.6729   13.0170   -3.2243 H   0  0  0  0  0  0  0  0  0  0  0  0
   -2.6882   11.6803   -1.1945 H   0  0  0  0  0  0  0  0  0  0  0  0
    1.2998   11.2435   -0.7457 H   0  0  0  0  0  0  0  0  0  0  0  0
    0.6107    9.5017   -3.1932 H   0  0  0  0  0  0  0  0  0  0  0  0
    2.2571    9.7544   -2.4609 H   0  0  0  0  0  0  0  0  0  0  0  0
    1.2750    7.5736   -1.8285 H   0  0  0  0  0  0  0  0  0  0  0  0
    1.5478    8.6632   -0.4128 H   0  0  0  0  0  0  0  0  0  0  0  0
   -0.5892    7.5992   -0.1647 H   0  0  0  0  0  0  0  0  0  0  0  0
   -2.1030    7.6230   -1.8010 H   0  0  0  0  0  0  0  0  0  0  0  0
   -1.2286    9.6289    1.8583 H   0  0  0  0  0  0  0  0  0  0  0  0
    0.4054    9.2621    1.2086 H   0  0  0  0  0  0  0  0  0  0  0  0
   -0.2025   10.9524    1.2086 H   0  0  0  0  0  0  0  0  0  0  0  0
   -2.8361    9.4358    0.9757 H   0  0  0  0  0  0  0  0  0  0  0  0
   -3.1718   10.2960   -0.5650 H   0  0  0  0  0  0  0  0  0  0  0  0
   -2.9253    8.5167   -0.5650 H   0  0  0  0  0  0  0  0  0  0  0  0
    0.1109   11.0289   -4.1221 H   0  0  0  0  0  0  0  0  0  0  0  0
    0.2905   12.7576   -4.5760 H   0  0  0  0  0  0  0  0  0  0  0  0
    1.7242   11.6754   -4.5760 H   0  0  0  0  0  0  0  0  0  0  0  0
    3.1158   11.6397   -2.3340 H   0  0  0  0  0  0  0  0  0  0  0  0
    2.8312   13.1191   -3.4136 H   0  0  0  0  0  0  0  0  0  0  0  0
    2.9215   13.0299   -0.3857 H   0  0  0  0  0  0  0  0  0  0  0  0
    4.0667   13.8398   -1.5257 H   0  0  0  0  0  0  0  0  0  0  0  0
    2.6926   16.5955   -2.4912 H   0  0  0  0  0  0  0  0  0  0  0  0
    3.1646   15.0471   -3.2700 H   0  0  0  0  0  0  0  0  0  0  0  0
    1.4445   15.5648   -3.2700 H   0  0  0  0  0  0  0  0  0  0  0  0
  1  2  1  0
  2  3  1  0
  3  4  1  0
  4  5  1  0
  5  6  1  0
  6  7  1  0
  7  8  1  0
  7  9  1  0
  2 10  1  0
 10 11  1  0
 11 12  1  0
 12 13  1  0
 13 14  1  1
 13 15  1  0
 15 16  1  0
 16 17  1  0
 17 18  2  0
 18 19  1  0
 19 20  1  0
 20 21  1  0
 21 22  1  0
 22 23  1  0
 22 24  1  0
 24 25  1  0
 24 26  1  0
 19 27  1  0
 27 28  1  6
 27 29  1  0
 29 30  1  0
 30 31  1  0
 31 32  1  6
  7  5  1  0
 31 10  1  0
 31 13  1  0
 27 15  1  0
 24 18  1  0
  1 33  1  0
  1 34  1  0
  1 35  1  0
  2 36  1  6
  3 37  1  0
  3 38  1  0
  4 39  1  0
  4 40  1  0
  5 41  1  6
  8 42  1  0
  8 43  1  0
  8 44  1  0
  9 45  1  0
  9 46  1  0
  9 47  1  0
 10 48  1  1
 11 49  1  0
 11 50  1  0
 12 51  1  0
 12 52  1  0
 14 53  1  0
 14 54  1  0
 14 55  1  0
 15 56  1  6
 16 57  1  0
 16 58  1  0
 17 59  1  0
 19 60  1  1
 20 61  1  0
 20 62  1  0
 21 63  1  0
 21 64  1  0
 22 65  1  1
 23 66  1  0
 25 67  1  0
 25 68  1  0
 25 69  1  0
 26 70  1  0
 26 71  1  0
 26 72  1  0
 28 73  1  0
 28 74  1  0
 28 75  1  0
 29 76  1  0
 29 77  1  0
 30 78  1  0
 30 79  1  0
 32 80  1  0
 32 81  1  0
 32 82  1  0
M  END
>  <meeko>  (13) 
{"is_sidechain": [false], "intermolecular_energy": 2.731, "internal_energy": -0.839}

$$$$
EPH_relaxed_0001_pdb2pqr_Repair_249_r2_0001_out
     RDKit          3D

 82 86  0  0  0  0  0  0  0  0999 V2000
   -2.3930    7.7300    0.0280 C   0  0  0  0  0  0  0  0  0  0  0  0
   -3.0970    9.0870   -0.0530 C   0  0  2  0  0  0  0  0  0  0  0  0
   -4.5630    8.9540   -0.5120 C   0  0  0  0  0  0  0  0  0  0  0  0
   -5.0240    7.5050   -0.6890 C   0  0  0  0  0  0  0  0  0  0  0  0
   -5.8530    7.3330   -1.9260 C   0  0  2  0  0  0  0  0  0  0  0  0
   -6.7790    8.3980   -2.1780 O   0  0  0  0  0  0  0  0  0  0  0  0
   -7.3530    7.1090   -1.9030 C   0  0  0  0  0  0  0  0  0  0  0  0
   -8.1130    7.0440   -0.6150 C   0  0  0  0  0  0  0  0  0  0  0  0
   -7.9990    6.4710   -3.0930 C   0  0  0  0  0  0  0  0  0  0  0  0
   -2.3380   10.0120   -0.9970 C   0  0  1  0  0  0  0  0  0  0  0  0
   -2.9950   11.4120   -1.1190 C   0  0  0  0  0  0  0  0  0  0  0  0
   -1.8420   12.4350   -1.2850 C   0  0  0  0  0  0  0  0  0  0  0  0
   -0.5950   11.5710   -1.5840 C   0  0  1  0  0  0  0  0  0  0  0  0
   -0.6900   11.2430   -3.1070 C   0  0  0  0  0  0  0  0  0  0  0  0
    0.7870   12.2030   -1.2150 C   0  0  2  0  0  0  0  0  0  0  0  0
    1.1400   13.4920   -1.9770 C   0  0  0  0  0  0  0  0  0  0  0  0
    1.8880   13.2930   -3.2540 C   0  0  0  0  0  0  0  0  0  0  0  0
    2.5090   12.1600   -3.6290 C   0  0  0  0  0  0  0  0  0  0  0  0
    2.5810   10.9520   -2.6850 C   0  0  1  0  0  0  0  0  0  0  0  0
    4.0290   10.3960   -2.6640 C   0  0  0  0  0  0  0  0  0  0  0  0
    4.5530   10.0770   -4.0610 C   0  0  0  0  0  0  0  0  0  0  0  0
    4.5210   11.3160   -4.9520 C   0  0  2  0  0  0  0  0  0  0  0  0
    5.4620   12.2700   -4.4510 O   0  0  0  0  0  0  0  0  0  0  0  0
    3.1130   11.9690   -5.0420 C   0  0  0  0  0  0  0  0  0  0  0  0
    2.1660   11.0540   -5.8560 C   0  0  0  0  0  0  0  0  0  0  0  0
    3.2490   13.2860   -5.8540 C   0  0  0  0  0  0  0  0  0  0  0  0
    1.9920   11.1770   -1.2260 C   0  0  1  0  0  0  0  0  0  0  0  0
    3.0920   11.7710   -0.2940 C   0  0  0  0  0  0  0  0  0  0  0  0
    1.5960    9.7820   -0.6110 C   0  0  0  0  0  0  0  0  0  0  0  0
    0.1760    9.2680   -0.9130 C   0  0  0  0  0  0  0  0  0  0  0  0
   -0.8710   10.3510   -0.6320 C   0  0  2  0  0  0  0  0  0  0  0  0
   -0.8130   10.6860    0.8970 C   0  0  0  0  0  0  0  0  0  0  0  0
   -2.2497    7.4537    1.0830 H   0  0  0  0  0  0  0  0  0  0  0  0
   -3.0090    6.9670   -0.4704 H   0  0  0  0  0  0  0  0  0  0  0  0
   -1.4145    7.7942   -0.4704 H   0  0  0  0  0  0  0  0  0  0  0  0
   -3.1053    9.5157    0.9600 H   0  0  0  0  0  0  0  0  0  0  0  0
   -5.2070    9.4338    0.2397 H   0  0  0  0  0  0  0  0  0  0  0  0
   -4.6361    9.4370   -1.4976 H   0  0  0  0  0  0  0  0  0  0  0  0
   -4.1389    6.8557   -0.7601 H   0  0  0  0  0  0  0  0  0  0  0  0
   -5.6435    7.2343    0.1788 H   0  0  0  0  0  0  0  0  0  0  0  0
   -5.0349    6.7961   -2.4286 H   0  0  0  0  0  0  0  0  0  0  0  0
   -7.4101    7.1041    0.2290 H   0  0  0  0  0  0  0  0  0  0  0  0
   -8.8202    7.8849   -0.5637 H   0  0  0  0  0  0  0  0  0  0  0  0
   -8.6672    6.0952   -0.5637 H   0  0  0  0  0  0  0  0  0  0  0  0
   -8.7439    5.7353   -2.7554 H   0  0  0  0  0  0  0  0  0  0  0  0
   -8.4950    7.2434   -3.6990 H   0  0  0  0  0  0  0  0  0  0  0  0
   -7.2328    5.9654   -3.6990 H   0  0  0  0  0  0  0  0  0  0  0  0
   -2.3680    9.4047   -1.9137 H   0  0  0  0  0  0  0  0  0  0  0  0
   -3.6586   11.4438   -1.9957 H   0  0  0  0  0  0  0  0  0  0  0  0
   -3.6018   11.6420   -0.2308 H   0  0  0  0  0  0  0  0  0  0  0  0
   -2.0485   13.1210   -2.1197 H   0  0  0  0  0  0  0  0  0  0  0  0
   -1.7099   13.0637   -0.3921 H   0  0  0  0  0  0  0  0  0  0  0  0
   -0.9938   10.1939   -3.2379 H   0  0  0  0  0  0  0  0  0  0  0  0
   -1.4342   11.9018   -3.5782 H   0  0  0  0  0  0  0  0  0  0  0  0
    0.2911   11.4021   -3.5782 H   0  0  0  0  0  0  0  0  0  0  0  0
    0.6352   12.5071   -0.1688 H   0  0  0  0  0  0  0  0  0  0  0  0
    0.2018   14.0165   -2.2107 H   0  0  0  0  0  0  0  0  0  0  0  0
    1.8105   14.0620   -1.3170 H   0  0  0  0  0  0  0  0  0  0  0  0
    1.9353   14.1457   -3.9473 H   0  0  0  0  0  0  0  0  0  0  0  0
    1.8985   10.1977   -3.1036 H   0  0  0  0  0  0  0  0  0  0  0  0
    4.6882   11.1462   -2.2028 H   0  0  0  0  0  0  0  0  0  0  0  0
    4.0186    9.4584   -2.0889 H   0  0  0  0  0  0  0  0  0  0  0  0
    5.5893    9.7163   -3.9831 H   0  0  0  0  0  0  0  0  0  0  0  0
    3.9098    9.3055   -4.5094 H   0  0  0  0  0  0  0  0  0  0  0  0
    4.7849   10.9960   -5.9708 H   0  0  0  0  0  0  0  0  0  0  0  0
    6.2080   11.7750   -4.0710 H   0  0  0  0  0  0  0  0  0  0  0  0
    1.5495   10.4584   -5.1666 H   0  0  0  0  0  0  0  0  0  0  0  0
    1.5137   11.6726   -6.4899 H   0  0  0  0  0  0  0  0  0  0  0  0
    2.7619   10.3808   -6.4899 H   0  0  0  0  0  0  0  0  0  0  0  0
    3.3368   14.1362   -5.1616 H   0  0  0  0  0  0  0  0  0  0  0  0
    4.1467   13.2350   -6.4877 H   0  0  0  0  0  0  0  0  0  0  0  0
    2.3599   13.4195   -6.4877 H   0  0  0  0  0  0  0  0  0  0  0  0
    2.8052   11.6161    0.7566 H   0  0  0  0  0  0  0  0  0  0  0  0
    4.0501   11.2677   -0.4906 H   0  0  0  0  0  0  0  0  0  0  0  0
    3.1966   12.8482   -0.4906 H   0  0  0  0  0  0  0  0  0  0  0  0
    2.3083    9.0357   -0.9928 H   0  0  0  0  0  0  0  0  0  0  0  0
    1.6230    9.9297    0.4787 H   0  0  0  0  0  0  0  0  0  0  0  0
    0.1166    8.9763   -1.9720 H   0  0  0  0  0  0  0  0  0  0  0  0
   -0.0298    8.4045   -0.2634 H   0  0  0  0  0  0  0  0  0  0  0  0
   -0.9721    9.7669    1.4800 H   0  0  0  0  0  0  0  0  0  0  0  0
    0.1719   11.1100    1.1424 H   0  0  0  0  0  0  0  0  0  0  0  0
   -1.5980   11.4164    1.1424 H   0  0  0  0  0  0  0  0  0  0  0  0
  1  2  1  0
  2  3  1  0
  3  4  1  0
  4  5  1  0
  5  6  1  0
  6  7  1  0
  7  8  1  0
  7  9  1  0
  2 10  1  0
 10 11  1  0
 11 12  1  0
 12 13  1  0
 13 14  1  6
 13 15  1  0
 15 16  1  0
 16 17  1  0
 17 18  2  0
 18 19  1  0
 19 20  1  0
 20 21  1  0
 21 22  1  0
 22 23  1  0
 22 24  1  0
 24 25  1  0
 24 26  1  0
 19 27  1  0
 27 28  1  1
 27 29  1  0
 29 30  1  0
 30 31  1  0
 31 32  1  1
  7  5  1  0
 31 10  1  0
 31 13  1  0
 27 15  1  0
 24 18  1  0
  1 33  1  0
  1 34  1  0
  1 35  1  0
  2 36  1  1
  3 37  1  0
  3 38  1  0
  4 39  1  0
  4 40  1  0
  5 41  1  6
  8 42  1  0
  8 43  1  0
  8 44  1  0
  9 45  1  0
  9 46  1  0
  9 47  1  0
 10 48  1  6
 11 49  1  0
 11 50  1  0
 12 51  1  0
 12 52  1  0
 14 53  1  0
 14 54  1  0
 14 55  1  0
 15 56  1  1
 16 57  1  0
 16 58  1  0
 17 59  1  0
 19 60  1  6
 20 61  1  0
 20 62  1  0
 21 63  1  0
 21 64  1  0
 22 65  1  6
 23 66  1  0
 25 67  1  0
 25 68  1  0
 25 69  1  0
 26 70  1  0
 26 71  1  0
 26 72  1  0
 28 73  1  0
 28 74  1  0
 28 75  1  0
 29 76  1  0
 29 77  1  0
 30 78  1  0
 30 79  1  0
 32 80  1  0
 32 81  1  0
 32 82  1  0
M  END
>  <meeko>  (14) 
{"is_sidechain": [false], "intermolecular_energy": 2.731, "internal_energy": -0.839}

$$$$
EPH_relaxed_0001_pdb2pqr_Repair_249_r2_0001_out
     RDKit          3D

 82 86  0  0  0  0  0  0  0  0999 V2000
  -14.8680    6.3490   -0.7360 C   0  0  0  0  0  0  0  0  0  0  0  0
  -13.6150    6.9270   -0.0720 C   0  0  2  0  0  0  0  0  0  0  0  0
  -13.8800    8.3040    0.5690 C   0  0  0  0  0  0  0  0  0  0  0  0
  -14.9250    9.1380   -0.1760 C   0  0  0  0  0  0  0  0  0  0  0  0
  -14.3290   10.3860   -0.7540 C   0  0  2  0  0  0  0  0  0  0  0  0
  -15.2840   11.3780   -1.1510 O   0  0  0  0  0  0  0  0  0  0  0  0
  -14.4960   10.8000   -2.2040 C   0  0  0  0  0  0  0  0  0  0  0  0
  -15.2840    9.9680   -3.1670 C   0  0  0  0  0  0  0  0  0  0  0  0
  -13.4990   11.7440   -2.7990 C   0  0  0  0  0  0  0  0  0  0  0  0
  -12.4880    7.0350   -1.0930 C   0  0  1  0  0  0  0  0  0  0  0  0
  -12.7490    8.1360   -2.1550 C   0  0  0  0  0  0  0  0  0  0  0  0
  -11.3710    8.7540   -2.5070 C   0  0  0  0  0  0  0  0  0  0  0  0
  -10.3390    7.7780   -1.8950 C   0  0  1  0  0  0  0  0  0  0  0  0
  -10.2230    6.6160   -2.9300 C   0  0  0  0  0  0  0  0  0  0  0  0
   -8.9400    8.3820   -1.5460 C   0  0  2  0  0  0  0  0  0  0  0  0
   -8.1460    8.9260   -2.7470 C   0  0  0  0  0  0  0  0  0  0  0  0
   -7.2430    7.9410   -3.4130 C   0  0  0  0  0  0  0  0  0  0  0  0
   -6.8580    6.7590   -2.8960 C   0  0  0  0  0  0  0  0  0  0  0  0
   -7.2620    6.3520   -1.4730 C   0  0  1  0  0  0  0  0  0  0  0  0
   -6.0240    5.7960   -0.7220 C   0  0  0  0  0  0  0  0  0  0  0  0
   -5.3400    4.6620   -1.4810 C   0  0  0  0  0  0  0  0  0  0  0  0
   -4.9010    5.1220   -2.8690 C   0  0  2  0  0  0  0  0  0  0  0  0
   -3.8670    6.1010   -2.7240 O   0  0  0  0  0  0  0  0  0  0  0  0
   -6.0640    5.7120   -3.7150 C   0  0  0  0  0  0  0  0  0  0  0  0
   -7.0350    4.5780   -4.1260 C   0  0  0  0  0  0  0  0  0  0  0  0
   -5.4600    6.2660   -5.0340 C   0  0  0  0  0  0  0  0  0  0  0  0
   -8.0420    7.4530   -0.6330 C   0  0  1  0  0  0  0  0  0  0  0  0
   -7.0260    8.3880    0.0920 C   0  0  0  0  0  0  0  0  0  0  0  0
   -8.8750    6.7410    0.4980 C   0  0  0  0  0  0  0  0  0  0  0  0
  -10.2950    6.2740    0.1260 C   0  0  0  0  0  0  0  0  0  0  0  0
  -11.0790    7.3960   -0.5610 C   0  0  2  0  0  0  0  0  0  0  0  0
  -11.2300    8.5710    0.4640 C   0  0  0  0  0  0  0  0  0  0  0  0
  -15.5764    6.0222    0.0395 H   0  0  0  0  0  0  0  0  0  0  0  0
  -15.3401    7.1203   -1.3623 H   0  0  0  0  0  0  0  0  0  0  0  0
  -14.5876    5.4892   -1.3623 H   0  0  0  0  0  0  0  0  0  0  0  0
  -13.3208    6.2392    0.7344 H   0  0  0  0  0  0  0  0  0  0  0  0
  -14.2319    8.1457    1.5991 H   0  0  0  0  0  0  0  0  0  0  0  0
  -12.9341    8.8642    0.5303 H   0  0  0  0  0  0  0  0  0  0  0  0
  -15.3476    8.5336   -0.9922 H   0  0  0  0  0  0  0  0  0  0  0  0
  -15.7050    9.4312    0.5420 H   0  0  0  0  0  0  0  0  0  0  0  0
  -13.4407   10.2857   -0.1130 H   0  0  0  0  0  0  0  0  0  0  0  0
  -15.9358    9.2798   -2.6089 H   0  0  0  0  0  0  0  0  0  0  0  0
  -15.8997   10.6240   -3.7999 H   0  0  0  0  0  0  0  0  0  0  0  0
  -14.5955    9.3888   -3.7999 H   0  0  0  0  0  0  0  0  0  0  0  0
  -12.9553   12.2588   -1.9932 H   0  0  0  0  0  0  0  0  0  0  0  0
  -12.7869   11.1814   -3.4206 H   0  0  0  0  0  0  0  0  0  0  0  0
  -14.0219   12.4857   -3.4206 H   0  0  0  0  0  0  0  0  0  0  0  0
  -12.4908    6.0058   -1.4813 H   0  0  0  0  0  0  0  0  0  0  0  0
  -13.2069    7.6953   -3.0528 H   0  0  0  0  0  0  0  0  0  0  0  0
  -13.4381    8.9016   -1.7690 H   0  0  0  0  0  0  0  0  0  0  0  0
  -11.2427    8.8216   -3.5974 H   0  0  0  0  0  0  0  0  0  0  0  0
  -11.2604    9.7768   -2.1176 H   0  0  0  0  0  0  0  0  0  0  0  0
  -10.1274    5.6585   -2.3971 H   0  0  0  0  0  0  0  0  0  0  0  0
  -11.1236    6.5960   -3.5613 H   0  0  0  0  0  0  0  0  0  0  0  0
   -9.3362    6.7744   -3.5613 H   0  0  0  0  0  0  0  0  0  0  0  0
   -9.2074    9.2611   -0.9413 H   0  0  0  0  0  0  0  0  0  0  0  0
   -8.8666    9.2868   -3.4956 H   0  0  0  0  0  0  0  0  0  0  0  0
   -7.4931    9.7161   -2.3476 H   0  0  0  0  0  0  0  0  0  0  0  0
   -6.8599    8.2032   -4.4103 H   0  0  0  0  0  0  0  0  0  0  0  0
   -8.0165    5.5595   -1.5856 H   0  0  0  0  0  0  0  0  0  0  0  0
   -5.3007    6.6127   -0.5812 H   0  0  0  0  0  0  0  0  0  0  0  0
   -6.3708    5.3922    0.2406 H   0  0  0  0  0  0  0  0  0  0  0  0
   -4.4566    4.3314   -0.9151 H   0  0  0  0  0  0  0  0  0  0  0  0
   -6.0553    3.8341   -1.5952 H   0  0  0  0  0  0  0  0  0  0  0  0
   -4.5370    4.2365   -3.4106 H   0  0  0  0  0  0  0  0  0  0  0  0
   -3.0240    5.6260   -2.6300 H   0  0  0  0  0  0  0  0  0  0  0  0
   -7.4440    4.1004   -3.2234 H   0  0  0  0  0  0  0  0  0  0  0  0
   -7.8576    4.9982   -4.7233 H   0  0  0  0  0  0  0  0  0  0  0  0
   -6.4932    3.8299   -4.7233 H   0  0  0  0  0  0  0  0  0  0  0  0
   -4.6682    6.9922   -4.7981 H   0  0  0  0  0  0  0  0  0  0  0  0
   -5.0349    5.4372   -5.6191 H   0  0  0  0  0  0  0  0  0  0  0  0
   -6.2491    6.7610   -5.6191 H   0  0  0  0  0  0  0  0  0  0  0  0
   -7.1419    8.2813    1.1807 H   0  0  0  0  0  0  0  0  0  0  0  0
   -6.0015    8.1102   -0.1966 H   0  0  0  0  0  0  0  0  0  0  0  0
   -7.2179    9.4320   -0.1966 H   0  0  0  0  0  0  0  0  0  0  0  0
   -8.3078    5.8558    0.8217 H   0  0  0  0  0  0  0  0  0  0  0  0
   -9.0183    7.5065    1.2748 H   0  0  0  0  0  0  0  0  0  0  0  0
  -10.2238    5.4146   -0.5569 H   0  0  0  0  0  0  0  0  0  0  0  0
  -10.8237    5.9906    1.0480 H   0  0  0  0  0  0  0  0  0  0  0  0
  -11.1788    8.1730    1.4882 H   0  0  0  0  0  0  0  0  0  0  0  0
  -10.4178    9.2970    0.3118 H   0  0  0  0  0  0  0  0  0  0  0  0
  -12.1994    9.0681    0.3118 H   0  0  0  0  0  0  0  0  0  0  0  0
  1  2  1  0
  2  3  1  0
  3  4  1  0
  4  5  1  0
  5  6  1  0
  6  7  1  0
  7  8  1  0
  7  9  1  0
  2 10  1  0
 10 11  1  0
 11 12  1  0
 12 13  1  0
 13 14  1  6
 13 15  1  0
 15 16  1  0
 16 17  1  0
 17 18  2  0
 18 19  1  0
 19 20  1  0
 20 21  1  0
 21 22  1  0
 22 23  1  0
 22 24  1  0
 24 25  1  0
 24 26  1  0
 19 27  1  0
 27 28  1  1
 27 29  1  0
 29 30  1  0
 30 31  1  0
 31 32  1  1
  7  5  1  0
 31 10  1  0
 31 13  1  0
 27 15  1  0
 24 18  1  0
  1 33  1  0
  1 34  1  0
  1 35  1  0
  2 36  1  1
  3 37  1  0
  3 38  1  0
  4 39  1  0
  4 40  1  0
  5 41  1  1
  8 42  1  0
  8 43  1  0
  8 44  1  0
  9 45  1  0
  9 46  1  0
  9 47  1  0
 10 48  1  6
 11 49  1  0
 11 50  1  0
 12 51  1  0
 12 52  1  0
 14 53  1  0
 14 54  1  0
 14 55  1  0
 15 56  1  1
 16 57  1  0
 16 58  1  0
 17 59  1  0
 19 60  1  6
 20 61  1  0
 20 62  1  0
 21 63  1  0
 21 64  1  0
 22 65  1  6
 23 66  1  0
 25 67  1  0
 25 68  1  0
 25 69  1  0
 26 70  1  0
 26 71  1  0
 26 72  1  0
 28 73  1  0
 28 74  1  0
 28 75  1  0
 29 76  1  0
 29 77  1  0
 30 78  1  0
 30 79  1  0
 32 80  1  0
 32 81  1  0
 32 82  1  0
M  END
>  <meeko>  (15) 
{"is_sidechain": [false], "intermolecular_energy": 2.731, "internal_energy": -0.839}

$$$$
EPH_relaxed_0001_pdb2pqr_Repair_249_r2_0001_out
     RDKit          3D

 82 86  0  0  0  0  0  0  0  0999 V2000
    0.8820   14.7710   -4.9480 C   0  0  0  0  0  0  0  0  0  0  0  0
    0.6290   14.2330   -3.5370 C   0  0  2  0  0  0  0  0  0  0  0  0
    1.8490   14.4260   -2.6150 C   0  0  0  0  0  0  0  0  0  0  0  0
    1.6880   15.5720   -1.6120 C   0  0  0  0  0  0  0  0  0  0  0  0
    1.6690   16.9070   -2.2940 C   0  0  2  0  0  0  0  0  0  0  0  0
    2.7700   17.7640   -1.9620 O   0  0  0  0  0  0  0  0  0  0  0  0
    1.4680   18.2190   -1.5590 C   0  0  0  0  0  0  0  0  0  0  0  0
    1.2700   18.2600   -0.0760 C   0  0  0  0  0  0  0  0  0  0  0  0
    0.9780   19.4040   -2.3310 C   0  0  0  0  0  0  0  0  0  0  0  0
    0.2540   12.7580   -3.6030 C   0  0  1  0  0  0  0  0  0  0  0  0
    1.4560   11.8520   -3.9790 C   0  0  0  0  0  0  0  0  0  0  0  0
    1.2750   10.5230   -3.2010 C   0  0  0  0  0  0  0  0  0  0  0  0
   -0.1770   10.5750   -2.6720 C   0  0  1  0  0  0  0  0  0  0  0  0
   -1.0610   10.1350   -3.8800 C   0  0  0  0  0  0  0  0  0  0  0  0
   -0.4780    9.7240   -1.3950 C   0  0  2  0  0  0  0  0  0  0  0  0
   -0.2880    8.2060   -1.5640 C   0  0  0  0  0  0  0  0  0  0  0  0
   -1.5000    7.4570   -2.0070 C   0  0  0  0  0  0  0  0  0  0  0  0
   -2.7610    7.9270   -1.9870 C   0  0  0  0  0  0  0  0  0  0  0  0
   -3.0790    9.3040   -1.3910 C   0  0  1  0  0  0  0  0  0  0  0  0
   -4.3130    9.1920   -0.4580 C   0  0  0  0  0  0  0  0  0  0  0  0
   -5.5180    8.5660   -1.1530 C   0  0  0  0  0  0  0  0  0  0  0  0
   -5.1800    7.1750   -1.6820 C   0  0  2  0  0  0  0  0  0  0  0  0
   -4.9450    6.3040   -0.5710 O   0  0  0  0  0  0  0  0  0  0  0  0
   -3.9460    7.1610   -2.6270 C   0  0  0  0  0  0  0  0  0  0  0  0
   -4.3070    7.8530   -3.9650 C   0  0  0  0  0  0  0  0  0  0  0  0
   -3.6270    5.6820   -2.9750 C   0  0  0  0  0  0  0  0  0  0  0  0
   -1.8610   10.0600   -0.7040 C   0  0  1  0  0  0  0  0  0  0  0  0
   -1.7330    9.6180    0.7860 C   0  0  0  0  0  0  0  0  0  0  0  0
   -2.1600   11.6060   -0.6840 C   0  0  0  0  0  0  0  0  0  0  0  0
   -1.7310   12.4120   -1.9240 C   0  0  0  0  0  0  0  0  0  0  0  0
   -0.2810   12.1010   -2.3060 C   0  0  2  0  0  0  0  0  0  0  0  0
    0.6350   12.5540   -1.1170 C   0  0  0  0  0  0  0  0  0  0  0  0
    1.3493   15.7647   -4.8832 H   0  0  0  0  0  0  0  0  0  0  0  0
    1.5520   14.0852   -5.4872 H   0  0  0  0  0  0  0  0  0  0  0  0
   -0.0735   14.8496   -5.4872 H   0  0  0  0  0  0  0  0  0  0  0  0
   -0.2037   14.8092   -3.1073 H   0  0  0  0  0  0  0  0  0  0  0  0
    2.0111   13.4938   -2.0540 H   0  0  0  0  0  0  0  0  0  0  0  0
    2.7023   14.6815   -3.2605 H   0  0  0  0  0  0  0  0  0  0  0  0
    0.7429   15.4374   -1.0655 H   0  0  0  0  0  0  0  0  0  0  0  0
    2.5470   15.5499   -0.9252 H   0  0  0  0  0  0  0  0  0  0  0  0
    1.1793   16.4747   -3.1790 H   0  0  0  0  0  0  0  0  0  0  0  0
    2.2277   18.0617    0.4274 H   0  0  0  0  0  0  0  0  0  0  0  0
    0.9005   19.2537    0.2173 H   0  0  0  0  0  0  0  0  0  0  0  0
    0.5363   17.4947    0.2173 H   0  0  0  0  0  0  0  0  0  0  0  0
    0.6536   20.1886   -1.6316 H   0  0  0  0  0  0  0  0  0  0  0  0
    1.7901   19.7903   -2.9644 H   0  0  0  0  0  0  0  0  0  0  0  0
    0.1302   19.1039   -2.9644 H   0  0  0  0  0  0  0  0  0  0  0  0
   -0.5449   12.8051   -4.3577 H   0  0  0  0  0  0  0  0  0  0  0  0
    1.4609   11.6593   -5.0620 H   0  0  0  0  0  0  0  0  0  0  0  0
    2.4102   12.3343   -3.7204 H   0  0  0  0  0  0  0  0  0  0  0  0
    1.4143    9.6601   -3.8688 H   0  0  0  0  0  0  0  0  0  0  0  0
    2.0103   10.4107   -2.3906 H   0  0  0  0  0  0  0  0  0  0  0  0
   -1.9876    9.6738   -3.5075 H   0  0  0  0  0  0  0  0  0  0  0  0
   -1.3095   11.0145   -4.4921 H   0  0  0  0  0  0  0  0  0  0  0  0
   -0.5091    9.4064   -4.4921 H   0  0  0  0  0  0  0  0  0  0  0  0
    0.3120   10.0491   -0.7021 H   0  0  0  0  0  0  0  0  0  0  0  0
    0.5035    8.0436   -2.3104 H   0  0  0  0  0  0  0  0  0  0  0  0
   -0.0386    7.8177   -0.5655 H   0  0  0  0  0  0  0  0  0  0  0  0
   -1.3502    6.4337   -2.3818 H   0  0  0  0  0  0  0  0  0  0  0  0
   -3.3143    9.9577   -2.2439 H   0  0  0  0  0  0  0  0  0  0  0  0
   -4.0441    8.5707    0.4090 H   0  0  0  0  0  0  0  0  0  0  0  0
   -4.5952   10.2109   -0.1545 H   0  0  0  0  0  0  0  0  0  0  0  0
   -6.3470    8.4863   -0.4343 H   0  0  0  0  0  0  0  0  0  0  0  0
   -5.8050    9.2044   -2.0016 H   0  0  0  0  0  0  0  0  0  0  0  0
   -6.0369    6.8332   -2.2810 H   0  0  0  0  0  0  0  0  0  0  0  0
   -4.9750    6.8440    0.2370 H   0  0  0  0  0  0  0  0  0  0  0  0
   -4.8068    8.8110   -3.7592 H   0  0  0  0  0  0  0  0  0  0  0  0
   -3.3890    8.0351   -4.5430 H   0  0  0  0  0  0  0  0  0  0  0  0
   -4.9816    7.2043   -4.5430 H   0  0  0  0  0  0  0  0  0  0  0  0
   -3.5026    5.1055   -2.0465 H   0  0  0  0  0  0  0  0  0  0  0  0
   -4.4541    5.2570   -3.5625 H   0  0  0  0  0  0  0  0  0  0  0  0
   -2.6982    5.6357   -3.5625 H   0  0  0  0  0  0  0  0  0  0  0  0
   -1.9785   10.4659    1.4424 H   0  0  0  0  0  0  0  0  0  0  0  0
   -2.4278    8.7883    0.9833 H   0  0  0  0  0  0  0  0  0  0  0  0
   -0.7024    9.2880    0.9833 H   0  0  0  0  0  0  0  0  0  0  0  0
   -3.2459   11.7334   -0.5635 H   0  0  0  0  0  0  0  0  0  0  0  0
   -1.5546   12.0057    0.1428 H   0  0  0  0  0  0  0  0  0  0  0  0
   -2.3886   12.1526   -2.7668 H   0  0  0  0  0  0  0  0  0  0  0  0
   -1.8095   13.4839   -1.6897 H   0  0  0  0  0  0  0  0  0  0  0  0
    0.1442   12.3113   -0.1629 H   0  0  0  0  0  0  0  0  0  0  0  0
    1.5999   12.0292   -1.1769 H   0  0  0  0  0  0  0  0  0  0  0  0
    0.8036   13.6394   -1.1769 H   0  0  0  0  0  0  0  0  0  0  0  0
  1  2  1  0
  2  3  1  0
  3  4  1  0
  4  5  1  0
  5  6  1  0
  6  7  1  0
  7  8  1  0
  7  9  1  0
  2 10  1  0
 10 11  1  0
 11 12  1  0
 12 13  1  0
 13 14  1  6
 13 15  1  0
 15 16  1  0
 16 17  1  0
 17 18  2  0
 18 19  1  0
 19 20  1  0
 20 21  1  0
 21 22  1  0
 22 23  1  0
 22 24  1  0
 24 25  1  0
 24 26  1  0
 19 27  1  0
 27 28  1  1
 27 29  1  0
 29 30  1  0
 30 31  1  0
 31 32  1  1
  7  5  1  0
 31 10  1  0
 31 13  1  0
 27 15  1  0
 24 18  1  0
  1 33  1  0
  1 34  1  0
  1 35  1  0
  2 36  1  1
  3 37  1  0
  3 38  1  0
  4 39  1  0
  4 40  1  0
  5 41  1  6
  8 42  1  0
  8 43  1  0
  8 44  1  0
  9 45  1  0
  9 46  1  0
  9 47  1  0
 10 48  1  6
 11 49  1  0
 11 50  1  0
 12 51  1  0
 12 52  1  0
 14 53  1  0
 14 54  1  0
 14 55  1  0
 15 56  1  1
 16 57  1  0
 16 58  1  0
 17 59  1  0
 19 60  1  6
 20 61  1  0
 20 62  1  0
 21 63  1  0
 21 64  1  0
 22 65  1  6
 23 66  1  0
 25 67  1  0
 25 68  1  0
 25 69  1  0
 26 70  1  0
 26 71  1  0
 26 72  1  0
 28 73  1  0
 28 74  1  0
 28 75  1  0
 29 76  1  0
 29 77  1  0
 30 78  1  0
 30 79  1  0
 32 80  1  0
 32 81  1  0
 32 82  1  0
M  END
>  <meeko>  (16) 
{"is_sidechain": [false], "intermolecular_energy": 2.731, "internal_energy": -0.839}

$$$$
EPH_relaxed_0001_pdb2pqr_Repair_249_r2_0001_out
     RDKit          3D

 82 86  0  0  0  0  0  0  0  0999 V2000
    0.5540    8.8700   -2.4180 C   0  0  0  0  0  0  0  0  0  0  0  0
    1.3310    9.9990   -3.1010 C   0  0  2  0  0  0  0  0  0  0  0  0
    2.8310    9.9690   -2.7460 C   0  0  0  0  0  0  0  0  0  0  0  0
    3.7310   10.5810   -3.8220 C   0  0  0  0  0  0  0  0  0  0  0  0
    5.1290   10.7890   -3.3240 C   0  0  2  0  0  0  0  0  0  0  0  0
    5.7410   12.0130   -3.7500 O   0  0  0  0  0  0  0  0  0  0  0  0
    6.3470   10.8020   -4.2290 C   0  0  0  0  0  0  0  0  0  0  0  0
    6.2220   10.6020   -5.7070 C   0  0  0  0  0  0  0  0  0  0  0  0
    7.6880   10.5200   -3.6270 C   0  0  0  0  0  0  0  0  0  0  0  0
    0.7320   11.3470   -2.7190 C   0  0  1  0  0  0  0  0  0  0  0  0
   -0.6530   11.2130   -2.0320 C   0  0  0  0  0  0  0  0  0  0  0  0
   -0.7390   12.3410   -0.9730 C   0  0  0  0  0  0  0  0  0  0  0  0
    0.4430   13.2820   -1.3080 C   0  0  1  0  0  0  0  0  0  0  0  0
   -0.0740   14.1720   -2.4820 C   0  0  0  0  0  0  0  0  0  0  0  0
    0.9950   14.1460   -0.1280 C   0  0  2  0  0  0  0  0  0  0  0  0
   -0.0080   15.1460    0.4730 C   0  0  0  0  0  0  0  0  0  0  0  0
   -0.0060   16.5030   -0.1510 C   0  0  0  0  0  0  0  0  0  0  0  0
    0.9550   16.9930   -0.9560 C   0  0  0  0  0  0  0  0  0  0  0  0
    2.2330   16.1910   -1.2340 C   0  0  1  0  0  0  0  0  0  0  0  0
    3.4680   17.1180   -1.0860 C   0  0  0  0  0  0  0  0  0  0  0  0
    3.3660   18.3720   -1.9490 C   0  0  0  0  0  0  0  0  0  0  0  0
    2.1130   19.1720   -1.6030 C   0  0  2  0  0  0  0  0  0  0  0  0
    2.2490   19.6900   -0.2760 O   0  0  0  0  0  0  0  0  0  0  0  0
    0.8050   18.3380   -1.7070 C   0  0  0  0  0  0  0  0  0  0  0  0
    0.5000   18.0330   -3.1950 C   0  0  0  0  0  0  0  0  0  0  0  0
   -0.3660   19.2210   -1.1960 C   0  0  0  0  0  0  0  0  0  0  0  0
    2.3890   14.8320   -0.4250 C   0  0  1  0  0  0  0  0  0  0  0  0
    3.0520   15.1100    0.9590 C   0  0  0  0  0  0  0  0  0  0  0  0
    3.3710   13.8800   -1.2050 C   0  0  0  0  0  0  0  0  0  0  0  0
    2.7480   12.9650   -2.2750 C   0  0  0  0  0  0  0  0  0  0  0  0
    1.5290   12.2220   -1.7190 C   0  0  2  0  0  0  0  0  0  0  0  0
    2.0220   11.3010   -0.5510 C   0  0  0  0  0  0  0  0  0  0  0  0
    0.6302    8.9807   -1.3262 H   0  0  0  0  0  0  0  0  0  0  0  0
   -0.5030    8.9183   -2.7186 H   0  0  0  0  0  0  0  0  0  0  0  0
    0.9767    7.8999   -2.7186 H   0  0  0  0  0  0  0  0  0  0  0  0
    1.2461    9.8491   -4.1874 H   0  0  0  0  0  0  0  0  0  0  0  0
    2.9777   10.5293   -1.8109 H   0  0  0  0  0  0  0  0  0  0  0  0
    3.1175    8.9112   -2.6513 H   0  0  0  0  0  0  0  0  0  0  0  0
    3.7587    9.9056   -4.6898 H   0  0  0  0  0  0  0  0  0  0  0  0
    3.3163   11.5617   -4.0982 H   0  0  0  0  0  0  0  0  0  0  0  0
    4.9045   10.2415   -2.3967 H   0  0  0  0  0  0  0  0  0  0  0  0
    5.6486    9.6845   -5.9057 H   0  0  0  0  0  0  0  0  0  0  0  0
    5.7011   11.4633   -6.1508 H   0  0  0  0  0  0  0  0  0  0  0  0
    7.2244   10.5112   -6.1508 H   0  0  0  0  0  0  0  0  0  0  0  0
    7.6083   10.5368   -2.5300 H   0  0  0  0  0  0  0  0  0  0  0  0
    8.0358    9.5291   -3.9543 H   0  0  0  0  0  0  0  0  0  0  0  0
    8.4054   11.2869   -3.9543 H   0  0  0  0  0  0  0  0  0  0  0  0
    0.7143   11.8271   -3.7085 H   0  0  0  0  0  0  0  0  0  0  0  0
   -1.4566   11.3285   -2.7743 H   0  0  0  0  0  0  0  0  0  0  0  0
   -0.7676   10.2237   -1.5649 H   0  0  0  0  0  0  0  0  0  0  0  0
   -1.6965   12.8766   -1.0530 H   0  0  0  0  0  0  0  0  0  0  0  0
   -0.6850   11.9531    0.0549 H   0  0  0  0  0  0  0  0  0  0  0  0
   -0.5871   15.0553   -2.0740 H   0  0  0  0  0  0  0  0  0  0  0  0
    0.7771   14.4950   -3.0996 H   0  0  0  0  0  0  0  0  0  0  0  0
   -0.7762   13.5927   -3.0996 H   0  0  0  0  0  0  0  0  0  0  0  0
    1.1704   13.3932    0.6547 H   0  0  0  0  0  0  0  0  0  0  0  0
   -1.0174   14.7227    0.3634 H   0  0  0  0  0  0  0  0  0  0  0  0
    0.2968   15.2915    1.5199 H   0  0  0  0  0  0  0  0  0  0  0  0
   -0.8629   17.1577    0.0658 H   0  0  0  0  0  0  0  0  0  0  0  0
    2.1519   15.8402   -2.2734 H   0  0  0  0  0  0  0  0  0  0  0  0
    3.5567   17.4215   -0.0324 H   0  0  0  0  0  0  0  0  0  0  0  0
    4.3508   16.5536   -1.4208 H   0  0  0  0  0  0  0  0  0  0  0  0
    4.2527   19.0000   -1.7777 H   0  0  0  0  0  0  0  0  0  0  0  0
    3.3080   18.0680   -3.0046 H   0  0  0  0  0  0  0  0  0  0  0  0
    2.0262   19.9842   -2.3398 H   0  0  0  0  0  0  0  0  0  0  0  0
    3.1690   19.9840   -0.1670 H   0  0  0  0  0  0  0  0  0  0  0  0
   -0.2765   17.2565   -3.2584 H   0  0  0  0  0  0  0  0  0  0  0  0
    0.1449   18.9481   -3.6915 H   0  0  0  0  0  0  0  0  0  0  0  0
    1.4151   17.6779   -3.6915 H   0  0  0  0  0  0  0  0  0  0  0  0
   -0.3700   19.2240   -0.0960 H   0  0  0  0  0  0  0  0  0  0  0  0
   -0.2379   20.2493   -1.5650 H   0  0  0  0  0  0  0  0  0  0  0  0
   -1.3194   18.8151   -1.5650 H   0  0  0  0  0  0  0  0  0  0  0  0
    2.3591   14.8195    1.7625 H   0  0  0  0  0  0  0  0  0  0  0  0
    3.9795   14.5250    1.0454 H   0  0  0  0  0  0  0  0  0  0  0  0
    3.2849   16.1816    1.0454 H   0  0  0  0  0  0  0  0  0  0  0  0
    4.1210   14.5118   -1.7033 H   0  0  0  0  0  0  0  0  0  0  0  0
    3.7755   13.1974   -0.4431 H   0  0  0  0  0  0  0  0  0  0  0  0
    2.4355   13.5769   -3.1340 H   0  0  0  0  0  0  0  0  0  0  0  0
    3.4999   12.2237   -2.5835 H   0  0  0  0  0  0  0  0  0  0  0  0
    1.7725   11.7670    0.4137 H   0  0  0  0  0  0  0  0  0  0  0  0
    1.5279   10.3209   -0.6234 H   0  0  0  0  0  0  0  0  0  0  0  0
    3.1116   11.1686   -0.6234 H   0  0  0  0  0  0  0  0  0  0  0  0
  1  2  1  0
  2  3  1  0
  3  4  1  0
  4  5  1  0
  5  6  1  0
  6  7  1  0
  7  8  1  0
  7  9  1  0
  2 10  1  0
 10 11  1  0
 11 12  1  0
 12 13  1  0
 13 14  1  6
 13 15  1  0
 15 16  1  0
 16 17  1  0
 17 18  2  0
 18 19  1  0
 19 20  1  0
 20 21  1  0
 21 22  1  0
 22 23  1  0
 22 24  1  0
 24 25  1  0
 24 26  1  0
 19 27  1  0
 27 28  1  1
 27 29  1  0
 29 30  1  0
 30 31  1  0
 31 32  1  1
  7  5  1  0
 31 10  1  0
 31 13  1  0
 27 15  1  0
 24 18  1  0
  1 33  1  0
  1 34  1  0
  1 35  1  0
  2 36  1  6
  3 37  1  0
  3 38  1  0
  4 39  1  0
  4 40  1  0
  5 41  1  1
  8 42  1  0
  8 43  1  0
  8 44  1  0
  9 45  1  0
  9 46  1  0
  9 47  1  0
 10 48  1  6
 11 49  1  0
 11 50  1  0
 12 51  1  0
 12 52  1  0
 14 53  1  0
 14 54  1  0
 14 55  1  0
 15 56  1  1
 16 57  1  0
 16 58  1  0
 17 59  1  0
 19 60  1  6
 20 61  1  0
 20 62  1  0
 21 63  1  0
 21 64  1  0
 22 65  1  6
 23 66  1  0
 25 67  1  0
 25 68  1  0
 25 69  1  0
 26 70  1  0
 26 71  1  0
 26 72  1  0
 28 73  1  0
 28 74  1  0
 28 75  1  0
 29 76  1  0
 29 77  1  0
 30 78  1  0
 30 79  1  0
 32 80  1  0
 32 81  1  0
 32 82  1  0
M  END
>  <meeko>  (17) 
{"is_sidechain": [false], "intermolecular_energy": 2.731, "internal_energy": -0.839}

$$$$
EPH_relaxed_0001_pdb2pqr_Repair_249_r2_0001_out
     RDKit          3D

 82 86  0  0  0  0  0  0  0  0999 V2000
    3.4320   18.2770   -3.2880 C   0  0  0  0  0  0  0  0  0  0  0  0
    2.4310   17.9830   -2.1670 C   0  0  2  0  0  0  0  0  0  0  0  0
    2.5290   19.0070   -1.0180 C   0  0  0  0  0  0  0  0  0  0  0  0
    1.5740   20.1940   -1.1680 C   0  0  0  0  0  0  0  0  0  0  0  0
    0.3950   20.0770   -0.2510 C   0  0  2  0  0  0  0  0  0  0  0  0
   -0.1910   18.7690   -0.1920 O   0  0  0  0  0  0  0  0  0  0  0  0
   -1.0190   19.8110   -0.7340 C   0  0  0  0  0  0  0  0  0  0  0  0
   -1.3280   19.6470   -2.1890 C   0  0  0  0  0  0  0  0  0  0  0  0
   -2.1620   20.1940    0.1520 C   0  0  0  0  0  0  0  0  0  0  0  0
    2.6500   16.5740   -1.6300 C   0  0  1  0  0  0  0  0  0  0  0  0
    3.3100   16.5670   -0.2250 C   0  0  0  0  0  0  0  0  0  0  0  0
    2.7090   15.3630    0.5450 C   0  0  0  0  0  0  0  0  0  0  0  0
    1.9830   14.5300   -0.5370 C   0  0  1  0  0  0  0  0  0  0  0  0
    3.1090   13.6920   -1.2210 C   0  0  0  0  0  0  0  0  0  0  0  0
    0.8090   13.6250   -0.0410 C   0  0  2  0  0  0  0  0  0  0  0  0
    1.2130   12.5190    0.9500 C   0  0  0  0  0  0  0  0  0  0  0  0
    1.5860   11.2130    0.3310 C   0  0  0  0  0  0  0  0  0  0  0  0
    1.3280   10.8460   -0.9380 C   0  0  0  0  0  0  0  0  0  0  0  0
    0.5070   11.7500   -1.8670 C   0  0  1  0  0  0  0  0  0  0  0  0
   -0.5620   10.9000   -2.6030 C   0  0  0  0  0  0  0  0  0  0  0  0
    0.0430    9.7060   -3.3360 C   0  0  0  0  0  0  0  0  0  0  0  0
    0.8020    8.8010   -2.3690 C   0  0  2  0  0  0  0  0  0  0  0  0
   -0.1330    8.2020   -1.4670 O   0  0  0  0  0  0  0  0  0  0  0  0
    1.9000    9.5500   -1.5620 C   0  0  0  0  0  0  0  0  0  0  0  0
    3.0660    9.9380   -2.5060 C   0  0  0  0  0  0  0  0  0  0  0  0
    2.4920    8.5570   -0.5260 C   0  0  0  0  0  0  0  0  0  0  0  0
   -0.1060   13.0560   -1.2000 C   0  0  1  0  0  0  0  0  0  0  0  0
   -1.4870   12.7270   -0.5560 C   0  0  0  0  0  0  0  0  0  0  0  0
   -0.3820   14.1250   -2.3230 C   0  0  0  0  0  0  0  0  0  0  0  0
    0.7800   15.0690   -2.6850 C   0  0  0  0  0  0  0  0  0  0  0  0
    1.3960   15.6870   -1.4260 C   0  0  2  0  0  0  0  0  0  0  0  0
    0.2930   16.5540   -0.7290 C   0  0  0  0  0  0  0  0  0  0  0  0
    4.4001   18.5613   -2.8499 H   0  0  0  0  0  0  0  0  0  0  0  0
    3.5606   17.3787   -3.9097 H   0  0  0  0  0  0  0  0  0  0  0  0
    3.0544   19.1022   -3.9097 H   0  0  0  0  0  0  0  0  0  0  0  0
    1.4212   18.0637   -2.5956 H   0  0  0  0  0  0  0  0  0  0  0  0
    2.2977   18.4925   -0.0737 H   0  0  0  0  0  0  0  0  0  0  0  0
    3.5512   19.4128   -1.0356 H   0  0  0  0  0  0  0  0  0  0  0  0
    2.1178   21.1208   -0.9328 H   0  0  0  0  0  0  0  0  0  0  0  0
    1.2028   20.2063   -2.2034 H   0  0  0  0  0  0  0  0  0  0  0  0
    0.8135   20.8402    0.4216 H   0  0  0  0  0  0  0  0  0  0  0  0
   -2.2944   19.1341   -2.3031 H   0  0  0  0  0  0  0  0  0  0  0  0
   -1.3794   20.6365   -2.6667 H   0  0  0  0  0  0  0  0  0  0  0  0
   -0.5373   19.0498   -2.6667 H   0  0  0  0  0  0  0  0  0  0  0  0
   -1.8598   20.0927    1.2048 H   0  0  0  0  0  0  0  0  0  0  0  0
   -2.4480   21.2370   -0.0487 H   0  0  0  0  0  0  0  0  0  0  0  0
   -3.0187   19.5338   -0.0487 H   0  0  0  0  0  0  0  0  0  0  0  0
    3.2733   16.1634   -2.4380 H   0  0  0  0  0  0  0  0  0  0  0  0
    4.3998   16.4508   -0.3189 H   0  0  0  0  0  0  0  0  0  0  0  0
    3.1186   17.5111    0.3062 H   0  0  0  0  0  0  0  0  0  0  0  0
    3.5042   14.7712    1.0219 H   0  0  0  0  0  0  0  0  0  0  0  0
    2.0313   15.6802    1.3513 H   0  0  0  0  0  0  0  0  0  0  0  0
    3.7379   13.2240   -0.4493 H   0  0  0  0  0  0  0  0  0  0  0  0
    2.6550   12.9103   -1.8478 H   0  0  0  0  0  0  0  0  0  0  0  0
    3.7274   14.3513   -1.8478 H   0  0  0  0  0  0  0  0  0  0  0  0
    0.1925   14.3319    0.5336 H   0  0  0  0  0  0  0  0  0  0  0  0
    2.0763   12.8798    1.5285 H   0  0  0  0  0  0  0  0  0  0  0  0
    0.3224   12.3210    1.5645 H   0  0  0  0  0  0  0  0  0  0  0  0
    2.1170   10.4887    0.9661 H   0  0  0  0  0  0  0  0  0  0  0  0
    1.2196   12.1664   -2.5942 H   0  0  0  0  0  0  0  0  0  0  0  0
   -1.2878   10.5294   -1.8642 H   0  0  0  0  0  0  0  0  0  0  0  0
   -1.0422   11.5446   -3.3540 H   0  0  0  0  0  0  0  0  0  0  0  0
   -0.7637    9.1288   -3.8116 H   0  0  0  0  0  0  0  0  0  0  0  0
    0.7470   10.0790   -4.0944 H   0  0  0  0  0  0  0  0  0  0  0  0
    1.3193    8.0380   -2.9693 H   0  0  0  0  0  0  0  0  0  0  0  0
   -1.0120    8.2500   -1.8800 H   0  0  0  0  0  0  0  0  0  0  0  0
    3.9414   10.2293   -1.9069 H   0  0  0  0  0  0  0  0  0  0  0  0
    3.3257    9.0779   -3.1406 H   0  0  0  0  0  0  0  0  0  0  0  0
    2.7586   10.7823   -3.1406 H   0  0  0  0  0  0  0  0  0  0  0  0
    2.2774    8.9170    0.4910 H   0  0  0  0  0  0  0  0  0  0  0  0
    2.0376    7.5653   -0.6675 H   0  0  0  0  0  0  0  0  0  0  0  0
    3.5805    8.4851   -0.6675 H   0  0  0  0  0  0  0  0  0  0  0  0
   -1.3950   12.7489    0.5399 H   0  0  0  0  0  0  0  0  0  0  0  0
   -2.2284   13.4737   -0.8768 H   0  0  0  0  0  0  0  0  0  0  0  0
   -1.8121   11.7263   -0.8768 H   0  0  0  0  0  0  0  0  0  0  0  0
   -0.6663   13.5820   -3.2364 H   0  0  0  0  0  0  0  0  0  0  0  0
   -1.1656   14.7783   -1.9117 H   0  0  0  0  0  0  0  0  0  0  0  0
    1.5530   14.4991   -3.2214 H   0  0  0  0  0  0  0  0  0  0  0  0
    0.3898   15.8790   -3.3188 H   0  0  0  0  0  0  0  0  0  0  0  0
    0.3976   16.4718    0.3629 H   0  0  0  0  0  0  0  0  0  0  0  0
    0.4085   17.6056   -1.0303 H   0  0  0  0  0  0  0  0  0  0  0  0
   -0.7016   16.1934   -1.0303 H   0  0  0  0  0  0  0  0  0  0  0  0
  1  2  1  0
  2  3  1  0
  3  4  1  0
  4  5  1  0
  5  6  1  0
  6  7  1  0
  7  8  1  0
  7  9  1  0
  2 10  1  0
 10 11  1  0
 11 12  1  0
 12 13  1  0
 13 14  1  6
 13 15  1  0
 15 16  1  0
 16 17  1  0
 17 18  2  0
 18 19  1  0
 19 20  1  0
 20 21  1  0
 21 22  1  0
 22 23  1  0
 22 24  1  0
 24 25  1  0
 24 26  1  0
 19 27  1  0
 27 28  1  1
 27 29  1  0
 29 30  1  0
 30 31  1  0
 31 32  1  1
  7  5  1  0
 31 10  1  0
 31 13  1  0
 27 15  1  0
 24 18  1  0
  1 33  1  0
  1 34  1  0
  1 35  1  0
  2 36  1  6
  3 37  1  0
  3 38  1  0
  4 39  1  0
  4 40  1  0
  5 41  1  1
  8 42  1  0
  8 43  1  0
  8 44  1  0
  9 45  1  0
  9 46  1  0
  9 47  1  0
 10 48  1  6
 11 49  1  0
 11 50  1  0
 12 51  1  0
 12 52  1  0
 14 53  1  0
 14 54  1  0
 14 55  1  0
 15 56  1  1
 16 57  1  0
 16 58  1  0
 17 59  1  0
 19 60  1  6
 20 61  1  0
 20 62  1  0
 21 63  1  0
 21 64  1  0
 22 65  1  6
 23 66  1  0
 25 67  1  0
 25 68  1  0
 25 69  1  0
 26 70  1  0
 26 71  1  0
 26 72  1  0
 28 73  1  0
 28 74  1  0
 28 75  1  0
 29 76  1  0
 29 77  1  0
 30 78  1  0
 30 79  1  0
 32 80  1  0
 32 81  1  0
 32 82  1  0
M  END
>  <meeko>  (18) 
{"is_sidechain": [false], "intermolecular_energy": 2.731, "internal_energy": -0.839}

$$$$
