EPH_relaxed_0001_pdb2pqr_Repair_120_r2_0001_out
     RDKit          3D

 82 86  0  0  0  0  0  0  0  0999 V2000
   -1.6970    8.5930   -1.8900 C   0  0  0  0  0  0  0  0  0  0  0  0
   -2.0690    9.1120   -0.4980 C   0  0  2  0  0  0  0  0  0  0  0  0
   -3.5640    9.4780   -0.3960 C   0  0  0  0  0  0  0  0  0  0  0  0
   -4.4870    8.2630   -0.2650 C   0  0  0  0  0  0  0  0  0  0  0  0
   -5.1850    7.9560   -1.5550 C   0  0  2  0  0  0  0  0  0  0  0  0
   -6.3660    8.7310   -1.7970 O   0  0  0  0  0  0  0  0  0  0  0  0
   -6.5590    7.3170   -1.6320 C   0  0  0  0  0  0  0  0  0  0  0  0
   -7.3170    6.9460   -0.3960 C   0  0  0  0  0  0  0  0  0  0  0  0
   -6.9500    6.6110   -2.8920 C   0  0  0  0  0  0  0  0  0  0  0  0
   -1.2110   10.3210   -0.1470 C   0  0  1  0  0  0  0  0  0  0  0  0
   -0.1720   10.0150    0.9640 C   0  0  0  0  0  0  0  0  0  0  0  0
    1.0930   10.8480    0.6350 C   0  0  0  0  0  0  0  0  0  0  0  0
    0.6310   11.8470   -0.4510 C   0  0  1  0  0  0  0  0  0  0  0  0
   -0.0740   12.9970    0.3350 C   0  0  0  0  0  0  0  0  0  0  0  0
    1.7440   12.3970   -1.4020 C   0  0  2  0  0  0  0  0  0  0  0  0
    2.8490   13.2140   -0.7100 C   0  0  0  0  0  0  0  0  0  0  0  0
    2.5940   14.6820   -0.6200 C   0  0  0  0  0  0  0  0  0  0  0  0
    1.6650   15.3600   -1.3190 C   0  0  0  0  0  0  0  0  0  0  0  0
    0.8160   14.6580   -2.3870 C   0  0  1  0  0  0  0  0  0  0  0  0
    0.7790   15.5250   -3.6720 C   0  0  0  0  0  0  0  0  0  0  0  0
    0.3120   16.9530   -3.4010 C   0  0  0  0  0  0  0  0  0  0  0  0
    1.2160   17.6370   -2.3790 C   0  0  2  0  0  0  0  0  0  0  0  0
    2.5140   17.8120   -2.9550 O   0  0  0  0  0  0  0  0  0  0  0  0
    1.3390   16.8480   -1.0450 C   0  0  0  0  0  0  0  0  0  0  0  0
   -0.0030   16.9170   -0.2740 C   0  0  0  0  0  0  0  0  0  0  0  0
    2.3870   17.5720   -0.1570 C   0  0  0  0  0  0  0  0  0  0  0  0
    1.1900   13.1420   -2.6840 C   0  0  1  0  0  0  0  0  0  0  0  0
    2.3170   13.0740   -3.7600 C   0  0  0  0  0  0  0  0  0  0  0  0
   -0.0610   12.4160   -3.3050 C   0  0  0  0  0  0  0  0  0  0  0  0
   -1.0620   11.7890   -2.3160 C   0  0  0  0  0  0  0  0  0  0  0  0
   -0.3400   10.9270   -1.2760 C   0  0  2  0  0  0  0  0  0  0  0  0
    0.3610    9.7490   -2.0360 C   0  0  0  0  0  0  0  0  0  0  0  0
   -1.0588    7.7026   -1.7909 H   0  0  0  0  0  0  0  0  0  0  0  0
   -2.6125    8.3286   -2.4395 H   0  0  0  0  0  0  0  0  0  0  0  0
   -1.1525    9.3751   -2.4395 H   0  0  0  0  0  0  0  0  0  0  0  0
   -1.8778    8.3008    0.2199 H   0  0  0  0  0  0  0  0  0  0  0  0
   -3.7054   10.1185    0.4870 H   0  0  0  0  0  0  0  0  0  0  0  0
   -3.8349    9.9884   -1.3320 H   0  0  0  0  0  0  0  0  0  0  0  0
   -3.8873    7.3901    0.0324 H   0  0  0  0  0  0  0  0  0  0  0  0
   -5.2511    8.4927    0.4923 H   0  0  0  0  0  0  0  0  0  0  0  0
   -4.2288    7.7105   -2.0402 H   0  0  0  0  0  0  0  0  0  0  0  0
   -6.7334    7.2316    0.4916 H   0  0  0  0  0  0  0  0  0  0  0  0
   -8.2822    7.4735   -0.3856 H   0  0  0  0  0  0  0  0  0  0  0  0
   -7.4925    5.8601   -0.3856 H   0  0  0  0  0  0  0  0  0  0  0  0
   -7.4689    5.6740   -2.6414 H   0  0  0  0  0  0  0  0  0  0  0  0
   -7.6200    7.2551   -3.4804 H   0  0  0  0  0  0  0  0  0  0  0  0
   -6.0486    6.3848   -3.4804 H   0  0  0  0  0  0  0  0  0  0  0  0
   -2.0015   11.0299    0.1403 H   0  0  0  0  0  0  0  0  0  0  0  0
   -0.5717   10.3054    1.9468 H   0  0  0  0  0  0  0  0  0  0  0  0
    0.0613    8.9407    1.0015 H   0  0  0  0  0  0  0  0  0  0  0  0
    1.4490   11.3825    1.5281 H   0  0  0  0  0  0  0  0  0  0  0  0
    1.9293   10.2196    0.2949 H   0  0  0  0  0  0  0  0  0  0  0  0
    0.0333   12.8219    1.4157 H   0  0  0  0  0  0  0  0  0  0  0  0
    0.3897   13.9591    0.0716 H   0  0  0  0  0  0  0  0  0  0  0  0
   -1.1417   13.0203    0.0716 H   0  0  0  0  0  0  0  0  0  0  0  0
    2.2311   11.4755   -1.7535 H   0  0  0  0  0  0  0  0  0  0  0  0
    2.9688   12.8264    0.3124 H   0  0  0  0  0  0  0  0  0  0  0  0
    3.7484   13.0986   -1.3326 H   0  0  0  0  0  0  0  0  0  0  0  0
    3.2189   15.2591    0.0774 H   0  0  0  0  0  0  0  0  0  0  0  0
   -0.1961   14.5748   -1.9642 H   0  0  0  0  0  0  0  0  0  0  0  0
    1.7905   15.5605   -4.1028 H   0  0  0  0  0  0  0  0  0  0  0  0
    0.0599   15.0643   -4.3653 H   0  0  0  0  0  0  0  0  0  0  0  0
    0.3347   17.5238   -4.3410 H   0  0  0  0  0  0  0  0  0  0  0  0
   -0.7107   16.9177   -2.9976 H   0  0  0  0  0  0  0  0  0  0  0  0
    0.7580   18.6056   -2.1301 H   0  0  0  0  0  0  0  0  0  0  0  0
    2.5140   18.6620   -3.4270 H   0  0  0  0  0  0  0  0  0  0  0  0
    0.1948   16.9068    0.8080 H   0  0  0  0  0  0  0  0  0  0  0  0
   -0.5322   17.8435   -0.5413 H   0  0  0  0  0  0  0  0  0  0  0  0
   -0.6245   16.0496   -0.5413 H   0  0  0  0  0  0  0  0  0  0  0  0
    2.1465   17.4058    0.9034 H   0  0  0  0  0  0  0  0  0  0  0  0
    3.3890   17.1726   -0.3727 H   0  0  0  0  0  0  0  0  0  0  0  0
    2.3680   18.6505   -0.3727 H   0  0  0  0  0  0  0  0  0  0  0  0
    3.2961   13.0149   -3.2622 H   0  0  0  0  0  0  0  0  0  0  0  0
    2.1708   12.1830   -4.3883 H   0  0  0  0  0  0  0  0  0  0  0  0
    2.2790   13.9761   -4.3883 H   0  0  0  0  0  0  0  0  0  0  0  0
   -0.6084   13.1545   -3.9092 H   0  0  0  0  0  0  0  0  0  0  0  0
    0.3506   11.5691   -3.8737 H   0  0  0  0  0  0  0  0  0  0  0  0
   -1.6090   12.5920   -1.8003 H   0  0  0  0  0  0  0  0  0  0  0  0
   -1.7571   11.1492   -2.8795 H   0  0  0  0  0  0  0  0  0  0  0  0
    0.7821    9.0413   -1.3068 H   0  0  0  0  0  0  0  0  0  0  0  0
   -0.3754    9.2302   -2.6673 H   0  0  0  0  0  0  0  0  0  0  0  0
    1.1682   10.1488   -2.6673 H   0  0  0  0  0  0  0  0  0  0  0  0
  1  2  1  0
  2  3  1  0
  3  4  1  0
  4  5  1  0
  5  6  1  0
  6  7  1  0
  7  8  1  0
  7  9  1  0
  2 10  1  0
 10 11  1  0
 11 12  1  0
 12 13  1  0
 13 14  1  1
 13 15  1  0
 15 16  1  0
 16 17  1  0
 17 18  2  0
 18 19  1  0
 19 20  1  0
 20 21  1  0
 21 22  1  0
 22 23  1  0
 22 24  1  0
 24 25  1  0
 24 26  1  0
 19 27  1  0
 27 28  1  6
 27 29  1  0
 29 30  1  0
 30 31  1  0
 31 32  1  6
  7  5  1  0
 31 10  1  0
 31 13  1  0
 27 15  1  0
 24 18  1  0
  1 33  1  0
  1 34  1  0
  1 35  1  0
  2 36  1  1
  3 37  1  0
  3 38  1  0
  4 39  1  0
  4 40  1  0
  5 41  1  6
  8 42  1  0
  8 43  1  0
  8 44  1  0
  9 45  1  0
  9 46  1  0
  9 47  1  0
 10 48  1  1
 11 49  1  0
 11 50  1  0
 12 51  1  0
 12 52  1  0
 14 53  1  0
 14 54  1  0
 14 55  1  0
 15 56  1  6
 16 57  1  0
 16 58  1  0
 17 59  1  0
 19 60  1  1
 20 61  1  0
 20 62  1  0
 21 63  1  0
 21 64  1  0
 22 65  1  1
 23 66  1  0
 25 67  1  0
 25 68  1  0
 25 69  1  0
 26 70  1  0
 26 71  1  0
 26 72  1  0
 28 73  1  0
 28 74  1  0
 28 75  1  0
 29 76  1  0
 29 77  1  0
 30 78  1  0
 30 79  1  0
 32 80  1  0
 32 81  1  0
 32 82  1  0
M  END
>  <meeko>  (1) 
{"is_sidechain": [false], "intermolecular_energy": 2.731, "internal_energy": -0.839}

$$$$
EPH_relaxed_0001_pdb2pqr_Repair_120_r2_0001_out
     RDKit          3D

 82 86  0  0  0  0  0  0  0  0999 V2000
    2.0000   19.6230   -0.6260 C   0  0  0  0  0  0  0  0  0  0  0  0
    2.3870   18.4060    0.2180 C   0  0  2  0  0  0  0  0  0  0  0  0
    3.8380   17.9540   -0.0450 C   0  0  0  0  0  0  0  0  0  0  0  0
    4.7970   18.2630    1.1080 C   0  0  0  0  0  0  0  0  0  0  0  0
    4.1170   19.0190    2.2080 C   0  0  2  0  0  0  0  0  0  0  0  0
    4.8120   20.1930    2.6470 O   0  0  0  0  0  0  0  0  0  0  0  0
    4.6780   19.1380    3.6130 C   0  0  0  0  0  0  0  0  0  0  0  0
    5.9740   18.4930    3.9930 C   0  0  0  0  0  0  0  0  0  0  0  0
    3.7390   19.4620    4.7330 C   0  0  0  0  0  0  0  0  0  0  0  0
    1.4260   17.2560   -0.0560 C   0  0  1  0  0  0  0  0  0  0  0  0
    0.1480   17.7120   -0.8100 C   0  0  0  0  0  0  0  0  0  0  0  0
   -0.2500   16.5510   -1.7570 C   0  0  0  0  0  0  0  0  0  0  0  0
    0.6020   15.3500   -1.2830 C   0  0  1  0  0  0  0  0  0  0  0  0
   -0.1660   14.7760   -0.0510 C   0  0  0  0  0  0  0  0  0  0  0  0
    0.8920   14.2440   -2.3490 C   0  0  2  0  0  0  0  0  0  0  0  0
   -0.3520   13.5190   -2.8920 C   0  0  0  0  0  0  0  0  0  0  0  0
   -0.7540   12.2930   -2.1400 C   0  0  0  0  0  0  0  0  0  0  0  0
    0.0140   11.6340   -1.2520 C   0  0  0  0  0  0  0  0  0  0  0  0
    1.4670   12.0560   -1.0000 C   0  0  1  0  0  0  0  0  0  0  0  0
    2.3790   10.8020   -1.0060 C   0  0  0  0  0  0  0  0  0  0  0  0
    1.9060    9.7290   -0.0300 C   0  0  0  0  0  0  0  0  0  0  0  0
    0.4780    9.2930   -0.3490 C   0  0  2  0  0  0  0  0  0  0  0  0
    0.4720    8.6220   -1.6130 O   0  0  0  0  0  0  0  0  0  0  0  0
   -0.5310   10.4750   -0.3800 C   0  0  0  0  0  0  0  0  0  0  0  0
   -0.7510   11.0100    1.0560 C   0  0  0  0  0  0  0  0  0  0  0  0
   -1.9020    9.9200   -0.8520 C   0  0  0  0  0  0  0  0  0  0  0  0
    2.0220   13.2190   -1.9290 C   0  0  1  0  0  0  0  0  0  0  0  0
    2.5910   12.6180   -3.2510 C   0  0  0  0  0  0  0  0  0  0  0  0
    3.2300   13.9240   -1.2060 C   0  0  0  0  0  0  0  0  0  0  0  0
    2.8870   15.0870   -0.2560 C   0  0  0  0  0  0  0  0  0  0  0  0
    1.9450   16.0880   -0.9320 C   0  0  2  0  0  0  0  0  0  0  0  0
    2.6980   16.6990   -2.1620 C   0  0  0  0  0  0  0  0  0  0  0  0
    1.7340   20.4594    0.0370 H   0  0  0  0  0  0  0  0  0  0  0  0
    2.8499   19.9142   -1.2608 H   0  0  0  0  0  0  0  0  0  0  0  0
    1.1380   19.3699   -1.2608 H   0  0  0  0  0  0  0  0  0  0  0  0
    2.3200   18.7024    1.2752 H   0  0  0  0  0  0  0  0  0  0  0  0
    3.8379   16.8672   -0.2150 H   0  0  0  0  0  0  0  0  0  0  0  0
    4.1961   18.5154   -0.9205 H   0  0  0  0  0  0  0  0  0  0  0  0
    5.1842   17.3163    1.5128 H   0  0  0  0  0  0  0  0  0  0  0  0
    5.6131   18.8881    0.7165 H   0  0  0  0  0  0  0  0  0  0  0  0
    3.1271   18.7218    1.8314 H   0  0  0  0  0  0  0  0  0  0  0  0
    6.0558   18.4523    5.0892 H   0  0  0  0  0  0  0  0  0  0  0  0
    6.0092   17.4723    3.5845 H   0  0  0  0  0  0  0  0  0  0  0  0
    6.8095   19.0804    3.5845 H   0  0  0  0  0  0  0  0  0  0  0  0
    4.2425   19.2883    5.6955 H   0  0  0  0  0  0  0  0  0  0  0  0
    3.4352   20.5169    4.6633 H   0  0  0  0  0  0  0  0  0  0  0  0
    2.8493   18.8189    4.6633 H   0  0  0  0  0  0  0  0  0  0  0  0
    1.2576   16.9076    0.9737 H   0  0  0  0  0  0  0  0  0  0  0  0
   -0.6630   17.9122   -0.0944 H   0  0  0  0  0  0  0  0  0  0  0  0
    0.3317   18.6377   -1.3751 H   0  0  0  0  0  0  0  0  0  0  0  0
   -1.3228   16.3260   -1.6656 H   0  0  0  0  0  0  0  0  0  0  0  0
   -0.0726   16.7963   -2.8145 H   0  0  0  0  0  0  0  0  0  0  0  0
    0.3092   15.1312    0.8753 H   0  0  0  0  0  0  0  0  0  0  0  0
   -1.2119   15.1156   -0.0801 H   0  0  0  0  0  0  0  0  0  0  0  0
   -0.1365   13.6768   -0.0801 H   0  0  0  0  0  0  0  0  0  0  0  0
    1.2890   14.8278   -3.1926 H   0  0  0  0  0  0  0  0  0  0  0  0
   -1.1951   14.2251   -2.8668 H   0  0  0  0  0  0  0  0  0  0  0  0
   -0.0900   13.1822   -3.9059 H   0  0  0  0  0  0  0  0  0  0  0  0
   -1.7622   11.8950   -2.3273 H   0  0  0  0  0  0  0  0  0  0  0  0
    1.4799   12.5216   -0.0035 H   0  0  0  0  0  0  0  0  0  0  0  0
    2.3870   10.3769   -2.0205 H   0  0  0  0  0  0  0  0  0  0  0  0
    3.3843   11.1191   -0.6916 H   0  0  0  0  0  0  0  0  0  0  0  0
    2.5732    8.8574   -0.1021 H   0  0  0  0  0  0  0  0  0  0  0  0
    1.9269   10.1460    0.9877 H   0  0  0  0  0  0  0  0  0  0  0  0
    0.1500    8.6218    0.4584 H   0  0  0  0  0  0  0  0  0  0  0  0
    0.8330    9.2370   -2.2740 H   0  0  0  0  0  0  0  0  0  0  0  0
   -0.4373   10.2470    1.7836 H   0  0  0  0  0  0  0  0  0  0  0  0
   -0.1554   11.9231    1.2024 H   0  0  0  0  0  0  0  0  0  0  0  0
   -1.8167   11.2400    1.2024 H   0  0  0  0  0  0  0  0  0  0  0  0
   -2.5180    9.6706    0.0245 H   0  0  0  0  0  0  0  0  0  0  0  0
   -2.4167   10.6806   -1.4575 H   0  0  0  0  0  0  0  0  0  0  0  0
   -1.7426    9.0156   -1.4575 H   0  0  0  0  0  0  0  0  0  0  0  0
    3.3291   11.8384   -3.0115 H   0  0  0  0  0  0  0  0  0  0  0  0
    1.7704   12.1784   -3.8369 H   0  0  0  0  0  0  0  0  0  0  0  0
    3.0748   13.4134   -3.8369 H   0  0  0  0  0  0  0  0  0  0  0  0
    3.7587   13.1590   -0.6184 H   0  0  0  0  0  0  0  0  0  0  0  0
    3.8243   14.3770   -2.0132 H   0  0  0  0  0  0  0  0  0  0  0  0
    2.3987   14.6845    0.6438 H   0  0  0  0  0  0  0  0  0  0  0  0
    3.8184   15.6076    0.0114 H   0  0  0  0  0  0  0  0  0  0  0  0
    3.5067   17.3552   -1.8079 H   0  0  0  0  0  0  0  0  0  0  0  0
    3.1240   15.8880   -2.7710 H   0  0  0  0  0  0  0  0  0  0  0  0
    1.9922   17.2829   -2.7710 H   0  0  0  0  0  0  0  0  0  0  0  0
  1  2  1  0
  2  3  1  0
  3  4  1  0
  4  5  1  0
  5  6  1  0
  6  7  1  0
  7  8  1  0
  7  9  1  0
  2 10  1  0
 10 11  1  0
 11 12  1  0
 12 13  1  0
 13 14  1  1
 13 15  1  0
 15 16  1  0
 16 17  1  0
 17 18  2  0
 18 19  1  0
 19 20  1  0
 20 21  1  0
 21 22  1  0
 22 23  1  0
 22 24  1  0
 24 25  1  0
 24 26  1  0
 19 27  1  0
 27 28  1  6
 27 29  1  0
 29 30  1  0
 30 31  1  0
 31 32  1  6
  7  5  1  0
 31 10  1  0
 31 13  1  0
 27 15  1  0
 24 18  1  0
  1 33  1  0
  1 34  1  0
  1 35  1  0
  2 36  1  1
  3 37  1  0
  3 38  1  0
  4 39  1  0
  4 40  1  0
  5 41  1  1
  8 42  1  0
  8 43  1  0
  8 44  1  0
  9 45  1  0
  9 46  1  0
  9 47  1  0
 10 48  1  1
 11 49  1  0
 11 50  1  0
 12 51  1  0
 12 52  1  0
 14 53  1  0
 14 54  1  0
 14 55  1  0
 15 56  1  6
 16 57  1  0
 16 58  1  0
 17 59  1  0
 19 60  1  1
 20 61  1  0
 20 62  1  0
 21 63  1  0
 21 64  1  0
 22 65  1  1
 23 66  1  0
 25 67  1  0
 25 68  1  0
 25 69  1  0
 26 70  1  0
 26 71  1  0
 26 72  1  0
 28 73  1  0
 28 74  1  0
 28 75  1  0
 29 76  1  0
 29 77  1  0
 30 78  1  0
 30 79  1  0
 32 80  1  0
 32 81  1  0
 32 82  1  0
M  END
>  <meeko>  (2) 
{"is_sidechain": [false], "intermolecular_energy": 2.731, "internal_energy": -0.839}

$$$$
EPH_relaxed_0001_pdb2pqr_Repair_120_r2_0001_out
     RDKit          3D

 82 86  0  0  0  0  0  0  0  0999 V2000
    0.4120   18.4150   -0.0490 C   0  0  0  0  0  0  0  0  0  0  0  0
    1.4970   17.3560   -0.2600 C   0  0  2  0  0  0  0  0  0  0  0  0
    2.7120   17.9140   -1.0280 C   0  0  0  0  0  0  0  0  0  0  0  0
    3.9440   18.1430   -0.1490 C   0  0  0  0  0  0  0  0  0  0  0  0
    3.5670   18.6070    1.2250 C   0  0  2  0  0  0  0  0  0  0  0  0
    3.8030   19.9990    1.4720 O   0  0  0  0  0  0  0  0  0  0  0  0
    4.5760   19.0760    2.2560 C   0  0  0  0  0  0  0  0  0  0  0  0
    6.0420   19.1020    1.9580 C   0  0  0  0  0  0  0  0  0  0  0  0
    4.1900   19.0430    3.7020 C   0  0  0  0  0  0  0  0  0  0  0  0
    0.9170   16.1580   -1.0020 C   0  0  1  0  0  0  0  0  0  0  0  0
    0.7790   16.4100   -2.5270 C   0  0  0  0  0  0  0  0  0  0  0  0
    1.0620   15.0580   -3.2310 C   0  0  0  0  0  0  0  0  0  0  0  0
    1.0240   14.0110   -2.0940 C   0  0  1  0  0  0  0  0  0  0  0  0
   -0.4920   13.7190   -1.8670 C   0  0  0  0  0  0  0  0  0  0  0  0
    1.8340   12.6960   -2.3380 C   0  0  2  0  0  0  0  0  0  0  0  0
    1.3560   11.8460   -3.5280 C   0  0  0  0  0  0  0  0  0  0  0  0
    0.3240   10.8170   -3.2030 C   0  0  0  0  0  0  0  0  0  0  0  0
    0.0090   10.3890   -1.9660 C   0  0  0  0  0  0  0  0  0  0  0  0
    0.7880   10.8820   -0.7400 C   0  0  1  0  0  0  0  0  0  0  0  0
    1.1480    9.6740    0.1640 C   0  0  0  0  0  0  0  0  0  0  0  0
   -0.0750    8.8430    0.5440 C   0  0  0  0  0  0  0  0  0  0  0  0
   -0.7890    8.3240   -0.7000 C   0  0  2  0  0  0  0  0  0  0  0  0
    0.0620    7.3830   -1.3610 O   0  0  0  0  0  0  0  0  0  0  0  0
   -1.1920    9.4510   -1.6920 C   0  0  0  0  0  0  0  0  0  0  0  0
   -2.3390   10.2950   -1.0820 C   0  0  0  0  0  0  0  0  0  0  0  0
   -1.7750    8.7810   -2.9650 C   0  0  0  0  0  0  0  0  0  0  0  0
    2.0410   11.8120   -1.0420 C   0  0  1  0  0  0  0  0  0  0  0  0
    3.3050   10.9350   -1.2980 C   0  0  0  0  0  0  0  0  0  0  0  0
    2.3550   12.6820    0.2320 C   0  0  0  0  0  0  0  0  0  0  0  0
    1.6110   14.0250    0.3560 C   0  0  0  0  0  0  0  0  0  0  0  0
    1.7130   14.8300   -0.9430 C   0  0  2  0  0  0  0  0  0  0  0  0
    3.2260   15.1580   -1.1860 C   0  0  0  0  0  0  0  0  0  0  0  0
    0.2544   18.5688    1.0287 H   0  0  0  0  0  0  0  0  0  0  0  0
    0.7283   19.3613   -0.5121 H   0  0  0  0  0  0  0  0  0  0  0  0
   -0.5264   18.0759   -0.5121 H   0  0  0  0  0  0  0  0  0  0  0  0
    1.8504   17.0423    0.7333 H   0  0  0  0  0  0  0  0  0  0  0  0
    2.9792   17.2001   -1.8210 H   0  0  0  0  0  0  0  0  0  0  0  0
    2.4161   18.8950   -1.4282 H   0  0  0  0  0  0  0  0  0  0  0  0
    4.5026   17.1991   -0.0656 H   0  0  0  0  0  0  0  0  0  0  0  0
    4.5588   18.9253   -0.6181 H   0  0  0  0  0  0  0  0  0  0  0  0
    2.7492   17.8729    1.2741 H   0  0  0  0  0  0  0  0  0  0  0  0
    6.6078   19.1120    2.9013 H   0  0  0  0  0  0  0  0  0  0  0  0
    6.3139   18.2085    1.3768 H   0  0  0  0  0  0  0  0  0  0  0  0
    6.2821   20.0045    1.3768 H   0  0  0  0  0  0  0  0  0  0  0  0
    5.0936   19.1203    4.3246 H   0  0  0  0  0  0  0  0  0  0  0  0
    3.5199   19.8871    3.9220 H   0  0  0  0  0  0  0  0  0  0  0  0
    3.6729   18.0974    3.9220 H   0  0  0  0  0  0  0  0  0  0  0  0
   -0.0347   16.0499   -0.4611 H   0  0  0  0  0  0  0  0  0  0  0  0
   -0.2385   16.7546   -2.7635 H   0  0  0  0  0  0  0  0  0  0  0  0
    1.4820   17.1858   -2.8644 H   0  0  0  0  0  0  0  0  0  0  0  0
    0.2889   14.8426   -3.9833 H   0  0  0  0  0  0  0  0  0  0  0  0
    2.0235   15.0590   -3.7653 H   0  0  0  0  0  0  0  0  0  0  0  0
   -0.7001   13.6789   -0.7876 H   0  0  0  0  0  0  0  0  0  0  0  0
   -1.0922   14.5181   -2.3267 H   0  0  0  0  0  0  0  0  0  0  0  0
   -0.7524   12.7542   -2.3267 H   0  0  0  0  0  0  0  0  0  0  0  0
    2.8245   13.0794   -2.6241 H   0  0  0  0  0  0  0  0  0  0  0  0
    0.9328   12.5253   -4.2827 H   0  0  0  0  0  0  0  0  0  0  0  0
    2.2384   11.2915   -3.8798 H   0  0  0  0  0  0  0  0  0  0  0  0
   -0.2252   10.3710   -4.0453 H   0  0  0  0  0  0  0  0  0  0  0  0
    0.1108   11.5624   -0.2030 H   0  0  0  0  0  0  0  0  0  0  0  0
    1.8587    9.0298   -0.3745 H   0  0  0  0  0  0  0  0  0  0  0  0
    1.5846   10.0700    1.0927 H   0  0  0  0  0  0  0  0  0  0  0  0
    0.2468    7.9884    1.1573 H   0  0  0  0  0  0  0  0  0  0  0  0
   -0.7714    9.4807    1.1083 H   0  0  0  0  0  0  0  0  0  0  0  0
   -1.7246    7.8497   -0.3687 H   0  0  0  0  0  0  0  0  0  0  0  0
   -0.3070    7.2230   -2.2460 H   0  0  0  0  0  0  0  0  0  0  0  0
   -2.2816   10.2527    0.0157 H   0  0  0  0  0  0  0  0  0  0  0  0
   -2.2426   11.3392   -1.4143 H   0  0  0  0  0  0  0  0  0  0  0  0
   -3.3072    9.8924   -1.4143 H   0  0  0  0  0  0  0  0  0  0  0  0
   -2.4710    7.9811   -2.6723 H   0  0  0  0  0  0  0  0  0  0  0  0
   -2.3111    9.5331   -3.5624 H   0  0  0  0  0  0  0  0  0  0  0  0
   -0.9560    8.3540   -3.5624 H   0  0  0  0  0  0  0  0  0  0  0  0
    3.7420   10.6318   -0.3352 H   0  0  0  0  0  0  0  0  0  0  0  0
    3.0202   10.0394   -1.8697 H   0  0  0  0  0  0  0  0  0  0  0  0
    4.0442   11.5153   -1.8697 H   0  0  0  0  0  0  0  0  0  0  0  0
    2.1034   12.0791    1.1170 H   0  0  0  0  0  0  0  0  0  0  0  0
    3.4184   12.9490    0.1435 H   0  0  0  0  0  0  0  0  0  0  0  0
    0.5511   13.8302    0.5764 H   0  0  0  0  0  0  0  0  0  0  0  0
    2.0720   14.6079    1.1670 H   0  0  0  0  0  0  0  0  0  0  0  0
    3.7372   15.2688   -0.2183 H   0  0  0  0  0  0  0  0  0  0  0  0
    3.6917   14.3400   -1.7551 H   0  0  0  0  0  0  0  0  0  0  0  0
    3.3111   16.0955   -1.7551 H   0  0  0  0  0  0  0  0  0  0  0  0
  1  2  1  0
  2  3  1  0
  3  4  1  0
  4  5  1  0
  5  6  1  0
  6  7  1  0
  7  8  1  0
  7  9  1  0
  2 10  1  0
 10 11  1  0
 11 12  1  0
 12 13  1  0
 13 14  1  1
 13 15  1  0
 15 16  1  0
 16 17  1  0
 17 18  2  0
 18 19  1  0
 19 20  1  0
 20 21  1  0
 21 22  1  0
 22 23  1  0
 22 24  1  0
 24 25  1  0
 24 26  1  0
 19 27  1  0
 27 28  1  6
 27 29  1  0
 29 30  1  0
 30 31  1  0
 31 32  1  6
  7  5  1  0
 31 10  1  0
 31 13  1  0
 27 15  1  0
 24 18  1  0
  1 33  1  0
  1 34  1  0
  1 35  1  0
  2 36  1  1
  3 37  1  0
  3 38  1  0
  4 39  1  0
  4 40  1  0
  5 41  1  1
  8 42  1  0
  8 43  1  0
  8 44  1  0
  9 45  1  0
  9 46  1  0
  9 47  1  0
 10 48  1  1
 11 49  1  0
 11 50  1  0
 12 51  1  0
 12 52  1  0
 14 53  1  0
 14 54  1  0
 14 55  1  0
 15 56  1  6
 16 57  1  0
 16 58  1  0
 17 59  1  0
 19 60  1  1
 20 61  1  0
 20 62  1  0
 21 63  1  0
 21 64  1  0
 22 65  1  1
 23 66  1  0
 25 67  1  0
 25 68  1  0
 25 69  1  0
 26 70  1  0
 26 71  1  0
 26 72  1  0
 28 73  1  0
 28 74  1  0
 28 75  1  0
 29 76  1  0
 29 77  1  0
 30 78  1  0
 30 79  1  0
 32 80  1  0
 32 81  1  0
 32 82  1  0
M  END
>  <meeko>  (3) 
{"is_sidechain": [false], "intermolecular_energy": 2.731, "internal_energy": -0.839}

$$$$
EPH_relaxed_0001_pdb2pqr_Repair_120_r2_0001_out
     RDKit          3D

 82 86  0  0  0  0  0  0  0  0999 V2000
    2.5600   17.9580   -2.6580 C   0  0  0  0  0  0  0  0  0  0  0  0
    1.2350   17.6350   -1.9620 C   0  0  2  0  0  0  0  0  0  0  0  0
    1.3540   17.7060   -0.4260 C   0  0  0  0  0  0  0  0  0  0  0  0
    1.0000   19.0780    0.1550 C   0  0  0  0  0  0  0  0  0  0  0  0
   -0.4550   19.1750    0.5010 C   0  0  2  0  0  0  0  0  0  0  0  0
   -1.3010   18.2580   -0.2060 O   0  0  0  0  0  0  0  0  0  0  0  0
   -1.5160   19.6540   -0.4710 C   0  0  0  0  0  0  0  0  0  0  0  0
   -1.1660   20.0690   -1.8660 C   0  0  0  0  0  0  0  0  0  0  0  0
   -2.8060   20.1800    0.0780 C   0  0  0  0  0  0  0  0  0  0  0  0
    0.7510   16.2520   -2.3830 C   0  0  1  0  0  0  0  0  0  0  0  0
    0.8150   16.0390   -3.9190 C   0  0  0  0  0  0  0  0  0  0  0  0
    1.1810   14.5500   -4.1480 C   0  0  0  0  0  0  0  0  0  0  0  0
    0.9890   13.8830   -2.7660 C   0  0  1  0  0  0  0  0  0  0  0  0
   -0.5460   13.6200   -2.6560 C   0  0  0  0  0  0  0  0  0  0  0  0
    1.8170   12.5830   -2.5040 C   0  0  2  0  0  0  0  0  0  0  0  0
    1.4940   11.4050   -3.4390 C   0  0  0  0  0  0  0  0  0  0  0  0
    0.4240   10.4830   -2.9570 C   0  0  0  0  0  0  0  0  0  0  0  0
   -0.0530   10.4280   -1.6990 C   0  0  0  0  0  0  0  0  0  0  0  0
    0.5610   11.2860   -0.5860 C   0  0  1  0  0  0  0  0  0  0  0  0
    0.7920   10.4110    0.6740 C   0  0  0  0  0  0  0  0  0  0  0  0
   -0.4730    9.6890    1.1250 C   0  0  0  0  0  0  0  0  0  0  0  0
   -1.0220    8.8020    0.0110 C   0  0  2  0  0  0  0  0  0  0  0  0
   -0.0960    7.7370   -0.2280 O   0  0  0  0  0  0  0  0  0  0  0  0
   -1.2850    9.5720   -1.3130 C   0  0  0  0  0  0  0  0  0  0  0  0
   -2.4970   10.5190   -1.1320 C   0  0  0  0  0  0  0  0  0  0  0  0
   -1.6990    8.5380   -2.3940 C   0  0  0  0  0  0  0  0  0  0  0  0
    1.8480   12.1280   -0.9890 C   0  0  1  0  0  0  0  0  0  0  0  0
    3.1300   11.2580   -0.8110 C   0  0  0  0  0  0  0  0  0  0  0  0
    1.9960   13.3450   -0.0010 C   0  0  0  0  0  0  0  0  0  0  0  0
    1.2500   14.6390   -0.3760 C   0  0  0  0  0  0  0  0  0  0  0  0
    1.5250   15.0290   -1.8320 C   0  0  2  0  0  0  0  0  0  0  0  0
    3.0590   15.3210   -1.9670 C   0  0  0  0  0  0  0  0  0  0  0  0
    3.3353   18.1470   -1.9009 H   0  0  0  0  0  0  0  0  0  0  0  0
    2.8610   17.1069   -3.2866 H   0  0  0  0  0  0  0  0  0  0  0  0
    2.4356   18.8521   -3.2866 H   0  0  0  0  0  0  0  0  0  0  0  0
    0.5036   18.3958   -2.2724 H   0  0  0  0  0  0  0  0  0  0  0  0
    0.6751   16.9583    0.0101 H   0  0  0  0  0  0  0  0  0  0  0  0
    2.4074   17.5123   -0.1754 H   0  0  0  0  0  0  0  0  0  0  0  0
    1.5947   19.2438    1.0654 H   0  0  0  0  0  0  0  0  0  0  0  0
    1.2230   19.8404   -0.6059 H   0  0  0  0  0  0  0  0  0  0  0  0
   -0.2139   19.4687    1.5333 H   0  0  0  0  0  0  0  0  0  0  0  0
   -0.4572   20.9095   -1.8316 H   0  0  0  0  0  0  0  0  0  0  0  0
   -0.7052   19.2222   -2.3958 H   0  0  0  0  0  0  0  0  0  0  0  0
   -2.0784   20.3803   -2.3958 H   0  0  0  0  0  0  0  0  0  0  0  0
   -2.7698   20.1652    1.1773 H   0  0  0  0  0  0  0  0  0  0  0  0
   -2.9588   21.2123   -0.2700 H   0  0  0  0  0  0  0  0  0  0  0  0
   -3.6370   19.5489   -0.2700 H   0  0  0  0  0  0  0  0  0  0  0  0
   -0.2641   16.2754   -1.9600 H   0  0  0  0  0  0  0  0  0  0  0  0
   -0.1611   16.2636   -4.3738 H   0  0  0  0  0  0  0  0  0  0  0  0
    1.5597   16.7046   -4.3798 H   0  0  0  0  0  0  0  0  0  0  0  0
    0.5123   14.0963   -4.8943 H   0  0  0  0  0  0  0  0  0  0  0  0
    2.2045   14.4267   -4.5317 H   0  0  0  0  0  0  0  0  0  0  0  0
   -0.8345   13.5706   -1.5957 H   0  0  0  0  0  0  0  0  0  0  0  0
   -1.0942   14.4373   -3.1474 H   0  0  0  0  0  0  0  0  0  0  0  0
   -0.7908   12.6668   -3.1474 H   0  0  0  0  0  0  0  0  0  0  0  0
    2.8388   12.8979   -2.7625 H   0  0  0  0  0  0  0  0  0  0  0  0
    1.1761   11.8175   -4.4079 H   0  0  0  0  0  0  0  0  0  0  0  0
    2.4121   10.8018   -3.4966 H   0  0  0  0  0  0  0  0  0  0  0  0
   -0.0118    9.7898   -3.6915 H   0  0  0  0  0  0  0  0  0  0  0  0
   -0.1769   12.0713   -0.3652 H   0  0  0  0  0  0  0  0  0  0  0  0
    1.5636    9.6610    0.4457 H   0  0  0  0  0  0  0  0  0  0  0  0
    1.1046   11.0782    1.4908 H   0  0  0  0  0  0  0  0  0  0  0  0
   -0.2385    9.0646    1.9997 H   0  0  0  0  0  0  0  0  0  0  0  0
   -1.2336   10.4410    1.3817 H   0  0  0  0  0  0  0  0  0  0  0  0
   -1.9955    8.4153    0.3470 H   0  0  0  0  0  0  0  0  0  0  0  0
   -0.2590    7.0500    0.4400 H   0  0  0  0  0  0  0  0  0  0  0  0
   -2.6884   10.6686   -0.0592 H   0  0  0  0  0  0  0  0  0  0  0  0
   -2.2787   11.4882   -1.6041 H   0  0  0  0  0  0  0  0  0  0  0  0
   -3.3847   10.0728   -1.6041 H   0  0  0  0  0  0  0  0  0  0  0  0
   -2.0653    7.6232   -1.9052 H   0  0  0  0  0  0  0  0  0  0  0  0
   -2.4964    8.9628   -3.0215 H   0  0  0  0  0  0  0  0  0  0  0  0
   -0.8288    8.2952   -3.0215 H   0  0  0  0  0  0  0  0  0  0  0  0
    3.3335   11.1199    0.2612 H   0  0  0  0  0  0  0  0  0  0  0  0
    2.9761   10.2770   -1.2843 H   0  0  0  0  0  0  0  0  0  0  0  0
    3.9847   11.7634   -1.2843 H   0  0  0  0  0  0  0  0  0  0  0  0
    1.6266   13.0213    0.9833 H   0  0  0  0  0  0  0  0  0  0  0  0
    3.0633   13.6099   -0.0288 H   0  0  0  0  0  0  0  0  0  0  0  0
    0.1693   14.4825   -0.2435 H   0  0  0  0  0  0  0  0  0  0  0  0
    1.6048   15.4499    0.2771 H   0  0  0  0  0  0  0  0  0  0  0  0
    3.5056   15.4060   -0.9653 H   0  0  0  0  0  0  0  0  0  0  0  0
    3.5419   14.4987   -2.5152 H   0  0  0  0  0  0  0  0  0  0  0  0
    3.2060   16.2633   -2.5152 H   0  0  0  0  0  0  0  0  0  0  0  0
  1  2  1  0
  2  3  1  0
  3  4  1  0
  4  5  1  0
  5  6  1  0
  6  7  1  0
  7  8  1  0
  7  9  1  0
  2 10  1  0
 10 11  1  0
 11 12  1  0
 12 13  1  0
 13 14  1  1
 13 15  1  0
 15 16  1  0
 16 17  1  0
 17 18  2  0
 18 19  1  0
 19 20  1  0
 20 21  1  0
 21 22  1  0
 22 23  1  0
 22 24  1  0
 24 25  1  0
 24 26  1  0
 19 27  1  0
 27 28  1  6
 27 29  1  0
 29 30  1  0
 30 31  1  0
 31 32  1  1
  7  5  1  0
 31 10  1  0
 31 13  1  0
 27 15  1  0
 24 18  1  0
  1 33  1  0
  1 34  1  0
  1 35  1  0
  2 36  1  6
  3 37  1  0
  3 38  1  0
  4 39  1  0
  4 40  1  0
  5 41  1  1
  8 42  1  0
  8 43  1  0
  8 44  1  0
  9 45  1  0
  9 46  1  0
  9 47  1  0
 10 48  1  1
 11 49  1  0
 11 50  1  0
 12 51  1  0
 12 52  1  0
 14 53  1  0
 14 54  1  0
 14 55  1  0
 15 56  1  6
 16 57  1  0
 16 58  1  0
 17 59  1  0
 19 60  1  1
 20 61  1  0
 20 62  1  0
 21 63  1  0
 21 64  1  0
 22 65  1  1
 23 66  1  0
 25 67  1  0
 25 68  1  0
 25 69  1  0
 26 70  1  0
 26 71  1  0
 26 72  1  0
 28 73  1  0
 28 74  1  0
 28 75  1  0
 29 76  1  0
 29 77  1  0
 30 78  1  0
 30 79  1  0
 32 80  1  0
 32 81  1  0
 32 82  1  0
M  END
>  <meeko>  (4) 
{"is_sidechain": [false], "intermolecular_energy": 2.731, "internal_energy": -0.839}

$$$$
EPH_relaxed_0001_pdb2pqr_Repair_120_r2_0001_out
     RDKit          3D

 82 86  0  0  0  0  0  0  0  0999 V2000
   -3.4140    9.3190    0.5360 C   0  0  0  0  0  0  0  0  0  0  0  0
   -2.5850    9.6830   -0.6990 C   0  0  2  0  0  0  0  0  0  0  0  0
   -1.9150    8.4470   -1.3330 C   0  0  0  0  0  0  0  0  0  0  0  0
   -2.8290    7.6710   -2.2850 C   0  0  0  0  0  0  0  0  0  0  0  0
   -4.2670    7.7670   -1.8740 C   0  0  2  0  0  0  0  0  0  0  0  0
   -4.8120    6.5630   -1.3180 O   0  0  0  0  0  0  0  0  0  0  0  0
   -5.3860    7.0050   -2.5590 C   0  0  0  0  0  0  0  0  0  0  0  0
   -5.1150    6.0930   -3.7140 C   0  0  0  0  0  0  0  0  0  0  0  0
   -6.7860    7.5180   -2.4270 C   0  0  0  0  0  0  0  0  0  0  0  0
   -1.5280   10.7160   -0.3290 C   0  0  1  0  0  0  0  0  0  0  0  0
   -0.4300   10.1400    0.6050 C   0  0  0  0  0  0  0  0  0  0  0  0
    0.9000   10.8340    0.2130 C   0  0  0  0  0  0  0  0  0  0  0  0
    0.4730   12.0120   -0.6930 C   0  0  1  0  0  0  0  0  0  0  0  0
    0.0310   13.1380    0.2940 C   0  0  0  0  0  0  0  0  0  0  0  0
    1.5440   12.5240   -1.7110 C   0  0  2  0  0  0  0  0  0  0  0  0
    2.8240   13.0970   -1.0770 C   0  0  0  0  0  0  0  0  0  0  0  0
    2.7970   14.5630   -0.7980 C   0  0  0  0  0  0  0  0  0  0  0  0
    1.9060   15.4380   -1.2990 C   0  0  0  0  0  0  0  0  0  0  0  0
    0.8540   14.9920   -2.3220 C   0  0  1  0  0  0  0  0  0  0  0  0
    0.8040   16.0100   -3.4920 C   0  0  0  0  0  0  0  0  0  0  0  0
    0.5820   17.4410   -3.0130 C   0  0  0  0  0  0  0  0  0  0  0  0
    1.6800   17.8680   -2.0430 C   0  0  2  0  0  0  0  0  0  0  0  0
    2.9200   17.9420   -2.7540 O   0  0  0  0  0  0  0  0  0  0  0  0
    1.8310   16.9110   -0.8270 C   0  0  0  0  0  0  0  0  0  0  0  0
    0.6040   17.0600    0.1070 C   0  0  0  0  0  0  0  0  0  0  0  0
    3.0620   17.3750   -0.0040 C   0  0  0  0  0  0  0  0  0  0  0  0
    0.9700   13.4890   -2.8260 C   0  0  1  0  0  0  0  0  0  0  0  0
    1.9510   13.4070   -4.0340 C   0  0  0  0  0  0  0  0  0  0  0  0
   -0.4340   13.0160   -3.3610 C   0  0  0  0  0  0  0  0  0  0  0  0
   -1.4020   12.4090   -2.3280 C   0  0  0  0  0  0  0  0  0  0  0  0
   -0.7050   11.3370   -1.4860 C   0  0  2  0  0  0  0  0  0  0  0  0
   -0.2680   10.1810   -2.4490 C   0  0  0  0  0  0  0  0  0  0  0  0
   -2.8467    9.5681    1.4449 H   0  0  0  0  0  0  0  0  0  0  0  0
   -4.3565    9.8861    0.5251 H   0  0  0  0  0  0  0  0  0  0  0  0
   -3.6343    8.2413    0.5251 H   0  0  0  0  0  0  0  0  0  0  0  0
   -3.2723   10.1059   -1.4465 H   0  0  0  0  0  0  0  0  0  0  0  0
   -1.0313    8.7817   -1.8960 H   0  0  0  0  0  0  0  0  0  0  0  0
   -1.6553    7.7649   -0.5100 H   0  0  0  0  0  0  0  0  0  0  0  0
   -2.7198    8.0831   -3.2990 H   0  0  0  0  0  0  0  0  0  0  0  0
   -2.5341    6.6117   -2.2561 H   0  0  0  0  0  0  0  0  0  0  0  0
   -4.1474    8.8302   -1.6185 H   0  0  0  0  0  0  0  0  0  0  0  0
   -4.8206    5.1022   -3.3376 H   0  0  0  0  0  0  0  0  0  0  0  0
   -6.0235    5.9974   -4.3267 H   0  0  0  0  0  0  0  0  0  0  0  0
   -4.3017    6.5090   -4.3267 H   0  0  0  0  0  0  0  0  0  0  0  0
   -7.0431    7.6122   -1.3616 H   0  0  0  0  0  0  0  0  0  0  0  0
   -6.8629    8.5027   -2.9112 H   0  0  0  0  0  0  0  0  0  0  0  0
   -7.4809    6.8161   -2.9112 H   0  0  0  0  0  0  0  0  0  0  0  0
   -2.1713   11.4818    0.1290 H   0  0  0  0  0  0  0  0  0  0  0  0
   -0.6747   10.3560    1.6555 H   0  0  0  0  0  0  0  0  0  0  0  0
   -0.3525    9.0481    0.4969 H   0  0  0  0  0  0  0  0  0  0  0  0
    1.4242   11.2021    1.1073 H   0  0  0  0  0  0  0  0  0  0  0  0
    1.5947   10.1482   -0.2941 H   0  0  0  0  0  0  0  0  0  0  0  0
    0.1668   12.7921    1.3293 H   0  0  0  0  0  0  0  0  0  0  0  0
    0.6434   14.0358    0.1240 H   0  0  0  0  0  0  0  0  0  0  0  0
   -1.0286   13.3794    0.1240 H   0  0  0  0  0  0  0  0  0  0  0  0
    1.8497   11.5970   -2.2182 H   0  0  0  0  0  0  0  0  0  0  0  0
    2.9955   12.5731   -0.1251 H   0  0  0  0  0  0  0  0  0  0  0  0
    3.6244   12.9429   -1.8157 H   0  0  0  0  0  0  0  0  0  0  0  0
    3.5711   14.9619   -0.1259 H   0  0  0  0  0  0  0  0  0  0  0  0
   -0.1074   14.9903   -1.7874 H   0  0  0  0  0  0  0  0  0  0  0  0
    1.7571   15.9652   -4.0394 H   0  0  0  0  0  0  0  0  0  0  0  0
   -0.0456   15.7377   -4.1355 H   0  0  0  0  0  0  0  0  0  0  0  0
    0.5864   18.1161   -3.8815 H   0  0  0  0  0  0  0  0  0  0  0  0
   -0.3855   17.4907   -2.4920 H   0  0  0  0  0  0  0  0  0  0  0  0
    1.3962   18.8495   -1.6355 H   0  0  0  0  0  0  0  0  0  0  0  0
    2.8910   17.2800   -3.4660 H   0  0  0  0  0  0  0  0  0  0  0  0
    0.9343   17.0199    1.1555 H   0  0  0  0  0  0  0  0  0  0  0  0
    0.1115   18.0245   -0.0857 H   0  0  0  0  0  0  0  0  0  0  0  0
   -0.1050   16.2414   -0.0857 H   0  0  0  0  0  0  0  0  0  0  0  0
    2.8382   17.2906    1.0697 H   0  0  0  0  0  0  0  0  0  0  0  0
    3.9270   16.7412   -0.2491 H   0  0  0  0  0  0  0  0  0  0  0  0
    3.2934   18.4221   -0.2491 H   0  0  0  0  0  0  0  0  0  0  0  0
    2.9830   13.3207   -3.6631 H   0  0  0  0  0  0  0  0  0  0  0  0
    1.7064   12.5262   -4.6458 H   0  0  0  0  0  0  0  0  0  0  0  0
    1.8561   14.3162   -4.6458 H   0  0  0  0  0  0  0  0  0  0  0  0
   -0.9306   13.8890   -3.8096 H   0  0  0  0  0  0  0  0  0  0  0  0
   -0.2139   12.1992   -4.0641 H   0  0  0  0  0  0  0  0  0  0  0  0
   -1.7664   13.2070   -1.6643 H   0  0  0  0  0  0  0  0  0  0  0  0
   -2.2402   11.9419   -2.8657 H   0  0  0  0  0  0  0  0  0  0  0  0
    0.0597    9.3142   -1.8563 H   0  0  0  0  0  0  0  0  0  0  0  0
   -1.1186    9.8910   -3.0834 H   0  0  0  0  0  0  0  0  0  0  0  0
    0.5617   10.5262   -3.0834 H   0  0  0  0  0  0  0  0  0  0  0  0
  1  2  1  0
  2  3  1  0
  3  4  1  0
  4  5  1  0
  5  6  1  0
  6  7  1  0
  7  8  1  0
  7  9  1  0
  2 10  1  0
 10 11  1  0
 11 12  1  0
 12 13  1  0
 13 14  1  1
 13 15  1  0
 15 16  1  0
 16 17  1  0
 17 18  2  0
 18 19  1  0
 19 20  1  0
 20 21  1  0
 21 22  1  0
 22 23  1  0
 22 24  1  0
 24 25  1  0
 24 26  1  0
 19 27  1  0
 27 28  1  6
 27 29  1  0
 29 30  1  0
 30 31  1  0
 31 32  1  6
  7  5  1  0
 31 10  1  0
 31 13  1  0
 27 15  1  0
 24 18  1  0
  1 33  1  0
  1 34  1  0
  1 35  1  0
  2 36  1  6
  3 37  1  0
  3 38  1  0
  4 39  1  0
  4 40  1  0
  5 41  1  1
  8 42  1  0
  8 43  1  0
  8 44  1  0
  9 45  1  0
  9 46  1  0
  9 47  1  0
 10 48  1  1
 11 49  1  0
 11 50  1  0
 12 51  1  0
 12 52  1  0
 14 53  1  0
 14 54  1  0
 14 55  1  0
 15 56  1  6
 16 57  1  0
 16 58  1  0
 17 59  1  0
 19 60  1  1
 20 61  1  0
 20 62  1  0
 21 63  1  0
 21 64  1  0
 22 65  1  1
 23 66  1  0
 25 67  1  0
 25 68  1  0
 25 69  1  0
 26 70  1  0
 26 71  1  0
 26 72  1  0
 28 73  1  0
 28 74  1  0
 28 75  1  0
 29 76  1  0
 29 77  1  0
 30 78  1  0
 30 79  1  0
 32 80  1  0
 32 81  1  0
 32 82  1  0
M  END
>  <meeko>  (5) 
{"is_sidechain": [false], "intermolecular_energy": 2.731, "internal_energy": -0.839}

$$$$
EPH_relaxed_0001_pdb2pqr_Repair_120_r2_0001_out
     RDKit          3D

 82 86  0  0  0  0  0  0  0  0999 V2000
    3.8330   17.4020    0.4900 C   0  0  0  0  0  0  0  0  0  0  0  0
    2.8680   17.6890   -0.6640 C   0  0  2  0  0  0  0  0  0  0  0  0
    2.2430   19.0950   -0.5620 C   0  0  0  0  0  0  0  0  0  0  0  0
    1.3960   19.3020    0.6960 C   0  0  0  0  0  0  0  0  0  0  0  0
    0.1160   20.0200    0.3910 C   0  0  2  0  0  0  0  0  0  0  0  0
   -0.7590   20.1870    1.5140 O   0  0  0  0  0  0  0  0  0  0  0  0
   -1.2480   19.3590    0.4460 C   0  0  0  0  0  0  0  0  0  0  0  0
   -1.4010   17.9170    0.8160 C   0  0  0  0  0  0  0  0  0  0  0  0
   -2.3730   19.9730   -0.3270 C   0  0  0  0  0  0  0  0  0  0  0  0
    1.7700   16.6330   -0.7000 C   0  0  1  0  0  0  0  0  0  0  0  0
    0.4510   17.1630   -1.3230 C   0  0  0  0  0  0  0  0  0  0  0  0
   -0.1860   15.9780   -2.0950 C   0  0  0  0  0  0  0  0  0  0  0  0
    0.6020   14.7350   -1.6200 C   0  0  1  0  0  0  0  0  0  0  0  0
   -0.0400   14.3520   -0.2500 C   0  0  0  0  0  0  0  0  0  0  0  0
    0.6320   13.5190   -2.6040 C   0  0  2  0  0  0  0  0  0  0  0  0
   -0.7390   12.8920   -2.9080 C   0  0  0  0  0  0  0  0  0  0  0  0
   -1.1510   11.7840   -1.9960 C   0  0  0  0  0  0  0  0  0  0  0  0
   -0.3360   11.1200   -1.1550 C   0  0  0  0  0  0  0  0  0  0  0  0
    1.1720   11.4000   -1.1340 C   0  0  1  0  0  0  0  0  0  0  0  0
    1.9480   10.0570   -1.1370 C   0  0  0  0  0  0  0  0  0  0  0  0
    1.5120    9.1270   -0.0090 C   0  0  0  0  0  0  0  0  0  0  0  0
    0.0180    8.8260   -0.0980 C   0  0  2  0  0  0  0  0  0  0  0  0
   -0.2280    8.0570   -1.2790 O   0  0  0  0  0  0  0  0  0  0  0  0
   -0.8650   10.1050   -0.1130 C   0  0  0  0  0  0  0  0  0  0  0  0
   -0.8310   10.7770    1.2820 C   0  0  0  0  0  0  0  0  0  0  0  0
   -2.3360    9.6660   -0.3470 C   0  0  0  0  0  0  0  0  0  0  0  0
    1.7040   12.4150   -2.2360 C   0  0  1  0  0  0  0  0  0  0  0  0
    2.0230   11.6480   -3.5560 C   0  0  0  0  0  0  0  0  0  0  0  0
    3.0630   13.0400   -1.7460 C   0  0  0  0  0  0  0  0  0  0  0  0
    2.9710   14.3090   -0.8760 C   0  0  0  0  0  0  0  0  0  0  0  0
    2.0460   15.3470   -1.5180 C   0  0  2  0  0  0  0  0  0  0  0  0
    2.6780   15.7680   -2.8890 C   0  0  0  0  0  0  0  0  0  0  0  0
    3.3150   17.5561    1.4481 H   0  0  0  0  0  0  0  0  0  0  0  0
    4.1825   16.3610    0.4254 H   0  0  0  0  0  0  0  0  0  0  0  0
    4.6946   18.0828    0.4254 H   0  0  0  0  0  0  0  0  0  0  0  0
    3.4492   17.6522   -1.5972 H   0  0  0  0  0  0  0  0  0  0  0  0
    3.0553   19.8368   -0.5597 H   0  0  0  0  0  0  0  0  0  0  0  0
    1.5708   19.2114   -1.4249 H   0  0  0  0  0  0  0  0  0  0  0  0
    1.1588   18.3201    1.1316 H   0  0  0  0  0  0  0  0  0  0  0  0
    1.9743   19.9170    1.4012 H   0  0  0  0  0  0  0  0  0  0  0  0
    0.6121   20.6239   -0.3830 H   0  0  0  0  0  0  0  0  0  0  0  0
   -1.4114   17.8187    1.9115 H   0  0  0  0  0  0  0  0  0  0  0  0
   -2.3451   17.5310    0.4042 H   0  0  0  0  0  0  0  0  0  0  0  0
   -0.5589   17.3414    0.4042 H   0  0  0  0  0  0  0  0  0  0  0  0
   -3.1188   20.3800    0.3717 H   0  0  0  0  0  0  0  0  0  0  0  0
   -1.9833   20.7835   -0.9604 H   0  0  0  0  0  0  0  0  0  0  0  0
   -2.8438   19.2067   -0.9604 H   0  0  0  0  0  0  0  0  0  0  0  0
    1.7122   16.3914    0.3716 H   0  0  0  0  0  0  0  0  0  0  0  0
   -0.2297   17.5092   -0.5313 H   0  0  0  0  0  0  0  0  0  0  0  0
    0.6442   18.0134   -1.9935 H   0  0  0  0  0  0  0  0  0  0  0  0
   -1.2528   15.8804   -1.8453 H   0  0  0  0  0  0  0  0  0  0  0  0
   -0.1336   16.1138   -3.1853 H   0  0  0  0  0  0  0  0  0  0  0  0
    0.5910   14.7284    0.5686 H   0  0  0  0  0  0  0  0  0  0  0  0
   -1.0419   14.8001   -0.1765 H   0  0  0  0  0  0  0  0  0  0  0  0
   -0.1216   13.2575   -0.1765 H   0  0  0  0  0  0  0  0  0  0  0  0
    0.9623   13.9840   -3.5446 H   0  0  0  0  0  0  0  0  0  0  0  0
   -1.4976   13.6858   -2.8424 H   0  0  0  0  0  0  0  0  0  0  0  0
   -0.6535   12.4453   -3.9095 H   0  0  0  0  0  0  0  0  0  0  0  0
   -2.2095   11.4851   -2.0126 H   0  0  0  0  0  0  0  0  0  0  0  0
    1.3679   11.9420   -0.1970 H   0  0  0  0  0  0  0  0  0  0  0  0
    1.7738    9.5513   -2.0982 H   0  0  0  0  0  0  0  0  0  0  0  0
    3.0133   10.2866   -0.9875 H   0  0  0  0  0  0  0  0  0  0  0  0
    2.0743    8.1844   -0.0817 H   0  0  0  0  0  0  0  0  0  0  0  0
    1.7142    9.6217    0.9524 H   0  0  0  0  0  0  0  0  0  0  0  0
   -0.2597    8.2644    0.8062 H   0  0  0  0  0  0  0  0  0  0  0  0
    0.0690    8.5850   -2.0400 H   0  0  0  0  0  0  0  0  0  0  0  0
   -0.8702   10.0032    2.0628 H   0  0  0  0  0  0  0  0  0  0  0  0
    0.0976   11.3572    1.3870 H   0  0  0  0  0  0  0  0  0  0  0  0
   -1.6963   11.4479    1.3870 H   0  0  0  0  0  0  0  0  0  0  0  0
   -2.8331    9.5177    0.6230 H   0  0  0  0  0  0  0  0  0  0  0  0
   -2.8653   10.4453   -0.9149 H   0  0  0  0  0  0  0  0  0  0  0  0
   -2.3516    8.7241   -0.9149 H   0  0  0  0  0  0  0  0  0  0  0  0
    2.4351   10.6572   -3.3139 H   0  0  0  0  0  0  0  0  0  0  0  0
    1.1002   11.5280   -4.1425 H   0  0  0  0  0  0  0  0  0  0  0  0
    2.7587   12.2178   -4.1425 H   0  0  0  0  0  0  0  0  0  0  0  0
    3.5901   12.2725   -1.1602 H   0  0  0  0  0  0  0  0  0  0  0  0
    3.5811   13.3569   -2.6631 H   0  0  0  0  0  0  0  0  0  0  0  0
    2.5761   14.0386    0.1144 H   0  0  0  0  0  0  0  0  0  0  0  0
    3.9768   14.7447   -0.7833 H   0  0  0  0  0  0  0  0  0  0  0  0
    3.5809   16.3695   -2.7072 H   0  0  0  0  0  0  0  0  0  0  0  0
    2.9463   14.8675   -3.4610 H   0  0  0  0  0  0  0  0  0  0  0  0
    1.9504   16.3625   -3.4610 H   0  0  0  0  0  0  0  0  0  0  0  0
  1  2  1  0
  2  3  1  0
  3  4  1  0
  4  5  1  0
  5  6  1  0
  6  7  1  0
  7  8  1  0
  7  9  1  0
  2 10  1  0
 10 11  1  0
 11 12  1  0
 12 13  1  0
 13 14  1  1
 13 15  1  0
 15 16  1  0
 16 17  1  0
 17 18  2  0
 18 19  1  0
 19 20  1  0
 20 21  1  0
 21 22  1  0
 22 23  1  0
 22 24  1  0
 24 25  1  0
 24 26  1  0
 19 27  1  0
 27 28  1  6
 27 29  1  0
 29 30  1  0
 30 31  1  0
 31 32  1  6
  7  5  1  0
 31 10  1  0
 31 13  1  0
 27 15  1  0
 24 18  1  0
  1 33  1  0
  1 34  1  0
  1 35  1  0
  2 36  1  6
  3 37  1  0
  3 38  1  0
  4 39  1  0
  4 40  1  0
  5 41  1  6
  8 42  1  0
  8 43  1  0
  8 44  1  0
  9 45  1  0
  9 46  1  0
  9 47  1  0
 10 48  1  1
 11 49  1  0
 11 50  1  0
 12 51  1  0
 12 52  1  0
 14 53  1  0
 14 54  1  0
 14 55  1  0
 15 56  1  6
 16 57  1  0
 16 58  1  0
 17 59  1  0
 19 60  1  1
 20 61  1  0
 20 62  1  0
 21 63  1  0
 21 64  1  0
 22 65  1  1
 23 66  1  0
 25 67  1  0
 25 68  1  0
 25 69  1  0
 26 70  1  0
 26 71  1  0
 26 72  1  0
 28 73  1  0
 28 74  1  0
 28 75  1  0
 29 76  1  0
 29 77  1  0
 30 78  1  0
 30 79  1  0
 32 80  1  0
 32 81  1  0
 32 82  1  0
M  END
>  <meeko>  (6) 
{"is_sidechain": [false], "intermolecular_energy": 2.731, "internal_energy": -0.839}

$$$$
EPH_relaxed_0001_pdb2pqr_Repair_120_r2_0001_out
     RDKit          3D

 82 86  0  0  0  0  0  0  0  0999 V2000
   -5.1720    5.8120   -1.6930 C   0  0  0  0  0  0  0  0  0  0  0  0
   -5.4580    7.3150   -1.7520 C   0  0  2  0  0  0  0  0  0  0  0  0
   -5.2330    8.0030   -0.3910 C   0  0  0  0  0  0  0  0  0  0  0  0
   -4.1840    9.1180   -0.4310 C   0  0  0  0  0  0  0  0  0  0  0  0
   -2.8290    8.5900   -0.7920 C   0  0  2  0  0  0  0  0  0  0  0  0
   -1.7960    8.8960    0.1540 O   0  0  0  0  0  0  0  0  0  0  0  0
   -1.6530    9.4800   -1.1510 C   0  0  0  0  0  0  0  0  0  0  0  0
   -1.7790   10.9710   -1.1670 C   0  0  0  0  0  0  0  0  0  0  0  0
   -0.5320    8.8960   -1.9530 C   0  0  0  0  0  0  0  0  0  0  0  0
   -6.8870    7.5530   -2.2270 C   0  0  1  0  0  0  0  0  0  0  0  0
   -7.1900    6.8590   -3.5820 C   0  0  0  0  0  0  0  0  0  0  0  0
   -8.6690    6.3980   -3.5270 C   0  0  0  0  0  0  0  0  0  0  0  0
   -9.2590    7.1260   -2.2960 C   0  0  1  0  0  0  0  0  0  0  0  0
   -9.5940    8.5640   -2.8030 C   0  0  0  0  0  0  0  0  0  0  0  0
  -10.4960    6.4490   -1.6210 C   0  0  2  0  0  0  0  0  0  0  0  0
  -11.7450    6.3340   -2.5130 C   0  0  0  0  0  0  0  0  0  0  0  0
  -12.6900    7.4870   -2.4400 C   0  0  0  0  0  0  0  0  0  0  0  0
  -12.6920    8.4370   -1.4860 C   0  0  0  0  0  0  0  0  0  0  0  0
  -11.7370    8.3530   -0.2880 C   0  0  1  0  0  0  0  0  0  0  0  0
  -12.5210    8.6400    1.0200 C   0  0  0  0  0  0  0  0  0  0  0  0
  -13.2790    9.9630    0.9690 C   0  0  0  0  0  0  0  0  0  0  0  0
  -14.2600    9.9850   -0.2000 C   0  0  2  0  0  0  0  0  0  0  0  0
  -15.2870    9.0200    0.0420 O   0  0  0  0  0  0  0  0  0  0  0  0
  -13.5850    9.6990   -1.5710 C   0  0  0  0  0  0  0  0  0  0  0  0
  -12.6940   10.9000   -1.9730 C   0  0  0  0  0  0  0  0  0  0  0  0
  -14.7040    9.6110   -2.6440 C   0  0  0  0  0  0  0  0  0  0  0  0
  -10.8570    7.0330   -0.1950 C   0  0  1  0  0  0  0  0  0  0  0  0
  -11.6460    5.9180    0.5560 C   0  0  0  0  0  0  0  0  0  0  0  0
   -9.5760    7.3300    0.6710 C   0  0  0  0  0  0  0  0  0  0  0  0
   -8.3470    7.8850   -0.0740 C   0  0  0  0  0  0  0  0  0  0  0  0
   -8.0330    7.0460   -1.3160 C   0  0  2  0  0  0  0  0  0  0  0  0
   -7.6700    5.5990   -0.8360 C   0  0  0  0  0  0  0  0  0  0  0  0
   -5.1110    5.4913   -0.6425 H   0  0  0  0  0  0  0  0  0  0  0  0
   -5.9821    5.2645   -2.1970 H   0  0  0  0  0  0  0  0  0  0  0  0
   -4.2175    5.6003   -2.1970 H   0  0  0  0  0  0  0  0  0  0  0  0
   -4.7496    7.7594   -2.4666 H   0  0  0  0  0  0  0  0  0  0  0  0
   -6.1879    8.4363   -0.0588 H   0  0  0  0  0  0  0  0  0  0  0  0
   -4.8583    7.2336    0.3002 H   0  0  0  0  0  0  0  0  0  0  0  0
   -4.4864    9.8656   -1.1791 H   0  0  0  0  0  0  0  0  0  0  0  0
   -4.1217    9.5670    0.5713 H   0  0  0  0  0  0  0  0  0  0  0  0
   -3.2757    7.7191   -1.2941 H   0  0  0  0  0  0  0  0  0  0  0  0
   -1.8108   11.3474   -0.1339 H   0  0  0  0  0  0  0  0  0  0  0  0
   -0.9145   11.4065   -1.6894 H   0  0  0  0  0  0  0  0  0  0  0  0
   -2.7044   11.2552   -1.6894 H   0  0  0  0  0  0  0  0  0  0  0  0
    0.2353    8.4962   -1.2737 H   0  0  0  0  0  0  0  0  0  0  0  0
   -0.9188    8.0848   -2.5873 H   0  0  0  0  0  0  0  0  0  0  0  0
   -0.0888    9.6778   -2.5873 H   0  0  0  0  0  0  0  0  0  0  0  0
   -6.8899    8.6525   -2.2585 H   0  0  0  0  0  0  0  0  0  0  0  0
   -7.0444    7.5670   -4.4112 H   0  0  0  0  0  0  0  0  0  0  0  0
   -6.5161    6.0057   -3.7483 H   0  0  0  0  0  0  0  0  0  0  0  0
   -9.2015    6.6913   -4.4437 H   0  0  0  0  0  0  0  0  0  0  0  0
   -8.7626    5.3047   -3.4497 H   0  0  0  0  0  0  0  0  0  0  0  0
   -9.7491    9.2298   -1.9412 H   0  0  0  0  0  0  0  0  0  0  0  0
   -8.7598    8.9415   -3.4125 H   0  0  0  0  0  0  0  0  0  0  0  0
  -10.5092    8.5340   -3.4125 H   0  0  0  0  0  0  0  0  0  0  0  0
  -10.1441    5.4186   -1.4647 H   0  0  0  0  0  0  0  0  0  0  0  0
  -11.4097    6.2351   -3.5560 H   0  0  0  0  0  0  0  0  0  0  0  0
  -12.3024    5.4604   -2.1442 H   0  0  0  0  0  0  0  0  0  0  0  0
  -13.4487    7.5673   -3.2324 H   0  0  0  0  0  0  0  0  0  0  0  0
  -10.9787    9.1338   -0.4474 H   0  0  0  0  0  0  0  0  0  0  0  0
  -13.2426    7.8262    1.1844 H   0  0  0  0  0  0  0  0  0  0  0  0
  -11.7905    8.7049    1.8399 H   0  0  0  0  0  0  0  0  0  0  0  0
  -13.8356   10.0954    1.9085 H   0  0  0  0  0  0  0  0  0  0  0  0
  -12.5532   10.7784    0.8336 H   0  0  0  0  0  0  0  0  0  0  0  0
  -14.6773   11.0009   -0.2620 H   0  0  0  0  0  0  0  0  0  0  0  0
  -15.1640    8.6780    0.9440 H   0  0  0  0  0  0  0  0  0  0  0  0
  -12.3226   11.4006   -1.0667 H   0  0  0  0  0  0  0  0  0  0  0  0
  -11.8419   10.5411   -2.5690 H   0  0  0  0  0  0  0  0  0  0  0  0
  -13.2845   11.6114   -2.5690 H   0  0  0  0  0  0  0  0  0  0  0  0
  -15.6827    9.5340   -2.1477 H   0  0  0  0  0  0  0  0  0  0  0  0
  -14.6814   10.5137   -3.2722 H   0  0  0  0  0  0  0  0  0  0  0  0
  -14.5406    8.7229   -3.2722 H   0  0  0  0  0  0  0  0  0  0  0  0
  -11.5430    6.0636    1.6414 H   0  0  0  0  0  0  0  0  0  0  0  0
  -12.7091    5.9706    0.2783 H   0  0  0  0  0  0  0  0  0  0  0  0
  -11.2428    4.9330    0.2783 H   0  0  0  0  0  0  0  0  0  0  0  0
   -9.8576    8.0634    1.4409 H   0  0  0  0  0  0  0  0  0  0  0  0
   -9.2587    6.3514    1.0604 H   0  0  0  0  0  0  0  0  0  0  0  0
   -8.5507    8.9212   -0.3819 H   0  0  0  0  0  0  0  0  0  0  0  0
   -7.4805    7.8473    0.6026 H   0  0  0  0  0  0  0  0  0  0  0  0
   -7.6624    5.5686    0.2636 H   0  0  0  0  0  0  0  0  0  0  0  0
   -8.4176    4.8879   -1.2173 H   0  0  0  0  0  0  0  0  0  0  0  0
   -6.6753    5.3249   -1.2173 H   0  0  0  0  0  0  0  0  0  0  0  0
  1  2  1  0
  2  3  1  0
  3  4  1  0
  4  5  1  0
  5  6  1  0
  6  7  1  0
  7  8  1  0
  7  9  1  0
  2 10  1  0
 10 11  1  0
 11 12  1  0
 12 13  1  0
 13 14  1  6
 13 15  1  0
 15 16  1  0
 16 17  1  0
 17 18  2  0
 18 19  1  0
 19 20  1  0
 20 21  1  0
 21 22  1  0
 22 23  1  0
 22 24  1  0
 24 25  1  0
 24 26  1  0
 19 27  1  0
 27 28  1  1
 27 29  1  0
 29 30  1  0
 30 31  1  0
 31 32  1  1
  7  5  1  0
 31 10  1  0
 31 13  1  0
 27 15  1  0
 24 18  1  0
  1 33  1  0
  1 34  1  0
  1 35  1  0
  2 36  1  6
  3 37  1  0
  3 38  1  0
  4 39  1  0
  4 40  1  0
  5 41  1  6
  8 42  1  0
  8 43  1  0
  8 44  1  0
  9 45  1  0
  9 46  1  0
  9 47  1  0
 10 48  1  6
 11 49  1  0
 11 50  1  0
 12 51  1  0
 12 52  1  0
 14 53  1  0
 14 54  1  0
 14 55  1  0
 15 56  1  1
 16 57  1  0
 16 58  1  0
 17 59  1  0
 19 60  1  6
 20 61  1  0
 20 62  1  0
 21 63  1  0
 21 64  1  0
 22 65  1  6
 23 66  1  0
 25 67  1  0
 25 68  1  0
 25 69  1  0
 26 70  1  0
 26 71  1  0
 26 72  1  0
 28 73  1  0
 28 74  1  0
 28 75  1  0
 29 76  1  0
 29 77  1  0
 30 78  1  0
 30 79  1  0
 32 80  1  0
 32 81  1  0
 32 82  1  0
M  END
>  <meeko>  (7) 
{"is_sidechain": [false], "intermolecular_energy": 2.731, "internal_energy": -0.839}

$$$$
EPH_relaxed_0001_pdb2pqr_Repair_120_r2_0001_out
     RDKit          3D

 82 86  0  0  0  0  0  0  0  0999 V2000
    0.4100    8.7890   -2.3550 C   0  0  0  0  0  0  0  0  0  0  0  0
    1.1520    9.9290   -3.0580 C   0  0  2  0  0  0  0  0  0  0  0  0
    2.6540    9.9470   -2.7100 C   0  0  0  0  0  0  0  0  0  0  0  0
    3.5360   10.5270   -3.8180 C   0  0  0  0  0  0  0  0  0  0  0  0
    4.9280   10.7980   -3.3340 C   0  0  2  0  0  0  0  0  0  0  0  0
    5.5080   12.0130   -3.8280 O   0  0  0  0  0  0  0  0  0  0  0  0
    6.1450   10.7930   -4.2400 C   0  0  0  0  0  0  0  0  0  0  0  0
    6.0270   10.5090   -5.7040 C   0  0  0  0  0  0  0  0  0  0  0  0
    7.4940   10.5810   -3.6250 C   0  0  0  0  0  0  0  0  0  0  0  0
    0.5170   11.2650   -2.6930 C   0  0  1  0  0  0  0  0  0  0  0  0
   -0.8580   11.1020   -1.9930 C   0  0  0  0  0  0  0  0  0  0  0  0
   -0.9690   12.2450   -0.9520 C   0  0  0  0  0  0  0  0  0  0  0  0
    0.1820   13.2140   -1.3130 C   0  0  1  0  0  0  0  0  0  0  0  0
   -0.3700   14.0680   -2.4960 C   0  0  0  0  0  0  0  0  0  0  0  0
    0.7180   14.1140   -0.1520 C   0  0  2  0  0  0  0  0  0  0  0  0
   -0.3090   15.0940    0.4410 C   0  0  0  0  0  0  0  0  0  0  0  0
   -0.3520   16.4400   -0.2050 C   0  0  0  0  0  0  0  0  0  0  0  0
    0.5880   16.9440   -1.0260 C   0  0  0  0  0  0  0  0  0  0  0  0
    1.8870   16.1760   -1.3010 C   0  0  1  0  0  0  0  0  0  0  0  0
    3.0950   17.1410   -1.1790 C   0  0  0  0  0  0  0  0  0  0  0  0
    2.9490   18.3760   -2.0620 C   0  0  0  0  0  0  0  0  0  0  0  0
    1.6760   19.1450   -1.7180 C   0  0  2  0  0  0  0  0  0  0  0  0
    1.8070   19.6880   -0.4010 O   0  0  0  0  0  0  0  0  0  0  0  0
    0.3930   18.2720   -1.7980 C   0  0  0  0  0  0  0  0  0  0  0  0
    0.0850   17.9330   -3.2780 C   0  0  0  0  0  0  0  0  0  0  0  0
   -0.8000   19.1280   -1.2920 C   0  0  0  0  0  0  0  0  0  0  0  0
    2.0890   14.8360   -0.4710 C   0  0  1  0  0  0  0  0  0  0  0  0
    2.7540   15.1560    0.9020 C   0  0  0  0  0  0  0  0  0  0  0  0
    3.0930   13.8990   -1.2430 C   0  0  0  0  0  0  0  0  0  0  0  0
    2.4880   12.9480   -2.2930 C   0  0  0  0  0  0  0  0  0  0  0  0
    1.2960   12.1800   -1.7150 C   0  0  2  0  0  0  0  0  0  0  0  0
    1.8240   11.2940   -0.5360 C   0  0  0  0  0  0  0  0  0  0  0  0
    0.4921    8.9151   -1.2653 H   0  0  0  0  0  0  0  0  0  0  0  0
   -0.6503    8.8064   -2.6473 H   0  0  0  0  0  0  0  0  0  0  0  0
    0.8552    7.8265   -2.6473 H   0  0  0  0  0  0  0  0  0  0  0  0
    1.0667    9.7602   -4.1416 H   0  0  0  0  0  0  0  0  0  0  0  0
    2.7929   10.5532   -1.8027 H   0  0  0  0  0  0  0  0  0  0  0  0
    2.9633    8.9010   -2.5678 H   0  0  0  0  0  0  0  0  0  0  0  0
    3.5814    9.8089   -4.6500 H   0  0  0  0  0  0  0  0  0  0  0  0
    3.0946   11.4805   -4.1436 H   0  0  0  0  0  0  0  0  0  0  0  0
    4.7181   10.2966   -2.3777 H   0  0  0  0  0  0  0  0  0  0  0  0
    5.6087    9.5021   -5.8496 H   0  0  0  0  0  0  0  0  0  0  0  0
    5.3634   11.2526   -6.1694 H   0  0  0  0  0  0  0  0  0  0  0  0
    7.0222   10.5634   -6.1694 H   0  0  0  0  0  0  0  0  0  0  0  0
    7.4036   10.5952   -2.5288 H   0  0  0  0  0  0  0  0  0  0  0  0
    7.8952    9.6088   -3.9472 H   0  0  0  0  0  0  0  0  0  0  0  0
    8.1741   11.3833   -3.9472 H   0  0  0  0  0  0  0  0  0  0  0  0
    0.4776   11.7280   -3.6900 H   0  0  0  0  0  0  0  0  0  0  0  0
   -1.6702   11.1814   -2.7306 H   0  0  0  0  0  0  0  0  0  0  0  0
   -0.9401   10.1178   -1.5087 H   0  0  0  0  0  0  0  0  0  0  0  0
   -1.9424   12.7509   -1.0329 H   0  0  0  0  0  0  0  0  0  0  0  0
   -0.8956   11.8765    0.0819 H   0  0  0  0  0  0  0  0  0  0  0  0
   -0.9267   14.9292   -2.0980 H   0  0  0  0  0  0  0  0  0  0  0  0
    0.4680   14.4260   -3.1121 H   0  0  0  0  0  0  0  0  0  0  0  0
   -1.0406   13.4509   -3.1121 H   0  0  0  0  0  0  0  0  0  0  0  0
    0.9219   13.3792    0.6407 H   0  0  0  0  0  0  0  0  0  0  0  0
   -1.3063   14.6396    0.3469 H   0  0  0  0  0  0  0  0  0  0  0  0
   -0.0001   15.2657    1.4827 H   0  0  0  0  0  0  0  0  0  0  0  0
   -1.2259   17.0730    0.0083 H   0  0  0  0  0  0  0  0  0  0  0  0
    1.8087   15.8058   -2.3339 H   0  0  0  0  0  0  0  0  0  0  0  0
    3.1830   17.4650   -0.1315 H   0  0  0  0  0  0  0  0  0  0  0  0
    3.9915   16.5971   -1.5115 H   0  0  0  0  0  0  0  0  0  0  0  0
    3.8184   19.0324   -1.9096 H   0  0  0  0  0  0  0  0  0  0  0  0
    2.8909   18.0523   -3.1117 H   0  0  0  0  0  0  0  0  0  0  0  0
    1.5599   19.9426   -2.4665 H   0  0  0  0  0  0  0  0  0  0  0  0
    1.3260   20.5330   -0.3820 H   0  0  0  0  0  0  0  0  0  0  0  0
   -0.6541   17.1195   -3.3217 H   0  0  0  0  0  0  0  0  0  0  0  0
   -0.3195   18.8234   -3.7816 H   0  0  0  0  0  0  0  0  0  0  0  0
    1.0100   17.6154   -3.7816 H   0  0  0  0  0  0  0  0  0  0  0  0
   -0.8071   19.1331   -0.1920 H   0  0  0  0  0  0  0  0  0  0  0  0
   -0.6953   20.1583   -1.6628 H   0  0  0  0  0  0  0  0  0  0  0  0
   -1.7425   18.6989   -1.6628 H   0  0  0  0  0  0  0  0  0  0  0  0
    2.0873   14.8352    1.7160 H   0  0  0  0  0  0  0  0  0  0  0  0
    3.7114   14.6200    0.9795 H   0  0  0  0  0  0  0  0  0  0  0  0
    2.9326   16.2386    0.9795 H   0  0  0  0  0  0  0  0  0  0  0  0
    3.8208   14.5435   -1.7578 H   0  0  0  0  0  0  0  0  0  0  0  0
    3.5231   13.2415   -0.4731 H   0  0  0  0  0  0  0  0  0  0  0  0
    2.1512   13.5361   -3.1594 H   0  0  0  0  0  0  0  0  0  0  0  0
    3.2586   12.2236   -2.5953 H   0  0  0  0  0  0  0  0  0  0  0  0
    1.5480   11.7571    0.4228 H   0  0  0  0  0  0  0  0  0  0  0  0
    1.3759   10.2916   -0.6014 H   0  0  0  0  0  0  0  0  0  0  0  0
    2.9189   11.2111   -0.6014 H   0  0  0  0  0  0  0  0  0  0  0  0
  1  2  1  0
  2  3  1  0
  3  4  1  0
  4  5  1  0
  5  6  1  0
  6  7  1  0
  7  8  1  0
  7  9  1  0
  2 10  1  0
 10 11  1  0
 11 12  1  0
 12 13  1  0
 13 14  1  6
 13 15  1  0
 15 16  1  0
 16 17  1  0
 17 18  2  0
 18 19  1  0
 19 20  1  0
 20 21  1  0
 21 22  1  0
 22 23  1  0
 22 24  1  0
 24 25  1  0
 24 26  1  0
 19 27  1  0
 27 28  1  1
 27 29  1  0
 29 30  1  0
 30 31  1  0
 31 32  1  1
  7  5  1  0
 31 10  1  0
 31 13  1  0
 27 15  1  0
 24 18  1  0
  1 33  1  0
  1 34  1  0
  1 35  1  0
  2 36  1  6
  3 37  1  0
  3 38  1  0
  4 39  1  0
  4 40  1  0
  5 41  1  1
  8 42  1  0
  8 43  1  0
  8 44  1  0
  9 45  1  0
  9 46  1  0
  9 47  1  0
 10 48  1  6
 11 49  1  0
 11 50  1  0
 12 51  1  0
 12 52  1  0
 14 53  1  0
 14 54  1  0
 14 55  1  0
 15 56  1  1
 16 57  1  0
 16 58  1  0
 17 59  1  0
 19 60  1  6
 20 61  1  0
 20 62  1  0
 21 63  1  0
 21 64  1  0
 22 65  1  6
 23 66  1  0
 25 67  1  0
 25 68  1  0
 25 69  1  0
 26 70  1  0
 26 71  1  0
 26 72  1  0
 28 73  1  0
 28 74  1  0
 28 75  1  0
 29 76  1  0
 29 77  1  0
 30 78  1  0
 30 79  1  0
 32 80  1  0
 32 81  1  0
 32 82  1  0
M  END
>  <meeko>  (8) 
{"is_sidechain": [false], "intermolecular_energy": 2.731, "internal_energy": -0.839}

$$$$
EPH_relaxed_0001_pdb2pqr_Repair_120_r2_0001_out
     RDKit          3D

 82 86  0  0  0  0  0  0  0  0999 V2000
   -0.8710   16.2940   -5.8970 C   0  0  0  0  0  0  0  0  0  0  0  0
    0.2220   15.5870   -6.7040 C   0  0  2  0  0  0  0  0  0  0  0  0
   -0.1560   15.4440   -8.1920 C   0  0  0  0  0  0  0  0  0  0  0  0
    0.5020   16.4890   -9.0970 C   0  0  0  0  0  0  0  0  0  0  0  0
    1.8980   16.0950   -9.4750 C   0  0  2  0  0  0  0  0  0  0  0  0
    2.3570   16.6400  -10.7190 O   0  0  0  0  0  0  0  0  0  0  0  0
    2.2250   15.2100  -10.6630 C   0  0  0  0  0  0  0  0  0  0  0  0
    1.1490   14.6640  -11.5490 C   0  0  0  0  0  0  0  0  0  0  0  0
    3.5330   14.4820  -10.6750 C   0  0  0  0  0  0  0  0  0  0  0  0
    0.5060   14.2150   -6.1040 C   0  0  1  0  0  0  0  0  0  0  0  0
    1.7020   13.5010   -6.7880 C   0  0  0  0  0  0  0  0  0  0  0  0
    2.4300   12.6920   -5.6830 C   0  0  0  0  0  0  0  0  0  0  0  0
    1.4520   12.6980   -4.4860 C   0  0  1  0  0  0  0  0  0  0  0  0
    0.4200   11.5720   -4.8060 C   0  0  0  0  0  0  0  0  0  0  0  0
    2.0900   12.5120   -3.0710 C   0  0  2  0  0  0  0  0  0  0  0  0
    2.8060   11.1680   -2.8500 C   0  0  0  0  0  0  0  0  0  0  0  0
    1.9530   10.0730   -2.3010 C   0  0  0  0  0  0  0  0  0  0  0  0
    0.7450   10.2340   -1.7310 C   0  0  0  0  0  0  0  0  0  0  0  0
    0.1600   11.6350   -1.5060 C   0  0  1  0  0  0  0  0  0  0  0  0
   -0.4070   11.7340   -0.0650 C   0  0  0  0  0  0  0  0  0  0  0  0
   -1.4090   10.6270    0.2470 C   0  0  0  0  0  0  0  0  0  0  0  0
   -0.7740    9.2500    0.0680 C   0  0  2  0  0  0  0  0  0  0  0  0
    0.2380    9.0760    1.0640 O   0  0  0  0  0  0  0  0  0  0  0  0
   -0.1590    9.0380   -1.3440 C   0  0  0  0  0  0  0  0  0  0  0  0
   -1.2920    8.9260   -2.3940 C   0  0  0  0  0  0  0  0  0  0  0  0
    0.5710    7.6680   -1.3460 C   0  0  0  0  0  0  0  0  0  0  0  0
    1.1160   12.8520   -1.8710 C   0  0  1  0  0  0  0  0  0  0  0  0
    2.0190   13.2030   -0.6490 C   0  0  0  0  0  0  0  0  0  0  0  0
    0.2380   14.1270   -2.1550 C   0  0  0  0  0  0  0  0  0  0  0  0
   -0.2630   14.3180   -3.5990 C   0  0  0  0  0  0  0  0  0  0  0  0
    0.8830   14.1600   -4.6030 C   0  0  2  0  0  0  0  0  0  0  0  0
    1.9260   15.2940   -4.3200 C   0  0  0  0  0  0  0  0  0  0  0  0
   -0.6738   16.1665   -4.8224 H   0  0  0  0  0  0  0  0  0  0  0  0
   -0.8743   17.3658   -6.1445 H   0  0  0  0  0  0  0  0  0  0  0  0
   -1.8499   15.8575   -6.1445 H   0  0  0  0  0  0  0  0  0  0  0  0
    1.1273   16.2097   -6.6519 H   0  0  0  0  0  0  0  0  0  0  0  0
    0.1519   14.4449   -8.5341 H   0  0  0  0  0  0  0  0  0  0  0  0
   -1.2432   15.5954   -8.2636 H   0  0  0  0  0  0  0  0  0  0  0  0
   -0.0983   16.5964  -10.0125 H   0  0  0  0  0  0  0  0  0  0  0  0
    0.5516   17.4388   -8.5443 H   0  0  0  0  0  0  0  0  0  0  0  0
    2.1971   16.0499   -8.4174 H   0  0  0  0  0  0  0  0  0  0  0  0
    0.3381   14.2525  -10.9301 H   0  0  0  0  0  0  0  0  0  0  0  0
    0.7527   15.4701  -12.1840 H   0  0  0  0  0  0  0  0  0  0  0  0
    1.5656   13.8682  -12.1840 H   0  0  0  0  0  0  0  0  0  0  0  0
    3.8606   14.2996   -9.6409 H   0  0  0  0  0  0  0  0  0  0  0  0
    3.4130   13.5209  -11.1965 H   0  0  0  0  0  0  0  0  0  0  0  0
    4.2865   15.0905  -11.1965 H   0  0  0  0  0  0  0  0  0  0  0  0
   -0.4719   13.7371   -6.2633 H   0  0  0  0  0  0  0  0  0  0  0  0
    1.3393   12.8247   -7.5761 H   0  0  0  0  0  0  0  0  0  0  0  0
    2.3806   14.2282   -7.2577 H   0  0  0  0  0  0  0  0  0  0  0  0
    2.6250   11.6632   -6.0198 H   0  0  0  0  0  0  0  0  0  0  0  0
    3.4076   13.1252   -5.4248 H   0  0  0  0  0  0  0  0  0  0  0  0
    0.0338   11.1507   -3.8661 H   0  0  0  0  0  0  0  0  0  0  0  0
   -0.4128   11.9927   -5.3887 H   0  0  0  0  0  0  0  0  0  0  0  0
    0.9115   10.7790   -5.3887 H   0  0  0  0  0  0  0  0  0  0  0  0
    2.8809   13.2764   -3.0664 H   0  0  0  0  0  0  0  0  0  0  0  0
    3.2069   10.8334   -3.8181 H   0  0  0  0  0  0  0  0  0  0  0  0
    3.5815   11.3576   -2.0933 H   0  0  0  0  0  0  0  0  0  0  0  0
    2.3453    9.0475   -2.3681 H   0  0  0  0  0  0  0  0  0  0  0  0
   -0.6553   11.7455   -2.2361 H   0  0  0  0  0  0  0  0  0  0  0  0
    0.4279   11.6650    0.6479 H   0  0  0  0  0  0  0  0  0  0  0  0
   -0.9344   12.6955    0.0208 H   0  0  0  0  0  0  0  0  0  0  0  0
   -1.7507   10.7334    1.2871 H   0  0  0  0  0  0  0  0  0  0  0  0
   -2.2574   10.7154   -0.4475 H   0  0  0  0  0  0  0  0  0  0  0  0
   -1.5727    8.5017    0.1782 H   0  0  0  0  0  0  0  0  0  0  0  0
    0.3010    8.1250    1.2570 H   0  0  0  0  0  0  0  0  0  0  0  0
   -2.2599    8.8303   -1.8802 H   0  0  0  0  0  0  0  0  0  0  0  0
   -1.2987    9.8279   -3.0238 H   0  0  0  0  0  0  0  0  0  0  0  0
   -1.1220    8.0403   -3.0238 H   0  0  0  0  0  0  0  0  0  0  0  0
    0.7441    7.3432   -0.3094 H   0  0  0  0  0  0  0  0  0  0  0  0
   -0.0495    6.9226   -1.8650 H   0  0  0  0  0  0  0  0  0  0  0  0
    1.5358    7.7673   -1.8650 H   0  0  0  0  0  0  0  0  0  0  0  0
    1.4739   12.9911    0.2826 H   0  0  0  0  0  0  0  0  0  0  0  0
    2.9354   12.5956   -0.6838 H   0  0  0  0  0  0  0  0  0  0  0  0
    2.2847   14.2699   -0.6838 H   0  0  0  0  0  0  0  0  0  0  0  0
   -0.6447   14.0756   -1.5006 H   0  0  0  0  0  0  0  0  0  0  0  0
    0.9032   14.9824   -1.9657 H   0  0  0  0  0  0  0  0  0  0  0  0
   -1.0360   13.5655   -3.8141 H   0  0  0  0  0  0  0  0  0  0  0  0
   -0.6759   15.3330   -3.6953 H   0  0  0  0  0  0  0  0  0  0  0  0
    2.0433   15.4215   -3.2337 H   0  0  0  0  0  0  0  0  0  0  0  0
    2.8946   15.0204   -4.7638 H   0  0  0  0  0  0  0  0  0  0  0  0
    1.5725   16.2364   -4.7638 H   0  0  0  0  0  0  0  0  0  0  0  0
  1  2  1  0
  2  3  1  0
  3  4  1  0
  4  5  1  0
  5  6  1  0
  6  7  1  0
  7  8  1  0
  7  9  1  0
  2 10  1  0
 10 11  1  0
 11 12  1  0
 12 13  1  0
 13 14  1  6
 13 15  1  0
 15 16  1  0
 16 17  1  0
 17 18  2  0
 18 19  1  0
 19 20  1  0
 20 21  1  0
 21 22  1  0
 22 23  1  0
 22 24  1  0
 24 25  1  0
 24 26  1  0
 19 27  1  0
 27 28  1  1
 27 29  1  0
 29 30  1  0
 30 31  1  0
 31 32  1  1
  7  5  1  0
 31 10  1  0
 31 13  1  0
 27 15  1  0
 24 18  1  0
  1 33  1  0
  1 34  1  0
  1 35  1  0
  2 36  1  6
  3 37  1  0
  3 38  1  0
  4 39  1  0
  4 40  1  0
  5 41  1  1
  8 42  1  0
  8 43  1  0
  8 44  1  0
  9 45  1  0
  9 46  1  0
  9 47  1  0
 10 48  1  1
 11 49  1  0
 11 50  1  0
 12 51  1  0
 12 52  1  0
 14 53  1  0
 14 54  1  0
 14 55  1  0
 15 56  1  6
 16 57  1  0
 16 58  1  0
 17 59  1  0
 19 60  1  6
 20 61  1  0
 20 62  1  0
 21 63  1  0
 21 64  1  0
 22 65  1  1
 23 66  1  0
 25 67  1  0
 25 68  1  0
 25 69  1  0
 26 70  1  0
 26 71  1  0
 26 72  1  0
 28 73  1  0
 28 74  1  0
 28 75  1  0
 29 76  1  0
 29 77  1  0
 30 78  1  0
 30 79  1  0
 32 80  1  0
 32 81  1  0
 32 82  1  0
M  END
>  <meeko>  (9) 
{"is_sidechain": [false], "intermolecular_energy": 2.731, "internal_energy": -0.839}

$$$$
EPH_relaxed_0001_pdb2pqr_Repair_120_r2_0001_out
     RDKit          3D

 82 86  0  0  0  0  0  0  0  0999 V2000
   -4.9630    8.6760   -0.5360 C   0  0  0  0  0  0  0  0  0  0  0  0
   -5.3210    7.5160   -1.4680 C   0  0  2  0  0  0  0  0  0  0  0  0
   -4.3230    7.3780   -2.6350 C   0  0  0  0  0  0  0  0  0  0  0  0
   -2.8560    7.4010   -2.1960 C   0  0  0  0  0  0  0  0  0  0  0  0
   -2.2440    8.7560   -2.3790 C   0  0  2  0  0  0  0  0  0  0  0  0
   -0.8500    8.7430   -2.7150 O   0  0  0  0  0  0  0  0  0  0  0  0
   -1.1920    9.3310   -1.4490 C   0  0  0  0  0  0  0  0  0  0  0  0
   -0.6920    8.5630   -0.2660 C   0  0  0  0  0  0  0  0  0  0  0  0
   -1.0100   10.8170   -1.4060 C   0  0  0  0  0  0  0  0  0  0  0  0
   -6.7340    7.7020   -2.0100 C   0  0  1  0  0  0  0  0  0  0  0  0
   -6.9430    7.0090   -3.3830 C   0  0  0  0  0  0  0  0  0  0  0  0
   -8.4040    6.4900   -3.4040 C   0  0  0  0  0  0  0  0  0  0  0  0
   -9.0810    7.1830   -2.1980 C   0  0  1  0  0  0  0  0  0  0  0  0
   -9.4480    8.6110   -2.7100 C   0  0  0  0  0  0  0  0  0  0  0  0
  -10.3220    6.4520   -1.5890 C   0  0  2  0  0  0  0  0  0  0  0  0
  -11.5200    6.2960   -2.5420 C   0  0  0  0  0  0  0  0  0  0  0  0
  -12.5120    7.4110   -2.5070 C   0  0  0  0  0  0  0  0  0  0  0  0
  -12.5980    8.3510   -1.5470 C   0  0  0  0  0  0  0  0  0  0  0  0
  -11.7000    8.2940   -0.3050 C   0  0  1  0  0  0  0  0  0  0  0  0
  -12.5570    8.5380    0.9650 C   0  0  0  0  0  0  0  0  0  0  0  0
  -13.3630    9.8310    0.8870 C   0  0  0  0  0  0  0  0  0  0  0  0
  -14.2860    9.8260   -0.3290 C   0  0  2  0  0  0  0  0  0  0  0  0
  -15.2860    8.8180   -0.1440 O   0  0  0  0  0  0  0  0  0  0  0  0
  -13.5360    9.5780   -1.6670 C   0  0  0  0  0  0  0  0  0  0  0  0
  -12.6740   10.8160   -2.0170 C   0  0  0  0  0  0  0  0  0  0  0  0
  -14.5970    9.4560   -2.7940 C   0  0  0  0  0  0  0  0  0  0  0  0
  -10.7730    7.0090   -0.1780 C   0  0  1  0  0  0  0  0  0  0  0  0
  -11.5540    5.8570    0.5260 C   0  0  0  0  0  0  0  0  0  0  0  0
   -9.5490    7.3480    0.7510 C   0  0  0  0  0  0  0  0  0  0  0  0
   -8.3080    7.9580    0.0710 C   0  0  0  0  0  0  0  0  0  0  0  0
   -7.9010    7.1420   -1.1600 C   0  0  2  0  0  0  0  0  0  0  0  0
   -7.5060    5.7060   -0.6730 C   0  0  0  0  0  0  0  0  0  0  0  0
   -5.0635    8.3504    0.5099 H   0  0  0  0  0  0  0  0  0  0  0  0
   -3.9259    8.9908   -0.7240 H   0  0  0  0  0  0  0  0  0  0  0  0
   -5.6423    9.5205   -0.7240 H   0  0  0  0  0  0  0  0  0  0  0  0
   -5.2677    6.5893   -0.8777 H   0  0  0  0  0  0  0  0  0  0  0  0
   -4.5173    6.4242   -3.1473 H   0  0  0  0  0  0  0  0  0  0  0  0
   -4.4755    8.2462   -3.2929 H   0  0  0  0  0  0  0  0  0  0  0  0
   -2.7976    7.1241   -1.1330 H   0  0  0  0  0  0  0  0  0  0  0  0
   -2.2999    6.6864   -2.8206 H   0  0  0  0  0  0  0  0  0  0  0  0
   -3.1944    9.1602   -2.7576 H   0  0  0  0  0  0  0  0  0  0  0  0
   -1.0168    9.0619    0.6590 H   0  0  0  0  0  0  0  0  0  0  0  0
   -1.0985    7.5412   -0.2937 H   0  0  0  0  0  0  0  0  0  0  0  0
    0.4069    8.5213   -0.2937 H   0  0  0  0  0  0  0  0  0  0  0  0
   -0.9691   11.1512   -0.3588 H   0  0  0  0  0  0  0  0  0  0  0  0
   -0.0721   11.0864   -1.9138 H   0  0  0  0  0  0  0  0  0  0  0  0
   -1.8551   11.3048   -1.9138 H   0  0  0  0  0  0  0  0  0  0  0  0
   -6.7794    8.8008   -2.0334 H   0  0  0  0  0  0  0  0  0  0  0  0
   -6.7852    7.7296   -4.1990 H   0  0  0  0  0  0  0  0  0  0  0  0
   -6.2287    6.1841   -3.5220 H   0  0  0  0  0  0  0  0  0  0  0  0
   -8.9025    6.7709   -4.3435 H   0  0  0  0  0  0  0  0  0  0  0  0
   -8.4583    5.3932   -3.3396 H   0  0  0  0  0  0  0  0  0  0  0  0
   -9.6189    9.2760   -1.8506 H   0  0  0  0  0  0  0  0  0  0  0  0
   -8.6220    9.0053   -3.3201 H   0  0  0  0  0  0  0  0  0  0  0  0
  -10.3618    8.5582   -3.3201 H   0  0  0  0  0  0  0  0  0  0  0  0
   -9.9394    5.4342   -1.4229 H   0  0  0  0  0  0  0  0  0  0  0  0
  -11.1305    6.2196   -3.5679 H   0  0  0  0  0  0  0  0  0  0  0  0
  -12.0598    5.3978   -2.2077 H   0  0  0  0  0  0  0  0  0  0  0  0
  -13.2334    7.4695   -3.3353 H   0  0  0  0  0  0  0  0  0  0  0  0
  -10.9667    9.1055   -0.4222 H   0  0  0  0  0  0  0  0  0  0  0  0
  -13.2532    7.6953    1.0879 H   0  0  0  0  0  0  0  0  0  0  0  0
  -11.8702    8.6236    1.8200 H   0  0  0  0  0  0  0  0  0  0  0  0
  -13.9696    9.9327    1.7990 H   0  0  0  0  0  0  0  0  0  0  0  0
  -12.6641   10.6753    0.7938 H   0  0  0  0  0  0  0  0  0  0  0  0
  -14.7381   10.8260   -0.4041 H   0  0  0  0  0  0  0  0  0  0  0  0
  -15.0060    8.2600    0.6010 H   0  0  0  0  0  0  0  0  0  0  0  0
  -12.3360   11.3015   -1.0896 H   0  0  0  0  0  0  0  0  0  0  0  0
  -11.7998   10.4997   -2.6050 H   0  0  0  0  0  0  0  0  0  0  0  0
  -13.2739   11.5262   -2.6050 H   0  0  0  0  0  0  0  0  0  0  0  0
  -15.5954    9.3412   -2.3468 H   0  0  0  0  0  0  0  0  0  0  0  0
  -14.5762   10.3625   -3.4168 H   0  0  0  0  0  0  0  0  0  0  0  0
  -14.3710    8.5779   -3.4168 H   0  0  0  0  0  0  0  0  0  0  0  0
  -11.4749    5.9736    1.6169 H   0  0  0  0  0  0  0  0  0  0  0  0
  -12.6124    5.8964    0.2288 H   0  0  0  0  0  0  0  0  0  0  0  0
  -11.1255    4.8885    0.2288 H   0  0  0  0  0  0  0  0  0  0  0  0
   -9.8965    8.0626    1.5117 H   0  0  0  0  0  0  0  0  0  0  0  0
   -9.2123    6.3790    1.1481 H   0  0  0  0  0  0  0  0  0  0  0  0
   -8.5376    8.9879   -0.2397 H   0  0  0  0  0  0  0  0  0  0  0  0
   -7.4746    7.9493    0.7889 H   0  0  0  0  0  0  0  0  0  0  0  0
   -7.4991    5.6808    0.4267 H   0  0  0  0  0  0  0  0  0  0  0  0
   -8.2368    4.9764   -1.0519 H   0  0  0  0  0  0  0  0  0  0  0  0
   -6.5048    5.4528   -1.0519 H   0  0  0  0  0  0  0  0  0  0  0  0
  1  2  1  0
  2  3  1  0
  3  4  1  0
  4  5  1  0
  5  6  1  0
  6  7  1  0
  7  8  1  0
  7  9  1  0
  2 10  1  0
 10 11  1  0
 11 12  1  0
 12 13  1  0
 13 14  1  6
 13 15  1  0
 15 16  1  0
 16 17  1  0
 17 18  2  0
 18 19  1  0
 19 20  1  0
 20 21  1  0
 21 22  1  0
 22 23  1  0
 22 24  1  0
 24 25  1  0
 24 26  1  0
 19 27  1  0
 27 28  1  1
 27 29  1  0
 29 30  1  0
 30 31  1  0
 31 32  1  1
  7  5  1  0
 31 10  1  0
 31 13  1  0
 27 15  1  0
 24 18  1  0
  1 33  1  0
  1 34  1  0
  1 35  1  0
  2 36  1  1
  3 37  1  0
  3 38  1  0
  4 39  1  0
  4 40  1  0
  5 41  1  6
  8 42  1  0
  8 43  1  0
  8 44  1  0
  9 45  1  0
  9 46  1  0
  9 47  1  0
 10 48  1  6
 11 49  1  0
 11 50  1  0
 12 51  1  0
 12 52  1  0
 14 53  1  0
 14 54  1  0
 14 55  1  0
 15 56  1  1
 16 57  1  0
 16 58  1  0
 17 59  1  0
 19 60  1  6
 20 61  1  0
 20 62  1  0
 21 63  1  0
 21 64  1  0
 22 65  1  6
 23 66  1  0
 25 67  1  0
 25 68  1  0
 25 69  1  0
 26 70  1  0
 26 71  1  0
 26 72  1  0
 28 73  1  0
 28 74  1  0
 28 75  1  0
 29 76  1  0
 29 77  1  0
 30 78  1  0
 30 79  1  0
 32 80  1  0
 32 81  1  0
 32 82  1  0
M  END
>  <meeko>  (10) 
{"is_sidechain": [false], "intermolecular_energy": 2.731, "internal_energy": -0.839}

$$$$
EPH_relaxed_0001_pdb2pqr_Repair_120_r2_0001_out
     RDKit          3D

 82 86  0  0  0  0  0  0  0  0999 V2000
    2.8860   18.9530   -2.0520 C   0  0  0  0  0  0  0  0  0  0  0  0
    1.6340   19.0070   -1.1720 C   0  0  2  0  0  0  0  0  0  0  0  0
    1.8210   19.9320    0.0470 C   0  0  0  0  0  0  0  0  0  0  0  0
    2.3120   19.2050    1.3020 C   0  0  0  0  0  0  0  0  0  0  0  0
    3.8020   19.2890    1.4440 C   0  0  2  0  0  0  0  0  0  0  0  0
    4.3810   18.2800    2.2820 O   0  0  0  0  0  0  0  0  0  0  0  0
    4.5000   19.6350    2.7460 C   0  0  0  0  0  0  0  0  0  0  0  0
    3.7260   19.9200    3.9950 C   0  0  0  0  0  0  0  0  0  0  0  0
    5.8960   20.1710    2.6890 C   0  0  0  0  0  0  0  0  0  0  0  0
    1.2640   17.6030   -0.7090 C   0  0  1  0  0  0  0  0  0  0  0  0
   -0.0020   17.5840    0.1890 C   0  0  0  0  0  0  0  0  0  0  0  0
   -0.7580   16.2690   -0.1310 C   0  0  0  0  0  0  0  0  0  0  0  0
    0.2520   15.4270   -0.9440 C   0  0  1  0  0  0  0  0  0  0  0  0
    1.1860   14.7770    0.1240 C   0  0  0  0  0  0  0  0  0  0  0  0
   -0.3580   14.3550   -1.9050 C   0  0  2  0  0  0  0  0  0  0  0  0
   -1.1690   13.2440   -1.2140 C   0  0  0  0  0  0  0  0  0  0  0  0
   -0.3860   12.0360   -0.8180 C   0  0  0  0  0  0  0  0  0  0  0  0
    0.8470   11.7240   -1.2580 C   0  0  0  0  0  0  0  0  0  0  0  0
    1.5420   12.5790   -2.3260 C   0  0  1  0  0  0  0  0  0  0  0  0
    2.1550   11.6560   -3.4110 C   0  0  0  0  0  0  0  0  0  0  0  0
    3.0790   10.5940   -2.8210 C   0  0  0  0  0  0  0  0  0  0  0  0
    2.3360    9.7270   -1.8080 C   0  0  2  0  0  0  0  0  0  0  0  0
    1.3430    8.9620   -2.4960 O   0  0  0  0  0  0  0  0  0  0  0  0
    1.6680   10.5500   -0.6710 C   0  0  0  0  0  0  0  0  0  0  0  0
    2.7600   11.1370    0.2580 C   0  0  0  0  0  0  0  0  0  0  0  0
    0.8360    9.5710    0.2010 C   0  0  0  0  0  0  0  0  0  0  0  0
    0.6720   13.7560   -2.9460 C   0  0  1  0  0  0  0  0  0  0  0  0
   -0.1680   13.2200   -4.1460 C   0  0  0  0  0  0  0  0  0  0  0  0
    1.6360   14.8530   -3.5340 C   0  0  0  0  0  0  0  0  0  0  0  0
    2.1090   15.9530   -2.5640 C   0  0  0  0  0  0  0  0  0  0  0  0
    0.9260   16.5590   -1.8020 C   0  0  2  0  0  0  0  0  0  0  0  0
   -0.0200   17.2390   -2.8500 C   0  0  0  0  0  0  0  0  0  0  0  0
    3.7812   18.9144   -1.4140 H   0  0  0  0  0  0  0  0  0  0  0  0
    2.8494   18.0556   -2.6871 H   0  0  0  0  0  0  0  0  0  0  0  0
    2.9268   19.8502   -2.6871 H   0  0  0  0  0  0  0  0  0  0  0  0
    0.8186   19.4246   -1.7809 H   0  0  0  0  0  0  0  0  0  0  0  0
    2.5559   20.7074   -0.2150 H   0  0  0  0  0  0  0  0  0  0  0  0
    0.8332   20.3532    0.2853 H   0  0  0  0  0  0  0  0  0  0  0  0
    1.8433   19.6628    2.1856 H   0  0  0  0  0  0  0  0  0  0  0  0
    2.0351   18.1440    1.2142 H   0  0  0  0  0  0  0  0  0  0  0  0
    3.9003   19.6911    0.4248 H   0  0  0  0  0  0  0  0  0  0  0  0
    4.3485   19.6908    4.8725 H   0  0  0  0  0  0  0  0  0  0  0  0
    3.4407   20.9822    4.0152 H   0  0  0  0  0  0  0  0  0  0  0  0
    2.8200   19.2965    4.0152 H   0  0  0  0  0  0  0  0  0  0  0  0
    6.2749   20.3165    3.7114 H   0  0  0  0  0  0  0  0  0  0  0  0
    6.5415   19.4568    2.1569 H   0  0  0  0  0  0  0  0  0  0  0  0
    5.8977   21.1337    2.1569 H   0  0  0  0  0  0  0  0  0  0  0  0
    2.1987   17.3254   -0.1997 H   0  0  0  0  0  0  0  0  0  0  0  0
    0.2861   17.6066    1.2504 H   0  0  0  0  0  0  0  0  0  0  0  0
   -0.6366   18.4614   -0.0046 H   0  0  0  0  0  0  0  0  0  0  0  0
   -1.0408   15.7482    0.7957 H   0  0  0  0  0  0  0  0  0  0  0  0
   -1.6920   16.4485   -0.6836 H   0  0  0  0  0  0  0  0  0  0  0  0
    0.8229   15.0297    1.1311 H   0  0  0  0  0  0  0  0  0  0  0  0
    1.1837   13.6844   -0.0032 H   0  0  0  0  0  0  0  0  0  0  0  0
    2.2098   15.1588   -0.0032 H   0  0  0  0  0  0  0  0  0  0  0  0
   -1.0877   14.9435   -2.4805 H   0  0  0  0  0  0  0  0  0  0  0  0
   -1.6219   13.6684   -0.3058 H   0  0  0  0  0  0  0  0  0  0  0  0
   -1.9064   12.8999   -1.9542 H   0  0  0  0  0  0  0  0  0  0  0  0
   -0.8569   11.3421   -0.1062 H   0  0  0  0  0  0  0  0  0  0  0  0
    2.3427   13.1242   -1.8049 H   0  0  0  0  0  0  0  0  0  0  0  0
    1.3379   11.1532   -3.9491 H   0  0  0  0  0  0  0  0  0  0  0  0
    2.7558   12.2850   -4.0843 H   0  0  0  0  0  0  0  0  0  0  0  0
    3.4578    9.9552   -3.6325 H   0  0  0  0  0  0  0  0  0  0  0  0
    3.9114   11.0982   -2.3083 H   0  0  0  0  0  0  0  0  0  0  0  0
    3.0778    9.0725   -1.3270 H   0  0  0  0  0  0  0  0  0  0  0  0
    1.1410    9.4220   -3.3280 H   0  0  0  0  0  0  0  0  0  0  0  0
    2.4707   10.9815    1.3078 H   0  0  0  0  0  0  0  0  0  0  0  0
    3.7176   10.6321    0.0629 H   0  0  0  0  0  0  0  0  0  0  0  0
    2.8671   12.2143    0.0629 H   0  0  0  0  0  0  0  0  0  0  0  0
    1.0167    9.7836    1.2650 H   0  0  0  0  0  0  0  0  0  0  0  0
   -0.2334    9.6995   -0.0221 H   0  0  0  0  0  0  0  0  0  0  0  0
    1.1353    8.5363   -0.0221 H   0  0  0  0  0  0  0  0  0  0  0  0
   -1.0381   12.6648   -3.7656 H   0  0  0  0  0  0  0  0  0  0  0  0
   -0.5123   14.0657   -4.7594 H   0  0  0  0  0  0  0  0  0  0  0  0
    0.4540   12.5515   -4.7594 H   0  0  0  0  0  0  0  0  0  0  0  0
    2.5303   14.3397   -3.9169 H   0  0  0  0  0  0  0  0  0  0  0  0
    1.0436   15.3777   -4.2981 H   0  0  0  0  0  0  0  0  0  0  0  0
    2.8160   15.5170   -1.8429 H   0  0  0  0  0  0  0  0  0  0  0  0
    2.5951   16.7491   -3.1471 H   0  0  0  0  0  0  0  0  0  0  0  0
   -0.8045   17.8029   -2.3242 H   0  0  0  0  0  0  0  0  0  0  0  0
    0.5645   17.9250   -3.4807 H   0  0  0  0  0  0  0  0  0  0  0  0
   -0.4840   16.4664   -3.4807 H   0  0  0  0  0  0  0  0  0  0  0  0
  1  2  1  0
  2  3  1  0
  3  4  1  0
  4  5  1  0
  5  6  1  0
  6  7  1  0
  7  8  1  0
  7  9  1  0
  2 10  1  0
 10 11  1  0
 11 12  1  0
 12 13  1  0
 13 14  1  1
 13 15  1  0
 15 16  1  0
 16 17  1  0
 17 18  2  0
 18 19  1  0
 19 20  1  0
 20 21  1  0
 21 22  1  0
 22 23  1  0
 22 24  1  0
 24 25  1  0
 24 26  1  0
 19 27  1  0
 27 28  1  6
 27 29  1  0
 29 30  1  0
 30 31  1  0
 31 32  1  6
  7  5  1  0
 31 10  1  0
 31 13  1  0
 27 15  1  0
 24 18  1  0
  1 33  1  0
  1 34  1  0
  1 35  1  0
  2 36  1  6
  3 37  1  0
  3 38  1  0
  4 39  1  0
  4 40  1  0
  5 41  1  6
  8 42  1  0
  8 43  1  0
  8 44  1  0
  9 45  1  0
  9 46  1  0
  9 47  1  0
 10 48  1  1
 11 49  1  0
 11 50  1  0
 12 51  1  0
 12 52  1  0
 14 53  1  0
 14 54  1  0
 14 55  1  0
 15 56  1  6
 16 57  1  0
 16 58  1  0
 17 59  1  0
 19 60  1  1
 20 61  1  0
 20 62  1  0
 21 63  1  0
 21 64  1  0
 22 65  1  1
 23 66  1  0
 25 67  1  0
 25 68  1  0
 25 69  1  0
 26 70  1  0
 26 71  1  0
 26 72  1  0
 28 73  1  0
 28 74  1  0
 28 75  1  0
 29 76  1  0
 29 77  1  0
 30 78  1  0
 30 79  1  0
 32 80  1  0
 32 81  1  0
 32 82  1  0
M  END
>  <meeko>  (11) 
{"is_sidechain": [false], "intermolecular_energy": 2.731, "internal_energy": -0.839}

$$$$
EPH_relaxed_0001_pdb2pqr_Repair_120_r2_0001_out
     RDKit          3D

 82 86  0  0  0  0  0  0  0  0999 V2000
   -2.1860    7.8250   -1.9400 C   0  0  0  0  0  0  0  0  0  0  0  0
   -2.1870    8.5470   -0.5900 C   0  0  2  0  0  0  0  0  0  0  0  0
   -3.5900    8.5820    0.0490 C   0  0  0  0  0  0  0  0  0  0  0  0
   -4.7280    8.6750   -0.9700 C   0  0  0  0  0  0  0  0  0  0  0  0
   -5.4450    7.3670   -1.1220 C   0  0  2  0  0  0  0  0  0  0  0  0
   -5.6080    6.9280   -2.4770 O   0  0  0  0  0  0  0  0  0  0  0  0
   -6.8150    7.2340   -1.7590 C   0  0  0  0  0  0  0  0  0  0  0  0
   -7.5510    8.4260   -2.2860 C   0  0  0  0  0  0  0  0  0  0  0  0
   -7.6430    6.0300   -1.4310 C   0  0  0  0  0  0  0  0  0  0  0  0
   -1.6570    9.9660   -0.7590 C   0  0  1  0  0  0  0  0  0  0  0  0
   -1.2000   10.5980    0.5830 C   0  0  0  0  0  0  0  0  0  0  0  0
    0.0210   11.4970    0.2600 C   0  0  0  0  0  0  0  0  0  0  0  0
    0.0210   11.6170   -1.2820 C   0  0  1  0  0  0  0  0  0  0  0  0
   -1.0350   12.7220   -1.5980 C   0  0  0  0  0  0  0  0  0  0  0  0
    1.4000   11.9280   -1.9500 C   0  0  2  0  0  0  0  0  0  0  0  0
    2.0270   13.2770   -1.5560 C   0  0  0  0  0  0  0  0  0  0  0  0
    1.6590   14.4310   -2.4300 C   0  0  0  0  0  0  0  0  0  0  0  0
    1.0930   14.3400   -3.6480 C   0  0  0  0  0  0  0  0  0  0  0  0
    0.8530   12.9750   -4.3060 C   0  0  1  0  0  0  0  0  0  0  0  0
    1.3300   13.0200   -5.7810 C   0  0  0  0  0  0  0  0  0  0  0  0
    0.6960   14.1650   -6.5660 C   0  0  0  0  0  0  0  0  0  0  0  0
    1.0060   15.5100   -5.9130 C   0  0  2  0  0  0  0  0  0  0  0  0
    2.4090   15.7640   -6.0240 O   0  0  0  0  0  0  0  0  0  0  0  0
    0.5780   15.5790   -4.4210 C   0  0  0  0  0  0  0  0  0  0  0  0
   -0.9670   15.6060   -4.3230 C   0  0  0  0  0  0  0  0  0  0  0  0
    1.0730   16.9340   -3.8450 C   0  0  0  0  0  0  0  0  0  0  0  0
    1.4220   11.7170   -3.5180 C   0  0  1  0  0  0  0  0  0  0  0  0
    2.9100   11.4710   -3.9140 C   0  0  0  0  0  0  0  0  0  0  0  0
    0.6270   10.4310   -3.9600 C   0  0  0  0  0  0  0  0  0  0  0  0
   -0.6640   10.1110   -3.1820 C   0  0  0  0  0  0  0  0  0  0  0  0
   -0.4190   10.1590   -1.6710 C   0  0  2  0  0  0  0  0  0  0  0  0
    0.6230    9.0430   -1.3190 C   0  0  0  0  0  0  0  0  0  0  0  0
   -2.1845    6.7376   -1.7742 H   0  0  0  0  0  0  0  0  0  0  0  0
   -3.0845    8.1081   -2.5079 H   0  0  0  0  0  0  0  0  0  0  0  0
   -1.2882    8.1106   -2.5079 H   0  0  0  0  0  0  0  0  0  0  0  0
   -1.5294    7.9823    0.0873 H   0  0  0  0  0  0  0  0  0  0  0  0
   -3.7260    7.6634    0.6386 H   0  0  0  0  0  0  0  0  0  0  0  0
   -3.6384    9.4896    0.6687 H   0  0  0  0  0  0  0  0  0  0  0  0
   -5.4457    9.4379   -0.6341 H   0  0  0  0  0  0  0  0  0  0  0  0
   -4.2943    8.9434   -1.9446 H   0  0  0  0  0  0  0  0  0  0  0  0
   -5.0376    7.0052   -0.1664 H   0  0  0  0  0  0  0  0  0  0  0  0
   -7.9231    9.0287   -1.4444 H   0  0  0  0  0  0  0  0  0  0  0  0
   -6.8712    9.0345   -2.9004 H   0  0  0  0  0  0  0  0  0  0  0  0
   -8.3996    8.0908   -2.9004 H   0  0  0  0  0  0  0  0  0  0  0  0
   -7.7170    5.9224   -0.3388 H   0  0  0  0  0  0  0  0  0  0  0  0
   -8.6501    6.1506   -1.8566 H   0  0  0  0  0  0  0  0  0  0  0  0
   -7.1700    5.1327   -1.8566 H   0  0  0  0  0  0  0  0  0  0  0  0
   -2.5388   10.4383   -1.2167 H   0  0  0  0  0  0  0  0  0  0  0  0
   -2.0122   11.2022    1.0133 H   0  0  0  0  0  0  0  0  0  0  0  0
   -0.9363    9.8215    1.3161 H   0  0  0  0  0  0  0  0  0  0  0  0
   -0.0915   12.4868    0.7264 H   0  0  0  0  0  0  0  0  0  0  0  0
    0.9617   11.0768    0.6454 H   0  0  0  0  0  0  0  0  0  0  0  0
   -1.4281   13.1334   -0.6566 H   0  0  0  0  0  0  0  0  0  0  0  0
   -0.5612   13.5262   -2.1800 H   0  0  0  0  0  0  0  0  0  0  0  0
   -1.8599   12.2852   -2.1800 H   0  0  0  0  0  0  0  0  0  0  0  0
    2.0524   11.1570   -1.5142 H   0  0  0  0  0  0  0  0  0  0  0  0
    1.7089   13.5129   -0.5297 H   0  0  0  0  0  0  0  0  0  0  0  0
    3.1145   13.1497   -1.6619 H   0  0  0  0  0  0  0  0  0  0  0  0
    1.8681   15.4404   -2.0460 H   0  0  0  0  0  0  0  0  0  0  0  0
   -0.2335   12.8066   -4.2709 H   0  0  0  0  0  0  0  0  0  0  0  0
    2.4227   13.1456   -5.7946 H   0  0  0  0  0  0  0  0  0  0  0  0
    1.0250   12.0777   -6.2596 H   0  0  0  0  0  0  0  0  0  0  0  0
    1.0938   14.1623   -7.5916 H   0  0  0  0  0  0  0  0  0  0  0  0
   -0.3947   14.0224   -6.5768 H   0  0  0  0  0  0  0  0  0  0  0  0
    0.4212   16.2766   -6.4425 H   0  0  0  0  0  0  0  0  0  0  0  0
    2.5180   16.6510   -6.4080 H   0  0  0  0  0  0  0  0  0  0  0  0
   -1.2672   15.6112   -3.2648 H   0  0  0  0  0  0  0  0  0  0  0  0
   -1.3500   16.5110   -4.8173 H   0  0  0  0  0  0  0  0  0  0  0  0
   -1.3814   14.7150   -4.8173 H   0  0  0  0  0  0  0  0  0  0  0  0
    1.0579   16.8926   -2.7459 H   0  0  0  0  0  0  0  0  0  0  0  0
    2.0994   17.1263   -4.1906 H   0  0  0  0  0  0  0  0  0  0  0  0
    0.4122   17.7426   -4.1906 H   0  0  0  0  0  0  0  0  0  0  0  0
    3.5197   11.3702   -3.0040 H   0  0  0  0  0  0  0  0  0  0  0  0
    2.9835   10.5485   -4.5087 H   0  0  0  0  0  0  0  0  0  0  0  0
    3.2765   12.3208   -4.5087 H   0  0  0  0  0  0  0  0  0  0  0  0
    0.3555   10.5551   -5.0187 H   0  0  0  0  0  0  0  0  0  0  0  0
    1.3039    9.5889   -3.7535 H   0  0  0  0  0  0  0  0  0  0  0  0
   -1.4353   10.8498   -3.4452 H   0  0  0  0  0  0  0  0  0  0  0  0
   -0.9942    9.0971   -3.4520 H   0  0  0  0  0  0  0  0  0  0  0  0
    0.7078    8.9521   -0.2260 H   0  0  0  0  0  0  0  0  0  0  0  0
    0.2899    8.0838   -1.7419 H   0  0  0  0  0  0  0  0  0  0  0  0
    1.6028    9.3096   -1.7419 H   0  0  0  0  0  0  0  0  0  0  0  0
  1  2  1  0
  2  3  1  0
  3  4  1  0
  4  5  1  0
  5  6  1  0
  6  7  1  0
  7  8  1  0
  7  9  1  0
  2 10  1  0
 10 11  1  0
 11 12  1  0
 12 13  1  0
 13 14  1  1
 13 15  1  0
 15 16  1  0
 16 17  1  0
 17 18  2  0
 18 19  1  0
 19 20  1  0
 20 21  1  0
 21 22  1  0
 22 23  1  0
 22 24  1  0
 24 25  1  0
 24 26  1  0
 19 27  1  0
 27 28  1  6
 27 29  1  0
 29 30  1  0
 30 31  1  0
 31 32  1  1
  7  5  1  0
 31 10  1  0
 31 13  1  0
 27 15  1  0
 24 18  1  0
  1 33  1  0
  1 34  1  0
  1 35  1  0
  2 36  1  1
  3 37  1  0
  3 38  1  0
  4 39  1  0
  4 40  1  0
  5 41  1  1
  8 42  1  0
  8 43  1  0
  8 44  1  0
  9 45  1  0
  9 46  1  0
  9 47  1  0
 10 48  1  6
 11 49  1  0
 11 50  1  0
 12 51  1  0
 12 52  1  0
 14 53  1  0
 14 54  1  0
 14 55  1  0
 15 56  1  1
 16 57  1  0
 16 58  1  0
 17 59  1  0
 19 60  1  6
 20 61  1  0
 20 62  1  0
 21 63  1  0
 21 64  1  0
 22 65  1  6
 23 66  1  0
 25 67  1  0
 25 68  1  0
 25 69  1  0
 26 70  1  0
 26 71  1  0
 26 72  1  0
 28 73  1  0
 28 74  1  0
 28 75  1  0
 29 76  1  0
 29 77  1  0
 30 78  1  0
 30 79  1  0
 32 80  1  0
 32 81  1  0
 32 82  1  0
M  END
>  <meeko>  (12) 
{"is_sidechain": [false], "intermolecular_energy": 2.731, "internal_energy": -0.839}

$$$$
EPH_relaxed_0001_pdb2pqr_Repair_120_r2_0001_out
     RDKit          3D

 82 86  0  0  0  0  0  0  0  0999 V2000
   -3.7270    7.1240   -3.3830 C   0  0  0  0  0  0  0  0  0  0  0  0
   -3.7890    7.2370   -1.8570 C   0  0  2  0  0  0  0  0  0  0  0  0
   -5.2200    7.0420   -1.3170 C   0  0  0  0  0  0  0  0  0  0  0  0
   -6.3130    7.3680   -2.3390 C   0  0  0  0  0  0  0  0  0  0  0  0
   -7.6470    7.5560   -1.6820 C   0  0  2  0  0  0  0  0  0  0  0  0
   -8.2000    6.3690   -1.0990 O   0  0  0  0  0  0  0  0  0  0  0  0
   -8.9300    6.9330   -2.2010 C   0  0  0  0  0  0  0  0  0  0  0  0
   -8.9400    6.0760   -3.4270 C   0  0  0  0  0  0  0  0  0  0  0  0
  -10.2350    7.5500   -1.8060 C   0  0  0  0  0  0  0  0  0  0  0  0
   -3.2450    8.5910   -1.4140 C   0  0  1  0  0  0  0  0  0  0  0  0
   -3.8640    9.0740   -0.0760 C   0  0  0  0  0  0  0  0  0  0  0  0
   -2.7490    9.8400    0.6820 C   0  0  0  0  0  0  0  0  0  0  0  0
   -1.6400   10.0590   -0.3740 C   0  0  1  0  0  0  0  0  0  0  0  0
   -2.1090   11.3010   -1.1960 C   0  0  0  0  0  0  0  0  0  0  0  0
   -0.1890   10.2460    0.1760 C   0  0  2  0  0  0  0  0  0  0  0  0
    0.0160   11.4820    1.0700 C   0  0  0  0  0  0  0  0  0  0  0  0
    0.4290   12.7250    0.3540 C   0  0  0  0  0  0  0  0  0  0  0  0
    0.9020   12.7820   -0.9050 C   0  0  0  0  0  0  0  0  0  0  0  0
    1.1550   11.5010   -1.7100 C   0  0  1  0  0  0  0  0  0  0  0  0
    2.5460   11.5850   -2.3920 C   0  0  0  0  0  0  0  0  0  0  0  0
    2.7090   12.8460   -3.2360 C   0  0  0  0  0  0  0  0  0  0  0  0
    2.5070   14.0990   -2.3870 C   0  0  2  0  0  0  0  0  0  0  0  0
    3.5740   14.1900   -1.4390 O   0  0  0  0  0  0  0  0  0  0  0  0
    1.1430   14.1220   -1.6430 C   0  0  0  0  0  0  0  0  0  0  0  0
   -0.0040   14.3280   -2.6640 C   0  0  0  0  0  0  0  0  0  0  0  0
    1.1260   15.3670   -0.7160 C   0  0  0  0  0  0  0  0  0  0  0  0
    0.9420   10.1360   -0.9250 C   0  0  1  0  0  0  0  0  0  0  0  0
    2.2530    9.7400   -0.1800 C   0  0  0  0  0  0  0  0  0  0  0  0
    0.6560    8.9860   -1.9630 C   0  0  0  0  0  0  0  0  0  0  0  0
   -0.8130    8.7730   -2.3770 C   0  0  0  0  0  0  0  0  0  0  0  0
   -1.7230    8.6930   -1.1470 C   0  0  2  0  0  0  0  0  0  0  0  0
   -1.2890    7.4400   -0.3120 C   0  0  0  0  0  0  0  0  0  0  0  0
   -3.2151    6.1909   -3.6611 H   0  0  0  0  0  0  0  0  0  0  0  0
   -4.7481    7.1179   -3.7920 H   0  0  0  0  0  0  0  0  0  0  0  0
   -3.1733    7.9820   -3.7920 H   0  0  0  0  0  0  0  0  0  0  0  0
   -3.1669    6.4312   -1.4402 H   0  0  0  0  0  0  0  0  0  0  0  0
   -5.3348    5.9924   -1.0085 H   0  0  0  0  0  0  0  0  0  0  0  0
   -5.3453    7.7420   -0.4778 H   0  0  0  0  0  0  0  0  0  0  0  0
   -6.0422    8.2938   -2.8677 H   0  0  0  0  0  0  0  0  0  0  0  0
   -6.3912    6.5232   -3.0391 H   0  0  0  0  0  0  0  0  0  0  0  0
   -7.3891    8.5874   -1.3995 H   0  0  0  0  0  0  0  0  0  0  0  0
   -8.9524    5.0160   -3.1333 H   0  0  0  0  0  0  0  0  0  0  0  0
   -9.8356    6.3014   -4.0246 H   0  0  0  0  0  0  0  0  0  0  0  0
   -8.0394    6.2804   -4.0246 H   0  0  0  0  0  0  0  0  0  0  0  0
  -10.3073    7.5842   -0.7089 H   0  0  0  0  0  0  0  0  0  0  0  0
  -10.2946    8.5716   -2.2094 H   0  0  0  0  0  0  0  0  0  0  0  0
  -11.0624    6.9477   -2.2094 H   0  0  0  0  0  0  0  0  0  0  0  0
   -3.5133    9.1945   -2.2937 H   0  0  0  0  0  0  0  0  0  0  0  0
   -4.7161    9.7414   -0.2720 H   0  0  0  0  0  0  0  0  0  0  0  0
   -4.2334    8.2248    0.5176 H   0  0  0  0  0  0  0  0  0  0  0  0
   -3.1251   10.8037    1.0560 H   0  0  0  0  0  0  0  0  0  0  0  0
   -2.3855    9.2867    1.5605 H   0  0  0  0  0  0  0  0  0  0  0  0
   -2.4120   12.1034   -0.5073 H   0  0  0  0  0  0  0  0  0  0  0  0
   -1.2825   11.6546   -1.8299 H   0  0  0  0  0  0  0  0  0  0  0  0
   -2.9629   11.0200   -1.8299 H   0  0  0  0  0  0  0  0  0  0  0  0
   -0.0750    9.3752    0.8383 H   0  0  0  0  0  0  0  0  0  0  0  0
   -0.9321   11.6875    1.5886 H   0  0  0  0  0  0  0  0  0  0  0  0
    0.8444   11.2324    1.7493 H   0  0  0  0  0  0  0  0  0  0  0  0
    0.3392   13.6748    0.9015 H   0  0  0  0  0  0  0  0  0  0  0  0
    0.3657   11.4611   -2.4751 H   0  0  0  0  0  0  0  0  0  0  0  0
    3.3219   11.5799   -1.6122 H   0  0  0  0  0  0  0  0  0  0  0  0
    2.6413   10.7191   -3.0637 H   0  0  0  0  0  0  0  0  0  0  0  0
    3.7207   12.8624   -3.6675 H   0  0  0  0  0  0  0  0  0  0  0  0
    1.9516   12.8357   -4.0336 H   0  0  0  0  0  0  0  0  0  0  0  0
    2.5064   14.9625   -3.0684 H   0  0  0  0  0  0  0  0  0  0  0  0
    3.2950   14.8060   -0.7400 H   0  0  0  0  0  0  0  0  0  0  0  0
   -0.9481   14.4976   -2.1256 H   0  0  0  0  0  0  0  0  0  0  0  0
    0.2197   15.2003   -3.2957 H   0  0  0  0  0  0  0  0  0  0  0  0
   -0.0979   13.4323   -3.2957 H   0  0  0  0  0  0  0  0  0  0  0  0
    1.1304   15.0418    0.3348 H   0  0  0  0  0  0  0  0  0  0  0  0
    2.0158   15.9830   -0.9130 H   0  0  0  0  0  0  0  0  0  0  0  0
    0.2197   15.9585   -0.9130 H   0  0  0  0  0  0  0  0  0  0  0  0
    2.0869    9.7902    0.9062 H   0  0  0  0  0  0  0  0  0  0  0  0
    2.5388    8.7154   -0.4603 H   0  0  0  0  0  0  0  0  0  0  0  0
    3.0582   10.4350   -0.4603 H   0  0  0  0  0  0  0  0  0  0  0  0
    1.2294    9.2103   -2.8745 H   0  0  0  0  0  0  0  0  0  0  0  0
    0.9483    8.0572   -1.4513 H   0  0  0  0  0  0  0  0  0  0  0  0
   -1.1346    9.6143   -3.0085 H   0  0  0  0  0  0  0  0  0  0  0  0
   -0.8876    7.8255   -2.9309 H   0  0  0  0  0  0  0  0  0  0  0  0
   -1.3683    7.6690    0.7610 H   0  0  0  0  0  0  0  0  0  0  0  0
   -1.9457    6.5918   -0.5554 H   0  0  0  0  0  0  0  0  0  0  0  0
   -0.2483    7.1797   -0.5554 H   0  0  0  0  0  0  0  0  0  0  0  0
  1  2  1  0
  2  3  1  0
  3  4  1  0
  4  5  1  0
  5  6  1  0
  6  7  1  0
  7  8  1  0
  7  9  1  0
  2 10  1  0
 10 11  1  0
 11 12  1  0
 12 13  1  0
 13 14  1  6
 13 15  1  0
 15 16  1  0
 16 17  1  0
 17 18  2  0
 18 19  1  0
 19 20  1  0
 20 21  1  0
 21 22  1  0
 22 23  1  0
 22 24  1  0
 24 25  1  0
 24 26  1  0
 19 27  1  0
 27 28  1  1
 27 29  1  0
 29 30  1  0
 30 31  1  0
 31 32  1  1
  7  5  1  0
 31 10  1  0
 31 13  1  0
 27 15  1  0
 24 18  1  0
  1 33  1  0
  1 34  1  0
  1 35  1  0
  2 36  1  1
  3 37  1  0
  3 38  1  0
  4 39  1  0
  4 40  1  0
  5 41  1  1
  8 42  1  0
  8 43  1  0
  8 44  1  0
  9 45  1  0
  9 46  1  0
  9 47  1  0
 10 48  1  6
 11 49  1  0
 11 50  1  0
 12 51  1  0
 12 52  1  0
 14 53  1  0
 14 54  1  0
 14 55  1  0
 15 56  1  1
 16 57  1  0
 16 58  1  0
 17 59  1  0
 19 60  1  6
 20 61  1  0
 20 62  1  0
 21 63  1  0
 21 64  1  0
 22 65  1  6
 23 66  1  0
 25 67  1  0
 25 68  1  0
 25 69  1  0
 26 70  1  0
 26 71  1  0
 26 72  1  0
 28 73  1  0
 28 74  1  0
 28 75  1  0
 29 76  1  0
 29 77  1  0
 30 78  1  0
 30 79  1  0
 32 80  1  0
 32 81  1  0
 32 82  1  0
M  END
>  <meeko>  (13) 
{"is_sidechain": [false], "intermolecular_energy": 2.731, "internal_energy": -0.839}

$$$$
EPH_relaxed_0001_pdb2pqr_Repair_120_r2_0001_out
     RDKit          3D

 82 86  0  0  0  0  0  0  0  0999 V2000
    0.0390    9.3260   -2.2670 C   0  0  0  0  0  0  0  0  0  0  0  0
    1.1180   10.3190   -2.7090 C   0  0  2  0  0  0  0  0  0  0  0  0
    2.5180    9.6730   -2.7540 C   0  0  0  0  0  0  0  0  0  0  0  0
    3.4490   10.2940   -3.7990 C   0  0  0  0  0  0  0  0  0  0  0  0
    4.8330   10.4930   -3.2610 C   0  0  2  0  0  0  0  0  0  0  0  0
    5.3700   11.8070   -3.4600 O   0  0  0  0  0  0  0  0  0  0  0  0
    6.0460   10.7370   -4.1390 C   0  0  0  0  0  0  0  0  0  0  0  0
    5.9300   10.7940   -5.6300 C   0  0  0  0  0  0  0  0  0  0  0  0
    7.4030   10.4330   -3.5860 C   0  0  0  0  0  0  0  0  0  0  0  0
    1.1300   11.5230   -1.7760 C   0  0  1  0  0  0  0  0  0  0  0  0
    2.1860   11.3940   -0.6460 C   0  0  0  0  0  0  0  0  0  0  0  0
    2.7290   12.8210   -0.3760 C   0  0  0  0  0  0  0  0  0  0  0  0
    1.7440   13.7590   -1.1120 C   0  0  1  0  0  0  0  0  0  0  0  0
    0.5270   13.9020   -0.1440 C   0  0  0  0  0  0  0  0  0  0  0  0
    2.3060   15.1530   -1.5410 C   0  0  2  0  0  0  0  0  0  0  0  0
    2.7560   16.0600   -0.3820 C   0  0  0  0  0  0  0  0  0  0  0  0
    1.7040   16.9670    0.1640 C   0  0  0  0  0  0  0  0  0  0  0  0
    0.5340   17.2580   -0.4360 C   0  0  0  0  0  0  0  0  0  0  0  0
    0.2160   16.7280   -1.8400 C   0  0  1  0  0  0  0  0  0  0  0  0
   -0.3530   17.8790   -2.7110 C   0  0  0  0  0  0  0  0  0  0  0  0
   -1.5490   18.5680   -2.0620 C   0  0  0  0  0  0  0  0  0  0  0  0
   -1.1770   19.1320   -0.6930 C   0  0  2  0  0  0  0  0  0  0  0  0
   -0.2360   20.1940   -0.8730 O   0  0  0  0  0  0  0  0  0  0  0  0
   -0.5840   18.0650    0.2690 C   0  0  0  0  0  0  0  0  0  0  0  0
   -1.6960   17.0780    0.7020 C   0  0  0  0  0  0  0  0  0  0  0  0
   -0.1210   18.7910    1.5600 C   0  0  0  0  0  0  0  0  0  0  0  0
    1.3880   15.9360   -2.5640 C   0  0  1  0  0  0  0  0  0  0  0  0
    2.3160   16.9340   -3.3220 C   0  0  0  0  0  0  0  0  0  0  0  0
    0.7680   14.9880   -3.6580 C   0  0  0  0  0  0  0  0  0  0  0  0
    0.3420   13.5810   -3.1980 C   0  0  0  0  0  0  0  0  0  0  0  0
    1.4590   12.9030   -2.3990 C   0  0  2  0  0  0  0  0  0  0  0  0
    2.6890   12.7260   -3.3540 C   0  0  0  0  0  0  0  0  0  0  0  0
    0.0009    9.2909   -1.1682 H   0  0  0  0  0  0  0  0  0  0  0  0
   -0.9376    9.6478   -2.6577 H   0  0  0  0  0  0  0  0  0  0  0  0
    0.2788    8.3261   -2.6577 H   0  0  0  0  0  0  0  0  0  0  0  0
    0.8708   10.6433   -3.7306 H   0  0  0  0  0  0  0  0  0  0  0  0
    2.9839    9.7845   -1.7638 H   0  0  0  0  0  0  0  0  0  0  0  0
    2.3768    8.6189   -3.0351 H   0  0  0  0  0  0  0  0  0  0  0  0
    3.4988    9.6276   -4.6727 H   0  0  0  0  0  0  0  0  0  0  0  0
    3.0444   11.2786   -4.0761 H   0  0  0  0  0  0  0  0  0  0  0  0
    4.6436    9.7783   -2.4465 H   0  0  0  0  0  0  0  0  0  0  0  0
    4.9743   11.2636   -5.9057 H   0  0  0  0  0  0  0  0  0  0  0  0
    6.7613   11.3862   -6.0401 H   0  0  0  0  0  0  0  0  0  0  0  0
    5.9691    9.7740   -6.0401 H   0  0  0  0  0  0  0  0  0  0  0  0
    7.3615   10.4423   -2.4868 H   0  0  0  0  0  0  0  0  0  0  0  0
    7.7261    9.4402   -3.9324 H   0  0  0  0  0  0  0  0  0  0  0  0
    8.1188   11.1931   -3.9324 H   0  0  0  0  0  0  0  0  0  0  0  0
    0.0837   11.5028   -1.4372 H   0  0  0  0  0  0  0  0  0  0  0  0
    1.7196   10.9878    0.2637 H   0  0  0  0  0  0  0  0  0  0  0  0
    2.9973   10.7118   -0.9397 H   0  0  0  0  0  0  0  0  0  0  0  0
    2.7371   13.0357    0.7028 H   0  0  0  0  0  0  0  0  0  0  0  0
    3.7644   12.9464   -0.7255 H   0  0  0  0  0  0  0  0  0  0  0  0
    0.8797   13.8606    0.8971 H   0  0  0  0  0  0  0  0  0  0  0  0
    0.0268   14.8651   -0.3236 H   0  0  0  0  0  0  0  0  0  0  0  0
   -0.1828   13.0811   -0.3236 H   0  0  0  0  0  0  0  0  0  0  0  0
    3.2245   14.8800   -2.0813 H   0  0  0  0  0  0  0  0  0  0  0  0
    3.1074   15.4154    0.4371 H   0  0  0  0  0  0  0  0  0  0  0  0
    3.5379   16.7148   -0.7943 H   0  0  0  0  0  0  0  0  0  0  0  0
    1.9009   17.4374    1.1386 H   0  0  0  0  0  0  0  0  0  0  0  0
   -0.5488   15.9489   -1.7054 H   0  0  0  0  0  0  0  0  0  0  0  0
    0.4395   18.6249   -2.8709 H   0  0  0  0  0  0  0  0  0  0  0  0
   -0.6949   17.4412   -3.6605 H   0  0  0  0  0  0  0  0  0  0  0  0
   -1.8864   19.3900   -2.7104 H   0  0  0  0  0  0  0  0  0  0  0  0
   -2.3518   17.8276   -1.9304 H   0  0  0  0  0  0  0  0  0  0  0  0
   -2.1026   19.4966   -0.2235 H   0  0  0  0  0  0  0  0  0  0  0  0
    0.0860   20.4540    0.0070 H   0  0  0  0  0  0  0  0  0  0  0  0
   -1.7424   17.0368    1.8002 H   0  0  0  0  0  0  0  0  0  0  0  0
   -2.6639   17.4198    0.3067 H   0  0  0  0  0  0  0  0  0  0  0  0
   -1.4715   16.0763    0.3067 H   0  0  0  0  0  0  0  0  0  0  0  0
   -0.4755   18.2351    2.4405 H   0  0  0  0  0  0  0  0  0  0  0  0
    0.9776   18.8433    1.5773 H   0  0  0  0  0  0  0  0  0  0  0  0
   -0.5369   19.8092    1.5773 H   0  0  0  0  0  0  0  0  0  0  0  0
    2.8775   17.5378   -2.5939 H   0  0  0  0  0  0  0  0  0  0  0  0
    3.0203   16.3725   -3.9534 H   0  0  0  0  0  0  0  0  0  0  0  0
    1.7048   17.5957   -3.9534 H   0  0  0  0  0  0  0  0  0  0  0  0
   -0.1226   15.4885   -4.0658 H   0  0  0  0  0  0  0  0  0  0  0  0
    1.5765   14.8204   -4.3848 H   0  0  0  0  0  0  0  0  0  0  0  0
   -0.5532   13.6654   -2.5644 H   0  0  0  0  0  0  0  0  0  0  0  0
    0.1281   12.9711   -4.0881 H   0  0  0  0  0  0  0  0  0  0  0  0
    3.6023   12.5946   -2.7551 H   0  0  0  0  0  0  0  0  0  0  0  0
    2.5361   11.8406   -3.9886 H   0  0  0  0  0  0  0  0  0  0  0  0
    2.7919   13.6186   -3.9886 H   0  0  0  0  0  0  0  0  0  0  0  0
  1  2  1  0
  2  3  1  0
  3  4  1  0
  4  5  1  0
  5  6  1  0
  6  7  1  0
  7  8  1  0
  7  9  1  0
  2 10  1  0
 10 11  1  0
 11 12  1  0
 12 13  1  0
 13 14  1  1
 13 15  1  0
 15 16  1  0
 16 17  1  0
 17 18  2  0
 18 19  1  0
 19 20  1  0
 20 21  1  0
 21 22  1  0
 22 23  1  0
 22 24  1  0
 24 25  1  0
 24 26  1  0
 19 27  1  0
 27 28  1  6
 27 29  1  0
 29 30  1  0
 30 31  1  0
 31 32  1  6
  7  5  1  0
 31 10  1  0
 31 13  1  0
 27 15  1  0
 24 18  1  0
  1 33  1  0
  1 34  1  0
  1 35  1  0
  2 36  1  6
  3 37  1  0
  3 38  1  0
  4 39  1  0
  4 40  1  0
  5 41  1  1
  8 42  1  0
  8 43  1  0
  8 44  1  0
  9 45  1  0
  9 46  1  0
  9 47  1  0
 10 48  1  1
 11 49  1  0
 11 50  1  0
 12 51  1  0
 12 52  1  0
 14 53  1  0
 14 54  1  0
 14 55  1  0
 15 56  1  6
 16 57  1  0
 16 58  1  0
 17 59  1  0
 19 60  1  1
 20 61  1  0
 20 62  1  0
 21 63  1  0
 21 64  1  0
 22 65  1  1
 23 66  1  0
 25 67  1  0
 25 68  1  0
 25 69  1  0
 26 70  1  0
 26 71  1  0
 26 72  1  0
 28 73  1  0
 28 74  1  0
 28 75  1  0
 29 76  1  0
 29 77  1  0
 30 78  1  0
 30 79  1  0
 32 80  1  0
 32 81  1  0
 32 82  1  0
M  END
>  <meeko>  (14) 
{"is_sidechain": [false], "intermolecular_energy": 2.731, "internal_energy": -0.839}

$$$$
EPH_relaxed_0001_pdb2pqr_Repair_120_r2_0001_out
     RDKit          3D

 82 86  0  0  0  0  0  0  0  0999 V2000
    2.7090   11.5090   -5.7050 C   0  0  0  0  0  0  0  0  0  0  0  0
    1.8400   11.1750   -4.4900 C   0  0  2  0  0  0  0  0  0  0  0  0
    0.7180   10.1750   -4.8350 C   0  0  0  0  0  0  0  0  0  0  0  0
   -0.3130    9.9960   -3.7180 C   0  0  0  0  0  0  0  0  0  0  0  0
    0.2110    9.1280   -2.6140 C   0  0  2  0  0  0  0  0  0  0  0  0
   -0.6530    8.0460   -2.2430 O   0  0  0  0  0  0  0  0  0  0  0  0
   -0.4260    9.0480   -1.2390 C   0  0  0  0  0  0  0  0  0  0  0  0
   -1.6410    9.8500   -0.8930 C   0  0  0  0  0  0  0  0  0  0  0  0
    0.4090    8.5720   -0.0910 C   0  0  0  0  0  0  0  0  0  0  0  0
    1.2390   12.4530   -3.9150 C   0  0  1  0  0  0  0  0  0  0  0  0
   -0.3010   12.3660   -3.7470 C   0  0  0  0  0  0  0  0  0  0  0  0
   -0.6580   13.1720   -2.4720 C   0  0  0  0  0  0  0  0  0  0  0  0
    0.6270   13.9650   -2.1390 C   0  0  1  0  0  0  0  0  0  0  0  0
    0.5910   15.2050   -3.0860 C   0  0  0  0  0  0  0  0  0  0  0  0
    0.8120   14.3850   -0.6440 C   0  0  2  0  0  0  0  0  0  0  0  0
   -0.2640   15.3390   -0.0970 C   0  0  0  0  0  0  0  0  0  0  0  0
    0.0350   16.7940   -0.2500 C   0  0  0  0  0  0  0  0  0  0  0  0
    1.2400   17.3170   -0.5430 C   0  0  0  0  0  0  0  0  0  0  0  0
    2.4820   16.4230   -0.6560 C   0  0  1  0  0  0  0  0  0  0  0  0
    3.6560   17.0660    0.1270 C   0  0  0  0  0  0  0  0  0  0  0  0
    3.9300   18.5030   -0.3060 C   0  0  0  0  0  0  0  0  0  0  0  0
    2.6900   19.3740   -0.1240 C   0  0  2  0  0  0  0  0  0  0  0  0
    2.4110   19.4930    1.2750 O   0  0  0  0  0  0  0  0  0  0  0  0
    1.4390   18.8200   -0.8610 C   0  0  0  0  0  0  0  0  0  0  0  0
    1.6260   18.9730   -2.3910 C   0  0  0  0  0  0  0  0  0  0  0  0
    0.2260   19.7120   -0.4810 C   0  0  0  0  0  0  0  0  0  0  0  0
    2.2690   14.8920   -0.2890 C   0  0  1  0  0  0  0  0  0  0  0  0
    2.4510   14.6830    1.2460 C   0  0  0  0  0  0  0  0  0  0  0  0
    3.3880   14.0350   -0.9900 C   0  0  0  0  0  0  0  0  0  0  0  0
    3.0960   13.5480   -2.4220 C   0  0  0  0  0  0  0  0  0  0  0  0
    1.7150   12.8910   -2.5070 C   0  0  2  0  0  0  0  0  0  0  0  0
    1.7290   11.6270   -1.5810 C   0  0  0  0  0  0  0  0  0  0  0  0
    3.6856   11.8843   -5.3653 H   0  0  0  0  0  0  0  0  0  0  0  0
    2.8552   10.6030   -6.3114 H   0  0  0  0  0  0  0  0  0  0  0  0
    2.2107   12.2797   -6.3114 H   0  0  0  0  0  0  0  0  0  0  0  0
    2.4884   10.6977   -3.7405 H   0  0  0  0  0  0  0  0  0  0  0  0
    0.1966   10.5350   -5.7342 H   0  0  0  0  0  0  0  0  0  0  0  0
    1.1964    9.1967   -4.9900 H   0  0  0  0  0  0  0  0  0  0  0  0
   -0.5665   10.9836   -3.3052 H   0  0  0  0  0  0  0  0  0  0  0  0
   -1.2011    9.5079   -4.1459 H   0  0  0  0  0  0  0  0  0  0  0  0
    1.2480    9.3007   -2.9378 H   0  0  0  0  0  0  0  0  0  0  0  0
   -1.7386    9.9144    0.2008 H   0  0  0  0  0  0  0  0  0  0  0  0
   -1.5440   10.8621   -1.3127 H   0  0  0  0  0  0  0  0  0  0  0  0
   -2.5336    9.3630   -1.3127 H   0  0  0  0  0  0  0  0  0  0  0  0
   -0.0773    8.8492    0.8559 H   0  0  0  0  0  0  0  0  0  0  0  0
    0.5141    7.4783   -0.1427 H   0  0  0  0  0  0  0  0  0  0  0  0
    1.4037    9.0388   -0.1427 H   0  0  0  0  0  0  0  0  0  0  0  0
    1.5828   13.1749   -4.6704 H   0  0  0  0  0  0  0  0  0  0  0  0
   -0.8029   12.8017   -4.6235 H   0  0  0  0  0  0  0  0  0  0  0  0
   -0.6302   11.3202   -3.6582 H   0  0  0  0  0  0  0  0  0  0  0  0
   -1.4969   13.8562   -2.6674 H   0  0  0  0  0  0  0  0  0  0  0  0
   -0.9737   12.5221   -1.6426 H   0  0  0  0  0  0  0  0  0  0  0  0
    0.5643   16.1254   -2.4841 H   0  0  0  0  0  0  0  0  0  0  0  0
    1.4894   15.2079   -3.7207 H   0  0  0  0  0  0  0  0  0  0  0  0
   -0.3061   15.1557   -3.7207 H   0  0  0  0  0  0  0  0  0  0  0  0
    0.6665   13.4337   -0.1113 H   0  0  0  0  0  0  0  0  0  0  0  0
   -1.2054   15.1282   -0.6256 H   0  0  0  0  0  0  0  0  0  0  0  0
   -0.3145   15.1513    0.9857 H   0  0  0  0  0  0  0  0  0  0  0  0
   -0.7995   17.4972   -0.1117 H   0  0  0  0  0  0  0  0  0  0  0  0
    2.7286   16.3786   -1.7271 H   0  0  0  0  0  0  0  0  0  0  0  0
    3.4093   17.0616    1.1990 H   0  0  0  0  0  0  0  0  0  0  0  0
    4.5603   16.4758   -0.0826 H   0  0  0  0  0  0  0  0  0  0  0  0
    4.7497   18.9122    0.3028 H   0  0  0  0  0  0  0  0  0  0  0  0
    4.2049   18.5021   -1.3711 H   0  0  0  0  0  0  0  0  0  0  0  0
    2.9079   20.3555   -0.5703 H   0  0  0  0  0  0  0  0  0  0  0  0
    2.0010   18.6600    1.5650 H   0  0  0  0  0  0  0  0  0  0  0  0
    2.4631   19.6579   -2.5914 H   0  0  0  0  0  0  0  0  0  0  0  0
    1.8426   17.9897   -2.8341 H   0  0  0  0  0  0  0  0  0  0  0  0
    0.7051   19.3800   -2.8341 H   0  0  0  0  0  0  0  0  0  0  0  0
    0.1440   19.7723    0.6143 H   0  0  0  0  0  0  0  0  0  0  0  0
    0.3694   20.7214   -0.8941 H   0  0  0  0  0  0  0  0  0  0  0  0
   -0.6947   19.2742   -0.8941 H   0  0  0  0  0  0  0  0  0  0  0  0
    1.8235   15.4035    1.7911 H   0  0  0  0  0  0  0  0  0  0  0  0
    2.1516   13.6592    1.5147 H   0  0  0  0  0  0  0  0  0  0  0  0
    3.5062   14.8389    1.5147 H   0  0  0  0  0  0  0  0  0  0  0  0
    4.3015   14.6466   -1.0265 H   0  0  0  0  0  0  0  0  0  0  0  0
    3.4696   13.1193   -0.3859 H   0  0  0  0  0  0  0  0  0  0  0  0
    3.1284   14.4073   -3.1079 H   0  0  0  0  0  0  0  0  0  0  0  0
    3.8562   12.8036   -2.7010 H   0  0  0  0  0  0  0  0  0  0  0  0
    1.7255   11.9441   -0.5277 H   0  0  0  0  0  0  0  0  0  0  0  0
    0.8376   11.0149   -1.7826 H   0  0  0  0  0  0  0  0  0  0  0  0
    2.6338   11.0348   -1.7826 H   0  0  0  0  0  0  0  0  0  0  0  0
  1  2  1  0
  2  3  1  0
  3  4  1  0
  4  5  1  0
  5  6  1  0
  6  7  1  0
  7  8  1  0
  7  9  1  0
  2 10  1  0
 10 11  1  0
 11 12  1  0
 12 13  1  0
 13 14  1  6
 13 15  1  0
 15 16  1  0
 16 17  1  0
 17 18  2  0
 18 19  1  0
 19 20  1  0
 20 21  1  0
 21 22  1  0
 22 23  1  0
 22 24  1  0
 24 25  1  0
 24 26  1  0
 19 27  1  0
 27 28  1  1
 27 29  1  0
 29 30  1  0
 30 31  1  0
 31 32  1  1
  7  5  1  0
 31 10  1  0
 31 13  1  0
 27 15  1  0
 24 18  1  0
  1 33  1  0
  1 34  1  0
  1 35  1  0
  2 36  1  1
  3 37  1  0
  3 38  1  0
  4 39  1  0
  4 40  1  0
  5 41  1  1
  8 42  1  0
  8 43  1  0
  8 44  1  0
  9 45  1  0
  9 46  1  0
  9 47  1  0
 10 48  1  6
 11 49  1  0
 11 50  1  0
 12 51  1  0
 12 52  1  0
 14 53  1  0
 14 54  1  0
 14 55  1  0
 15 56  1  1
 16 57  1  0
 16 58  1  0
 17 59  1  0
 19 60  1  6
 20 61  1  0
 20 62  1  0
 21 63  1  0
 21 64  1  0
 22 65  1  6
 23 66  1  0
 25 67  1  0
 25 68  1  0
 25 69  1  0
 26 70  1  0
 26 71  1  0
 26 72  1  0
 28 73  1  0
 28 74  1  0
 28 75  1  0
 29 76  1  0
 29 77  1  0
 30 78  1  0
 30 79  1  0
 32 80  1  0
 32 81  1  0
 32 82  1  0
M  END
>  <meeko>  (15) 
{"is_sidechain": [false], "intermolecular_energy": 2.731, "internal_energy": -0.839}

$$$$
EPH_relaxed_0001_pdb2pqr_Repair_120_r2_0001_out
     RDKit          3D

 82 86  0  0  0  0  0  0  0  0999 V2000
    3.3000   11.2580   -4.2600 C   0  0  0  0  0  0  0  0  0  0  0  0
    2.0470   11.6410   -5.0530 C   0  0  2  0  0  0  0  0  0  0  0  0
    2.3930   12.2340   -6.4340 C   0  0  0  0  0  0  0  0  0  0  0  0
    1.7520   13.6000   -6.6950 C   0  0  0  0  0  0  0  0  0  0  0  0
    2.2480   14.2100   -7.9710 C   0  0  2  0  0  0  0  0  0  0  0  0
    2.4960   15.6210   -7.9030 O   0  0  0  0  0  0  0  0  0  0  0  0
    1.4450   15.2030   -8.7900 C   0  0  0  0  0  0  0  0  0  0  0  0
    0.0790   15.6430   -8.3640 C   0  0  0  0  0  0  0  0  0  0  0  0
    1.7780   15.3700  -10.2400 C   0  0  0  0  0  0  0  0  0  0  0  0
    1.2100   12.6330   -4.2550 C   0  0  1  0  0  0  0  0  0  0  0  0
   -0.1930   12.0760   -3.8940 C   0  0  0  0  0  0  0  0  0  0  0  0
   -0.5530   12.6400   -2.4960 C   0  0  0  0  0  0  0  0  0  0  0  0
    0.4890   13.7550   -2.2460 C   0  0  1  0  0  0  0  0  0  0  0  0
   -0.0530   14.9940   -3.0250 C   0  0  0  0  0  0  0  0  0  0  0  0
    0.7870   14.0990   -0.7500 C   0  0  2  0  0  0  0  0  0  0  0  0
   -0.4120   14.6420    0.0460 C   0  0  0  0  0  0  0  0  0  0  0  0
   -0.5690   16.1270    0.0280 C   0  0  0  0  0  0  0  0  0  0  0  0
    0.3720   17.0080   -0.3580 C   0  0  0  0  0  0  0  0  0  0  0  0
    1.7810   16.5390   -0.7420 C   0  0  1  0  0  0  0  0  0  0  0  0
    2.8340   17.4440   -0.0510 C   0  0  0  0  0  0  0  0  0  0  0  0
    2.6130   18.9260   -0.3420 C   0  0  0  0  0  0  0  0  0  0  0  0
    1.2230   19.3680    0.1060 C   0  0  2  0  0  0  0  0  0  0  0  0
    1.1530   19.2930    1.5330 O   0  0  0  0  0  0  0  0  0  0  0  0
    0.0790   18.5210   -0.5180 C   0  0  0  0  0  0  0  0  0  0  0  0
   -0.0370   18.8360   -2.0300 C   0  0  0  0  0  0  0  0  0  0  0  0
   -1.2590   18.9770    0.1240 C   0  0  0  0  0  0  0  0  0  0  0  0
    2.0760   14.9910   -0.5340 C   0  0  1  0  0  0  0  0  0  0  0  0
    2.5580   14.7330    0.9260 C   0  0  0  0  0  0  0  0  0  0  0  0
    3.2640   14.5640   -1.4750 C   0  0  0  0  0  0  0  0  0  0  0  0
    2.8940   14.1200   -2.9040 C   0  0  0  0  0  0  0  0  0  0  0  0
    1.7630   13.0880   -2.8810 C   0  0  2  0  0  0  0  0  0  0  0  0
    2.2870   11.8210   -2.1230 C   0  0  0  0  0  0  0  0  0  0  0  0
    3.0864   11.3233   -3.1829 H   0  0  0  0  0  0  0  0  0  0  0  0
    3.5942   10.2289   -4.5138 H   0  0  0  0  0  0  0  0  0  0  0  0
    4.1193   11.9467   -4.5138 H   0  0  0  0  0  0  0  0  0  0  0  0
    1.4692   10.7207   -5.2242 H   0  0  0  0  0  0  0  0  0  0  0  0
    3.4854   12.3445   -6.5008 H   0  0  0  0  0  0  0  0  0  0  0  0
    1.9943   11.5418   -7.1903 H   0  0  0  0  0  0  0  0  0  0  0  0
    0.6610   13.4753   -6.7599 H   0  0  0  0  0  0  0  0  0  0  0  0
    2.0234   14.2703   -5.8661 H   0  0  0  0  0  0  0  0  0  0  0  0
    2.7676   13.2792   -8.2423 H   0  0  0  0  0  0  0  0  0  0  0  0
    0.0253   15.6603   -7.2654 H   0  0  0  0  0  0  0  0  0  0  0  0
   -0.1207   16.6509   -8.7568 H   0  0  0  0  0  0  0  0  0  0  0  0
   -0.6714   14.9411   -8.7568 H   0  0  0  0  0  0  0  0  0  0  0  0
    2.7574   15.8612  -10.3371 H   0  0  0  0  0  0  0  0  0  0  0  0
    1.8132   14.3829  -10.7242 H   0  0  0  0  0  0  0  0  0  0  0  0
    1.0080   15.9886  -10.7242 H   0  0  0  0  0  0  0  0  0  0  0  0
    1.2073   13.4788   -4.9583 H   0  0  0  0  0  0  0  0  0  0  0  0
   -0.9339   12.4053   -4.6374 H   0  0  0  0  0  0  0  0  0  0  0  0
   -0.1910   10.9760   -3.8871 H   0  0  0  0  0  0  0  0  0  0  0  0
   -1.5723   13.0535   -2.4946 H   0  0  0  0  0  0  0  0  0  0  0  0
   -0.5313   11.8656   -1.7151 H   0  0  0  0  0  0  0  0  0  0  0  0
   -0.3878   15.7594   -2.3094 H   0  0  0  0  0  0  0  0  0  0  0  0
    0.7463   15.4079   -3.6574 H   0  0  0  0  0  0  0  0  0  0  0  0
   -0.8995   14.6880   -3.6574 H   0  0  0  0  0  0  0  0  0  0  0  0
    1.0075   13.1106   -0.3206 H   0  0  0  0  0  0  0  0  0  0  0  0
   -1.3272   14.1982   -0.3728 H   0  0  0  0  0  0  0  0  0  0  0  0
   -0.2302   14.3676    1.0956 H   0  0  0  0  0  0  0  0  0  0  0  0
   -1.5356   16.5351    0.3582 H   0  0  0  0  0  0  0  0  0  0  0  0
    1.8524   16.6507   -1.8340 H   0  0  0  0  0  0  0  0  0  0  0  0
    2.7762   17.2856    1.0360 H   0  0  0  0  0  0  0  0  0  0  0  0
    3.8224   17.1694   -0.4480 H   0  0  0  0  0  0  0  0  0  0  0  0
    3.3694   19.5155    0.1969 H   0  0  0  0  0  0  0  0  0  0  0  0
    2.7005   19.0878   -1.4265 H   0  0  0  0  0  0  0  0  0  0  0  0
    1.0765   20.3999   -0.2457 H   0  0  0  0  0  0  0  0  0  0  0  0
    2.0170   18.9850    1.8540 H   0  0  0  0  0  0  0  0  0  0  0  0
   -0.4143   19.8606   -2.1632 H   0  0  0  0  0  0  0  0  0  0  0  0
    0.9533   18.7459   -2.5003 H   0  0  0  0  0  0  0  0  0  0  0  0
   -0.7323   18.1252   -2.5003 H   0  0  0  0  0  0  0  0  0  0  0  0
   -1.1691   18.9463    1.2199 H   0  0  0  0  0  0  0  0  0  0  0  0
   -1.4882   20.0040   -0.1965 H   0  0  0  0  0  0  0  0  0  0  0  0
   -2.0677   18.3037   -0.1965 H   0  0  0  0  0  0  0  0  0  0  0  0
    1.8151   15.1307    1.6331 H   0  0  0  0  0  0  0  0  0  0  0  0
    2.6757   13.6513    1.0875 H   0  0  0  0  0  0  0  0  0  0  0  0
    3.5234   15.2350    1.0875 H   0  0  0  0  0  0  0  0  0  0  0  0
    3.9466   15.4225   -1.5596 H   0  0  0  0  0  0  0  0  0  0  0  0
    3.7006   13.6727   -1.0008 H   0  0  0  0  0  0  0  0  0  0  0  0
    2.5683   14.9982   -3.4808 H   0  0  0  0  0  0  0  0  0  0  0  0
    3.7788   13.6608   -3.3691 H   0  0  0  0  0  0  0  0  0  0  0  0
    2.2179   11.9882   -1.0380 H   0  0  0  0  0  0  0  0  0  0  0  0
    1.6756   10.9494   -2.3994 H   0  0  0  0  0  0  0  0  0  0  0  0
    3.3355   11.6359   -2.3994 H   0  0  0  0  0  0  0  0  0  0  0  0
  1  2  1  0
  2  3  1  0
  3  4  1  0
  4  5  1  0
  5  6  1  0
  6  7  1  0
  7  8  1  0
  7  9  1  0
  2 10  1  0
 10 11  1  0
 11 12  1  0
 12 13  1  0
 13 14  1  6
 13 15  1  0
 15 16  1  0
 16 17  1  0
 17 18  2  0
 18 19  1  0
 19 20  1  0
 20 21  1  0
 21 22  1  0
 22 23  1  0
 22 24  1  0
 24 25  1  0
 24 26  1  0
 19 27  1  0
 27 28  1  1
 27 29  1  0
 29 30  1  0
 30 31  1  0
 31 32  1  1
  7  5  1  0
 31 10  1  0
 31 13  1  0
 27 15  1  0
 24 18  1  0
  1 33  1  0
  1 34  1  0
  1 35  1  0
  2 36  1  6
  3 37  1  0
  3 38  1  0
  4 39  1  0
  4 40  1  0
  5 41  1  6
  8 42  1  0
  8 43  1  0
  8 44  1  0
  9 45  1  0
  9 46  1  0
  9 47  1  0
 10 48  1  6
 11 49  1  0
 11 50  1  0
 12 51  1  0
 12 52  1  0
 14 53  1  0
 14 54  1  0
 14 55  1  0
 15 56  1  1
 16 57  1  0
 16 58  1  0
 17 59  1  0
 19 60  1  6
 20 61  1  0
 20 62  1  0
 21 63  1  0
 21 64  1  0
 22 65  1  1
 23 66  1  0
 25 67  1  0
 25 68  1  0
 25 69  1  0
 26 70  1  0
 26 71  1  0
 26 72  1  0
 28 73  1  0
 28 74  1  0
 28 75  1  0
 29 76  1  0
 29 77  1  0
 30 78  1  0
 30 79  1  0
 32 80  1  0
 32 81  1  0
 32 82  1  0
M  END
>  <meeko>  (16) 
{"is_sidechain": [false], "intermolecular_energy": 2.731, "internal_energy": -0.839}

$$$$
EPH_relaxed_0001_pdb2pqr_Repair_120_r2_0001_out
     RDKit          3D

 82 86  0  0  0  0  0  0  0  0999 V2000
   -2.3580    7.8090   -0.0640 C   0  0  0  0  0  0  0  0  0  0  0  0
   -2.9800    9.2080   -0.0260 C   0  0  2  0  0  0  0  0  0  0  0  0
   -4.4890    9.1820   -0.3390 C   0  0  0  0  0  0  0  0  0  0  0  0
   -5.0840    7.7720   -0.3860 C   0  0  0  0  0  0  0  0  0  0  0  0
   -5.7520    7.4960   -1.6990 C   0  0  2  0  0  0  0  0  0  0  0  0
   -6.7250    8.4720   -2.0930 O   0  0  0  0  0  0  0  0  0  0  0  0
   -7.2230    7.1500   -1.8320 C   0  0  0  0  0  0  0  0  0  0  0  0
   -8.1160    7.0620   -0.6340 C   0  0  0  0  0  0  0  0  0  0  0  0
   -7.6790    6.4250   -3.0600 C   0  0  0  0  0  0  0  0  0  0  0  0
   -2.2600   10.1230   -1.0100 C   0  0  1  0  0  0  0  0  0  0  0  0
   -2.9170   11.5250   -1.1130 C   0  0  0  0  0  0  0  0  0  0  0  0
   -1.7690   12.5430   -1.3380 C   0  0  0  0  0  0  0  0  0  0  0  0
   -0.5390   11.6720   -1.6870 C   0  0  1  0  0  0  0  0  0  0  0  0
   -0.7050   11.3330   -3.2020 C   0  0  0  0  0  0  0  0  0  0  0  0
    0.8600   12.3000   -1.3860 C   0  0  2  0  0  0  0  0  0  0  0  0
    1.1830   13.5820   -2.1720 C   0  0  0  0  0  0  0  0  0  0  0  0
    1.8710   13.3720   -3.4800 C   0  0  0  0  0  0  0  0  0  0  0  0
    2.4710   12.2330   -3.8740 C   0  0  0  0  0  0  0  0  0  0  0  0
    2.5810   11.0320   -2.9260 C   0  0  1  0  0  0  0  0  0  0  0  0
    4.0260   10.4710   -2.9670 C   0  0  0  0  0  0  0  0  0  0  0  0
    4.4850   10.1400   -4.3840 C   0  0  0  0  0  0  0  0  0  0  0  0
    4.4170   11.3730   -5.2810 C   0  0  2  0  0  0  0  0  0  0  0  0
    5.3840   12.3260   -4.8300 O   0  0  0  0  0  0  0  0  0  0  0  0
    3.0090   12.0310   -5.3120 C   0  0  0  0  0  0  0  0  0  0  0  0
    2.0230   11.1140   -6.0760 C   0  0  0  0  0  0  0  0  0  0  0  0
    3.1130   13.3410   -6.1380 C   0  0  0  0  0  0  0  0  0  0  0  0
    2.0600   11.2690   -1.4440 C   0  0  1  0  0  0  0  0  0  0  0  0
    3.2030   11.8660   -0.5670 C   0  0  0  0  0  0  0  0  0  0  0  0
    1.6870    9.8810   -0.8020 C   0  0  0  0  0  0  0  0  0  0  0  0
    0.2520    9.3700   -1.0350 C   0  0  0  0  0  0  0  0  0  0  0  0
   -0.7770   10.4590   -0.7150 C   0  0  2  0  0  0  0  0  0  0  0  0
   -0.6490   10.8050    0.8080 C   0  0  0  0  0  0  0  0  0  0  0  0
   -2.1986    7.4505    0.9637 H   0  0  0  0  0  0  0  0  0  0  0  0
   -3.0350    7.1209   -0.5915 H   0  0  0  0  0  0  0  0  0  0  0  0
   -1.3936    7.8507   -0.5915 H   0  0  0  0  0  0  0  0  0  0  0  0
   -2.8622    9.5947    0.9970 H   0  0  0  0  0  0  0  0  0  0  0  0
   -5.0149    9.7550    0.4389 H   0  0  0  0  0  0  0  0  0  0  0  0
   -4.6169    9.6183   -1.3406 H   0  0  0  0  0  0  0  0  0  0  0  0
   -4.2774    7.0394   -0.2354 H   0  0  0  0  0  0  0  0  0  0  0  0
   -5.8415    7.6927    0.4076 H   0  0  0  0  0  0  0  0  0  0  0  0
   -4.8425    7.0143   -2.0873 H   0  0  0  0  0  0  0  0  0  0  0  0
   -7.5087    7.1218    0.2812 H   0  0  0  0  0  0  0  0  0  0  0  0
   -8.8359    7.8936   -0.6514 H   0  0  0  0  0  0  0  0  0  0  0  0
   -8.6597    6.1059   -0.6514 H   0  0  0  0  0  0  0  0  0  0  0  0
   -8.2436    5.5274   -2.7675 H   0  0  0  0  0  0  0  0  0  0  0  0
   -8.3245    7.0856   -3.6574 H   0  0  0  0  0  0  0  0  0  0  0  0
   -6.8040    6.1293   -3.6574 H   0  0  0  0  0  0  0  0  0  0  0  0
   -2.3329    9.5083   -1.9193 H   0  0  0  0  0  0  0  0  0  0  0  0
   -3.6190   11.5529   -1.9594 H   0  0  0  0  0  0  0  0  0  0  0  0
   -3.4825   11.7636   -0.2002 H   0  0  0  0  0  0  0  0  0  0  0  0
   -2.0107   13.2240   -2.1674 H   0  0  0  0  0  0  0  0  0  0  0  0
   -1.5948   13.1773   -0.4564 H   0  0  0  0  0  0  0  0  0  0  0  0
   -1.1865   10.3496   -3.3071 H   0  0  0  0  0  0  0  0  0  0  0  0
   -1.3293   12.1003   -3.6832 H   0  0  0  0  0  0  0  0  0  0  0  0
    0.2839   11.3103   -3.6832 H   0  0  0  0  0  0  0  0  0  0  0  0
    0.7568   12.6114   -0.3361 H   0  0  0  0  0  0  0  0  0  0  0  0
    0.2372   14.1089   -2.3663 H   0  0  0  0  0  0  0  0  0  0  0  0
    1.8854   14.1531   -1.5471 H   0  0  0  0  0  0  0  0  0  0  0  0
    1.8893   14.2194   -4.1811 H   0  0  0  0  0  0  0  0  0  0  0  0
    1.8771   10.2777   -3.3075 H   0  0  0  0  0  0  0  0  0  0  0  0
    4.7080   11.2220   -2.5418 H   0  0  0  0  0  0  0  0  0  0  0  0
    4.0384    9.5375   -2.3853 H   0  0  0  0  0  0  0  0  0  0  0  0
    5.5224    9.7758   -4.3506 H   0  0  0  0  0  0  0  0  0  0  0  0
    3.8196    9.3678   -4.7974 H   0  0  0  0  0  0  0  0  0  0  0  0
    4.6326   11.0453   -6.3087 H   0  0  0  0  0  0  0  0  0  0  0  0
    5.5140   12.9740   -5.5430 H   0  0  0  0  0  0  0  0  0  0  0  0
    1.4147   10.5483   -5.3549 H   0  0  0  0  0  0  0  0  0  0  0  0
    1.3652   11.7288   -6.7080 H   0  0  0  0  0  0  0  0  0  0  0  0
    2.5885   10.4134   -6.7080 H   0  0  0  0  0  0  0  0  0  0  0  0
    3.1812   14.2006   -5.4551 H   0  0  0  0  0  0  0  0  0  0  0  0
    4.0111   13.3043   -6.7722 H   0  0  0  0  0  0  0  0  0  0  0  0
    2.2204   13.4465   -6.7722 H   0  0  0  0  0  0  0  0  0  0  0  0
    2.9548   11.7364    0.4968 H   0  0  0  0  0  0  0  0  0  0  0  0
    4.1460   11.3453   -0.7896 H   0  0  0  0  0  0  0  0  0  0  0  0
    3.3144   12.9375   -0.7896 H   0  0  0  0  0  0  0  0  0  0  0  0
    2.3783    9.1291   -1.2104 H   0  0  0  0  0  0  0  0  0  0  0  0
    1.7639   10.0367    0.2842 H   0  0  0  0  0  0  0  0  0  0  0  0
    0.1433    9.0705   -2.0878 H   0  0  0  0  0  0  0  0  0  0  0  0
    0.0730    8.5122   -0.3700 H   0  0  0  0  0  0  0  0  0  0  0  0
   -0.9688    9.9406    1.4085 H   0  0  0  0  0  0  0  0  0  0  0  0
    0.3982   11.0470    1.0423 H   0  0  0  0  0  0  0  0  0  0  0  0
   -1.2865   11.6702    1.0423 H   0  0  0  0  0  0  0  0  0  0  0  0
  1  2  1  0
  2  3  1  0
  3  4  1  0
  4  5  1  0
  5  6  1  0
  6  7  1  0
  7  8  1  0
  7  9  1  0
  2 10  1  0
 10 11  1  0
 11 12  1  0
 12 13  1  0
 13 14  1  6
 13 15  1  0
 15 16  1  0
 16 17  1  0
 17 18  2  0
 18 19  1  0
 19 20  1  0
 20 21  1  0
 21 22  1  0
 22 23  1  0
 22 24  1  0
 24 25  1  0
 24 26  1  0
 19 27  1  0
 27 28  1  1
 27 29  1  0
 29 30  1  0
 30 31  1  0
 31 32  1  1
  7  5  1  0
 31 10  1  0
 31 13  1  0
 27 15  1  0
 24 18  1  0
  1 33  1  0
  1 34  1  0
  1 35  1  0
  2 36  1  1
  3 37  1  0
  3 38  1  0
  4 39  1  0
  4 40  1  0
  5 41  1  6
  8 42  1  0
  8 43  1  0
  8 44  1  0
  9 45  1  0
  9 46  1  0
  9 47  1  0
 10 48  1  6
 11 49  1  0
 11 50  1  0
 12 51  1  0
 12 52  1  0
 14 53  1  0
 14 54  1  0
 14 55  1  0
 15 56  1  1
 16 57  1  0
 16 58  1  0
 17 59  1  0
 19 60  1  6
 20 61  1  0
 20 62  1  0
 21 63  1  0
 21 64  1  0
 22 65  1  6
 23 66  1  0
 25 67  1  0
 25 68  1  0
 25 69  1  0
 26 70  1  0
 26 71  1  0
 26 72  1  0
 28 73  1  0
 28 74  1  0
 28 75  1  0
 29 76  1  0
 29 77  1  0
 30 78  1  0
 30 79  1  0
 32 80  1  0
 32 81  1  0
 32 82  1  0
M  END
>  <meeko>  (17) 
{"is_sidechain": [false], "intermolecular_energy": 2.731, "internal_energy": -0.839}

$$$$
EPH_relaxed_0001_pdb2pqr_Repair_120_r2_0001_out
     RDKit          3D

 82 86  0  0  0  0  0  0  0  0999 V2000
    2.6750   16.4870   -7.9050 C   0  0  0  0  0  0  0  0  0  0  0  0
    1.6200   15.3900   -7.7370 C   0  0  2  0  0  0  0  0  0  0  0  0
    0.3540   15.6680   -8.5720 C   0  0  0  0  0  0  0  0  0  0  0  0
    0.1350   14.6660   -9.7090 C   0  0  0  0  0  0  0  0  0  0  0  0
    0.7230   15.1530  -10.9990 C   0  0  2  0  0  0  0  0  0  0  0  0
    1.1320   14.1160  -11.9000 O   0  0  0  0  0  0  0  0  0  0  0  0
    2.1780   14.9540  -11.3830 C   0  0  0  0  0  0  0  0  0  0  0  0
    3.1340   14.2440  -10.4760 C   0  0  0  0  0  0  0  0  0  0  0  0
    2.7800   15.8670  -12.4050 C   0  0  0  0  0  0  0  0  0  0  0  0
    1.2510   15.2450   -6.2650 C   0  0  1  0  0  0  0  0  0  0  0  0
   -0.0540   16.0010   -5.8990 C   0  0  0  0  0  0  0  0  0  0  0  0
   -0.7750   15.1540   -4.8190 C   0  0  0  0  0  0  0  0  0  0  0  0
    0.2840   14.1240   -4.3610 C   0  0  1  0  0  0  0  0  0  0  0  0
    1.1790   14.8940   -3.3400 C   0  0  0  0  0  0  0  0  0  0  0  0
   -0.2660   12.7910   -3.7570 C   0  0  2  0  0  0  0  0  0  0  0  0
   -1.0890   12.9500   -2.4670 C   0  0  0  0  0  0  0  0  0  0  0  0
   -0.3070   12.8750   -1.1970 C   0  0  0  0  0  0  0  0  0  0  0  0
    0.9500   12.4070   -1.0800 C   0  0  0  0  0  0  0  0  0  0  0  0
    1.6790   11.7970   -2.2840 C   0  0  1  0  0  0  0  0  0  0  0  0
    2.3550   10.4660   -1.8600 C   0  0  0  0  0  0  0  0  0  0  0  0
    3.2670   10.6340   -0.6480 C   0  0  0  0  0  0  0  0  0  0  0  0
    2.4930   11.1880    0.5450 C   0  0  2  0  0  0  0  0  0  0  0  0
    1.5440   10.2070    0.9740 O   0  0  0  0  0  0  0  0  0  0  0  0
    1.7610   12.5230    0.2340 C   0  0  0  0  0  0  0  0  0  0  0  0
    2.8010   13.6590    0.0650 C   0  0  0  0  0  0  0  0  0  0  0  0
    0.9060   12.8990    1.4740 C   0  0  0  0  0  0  0  0  0  0  0  0
    0.8200   11.6480   -3.6120 C   0  0  1  0  0  0  0  0  0  0  0  0
    0.0440   10.2960   -3.5960 C   0  0  0  0  0  0  0  0  0  0  0  0
    1.7920   11.5870   -4.8490 C   0  0  0  0  0  0  0  0  0  0  0  0
    2.2040   12.9330   -5.4760 C   0  0  0  0  0  0  0  0  0  0  0  0
    0.9790   13.8140   -5.7370 C   0  0  2  0  0  0  0  0  0  0  0  0
    0.0710   13.0750   -6.7780 C   0  0  0  0  0  0  0  0  0  0  0  0
    3.0065   16.8317   -6.9144 H   0  0  0  0  0  0  0  0  0  0  0  0
    3.5356   16.0861   -8.4606 H   0  0  0  0  0  0  0  0  0  0  0  0
    2.2408   17.3313   -8.4606 H   0  0  0  0  0  0  0  0  0  0  0  0
    2.0584   14.4508   -8.1053 H   0  0  0  0  0  0  0  0  0  0  0  0
   -0.5185   15.6306   -7.9031 H   0  0  0  0  0  0  0  0  0  0  0  0
    0.4850   16.6570   -9.0355 H   0  0  0  0  0  0  0  0  0  0  0  0
    0.6098   13.7112   -9.4389 H   0  0  0  0  0  0  0  0  0  0  0  0
   -0.9485   14.5413   -9.8518 H   0  0  0  0  0  0  0  0  0  0  0  0
    0.0791   16.0447  -10.9831 H   0  0  0  0  0  0  0  0  0  0  0  0
    2.8637   14.4448   -9.4288 H   0  0  0  0  0  0  0  0  0  0  0  0
    3.0849   13.1617  -10.6663 H   0  0  0  0  0  0  0  0  0  0  0  0
    4.1559   14.6038  -10.6663 H   0  0  0  0  0  0  0  0  0  0  0  0
    3.3173   16.6818  -11.8976 H   0  0  0  0  0  0  0  0  0  0  0  0
    3.4824   15.3007  -13.0342 H   0  0  0  0  0  0  0  0  0  0  0  0
    1.9828   16.2895  -13.0342 H   0  0  0  0  0  0  0  0  0  0  0  0
    2.1656   15.6482   -5.8056 H   0  0  0  0  0  0  0  0  0  0  0  0
    0.1851   16.9982   -5.5009 H   0  0  0  0  0  0  0  0  0  0  0  0
   -0.6923   16.1376   -6.7844 H   0  0  0  0  0  0  0  0  0  0  0  0
   -1.0915   15.7865   -3.9765 H   0  0  0  0  0  0  0  0  0  0  0  0
   -1.6858   14.6729   -5.2050 H   0  0  0  0  0  0  0  0  0  0  0  0
    0.8750   14.6325   -2.3157 H   0  0  0  0  0  0  0  0  0  0  0  0
    2.2321   14.6152   -3.4924 H   0  0  0  0  0  0  0  0  0  0  0  0
    1.0606   15.9769   -3.4924 H   0  0  0  0  0  0  0  0  0  0  0  0
   -0.9780   12.4595   -4.5271 H   0  0  0  0  0  0  0  0  0  0  0  0
   -1.5883   13.9296   -2.5012 H   0  0  0  0  0  0  0  0  0  0  0  0
   -1.7867   12.0998   -2.4449 H   0  0  0  0  0  0  0  0  0  0  0  0
   -0.7992   13.2320   -0.2803 H   0  0  0  0  0  0  0  0  0  0  0  0
    2.4459   12.5289   -2.5776 H   0  0  0  0  0  0  0  0  0  0  0  0
    1.5709    9.7352   -1.6129 H   0  0  0  0  0  0  0  0  0  0  0  0
    2.9762   10.1239   -2.7009 H   0  0  0  0  0  0  0  0  0  0  0  0
    3.6915    9.6556   -0.3787 H   0  0  0  0  0  0  0  0  0  0  0  0
    4.0674   11.3428   -0.9067 H   0  0  0  0  0  0  0  0  0  0  0  0
    3.2225   11.4085    1.3382 H   0  0  0  0  0  0  0  0  0  0  0  0
    1.5380   10.2080    1.9460 H   0  0  0  0  0  0  0  0  0  0  0  0
    3.1235   14.0113    1.0559 H   0  0  0  0  0  0  0  0  0  0  0  0
    3.6714   13.2796   -0.4904 H   0  0  0  0  0  0  0  0  0  0  0  0
    2.3465   14.4926   -0.4904 H   0  0  0  0  0  0  0  0  0  0  0  0
    1.4624   12.6543    2.3908 H   0  0  0  0  0  0  0  0  0  0  0  0
    0.6865   13.9767    1.4549 H   0  0  0  0  0  0  0  0  0  0  0  0
   -0.0366   12.3324    1.4549 H   0  0  0  0  0  0  0  0  0  0  0  0
   -0.1332    9.9872   -2.5552 H   0  0  0  0  0  0  0  0  0  0  0  0
   -0.9201   10.4205   -4.1108 H   0  0  0  0  0  0  0  0  0  0  0  0
    0.6378    9.5263   -4.1108 H   0  0  0  0  0  0  0  0  0  0  0  0
    2.7106   11.0756   -4.5255 H   0  0  0  0  0  0  0  0  0  0  0  0
    1.2258   11.0649   -5.6344 H   0  0  0  0  0  0  0  0  0  0  0  0
    2.8842   13.4570   -4.7884 H   0  0  0  0  0  0  0  0  0  0  0  0
    2.7040   12.7345   -6.4355 H   0  0  0  0  0  0  0  0  0  0  0  0
   -0.6760   12.4670   -6.2466 H   0  0  0  0  0  0  0  0  0  0  0  0
   -0.4412   13.8161   -7.4092 H   0  0  0  0  0  0  0  0  0  0  0  0
    0.6927   12.4229   -7.4092 H   0  0  0  0  0  0  0  0  0  0  0  0
  1  2  1  0
  2  3  1  0
  3  4  1  0
  4  5  1  0
  5  6  1  0
  6  7  1  0
  7  8  1  0
  7  9  1  0
  2 10  1  0
 10 11  1  0
 11 12  1  0
 12 13  1  0
 13 14  1  1
 13 15  1  0
 15 16  1  0
 16 17  1  0
 17 18  2  0
 18 19  1  0
 19 20  1  0
 20 21  1  0
 21 22  1  0
 22 23  1  0
 22 24  1  0
 24 25  1  0
 24 26  1  0
 19 27  1  0
 27 28  1  1
 27 29  1  0
 29 30  1  0
 30 31  1  0
 31 32  1  6
  7  5  1  0
 31 10  1  0
 31 13  1  0
 27 15  1  0
 24 18  1  0
  1 33  1  0
  1 34  1  0
  1 35  1  0
  2 36  1  6
  3 37  1  0
  3 38  1  0
  4 39  1  0
  4 40  1  0
  5 41  1  6
  8 42  1  0
  8 43  1  0
  8 44  1  0
  9 45  1  0
  9 46  1  0
  9 47  1  0
 10 48  1  1
 11 49  1  0
 11 50  1  0
 12 51  1  0
 12 52  1  0
 14 53  1  0
 14 54  1  0
 14 55  1  0
 15 56  1  6
 16 57  1  0
 16 58  1  0
 17 59  1  0
 19 60  1  6
 20 61  1  0
 20 62  1  0
 21 63  1  0
 21 64  1  0
 22 65  1  1
 23 66  1  0
 25 67  1  0
 25 68  1  0
 25 69  1  0
 26 70  1  0
 26 71  1  0
 26 72  1  0
 28 73  1  0
 28 74  1  0
 28 75  1  0
 29 76  1  0
 29 77  1  0
 30 78  1  0
 30 79  1  0
 32 80  1  0
 32 81  1  0
 32 82  1  0
M  END
>  <meeko>  (18) 
{"is_sidechain": [false], "intermolecular_energy": 2.731, "internal_energy": -0.839}

$$$$
EPH_relaxed_0001_pdb2pqr_Repair_120_r2_0001_out
     RDKit          3D

 82 86  0  0  0  0  0  0  0  0999 V2000
    2.5280    9.7350   -2.8240 C   0  0  0  0  0  0  0  0  0  0  0  0
    2.0150   10.6190   -3.9640 C   0  0  2  0  0  0  0  0  0  0  0  0
    3.1610   11.1500   -4.8480 C   0  0  0  0  0  0  0  0  0  0  0  0
    2.6820   11.9740   -6.0460 C   0  0  0  0  0  0  0  0  0  0  0  0
    1.6800   13.0120   -5.6400 C   0  0  2  0  0  0  0  0  0  0  0  0
    0.4990   13.0530   -6.4510 O   0  0  0  0  0  0  0  0  0  0  0  0
    1.3360   14.2210   -6.4910 C   0  0  0  0  0  0  0  0  0  0  0  0
    1.9910   14.4550   -7.8150 C   0  0  0  0  0  0  0  0  0  0  0  0
    0.7330   15.4170   -5.8230 C   0  0  0  0  0  0  0  0  0  0  0  0
    1.2120   11.7840   -3.3970 C   0  0  1  0  0  0  0  0  0  0  0  0
   -0.1850   11.3510   -2.8800 C   0  0  0  0  0  0  0  0  0  0  0  0
   -0.4970   12.2320   -1.6430 C   0  0  0  0  0  0  0  0  0  0  0  0
    0.5640   13.3560   -1.6870 C   0  0  1  0  0  0  0  0  0  0  0  0
    0.0120   14.3890   -2.7200 C   0  0  0  0  0  0  0  0  0  0  0  0
    0.9100   14.0340   -0.3220 C   0  0  2  0  0  0  0  0  0  0  0  0
   -0.2590   14.7690    0.3570 C   0  0  0  0  0  0  0  0  0  0  0  0
   -0.4010   16.2110   -0.0030 C   0  0  0  0  0  0  0  0  0  0  0  0
    0.5380   16.9620   -0.6090 C   0  0  0  0  0  0  0  0  0  0  0  0
    1.9300   16.3910   -0.9100 C   0  0  1  0  0  0  0  0  0  0  0  0
    3.0130   17.4140   -0.4780 C   0  0  0  0  0  0  0  0  0  0  0  0
    2.7990   18.7900   -1.1010 C   0  0  0  0  0  0  0  0  0  0  0  0
    1.4280   19.3490   -0.7320 C   0  0  2  0  0  0  0  0  0  0  0  0
    1.4000   19.6100    0.6750 O   0  0  0  0  0  0  0  0  0  0  0  0
    0.2570   18.4000   -1.1100 C   0  0  0  0  0  0  0  0  0  0  0  0
    0.0990   18.3560   -2.6500 C   0  0  0  0  0  0  0  0  0  0  0  0
   -1.0560   19.0170   -0.5570 C   0  0  0  0  0  0  0  0  0  0  0  0
    2.2150   14.9300   -0.3540 C   0  0  1  0  0  0  0  0  0  0  0  0
    2.7360   15.0100    1.1130 C   0  0  0  0  0  0  0  0  0  0  0  0
    3.3690   14.2740   -1.2010 C   0  0  0  0  0  0  0  0  0  0  0  0
    2.9520   13.5160   -2.4760 C   0  0  0  0  0  0  0  0  0  0  0  0
    1.8110   12.5370   -2.1830 C   0  0  2  0  0  0  0  0  0  0  0  0
    2.3440   11.4730   -1.1640 C   0  0  0  0  0  0  0  0  0  0  0  0
    2.2633   10.1912   -1.8587 H   0  0  0  0  0  0  0  0  0  0  0  0
    2.0678    8.7386   -2.8971 H   0  0  0  0  0  0  0  0  0  0  0  0
    3.6215    9.6402   -2.8971 H   0  0  0  0  0  0  0  0  0  0  0  0
    1.3688    9.9965   -4.6003 H   0  0  0  0  0  0  0  0  0  0  0  0
    3.8125   11.7839   -4.2285 H   0  0  0  0  0  0  0  0  0  0  0  0
    3.6892   10.2733   -5.2510 H   0  0  0  0  0  0  0  0  0  0  0  0
    3.5481   12.4744   -6.5036 H   0  0  0  0  0  0  0  0  0  0  0  0
    2.1983   11.2914   -6.7602 H   0  0  0  0  0  0  0  0  0  0  0  0
    1.9689   12.9118   -4.5834 H   0  0  0  0  0  0  0  0  0  0  0  0
    3.0162   14.8212   -7.6573 H   0  0  0  0  0  0  0  0  0  0  0  0
    2.0214   13.5121   -8.3808 H   0  0  0  0  0  0  0  0  0  0  0  0
    1.4171   15.2037   -8.3808 H   0  0  0  0  0  0  0  0  0  0  0  0
    0.7937   15.2967   -4.7313 H   0  0  0  0  0  0  0  0  0  0  0  0
    1.2831   16.3210   -6.1234 H   0  0  0  0  0  0  0  0  0  0  0  0
   -0.3209   15.5123   -6.1234 H   0  0  0  0  0  0  0  0  0  0  0  0
    1.1967   12.4428   -4.2777 H   0  0  0  0  0  0  0  0  0  0  0  0
   -0.9439   11.5110   -3.6601 H   0  0  0  0  0  0  0  0  0  0  0  0
   -0.1951   10.2830   -2.6169 H   0  0  0  0  0  0  0  0  0  0  0  0
   -1.5112   12.6524   -1.7115 H   0  0  0  0  0  0  0  0  0  0  0  0
   -0.4605   11.6604   -0.7039 H   0  0  0  0  0  0  0  0  0  0  0  0
   -0.4409   15.2366   -2.1847 H   0  0  0  0  0  0  0  0  0  0  0  0
    0.8362   14.7523   -3.3514 H   0  0  0  0  0  0  0  0  0  0  0  0
   -0.7481   13.9057   -3.3514 H   0  0  0  0  0  0  0  0  0  0  0  0
    1.1326   13.1688    0.3198 H   0  0  0  0  0  0  0  0  0  0  0  0
   -1.1911   14.2557    0.0782 H   0  0  0  0  0  0  0  0  0  0  0  0
   -0.0482   14.7442    1.4363 H   0  0  0  0  0  0  0  0  0  0  0  0
   -1.3532   16.7013    0.2480 H   0  0  0  0  0  0  0  0  0  0  0  0
    1.9692   16.2428   -1.9993 H   0  0  0  0  0  0  0  0  0  0  0  0
    2.9863   17.5146    0.6171 H   0  0  0  0  0  0  0  0  0  0  0  0
    3.9861   17.0374   -0.8261 H   0  0  0  0  0  0  0  0  0  0  0  0
    3.5775   19.4757   -0.7353 H   0  0  0  0  0  0  0  0  0  0  0  0
    2.8552   18.6923   -2.1952 H   0  0  0  0  0  0  0  0  0  0  0  0
    1.2822   20.2729   -1.3109 H   0  0  0  0  0  0  0  0  0  0  0  0
    2.2690   19.9670    0.9250 H   0  0  0  0  0  0  0  0  0  0  0  0
   -0.9319   18.0689   -2.9048 H   0  0  0  0  0  0  0  0  0  0  0  0
    0.3174   19.3491   -3.0695 H   0  0  0  0  0  0  0  0  0  0  0  0
    0.7993   17.6187   -3.0695 H   0  0  0  0  0  0  0  0  0  0  0  0
   -1.0318   19.0056    0.5427 H   0  0  0  0  0  0  0  0  0  0  0  0
   -1.1513   20.0541   -0.9109 H   0  0  0  0  0  0  0  0  0  0  0  0
   -1.9152   18.4284   -0.9109 H   0  0  0  0  0  0  0  0  0  0  0  0
    1.8939   14.8807    1.8088 H   0  0  0  0  0  0  0  0  0  0  0  0
    3.4772   14.2151    1.2827 H   0  0  0  0  0  0  0  0  0  0  0  0
    3.2046   15.9906    1.2827 H   0  0  0  0  0  0  0  0  0  0  0  0
    4.0583   15.0768   -1.5018 H   0  0  0  0  0  0  0  0  0  0  0  0
    3.8091   13.5098   -0.5435 H   0  0  0  0  0  0  0  0  0  0  0  0
    2.6186   14.2411   -3.2330 H   0  0  0  0  0  0  0  0  0  0  0  0
    3.8177   12.9458   -2.8442 H   0  0  0  0  0  0  0  0  0  0  0  0
    2.1666   11.8271   -0.1378 H   0  0  0  0  0  0  0  0  0  0  0  0
    1.8168   10.5202   -1.3194 H   0  0  0  0  0  0  0  0  0  0  0  0
    3.4228   11.3247   -1.3194 H   0  0  0  0  0  0  0  0  0  0  0  0
  1  2  1  0
  2  3  1  0
  3  4  1  0
  4  5  1  0
  5  6  1  0
  6  7  1  0
  7  8  1  0
  7  9  1  0
  2 10  1  0
 10 11  1  0
 11 12  1  0
 12 13  1  0
 13 14  1  6
 13 15  1  0
 15 16  1  0
 16 17  1  0
 17 18  2  0
 18 19  1  0
 19 20  1  0
 20 21  1  0
 21 22  1  0
 22 23  1  0
 22 24  1  0
 24 25  1  0
 24 26  1  0
 19 27  1  0
 27 28  1  1
 27 29  1  0
 29 30  1  0
 30 31  1  0
 31 32  1  1
  7  5  1  0
 31 10  1  0
 31 13  1  0
 27 15  1  0
 24 18  1  0
  1 33  1  0
  1 34  1  0
  1 35  1  0
  2 36  1  6
  3 37  1  0
  3 38  1  0
  4 39  1  0
  4 40  1  0
  5 41  1  1
  8 42  1  0
  8 43  1  0
  8 44  1  0
  9 45  1  0
  9 46  1  0
  9 47  1  0
 10 48  1  6
 11 49  1  0
 11 50  1  0
 12 51  1  0
 12 52  1  0
 14 53  1  0
 14 54  1  0
 14 55  1  0
 15 56  1  1
 16 57  1  0
 16 58  1  0
 17 59  1  0
 19 60  1  6
 20 61  1  0
 20 62  1  0
 21 63  1  0
 21 64  1  0
 22 65  1  6
 23 66  1  0
 25 67  1  0
 25 68  1  0
 25 69  1  0
 26 70  1  0
 26 71  1  0
 26 72  1  0
 28 73  1  0
 28 74  1  0
 28 75  1  0
 29 76  1  0
 29 77  1  0
 30 78  1  0
 30 79  1  0
 32 80  1  0
 32 81  1  0
 32 82  1  0
M  END
>  <meeko>  (19) 
{"is_sidechain": [false], "intermolecular_energy": 2.731, "internal_energy": -0.839}

$$$$
