EPH_relaxed_0001_pdb2pqr_Repair_280_r2_0001_out
     RDKit          3D

 82 86  0  0  0  0  0  0  0  0999 V2000
   -1.5960    8.5640   -1.8140 C   0  0  0  0  0  0  0  0  0  0  0  0
   -2.0040    9.1390   -0.4550 C   0  0  2  0  0  0  0  0  0  0  0  0
   -3.4930    9.5380   -0.4170 C   0  0  0  0  0  0  0  0  0  0  0  0
   -4.4460    8.3470   -0.2830 C   0  0  0  0  0  0  0  0  0  0  0  0
   -5.0860    7.9990   -1.5930 C   0  0  2  0  0  0  0  0  0  0  0  0
   -6.3430    8.6450   -1.8350 O   0  0  0  0  0  0  0  0  0  0  0  0
   -6.3790    7.2140   -1.7090 C   0  0  0  0  0  0  0  0  0  0  0  0
   -7.1090    6.7280   -0.4970 C   0  0  0  0  0  0  0  0  0  0  0  0
   -6.6720    6.5030   -2.9940 C   0  0  0  0  0  0  0  0  0  0  0  0
   -1.1340   10.3440   -0.1180 C   0  0  1  0  0  0  0  0  0  0  0  0
   -0.0600   10.0240    0.9560 C   0  0  0  0  0  0  0  0  0  0  0  0
    1.1960   10.8590    0.5960 C   0  0  0  0  0  0  0  0  0  0  0  0
    0.7000   11.8710   -0.4630 C   0  0  1  0  0  0  0  0  0  0  0  0
    0.0220   13.0120    0.3580 C   0  0  0  0  0  0  0  0  0  0  0  0
    1.7820   12.4310   -1.4440 C   0  0  2  0  0  0  0  0  0  0  0  0
    2.9100   13.2390   -0.7790 C   0  0  0  0  0  0  0  0  0  0  0  0
    2.6610   14.7060   -0.6630 C   0  0  0  0  0  0  0  0  0  0  0  0
    1.7110   15.3920   -1.3250 C   0  0  0  0  0  0  0  0  0  0  0  0
    0.8270   14.7040   -2.3720 C   0  0  1  0  0  0  0  0  0  0  0  0
    0.7490   15.5860   -3.6450 C   0  0  0  0  0  0  0  0  0  0  0  0
    0.2940   17.0100   -3.3430 C   0  0  0  0  0  0  0  0  0  0  0  0
    1.2310   17.6820   -2.3430 C   0  0  2  0  0  0  0  0  0  0  0  0
    2.5100   17.8620   -2.9590 O   0  0  0  0  0  0  0  0  0  0  0  0
    1.3950   16.8780   -1.0230 C   0  0  0  0  0  0  0  0  0  0  0  0
    0.0790   16.9400   -0.2090 C   0  0  0  0  0  0  0  0  0  0  0  0
    2.4730   17.5910   -0.1610 C   0  0  0  0  0  0  0  0  0  0  0  0
    1.1890   13.1910   -2.6990 C   0  0  1  0  0  0  0  0  0  0  0  0
    2.2800   13.1340   -3.8110 C   0  0  0  0  0  0  0  0  0  0  0  0
   -0.0830   12.4730   -3.2870 C   0  0  0  0  0  0  0  0  0  0  0  0
   -1.0520   11.8360   -2.2730 C   0  0  0  0  0  0  0  0  0  0  0  0
   -0.2980   10.9610   -1.2680 C   0  0  2  0  0  0  0  0  0  0  0  0
    0.3760    9.7920   -2.0630 C   0  0  0  0  0  0  0  0  0  0  0  0
   -0.9656    7.6755   -1.6619 H   0  0  0  0  0  0  0  0  0  0  0  0
   -2.4971    8.2819   -2.3783 H   0  0  0  0  0  0  0  0  0  0  0  0
   -1.0322    9.3214   -2.3783 H   0  0  0  0  0  0  0  0  0  0  0  0
   -1.8538    8.3500    0.2966 H   0  0  0  0  0  0  0  0  0  0  0  0
   -3.6513   10.2077    0.4411 H   0  0  0  0  0  0  0  0  0  0  0  0
   -3.7200   10.0250   -1.3768 H   0  0  0  0  0  0  0  0  0  0  0  0
   -3.8798    7.4764    0.0796 H   0  0  0  0  0  0  0  0  0  0  0  0
   -5.2416    8.6224    0.4249 H   0  0  0  0  0  0  0  0  0  0  0  0
   -4.1019    7.8741   -2.0682 H   0  0  0  0  0  0  0  0  0  0  0  0
   -6.5885    7.0745    0.4080 H   0  0  0  0  0  0  0  0  0  0  0  0
   -8.1353    7.1237   -0.5039 H   0  0  0  0  0  0  0  0  0  0  0  0
   -7.1399    5.6285   -0.5039 H   0  0  0  0  0  0  0  0  0  0  0  0
   -7.0828    5.5061   -2.7761 H   0  0  0  0  0  0  0  0  0  0  0  0
   -7.4046    7.0825   -3.5749 H   0  0  0  0  0  0  0  0  0  0  0  0
   -5.7438    6.3981   -3.5749 H   0  0  0  0  0  0  0  0  0  0  0  0
   -1.9137   11.0508    0.2022 H   0  0  0  0  0  0  0  0  0  0  0  0
   -0.4275   10.3039    1.9543 H   0  0  0  0  0  0  0  0  0  0  0  0
    0.1724    8.9490    0.9738 H   0  0  0  0  0  0  0  0  0  0  0  0
    1.5817   11.3827    1.4831 H   0  0  0  0  0  0  0  0  0  0  0  0
    2.0201   10.2336    0.2222 H   0  0  0  0  0  0  0  0  0  0  0  0
    0.1414   12.8110    1.4329 H   0  0  0  0  0  0  0  0  0  0  0  0
    0.4955   13.9734    0.1099 H   0  0  0  0  0  0  0  0  0  0  0  0
   -1.0488   13.0558    0.1099 H   0  0  0  0  0  0  0  0  0  0  0  0
    2.2549   11.5125   -1.8218 H   0  0  0  0  0  0  0  0  0  0  0  0
    3.0626   12.8391    0.2343 H   0  0  0  0  0  0  0  0  0  0  0  0
    3.7880   13.1303   -1.4327 H   0  0  0  0  0  0  0  0  0  0  0  0
    3.3084   15.2743    0.0211 H   0  0  0  0  0  0  0  0  0  0  0  0
   -0.1707   14.6170   -1.9170 H   0  0  0  0  0  0  0  0  0  0  0  0
    1.7458   15.6252   -4.1084 H   0  0  0  0  0  0  0  0  0  0  0  0
    0.0065   15.1342   -4.3192 H   0  0  0  0  0  0  0  0  0  0  0  0
    0.2874   17.5914   -4.2768 H   0  0  0  0  0  0  0  0  0  0  0  0
   -0.7151   16.9709   -2.9068 H   0  0  0  0  0  0  0  0  0  0  0  0
    0.7832   18.6485   -2.0683 H   0  0  0  0  0  0  0  0  0  0  0  0
    2.9560   18.5960   -2.5020 H   0  0  0  0  0  0  0  0  0  0  0  0
    0.3119   16.9290    0.8660 H   0  0  0  0  0  0  0  0  0  0  0  0
   -0.4626   17.8647   -0.4574 H   0  0  0  0  0  0  0  0  0  0  0  0
   -0.5471   16.0704   -0.4574 H   0  0  0  0  0  0  0  0  0  0  0  0
    2.2475   17.4418    0.9052 H   0  0  0  0  0  0  0  0  0  0  0  0
    3.4629   17.1689   -0.3890 H   0  0  0  0  0  0  0  0  0  0  0  0
    2.4719   18.6671   -0.3890 H   0  0  0  0  0  0  0  0  0  0  0  0
    3.2754   13.0820   -3.3457 H   0  0  0  0  0  0  0  0  0  0  0  0
    2.1204   12.2430   -4.4360 H   0  0  0  0  0  0  0  0  0  0  0  0
    2.2141   14.0368   -4.4360 H   0  0  0  0  0  0  0  0  0  0  0  0
   -0.6488   13.2187   -3.8647 H   0  0  0  0  0  0  0  0  0  0  0  0
    0.3087   11.6321   -3.8782 H   0  0  0  0  0  0  0  0  0  0  0  0
   -1.5801   12.6338   -1.7301 H   0  0  0  0  0  0  0  0  0  0  0  0
   -1.7666   11.2040   -2.8207 H   0  0  0  0  0  0  0  0  0  0  0  0
    0.7967    9.0623   -1.3556 H   0  0  0  0  0  0  0  0  0  0  0  0
   -0.3758    9.2977   -2.6959 H   0  0  0  0  0  0  0  0  0  0  0  0
    1.1804   10.1950   -2.6959 H   0  0  0  0  0  0  0  0  0  0  0  0
  1  2  1  0
  2  3  1  0
  3  4  1  0
  4  5  1  0
  5  6  1  0
  6  7  1  0
  7  8  1  0
  7  9  1  0
  2 10  1  0
 10 11  1  0
 11 12  1  0
 12 13  1  0
 13 14  1  1
 13 15  1  0
 15 16  1  0
 16 17  1  0
 17 18  2  0
 18 19  1  0
 19 20  1  0
 20 21  1  0
 21 22  1  0
 22 23  1  0
 22 24  1  0
 24 25  1  0
 24 26  1  0
 19 27  1  0
 27 28  1  6
 27 29  1  0
 29 30  1  0
 30 31  1  0
 31 32  1  6
  7  5  1  0
 31 10  1  0
 31 13  1  0
 27 15  1  0
 24 18  1  0
  1 33  1  0
  1 34  1  0
  1 35  1  0
  2 36  1  1
  3 37  1  0
  3 38  1  0
  4 39  1  0
  4 40  1  0
  5 41  1  6
  8 42  1  0
  8 43  1  0
  8 44  1  0
  9 45  1  0
  9 46  1  0
  9 47  1  0
 10 48  1  1
 11 49  1  0
 11 50  1  0
 12 51  1  0
 12 52  1  0
 14 53  1  0
 14 54  1  0
 14 55  1  0
 15 56  1  6
 16 57  1  0
 16 58  1  0
 17 59  1  0
 19 60  1  1
 20 61  1  0
 20 62  1  0
 21 63  1  0
 21 64  1  0
 22 65  1  1
 23 66  1  0
 25 67  1  0
 25 68  1  0
 25 69  1  0
 26 70  1  0
 26 71  1  0
 26 72  1  0
 28 73  1  0
 28 74  1  0
 28 75  1  0
 29 76  1  0
 29 77  1  0
 30 78  1  0
 30 79  1  0
 32 80  1  0
 32 81  1  0
 32 82  1  0
M  END
>  <meeko>  (1) 
{"is_sidechain": [false], "intermolecular_energy": 2.731, "internal_energy": -0.839}

$$$$
EPH_relaxed_0001_pdb2pqr_Repair_280_r2_0001_out
     RDKit          3D

 82 86  0  0  0  0  0  0  0  0999 V2000
    0.4080   18.4320   -0.0200 C   0  0  0  0  0  0  0  0  0  0  0  0
    1.4950   17.3760   -0.2410 C   0  0  2  0  0  0  0  0  0  0  0  0
    2.7080   17.9420   -1.0070 C   0  0  0  0  0  0  0  0  0  0  0  0
    3.9400   18.1690   -0.1280 C   0  0  0  0  0  0  0  0  0  0  0  0
    3.5630   18.6340    1.2460 C   0  0  2  0  0  0  0  0  0  0  0  0
    3.8100   20.0240    1.4970 O   0  0  0  0  0  0  0  0  0  0  0  0
    4.5730   19.0930    2.2810 C   0  0  0  0  0  0  0  0  0  0  0  0
    6.0410   19.1070    1.9860 C   0  0  0  0  0  0  0  0  0  0  0  0
    4.1830   19.0590    3.7260 C   0  0  0  0  0  0  0  0  0  0  0  0
    0.9150   16.1830   -0.9910 C   0  0  1  0  0  0  0  0  0  0  0  0
    0.7670   16.4480   -2.5130 C   0  0  0  0  0  0  0  0  0  0  0  0
    1.0510   15.1040   -3.2310 C   0  0  0  0  0  0  0  0  0  0  0  0
    1.0260   14.0460   -2.1030 C   0  0  1  0  0  0  0  0  0  0  0  0
   -0.4880   13.7460   -1.8700 C   0  0  0  0  0  0  0  0  0  0  0  0
    1.8400   12.7380   -2.3650 C   0  0  2  0  0  0  0  0  0  0  0  0
    1.3580   11.8970   -3.5600 C   0  0  0  0  0  0  0  0  0  0  0  0
    0.3330   10.8600   -3.2380 C   0  0  0  0  0  0  0  0  0  0  0  0
    0.0280   10.4190   -2.0040 C   0  0  0  0  0  0  0  0  0  0  0  0
    0.8120   10.9040   -0.7780 C   0  0  1  0  0  0  0  0  0  0  0  0
    1.1820    9.6890    0.1130 C   0  0  0  0  0  0  0  0  0  0  0  0
   -0.0340    8.8490    0.4930 C   0  0  0  0  0  0  0  0  0  0  0  0
   -0.7540    8.3380   -0.7520 C   0  0  2  0  0  0  0  0  0  0  0  0
    0.0980    7.4070   -1.4270 O   0  0  0  0  0  0  0  0  0  0  0  0
   -1.1670    9.4730   -1.7300 C   0  0  0  0  0  0  0  0  0  0  0  0
   -2.3140   10.3060   -1.1060 C   0  0  0  0  0  0  0  0  0  0  0  0
   -1.7550    8.8120   -3.0060 C   0  0  0  0  0  0  0  0  0  0  0  0
    2.0590   11.8420   -1.0790 C   0  0  1  0  0  0  0  0  0  0  0  0
    3.3250   10.9740   -1.3510 C   0  0  0  0  0  0  0  0  0  0  0  0
    2.3770   12.7010    0.2020 C   0  0  0  0  0  0  0  0  0  0  0  0
    1.6280   14.0400    0.3430 C   0  0  0  0  0  0  0  0  0  0  0  0
    1.7180   14.8580   -0.9490 C   0  0  2  0  0  0  0  0  0  0  0  0
    3.2280   15.1950   -1.1980 C   0  0  0  0  0  0  0  0  0  0  0  0
    0.2551   18.5805    1.0591 H   0  0  0  0  0  0  0  0  0  0  0  0
    0.7199   19.3812   -0.4802 H   0  0  0  0  0  0  0  0  0  0  0  0
   -0.5317   18.0928   -0.4802 H   0  0  0  0  0  0  0  0  0  0  0  0
    1.8512   17.0552    0.7491 H   0  0  0  0  0  0  0  0  0  0  0  0
    2.9763   17.2335   -1.8046 H   0  0  0  0  0  0  0  0  0  0  0  0
    2.4091   18.9245   -1.4011 H   0  0  0  0  0  0  0  0  0  0  0  0
    4.4970   17.2242   -0.0442 H   0  0  0  0  0  0  0  0  0  0  0  0
    4.5565   18.9500   -0.5970 H   0  0  0  0  0  0  0  0  0  0  0  0
    2.7390   17.9067    1.2910 H   0  0  0  0  0  0  0  0  0  0  0  0
    6.6048   19.1124    2.9305 H   0  0  0  0  0  0  0  0  0  0  0  0
    6.3069   18.2114    1.4054 H   0  0  0  0  0  0  0  0  0  0  0  0
    6.2897   20.0076    1.4054 H   0  0  0  0  0  0  0  0  0  0  0  0
    5.0847   19.1376    4.3511 H   0  0  0  0  0  0  0  0  0  0  0  0
    3.5109   19.9020    3.9443 H   0  0  0  0  0  0  0  0  0  0  0  0
    3.6669   18.1125    3.9443 H   0  0  0  0  0  0  0  0  0  0  0  0
   -0.0335   16.0664   -0.4462 H   0  0  0  0  0  0  0  0  0  0  0  0
   -0.2533   16.7906   -2.7403 H   0  0  0  0  0  0  0  0  0  0  0  0
    1.4652   17.2295   -2.8474 H   0  0  0  0  0  0  0  0  0  0  0  0
    0.2735   14.8918   -3.9797 H   0  0  0  0  0  0  0  0  0  0  0  0
    2.0087   15.1144   -3.7720 H   0  0  0  0  0  0  0  0  0  0  0  0
   -0.6918   13.7056   -0.7898 H   0  0  0  0  0  0  0  0  0  0  0  0
   -1.0941   14.5415   -2.3280 H   0  0  0  0  0  0  0  0  0  0  0  0
   -0.7450   12.7795   -2.3280 H   0  0  0  0  0  0  0  0  0  0  0  0
    2.8268   13.1290   -2.6538 H   0  0  0  0  0  0  0  0  0  0  0  0
    0.9266   12.5814   -4.3053 H   0  0  0  0  0  0  0  0  0  0  0  0
    2.2407   11.3500   -3.9229 H   0  0  0  0  0  0  0  0  0  0  0  0
   -0.2195   10.4193   -4.0810 H   0  0  0  0  0  0  0  0  0  0  0  0
    0.1354   11.5766   -0.2305 H   0  0  0  0  0  0  0  0  0  0  0  0
    1.8922    9.0529   -0.4356 H   0  0  0  0  0  0  0  0  0  0  0  0
    1.6217   10.0789    1.0428 H   0  0  0  0  0  0  0  0  0  0  0  0
    0.2958    7.9903    1.0962 H   0  0  0  0  0  0  0  0  0  0  0  0
   -0.7297    9.4779    1.0678 H   0  0  0  0  0  0  0  0  0  0  0  0
   -1.6855    7.8560   -0.4204 H   0  0  0  0  0  0  0  0  0  0  0  0
   -0.4720    6.7690   -1.8890 H   0  0  0  0  0  0  0  0  0  0  0  0
   -2.2475   10.2577   -0.0091 H   0  0  0  0  0  0  0  0  0  0  0  0
   -2.2268   11.3527   -1.4329 H   0  0  0  0  0  0  0  0  0  0  0  0
   -3.2824    9.8992   -1.4329 H   0  0  0  0  0  0  0  0  0  0  0  0
   -2.4603    8.0191   -2.7164 H   0  0  0  0  0  0  0  0  0  0  0  0
   -2.2817    9.5712   -3.6028 H   0  0  0  0  0  0  0  0  0  0  0  0
   -0.9396    8.3774   -3.6028 H   0  0  0  0  0  0  0  0  0  0  0  0
    3.7720   10.6675   -0.3938 H   0  0  0  0  0  0  0  0  0  0  0  0
    3.0403   10.0802   -1.9256 H   0  0  0  0  0  0  0  0  0  0  0  0
    4.0560   11.5618   -1.9256 H   0  0  0  0  0  0  0  0  0  0  0  0
    2.1329   12.0886    1.0826 H   0  0  0  0  0  0  0  0  0  0  0  0
    3.4389   12.9730    0.1103 H   0  0  0  0  0  0  0  0  0  0  0  0
    0.5703   13.8386    0.5683 H   0  0  0  0  0  0  0  0  0  0  0  0
    2.0921   14.6172    1.1563 H   0  0  0  0  0  0  0  0  0  0  0  0
    3.7421   15.3097   -0.2323 H   0  0  0  0  0  0  0  0  0  0  0  0
    3.6965   14.3793   -1.7682 H   0  0  0  0  0  0  0  0  0  0  0  0
    3.3053   16.1325   -1.7682 H   0  0  0  0  0  0  0  0  0  0  0  0
  1  2  1  0
  2  3  1  0
  3  4  1  0
  4  5  1  0
  5  6  1  0
  6  7  1  0
  7  8  1  0
  7  9  1  0
  2 10  1  0
 10 11  1  0
 11 12  1  0
 12 13  1  0
 13 14  1  1
 13 15  1  0
 15 16  1  0
 16 17  1  0
 17 18  2  0
 18 19  1  0
 19 20  1  0
 20 21  1  0
 21 22  1  0
 22 23  1  0
 22 24  1  0
 24 25  1  0
 24 26  1  0
 19 27  1  0
 27 28  1  6
 27 29  1  0
 29 30  1  0
 30 31  1  0
 31 32  1  6
  7  5  1  0
 31 10  1  0
 31 13  1  0
 27 15  1  0
 24 18  1  0
  1 33  1  0
  1 34  1  0
  1 35  1  0
  2 36  1  1
  3 37  1  0
  3 38  1  0
  4 39  1  0
  4 40  1  0
  5 41  1  1
  8 42  1  0
  8 43  1  0
  8 44  1  0
  9 45  1  0
  9 46  1  0
  9 47  1  0
 10 48  1  1
 11 49  1  0
 11 50  1  0
 12 51  1  0
 12 52  1  0
 14 53  1  0
 14 54  1  0
 14 55  1  0
 15 56  1  6
 16 57  1  0
 16 58  1  0
 17 59  1  0
 19 60  1  1
 20 61  1  0
 20 62  1  0
 21 63  1  0
 21 64  1  0
 22 65  1  1
 23 66  1  0
 25 67  1  0
 25 68  1  0
 25 69  1  0
 26 70  1  0
 26 71  1  0
 26 72  1  0
 28 73  1  0
 28 74  1  0
 28 75  1  0
 29 76  1  0
 29 77  1  0
 30 78  1  0
 30 79  1  0
 32 80  1  0
 32 81  1  0
 32 82  1  0
M  END
>  <meeko>  (2) 
{"is_sidechain": [false], "intermolecular_energy": 2.731, "internal_energy": -0.839}

$$$$
EPH_relaxed_0001_pdb2pqr_Repair_280_r2_0001_out
     RDKit          3D

 82 86  0  0  0  0  0  0  0  0999 V2000
    2.3210   18.0240   -2.6880 C   0  0  0  0  0  0  0  0  0  0  0  0
    1.0300   17.6390   -1.9620 C   0  0  2  0  0  0  0  0  0  0  0  0
    1.1880   17.6870   -0.4290 C   0  0  0  0  0  0  0  0  0  0  0  0
    0.8670   19.0540    0.1810 C   0  0  0  0  0  0  0  0  0  0  0  0
   -0.5720   19.1560    0.5860 C   0  0  2  0  0  0  0  0  0  0  0  0
   -1.4540   18.2660   -0.1090 O   0  0  0  0  0  0  0  0  0  0  0  0
   -1.6650   19.6700   -0.3320 C   0  0  0  0  0  0  0  0  0  0  0  0
   -1.3660   20.1160   -1.7290 C   0  0  0  0  0  0  0  0  0  0  0  0
   -2.9260   20.1940    0.2810 C   0  0  0  0  0  0  0  0  0  0  0  0
    0.5850   16.2470   -2.3960 C   0  0  1  0  0  0  0  0  0  0  0  0
    0.6430   16.0540   -3.9340 C   0  0  0  0  0  0  0  0  0  0  0  0
    1.0530   14.5800   -4.1850 C   0  0  0  0  0  0  0  0  0  0  0  0
    0.8930   13.8910   -2.8090 C   0  0  1  0  0  0  0  0  0  0  0  0
   -0.6320   13.5800   -2.6910 C   0  0  0  0  0  0  0  0  0  0  0  0
    1.7630   12.6150   -2.5700 C   0  0  2  0  0  0  0  0  0  0  0  0
    1.4690   11.4380   -3.5160 C   0  0  0  0  0  0  0  0  0  0  0  0
    0.4310   10.4780   -3.0370 C   0  0  0  0  0  0  0  0  0  0  0  0
   -0.0330   10.3930   -1.7770 C   0  0  0  0  0  0  0  0  0  0  0  0
    0.5630   11.2560   -0.6580 C   0  0  1  0  0  0  0  0  0  0  0  0
    0.8310   10.3740    0.5900 C   0  0  0  0  0  0  0  0  0  0  0  0
   -0.4080    9.6080    1.0420 C   0  0  0  0  0  0  0  0  0  0  0  0
   -0.9370    8.7170   -0.0790 C   0  0  2  0  0  0  0  0  0  0  0  0
    0.0190    7.6850   -0.3380 O   0  0  0  0  0  0  0  0  0  0  0  0
   -1.2350    9.4950   -1.3910 C   0  0  0  0  0  0  0  0  0  0  0  0
   -2.4740   10.4010   -1.1890 C   0  0  0  0  0  0  0  0  0  0  0  0
   -1.6260    8.4610   -2.4810 C   0  0  0  0  0  0  0  0  0  0  0  0
    1.8200   12.1420   -1.0600 C   0  0  1  0  0  0  0  0  0  0  0  0
    3.1290   11.3100   -0.9030 C   0  0  0  0  0  0  0  0  0  0  0  0
    1.9390   13.3510   -0.0590 C   0  0  0  0  0  0  0  0  0  0  0  0
    1.1500   14.6260   -0.4130 C   0  0  0  0  0  0  0  0  0  0  0  0
    1.4010   15.0420   -1.8650 C   0  0  2  0  0  0  0  0  0  0  0  0
    2.9230   15.3830   -2.0090 C   0  0  0  0  0  0  0  0  0  0  0  0
    3.1018   18.2568   -1.9490 H   0  0  0  0  0  0  0  0  0  0  0  0
    2.6513   17.1853   -3.3184 H   0  0  0  0  0  0  0  0  0  0  0  0
    2.1379   18.9066   -3.3184 H   0  0  0  0  0  0  0  0  0  0  0  0
    0.2632   18.3779   -2.2377 H   0  0  0  0  0  0  0  0  0  0  0  0
    0.5105   16.9418    0.0133 H   0  0  0  0  0  0  0  0  0  0  0  0
    2.2450   17.4771   -0.2084 H   0  0  0  0  0  0  0  0  0  0  0  0
    1.4988   19.2055    1.0687 H   0  0  0  0  0  0  0  0  0  0  0  0
    1.0646   19.8238   -0.5795 H   0  0  0  0  0  0  0  0  0  0  0  0
   -0.2879   19.4211    1.6151 H   0  0  0  0  0  0  0  0  0  0  0  0
   -0.7537   21.0293   -1.6992 H   0  0  0  0  0  0  0  0  0  0  0  0
   -0.8163   19.3231   -2.2573 H   0  0  0  0  0  0  0  0  0  0  0  0
   -2.3083   20.3234   -2.2573 H   0  0  0  0  0  0  0  0  0  0  0  0
   -2.8427   20.1594    1.3773 H   0  0  0  0  0  0  0  0  0  0  0  0
   -3.0864   21.2332   -0.0419 H   0  0  0  0  0  0  0  0  0  0  0  0
   -3.7757   19.5745   -0.0419 H   0  0  0  0  0  0  0  0  0  0  0  0
   -0.4272   16.2342   -1.9655 H   0  0  0  0  0  0  0  0  0  0  0  0
   -0.3433   16.2537   -4.3782 H   0  0  0  0  0  0  0  0  0  0  0  0
    1.3634   16.7477   -4.3921 H   0  0  0  0  0  0  0  0  0  0  0  0
    0.3923   14.1148   -4.9314 H   0  0  0  0  0  0  0  0  0  0  0  0
    2.0764   14.4928   -4.5788 H   0  0  0  0  0  0  0  0  0  0  0  0
   -0.9134   13.5226   -1.6292 H   0  0  0  0  0  0  0  0  0  0  0  0
   -1.2081   14.3791   -3.1803 H   0  0  0  0  0  0  0  0  0  0  0  0
   -0.8492   12.6191   -3.1803 H   0  0  0  0  0  0  0  0  0  0  0  0
    2.7719   12.9655   -2.8333 H   0  0  0  0  0  0  0  0  0  0  0  0
    1.1315   11.8513   -4.4779 H   0  0  0  0  0  0  0  0  0  0  0  0
    2.4046   10.8638   -3.5868 H   0  0  0  0  0  0  0  0  0  0  0  0
    0.0099    9.7812   -3.7767 H   0  0  0  0  0  0  0  0  0  0  0  0
   -0.1975   12.0150   -0.4223 H   0  0  0  0  0  0  0  0  0  0  0  0
    1.6235    9.6508    0.3471 H   0  0  0  0  0  0  0  0  0  0  0  0
    1.1296   11.0409    1.4122 H   0  0  0  0  0  0  0  0  0  0  0  0
   -0.1480    8.9813    1.9078 H   0  0  0  0  0  0  0  0  0  0  0  0
   -1.1897   10.3329    1.3132 H   0  0  0  0  0  0  0  0  0  0  0  0
   -1.8947    8.2949    0.2595 H   0  0  0  0  0  0  0  0  0  0  0  0
   -0.4100    7.0220   -0.9050 H   0  0  0  0  0  0  0  0  0  0  0  0
   -2.6582   10.5357   -0.1129 H   0  0  0  0  0  0  0  0  0  0  0  0
   -2.2919   11.3805   -1.6553 H   0  0  0  0  0  0  0  0  0  0  0  0
   -3.3522    9.9305   -1.6553 H   0  0  0  0  0  0  0  0  0  0  0  0
   -1.9759    7.5357   -2.0000 H   0  0  0  0  0  0  0  0  0  0  0  0
   -2.4297    8.8750   -3.1077 H   0  0  0  0  0  0  0  0  0  0  0  0
   -0.7495    8.2397   -3.1077 H   0  0  0  0  0  0  0  0  0  0  0  0
    3.3487   11.1703    0.1657 H   0  0  0  0  0  0  0  0  0  0  0  0
    2.9992   10.3283   -1.3820 H   0  0  0  0  0  0  0  0  0  0  0  0
    3.9627   11.8443   -1.3820 H   0  0  0  0  0  0  0  0  0  0  0  0
    1.5880   13.0047    0.9243 H   0  0  0  0  0  0  0  0  0  0  0  0
    2.9974   13.6489   -0.0920 H   0  0  0  0  0  0  0  0  0  0  0  0
    0.0757   14.4342   -0.2745 H   0  0  0  0  0  0  0  0  0  0  0  0
    1.4848   15.4396    0.2472 H   0  0  0  0  0  0  0  0  0  0  0  0
    3.3723   15.4837   -1.0100 H   0  0  0  0  0  0  0  0  0  0  0  0
    3.4291   14.5760   -2.5591 H   0  0  0  0  0  0  0  0  0  0  0  0
    3.0364   16.3288   -2.5591 H   0  0  0  0  0  0  0  0  0  0  0  0
  1  2  1  0
  2  3  1  0
  3  4  1  0
  4  5  1  0
  5  6  1  0
  6  7  1  0
  7  8  1  0
  7  9  1  0
  2 10  1  0
 10 11  1  0
 11 12  1  0
 12 13  1  0
 13 14  1  1
 13 15  1  0
 15 16  1  0
 16 17  1  0
 17 18  2  0
 18 19  1  0
 19 20  1  0
 20 21  1  0
 21 22  1  0
 22 23  1  0
 22 24  1  0
 24 25  1  0
 24 26  1  0
 19 27  1  0
 27 28  1  6
 27 29  1  0
 29 30  1  0
 30 31  1  0
 31 32  1  1
  7  5  1  0
 31 10  1  0
 31 13  1  0
 27 15  1  0
 24 18  1  0
  1 33  1  0
  1 34  1  0
  1 35  1  0
  2 36  1  6
  3 37  1  0
  3 38  1  0
  4 39  1  0
  4 40  1  0
  5 41  1  1
  8 42  1  0
  8 43  1  0
  8 44  1  0
  9 45  1  0
  9 46  1  0
  9 47  1  0
 10 48  1  1
 11 49  1  0
 11 50  1  0
 12 51  1  0
 12 52  1  0
 14 53  1  0
 14 54  1  0
 14 55  1  0
 15 56  1  6
 16 57  1  0
 16 58  1  0
 17 59  1  0
 19 60  1  1
 20 61  1  0
 20 62  1  0
 21 63  1  0
 21 64  1  0
 22 65  1  1
 23 66  1  0
 25 67  1  0
 25 68  1  0
 25 69  1  0
 26 70  1  0
 26 71  1  0
 26 72  1  0
 28 73  1  0
 28 74  1  0
 28 75  1  0
 29 76  1  0
 29 77  1  0
 30 78  1  0
 30 79  1  0
 32 80  1  0
 32 81  1  0
 32 82  1  0
M  END
>  <meeko>  (3) 
{"is_sidechain": [false], "intermolecular_energy": 2.731, "internal_energy": -0.839}

$$$$
EPH_relaxed_0001_pdb2pqr_Repair_280_r2_0001_out
     RDKit          3D

 82 86  0  0  0  0  0  0  0  0999 V2000
    3.8050   17.7190    0.2360 C   0  0  0  0  0  0  0  0  0  0  0  0
    2.6910   18.0790   -0.7510 C   0  0  2  0  0  0  0  0  0  0  0  0
    2.0220   19.4250   -0.4050 C   0  0  0  0  0  0  0  0  0  0  0  0
    0.9850   19.3270    0.7160 C   0  0  0  0  0  0  0  0  0  0  0  0
   -0.2810   20.0480    0.3650 C   0  0  2  0  0  0  0  0  0  0  0  0
   -1.2080   20.1920    1.4490 O   0  0  0  0  0  0  0  0  0  0  0  0
   -1.6450   19.3830    0.3450 C   0  0  0  0  0  0  0  0  0  0  0  0
   -1.8110   17.9340    0.6810 C   0  0  0  0  0  0  0  0  0  0  0  0
   -2.7350   20.0090   -0.4680 C   0  0  0  0  0  0  0  0  0  0  0  0
    1.6450   16.9710   -0.7810 C   0  0  1  0  0  0  0  0  0  0  0  0
    0.3100   17.4270   -1.4270 C   0  0  0  0  0  0  0  0  0  0  0  0
   -0.2610   16.2020   -2.1870 C   0  0  0  0  0  0  0  0  0  0  0  0
    0.5800   15.0050   -1.6850 C   0  0  1  0  0  0  0  0  0  0  0  0
   -0.0580   14.6120   -0.3160 C   0  0  0  0  0  0  0  0  0  0  0  0
    0.6800   13.7780   -2.6490 C   0  0  2  0  0  0  0  0  0  0  0  0
   -0.6570   13.0810   -2.9590 C   0  0  0  0  0  0  0  0  0  0  0  0
   -1.0250   11.9690   -2.0340 C   0  0  0  0  0  0  0  0  0  0  0  0
   -0.1890   11.3570   -1.1750 C   0  0  0  0  0  0  0  0  0  0  0  0
    1.3040   11.7100   -1.1420 C   0  0  1  0  0  0  0  0  0  0  0  0
    2.1440   10.4060   -1.1160 C   0  0  0  0  0  0  0  0  0  0  0  0
    1.7400    9.4720    0.0210 C   0  0  0  0  0  0  0  0  0  0  0  0
    0.2630    9.0980   -0.0790 C   0  0  2  0  0  0  0  0  0  0  0  0
    0.0680    8.3010   -1.2510 O   0  0  0  0  0  0  0  0  0  0  0  0
   -0.6800   10.3330   -0.1220 C   0  0  0  0  0  0  0  0  0  0  0  0
   -0.6940   11.0260    1.2620 C   0  0  0  0  0  0  0  0  0  0  0  0
   -2.1250    9.8200   -0.3660 C   0  0  0  0  0  0  0  0  0  0  0  0
    1.7990   12.7320   -2.2540 C   0  0  1  0  0  0  0  0  0  0  0  0
    2.1700   11.9620   -3.5580 C   0  0  0  0  0  0  0  0  0  0  0  0
    3.1210   13.4290   -1.7590 C   0  0  0  0  0  0  0  0  0  0  0  0
    2.9590   14.7050   -0.9100 C   0  0  0  0  0  0  0  0  0  0  0  0
    1.9920   15.6880   -1.5770 C   0  0  2  0  0  0  0  0  0  0  0  0
    2.6180   16.1190   -2.9480 C   0  0  0  0  0  0  0  0  0  0  0  0
    3.4357   17.8384    1.2652 H   0  0  0  0  0  0  0  0  0  0  0  0
    4.1136   16.6754    0.0759 H   0  0  0  0  0  0  0  0  0  0  0  0
    4.6660   18.3846    0.0759 H   0  0  0  0  0  0  0  0  0  0  0  0
    3.1505   18.1837   -1.7449 H   0  0  0  0  0  0  0  0  0  0  0  0
    2.8050   20.1317   -0.0928 H   0  0  0  0  0  0  0  0  0  0  0  0
    1.4891   19.7601   -1.3071 H   0  0  0  0  0  0  0  0  0  0  0  0
    0.7533   18.2668    0.8955 H   0  0  0  0  0  0  0  0  0  0  0  0
    1.4083   19.7961    1.6164 H   0  0  0  0  0  0  0  0  0  0  0  0
    0.2488   20.6672   -0.3739 H   0  0  0  0  0  0  0  0  0  0  0  0
   -1.8252   17.8103    1.7739 H   0  0  0  0  0  0  0  0  0  0  0  0
   -2.7572   17.5656    0.2580 H   0  0  0  0  0  0  0  0  0  0  0  0
   -0.9726   17.3611    0.2580 H   0  0  0  0  0  0  0  0  0  0  0  0
   -3.4904   20.4428    0.2037 H   0  0  0  0  0  0  0  0  0  0  0  0
   -2.3105   20.8009   -1.1025 H   0  0  0  0  0  0  0  0  0  0  0  0
   -3.2051   19.2432   -1.1025 H   0  0  0  0  0  0  0  0  0  0  0  0
    1.5861   16.7435    0.2936 H   0  0  0  0  0  0  0  0  0  0  0  0
   -0.3958   17.7524   -0.6485 H   0  0  0  0  0  0  0  0  0  0  0  0
    0.4708   18.2749   -2.1090 H   0  0  0  0  0  0  0  0  0  0  0  0
   -1.3247   16.0572   -1.9468 H   0  0  0  0  0  0  0  0  0  0  0  0
   -0.2029   16.3241   -3.2787 H   0  0  0  0  0  0  0  0  0  0  0  0
    0.5667   14.9968    0.5036 H   0  0  0  0  0  0  0  0  0  0  0  0
   -1.0662   15.0458   -0.2433 H   0  0  0  0  0  0  0  0  0  0  0  0
   -0.1241   13.5164   -0.2433 H   0  0  0  0  0  0  0  0  0  0  0  0
    0.9994   14.2452   -3.5922 H   0  0  0  0  0  0  0  0  0  0  0  0
   -1.4536   13.8382   -2.9142 H   0  0  0  0  0  0  0  0  0  0  0  0
   -0.5392   12.6242   -3.9527 H   0  0  0  0  0  0  0  0  0  0  0  0
   -2.0679   11.6201   -2.0562 H   0  0  0  0  0  0  0  0  0  0  0  0
    1.4626   12.2748   -0.2115 H   0  0  0  0  0  0  0  0  0  0  0  0
    2.0060    9.8786   -2.0714 H   0  0  0  0  0  0  0  0  0  0  0  0
    3.1951   10.6892   -0.9579 H   0  0  0  0  0  0  0  0  0  0  0  0
    2.3476    8.5566   -0.0319 H   0  0  0  0  0  0  0  0  0  0  0  0
    1.9072    9.9897    0.9770 H   0  0  0  0  0  0  0  0  0  0  0  0
    0.0019    8.5367    0.8303 H   0  0  0  0  0  0  0  0  0  0  0  0
    0.3790    7.4020   -1.0510 H   0  0  0  0  0  0  0  0  0  0  0  0
   -0.6786   10.2631    2.0543 H   0  0  0  0  0  0  0  0  0  0  0  0
    0.1913   11.6719    1.3576 H   0  0  0  0  0  0  0  0  0  0  0  0
   -1.6046   11.6356    1.3576 H   0  0  0  0  0  0  0  0  0  0  0  0
   -2.6198    9.6443    0.6006 H   0  0  0  0  0  0  0  0  0  0  0  0
   -2.6899   10.5725   -0.9357 H   0  0  0  0  0  0  0  0  0  0  0  0
   -2.0890    8.8797   -0.9357 H   0  0  0  0  0  0  0  0  0  0  0  0
    2.6337   10.9995   -3.2961 H   0  0  0  0  0  0  0  0  0  0  0  0
    1.2599   11.7818   -4.1489 H   0  0  0  0  0  0  0  0  0  0  0  0
    2.8781   12.5615   -4.1489 H   0  0  0  0  0  0  0  0  0  0  0  0
    3.6774   12.6965   -1.1557 H   0  0  0  0  0  0  0  0  0  0  0  0
    3.6336   13.7567   -2.6754 H   0  0  0  0  0  0  0  0  0  0  0  0
    2.5671   14.4308    0.0806 H   0  0  0  0  0  0  0  0  0  0  0  0
    3.9417   15.1899   -0.8144 H   0  0  0  0  0  0  0  0  0  0  0  0
    3.5115   16.7342   -2.7659 H   0  0  0  0  0  0  0  0  0  0  0  0
    2.9002   15.2229   -3.5201 H   0  0  0  0  0  0  0  0  0  0  0  0
    1.8816   16.7024   -3.5201 H   0  0  0  0  0  0  0  0  0  0  0  0
  1  2  1  0
  2  3  1  0
  3  4  1  0
  4  5  1  0
  5  6  1  0
  6  7  1  0
  7  8  1  0
  7  9  1  0
  2 10  1  0
 10 11  1  0
 11 12  1  0
 12 13  1  0
 13 14  1  1
 13 15  1  0
 15 16  1  0
 16 17  1  0
 17 18  2  0
 18 19  1  0
 19 20  1  0
 20 21  1  0
 21 22  1  0
 22 23  1  0
 22 24  1  0
 24 25  1  0
 24 26  1  0
 19 27  1  0
 27 28  1  6
 27 29  1  0
 29 30  1  0
 30 31  1  0
 31 32  1  6
  7  5  1  0
 31 10  1  0
 31 13  1  0
 27 15  1  0
 24 18  1  0
  1 33  1  0
  1 34  1  0
  1 35  1  0
  2 36  1  6
  3 37  1  0
  3 38  1  0
  4 39  1  0
  4 40  1  0
  5 41  1  6
  8 42  1  0
  8 43  1  0
  8 44  1  0
  9 45  1  0
  9 46  1  0
  9 47  1  0
 10 48  1  1
 11 49  1  0
 11 50  1  0
 12 51  1  0
 12 52  1  0
 14 53  1  0
 14 54  1  0
 14 55  1  0
 15 56  1  6
 16 57  1  0
 16 58  1  0
 17 59  1  0
 19 60  1  1
 20 61  1  0
 20 62  1  0
 21 63  1  0
 21 64  1  0
 22 65  1  1
 23 66  1  0
 25 67  1  0
 25 68  1  0
 25 69  1  0
 26 70  1  0
 26 71  1  0
 26 72  1  0
 28 73  1  0
 28 74  1  0
 28 75  1  0
 29 76  1  0
 29 77  1  0
 30 78  1  0
 30 79  1  0
 32 80  1  0
 32 81  1  0
 32 82  1  0
M  END
>  <meeko>  (4) 
{"is_sidechain": [false], "intermolecular_energy": 2.731, "internal_energy": -0.839}

$$$$
EPH_relaxed_0001_pdb2pqr_Repair_280_r2_0001_out
     RDKit          3D

 82 86  0  0  0  0  0  0  0  0999 V2000
   -5.1830    5.7920   -1.6790 C   0  0  0  0  0  0  0  0  0  0  0  0
   -5.4560    7.2960   -1.7580 C   0  0  2  0  0  0  0  0  0  0  0  0
   -5.2270    8.0000   -0.4060 C   0  0  0  0  0  0  0  0  0  0  0  0
   -4.1780    9.1140   -0.4620 C   0  0  0  0  0  0  0  0  0  0  0  0
   -2.8380    8.5930   -0.8840 C   0  0  2  0  0  0  0  0  0  0  0  0
   -1.7790    8.8370    0.0510 O   0  0  0  0  0  0  0  0  0  0  0  0
   -1.6610    9.4880   -1.2240 C   0  0  0  0  0  0  0  0  0  0  0  0
   -1.7710   10.9790   -1.1590 C   0  0  0  0  0  0  0  0  0  0  0  0
   -0.5670    8.9360   -2.0840 C   0  0  0  0  0  0  0  0  0  0  0  0
   -6.8820    7.5410   -2.2380 C   0  0  1  0  0  0  0  0  0  0  0  0
   -7.1820    6.8530   -3.5970 C   0  0  0  0  0  0  0  0  0  0  0  0
   -8.6630    6.3980   -3.5500 C   0  0  0  0  0  0  0  0  0  0  0  0
   -9.2560    7.1230   -2.3190 C   0  0  1  0  0  0  0  0  0  0  0  0
   -9.5830    8.5640   -2.8220 C   0  0  0  0  0  0  0  0  0  0  0  0
  -10.4980    6.4480   -1.6520 C   0  0  2  0  0  0  0  0  0  0  0  0
  -11.7430    6.3400   -2.5500 C   0  0  0  0  0  0  0  0  0  0  0  0
  -12.6840    7.4970   -2.4760 C   0  0  0  0  0  0  0  0  0  0  0  0
  -12.6870    8.4430   -1.5190 C   0  0  0  0  0  0  0  0  0  0  0  0
  -11.7380    8.3510   -0.3170 C   0  0  1  0  0  0  0  0  0  0  0  0
  -12.5260    8.6350    0.9880 C   0  0  0  0  0  0  0  0  0  0  0  0
  -13.2790    9.9610    0.9400 C   0  0  0  0  0  0  0  0  0  0  0  0
  -14.2550    9.9920   -0.2340 C   0  0  2  0  0  0  0  0  0  0  0  0
  -15.2870    9.0290    0.0000 O   0  0  0  0  0  0  0  0  0  0  0  0
  -13.5760    9.7080   -1.6030 C   0  0  0  0  0  0  0  0  0  0  0  0
  -12.6780   10.9070   -1.9970 C   0  0  0  0  0  0  0  0  0  0  0  0
  -14.6900    9.6280   -2.6810 C   0  0  0  0  0  0  0  0  0  0  0  0
  -10.8620    7.0280   -0.2250 C   0  0  1  0  0  0  0  0  0  0  0  0
  -11.6590    5.9130    0.5180 C   0  0  0  0  0  0  0  0  0  0  0  0
   -9.5840    7.3170    0.6470 C   0  0  0  0  0  0  0  0  0  0  0  0
   -8.3500    7.8710   -0.0900 C   0  0  0  0  0  0  0  0  0  0  0  0
   -8.0340    7.0350   -1.3340 C   0  0  2  0  0  0  0  0  0  0  0  0
   -7.6780    5.5850   -0.8580 C   0  0  0  0  0  0  0  0  0  0  0  0
   -5.1272    5.4844   -0.6244 H   0  0  0  0  0  0  0  0  0  0  0  0
   -5.9965    5.2450   -2.1779 H   0  0  0  0  0  0  0  0  0  0  0  0
   -4.2291    5.5658   -2.1779 H   0  0  0  0  0  0  0  0  0  0  0  0
   -4.7426    7.7241   -2.4776 H   0  0  0  0  0  0  0  0  0  0  0  0
   -6.1809    8.4375   -0.0763 H   0  0  0  0  0  0  0  0  0  0  0  0
   -4.8505    7.2388    0.2931 H   0  0  0  0  0  0  0  0  0  0  0  0
   -4.5068    9.8773   -1.1827 H   0  0  0  0  0  0  0  0  0  0  0  0
   -4.0775    9.5413    0.5466 H   0  0  0  0  0  0  0  0  0  0  0  0
   -3.3070    7.7552   -1.4208 H   0  0  0  0  0  0  0  0  0  0  0  0
   -1.7946   11.2994   -0.1070 H   0  0  0  0  0  0  0  0  0  0  0  0
   -0.9039   11.4329   -1.6611 H   0  0  0  0  0  0  0  0  0  0  0  0
   -2.6953   11.3007   -1.6611 H   0  0  0  0  0  0  0  0  0  0  0  0
    0.2328    8.5324   -1.4457 H   0  0  0  0  0  0  0  0  0  0  0  0
   -0.9696    8.1331   -2.7191 H   0  0  0  0  0  0  0  0  0  0  0  0
   -0.1604    9.7368   -2.7191 H   0  0  0  0  0  0  0  0  0  0  0  0
   -6.8804    8.6407   -2.2652 H   0  0  0  0  0  0  0  0  0  0  0  0
   -7.0299    7.5633   -4.4230 H   0  0  0  0  0  0  0  0  0  0  0  0
   -6.5109    5.9975   -3.7635 H   0  0  0  0  0  0  0  0  0  0  0  0
   -9.1903    6.6971   -4.4679 H   0  0  0  0  0  0  0  0  0  0  0  0
   -8.7611    5.3048   -3.4771 H   0  0  0  0  0  0  0  0  0  0  0  0
   -9.7338    9.2284   -1.9584 H   0  0  0  0  0  0  0  0  0  0  0  0
   -8.7470    8.9383   -3.4310 H   0  0  0  0  0  0  0  0  0  0  0  0
  -10.4987    8.5408   -3.4310 H   0  0  0  0  0  0  0  0  0  0  0  0
  -10.1514    5.4155   -1.4978 H   0  0  0  0  0  0  0  0  0  0  0  0
  -11.4035    6.2439   -3.5919 H   0  0  0  0  0  0  0  0  0  0  0  0
  -12.3050    5.4665   -2.1879 H   0  0  0  0  0  0  0  0  0  0  0  0
  -13.4389    7.5834   -3.2714 H   0  0  0  0  0  0  0  0  0  0  0  0
  -10.9769    9.1302   -0.4704 H   0  0  0  0  0  0  0  0  0  0  0  0
  -13.2513    7.8232    1.1457 H   0  0  0  0  0  0  0  0  0  0  0  0
  -11.7987    8.6937    1.8111 H   0  0  0  0  0  0  0  0  0  0  0  0
  -13.8394   10.0909    1.8776 H   0  0  0  0  0  0  0  0  0  0  0  0
  -12.5497   10.7745    0.8120 H   0  0  0  0  0  0  0  0  0  0  0  0
  -14.6672   11.0101   -0.2939 H   0  0  0  0  0  0  0  0  0  0  0  0
  -15.9640    9.1490   -0.6880 H   0  0  0  0  0  0  0  0  0  0  0  0
  -12.3073   11.4020   -1.0873 H   0  0  0  0  0  0  0  0  0  0  0  0
  -11.8256   10.5468   -2.5918 H   0  0  0  0  0  0  0  0  0  0  0  0
  -13.2634   11.6237   -2.5918 H   0  0  0  0  0  0  0  0  0  0  0  0
  -15.6715    9.5575   -2.1894 H   0  0  0  0  0  0  0  0  0  0  0  0
  -14.6583   10.5307   -3.3087 H   0  0  0  0  0  0  0  0  0  0  0  0
  -14.5296    8.7391   -3.3087 H   0  0  0  0  0  0  0  0  0  0  0  0
  -11.5590    6.0529    1.6045 H   0  0  0  0  0  0  0  0  0  0  0  0
  -12.7208    5.9720    0.2369 H   0  0  0  0  0  0  0  0  0  0  0  0
  -11.2595    4.9274    0.2369 H   0  0  0  0  0  0  0  0  0  0  0  0
   -9.8664    8.0480    1.4189 H   0  0  0  0  0  0  0  0  0  0  0  0
   -9.2716    6.3355    1.0332 H   0  0  0  0  0  0  0  0  0  0  0  0
   -8.5488    8.9090   -0.3949 H   0  0  0  0  0  0  0  0  0  0  0  0
   -7.4865    7.8284    0.5901 H   0  0  0  0  0  0  0  0  0  0  0  0
   -7.6698    5.5517    0.2415 H   0  0  0  0  0  0  0  0  0  0  0  0
   -8.4294    4.8786   -1.2407 H   0  0  0  0  0  0  0  0  0  0  0  0
   -6.6849    5.3069   -1.2407 H   0  0  0  0  0  0  0  0  0  0  0  0
  1  2  1  0
  2  3  1  0
  3  4  1  0
  4  5  1  0
  5  6  1  0
  6  7  1  0
  7  8  1  0
  7  9  1  0
  2 10  1  0
 10 11  1  0
 11 12  1  0
 12 13  1  0
 13 14  1  6
 13 15  1  0
 15 16  1  0
 16 17  1  0
 17 18  2  0
 18 19  1  0
 19 20  1  0
 20 21  1  0
 21 22  1  0
 22 23  1  0
 22 24  1  0
 24 25  1  0
 24 26  1  0
 19 27  1  0
 27 28  1  1
 27 29  1  0
 29 30  1  0
 30 31  1  0
 31 32  1  1
  7  5  1  0
 31 10  1  0
 31 13  1  0
 27 15  1  0
 24 18  1  0
  1 33  1  0
  1 34  1  0
  1 35  1  0
  2 36  1  6
  3 37  1  0
  3 38  1  0
  4 39  1  0
  4 40  1  0
  5 41  1  6
  8 42  1  0
  8 43  1  0
  8 44  1  0
  9 45  1  0
  9 46  1  0
  9 47  1  0
 10 48  1  6
 11 49  1  0
 11 50  1  0
 12 51  1  0
 12 52  1  0
 14 53  1  0
 14 54  1  0
 14 55  1  0
 15 56  1  1
 16 57  1  0
 16 58  1  0
 17 59  1  0
 19 60  1  6
 20 61  1  0
 20 62  1  0
 21 63  1  0
 21 64  1  0
 22 65  1  6
 23 66  1  0
 25 67  1  0
 25 68  1  0
 25 69  1  0
 26 70  1  0
 26 71  1  0
 26 72  1  0
 28 73  1  0
 28 74  1  0
 28 75  1  0
 29 76  1  0
 29 77  1  0
 30 78  1  0
 30 79  1  0
 32 80  1  0
 32 81  1  0
 32 82  1  0
M  END
>  <meeko>  (5) 
{"is_sidechain": [false], "intermolecular_energy": 2.731, "internal_energy": -0.839}

$$$$
EPH_relaxed_0001_pdb2pqr_Repair_280_r2_0001_out
     RDKit          3D

 82 86  0  0  0  0  0  0  0  0999 V2000
    0.4610    8.7880   -2.3780 C   0  0  0  0  0  0  0  0  0  0  0  0
    1.1940    9.9350   -3.0800 C   0  0  2  0  0  0  0  0  0  0  0  0
    2.6960    9.9630   -2.7320 C   0  0  0  0  0  0  0  0  0  0  0  0
    3.5680   10.5950   -3.8200 C   0  0  0  0  0  0  0  0  0  0  0  0
    4.9680   10.8330   -3.3400 C   0  0  2  0  0  0  0  0  0  0  0  0
    5.5710   12.0390   -3.8260 O   0  0  0  0  0  0  0  0  0  0  0  0
    6.1800   10.8090   -4.2510 C   0  0  0  0  0  0  0  0  0  0  0  0
    6.0490   10.5400   -5.7180 C   0  0  0  0  0  0  0  0  0  0  0  0
    7.5270   10.5620   -3.6450 C   0  0  0  0  0  0  0  0  0  0  0  0
    0.5490   11.2660   -2.7140 C   0  0  1  0  0  0  0  0  0  0  0  0
   -0.8320   11.0920   -2.0260 C   0  0  0  0  0  0  0  0  0  0  0  0
   -0.9570   12.2290   -0.9800 C   0  0  0  0  0  0  0  0  0  0  0  0
    0.1920   13.2050   -1.3250 C   0  0  1  0  0  0  0  0  0  0  0  0
   -0.3540   14.0640   -2.5090 C   0  0  0  0  0  0  0  0  0  0  0  0
    0.7130   14.1010   -0.1550 C   0  0  2  0  0  0  0  0  0  0  0  0
   -0.3240   15.0740    0.4340 C   0  0  0  0  0  0  0  0  0  0  0  0
   -0.3680   16.4220   -0.2050 C   0  0  0  0  0  0  0  0  0  0  0  0
    0.5770   16.9360   -1.0140 C   0  0  0  0  0  0  0  0  0  0  0  0
    1.8820   16.1750   -1.2830 C   0  0  1  0  0  0  0  0  0  0  0  0
    3.0840   17.1460   -1.1440 C   0  0  0  0  0  0  0  0  0  0  0  0
    2.9400   18.3850   -2.0220 C   0  0  0  0  0  0  0  0  0  0  0  0
    1.6600   19.1460   -1.6850 C   0  0  2  0  0  0  0  0  0  0  0  0
    1.7770   19.6820   -0.3640 O   0  0  0  0  0  0  0  0  0  0  0  0
    0.3820   18.2670   -1.7810 C   0  0  0  0  0  0  0  0  0  0  0  0
    0.0890   17.9340   -3.2650 C   0  0  0  0  0  0  0  0  0  0  0  0
   -0.8190   19.1140   -1.2810 C   0  0  0  0  0  0  0  0  0  0  0  0
    2.0840   14.8320   -0.4580 C   0  0  1  0  0  0  0  0  0  0  0  0
    2.7350   15.1480    0.9230 C   0  0  0  0  0  0  0  0  0  0  0  0
    3.0990   13.9050   -1.2260 C   0  0  0  0  0  0  0  0  0  0  0  0
    2.5080   12.9560   -2.2870 C   0  0  0  0  0  0  0  0  0  0  0  0
    1.3140   12.1790   -1.7240 C   0  0  2  0  0  0  0  0  0  0  0  0
    1.8370   11.2890   -0.5450 C   0  0  0  0  0  0  0  0  0  0  0  0
    0.5415    8.9140   -1.2882 H   0  0  0  0  0  0  0  0  0  0  0  0
   -0.5993    8.7968   -2.6708 H   0  0  0  0  0  0  0  0  0  0  0  0
    0.9143    7.8295   -2.6708 H   0  0  0  0  0  0  0  0  0  0  0  0
    1.1094    9.7675   -4.1639 H   0  0  0  0  0  0  0  0  0  0  0  0
    2.8268   10.5389   -1.8040 H   0  0  0  0  0  0  0  0  0  0  0  0
    3.0211    8.9175   -2.6264 H   0  0  0  0  0  0  0  0  0  0  0  0
    3.5988    9.9207   -4.6886 H   0  0  0  0  0  0  0  0  0  0  0  0
    3.1285   11.5664   -4.0904 H   0  0  0  0  0  0  0  0  0  0  0  0
    4.7516   10.3285   -2.3867 H   0  0  0  0  0  0  0  0  0  0  0  0
    5.5720    9.5605   -5.8700 H   0  0  0  0  0  0  0  0  0  0  0  0
    5.4319   11.3242   -6.1809 H   0  0  0  0  0  0  0  0  0  0  0  0
    7.0469   10.5377   -6.1809 H   0  0  0  0  0  0  0  0  0  0  0  0
    7.4440   10.5772   -2.5482 H   0  0  0  0  0  0  0  0  0  0  0  0
    7.9012    9.5803   -3.9708 H   0  0  0  0  0  0  0  0  0  0  0  0
    8.2252   11.3471   -3.9708 H   0  0  0  0  0  0  0  0  0  0  0  0
    0.5161   11.7340   -3.7089 H   0  0  0  0  0  0  0  0  0  0  0  0
   -1.6385   11.1713   -2.7699 H   0  0  0  0  0  0  0  0  0  0  0  0
   -0.9134   10.1047   -1.5478 H   0  0  0  0  0  0  0  0  0  0  0  0
   -1.9320   12.7309   -1.0667 H   0  0  0  0  0  0  0  0  0  0  0  0
   -0.8907   11.8551    0.0524 H   0  0  0  0  0  0  0  0  0  0  0  0
   -0.9041   14.9294   -2.1110 H   0  0  0  0  0  0  0  0  0  0  0  0
    0.4867   14.4157   -3.1251 H   0  0  0  0  0  0  0  0  0  0  0  0
   -1.0293   13.4521   -3.1251 H   0  0  0  0  0  0  0  0  0  0  0  0
    0.9129   13.3625    0.6353 H   0  0  0  0  0  0  0  0  0  0  0  0
   -1.3184   14.6155    0.3291 H   0  0  0  0  0  0  0  0  0  0  0  0
   -0.0245   15.2421    1.4790 H   0  0  0  0  0  0  0  0  0  0  0  0
   -1.2477   17.0489    0.0029 H   0  0  0  0  0  0  0  0  0  0  0  0
    1.8141   15.8097   -2.3183 H   0  0  0  0  0  0  0  0  0  0  0  0
    3.1600   17.4649   -0.0940 H   0  0  0  0  0  0  0  0  0  0  0  0
    3.9866   16.6087   -1.4705 H   0  0  0  0  0  0  0  0  0  0  0  0
    3.8049   19.0448   -1.8584 H   0  0  0  0  0  0  0  0  0  0  0  0
    2.8929   18.0667   -3.0739 H   0  0  0  0  0  0  0  0  0  0  0  0
    1.5463   19.9472   -2.4301 H   0  0  0  0  0  0  0  0  0  0  0  0
    2.6940   19.5460   -0.0710 H   0  0  0  0  0  0  0  0  0  0  0  0
   -0.6367   17.1092   -3.3193 H   0  0  0  0  0  0  0  0  0  0  0  0
   -0.3265   18.8215   -3.7648 H   0  0  0  0  0  0  0  0  0  0  0  0
    1.0221   17.6349   -3.7648 H   0  0  0  0  0  0  0  0  0  0  0  0
   -0.8297   19.1215   -0.1811 H   0  0  0  0  0  0  0  0  0  0  0  0
   -0.7215   20.1443   -1.6538 H   0  0  0  0  0  0  0  0  0  0  0  0
   -1.7568   18.6763   -1.6538 H   0  0  0  0  0  0  0  0  0  0  0  0
    2.0617   14.8212    1.7291 H   0  0  0  0  0  0  0  0  0  0  0  0
    3.6935   14.6149    1.0071 H   0  0  0  0  0  0  0  0  0  0  0  0
    2.9091   16.2309    1.0071 H   0  0  0  0  0  0  0  0  0  0  0  0
    3.8277   14.5561   -1.7310 H   0  0  0  0  0  0  0  0  0  0  0  0
    3.5257   13.2455   -0.4559 H   0  0  0  0  0  0  0  0  0  0  0  0
    2.1764   13.5470   -3.1535 H   0  0  0  0  0  0  0  0  0  0  0  0
    3.2849   12.2368   -2.5857 H   0  0  0  0  0  0  0  0  0  0  0  0
    1.5641   11.7535    0.4140 H   0  0  0  0  0  0  0  0  0  0  0  0
    1.3827   10.2894   -0.6107 H   0  0  0  0  0  0  0  0  0  0  0  0
    2.9314   11.1994   -0.6107 H   0  0  0  0  0  0  0  0  0  0  0  0
  1  2  1  0
  2  3  1  0
  3  4  1  0
  4  5  1  0
  5  6  1  0
  6  7  1  0
  7  8  1  0
  7  9  1  0
  2 10  1  0
 10 11  1  0
 11 12  1  0
 12 13  1  0
 13 14  1  6
 13 15  1  0
 15 16  1  0
 16 17  1  0
 17 18  2  0
 18 19  1  0
 19 20  1  0
 20 21  1  0
 21 22  1  0
 22 23  1  0
 22 24  1  0
 24 25  1  0
 24 26  1  0
 19 27  1  0
 27 28  1  1
 27 29  1  0
 29 30  1  0
 30 31  1  0
 31 32  1  1
  7  5  1  0
 31 10  1  0
 31 13  1  0
 27 15  1  0
 24 18  1  0
  1 33  1  0
  1 34  1  0
  1 35  1  0
  2 36  1  6
  3 37  1  0
  3 38  1  0
  4 39  1  0
  4 40  1  0
  5 41  1  1
  8 42  1  0
  8 43  1  0
  8 44  1  0
  9 45  1  0
  9 46  1  0
  9 47  1  0
 10 48  1  6
 11 49  1  0
 11 50  1  0
 12 51  1  0
 12 52  1  0
 14 53  1  0
 14 54  1  0
 14 55  1  0
 15 56  1  1
 16 57  1  0
 16 58  1  0
 17 59  1  0
 19 60  1  6
 20 61  1  0
 20 62  1  0
 21 63  1  0
 21 64  1  0
 22 65  1  6
 23 66  1  0
 25 67  1  0
 25 68  1  0
 25 69  1  0
 26 70  1  0
 26 71  1  0
 26 72  1  0
 28 73  1  0
 28 74  1  0
 28 75  1  0
 29 76  1  0
 29 77  1  0
 30 78  1  0
 30 79  1  0
 32 80  1  0
 32 81  1  0
 32 82  1  0
M  END
>  <meeko>  (6) 
{"is_sidechain": [false], "intermolecular_energy": 2.731, "internal_energy": -0.839}

$$$$
EPH_relaxed_0001_pdb2pqr_Repair_280_r2_0001_out
     RDKit          3D

 82 86  0  0  0  0  0  0  0  0999 V2000
   -0.2970   10.5080   -4.0170 C   0  0  0  0  0  0  0  0  0  0  0  0
    0.9260   10.3470   -3.1110 C   0  0  2  0  0  0  0  0  0  0  0  0
    0.9060    9.0120   -2.3400 C   0  0  0  0  0  0  0  0  0  0  0  0
   -0.4890    8.5980   -1.8620 C   0  0  0  0  0  0  0  0  0  0  0  0
   -0.7200    8.9820   -0.4320 C   0  0  2  0  0  0  0  0  0  0  0  0
   -2.0980    9.0140   -0.0360 O   0  0  0  0  0  0  0  0  0  0  0  0
   -1.4030   10.2710   -0.0110 C   0  0  0  0  0  0  0  0  0  0  0  0
   -1.8950   11.2580   -1.0220 C   0  0  0  0  0  0  0  0  0  0  0  0
   -1.1530   10.7950    1.3690 C   0  0  0  0  0  0  0  0  0  0  0  0
    1.0050   11.5120   -2.1320 C   0  0  1  0  0  0  0  0  0  0  0  0
    2.0730   11.2930   -1.0270 C   0  0  0  0  0  0  0  0  0  0  0  0
    2.6810   12.6840   -0.7110 C   0  0  0  0  0  0  0  0  0  0  0  0
    1.7270   13.6910   -1.3930 C   0  0  1  0  0  0  0  0  0  0  0  0
    0.5330   13.8480   -0.3990 C   0  0  0  0  0  0  0  0  0  0  0  0
    2.3430   15.0760   -1.7780 C   0  0  2  0  0  0  0  0  0  0  0  0
    2.8500   15.9160   -0.5930 C   0  0  0  0  0  0  0  0  0  0  0  0
    1.8470   16.8450    0.0060 C   0  0  0  0  0  0  0  0  0  0  0  0
    0.6820   17.2100   -0.5610 C   0  0  0  0  0  0  0  0  0  0  0  0
    0.3190   16.7500   -1.9790 C   0  0  1  0  0  0  0  0  0  0  0  0
   -0.2130   17.9570   -2.7950 C   0  0  0  0  0  0  0  0  0  0  0  0
   -1.3680   18.6710   -2.0990 C   0  0  0  0  0  0  0  0  0  0  0  0
   -0.9500   19.1640   -0.7160 C   0  0  2  0  0  0  0  0  0  0  0  0
    0.0340   20.1920   -0.8710 O   0  0  0  0  0  0  0  0  0  0  0  0
   -0.3880   18.0360    0.1930 C   0  0  0  0  0  0  0  0  0  0  0  0
   -1.5360   17.0820    0.6070 C   0  0  0  0  0  0  0  0  0  0  0  0
    0.1260   18.6900    1.5040 C   0  0  0  0  0  0  0  0  0  0  0  0
    1.4430   15.9370   -2.7540 C   0  0  1  0  0  0  0  0  0  0  0  0
    2.4020   16.9240   -3.4890 C   0  0  0  0  0  0  0  0  0  0  0  0
    0.7660   15.0610   -3.8730 C   0  0  0  0  0  0  0  0  0  0  0  0
    0.2850   13.6560   -3.4590 C   0  0  0  0  0  0  0  0  0  0  0  0
    1.3850   12.9000   -2.7080 C   0  0  2  0  0  0  0  0  0  0  0  0
    2.5900   12.7080   -3.6890 C   0  0  0  0  0  0  0  0  0  0  0  0
   -1.1987   10.6267   -3.3982 H   0  0  0  0  0  0  0  0  0  0  0  0
   -0.1684   11.3970   -4.6520 H   0  0  0  0  0  0  0  0  0  0  0  0
   -0.4029    9.6160   -4.6520 H   0  0  0  0  0  0  0  0  0  0  0  0
    1.8169   10.3425   -3.7562 H   0  0  0  0  0  0  0  0  0  0  0  0
    1.2949    8.2234   -3.0009 H   0  0  0  0  0  0  0  0  0  0  0  0
    1.5258    9.1502   -1.4418 H   0  0  0  0  0  0  0  0  0  0  0  0
   -1.2433    9.0937   -2.4908 H   0  0  0  0  0  0  0  0  0  0  0  0
   -0.5685    7.5037   -1.9410 H   0  0  0  0  0  0  0  0  0  0  0  0
    0.2298    8.5171   -0.1290 H   0  0  0  0  0  0  0  0  0  0  0  0
   -2.3282   12.1271   -0.5053 H   0  0  0  0  0  0  0  0  0  0  0  0
   -1.0554   11.5870   -1.6520 H   0  0  0  0  0  0  0  0  0  0  0  0
   -2.6631   10.7856   -1.6520 H   0  0  0  0  0  0  0  0  0  0  0  0
   -1.5034   10.0606    2.1091 H   0  0  0  0  0  0  0  0  0  0  0  0
   -0.0753   10.9680    1.5059 H   0  0  0  0  0  0  0  0  0  0  0  0
   -1.6966   11.7415    1.5059 H   0  0  0  0  0  0  0  0  0  0  0  0
   -0.0355   11.5240   -1.7752 H   0  0  0  0  0  0  0  0  0  0  0  0
    1.6046   10.8707   -0.1258 H   0  0  0  0  0  0  0  0  0  0  0  0
    2.8493   10.5893   -1.3618 H   0  0  0  0  0  0  0  0  0  0  0  0
    2.7146   12.8554    0.3750 H   0  0  0  0  0  0  0  0  0  0  0  0
    3.7155   12.7789   -1.0728 H   0  0  0  0  0  0  0  0  0  0  0  0
    0.9072   13.7988    0.6342 H   0  0  0  0  0  0  0  0  0  0  0  0
    0.0424   14.8184   -0.5655 H   0  0  0  0  0  0  0  0  0  0  0  0
   -0.1917   13.0374   -0.5655 H   0  0  0  0  0  0  0  0  0  0  0  0
    3.2403   14.7861   -2.3444 H   0  0  0  0  0  0  0  0  0  0  0  0
    3.1858   15.2250    0.1943 H   0  0  0  0  0  0  0  0  0  0  0  0
    3.6531   16.5524   -0.9930 H   0  0  0  0  0  0  0  0  0  0  0  0
    2.0796   17.2672    0.9948 H   0  0  0  0  0  0  0  0  0  0  0  0
   -0.4768   16.0000   -1.8603 H   0  0  0  0  0  0  0  0  0  0  0  0
    0.6085   18.6740   -2.9401 H   0  0  0  0  0  0  0  0  0  0  0  0
   -0.5886   17.5716   -3.7544 H   0  0  0  0  0  0  0  0  0  0  0  0
   -1.6793   19.5317   -2.7092 H   0  0  0  0  0  0  0  0  0  0  0  0
   -2.2004   17.9614   -1.9822 H   0  0  0  0  0  0  0  0  0  0  0  0
   -1.8516   19.5486   -0.2168 H   0  0  0  0  0  0  0  0  0  0  0  0
    0.8650   19.7650   -1.1400 H   0  0  0  0  0  0  0  0  0  0  0  0
   -1.5946   17.0333    1.7044 H   0  0  0  0  0  0  0  0  0  0  0  0
   -2.4884   17.4584    0.2053 H   0  0  0  0  0  0  0  0  0  0  0  0
   -1.3403   16.0768    0.2053 H   0  0  0  0  0  0  0  0  0  0  0  0
   -0.2937   18.1559    2.3692 H   0  0  0  0  0  0  0  0  0  0  0  0
    1.2241   18.6337    1.5358 H   0  0  0  0  0  0  0  0  0  0  0  0
   -0.1882   19.7437    1.5358 H   0  0  0  0  0  0  0  0  0  0  0  0
    2.9679   17.5064   -2.7469 H   0  0  0  0  0  0  0  0  0  0  0  0
    3.1013   16.3549   -4.1191 H   0  0  0  0  0  0  0  0  0  0  0  0
    1.8130   17.6066   -4.1191 H   0  0  0  0  0  0  0  0  0  0  0  0
   -0.1076   15.6153   -4.2467 H   0  0  0  0  0  0  0  0  0  0  0  0
    1.5550   14.8871   -4.6195 H   0  0  0  0  0  0  0  0  0  0  0  0
   -0.5945   13.7546   -2.8057 H   0  0  0  0  0  0  0  0  0  0  0  0
    0.0281   13.0911   -4.3673 H   0  0  0  0  0  0  0  0  0  0  0  0
    3.5139   12.5608   -3.1105 H   0  0  0  0  0  0  0  0  0  0  0  0
    2.4100   11.8272   -4.3229 H   0  0  0  0  0  0  0  0  0  0  0  0
    2.6927   13.6011   -4.3229 H   0  0  0  0  0  0  0  0  0  0  0  0
  1  2  1  0
  2  3  1  0
  3  4  1  0
  4  5  1  0
  5  6  1  0
  6  7  1  0
  7  8  1  0
  7  9  1  0
  2 10  1  0
 10 11  1  0
 11 12  1  0
 12 13  1  0
 13 14  1  1
 13 15  1  0
 15 16  1  0
 16 17  1  0
 17 18  2  0
 18 19  1  0
 19 20  1  0
 20 21  1  0
 21 22  1  0
 22 23  1  0
 22 24  1  0
 24 25  1  0
 24 26  1  0
 19 27  1  0
 27 28  1  6
 27 29  1  0
 29 30  1  0
 30 31  1  0
 31 32  1  6
  7  5  1  0
 31 10  1  0
 31 13  1  0
 27 15  1  0
 24 18  1  0
  1 33  1  0
  1 34  1  0
  1 35  1  0
  2 36  1  6
  3 37  1  0
  3 38  1  0
  4 39  1  0
  4 40  1  0
  5 41  1  1
  8 42  1  0
  8 43  1  0
  8 44  1  0
  9 45  1  0
  9 46  1  0
  9 47  1  0
 10 48  1  1
 11 49  1  0
 11 50  1  0
 12 51  1  0
 12 52  1  0
 14 53  1  0
 14 54  1  0
 14 55  1  0
 15 56  1  6
 16 57  1  0
 16 58  1  0
 17 59  1  0
 19 60  1  1
 20 61  1  0
 20 62  1  0
 21 63  1  0
 21 64  1  0
 22 65  1  1
 23 66  1  0
 25 67  1  0
 25 68  1  0
 25 69  1  0
 26 70  1  0
 26 71  1  0
 26 72  1  0
 28 73  1  0
 28 74  1  0
 28 75  1  0
 29 76  1  0
 29 77  1  0
 30 78  1  0
 30 79  1  0
 32 80  1  0
 32 81  1  0
 32 82  1  0
M  END
>  <meeko>  (7) 
{"is_sidechain": [false], "intermolecular_energy": 2.731, "internal_energy": -0.839}

$$$$
EPH_relaxed_0001_pdb2pqr_Repair_280_r2_0001_out
     RDKit          3D

 82 86  0  0  0  0  0  0  0  0999 V2000
    3.0440   18.7280   -1.1370 C   0  0  0  0  0  0  0  0  0  0  0  0
    2.6690   17.6830   -2.1910 C   0  0  2  0  0  0  0  0  0  0  0  0
    1.2630   17.9260   -2.7750 C   0  0  0  0  0  0  0  0  0  0  0  0
    0.6200   19.2340   -2.3080 C   0  0  0  0  0  0  0  0  0  0  0  0
   -0.7290   19.0020   -1.6980 C   0  0  2  0  0  0  0  0  0  0  0  0
   -1.5000   20.1900   -1.4790 O   0  0  0  0  0  0  0  0  0  0  0  0
   -1.1070   19.4640   -0.3040 C   0  0  0  0  0  0  0  0  0  0  0  0
   -0.1340   20.1940    0.5670 C   0  0  0  0  0  0  0  0  0  0  0  0
   -2.2450   18.7830    0.3920 C   0  0  0  0  0  0  0  0  0  0  0  0
    2.7490   16.2850   -1.5880 C   0  0  1  0  0  0  0  0  0  0  0  0
    3.3650   16.2830   -0.1640 C   0  0  0  0  0  0  0  0  0  0  0  0
    2.6380   15.1720    0.6370 C   0  0  0  0  0  0  0  0  0  0  0  0
    1.8730   14.3580   -0.4330 C   0  0  1  0  0  0  0  0  0  0  0  0
    2.9400   13.3960   -1.0440 C   0  0  0  0  0  0  0  0  0  0  0  0
    0.6100   13.5800    0.0630 C   0  0  2  0  0  0  0  0  0  0  0  0
    0.8860   12.4890    1.1120 C   0  0  0  0  0  0  0  0  0  0  0  0
    1.1610   11.1290    0.5610 C   0  0  0  0  0  0  0  0  0  0  0  0
    0.9080   10.7300   -0.7000 C   0  0  0  0  0  0  0  0  0  0  0  0
    0.1960   11.6590   -1.6920 C   0  0  1  0  0  0  0  0  0  0  0  0
   -0.9210   10.8730   -2.4260 C   0  0  0  0  0  0  0  0  0  0  0  0
   -0.4030    9.6000   -3.0880 C   0  0  0  0  0  0  0  0  0  0  0  0
    0.2460    8.6760   -2.0600 C   0  0  2  0  0  0  0  0  0  0  0  0
   -0.7640    8.2010   -1.1640 O   0  0  0  0  0  0  0  0  0  0  0  0
    1.3810    9.3630   -1.2500 C   0  0  0  0  0  0  0  0  0  0  0  0
    2.6030    9.6050   -2.1710 C   0  0  0  0  0  0  0  0  0  0  0  0
    1.8540    8.3690   -0.1550 C   0  0  0  0  0  0  0  0  0  0  0  0
   -0.3170   13.0420   -1.1010 C   0  0  1  0  0  0  0  0  0  0  0  0
   -1.7400   12.8630   -0.4880 C   0  0  0  0  0  0  0  0  0  0  0  0
   -0.4670   14.0800   -2.2750 C   0  0  0  0  0  0  0  0  0  0  0  0
    0.7840   14.9020   -2.6390 C   0  0  0  0  0  0  0  0  0  0  0  0
    1.4160   15.5200   -1.3880 C   0  0  2  0  0  0  0  0  0  0  0  0
    0.3740   16.5100   -0.7640 C   0  0  0  0  0  0  0  0  0  0  0  0
    2.8926   18.3062   -0.1324 H   0  0  0  0  0  0  0  0  0  0  0  0
    4.0998   19.0110   -1.2606 H   0  0  0  0  0  0  0  0  0  0  0  0
    2.4090   19.6177   -1.2606 H   0  0  0  0  0  0  0  0  0  0  0  0
    3.3892   17.7729   -3.0175 H   0  0  0  0  0  0  0  0  0  0  0  0
    1.3421   17.9502   -3.8719 H   0  0  0  0  0  0  0  0  0  0  0  0
    0.6210   17.1071   -2.4183 H   0  0  0  0  0  0  0  0  0  0  0  0
    1.2736   19.7049   -1.5590 H   0  0  0  0  0  0  0  0  0  0  0  0
    0.4921   19.8854   -3.1851 H   0  0  0  0  0  0  0  0  0  0  0  0
   -0.8144   18.0275   -2.2010 H   0  0  0  0  0  0  0  0  0  0  0  0
   -0.3785   20.0106    1.6237 H   0  0  0  0  0  0  0  0  0  0  0  0
    0.8850   19.8357    0.3589 H   0  0  0  0  0  0  0  0  0  0  0  0
   -0.1931   21.2725    0.3589 H   0  0  0  0  0  0  0  0  0  0  0  0
   -2.1100   18.8638    1.4807 H   0  0  0  0  0  0  0  0  0  0  0  0
   -3.1916   19.2632    0.1032 H   0  0  0  0  0  0  0  0  0  0  0  0
   -2.2692   17.7219    0.1032 H   0  0  0  0  0  0  0  0  0  0  0  0
    3.3576   15.7867   -2.3570 H   0  0  0  0  0  0  0  0  0  0  0  0
    4.4424   16.0678   -0.2178 H   0  0  0  0  0  0  0  0  0  0  0  0
    3.2428   17.2631    0.3203 H   0  0  0  0  0  0  0  0  0  0  0  0
    3.3635   14.5352    1.1643 H   0  0  0  0  0  0  0  0  0  0  0  0
    1.9683   15.5826    1.4070 H   0  0  0  0  0  0  0  0  0  0  0  0
    3.4921   12.8983   -0.2331 H   0  0  0  0  0  0  0  0  0  0  0  0
    2.4385   12.6389   -1.6647 H   0  0  0  0  0  0  0  0  0  0  0  0
    3.6413   13.9730   -1.6647 H   0  0  0  0  0  0  0  0  0  0  0  0
    0.0418   14.3617    0.5885 H   0  0  0  0  0  0  0  0  0  0  0  0
    1.7602   12.7993    1.7031 H   0  0  0  0  0  0  0  0  0  0  0  0
   -0.0362   12.3964    1.7044 H   0  0  0  0  0  0  0  0  0  0  0  0
    1.6081   10.3905    1.2427 H   0  0  0  0  0  0  0  0  0  0  0  0
    0.9623   11.9793   -2.4132 H   0  0  0  0  0  0  0  0  0  0  0  0
   -1.6976   10.6000   -1.6964 H   0  0  0  0  0  0  0  0  0  0  0  0
   -1.3203   11.5226   -3.2188 H   0  0  0  0  0  0  0  0  0  0  0  0
   -1.2435    9.0744   -3.5647 H   0  0  0  0  0  0  0  0  0  0  0  0
    0.3525    9.8766   -3.8381 H   0  0  0  0  0  0  0  0  0  0  0  0
    0.7113    7.8451   -2.6106 H   0  0  0  0  0  0  0  0  0  0  0  0
   -0.3390    8.0230   -0.3090 H   0  0  0  0  0  0  0  0  0  0  0  0
    3.4970    9.7820   -1.5551 H   0  0  0  0  0  0  0  0  0  0  0  0
    2.7643    8.7214   -2.8059 H   0  0  0  0  0  0  0  0  0  0  0  0
    2.4153   10.4834   -2.8059 H   0  0  0  0  0  0  0  0  0  0  0  0
    1.6514    8.7947    0.8389 H   0  0  0  0  0  0  0  0  0  0  0  0
    1.3118    7.4181   -0.2640 H   0  0  0  0  0  0  0  0  0  0  0  0
    2.9338    8.1900   -0.2640 H   0  0  0  0  0  0  0  0  0  0  0  0
   -1.6701   12.8718    0.6097 H   0  0  0  0  0  0  0  0  0  0  0  0
   -2.3888   13.6866   -0.8207 H   0  0  0  0  0  0  0  0  0  0  0  0
   -2.1646   11.9044   -0.8207 H   0  0  0  0  0  0  0  0  0  0  0  0
   -0.7732   13.5243   -3.1736 H   0  0  0  0  0  0  0  0  0  0  0  0
   -1.2011   14.8164   -1.9162 H   0  0  0  0  0  0  0  0  0  0  0  0
    1.5185   14.2434   -3.1255 H   0  0  0  0  0  0  0  0  0  0  0  0
    0.4853   15.7135   -3.3189 H   0  0  0  0  0  0  0  0  0  0  0  0
    0.4296   16.4572    0.3333 H   0  0  0  0  0  0  0  0  0  0  0  0
    0.5991   17.5350   -1.0936 H   0  0  0  0  0  0  0  0  0  0  0  0
   -0.6382   16.2328   -1.0936 H   0  0  0  0  0  0  0  0  0  0  0  0
  1  2  1  0
  2  3  1  0
  3  4  1  0
  4  5  1  0
  5  6  1  0
  6  7  1  0
  7  8  1  0
  7  9  1  0
  2 10  1  0
 10 11  1  0
 11 12  1  0
 12 13  1  0
 13 14  1  6
 13 15  1  0
 15 16  1  0
 16 17  1  0
 17 18  2  0
 18 19  1  0
 19 20  1  0
 20 21  1  0
 21 22  1  0
 22 23  1  0
 22 24  1  0
 24 25  1  0
 24 26  1  0
 19 27  1  0
 27 28  1  1
 27 29  1  0
 29 30  1  0
 30 31  1  0
 31 32  1  1
  7  5  1  0
 31 10  1  0
 31 13  1  0
 27 15  1  0
 24 18  1  0
  1 33  1  0
  1 34  1  0
  1 35  1  0
  2 36  1  6
  3 37  1  0
  3 38  1  0
  4 39  1  0
  4 40  1  0
  5 41  1  6
  8 42  1  0
  8 43  1  0
  8 44  1  0
  9 45  1  0
  9 46  1  0
  9 47  1  0
 10 48  1  6
 11 49  1  0
 11 50  1  0
 12 51  1  0
 12 52  1  0
 14 53  1  0
 14 54  1  0
 14 55  1  0
 15 56  1  1
 16 57  1  0
 16 58  1  0
 17 59  1  0
 19 60  1  6
 20 61  1  0
 20 62  1  0
 21 63  1  0
 21 64  1  0
 22 65  1  6
 23 66  1  0
 25 67  1  0
 25 68  1  0
 25 69  1  0
 26 70  1  0
 26 71  1  0
 26 72  1  0
 28 73  1  0
 28 74  1  0
 28 75  1  0
 29 76  1  0
 29 77  1  0
 30 78  1  0
 30 79  1  0
 32 80  1  0
 32 81  1  0
 32 82  1  0
M  END
>  <meeko>  (8) 
{"is_sidechain": [false], "intermolecular_energy": 2.731, "internal_energy": -0.839}

$$$$
EPH_relaxed_0001_pdb2pqr_Repair_280_r2_0001_out
     RDKit          3D

 82 86  0  0  0  0  0  0  0  0999 V2000
    0.0620    9.4010   -2.4370 C   0  0  0  0  0  0  0  0  0  0  0  0
    1.1820   10.3730   -2.8210 C   0  0  2  0  0  0  0  0  0  0  0  0
    2.5650    9.6920   -2.8290 C   0  0  0  0  0  0  0  0  0  0  0  0
    3.5220   10.2540   -3.8840 C   0  0  0  0  0  0  0  0  0  0  0  0
    4.8880   10.5010   -3.3180 C   0  0  2  0  0  0  0  0  0  0  0  0
    5.4020   11.8190   -3.5490 O   0  0  0  0  0  0  0  0  0  0  0  0
    6.1170   10.7410   -4.1740 C   0  0  0  0  0  0  0  0  0  0  0  0
    6.0380   10.7450   -5.6690 C   0  0  0  0  0  0  0  0  0  0  0  0
    7.4660   10.4850   -3.5780 C   0  0  0  0  0  0  0  0  0  0  0  0
    1.1910   11.5590   -1.8640 C   0  0  1  0  0  0  0  0  0  0  0  0
    2.2620   11.4200   -0.7500 C   0  0  0  0  0  0  0  0  0  0  0  0
    2.7910   12.8480   -0.4570 C   0  0  0  0  0  0  0  0  0  0  0  0
    1.7870   13.7880   -1.1630 C   0  0  1  0  0  0  0  0  0  0  0  0
    0.5800   13.8980   -0.1780 C   0  0  0  0  0  0  0  0  0  0  0  0
    2.3290   15.1970   -1.5710 C   0  0  2  0  0  0  0  0  0  0  0  0
    2.7820   16.0860   -0.3990 C   0  0  0  0  0  0  0  0  0  0  0  0
    1.7250   16.9700    0.1770 C   0  0  0  0  0  0  0  0  0  0  0  0
    0.5460   17.2590   -0.4030 C   0  0  0  0  0  0  0  0  0  0  0  0
    0.2170   16.7530   -1.8140 C   0  0  1  0  0  0  0  0  0  0  0  0
   -0.3750   17.9140   -2.6550 C   0  0  0  0  0  0  0  0  0  0  0  0
   -1.5720   18.5760   -1.9790 C   0  0  0  0  0  0  0  0  0  0  0  0
   -1.1900   19.1180   -0.6040 C   0  0  2  0  0  0  0  0  0  0  0  0
   -0.2630   20.1940   -0.7730 O   0  0  0  0  0  0  0  0  0  0  0  0
   -0.5730   18.0390    0.3300 C   0  0  0  0  0  0  0  0  0  0  0  0
   -1.6690   17.0310    0.7560 C   0  0  0  0  0  0  0  0  0  0  0  0
   -0.1030   18.7450    1.6300 C   0  0  0  0  0  0  0  0  0  0  0  0
    1.3890   15.9890   -2.5680 C   0  0  1  0  0  0  0  0  0  0  0  0
    2.2960   17.0130   -3.3160 C   0  0  0  0  0  0  0  0  0  0  0  0
    0.7670   15.0560   -3.6730 C   0  0  0  0  0  0  0  0  0  0  0  0
    0.3620   13.6350   -3.2350 C   0  0  0  0  0  0  0  0  0  0  0  0
    1.4970   12.9550   -2.4640 C   0  0  2  0  0  0  0  0  0  0  0  0
    2.7170   12.8110   -3.4360 C   0  0  0  0  0  0  0  0  0  0  0  0
   -0.0097    9.3387   -1.3411 H   0  0  0  0  0  0  0  0  0  0  0  0
   -0.8929    9.7615   -2.8471 H   0  0  0  0  0  0  0  0  0  0  0  0
    0.2844    8.4048   -2.8471 H   0  0  0  0  0  0  0  0  0  0  0  0
    0.9806   10.7222   -3.8445 H   0  0  0  0  0  0  0  0  0  0  0  0
    3.0235    9.8254   -1.8380 H   0  0  0  0  0  0  0  0  0  0  0  0
    2.4003    8.6329   -3.0762 H   0  0  0  0  0  0  0  0  0  0  0  0
    3.6038    9.5334   -4.7111 H   0  0  0  0  0  0  0  0  0  0  0  0
    3.1180   11.2145   -4.2365 H   0  0  0  0  0  0  0  0  0  0  0  0
    4.6932    9.8107   -2.4840 H   0  0  0  0  0  0  0  0  0  0  0  0
    4.9843   10.7983   -5.9804 H   0  0  0  0  0  0  0  0  0  0  0  0
    6.5812   11.6168   -6.0626 H   0  0  0  0  0  0  0  0  0  0  0  0
    6.4904    9.8228   -6.0626 H   0  0  0  0  0  0  0  0  0  0  0  0
    7.3907   10.4993   -2.4807 H   0  0  0  0  0  0  0  0  0  0  0  0
    7.8318    9.5014   -3.9077 H   0  0  0  0  0  0  0  0  0  0  0  0
    8.1668   11.2662   -3.9077 H   0  0  0  0  0  0  0  0  0  0  0  0
    0.1492   11.5202   -1.5130 H   0  0  0  0  0  0  0  0  0  0  0  0
    1.8118   10.9894    0.1566 H   0  0  0  0  0  0  0  0  0  0  0  0
    3.0779   10.7541   -1.0675 H   0  0  0  0  0  0  0  0  0  0  0  0
    2.8084   13.0411    0.6258 H   0  0  0  0  0  0  0  0  0  0  0  0
    3.8210   12.9930   -0.8149 H   0  0  0  0  0  0  0  0  0  0  0  0
    0.9480   13.8645    0.8581 H   0  0  0  0  0  0  0  0  0  0  0  0
    0.0524   14.8479   -0.3492 H   0  0  0  0  0  0  0  0  0  0  0  0
   -0.1106   13.0591   -0.3492 H   0  0  0  0  0  0  0  0  0  0  0  0
    3.2445   14.9463   -2.1269 H   0  0  0  0  0  0  0  0  0  0  0  0
    3.1502   15.4294    0.4031 H   0  0  0  0  0  0  0  0  0  0  0  0
    3.5517   16.7579   -0.8066 H   0  0  0  0  0  0  0  0  0  0  0  0
    1.9276   17.4232    1.1586 H   0  0  0  0  0  0  0  0  0  0  0  0
   -0.5372   15.9626   -1.6854 H   0  0  0  0  0  0  0  0  0  0  0  0
    0.4069   18.6723   -2.8086 H   0  0  0  0  0  0  0  0  0  0  0  0
   -0.7225   17.4912   -3.6092 H   0  0  0  0  0  0  0  0  0  0  0  0
   -1.9269   19.4061   -2.6075 H   0  0  0  0  0  0  0  0  0  0  0  0
   -2.3646   17.8238   -1.8525 H   0  0  0  0  0  0  0  0  0  0  0  0
   -2.1143   19.4631   -0.1177 H   0  0  0  0  0  0  0  0  0  0  0  0
   -0.7780   21.0010   -0.9460 H   0  0  0  0  0  0  0  0  0  0  0  0
   -1.7185   16.9855    1.8539 H   0  0  0  0  0  0  0  0  0  0  0  0
   -2.6414   17.3569    0.3583 H   0  0  0  0  0  0  0  0  0  0  0  0
   -1.4255   16.0347    0.3583 H   0  0  0  0  0  0  0  0  0  0  0  0
   -0.4733   18.1888    2.5038 H   0  0  0  0  0  0  0  0  0  0  0  0
    0.9963   18.7756    1.6538 H   0  0  0  0  0  0  0  0  0  0  0  0
   -0.4989   19.7710    1.6538 H   0  0  0  0  0  0  0  0  0  0  0  0
    2.8392   17.6263   -2.5820 H   0  0  0  0  0  0  0  0  0  0  0  0
    3.0167   16.4721   -3.9469 H   0  0  0  0  0  0  0  0  0  0  0  0
    1.6720   17.6631   -3.9469 H   0  0  0  0  0  0  0  0  0  0  0  0
   -0.1338   15.5542   -4.0607 H   0  0  0  0  0  0  0  0  0  0  0  0
    1.5684   14.9119   -4.4126 H   0  0  0  0  0  0  0  0  0  0  0  0
   -0.5257   13.6970   -2.5883 H   0  0  0  0  0  0  0  0  0  0  0  0
    0.1427   13.0400   -4.1338 H   0  0  0  0  0  0  0  0  0  0  0  0
    3.6416   12.7019   -2.8502 H   0  0  0  0  0  0  0  0  0  0  0  0
    2.5777   11.9231   -4.0702 H   0  0  0  0  0  0  0  0  0  0  0  0
    2.7883   13.7070   -4.0702 H   0  0  0  0  0  0  0  0  0  0  0  0
  1  2  1  0
  2  3  1  0
  3  4  1  0
  4  5  1  0
  5  6  1  0
  6  7  1  0
  7  8  1  0
  7  9  1  0
  2 10  1  0
 10 11  1  0
 11 12  1  0
 12 13  1  0
 13 14  1  1
 13 15  1  0
 15 16  1  0
 16 17  1  0
 17 18  2  0
 18 19  1  0
 19 20  1  0
 20 21  1  0
 21 22  1  0
 22 23  1  0
 22 24  1  0
 24 25  1  0
 24 26  1  0
 19 27  1  0
 27 28  1  6
 27 29  1  0
 29 30  1  0
 30 31  1  0
 31 32  1  6
  7  5  1  0
 31 10  1  0
 31 13  1  0
 27 15  1  0
 24 18  1  0
  1 33  1  0
  1 34  1  0
  1 35  1  0
  2 36  1  6
  3 37  1  0
  3 38  1  0
  4 39  1  0
  4 40  1  0
  5 41  1  1
  8 42  1  0
  8 43  1  0
  8 44  1  0
  9 45  1  0
  9 46  1  0
  9 47  1  0
 10 48  1  1
 11 49  1  0
 11 50  1  0
 12 51  1  0
 12 52  1  0
 14 53  1  0
 14 54  1  0
 14 55  1  0
 15 56  1  6
 16 57  1  0
 16 58  1  0
 17 59  1  0
 19 60  1  1
 20 61  1  0
 20 62  1  0
 21 63  1  0
 21 64  1  0
 22 65  1  1
 23 66  1  0
 25 67  1  0
 25 68  1  0
 25 69  1  0
 26 70  1  0
 26 71  1  0
 26 72  1  0
 28 73  1  0
 28 74  1  0
 28 75  1  0
 29 76  1  0
 29 77  1  0
 30 78  1  0
 30 79  1  0
 32 80  1  0
 32 81  1  0
 32 82  1  0
M  END
>  <meeko>  (9) 
{"is_sidechain": [false], "intermolecular_energy": 2.731, "internal_energy": -0.839}

$$$$
EPH_relaxed_0001_pdb2pqr_Repair_280_r2_0001_out
     RDKit          3D

 82 86  0  0  0  0  0  0  0  0999 V2000
   -0.9470   16.3950   -5.9080 C   0  0  0  0  0  0  0  0  0  0  0  0
    0.1680   15.7060   -6.6990 C   0  0  2  0  0  0  0  0  0  0  0  0
   -0.2080   15.5070   -8.1810 C   0  0  0  0  0  0  0  0  0  0  0  0
    0.4490   16.5180   -9.1240 C   0  0  0  0  0  0  0  0  0  0  0  0
    1.8530   16.1230   -9.4690 C   0  0  2  0  0  0  0  0  0  0  0  0
    2.3490   16.6810  -10.6930 O   0  0  0  0  0  0  0  0  0  0  0  0
    2.2090   15.2510  -10.6590 C   0  0  0  0  0  0  0  0  0  0  0  0
    1.1550   14.7210  -11.5800 C   0  0  0  0  0  0  0  0  0  0  0  0
    3.5140   14.5180  -10.6440 C   0  0  0  0  0  0  0  0  0  0  0  0
    0.5040   14.3620   -6.0620 C   0  0  1  0  0  0  0  0  0  0  0  0
    1.7290   13.6770   -6.7240 C   0  0  0  0  0  0  0  0  0  0  0  0
    2.4850   12.9270   -5.5970 C   0  0  0  0  0  0  0  0  0  0  0  0
    1.5030   12.9280   -4.4020 C   0  0  1  0  0  0  0  0  0  0  0  0
    0.5170   11.7530   -4.6930 C   0  0  0  0  0  0  0  0  0  0  0  0
    2.1450   12.8040   -2.9810 C   0  0  2  0  0  0  0  0  0  0  0  0
    2.9120   11.4960   -2.7230 C   0  0  0  0  0  0  0  0  0  0  0  0
    2.1010   10.3840   -2.1460 C   0  0  0  0  0  0  0  0  0  0  0  0
    0.8850   10.5130   -1.5830 C   0  0  0  0  0  0  0  0  0  0  0  0
    0.2470   11.8950   -1.3960 C   0  0  1  0  0  0  0  0  0  0  0  0
   -0.3270   12.0110    0.0400 C   0  0  0  0  0  0  0  0  0  0  0  0
   -1.2870   10.8740    0.3800 C   0  0  0  0  0  0  0  0  0  0  0  0
   -0.5980    9.5190    0.2390 C   0  0  2  0  0  0  0  0  0  0  0  0
    0.4170    9.4110    1.2420 O   0  0  0  0  0  0  0  0  0  0  0  0
    0.0280    9.2930   -1.1650 C   0  0  0  0  0  0  0  0  0  0  0  0
   -1.0980    9.1090   -2.2130 C   0  0  0  0  0  0  0  0  0  0  0  0
    0.8100    7.9530   -1.1290 C   0  0  0  0  0  0  0  0  0  0  0  0
    1.1550   13.1380   -1.7920 C   0  0  1  0  0  0  0  0  0  0  0  0
    2.0410   13.5570   -0.5800 C   0  0  0  0  0  0  0  0  0  0  0  0
    0.2290   14.3700   -2.1120 C   0  0  0  0  0  0  0  0  0  0  0  0
   -0.2750   14.5020   -3.5620 C   0  0  0  0  0  0  0  0  0  0  0  0
    0.8790   14.3620   -4.5590 C   0  0  2  0  0  0  0  0  0  0  0  0
    1.8770   15.5430   -4.3050 C   0  0  0  0  0  0  0  0  0  0  0  0
   -0.7582   16.2783   -4.8306 H   0  0  0  0  0  0  0  0  0  0  0  0
   -0.9699   17.4649   -6.1625 H   0  0  0  0  0  0  0  0  0  0  0  0
   -1.9141   15.9368   -6.1625 H   0  0  0  0  0  0  0  0  0  0  0  0
    1.0496   16.3631   -6.6677 H   0  0  0  0  0  0  0  0  0  0  0  0
    0.1018   14.4963   -8.4851 H   0  0  0  0  0  0  0  0  0  0  0  0
   -1.2953   15.6542   -8.2592 H   0  0  0  0  0  0  0  0  0  0  0  0
   -0.1421   16.5784  -10.0497 H   0  0  0  0  0  0  0  0  0  0  0  0
    0.4823   17.4918   -8.6134 H   0  0  0  0  0  0  0  0  0  0  0  0
    2.1225   16.0639   -8.4042 H   0  0  0  0  0  0  0  0  0  0  0  0
    0.3266   14.3045  -10.9881 H   0  0  0  0  0  0  0  0  0  0  0  0
    0.7784   15.5369  -12.2144 H   0  0  0  0  0  0  0  0  0  0  0  0
    1.5854   13.9321  -12.2144 H   0  0  0  0  0  0  0  0  0  0  0  0
    3.8246   14.3435   -9.6033 H   0  0  0  0  0  0  0  0  0  0  0  0
    3.3984   13.5528  -11.1588 H   0  0  0  0  0  0  0  0  0  0  0  0
    4.2780   15.1190  -11.1588 H   0  0  0  0  0  0  0  0  0  0  0  0
   -0.4540   13.8423   -6.2107 H   0  0  0  0  0  0  0  0  0  0  0  0
    1.3952   12.9662   -7.4943 H   0  0  0  0  0  0  0  0  0  0  0  0
    2.3801   14.4175   -7.2115 H   0  0  0  0  0  0  0  0  0  0  0  0
    2.7205   11.8977   -5.9055 H   0  0  0  0  0  0  0  0  0  0  0  0
    3.4448   13.4039   -5.3491 H   0  0  0  0  0  0  0  0  0  0  0  0
    0.1612   11.3290   -3.7424 H   0  0  0  0  0  0  0  0  0  0  0  0
   -0.3404   12.1284   -5.2708 H   0  0  0  0  0  0  0  0  0  0  0  0
    1.0356   10.9737   -5.2708 H   0  0  0  0  0  0  0  0  0  0  0  0
    2.9063   13.5978   -2.9959 H   0  0  0  0  0  0  0  0  0  0  0  0
    3.3280   11.1514   -3.6812 H   0  0  0  0  0  0  0  0  0  0  0  0
    3.6778   11.7359   -1.9707 H   0  0  0  0  0  0  0  0  0  0  0  0
    2.5335    9.3733   -2.1840 H   0  0  0  0  0  0  0  0  0  0  0  0
   -0.5698   11.9536   -2.1304 H   0  0  0  0  0  0  0  0  0  0  0  0
    0.5079   11.9936    0.7560 H   0  0  0  0  0  0  0  0  0  0  0  0
   -0.8912   12.9534    0.0990 H   0  0  0  0  0  0  0  0  0  0  0  0
   -1.6356   10.9947    1.4163 H   0  0  0  0  0  0  0  0  0  0  0  0
   -2.1365   10.9107   -0.3178 H   0  0  0  0  0  0  0  0  0  0  0  0
   -1.3671    8.7431    0.3675 H   0  0  0  0  0  0  0  0  0  0  0  0
    0.4110   10.2360    1.7570 H   0  0  0  0  0  0  0  0  0  0  0  0
   -2.0569    8.9523   -1.6973 H   0  0  0  0  0  0  0  0  0  0  0  0
   -1.1632   10.0084   -2.8429 H   0  0  0  0  0  0  0  0  0  0  0  0
   -0.8735    8.2356   -2.8429 H   0  0  0  0  0  0  0  0  0  0  0  0
    0.9826    7.6572   -0.0837 H   0  0  0  0  0  0  0  0  0  0  0  0
    0.2251    7.1733   -1.6389 H   0  0  0  0  0  0  0  0  0  0  0  0
    1.7765    8.0787   -1.6389 H   0  0  0  0  0  0  0  0  0  0  0  0
    1.5204   13.3108    0.3572 H   0  0  0  0  0  0  0  0  0  0  0  0
    2.9979   13.0160   -0.6209 H   0  0  0  0  0  0  0  0  0  0  0  0
    2.2300   14.6399   -0.6209 H   0  0  0  0  0  0  0  0  0  0  0  0
   -0.6529   14.3022   -1.4580 H   0  0  0  0  0  0  0  0  0  0  0  0
    0.8599   15.2554   -1.9448 H   0  0  0  0  0  0  0  0  0  0  0  0
   -1.0173   13.7142   -3.7580 H   0  0  0  0  0  0  0  0  0  0  0  0
   -0.7271   15.4970   -3.6867 H   0  0  0  0  0  0  0  0  0  0  0  0
    2.0020   15.6909   -3.2222 H   0  0  0  0  0  0  0  0  0  0  0  0
    2.8508   15.3039   -4.7573 H   0  0  0  0  0  0  0  0  0  0  0  0
    1.4788   16.4633   -4.7573 H   0  0  0  0  0  0  0  0  0  0  0  0
  1  2  1  0
  2  3  1  0
  3  4  1  0
  4  5  1  0
  5  6  1  0
  6  7  1  0
  7  8  1  0
  7  9  1  0
  2 10  1  0
 10 11  1  0
 11 12  1  0
 12 13  1  0
 13 14  1  6
 13 15  1  0
 15 16  1  0
 16 17  1  0
 17 18  2  0
 18 19  1  0
 19 20  1  0
 20 21  1  0
 21 22  1  0
 22 23  1  0
 22 24  1  0
 24 25  1  0
 24 26  1  0
 19 27  1  0
 27 28  1  1
 27 29  1  0
 29 30  1  0
 30 31  1  0
 31 32  1  6
  7  5  1  0
 31 10  1  0
 31 13  1  0
 27 15  1  0
 24 18  1  0
  1 33  1  0
  1 34  1  0
  1 35  1  0
  2 36  1  6
  3 37  1  0
  3 38  1  0
  4 39  1  0
  4 40  1  0
  5 41  1  1
  8 42  1  0
  8 43  1  0
  8 44  1  0
  9 45  1  0
  9 46  1  0
  9 47  1  0
 10 48  1  1
 11 49  1  0
 11 50  1  0
 12 51  1  0
 12 52  1  0
 14 53  1  0
 14 54  1  0
 14 55  1  0
 15 56  1  6
 16 57  1  0
 16 58  1  0
 17 59  1  0
 19 60  1  6
 20 61  1  0
 20 62  1  0
 21 63  1  0
 21 64  1  0
 22 65  1  1
 23 66  1  0
 25 67  1  0
 25 68  1  0
 25 69  1  0
 26 70  1  0
 26 71  1  0
 26 72  1  0
 28 73  1  0
 28 74  1  0
 28 75  1  0
 29 76  1  0
 29 77  1  0
 30 78  1  0
 30 79  1  0
 32 80  1  0
 32 81  1  0
 32 82  1  0
M  END
>  <meeko>  (10) 
{"is_sidechain": [false], "intermolecular_energy": 2.731, "internal_energy": -0.839}

$$$$
EPH_relaxed_0001_pdb2pqr_Repair_280_r2_0001_out
     RDKit          3D

 82 86  0  0  0  0  0  0  0  0999 V2000
    0.2530   19.2090   -2.4050 C   0  0  0  0  0  0  0  0  0  0  0  0
   -0.0400   18.1780   -1.3100 C   0  0  2  0  0  0  0  0  0  0  0  0
    0.7100   18.4930   -0.0000 C   0  0  0  0  0  0  0  0  0  0  0  0
    1.7730   19.5850   -0.1470 C   0  0  0  0  0  0  0  0  0  0  0  0
    2.6220   19.7010    1.0830 C   0  0  2  0  0  0  0  0  0  0  0  0
    3.9480   20.1940    0.8510 O   0  0  0  0  0  0  0  0  0  0  0  0
    3.8490   18.8450    1.3350 C   0  0  0  0  0  0  0  0  0  0  0  0
    4.2960   17.8110    0.3500 C   0  0  0  0  0  0  0  0  0  0  0  0
    4.3250   18.6750    2.7440 C   0  0  0  0  0  0  0  0  0  0  0  0
    0.3280   16.7830   -1.7990 C   0  0  1  0  0  0  0  0  0  0  0  0
    1.6070   16.7760   -2.6790 C   0  0  0  0  0  0  0  0  0  0  0  0
    2.3500   15.4490   -2.3770 C   0  0  0  0  0  0  0  0  0  0  0  0
    1.3240   14.5960   -1.5960 C   0  0  1  0  0  0  0  0  0  0  0  0
    0.4020   13.9750   -2.6920 C   0  0  0  0  0  0  0  0  0  0  0  0
    1.9140   13.4990   -0.6500 C   0  0  2  0  0  0  0  0  0  0  0  0
    2.7270   12.3990   -1.3540 C   0  0  0  0  0  0  0  0  0  0  0  0
    1.9430   11.2050   -1.7870 C   0  0  0  0  0  0  0  0  0  0  0  0
    0.7020   10.8910   -1.3710 C   0  0  0  0  0  0  0  0  0  0  0  0
   -0.0030   11.7270   -0.2950 C   0  0  1  0  0  0  0  0  0  0  0  0
   -0.6370   10.7840    0.7610 C   0  0  0  0  0  0  0  0  0  0  0  0
   -1.5590    9.7410    0.1350 C   0  0  0  0  0  0  0  0  0  0  0  0
   -0.8070    8.8920   -0.8860 C   0  0  2  0  0  0  0  0  0  0  0  0
    0.1720    8.1060   -0.2010 O   0  0  0  0  0  0  0  0  0  0  0  0
   -0.1170    9.7350   -1.9950 C   0  0  0  0  0  0  0  0  0  0  0  0
   -1.1920   10.3480   -2.9270 C   0  0  0  0  0  0  0  0  0  0  0  0
    0.7210    8.7700   -2.8770 C   0  0  0  0  0  0  0  0  0  0  0  0
    0.8650   12.8840    0.3630 C   0  0  1  0  0  0  0  0  0  0  0  0
    1.6850   12.3180    1.5630 C   0  0  0  0  0  0  0  0  0  0  0  0
   -0.1000   13.9750    0.9600 C   0  0  0  0  0  0  0  0  0  0  0  0
   -0.5530   15.0990    0.0080 C   0  0  0  0  0  0  0  0  0  0  0  0
    0.6450   15.7130   -0.7240 C   0  0  2  0  0  0  0  0  0  0  0  0
    1.5790   16.3640    0.3520 C   0  0  0  0  0  0  0  0  0  0  0  0
    0.5257   20.1686   -1.9416 H   0  0  0  0  0  0  0  0  0  0  0  0
    1.0857   18.8537   -3.0298 H   0  0  0  0  0  0  0  0  0  0  0  0
   -0.6421   19.3448   -3.0298 H   0  0  0  0  0  0  0  0  0  0  0  0
   -1.1172   18.2232   -1.0919 H   0  0  0  0  0  0  0  0  0  0  0  0
   -0.0243   18.8218    0.7502 H   0  0  0  0  0  0  0  0  0  0  0  0
    1.2333   17.5732    0.3001 H   0  0  0  0  0  0  0  0  0  0  0  0
    2.4182   19.3414   -1.0039 H   0  0  0  0  0  0  0  0  0  0  0  0
    1.2592   20.5454   -0.3010 H   0  0  0  0  0  0  0  0  0  0  0  0
    1.7396   19.9260    1.7000 H   0  0  0  0  0  0  0  0  0  0  0  0
    4.6764   16.9310    0.8894 H   0  0  0  0  0  0  0  0  0  0  0  0
    3.4457   17.5146   -0.2817 H   0  0  0  0  0  0  0  0  0  0  0  0
    5.0945   18.2273   -0.2817 H   0  0  0  0  0  0  0  0  0  0  0  0
    3.5223   18.9617    3.4393 H   0  0  0  0  0  0  0  0  0  0  0  0
    4.5992   17.6234    2.9140 H   0  0  0  0  0  0  0  0  0  0  0  0
    5.2033   19.3150    2.9140 H   0  0  0  0  0  0  0  0  0  0  0  0
   -0.6007   16.5225   -2.3277 H   0  0  0  0  0  0  0  0  0  0  0  0
    1.3346   16.8239   -3.7437 H   0  0  0  0  0  0  0  0  0  0  0  0
    2.2440   17.6449   -2.4571 H   0  0  0  0  0  0  0  0  0  0  0  0
    2.6421   14.9464   -3.3108 H   0  0  0  0  0  0  0  0  0  0  0  0
    3.2773   15.6106   -1.8078 H   0  0  0  0  0  0  0  0  0  0  0  0
   -0.4185   13.4224   -2.2109 H   0  0  0  0  0  0  0  0  0  0  0  0
   -0.0143   14.7774   -3.3187 H   0  0  0  0  0  0  0  0  0  0  0  0
    0.9891   13.2876   -3.3187 H   0  0  0  0  0  0  0  0  0  0  0  0
    2.6393   14.0694   -0.0511 H   0  0  0  0  0  0  0  0  0  0  0  0
    3.1946   12.8405   -2.2464 H   0  0  0  0  0  0  0  0  0  0  0  0
    3.4520   12.0341   -0.6115 H   0  0  0  0  0  0  0  0  0  0  0  0
    2.4199   10.5239   -2.5072 H   0  0  0  0  0  0  0  0  0  0  0  0
   -0.7927   12.2887   -0.8154 H   0  0  0  0  0  0  0  0  0  0  0  0
    0.1694   10.2643    1.2992 H   0  0  0  0  0  0  0  0  0  0  0  0
   -1.2435   11.4019    1.4395 H   0  0  0  0  0  0  0  0  0  0  0  0
   -1.9530    9.0870    0.9269 H   0  0  0  0  0  0  0  0  0  0  0  0
   -2.3811   10.2614   -0.3781 H   0  0  0  0  0  0  0  0  0  0  0  0
   -1.5463    8.2534   -1.3915 H   0  0  0  0  0  0  0  0  0  0  0  0
    1.0490    8.4100   -0.4900 H   0  0  0  0  0  0  0  0  0  0  0  0
   -1.9884   10.8021   -2.3192 H   0  0  0  0  0  0  0  0  0  0  0  0
   -0.7305   11.1188   -3.5618 H   0  0  0  0  0  0  0  0  0  0  0  0
   -1.6203    9.5583   -3.5618 H   0  0  0  0  0  0  0  0  0  0  0  0
    1.3051    8.0974   -2.2317 H   0  0  0  0  0  0  0  0  0  0  0  0
    0.0476    8.1756   -3.5120 H   0  0  0  0  0  0  0  0  0  0  0  0
    1.4039    9.3534   -3.5120 H   0  0  0  0  0  0  0  0  0  0  0  0
    1.2211   12.6382    2.5076 H   0  0  0  0  0  0  0  0  0  0  0  0
    1.6959   11.2192    1.5138 H   0  0  0  0  0  0  0  0  0  0  0  0
    2.7163   12.6975    1.5138 H   0  0  0  0  0  0  0  0  0  0  0  0
   -1.0028   13.4596    1.3195 H   0  0  0  0  0  0  0  0  0  0  0  0
    0.4857   14.4797    1.7425 H   0  0  0  0  0  0  0  0  0  0  0  0
   -1.2527   14.6836   -0.7321 H   0  0  0  0  0  0  0  0  0  0  0  0
   -1.0425   15.8854    0.6012 H   0  0  0  0  0  0  0  0  0  0  0  0
    1.2132   16.1090    1.3576 H   0  0  0  0  0  0  0  0  0  0  0  0
    2.6034   15.9832    0.2270 H   0  0  0  0  0  0  0  0  0  0  0  0
    1.5763   17.4569    0.2270 H   0  0  0  0  0  0  0  0  0  0  0  0
  1  2  1  0
  2  3  1  0
  3  4  1  0
  4  5  1  0
  5  6  1  0
  6  7  1  0
  7  8  1  0
  7  9  1  0
  2 10  1  0
 10 11  1  0
 11 12  1  0
 12 13  1  0
 13 14  1  6
 13 15  1  0
 15 16  1  0
 16 17  1  0
 17 18  2  0
 18 19  1  0
 19 20  1  0
 20 21  1  0
 21 22  1  0
 22 23  1  0
 22 24  1  0
 24 25  1  0
 24 26  1  0
 19 27  1  0
 27 28  1  1
 27 29  1  0
 29 30  1  0
 30 31  1  0
 31 32  1  1
  7  5  1  0
 31 10  1  0
 31 13  1  0
 27 15  1  0
 24 18  1  0
  1 33  1  0
  1 34  1  0
  1 35  1  0
  2 36  1  1
  3 37  1  0
  3 38  1  0
  4 39  1  0
  4 40  1  0
  5 41  1  1
  8 42  1  0
  8 43  1  0
  8 44  1  0
  9 45  1  0
  9 46  1  0
  9 47  1  0
 10 48  1  6
 11 49  1  0
 11 50  1  0
 12 51  1  0
 12 52  1  0
 14 53  1  0
 14 54  1  0
 14 55  1  0
 15 56  1  1
 16 57  1  0
 16 58  1  0
 17 59  1  0
 19 60  1  6
 20 61  1  0
 20 62  1  0
 21 63  1  0
 21 64  1  0
 22 65  1  6
 23 66  1  0
 25 67  1  0
 25 68  1  0
 25 69  1  0
 26 70  1  0
 26 71  1  0
 26 72  1  0
 28 73  1  0
 28 74  1  0
 28 75  1  0
 29 76  1  0
 29 77  1  0
 30 78  1  0
 30 79  1  0
 32 80  1  0
 32 81  1  0
 32 82  1  0
M  END
>  <meeko>  (11) 
{"is_sidechain": [false], "intermolecular_energy": 2.731, "internal_energy": -0.839}

$$$$
EPH_relaxed_0001_pdb2pqr_Repair_280_r2_0001_out
     RDKit          3D

 82 86  0  0  0  0  0  0  0  0999 V2000
   -2.2990    7.8410   -2.2500 C   0  0  0  0  0  0  0  0  0  0  0  0
   -2.2170    8.4240   -0.8360 C   0  0  2  0  0  0  0  0  0  0  0  0
   -3.5790    8.3900   -0.1140 C   0  0  0  0  0  0  0  0  0  0  0  0
   -4.7800    8.4570   -1.0620 C   0  0  0  0  0  0  0  0  0  0  0  0
   -5.5450    7.1690   -1.0800 C   0  0  2  0  0  0  0  0  0  0  0  0
   -5.6660    6.5620   -2.3730 O   0  0  0  0  0  0  0  0  0  0  0  0
   -6.8900    7.0040   -1.7640 C   0  0  0  0  0  0  0  0  0  0  0  0
   -7.5480    8.1430   -2.4760 C   0  0  0  0  0  0  0  0  0  0  0  0
   -7.7830    5.8850   -1.3250 C   0  0  0  0  0  0  0  0  0  0  0  0
   -1.6930    9.8540   -0.8920 C   0  0  1  0  0  0  0  0  0  0  0  0
   -1.2590   10.3860    0.4990 C   0  0  0  0  0  0  0  0  0  0  0  0
   -0.0390   11.3130    0.2620 C   0  0  0  0  0  0  0  0  0  0  0  0
   -0.0170   11.5470   -1.2660 C   0  0  1  0  0  0  0  0  0  0  0  0
   -1.0760   12.6670   -1.5160 C   0  0  0  0  0  0  0  0  0  0  0  0
    1.3690   11.9140   -1.8900 C   0  0  2  0  0  0  0  0  0  0  0  0
    1.9810   13.2330   -1.3880 C   0  0  0  0  0  0  0  0  0  0  0  0
    1.6200   14.4460   -2.1800 C   0  0  0  0  0  0  0  0  0  0  0  0
    1.0710   14.4430   -3.4090 C   0  0  0  0  0  0  0  0  0  0  0  0
    0.8490   13.1290   -4.1690 C   0  0  1  0  0  0  0  0  0  0  0  0
    1.3470   13.2850   -5.6300 C   0  0  0  0  0  0  0  0  0  0  0  0
    0.7180   14.4820   -6.3380 C   0  0  0  0  0  0  0  0  0  0  0  0
    1.0100   15.7760   -5.5830 C   0  0  2  0  0  0  0  0  0  0  0  0
    2.4130   16.0450   -5.6540 O   0  0  0  0  0  0  0  0  0  0  0  0
    0.5600   15.7330   -4.0960 C   0  0  0  0  0  0  0  0  0  0  0  0
   -0.9860   15.7450   -4.0190 C   0  0  0  0  0  0  0  0  0  0  0  0
    1.0390   17.0440   -3.4140 C   0  0  0  0  0  0  0  0  0  0  0  0
    1.4140   11.8190   -3.4690 C   0  0  1  0  0  0  0  0  0  0  0  0
    2.9100   11.6100   -3.8590 C   0  0  0  0  0  0  0  0  0  0  0  0
    0.6340   10.5660   -4.0160 C   0  0  0  0  0  0  0  0  0  0  0  0
   -0.6660   10.1830   -3.2830 C   0  0  0  0  0  0  0  0  0  0  0  0
   -0.4440   10.1200   -1.7690 C   0  0  2  0  0  0  0  0  0  0  0  0
    0.6000    8.9860   -1.4850 C   0  0  0  0  0  0  0  0  0  0  0  0
   -2.4520    6.7534   -2.1899 H   0  0  0  0  0  0  0  0  0  0  0  0
   -3.1413    8.3006   -2.7878 H   0  0  0  0  0  0  0  0  0  0  0  0
   -1.3626    8.0504   -2.7878 H   0  0  0  0  0  0  0  0  0  0  0  0
   -1.5217    7.7960   -0.2596 H   0  0  0  0  0  0  0  0  0  0  0  0
   -3.6433    7.4554    0.4625 H   0  0  0  0  0  0  0  0  0  0  0  0
   -3.6254    9.2825    0.5273 H   0  0  0  0  0  0  0  0  0  0  0  0
   -5.4498    9.2648   -0.7321 H   0  0  0  0  0  0  0  0  0  0  0  0
   -4.4042    8.6465   -2.0783 H   0  0  0  0  0  0  0  0  0  0  0  0
   -5.1973    6.9213   -0.0662 H   0  0  0  0  0  0  0  0  0  0  0  0
   -7.9563    8.8497   -1.7385 H   0  0  0  0  0  0  0  0  0  0  0  0
   -6.8081    8.6578   -3.1066 H   0  0  0  0  0  0  0  0  0  0  0  0
   -8.3635    7.7592   -3.1066 H   0  0  0  0  0  0  0  0  0  0  0  0
   -7.8120    5.8486   -0.2260 H   0  0  0  0  0  0  0  0  0  0  0  0
   -8.7985    6.0524   -1.7133 H   0  0  0  0  0  0  0  0  0  0  0  0
   -7.3945    4.9320   -1.7133 H   0  0  0  0  0  0  0  0  0  0  0  0
   -2.5707   10.3550   -1.3264 H   0  0  0  0  0  0  0  0  0  0  0  0
   -2.0809   10.9522    0.9614 H   0  0  0  0  0  0  0  0  0  0  0  0
   -1.0007    9.5582    1.1757 H   0  0  0  0  0  0  0  0  0  0  0  0
   -0.1647   12.2649    0.7987 H   0  0  0  0  0  0  0  0  0  0  0  0
    0.8985   10.8702    0.6294 H   0  0  0  0  0  0  0  0  0  0  0  0
   -1.4387   13.0506   -0.5510 H   0  0  0  0  0  0  0  0  0  0  0  0
   -0.6150   13.4867   -2.0866 H   0  0  0  0  0  0  0  0  0  0  0  0
   -1.9202   12.2526   -2.0866 H   0  0  0  0  0  0  0  0  0  0  0  0
    2.0210   11.1166   -1.5040 H   0  0  0  0  0  0  0  0  0  0  0  0
    1.6453   13.3910   -0.3525 H   0  0  0  0  0  0  0  0  0  0  0  0
    3.0707   13.1192   -1.4856 H   0  0  0  0  0  0  0  0  0  0  0  0
    1.8196   15.4252   -1.7202 H   0  0  0  0  0  0  0  0  0  0  0  0
   -0.2369   12.9535   -4.1613 H   0  0  0  0  0  0  0  0  0  0  0  0
    2.4391   13.4162   -5.6182 H   0  0  0  0  0  0  0  0  0  0  0  0
    1.0540   12.3792   -6.1812 H   0  0  0  0  0  0  0  0  0  0  0  0
    1.1311   14.5571   -7.3547 H   0  0  0  0  0  0  0  0  0  0  0  0
   -0.3715   14.3353   -6.3761 H   0  0  0  0  0  0  0  0  0  0  0  0
    0.4278   16.5763   -6.0632 H   0  0  0  0  0  0  0  0  0  0  0  0
    2.5920   16.4490   -6.5200 H   0  0  0  0  0  0  0  0  0  0  0  0
   -1.3006   15.7474   -2.9650 H   0  0  0  0  0  0  0  0  0  0  0  0
   -1.3710   16.6462   -4.5187 H   0  0  0  0  0  0  0  0  0  0  0  0
   -1.3850   14.8499   -4.5187 H   0  0  0  0  0  0  0  0  0  0  0  0
    0.9958   16.9258   -2.3212 H   0  0  0  0  0  0  0  0  0  0  0  0
    2.0738   17.2590   -3.7189 H   0  0  0  0  0  0  0  0  0  0  0  0
    0.3866   17.8755   -3.7189 H   0  0  0  0  0  0  0  0  0  0  0  0
    3.5184   11.5250   -2.9465 H   0  0  0  0  0  0  0  0  0  0  0  0
    3.0090   10.6893   -4.4527 H   0  0  0  0  0  0  0  0  0  0  0  0
    3.2575   12.4683   -4.4527 H   0  0  0  0  0  0  0  0  0  0  0  0
    0.3770   10.7665   -5.0666 H   0  0  0  0  0  0  0  0  0  0  0  0
    1.3130    9.7144   -3.8621 H   0  0  0  0  0  0  0  0  0  0  0  0
   -1.4378   10.9354   -3.5024 H   0  0  0  0  0  0  0  0  0  0  0  0
   -0.9857    9.1900   -3.6320 H   0  0  0  0  0  0  0  0  0  0  0  0
    0.7170    8.8590   -0.3986 H   0  0  0  0  0  0  0  0  0  0  0  0
    0.2471    8.0433   -1.9285 H   0  0  0  0  0  0  0  0  0  0  0  0
    1.5686    9.2599   -1.9285 H   0  0  0  0  0  0  0  0  0  0  0  0
  1  2  1  0
  2  3  1  0
  3  4  1  0
  4  5  1  0
  5  6  1  0
  6  7  1  0
  7  8  1  0
  7  9  1  0
  2 10  1  0
 10 11  1  0
 11 12  1  0
 12 13  1  0
 13 14  1  1
 13 15  1  0
 15 16  1  0
 16 17  1  0
 17 18  2  0
 18 19  1  0
 19 20  1  0
 20 21  1  0
 21 22  1  0
 22 23  1  0
 22 24  1  0
 24 25  1  0
 24 26  1  0
 19 27  1  0
 27 28  1  1
 27 29  1  0
 29 30  1  0
 30 31  1  0
 31 32  1  6
  7  5  1  0
 31 10  1  0
 31 13  1  0
 27 15  1  0
 24 18  1  0
  1 33  1  0
  1 34  1  0
  1 35  1  0
  2 36  1  1
  3 37  1  0
  3 38  1  0
  4 39  1  0
  4 40  1  0
  5 41  1  1
  8 42  1  0
  8 43  1  0
  8 44  1  0
  9 45  1  0
  9 46  1  0
  9 47  1  0
 10 48  1  6
 11 49  1  0
 11 50  1  0
 12 51  1  0
 12 52  1  0
 14 53  1  0
 14 54  1  0
 14 55  1  0
 15 56  1  1
 16 57  1  0
 16 58  1  0
 17 59  1  0
 19 60  1  6
 20 61  1  0
 20 62  1  0
 21 63  1  0
 21 64  1  0
 22 65  1  6
 23 66  1  0
 25 67  1  0
 25 68  1  0
 25 69  1  0
 26 70  1  0
 26 71  1  0
 26 72  1  0
 28 73  1  0
 28 74  1  0
 28 75  1  0
 29 76  1  0
 29 77  1  0
 30 78  1  0
 30 79  1  0
 32 80  1  0
 32 81  1  0
 32 82  1  0
M  END
>  <meeko>  (12) 
{"is_sidechain": [false], "intermolecular_energy": 2.731, "internal_energy": -0.839}

$$$$
EPH_relaxed_0001_pdb2pqr_Repair_280_r2_0001_out
     RDKit          3D

 82 86  0  0  0  0  0  0  0  0999 V2000
   -3.7300    7.1930   -3.4620 C   0  0  0  0  0  0  0  0  0  0  0  0
   -3.7540    7.2710   -1.9330 C   0  0  2  0  0  0  0  0  0  0  0  0
   -5.1680    7.0420   -1.3610 C   0  0  0  0  0  0  0  0  0  0  0  0
   -6.2870    7.2560   -2.3840 C   0  0  0  0  0  0  0  0  0  0  0  0
   -7.6080    7.4940   -1.7180 C   0  0  2  0  0  0  0  0  0  0  0  0
   -8.1970    6.3290   -1.1240 O   0  0  0  0  0  0  0  0  0  0  0  0
   -8.9160    6.9130   -2.2230 C   0  0  0  0  0  0  0  0  0  0  0  0
   -8.9660    6.0490   -3.4440 C   0  0  0  0  0  0  0  0  0  0  0  0
  -10.1960    7.5770   -1.8210 C   0  0  0  0  0  0  0  0  0  0  0  0
   -3.2180    8.6220   -1.4730 C   0  0  1  0  0  0  0  0  0  0  0  0
   -3.8530    9.0930   -0.1370 C   0  0  0  0  0  0  0  0  0  0  0  0
   -2.7480    9.8550    0.6390 C   0  0  0  0  0  0  0  0  0  0  0  0
   -1.6280   10.0850   -0.4020 C   0  0  1  0  0  0  0  0  0  0  0  0
   -2.0900   11.3320   -1.2190 C   0  0  0  0  0  0  0  0  0  0  0  0
   -0.1840   10.2700    0.1670 C   0  0  2  0  0  0  0  0  0  0  0  0
    0.0080   11.4990    1.0730 C   0  0  0  0  0  0  0  0  0  0  0  0
    0.4270   12.7490    0.3720 C   0  0  0  0  0  0  0  0  0  0  0  0
    0.9150   12.8170   -0.8810 C   0  0  0  0  0  0  0  0  0  0  0  0
    1.1800   11.5430   -1.6930 C   0  0  1  0  0  0  0  0  0  0  0  0
    2.5780   11.6350   -2.3590 C   0  0  0  0  0  0  0  0  0  0  0  0
    2.7480   12.9030   -3.1900 C   0  0  0  0  0  0  0  0  0  0  0  0
    2.5340   14.1490   -2.3340 C   0  0  2  0  0  0  0  0  0  0  0  0
    3.5900   14.2340   -1.3720 O   0  0  0  0  0  0  0  0  0  0  0  0
    1.1610   14.1630   -1.6050 C   0  0  0  0  0  0  0  0  0  0  0  0
    0.0270   14.3750   -2.6380 C   0  0  0  0  0  0  0  0  0  0  0  0
    1.1310   15.4000   -0.6680 C   0  0  0  0  0  0  0  0  0  0  0  0
    0.9600   10.1710   -0.9230 C   0  0  1  0  0  0  0  0  0  0  0  0
    2.2630    9.7710   -0.1650 C   0  0  0  0  0  0  0  0  0  0  0  0
    0.6880    9.0290   -1.9730 C   0  0  0  0  0  0  0  0  0  0  0  0
   -0.7750    8.8170   -2.4050 C   0  0  0  0  0  0  0  0  0  0  0  0
   -1.6990    8.7250   -1.1870 C   0  0  2  0  0  0  0  0  0  0  0  0
   -1.2730    7.4660   -0.3570 C   0  0  0  0  0  0  0  0  0  0  0  0
   -3.4197    6.1845   -3.7729 H   0  0  0  0  0  0  0  0  0  0  0  0
   -4.7350    7.4051   -3.8558 H   0  0  0  0  0  0  0  0  0  0  0  0
   -3.0181    7.9334   -3.8558 H   0  0  0  0  0  0  0  0  0  0  0  0
   -3.1096    6.4656   -1.5507 H   0  0  0  0  0  0  0  0  0  0  0  0
   -5.2295    6.0083   -0.9900 H   0  0  0  0  0  0  0  0  0  0  0  0
   -5.3160    7.7837   -0.5622 H   0  0  0  0  0  0  0  0  0  0  0  0
   -6.0391    8.1285   -3.0063 H   0  0  0  0  0  0  0  0  0  0  0  0
   -6.3705    6.3461   -2.9965 H   0  0  0  0  0  0  0  0  0  0  0  0
   -7.3125    8.5174   -1.4436 H   0  0  0  0  0  0  0  0  0  0  0  0
   -9.0271    4.9926   -3.1434 H   0  0  0  0  0  0  0  0  0  0  0  0
   -9.8505    6.3116   -4.0430 H   0  0  0  0  0  0  0  0  0  0  0  0
   -8.0572    6.2078   -4.0430 H   0  0  0  0  0  0  0  0  0  0  0  0
  -10.2623    7.6114   -0.7235 H   0  0  0  0  0  0  0  0  0  0  0  0
  -10.2196    8.6010   -2.2220 H   0  0  0  0  0  0  0  0  0  0  0  0
  -11.0467    7.0065   -2.2220 H   0  0  0  0  0  0  0  0  0  0  0  0
   -3.4777    9.2317   -2.3510 H   0  0  0  0  0  0  0  0  0  0  0  0
   -4.7044    9.7602   -0.3367 H   0  0  0  0  0  0  0  0  0  0  0  0
   -4.2270    8.2382    0.4456 H   0  0  0  0  0  0  0  0  0  0  0  0
   -3.1302   10.8149    1.0166 H   0  0  0  0  0  0  0  0  0  0  0  0
   -2.3930    9.2950    1.5167 H   0  0  0  0  0  0  0  0  0  0  0  0
   -2.3871   12.1340   -0.5273 H   0  0  0  0  0  0  0  0  0  0  0  0
   -1.2620   11.6825   -1.8528 H   0  0  0  0  0  0  0  0  0  0  0  0
   -2.9464   11.0584   -1.8528 H   0  0  0  0  0  0  0  0  0  0  0  0
   -0.0756    9.3946    0.8242 H   0  0  0  0  0  0  0  0  0  0  0  0
   -0.9465   11.6984    1.5820 H   0  0  0  0  0  0  0  0  0  0  0  0
    0.8290   11.2455    1.7597 H   0  0  0  0  0  0  0  0  0  0  0  0
    0.3287   13.6942    0.9261 H   0  0  0  0  0  0  0  0  0  0  0  0
    0.3992   11.5082   -2.4670 H   0  0  0  0  0  0  0  0  0  0  0  0
    3.3454   11.6244   -1.5709 H   0  0  0  0  0  0  0  0  0  0  0  0
    2.6820   10.7751   -3.0370 H   0  0  0  0  0  0  0  0  0  0  0  0
    3.7645   12.9248   -3.6097 H   0  0  0  0  0  0  0  0  0  0  0  0
    1.9993   12.8977   -3.9958 H   0  0  0  0  0  0  0  0  0  0  0  0
    2.5399   15.0178   -3.0086 H   0  0  0  0  0  0  0  0  0  0  0  0
    4.2090   13.5050   -1.5480 H   0  0  0  0  0  0  0  0  0  0  0  0
   -0.9215   14.5523   -2.1100 H   0  0  0  0  0  0  0  0  0  0  0  0
    0.2636   15.2445   -3.2689 H   0  0  0  0  0  0  0  0  0  0  0  0
   -0.0665   13.4788   -3.2689 H   0  0  0  0  0  0  0  0  0  0  0  0
    1.1391   15.0663    0.3801 H   0  0  0  0  0  0  0  0  0  0  0  0
    2.0142   16.0270   -0.8600 H   0  0  0  0  0  0  0  0  0  0  0  0
    0.2184   15.9834   -0.8600 H   0  0  0  0  0  0  0  0  0  0  0  0
    2.0875    9.8249    0.9196 H   0  0  0  0  0  0  0  0  0  0  0  0
    2.5467    8.7444   -0.4400 H   0  0  0  0  0  0  0  0  0  0  0  0
    3.0738   10.4616   -0.4400 H   0  0  0  0  0  0  0  0  0  0  0  0
    1.2713    9.2615   -2.8762 H   0  0  0  0  0  0  0  0  0  0  0  0
    0.9762    8.0967   -1.4654 H   0  0  0  0  0  0  0  0  0  0  0  0
   -1.0908    9.6630   -3.0331 H   0  0  0  0  0  0  0  0  0  0  0  0
   -0.8413    7.8739   -2.9673 H   0  0  0  0  0  0  0  0  0  0  0  0
   -1.3494    7.6917    0.7169 H   0  0  0  0  0  0  0  0  0  0  0  0
   -1.9360    6.6234   -0.6026 H   0  0  0  0  0  0  0  0  0  0  0  0
   -0.2345    7.1991   -0.6026 H   0  0  0  0  0  0  0  0  0  0  0  0
  1  2  1  0
  2  3  1  0
  3  4  1  0
  4  5  1  0
  5  6  1  0
  6  7  1  0
  7  8  1  0
  7  9  1  0
  2 10  1  0
 10 11  1  0
 11 12  1  0
 12 13  1  0
 13 14  1  6
 13 15  1  0
 15 16  1  0
 16 17  1  0
 17 18  2  0
 18 19  1  0
 19 20  1  0
 20 21  1  0
 21 22  1  0
 22 23  1  0
 22 24  1  0
 24 25  1  0
 24 26  1  0
 19 27  1  0
 27 28  1  1
 27 29  1  0
 29 30  1  0
 30 31  1  0
 31 32  1  1
  7  5  1  0
 31 10  1  0
 31 13  1  0
 27 15  1  0
 24 18  1  0
  1 33  1  0
  1 34  1  0
  1 35  1  0
  2 36  1  1
  3 37  1  0
  3 38  1  0
  4 39  1  0
  4 40  1  0
  5 41  1  1
  8 42  1  0
  8 43  1  0
  8 44  1  0
  9 45  1  0
  9 46  1  0
  9 47  1  0
 10 48  1  6
 11 49  1  0
 11 50  1  0
 12 51  1  0
 12 52  1  0
 14 53  1  0
 14 54  1  0
 14 55  1  0
 15 56  1  1
 16 57  1  0
 16 58  1  0
 17 59  1  0
 19 60  1  6
 20 61  1  0
 20 62  1  0
 21 63  1  0
 21 64  1  0
 22 65  1  6
 23 66  1  0
 25 67  1  0
 25 68  1  0
 25 69  1  0
 26 70  1  0
 26 71  1  0
 26 72  1  0
 28 73  1  0
 28 74  1  0
 28 75  1  0
 29 76  1  0
 29 77  1  0
 30 78  1  0
 30 79  1  0
 32 80  1  0
 32 81  1  0
 32 82  1  0
M  END
>  <meeko>  (13) 
{"is_sidechain": [false], "intermolecular_energy": 2.731, "internal_energy": -0.839}

$$$$
EPH_relaxed_0001_pdb2pqr_Repair_280_r2_0001_out
     RDKit          3D

 82 86  0  0  0  0  0  0  0  0999 V2000
    3.3020   18.5460   -2.9510 C   0  0  0  0  0  0  0  0  0  0  0  0
    2.0140   17.7200   -2.8980 C   0  0  2  0  0  0  0  0  0  0  0  0
    0.8750   18.4660   -2.1750 C   0  0  0  0  0  0  0  0  0  0  0  0
    1.2760   19.8520   -1.6620 C   0  0  0  0  0  0  0  0  0  0  0  0
    1.9310   19.7760   -0.3150 C   0  0  2  0  0  0  0  0  0  0  0  0
    1.6700   18.5680    0.4100 O   0  0  0  0  0  0  0  0  0  0  0  0
    1.1600   19.7790    0.9910 C   0  0  0  0  0  0  0  0  0  0  0  0
   -0.3350   19.8600    1.0150 C   0  0  0  0  0  0  0  0  0  0  0  0
    1.8710   20.1950    2.2410 C   0  0  0  0  0  0  0  0  0  0  0  0
    2.2800   16.3850   -2.2130 C   0  0  1  0  0  0  0  0  0  0  0  0
    3.0340   16.5450   -0.8660 C   0  0  0  0  0  0  0  0  0  0  0  0
    2.4950   15.4430    0.0820 C   0  0  0  0  0  0  0  0  0  0  0  0
    1.7040   14.4870   -0.8410 C   0  0  1  0  0  0  0  0  0  0  0  0
    2.7860   13.5720   -1.4940 C   0  0  0  0  0  0  0  0  0  0  0  0
    0.5730   13.6480   -0.1600 C   0  0  2  0  0  0  0  0  0  0  0  0
    1.0510   12.6690    0.9260 C   0  0  0  0  0  0  0  0  0  0  0  0
    1.3920   11.2980    0.4430 C   0  0  0  0  0  0  0  0  0  0  0  0
    1.0500   10.7820   -0.7520 C   0  0  0  0  0  0  0  0  0  0  0  0
    0.1610   11.5690   -1.7240 C   0  0  1  0  0  0  0  0  0  0  0  0
   -0.9490   10.6380   -2.2790 C   0  0  0  0  0  0  0  0  0  0  0  0
   -0.3870    9.3640   -2.9030 C   0  0  0  0  0  0  0  0  0  0  0  0
    0.4440    8.5810   -1.8890 C   0  0  2  0  0  0  0  0  0  0  0  0
   -0.4240    8.0950   -0.8600 O   0  0  0  0  0  0  0  0  0  0  0  0
    1.5880    9.4200   -1.2550 C   0  0  0  0  0  0  0  0  0  0  0  0
    2.6840    9.6910   -2.3150 C   0  0  0  0  0  0  0  0  0  0  0  0
    2.2560    8.5580   -0.1510 C   0  0  0  0  0  0  0  0  0  0  0  0
   -0.4140   12.9460   -1.1780 C   0  0  1  0  0  0  0  0  0  0  0  0
   -1.7460   12.6970   -0.4060 C   0  0  0  0  0  0  0  0  0  0  0  0
   -0.7750   13.8730   -2.3990 C   0  0  0  0  0  0  0  0  0  0  0  0
    0.3530   14.7660   -2.9500 C   0  0  0  0  0  0  0  0  0  0  0  0
    1.0490   15.5300   -1.8190 C   0  0  2  0  0  0  0  0  0  0  0  0
   -0.0100   16.4750   -1.1570 C   0  0  0  0  0  0  0  0  0  0  0  0
    3.6407   18.7632   -1.9272 H   0  0  0  0  0  0  0  0  0  0  0  0
    4.0802   17.9781   -3.4819 H   0  0  0  0  0  0  0  0  0  0  0  0
    3.1105   19.4902   -3.4819 H   0  0  0  0  0  0  0  0  0  0  0  0
    1.6891   17.5472   -3.9346 H   0  0  0  0  0  0  0  0  0  0  0  0
    0.0367   18.5847   -2.8773 H   0  0  0  0  0  0  0  0  0  0  0  0
    0.6033   17.8637   -1.2956 H   0  0  0  0  0  0  0  0  0  0  0  0
    1.9792   20.3066   -2.3753 H   0  0  0  0  0  0  0  0  0  0  0  0
    0.3641   20.4597   -1.5664 H   0  0  0  0  0  0  0  0  0  0  0  0
    2.7835   20.3738   -0.6697 H   0  0  0  0  0  0  0  0  0  0  0  0
   -0.6845   19.8789    2.0578 H   0  0  0  0  0  0  0  0  0  0  0  0
   -0.6608   20.7771    0.5024 H   0  0  0  0  0  0  0  0  0  0  0  0
   -0.7580   18.9835    0.5024 H   0  0  0  0  0  0  0  0  0  0  0  0
    1.2977   19.8596    3.1178 H   0  0  0  0  0  0  0  0  0  0  0  0
    2.8724   19.7403    2.2618 H   0  0  0  0  0  0  0  0  0  0  0  0
    1.9653   21.2908    2.2618 H   0  0  0  0  0  0  0  0  0  0  0  0
    2.8502   15.8805   -3.0070 H   0  0  0  0  0  0  0  0  0  0  0  0
    4.1156   16.4166   -1.0198 H   0  0  0  0  0  0  0  0  0  0  0  0
    2.8729   17.5462   -0.4397 H   0  0  0  0  0  0  0  0  0  0  0  0
    3.3247   14.9120    0.5716 H   0  0  0  0  0  0  0  0  0  0  0  0
    1.8710   15.8553    0.8886 H   0  0  0  0  0  0  0  0  0  0  0  0
    3.3717   13.0767   -0.7056 H   0  0  0  0  0  0  0  0  0  0  0  0
    2.2946   12.8113   -2.1184 H   0  0  0  0  0  0  0  0  0  0  0  0
    3.4545   14.1829   -2.1184 H   0  0  0  0  0  0  0  0  0  0  0  0
   -0.0079   14.4184    0.3682 H   0  0  0  0  0  0  0  0  0  0  0  0
    1.9482   13.0962    1.3977 H   0  0  0  0  0  0  0  0  0  0  0  0
    0.2054   12.5462    1.6187 H   0  0  0  0  0  0  0  0  0  0  0  0
    1.9720   10.6551    1.1215 H   0  0  0  0  0  0  0  0  0  0  0  0
    0.8194   11.8948   -2.5428 H   0  0  0  0  0  0  0  0  0  0  0  0
   -1.6208   10.3596   -1.4537 H   0  0  0  0  0  0  0  0  0  0  0  0
   -1.4827   11.1885   -3.0677 H   0  0  0  0  0  0  0  0  0  0  0  0
   -1.2202    8.7344   -3.2486 H   0  0  0  0  0  0  0  0  0  0  0  0
    0.2604    9.6425   -3.7476 H   0  0  0  0  0  0  0  0  0  0  0  0
    0.9260    7.7516   -2.4274 H   0  0  0  0  0  0  0  0  0  0  0  0
   -1.3150    8.0160   -1.2400 H   0  0  0  0  0  0  0  0  0  0  0  0
    3.6326    9.9256   -1.8099 H   0  0  0  0  0  0  0  0  0  0  0  0
    2.8145    8.7981   -2.9440 H   0  0  0  0  0  0  0  0  0  0  0  0
    2.3834   10.5419   -2.9440 H   0  0  0  0  0  0  0  0  0  0  0  0
    1.9619    8.9375    0.8387 H   0  0  0  0  0  0  0  0  0  0  0  0
    1.9299    7.5126   -0.2546 H   0  0  0  0  0  0  0  0  0  0  0  0
    3.3497    8.6129   -0.2546 H   0  0  0  0  0  0  0  0  0  0  0  0
   -1.5545   12.7328    0.6766 H   0  0  0  0  0  0  0  0  0  0  0  0
   -2.4765   13.4741   -0.6751 H   0  0  0  0  0  0  0  0  0  0  0  0
   -2.1464   11.7084   -0.6751 H   0  0  0  0  0  0  0  0  0  0  0  0
   -1.1172   13.2249   -3.2193 H   0  0  0  0  0  0  0  0  0  0  0  0
   -1.5340   14.5711   -2.0161 H   0  0  0  0  0  0  0  0  0  0  0  0
    1.0918   14.1353   -3.4661 H   0  0  0  0  0  0  0  0  0  0  0  0
   -0.0854   15.4946   -3.6478 H   0  0  0  0  0  0  0  0  0  0  0  0
    0.0692   16.4044   -0.0621 H   0  0  0  0  0  0  0  0  0  0  0  0
    0.1765   17.5123   -1.4720 H   0  0  0  0  0  0  0  0  0  0  0  0
   -1.0195   16.1721   -1.4720 H   0  0  0  0  0  0  0  0  0  0  0  0
  1  2  1  0
  2  3  1  0
  3  4  1  0
  4  5  1  0
  5  6  1  0
  6  7  1  0
  7  8  1  0
  7  9  1  0
  2 10  1  0
 10 11  1  0
 11 12  1  0
 12 13  1  0
 13 14  1  6
 13 15  1  0
 15 16  1  0
 16 17  1  0
 17 18  2  0
 18 19  1  0
 19 20  1  0
 20 21  1  0
 21 22  1  0
 22 23  1  0
 22 24  1  0
 24 25  1  0
 24 26  1  0
 19 27  1  0
 27 28  1  1
 27 29  1  0
 29 30  1  0
 30 31  1  0
 31 32  1  1
  7  5  1  0
 31 10  1  0
 31 13  1  0
 27 15  1  0
 24 18  1  0
  1 33  1  0
  1 34  1  0
  1 35  1  0
  2 36  1  6
  3 37  1  0
  3 38  1  0
  4 39  1  0
  4 40  1  0
  5 41  1  1
  8 42  1  0
  8 43  1  0
  8 44  1  0
  9 45  1  0
  9 46  1  0
  9 47  1  0
 10 48  1  6
 11 49  1  0
 11 50  1  0
 12 51  1  0
 12 52  1  0
 14 53  1  0
 14 54  1  0
 14 55  1  0
 15 56  1  1
 16 57  1  0
 16 58  1  0
 17 59  1  0
 19 60  1  6
 20 61  1  0
 20 62  1  0
 21 63  1  0
 21 64  1  0
 22 65  1  6
 23 66  1  0
 25 67  1  0
 25 68  1  0
 25 69  1  0
 26 70  1  0
 26 71  1  0
 26 72  1  0
 28 73  1  0
 28 74  1  0
 28 75  1  0
 29 76  1  0
 29 77  1  0
 30 78  1  0
 30 79  1  0
 32 80  1  0
 32 81  1  0
 32 82  1  0
M  END
>  <meeko>  (14) 
{"is_sidechain": [false], "intermolecular_energy": 2.731, "internal_energy": -0.839}

$$$$
EPH_relaxed_0001_pdb2pqr_Repair_280_r2_0001_out
     RDKit          3D

 82 86  0  0  0  0  0  0  0  0999 V2000
    2.8910   11.3670   -5.3300 C   0  0  0  0  0  0  0  0  0  0  0  0
    1.8790   11.0690   -4.2210 C   0  0  2  0  0  0  0  0  0  0  0  0
    0.7670   10.1100   -4.6910 C   0  0  0  0  0  0  0  0  0  0  0  0
   -0.3080    9.8470   -3.6330 C   0  0  0  0  0  0  0  0  0  0  0  0
    0.2310    9.0570   -2.4800 C   0  0  2  0  0  0  0  0  0  0  0  0
   -0.5760    7.9370   -2.0930 O   0  0  0  0  0  0  0  0  0  0  0  0
   -0.4460    8.9890   -1.1230 C   0  0  0  0  0  0  0  0  0  0  0  0
   -1.7200    9.7250   -0.8490 C   0  0  0  0  0  0  0  0  0  0  0  0
    0.3770    8.6120    0.0690 C   0  0  0  0  0  0  0  0  0  0  0  0
    1.2640   12.3700   -3.7150 C   0  0  1  0  0  0  0  0  0  0  0  0
   -0.2760   12.2770   -3.5460 C   0  0  0  0  0  0  0  0  0  0  0  0
   -0.6440   13.1460   -2.3160 C   0  0  0  0  0  0  0  0  0  0  0  0
    0.6330   13.9670   -2.0220 C   0  0  1  0  0  0  0  0  0  0  0  0
    0.5880   15.1550   -3.0340 C   0  0  0  0  0  0  0  0  0  0  0  0
    0.8100   14.4670   -0.5520 C   0  0  2  0  0  0  0  0  0  0  0  0
   -0.2770   15.4380   -0.0580 C   0  0  0  0  0  0  0  0  0  0  0  0
    0.0090   16.8850   -0.2870 C   0  0  0  0  0  0  0  0  0  0  0  0
    1.2100   17.4050   -0.6040 C   0  0  0  0  0  0  0  0  0  0  0  0
    2.4600   16.5180   -0.6670 C   0  0  1  0  0  0  0  0  0  0  0  0
    3.6260   17.2130    0.0840 C   0  0  0  0  0  0  0  0  0  0  0  0
    3.8880   18.6270   -0.4230 C   0  0  0  0  0  0  0  0  0  0  0  0
    2.6390   19.4950   -0.2910 C   0  0  2  0  0  0  0  0  0  0  0  0
    2.3550   19.6840    1.0990 O   0  0  0  0  0  0  0  0  0  0  0  0
    1.3950   18.8900   -1.0000 C   0  0  0  0  0  0  0  0  0  0  0  0
    1.5850   18.9640   -2.5360 C   0  0  0  0  0  0  0  0  0  0  0  0
    0.1730   19.7900   -0.6710 C   0  0  0  0  0  0  0  0  0  0  0  0
    2.2610   15.0060   -0.2200 C   0  0  1  0  0  0  0  0  0  0  0  0
    2.4400   14.8800    1.3240 C   0  0  0  0  0  0  0  0  0  0  0  0
    3.3900   14.1240   -0.8720 C   0  0  0  0  0  0  0  0  0  0  0  0
    3.1070   13.5600   -2.2780 C   0  0  0  0  0  0  0  0  0  0  0  0
    1.7320   12.8860   -2.3310 C   0  0  2  0  0  0  0  0  0  0  0  0
    1.7550   11.6730   -1.3400 C   0  0  0  0  0  0  0  0  0  0  0  0
    3.8542   11.6506   -4.8809 H   0  0  0  0  0  0  0  0  0  0  0  0
    3.0267   10.4707   -5.9531 H   0  0  0  0  0  0  0  0  0  0  0  0
    2.5193   12.1938   -5.9531 H   0  0  0  0  0  0  0  0  0  0  0  0
    2.4214   10.5707   -3.4041 H   0  0  0  0  0  0  0  0  0  0  0  0
    0.2828   10.5474   -5.5765 H   0  0  0  0  0  0  0  0  0  0  0  0
    1.2466    9.1442   -4.9083 H   0  0  0  0  0  0  0  0  0  0  0  0
   -0.6843   10.8109   -3.2598 H   0  0  0  0  0  0  0  0  0  0  0  0
   -1.1145    9.2636   -4.1012 H   0  0  0  0  0  0  0  0  0  0  0  0
    1.2655    9.2827   -2.7779 H   0  0  0  0  0  0  0  0  0  0  0  0
   -1.8677    9.8103    0.2377 H   0  0  0  0  0  0  0  0  0  0  0  0
   -1.6651   10.7305   -1.2917 H   0  0  0  0  0  0  0  0  0  0  0  0
   -2.5636    9.1751   -1.2917 H   0  0  0  0  0  0  0  0  0  0  0  0
   -0.1723    8.8636    0.9882 H   0  0  0  0  0  0  0  0  0  0  0  0
    0.5800    7.5311    0.0474 H   0  0  0  0  0  0  0  0  0  0  0  0
    1.3281    9.1642    0.0474 H   0  0  0  0  0  0  0  0  0  0  0  0
    1.6029   13.0545   -4.5065 H   0  0  0  0  0  0  0  0  0  0  0  0
   -0.7797   12.6609   -4.4454 H   0  0  0  0  0  0  0  0  0  0  0  0
   -0.5955   11.2342   -3.4028 H   0  0  0  0  0  0  0  0  0  0  0  0
   -1.4883   13.8114   -2.5493 H   0  0  0  0  0  0  0  0  0  0  0  0
   -0.9565   12.5379   -1.4542 H   0  0  0  0  0  0  0  0  0  0  0  0
    0.5520   16.1058   -2.4820 H   0  0  0  0  0  0  0  0  0  0  0  0
    1.4877   15.1321   -3.6665 H   0  0  0  0  0  0  0  0  0  0  0  0
   -0.3073   15.0641   -3.6665 H   0  0  0  0  0  0  0  0  0  0  0  0
    0.6725   13.5433    0.0292 H   0  0  0  0  0  0  0  0  0  0  0  0
   -1.2149   15.1906   -0.5767 H   0  0  0  0  0  0  0  0  0  0  0  0
   -0.3292   15.3070    1.0329 H   0  0  0  0  0  0  0  0  0  0  0  0
   -0.8328   17.5861   -0.1884 H   0  0  0  0  0  0  0  0  0  0  0  0
    2.7093   16.4190   -1.7338 H   0  0  0  0  0  0  0  0  0  0  0  0
    3.3762   17.2628    1.1541 H   0  0  0  0  0  0  0  0  0  0  0  0
    4.5363   16.6212   -0.0922 H   0  0  0  0  0  0  0  0  0  0  0  0
    4.7017   19.0754    0.1659 H   0  0  0  0  0  0  0  0  0  0  0  0
    4.1666   18.5726   -1.4857 H   0  0  0  0  0  0  0  0  0  0  0  0
    2.8487   20.4534   -0.7885 H   0  0  0  0  0  0  0  0  0  0  0  0
    3.1770   19.9720    1.5310 H   0  0  0  0  0  0  0  0  0  0  0  0
    2.5879   19.3546   -2.7630 H   0  0  0  0  0  0  0  0  0  0  0  0
    1.4769   17.9580   -2.9677 H   0  0  0  0  0  0  0  0  0  0  0  0
    0.8250   19.6319   -2.9677 H   0  0  0  0  0  0  0  0  0  0  0  0
    0.0614   19.8722    0.4202 H   0  0  0  0  0  0  0  0  0  0  0  0
    0.3286   20.7908   -1.1001 H   0  0  0  0  0  0  0  0  0  0  0  0
   -0.7366   19.3445   -1.1001 H   0  0  0  0  0  0  0  0  0  0  0  0
    1.6424   15.4414    1.8326 H   0  0  0  0  0  0  0  0  0  0  0  0
    2.3849   13.8204    1.6142 H   0  0  0  0  0  0  0  0  0  0  0  0
    3.4189   15.2893    1.6142 H   0  0  0  0  0  0  0  0  0  0  0  0
    4.2981   14.7413   -0.9378 H   0  0  0  0  0  0  0  0  0  0  0  0
    3.4780   13.2419   -0.2207 H   0  0  0  0  0  0  0  0  0  0  0  0
    3.1331   14.3826   -3.0078 H   0  0  0  0  0  0  0  0  0  0  0  0
    3.8752   12.8097   -2.5165 H   0  0  0  0  0  0  0  0  0  0  0  0
    1.7479   12.0450   -0.3049 H   0  0  0  0  0  0  0  0  0  0  0  0
    0.8686   11.0441   -1.5096 H   0  0  0  0  0  0  0  0  0  0  0  0
    2.6646   11.0781   -1.5096 H   0  0  0  0  0  0  0  0  0  0  0  0
  1  2  1  0
  2  3  1  0
  3  4  1  0
  4  5  1  0
  5  6  1  0
  6  7  1  0
  7  8  1  0
  7  9  1  0
  2 10  1  0
 10 11  1  0
 11 12  1  0
 12 13  1  0
 13 14  1  6
 13 15  1  0
 15 16  1  0
 16 17  1  0
 17 18  2  0
 18 19  1  0
 19 20  1  0
 20 21  1  0
 21 22  1  0
 22 23  1  0
 22 24  1  0
 24 25  1  0
 24 26  1  0
 19 27  1  0
 27 28  1  1
 27 29  1  0
 29 30  1  0
 30 31  1  0
 31 32  1  1
  7  5  1  0
 31 10  1  0
 31 13  1  0
 27 15  1  0
 24 18  1  0
  1 33  1  0
  1 34  1  0
  1 35  1  0
  2 36  1  1
  3 37  1  0
  3 38  1  0
  4 39  1  0
  4 40  1  0
  5 41  1  1
  8 42  1  0
  8 43  1  0
  8 44  1  0
  9 45  1  0
  9 46  1  0
  9 47  1  0
 10 48  1  6
 11 49  1  0
 11 50  1  0
 12 51  1  0
 12 52  1  0
 14 53  1  0
 14 54  1  0
 14 55  1  0
 15 56  1  1
 16 57  1  0
 16 58  1  0
 17 59  1  0
 19 60  1  6
 20 61  1  0
 20 62  1  0
 21 63  1  0
 21 64  1  0
 22 65  1  6
 23 66  1  0
 25 67  1  0
 25 68  1  0
 25 69  1  0
 26 70  1  0
 26 71  1  0
 26 72  1  0
 28 73  1  0
 28 74  1  0
 28 75  1  0
 29 76  1  0
 29 77  1  0
 30 78  1  0
 30 79  1  0
 32 80  1  0
 32 81  1  0
 32 82  1  0
M  END
>  <meeko>  (15) 
{"is_sidechain": [false], "intermolecular_energy": 2.731, "internal_energy": -0.839}

$$$$
EPH_relaxed_0001_pdb2pqr_Repair_280_r2_0001_out
     RDKit          3D

 82 86  0  0  0  0  0  0  0  0999 V2000
    0.0730   14.8950   -4.1260 C   0  0  0  0  0  0  0  0  0  0  0  0
    1.2420   13.9280   -4.3350 C   0  0  2  0  0  0  0  0  0  0  0  0
    1.9100   14.1150   -5.7120 C   0  0  0  0  0  0  0  0  0  0  0  0
    1.1210   15.0190   -6.6620 C   0  0  0  0  0  0  0  0  0  0  0  0
    1.7680   15.1050   -8.0110 C   0  0  2  0  0  0  0  0  0  0  0  0
    2.2070   16.4180   -8.3810 O   0  0  0  0  0  0  0  0  0  0  0  0
    1.1600   15.8500   -9.1840 C   0  0  0  0  0  0  0  0  0  0  0  0
   -0.1520   16.5590   -9.0630 C   0  0  0  0  0  0  0  0  0  0  0  0
    1.5950   15.4820  -10.5690 C   0  0  0  0  0  0  0  0  0  0  0  0
    0.7610   12.4900   -4.1800 C   0  0  1  0  0  0  0  0  0  0  0  0
    1.8720   11.4520   -4.4920 C   0  0  0  0  0  0  0  0  0  0  0  0
    1.6480   10.2550   -3.5330 C   0  0  0  0  0  0  0  0  0  0  0  0
    0.2400   10.4890   -2.9390 C   0  0  1  0  0  0  0  0  0  0  0  0
   -0.7470    9.9640   -4.0280 C   0  0  0  0  0  0  0  0  0  0  0  0
   -0.0390    9.8390   -1.5450 C   0  0  2  0  0  0  0  0  0  0  0  0
    0.0340    8.3020   -1.5150 C   0  0  0  0  0  0  0  0  0  0  0  0
   -1.2540    7.5970   -1.7880 C   0  0  0  0  0  0  0  0  0  0  0  0
   -2.4750    8.1630   -1.7650 C   0  0  0  0  0  0  0  0  0  0  0  0
   -2.6570    9.6270   -1.3450 C   0  0  1  0  0  0  0  0  0  0  0  0
   -3.8350    9.7340   -0.3410 C   0  0  0  0  0  0  0  0  0  0  0  0
   -5.1220    9.1170   -0.8800 C   0  0  0  0  0  0  0  0  0  0  0  0
   -4.9160    7.6460   -1.2320 C   0  0  2  0  0  0  0  0  0  0  0  0
   -4.6720    6.9140   -0.0270 O   0  0  0  0  0  0  0  0  0  0  0  0
   -3.7480    7.4130   -2.2300 C   0  0  0  0  0  0  0  0  0  0  0  0
   -4.1430    7.9490   -3.6290 C   0  0  0  0  0  0  0  0  0  0  0  0
   -3.5550    5.8810   -2.3910 C   0  0  0  0  0  0  0  0  0  0  0  0
   -1.3490   10.3690   -0.8320 C   0  0  1  0  0  0  0  0  0  0  0  0
   -1.1580   10.1180    0.6950 C   0  0  0  0  0  0  0  0  0  0  0  0
   -1.5380   11.9230   -1.0070 C   0  0  0  0  0  0  0  0  0  0  0  0
   -1.1320   12.5230   -2.3660 C   0  0  0  0  0  0  0  0  0  0  0  0
    0.2660   12.0530   -2.7780 C   0  0  2  0  0  0  0  0  0  0  0  0
    1.2830   12.5860   -1.7130 C   0  0  0  0  0  0  0  0  0  0  0  0
   -0.0978   15.0363   -3.0486 H   0  0  0  0  0  0  0  0  0  0  0  0
    0.3111   15.8637   -4.5897 H   0  0  0  0  0  0  0  0  0  0  0  0
   -0.8339   14.4796   -4.5897 H   0  0  0  0  0  0  0  0  0  0  0  0
    1.9982   14.1514   -3.5680 H   0  0  0  0  0  0  0  0  0  0  0  0
    2.9050   14.5579   -5.5578 H   0  0  0  0  0  0  0  0  0  0  0  0
    1.9604   13.1217   -6.1819 H   0  0  0  0  0  0  0  0  0  0  0  0
    0.1054   14.6130   -6.7790 H   0  0  0  0  0  0  0  0  0  0  0  0
    1.0941   16.0301   -6.2297 H   0  0  0  0  0  0  0  0  0  0  0  0
    2.1659   14.0843   -7.9117 H   0  0  0  0  0  0  0  0  0  0  0  0
   -0.3997   16.6929   -7.9997 H   0  0  0  0  0  0  0  0  0  0  0  0
   -0.0834   17.5428   -9.5502 H   0  0  0  0  0  0  0  0  0  0  0  0
   -0.9374   15.9625   -9.5502 H   0  0  0  0  0  0  0  0  0  0  0  0
    2.4337   14.7725  -10.5135 H   0  0  0  0  0  0  0  0  0  0  0  0
    0.7553   15.0159  -11.1054 H   0  0  0  0  0  0  0  0  0  0  0  0
    1.9155   16.3873  -11.1054 H   0  0  0  0  0  0  0  0  0  0  0  0
   -0.0790   12.4986   -4.8902 H   0  0  0  0  0  0  0  0  0  0  0  0
    1.7963   11.1189   -5.5376 H   0  0  0  0  0  0  0  0  0  0  0  0
    2.8716   11.8891   -4.3512 H   0  0  0  0  0  0  0  0  0  0  0  0
    1.6836    9.3038   -4.0843 H   0  0  0  0  0  0  0  0  0  0  0  0
    2.4236   10.1928   -2.7554 H   0  0  0  0  0  0  0  0  0  0  0  0
   -1.6178    9.5008   -3.5410 H   0  0  0  0  0  0  0  0  0  0  0  0
   -1.0812   10.8035   -4.6553 H   0  0  0  0  0  0  0  0  0  0  0  0
   -0.2377    9.2176   -4.6553 H   0  0  0  0  0  0  0  0  0  0  0  0
    0.8144   10.1908   -0.9467 H   0  0  0  0  0  0  0  0  0  0  0  0
    0.7642    7.9815   -2.2727 H   0  0  0  0  0  0  0  0  0  0  0  0
    0.3177    8.0307   -0.4874 H   0  0  0  0  0  0  0  0  0  0  0  0
   -1.2003    6.5249   -2.0281 H   0  0  0  0  0  0  0  0  0  0  0  0
   -2.8983   10.1799   -2.2648 H   0  0  0  0  0  0  0  0  0  0  0  0
   -3.5559    9.2129    0.5867 H   0  0  0  0  0  0  0  0  0  0  0  0
   -4.0262   10.8027   -0.1638 H   0  0  0  0  0  0  0  0  0  0  0  0
   -5.9079    9.1974   -0.1145 H   0  0  0  0  0  0  0  0  0  0  0  0
   -5.4160    9.6583   -1.7914 H   0  0  0  0  0  0  0  0  0  0  0  0
   -5.8307    7.2950   -1.7322 H   0  0  0  0  0  0  0  0  0  0  0  0
   -4.2010    7.5030    0.5860 H   0  0  0  0  0  0  0  0  0  0  0  0
   -4.7920    8.8297   -3.5144 H   0  0  0  0  0  0  0  0  0  0  0  0
   -3.2357    8.2317   -4.1829 H   0  0  0  0  0  0  0  0  0  0  0  0
   -4.6817    7.1661   -4.1829 H   0  0  0  0  0  0  0  0  0  0  0  0
   -3.4960    5.4125   -1.3975 H   0  0  0  0  0  0  0  0  0  0  0  0
   -4.4072    5.4603   -2.9448 H   0  0  0  0  0  0  0  0  0  0  0  0
   -2.6250    5.6848   -2.9448 H   0  0  0  0  0  0  0  0  0  0  0  0
   -1.7281   10.8672    1.2639 H   0  0  0  0  0  0  0  0  0  0  0  0
   -1.5203    9.1110    0.9492 H   0  0  0  0  0  0  0  0  0  0  0  0
   -0.0908   10.1987    0.9492 H   0  0  0  0  0  0  0  0  0  0  0  0
   -2.6028   12.1487   -0.8483 H   0  0  0  0  0  0  0  0  0  0  0  0
   -0.8559   12.3802   -0.2751 H   0  0  0  0  0  0  0  0  0  0  0  0
   -1.8575   12.2067   -3.1300 H   0  0  0  0  0  0  0  0  0  0  0  0
   -1.1206   13.6192   -2.2756 H   0  0  0  0  0  0  0  0  0  0  0  0
    0.8964   12.3834   -0.7033 H   0  0  0  0  0  0  0  0  0  0  0  0
    2.2504   12.0790   -1.8438 H   0  0  0  0  0  0  0  0  0  0  0  0
    1.4165   13.6700   -1.8438 H   0  0  0  0  0  0  0  0  0  0  0  0
  1  2  1  0
  2  3  1  0
  3  4  1  0
  4  5  1  0
  5  6  1  0
  6  7  1  0
  7  8  1  0
  7  9  1  0
  2 10  1  0
 10 11  1  0
 11 12  1  0
 12 13  1  0
 13 14  1  6
 13 15  1  0
 15 16  1  0
 16 17  1  0
 17 18  2  0
 18 19  1  0
 19 20  1  0
 20 21  1  0
 21 22  1  0
 22 23  1  0
 22 24  1  0
 24 25  1  0
 24 26  1  0
 19 27  1  0
 27 28  1  1
 27 29  1  0
 29 30  1  0
 30 31  1  0
 31 32  1  1
  7  5  1  0
 31 10  1  0
 31 13  1  0
 27 15  1  0
 24 18  1  0
  1 33  1  0
  1 34  1  0
  1 35  1  0
  2 36  1  1
  3 37  1  0
  3 38  1  0
  4 39  1  0
  4 40  1  0
  5 41  1  6
  8 42  1  0
  8 43  1  0
  8 44  1  0
  9 45  1  0
  9 46  1  0
  9 47  1  0
 10 48  1  6
 11 49  1  0
 11 50  1  0
 12 51  1  0
 12 52  1  0
 14 53  1  0
 14 54  1  0
 14 55  1  0
 15 56  1  1
 16 57  1  0
 16 58  1  0
 17 59  1  0
 19 60  1  6
 20 61  1  0
 20 62  1  0
 21 63  1  0
 21 64  1  0
 22 65  1  6
 23 66  1  0
 25 67  1  0
 25 68  1  0
 25 69  1  0
 26 70  1  0
 26 71  1  0
 26 72  1  0
 28 73  1  0
 28 74  1  0
 28 75  1  0
 29 76  1  0
 29 77  1  0
 30 78  1  0
 30 79  1  0
 32 80  1  0
 32 81  1  0
 32 82  1  0
M  END
>  <meeko>  (16) 
{"is_sidechain": [false], "intermolecular_energy": 2.731, "internal_energy": -0.839}

$$$$
EPH_relaxed_0001_pdb2pqr_Repair_280_r2_0001_out
     RDKit          3D

 82 86  0  0  0  0  0  0  0  0999 V2000
    0.4210    7.9460   -2.5300 C   0  0  0  0  0  0  0  0  0  0  0  0
   -0.9610    8.3090   -1.9790 C   0  0  2  0  0  0  0  0  0  0  0  0
   -2.1010    7.7390   -2.8480 C   0  0  0  0  0  0  0  0  0  0  0  0
   -3.3460    7.3460   -2.0480 C   0  0  0  0  0  0  0  0  0  0  0  0
   -4.3390    6.6090   -2.8960 C   0  0  2  0  0  0  0  0  0  0  0  0
   -5.0300    7.4240   -3.8520 O   0  0  0  0  0  0  0  0  0  0  0  0
   -5.8370    6.8380   -2.8180 C   0  0  0  0  0  0  0  0  0  0  0  0
   -6.4270    7.8330   -1.8690 C   0  0  0  0  0  0  0  0  0  0  0  0
   -6.7510    5.7580   -3.3070 C   0  0  0  0  0  0  0  0  0  0  0  0
   -1.0960    9.8230   -1.8710 C   0  0  1  0  0  0  0  0  0  0  0  0
   -2.5370   10.2700   -1.5050 C   0  0  0  0  0  0  0  0  0  0  0  0
   -2.4000   11.5240   -0.6030 C   0  0  0  0  0  0  0  0  0  0  0  0
   -0.9210   11.9520   -0.7510 C   0  0  1  0  0  0  0  0  0  0  0  0
   -0.8670   12.7530   -2.0890 C   0  0  0  0  0  0  0  0  0  0  0  0
   -0.3170   12.7700    0.4370 C   0  0  2  0  0  0  0  0  0  0  0  0
   -0.9850   14.1310    0.6990 C   0  0  0  0  0  0  0  0  0  0  0  0
   -0.3870   15.2860   -0.0330 C   0  0  0  0  0  0  0  0  0  0  0  0
    0.8130   15.2900   -0.6430 C   0  0  0  0  0  0  0  0  0  0  0  0
    1.7480   14.0770   -0.5480 C   0  0  1  0  0  0  0  0  0  0  0  0
    3.1850   14.5550   -0.2130 C   0  0  0  0  0  0  0  0  0  0  0  0
    3.6940   15.6090   -1.1910 C   0  0  0  0  0  0  0  0  0  0  0  0
    2.7700   16.8240   -1.2130 C   0  0  2  0  0  0  0  0  0  0  0  0
    2.8420   17.4820    0.0550 O   0  0  0  0  0  0  0  0  0  0  0  0
    1.2920   16.4640   -1.5320 C   0  0  0  0  0  0  0  0  0  0  0  0
    1.1690   16.0320   -3.0140 C   0  0  0  0  0  0  0  0  0  0  0  0
    0.4430   17.7550   -1.3840 C   0  0  0  0  0  0  0  0  0  0  0  0
    1.2600   12.8980    0.4000 C   0  0  1  0  0  0  0  0  0  0  0  0
    1.7190   13.1680    1.8650 C   0  0  0  0  0  0  0  0  0  0  0  0
    1.9590   11.5580   -0.0450 C   0  0  0  0  0  0  0  0  0  0  0  0
    1.2510   10.7350   -1.1380 C   0  0  0  0  0  0  0  0  0  0  0  0
   -0.2310   10.5400   -0.8040 C   0  0  2  0  0  0  0  0  0  0  0  0
   -0.3180    9.7180    0.5270 C   0  0  0  0  0  0  0  0  0  0  0  0
    1.1128    7.7643   -1.6943 H   0  0  0  0  0  0  0  0  0  0  0  0
    0.3433    7.0378   -3.1457 H   0  0  0  0  0  0  0  0  0  0  0  0
    0.7996    8.7752   -3.1457 H   0  0  0  0  0  0  0  0  0  0  0  0
   -1.0487    7.8556   -0.9806 H   0  0  0  0  0  0  0  0  0  0  0  0
   -2.3891    8.5013   -3.5869 H   0  0  0  0  0  0  0  0  0  0  0  0
   -1.7185    6.8217   -3.3194 H   0  0  0  0  0  0  0  0  0  0  0  0
   -3.0428    6.7000   -1.2109 H   0  0  0  0  0  0  0  0  0  0  0  0
   -3.8236    8.2667   -1.6818 H   0  0  0  0  0  0  0  0  0  0  0  0
   -3.7294    5.6942   -2.8583 H   0  0  0  0  0  0  0  0  0  0  0  0
   -6.2361    7.5110   -0.8346 H   0  0  0  0  0  0  0  0  0  0  0  0
   -5.9668    8.8178   -2.0373 H   0  0  0  0  0  0  0  0  0  0  0  0
   -7.5119    7.9016   -2.0373 H   0  0  0  0  0  0  0  0  0  0  0  0
   -7.1937    5.2349   -2.4466 H   0  0  0  0  0  0  0  0  0  0  0  0
   -7.5510    6.2030   -3.9169 H   0  0  0  0  0  0  0  0  0  0  0  0
   -6.1799    5.0426   -3.9169 H   0  0  0  0  0  0  0  0  0  0  0  0
   -0.7636   10.1100   -2.8795 H   0  0  0  0  0  0  0  0  0  0  0  0
   -3.0997   10.5188   -2.4169 H   0  0  0  0  0  0  0  0  0  0  0  0
   -3.0801    9.4668   -0.9855 H   0  0  0  0  0  0  0  0  0  0  0  0
   -3.0720   12.3244   -0.9462 H   0  0  0  0  0  0  0  0  0  0  0  0
   -2.6716   11.3171    0.4427 H   0  0  0  0  0  0  0  0  0  0  0  0
   -0.7945   13.8285   -1.8698 H   0  0  0  0  0  0  0  0  0  0  0  0
    0.0119   12.4372   -2.6702 H   0  0  0  0  0  0  0  0  0  0  0  0
   -1.7803   12.5580   -2.6702 H   0  0  0  0  0  0  0  0  0  0  0  0
   -0.5665   12.1430    1.3057 H   0  0  0  0  0  0  0  0  0  0  0  0
   -2.0422   14.0529    0.4052 H   0  0  0  0  0  0  0  0  0  0  0  0
   -0.8394   14.3405    1.7690 H   0  0  0  0  0  0  0  0  0  0  0  0
   -0.9772   16.2132   -0.0779 H   0  0  0  0  0  0  0  0  0  0  0  0
    1.7345   13.6045   -1.5413 H   0  0  0  0  0  0  0  0  0  0  0  0
    3.1867   14.9839    0.7999 H   0  0  0  0  0  0  0  0  0  0  0  0
    3.8520   13.6832   -0.2848 H   0  0  0  0  0  0  0  0  0  0  0  0
    4.7011   15.9281   -0.8845 H   0  0  0  0  0  0  0  0  0  0  0  0
    3.7201   15.1693   -2.1990 H   0  0  0  0  0  0  0  0  0  0  0  0
    3.1137   17.4845   -2.0227 H   0  0  0  0  0  0  0  0  0  0  0  0
    1.9330   17.5920    0.3820 H   0  0  0  0  0  0  0  0  0  0  0  0
    0.8681   14.9751   -3.0641 H   0  0  0  0  0  0  0  0  0  0  0  0
    0.4120   16.6529   -3.5153 H   0  0  0  0  0  0  0  0  0  0  0  0
    2.1396   16.1610   -3.5153 H   0  0  0  0  0  0  0  0  0  0  0  0
    0.2968   17.9773   -0.3167 H   0  0  0  0  0  0  0  0  0  0  0  0
    0.9657   18.5948   -1.8652 H   0  0  0  0  0  0  0  0  0  0  0  0
   -0.5351   17.6078   -1.8652 H   0  0  0  0  0  0  0  0  0  0  0  0
    0.9868   12.7373    2.5639 H   0  0  0  0  0  0  0  0  0  0  0  0
    2.7024   12.7045    2.0325 H   0  0  0  0  0  0  0  0  0  0  0  0
    1.7917   14.2527    2.0325 H   0  0  0  0  0  0  0  0  0  0  0  0
    2.9617   11.8137   -0.4180 H   0  0  0  0  0  0  0  0  0  0  0  0
    1.9493   10.9175    0.8493 H   0  0  0  0  0  0  0  0  0  0  0  0
    1.3368   11.2637   -2.0988 H   0  0  0  0  0  0  0  0  0  0  0  0
    1.7299    9.7466   -1.1983 H   0  0  0  0  0  0  0  0  0  0  0  0
   -0.2456   10.4018    1.3856 H   0  0  0  0  0  0  0  0  0  0  0  0
   -1.2779    9.1821    0.5649 H   0  0  0  0  0  0  0  0  0  0  0  0
    0.5084    8.9930    0.5649 H   0  0  0  0  0  0  0  0  0  0  0  0
  1  2  1  0
  2  3  1  0
  3  4  1  0
  4  5  1  0
  5  6  1  0
  6  7  1  0
  7  8  1  0
  7  9  1  0
  2 10  1  0
 10 11  1  0
 11 12  1  0
 12 13  1  0
 13 14  1  6
 13 15  1  0
 15 16  1  0
 16 17  1  0
 17 18  2  0
 18 19  1  0
 19 20  1  0
 20 21  1  0
 21 22  1  0
 22 23  1  0
 22 24  1  0
 24 25  1  0
 24 26  1  0
 19 27  1  0
 27 28  1  1
 27 29  1  0
 29 30  1  0
 30 31  1  0
 31 32  1  1
  7  5  1  0
 31 10  1  0
 31 13  1  0
 27 15  1  0
 24 18  1  0
  1 33  1  0
  1 34  1  0
  1 35  1  0
  2 36  1  1
  3 37  1  0
  3 38  1  0
  4 39  1  0
  4 40  1  0
  5 41  1  6
  8 42  1  0
  8 43  1  0
  8 44  1  0
  9 45  1  0
  9 46  1  0
  9 47  1  0
 10 48  1  6
 11 49  1  0
 11 50  1  0
 12 51  1  0
 12 52  1  0
 14 53  1  0
 14 54  1  0
 14 55  1  0
 15 56  1  1
 16 57  1  0
 16 58  1  0
 17 59  1  0
 19 60  1  6
 20 61  1  0
 20 62  1  0
 21 63  1  0
 21 64  1  0
 22 65  1  6
 23 66  1  0
 25 67  1  0
 25 68  1  0
 25 69  1  0
 26 70  1  0
 26 71  1  0
 26 72  1  0
 28 73  1  0
 28 74  1  0
 28 75  1  0
 29 76  1  0
 29 77  1  0
 30 78  1  0
 30 79  1  0
 32 80  1  0
 32 81  1  0
 32 82  1  0
M  END
>  <meeko>  (17) 
{"is_sidechain": [false], "intermolecular_energy": 2.731, "internal_energy": -0.839}

$$$$
