EPH_relaxed_0001_pdb2pqr_Repair_36_r2_0001_out
     RDKit          3D

 82 86  0  0  0  0  0  0  0  0999 V2000
   -1.5260    8.5360   -1.8070 C   0  0  0  0  0  0  0  0  0  0  0  0
   -1.9200    9.1080   -0.4420 C   0  0  2  0  0  0  0  0  0  0  0  0
   -3.4120    9.4910   -0.3820 C   0  0  0  0  0  0  0  0  0  0  0  0
   -4.3580    8.2860   -0.3990 C   0  0  0  0  0  0  0  0  0  0  0  0
   -4.8650    7.9990   -1.7800 C   0  0  2  0  0  0  0  0  0  0  0  0
   -6.2920    7.9280   -1.8910 O   0  0  0  0  0  0  0  0  0  0  0  0
   -5.5750    6.7130   -2.1590 C   0  0  0  0  0  0  0  0  0  0  0  0
   -5.8170    5.6290   -1.1550 C   0  0  0  0  0  0  0  0  0  0  0  0
   -5.5960    6.3050   -3.5990 C   0  0  0  0  0  0  0  0  0  0  0  0
   -1.0570   10.3230   -0.1190 C   0  0  1  0  0  0  0  0  0  0  0  0
    0.0320   10.0160    0.9430 C   0  0  0  0  0  0  0  0  0  0  0  0
    1.2750   10.8620    0.5670 C   0  0  0  0  0  0  0  0  0  0  0  0
    0.7570   11.8670   -0.4900 C   0  0  1  0  0  0  0  0  0  0  0  0
    0.0780   13.0030    0.3370 C   0  0  0  0  0  0  0  0  0  0  0  0
    1.8220   12.4340   -1.4840 C   0  0  2  0  0  0  0  0  0  0  0  0
    2.9500   13.2550   -0.8340 C   0  0  0  0  0  0  0  0  0  0  0  0
    2.6870   14.7200   -0.7190 C   0  0  0  0  0  0  0  0  0  0  0  0
    1.7230   15.3950   -1.3720 C   0  0  0  0  0  0  0  0  0  0  0  0
    0.8340   14.6950   -2.4070 C   0  0  1  0  0  0  0  0  0  0  0  0
    0.7330   15.5730   -3.6820 C   0  0  0  0  0  0  0  0  0  0  0  0
    0.2670   16.9930   -3.3790 C   0  0  0  0  0  0  0  0  0  0  0  0
    1.2090   17.6770   -2.3910 C   0  0  2  0  0  0  0  0  0  0  0  0
    2.4790   17.8680   -3.0220 O   0  0  0  0  0  0  0  0  0  0  0  0
    1.3960   16.8790   -1.0700 C   0  0  0  0  0  0  0  0  0  0  0  0
    0.0890   16.9300   -0.2410 C   0  0  0  0  0  0  0  0  0  0  0  0
    2.4760   17.6040   -0.2230 C   0  0  0  0  0  0  0  0  0  0  0  0
    1.2070   13.1850   -2.7340 C   0  0  1  0  0  0  0  0  0  0  0  0
    2.2860   13.1350   -3.8590 C   0  0  0  0  0  0  0  0  0  0  0  0
   -0.0640   12.4530   -3.3050 C   0  0  0  0  0  0  0  0  0  0  0  0
   -1.0160   11.8090   -2.2790 C   0  0  0  0  0  0  0  0  0  0  0  0
   -0.2410   10.9450   -1.2800 C   0  0  2  0  0  0  0  0  0  0  0  0
    0.4350    9.7800   -2.0790 C   0  0  0  0  0  0  0  0  0  0  0  0
   -0.9073    7.6379   -1.6635 H   0  0  0  0  0  0  0  0  0  0  0  0
   -2.4335    8.2702   -2.3690 H   0  0  0  0  0  0  0  0  0  0  0  0
   -0.9542    9.2891   -2.3690 H   0  0  0  0  0  0  0  0  0  0  0  0
   -1.7506    8.3214    0.3080 H   0  0  0  0  0  0  0  0  0  0  0  0
   -3.5881   10.0578    0.5441 H   0  0  0  0  0  0  0  0  0  0  0  0
   -3.6286   10.0827   -1.2836 H   0  0  0  0  0  0  0  0  0  0  0  0
   -3.8175    7.4031   -0.0270 H   0  0  0  0  0  0  0  0  0  0  0  0
   -5.2212    8.5185    0.2419 H   0  0  0  0  0  0  0  0  0  0  0  0
   -4.0143    8.5325   -2.2291 H   0  0  0  0  0  0  0  0  0  0  0  0
   -5.7247    6.0423   -0.1398 H   0  0  0  0  0  0  0  0  0  0  0  0
   -6.8286    5.2198   -1.2938 H   0  0  0  0  0  0  0  0  0  0  0  0
   -5.0755    4.8285   -1.2938 H   0  0  0  0  0  0  0  0  0  0  0  0
   -5.6524    5.2087   -3.6687 H   0  0  0  0  0  0  0  0  0  0  0  0
   -6.4725    6.7494   -4.0933 H   0  0  0  0  0  0  0  0  0  0  0  0
   -4.6785    6.6571   -4.0933 H   0  0  0  0  0  0  0  0  0  0  0  0
   -1.8395   11.0236    0.2079 H   0  0  0  0  0  0  0  0  0  0  0  0
   -0.3268   10.2946    1.9448 H   0  0  0  0  0  0  0  0  0  0  0  0
    0.2751    8.9433    0.9605 H   0  0  0  0  0  0  0  0  0  0  0  0
    1.6653   11.3919    1.4484 H   0  0  0  0  0  0  0  0  0  0  0  0
    2.1010   10.2437    0.1857 H   0  0  0  0  0  0  0  0  0  0  0  0
    0.2004   12.7982    1.4108 H   0  0  0  0  0  0  0  0  0  0  0  0
    0.5484   13.9666    0.0916 H   0  0  0  0  0  0  0  0  0  0  0  0
   -0.9934   13.0450    0.0916 H   0  0  0  0  0  0  0  0  0  0  0  0
    2.2998   11.5192   -1.8645 H   0  0  0  0  0  0  0  0  0  0  0  0
    3.1184   12.8593    0.1785 H   0  0  0  0  0  0  0  0  0  0  0  0
    3.8217   13.1533   -1.4972 H   0  0  0  0  0  0  0  0  0  0  0  0
    3.3360   15.2965   -0.0434 H   0  0  0  0  0  0  0  0  0  0  0  0
   -0.1575   14.5992   -1.9404 H   0  0  0  0  0  0  0  0  0  0  0  0
    1.7242   15.6209   -4.1565 H   0  0  0  0  0  0  0  0  0  0  0  0
   -0.0123   15.1118   -4.3467 H   0  0  0  0  0  0  0  0  0  0  0  0
    0.2441   17.5717   -4.3142 H   0  0  0  0  0  0  0  0  0  0  0  0
   -0.7368   16.9453   -2.9317 H   0  0  0  0  0  0  0  0  0  0  0  0
    0.7545   18.6396   -2.1139 H   0  0  0  0  0  0  0  0  0  0  0  0
    2.6400   18.8250   -3.0740 H   0  0  0  0  0  0  0  0  0  0  0  0
    0.3343   16.9204    0.8313 H   0  0  0  0  0  0  0  0  0  0  0  0
   -0.4628   17.8504   -0.4827 H   0  0  0  0  0  0  0  0  0  0  0  0
   -0.5329   16.0554   -0.4827 H   0  0  0  0  0  0  0  0  0  0  0  0
    2.2613   17.4598    0.8462 H   0  0  0  0  0  0  0  0  0  0  0  0
    3.4666   17.1873   -0.4575 H   0  0  0  0  0  0  0  0  0  0  0  0
    2.4655   18.6787   -0.4575 H   0  0  0  0  0  0  0  0  0  0  0  0
    3.2870   13.0886   -3.4052 H   0  0  0  0  0  0  0  0  0  0  0  0
    2.1245   12.2434   -4.4826 H   0  0  0  0  0  0  0  0  0  0  0  0
    2.2076   14.0377   -4.4826 H   0  0  0  0  0  0  0  0  0  0  0  0
   -0.6435   13.1915   -3.8784 H   0  0  0  0  0  0  0  0  0  0  0  0
    0.3297   11.6140   -3.8975 H   0  0  0  0  0  0  0  0  0  0  0  0
   -1.5466   12.6027   -1.7327 H   0  0  0  0  0  0  0  0  0  0  0  0
   -1.7304   11.1684   -2.8169 H   0  0  0  0  0  0  0  0  0  0  0  0
    0.8588    9.0496   -1.3741 H   0  0  0  0  0  0  0  0  0  0  0  0
   -0.3163    9.2853   -2.7121 H   0  0  0  0  0  0  0  0  0  0  0  0
    1.2373   10.1868   -2.7121 H   0  0  0  0  0  0  0  0  0  0  0  0
  1  2  1  0
  2  3  1  0
  3  4  1  0
  4  5  1  0
  5  6  1  0
  6  7  1  0
  7  8  1  0
  7  9  1  0
  2 10  1  0
 10 11  1  0
 11 12  1  0
 12 13  1  0
 13 14  1  1
 13 15  1  0
 15 16  1  0
 16 17  1  0
 17 18  2  0
 18 19  1  0
 19 20  1  0
 20 21  1  0
 21 22  1  0
 22 23  1  0
 22 24  1  0
 24 25  1  0
 24 26  1  0
 19 27  1  0
 27 28  1  6
 27 29  1  0
 29 30  1  0
 30 31  1  0
 31 32  1  6
  7  5  1  0
 31 10  1  0
 31 13  1  0
 27 15  1  0
 24 18  1  0
  1 33  1  0
  1 34  1  0
  1 35  1  0
  2 36  1  1
  3 37  1  0
  3 38  1  0
  4 39  1  0
  4 40  1  0
  5 41  1  6
  8 42  1  0
  8 43  1  0
  8 44  1  0
  9 45  1  0
  9 46  1  0
  9 47  1  0
 10 48  1  1
 11 49  1  0
 11 50  1  0
 12 51  1  0
 12 52  1  0
 14 53  1  0
 14 54  1  0
 14 55  1  0
 15 56  1  6
 16 57  1  0
 16 58  1  0
 17 59  1  0
 19 60  1  1
 20 61  1  0
 20 62  1  0
 21 63  1  0
 21 64  1  0
 22 65  1  1
 23 66  1  0
 25 67  1  0
 25 68  1  0
 25 69  1  0
 26 70  1  0
 26 71  1  0
 26 72  1  0
 28 73  1  0
 28 74  1  0
 28 75  1  0
 29 76  1  0
 29 77  1  0
 30 78  1  0
 30 79  1  0
 32 80  1  0
 32 81  1  0
 32 82  1  0
M  END
>  <meeko>  (1) 
{"is_sidechain": [false], "intermolecular_energy": 2.731, "internal_energy": -0.839}

$$$$
EPH_relaxed_0001_pdb2pqr_Repair_36_r2_0001_out
     RDKit          3D

 82 86  0  0  0  0  0  0  0  0999 V2000
    1.9620   19.6430   -0.6210 C   0  0  0  0  0  0  0  0  0  0  0  0
    2.3650   18.4240    0.2140 C   0  0  2  0  0  0  0  0  0  0  0  0
    3.8140   17.9790   -0.0700 C   0  0  0  0  0  0  0  0  0  0  0  0
    4.7340   18.0640    1.1510 C   0  0  0  0  0  0  0  0  0  0  0  0
    4.1220   18.8780    2.2510 C   0  0  2  0  0  0  0  0  0  0  0  0
    4.8430   20.0720    2.5840 O   0  0  0  0  0  0  0  0  0  0  0  0
    4.7690   19.0690    3.6100 C   0  0  0  0  0  0  0  0  0  0  0  0
    6.0860   18.4400    3.9420 C   0  0  0  0  0  0  0  0  0  0  0  0
    3.9010   19.4530    4.7680 C   0  0  0  0  0  0  0  0  0  0  0  0
    1.4040   17.2710   -0.0530 C   0  0  1  0  0  0  0  0  0  0  0  0
    0.1170   17.7250   -0.7920 C   0  0  0  0  0  0  0  0  0  0  0  0
   -0.2870   16.5650   -1.7380 C   0  0  0  0  0  0  0  0  0  0  0  0
    0.5740   15.3660   -1.2760 C   0  0  1  0  0  0  0  0  0  0  0  0
   -0.1780   14.7860   -0.0380 C   0  0  0  0  0  0  0  0  0  0  0  0
    0.8560   14.2640   -2.3490 C   0  0  2  0  0  0  0  0  0  0  0  0
   -0.3910   13.5360   -2.8800 C   0  0  0  0  0  0  0  0  0  0  0  0
   -0.7800   12.3070   -2.1270 C   0  0  0  0  0  0  0  0  0  0  0  0
   -0.0010   11.6470   -1.2490 C   0  0  0  0  0  0  0  0  0  0  0  0
    1.4530   12.0750   -1.0120 C   0  0  1  0  0  0  0  0  0  0  0  0
    2.3700   10.8230   -1.0310 C   0  0  0  0  0  0  0  0  0  0  0  0
    1.9110    9.7460   -0.0530 C   0  0  0  0  0  0  0  0  0  0  0  0
    0.4810    9.3060   -0.3580 C   0  0  2  0  0  0  0  0  0  0  0  0
    0.4650    8.6390   -1.6230 O   0  0  0  0  0  0  0  0  0  0  0  0
   -0.5320   10.4850   -0.3750 C   0  0  0  0  0  0  0  0  0  0  0  0
   -0.7380   11.0150    1.0660 C   0  0  0  0  0  0  0  0  0  0  0  0
   -1.9060    9.9260   -0.8330 C   0  0  0  0  0  0  0  0  0  0  0  0
    1.9940   13.2420   -1.9440 C   0  0  1  0  0  0  0  0  0  0  0  0
    2.5510   12.6470   -3.2730 C   0  0  0  0  0  0  0  0  0  0  0  0
    3.2070   13.9490   -1.2320 C   0  0  0  0  0  0  0  0  0  0  0  0
    2.8710   15.1090   -0.2750 C   0  0  0  0  0  0  0  0  0  0  0  0
    1.9180   16.1080   -0.9380 C   0  0  2  0  0  0  0  0  0  0  0  0
    2.6560   16.7250   -2.1750 C   0  0  0  0  0  0  0  0  0  0  0  0
    1.6880   20.4717    0.0485 H   0  0  0  0  0  0  0  0  0  0  0  0
    2.8070   19.9483   -1.2556 H   0  0  0  0  0  0  0  0  0  0  0  0
    1.1015   19.3845   -1.2556 H   0  0  0  0  0  0  0  0  0  0  0  0
    2.3110   18.7155    1.2733 H   0  0  0  0  0  0  0  0  0  0  0  0
    3.7950   16.9359   -0.4187 H   0  0  0  0  0  0  0  0  0  0  0  0
    4.2193   18.6669   -0.8267 H   0  0  0  0  0  0  0  0  0  0  0  0
    4.9257   17.0472    1.5243 H   0  0  0  0  0  0  0  0  0  0  0  0
    5.6694   18.5535    0.8420 H   0  0  0  0  0  0  0  0  0  0  0  0
    3.1108   18.5639    1.9530 H   0  0  0  0  0  0  0  0  0  0  0  0
    6.2010   18.3851    5.0346 H   0  0  0  0  0  0  0  0  0  0  0  0
    6.1253   17.4259    3.5177 H   0  0  0  0  0  0  0  0  0  0  0  0
    6.8995   19.0468    3.5177 H   0  0  0  0  0  0  0  0  0  0  0  0
    4.4220   19.2225    5.7090 H   0  0  0  0  0  0  0  0  0  0  0  0
    3.6850   20.5306    4.7229 H   0  0  0  0  0  0  0  0  0  0  0  0
    2.9583   18.8879    4.7229 H   0  0  0  0  0  0  0  0  0  0  0  0
    1.2471   16.9189    0.9772 H   0  0  0  0  0  0  0  0  0  0  0  0
   -0.6871   17.9206   -0.0673 H   0  0  0  0  0  0  0  0  0  0  0  0
    0.2916   18.6529   -1.3563 H   0  0  0  0  0  0  0  0  0  0  0  0
   -1.3581   16.3360   -1.6360 H   0  0  0  0  0  0  0  0  0  0  0  0
   -0.1216   16.8136   -2.7967 H   0  0  0  0  0  0  0  0  0  0  0  0
    0.2969   15.1523    0.8842 H   0  0  0  0  0  0  0  0  0  0  0  0
   -1.2290   15.1096   -0.0627 H   0  0  0  0  0  0  0  0  0  0  0  0
   -0.1320   13.6872   -0.0627 H   0  0  0  0  0  0  0  0  0  0  0  0
    1.2412   14.8515   -3.1954 H   0  0  0  0  0  0  0  0  0  0  0  0
   -1.2364   14.2389   -2.8436 H   0  0  0  0  0  0  0  0  0  0  0  0
   -0.1390   13.2028   -3.8976 H   0  0  0  0  0  0  0  0  0  0  0  0
   -1.7890   11.9064   -2.3045 H   0  0  0  0  0  0  0  0  0  0  0  0
    1.4746   12.5394   -0.0151 H   0  0  0  0  0  0  0  0  0  0  0  0
    2.3687   10.4005   -2.0466 H   0  0  0  0  0  0  0  0  0  0  0  0
    3.3775   11.1427   -0.7264 H   0  0  0  0  0  0  0  0  0  0  0  0
    2.5803    8.8768   -0.1344 H   0  0  0  0  0  0  0  0  0  0  0  0
    1.9413   10.1605    0.9655 H   0  0  0  0  0  0  0  0  0  0  0  0
    0.1629    8.6316    0.4507 H   0  0  0  0  0  0  0  0  0  0  0  0
   -0.0460    7.8180   -1.5160 H   0  0  0  0  0  0  0  0  0  0  0  0
   -0.4373   10.2413    1.7877 H   0  0  0  0  0  0  0  0  0  0  0  0
   -0.1244   11.9154    1.2167 H   0  0  0  0  0  0  0  0  0  0  0  0
   -1.7986   11.2647    1.2167 H   0  0  0  0  0  0  0  0  0  0  0  0
   -2.5139    9.6787    0.0498 H   0  0  0  0  0  0  0  0  0  0  0  0
   -2.4273   10.6836   -1.4366 H   0  0  0  0  0  0  0  0  0  0  0  0
   -1.7504    9.0197   -1.4366 H   0  0  0  0  0  0  0  0  0  0  0  0
    3.2862   11.8617   -3.0434 H   0  0  0  0  0  0  0  0  0  0  0  0
    1.7242   12.2160   -3.8567 H   0  0  0  0  0  0  0  0  0  0  0  0
    3.0356   13.4436   -3.8567 H   0  0  0  0  0  0  0  0  0  0  0  0
    3.7442   13.1841   -0.6520 H   0  0  0  0  0  0  0  0  0  0  0  0
    3.7909   14.4062   -2.0445 H   0  0  0  0  0  0  0  0  0  0  0  0
    2.3944   14.7029    0.6294 H   0  0  0  0  0  0  0  0  0  0  0  0
    3.8036   15.6321   -0.0169 H   0  0  0  0  0  0  0  0  0  0  0  0
    3.4568   17.3945   -1.8278 H   0  0  0  0  0  0  0  0  0  0  0  0
    3.0907   15.9178   -2.7828 H   0  0  0  0  0  0  0  0  0  0  0  0
    1.9386   17.2959   -2.7828 H   0  0  0  0  0  0  0  0  0  0  0  0
  1  2  1  0
  2  3  1  0
  3  4  1  0
  4  5  1  0
  5  6  1  0
  6  7  1  0
  7  8  1  0
  7  9  1  0
  2 10  1  0
 10 11  1  0
 11 12  1  0
 12 13  1  0
 13 14  1  1
 13 15  1  0
 15 16  1  0
 16 17  1  0
 17 18  2  0
 18 19  1  0
 19 20  1  0
 20 21  1  0
 21 22  1  0
 22 23  1  0
 22 24  1  0
 24 25  1  0
 24 26  1  0
 19 27  1  0
 27 28  1  6
 27 29  1  0
 29 30  1  0
 30 31  1  0
 31 32  1  6
  7  5  1  0
 31 10  1  0
 31 13  1  0
 27 15  1  0
 24 18  1  0
  1 33  1  0
  1 34  1  0
  1 35  1  0
  2 36  1  1
  3 37  1  0
  3 38  1  0
  4 39  1  0
  4 40  1  0
  5 41  1  1
  8 42  1  0
  8 43  1  0
  8 44  1  0
  9 45  1  0
  9 46  1  0
  9 47  1  0
 10 48  1  1
 11 49  1  0
 11 50  1  0
 12 51  1  0
 12 52  1  0
 14 53  1  0
 14 54  1  0
 14 55  1  0
 15 56  1  6
 16 57  1  0
 16 58  1  0
 17 59  1  0
 19 60  1  1
 20 61  1  0
 20 62  1  0
 21 63  1  0
 21 64  1  0
 22 65  1  1
 23 66  1  0
 25 67  1  0
 25 68  1  0
 25 69  1  0
 26 70  1  0
 26 71  1  0
 26 72  1  0
 28 73  1  0
 28 74  1  0
 28 75  1  0
 29 76  1  0
 29 77  1  0
 30 78  1  0
 30 79  1  0
 32 80  1  0
 32 81  1  0
 32 82  1  0
M  END
>  <meeko>  (2) 
{"is_sidechain": [false], "intermolecular_energy": 2.731, "internal_energy": -0.839}

$$$$
EPH_relaxed_0001_pdb2pqr_Repair_36_r2_0001_out
     RDKit          3D

 82 86  0  0  0  0  0  0  0  0999 V2000
    2.1750   18.0420   -2.5410 C   0  0  0  0  0  0  0  0  0  0  0  0
    0.6540   17.8890   -2.6340 C   0  0  2  0  0  0  0  0  0  0  0  0
   -0.0570   18.3610   -1.3500 C   0  0  0  0  0  0  0  0  0  0  0  0
    0.6570   17.9420   -0.0620 C   0  0  0  0  0  0  0  0  0  0  0  0
    1.2030   19.1250    0.6790 C   0  0  2  0  0  0  0  0  0  0  0  0
    2.1010   19.9450   -0.0810 O   0  0  0  0  0  0  0  0  0  0  0  0
    2.6650   19.2730    1.0560 C   0  0  0  0  0  0  0  0  0  0  0  0
    3.6720   18.2240    0.7050 C   0  0  0  0  0  0  0  0  0  0  0  0
    3.0240   20.1930    2.1820 C   0  0  0  0  0  0  0  0  0  0  0  0
    0.2950   16.4360   -2.9250 C   0  0  1  0  0  0  0  0  0  0  0  0
    0.3620   16.0950   -4.4370 C   0  0  0  0  0  0  0  0  0  0  0  0
    0.8610   14.6310   -4.5430 C   0  0  0  0  0  0  0  0  0  0  0  0
    0.7460   14.0740   -3.1050 C   0  0  1  0  0  0  0  0  0  0  0  0
   -0.7560   13.6830   -2.9450 C   0  0  0  0  0  0  0  0  0  0  0  0
    1.6940   12.8830   -2.7470 C   0  0  2  0  0  0  0  0  0  0  0  0
    1.4710   11.6020   -3.5700 C   0  0  0  0  0  0  0  0  0  0  0  0
    0.4950   10.6330   -2.9890 C   0  0  0  0  0  0  0  0  0  0  0  0
    0.0390   10.6460   -1.7230 C   0  0  0  0  0  0  0  0  0  0  0  0
    0.5830   11.6510   -0.7000 C   0  0  1  0  0  0  0  0  0  0  0  0
    0.9070   10.9160    0.6270 C   0  0  0  0  0  0  0  0  0  0  0  0
   -0.2820   10.1240    1.1620 C   0  0  0  0  0  0  0  0  0  0  0  0
   -0.7570    9.0950    0.1400 C   0  0  2  0  0  0  0  0  0  0  0  0
    0.2600    8.1030   -0.0230 O   0  0  0  0  0  0  0  0  0  0  0  0
   -1.1040    9.7190   -1.2410 C   0  0  0  0  0  0  0  0  0  0  0  0
   -2.3970   10.5640   -1.1200 C   0  0  0  0  0  0  0  0  0  0  0  0
   -1.4330    8.5600   -2.2200 C   0  0  0  0  0  0  0  0  0  0  0  0
    1.7820   12.5680   -1.1980 C   0  0  1  0  0  0  0  0  0  0  0  0
    3.1410   11.8370   -0.9700 C   0  0  0  0  0  0  0  0  0  0  0  0
    1.8280   13.8750   -0.3230 C   0  0  0  0  0  0  0  0  0  0  0  0
    0.9620   15.0580   -0.7950 C   0  0  0  0  0  0  0  0  0  0  0  0
    1.1840   15.3410   -2.2840 C   0  0  2  0  0  0  0  0  0  0  0  0
    2.6830   15.7590   -2.4720 C   0  0  0  0  0  0  0  0  0  0  0  0
    2.4765   18.0723   -1.4836 H   0  0  0  0  0  0  0  0  0  0  0  0
    2.6604   17.1881   -3.0363 H   0  0  0  0  0  0  0  0  0  0  0  0
    2.4806   18.9754   -3.0363 H   0  0  0  0  0  0  0  0  0  0  0  0
    0.3065   18.5300   -3.4576 H   0  0  0  0  0  0  0  0  0  0  0  0
   -0.1194   19.4590   -1.3711 H   0  0  0  0  0  0  0  0  0  0  0  0
   -1.0484   17.8846   -1.3377 H   0  0  0  0  0  0  0  0  0  0  0  0
   -0.0578   17.4141    0.5863 H   0  0  0  0  0  0  0  0  0  0  0  0
    1.4994   17.2889   -0.3337 H   0  0  0  0  0  0  0  0  0  0  0  0
    0.2767   19.2156    1.2653 H   0  0  0  0  0  0  0  0  0  0  0  0
    4.0874   17.7913    1.6271 H   0  0  0  0  0  0  0  0  0  0  0  0
    3.1867   17.4327    0.1149 H   0  0  0  0  0  0  0  0  0  0  0  0
    4.4825   18.6766    0.1149 H   0  0  0  0  0  0  0  0  0  0  0  0
    2.8285   19.6919    3.1415 H   0  0  0  0  0  0  0  0  0  0  0  0
    4.0903   20.4549    2.1157 H   0  0  0  0  0  0  0  0  0  0  0  0
    2.4169   21.1079    2.1157 H   0  0  0  0  0  0  0  0  0  0  0  0
   -0.7136   16.4048   -2.4872 H   0  0  0  0  0  0  0  0  0  0  0  0
   -0.6354   16.1892   -4.8912 H   0  0  0  0  0  0  0  0  0  0  0  0
    1.0375   16.7822   -4.9676 H   0  0  0  0  0  0  0  0  0  0  0  0
    0.2288   14.0545   -5.2344 H   0  0  0  0  0  0  0  0  0  0  0  0
    1.8873   14.5676   -4.9338 H   0  0  0  0  0  0  0  0  0  0  0  0
   -1.0060   13.6179   -1.8758 H   0  0  0  0  0  0  0  0  0  0  0  0
   -1.3867   14.4469   -3.4232 H   0  0  0  0  0  0  0  0  0  0  0  0
   -0.9342   12.7085   -3.4232 H   0  0  0  0  0  0  0  0  0  0  0  0
    2.6796   13.2653   -3.0512 H   0  0  0  0  0  0  0  0  0  0  0  0
    1.1063   11.8964   -4.5652 H   0  0  0  0  0  0  0  0  0  0  0  0
    2.4400   11.0818   -3.5922 H   0  0  0  0  0  0  0  0  0  0  0  0
    0.1165    9.8412   -3.6521 H   0  0  0  0  0  0  0  0  0  0  0  0
   -0.2224   12.3818   -0.5348 H   0  0  0  0  0  0  0  0  0  0  0  0
    1.7424   10.2223    0.4511 H   0  0  0  0  0  0  0  0  0  0  0  0
    1.1651   11.6784    1.3767 H   0  0  0  0  0  0  0  0  0  0  0  0
    0.0175    9.6039    2.0838 H   0  0  0  0  0  0  0  0  0  0  0  0
   -1.1065   10.8232    1.3651 H   0  0  0  0  0  0  0  0  0  0  0  0
   -1.6862    8.6510    0.5267 H   0  0  0  0  0  0  0  0  0  0  0  0
    0.0520    7.5970   -0.8270 H   0  0  0  0  0  0  0  0  0  0  0  0
   -2.6352   10.7197   -0.0574 H   0  0  0  0  0  0  0  0  0  0  0  0
   -2.2456   11.5380   -1.6083 H   0  0  0  0  0  0  0  0  0  0  0  0
   -3.2282   10.0343   -1.6083 H   0  0  0  0  0  0  0  0  0  0  0  0
   -1.6893    7.6571   -1.6464 H   0  0  0  0  0  0  0  0  0  0  0  0
   -2.2854    8.8461   -2.8537 H   0  0  0  0  0  0  0  0  0  0  0  0
   -0.5574    8.3556   -2.8537 H   0  0  0  0  0  0  0  0  0  0  0  0
    3.3269   11.7370    0.1095 H   0  0  0  0  0  0  0  0  0  0  0  0
    3.1017   10.8383   -1.4294 H   0  0  0  0  0  0  0  0  0  0  0  0
    3.9527   12.4202   -1.4294 H   0  0  0  0  0  0  0  0  0  0  0  0
    1.5005   13.6073    0.6924 H   0  0  0  0  0  0  0  0  0  0  0  0
    2.8660   14.2321   -0.3937 H   0  0  0  0  0  0  0  0  0  0  0  0
   -0.0982   14.8165   -0.6289 H   0  0  0  0  0  0  0  0  0  0  0  0
    1.2479   15.9523   -0.2218 H   0  0  0  0  0  0  0  0  0  0  0  0
    3.1535   15.8902   -1.4864 H   0  0  0  0  0  0  0  0  0  0  0  0
    3.2150   14.9749   -3.0308 H   0  0  0  0  0  0  0  0  0  0  0  0
    2.7325   16.7052   -3.0308 H   0  0  0  0  0  0  0  0  0  0  0  0
  1  2  1  0
  2  3  1  0
  3  4  1  0
  4  5  1  0
  5  6  1  0
  6  7  1  0
  7  8  1  0
  7  9  1  0
  2 10  1  0
 10 11  1  0
 11 12  1  0
 12 13  1  0
 13 14  1  1
 13 15  1  0
 15 16  1  0
 16 17  1  0
 17 18  2  0
 18 19  1  0
 19 20  1  0
 20 21  1  0
 21 22  1  0
 22 23  1  0
 22 24  1  0
 24 25  1  0
 24 26  1  0
 19 27  1  0
 27 28  1  6
 27 29  1  0
 29 30  1  0
 30 31  1  0
 31 32  1  1
  7  5  1  0
 31 10  1  0
 31 13  1  0
 27 15  1  0
 24 18  1  0
  1 33  1  0
  1 34  1  0
  1 35  1  0
  2 36  1  6
  3 37  1  0
  3 38  1  0
  4 39  1  0
  4 40  1  0
  5 41  1  1
  8 42  1  0
  8 43  1  0
  8 44  1  0
  9 45  1  0
  9 46  1  0
  9 47  1  0
 10 48  1  1
 11 49  1  0
 11 50  1  0
 12 51  1  0
 12 52  1  0
 14 53  1  0
 14 54  1  0
 14 55  1  0
 15 56  1  6
 16 57  1  0
 16 58  1  0
 17 59  1  0
 19 60  1  1
 20 61  1  0
 20 62  1  0
 21 63  1  0
 21 64  1  0
 22 65  1  1
 23 66  1  0
 25 67  1  0
 25 68  1  0
 25 69  1  0
 26 70  1  0
 26 71  1  0
 26 72  1  0
 28 73  1  0
 28 74  1  0
 28 75  1  0
 29 76  1  0
 29 77  1  0
 30 78  1  0
 30 79  1  0
 32 80  1  0
 32 81  1  0
 32 82  1  0
M  END
>  <meeko>  (3) 
{"is_sidechain": [false], "intermolecular_energy": 2.731, "internal_energy": -0.839}

$$$$
EPH_relaxed_0001_pdb2pqr_Repair_36_r2_0001_out
     RDKit          3D

 82 86  0  0  0  0  0  0  0  0999 V2000
    2.3090   18.1690   -2.6810 C   0  0  0  0  0  0  0  0  0  0  0  0
    1.1060   17.7110   -1.8510 C   0  0  2  0  0  0  0  0  0  0  0  0
    1.4130   17.6980   -0.3410 C   0  0  0  0  0  0  0  0  0  0  0  0
    1.2710   19.0680    0.3290 C   0  0  0  0  0  0  0  0  0  0  0  0
   -0.0020   19.7500   -0.0710 C   0  0  2  0  0  0  0  0  0  0  0  0
   -0.8240   20.1740    1.0250 O   0  0  0  0  0  0  0  0  0  0  0  0
   -1.3790   19.1610    0.1710 C   0  0  0  0  0  0  0  0  0  0  0  0
   -1.5530   17.8310    0.8360 C   0  0  0  0  0  0  0  0  0  0  0  0
   -2.5200   19.6410   -0.6700 C   0  0  0  0  0  0  0  0  0  0  0  0
    0.6580   16.3270   -2.3040 C   0  0  1  0  0  0  0  0  0  0  0  0
    0.7680   16.1360   -3.8410 C   0  0  0  0  0  0  0  0  0  0  0  0
    1.1670   14.6570   -4.0810 C   0  0  0  0  0  0  0  0  0  0  0  0
    0.9510   13.9680   -2.7130 C   0  0  1  0  0  0  0  0  0  0  0  0
   -0.5810   13.6760   -2.6490 C   0  0  0  0  0  0  0  0  0  0  0  0
    1.7960   12.6800   -2.4470 C   0  0  2  0  0  0  0  0  0  0  0  0
    1.5200   11.5090   -3.4060 C   0  0  0  0  0  0  0  0  0  0  0  0
    0.4540   10.5610   -2.9660 C   0  0  0  0  0  0  0  0  0  0  0  0
   -0.0560   10.4800   -1.7230 C   0  0  0  0  0  0  0  0  0  0  0  0
    0.5120   11.3330   -0.5810 C   0  0  1  0  0  0  0  0  0  0  0  0
    0.7250   10.4450    0.6720 C   0  0  0  0  0  0  0  0  0  0  0  0
   -0.5390    9.6930    1.0790 C   0  0  0  0  0  0  0  0  0  0  0  0
   -1.0400    8.8120   -0.0620 C   0  0  2  0  0  0  0  0  0  0  0  0
   -0.0880    7.7680   -0.2900 O   0  0  0  0  0  0  0  0  0  0  0  0
   -1.2810    9.5970   -1.3820 C   0  0  0  0  0  0  0  0  0  0  0  0
   -2.5150   10.5180   -1.2210 C   0  0  0  0  0  0  0  0  0  0  0  0
   -1.6470    8.5700   -2.4880 C   0  0  0  0  0  0  0  0  0  0  0  0
    1.7930   12.2030   -0.9380 C   0  0  1  0  0  0  0  0  0  0  0  0
    3.0860   11.3540   -0.7370 C   0  0  0  0  0  0  0  0  0  0  0  0
    1.8930   13.4090    0.0700 C   0  0  0  0  0  0  0  0  0  0  0  0
    1.1330   14.6950   -0.3070 C   0  0  0  0  0  0  0  0  0  0  0  0
    1.4400   15.1100   -1.7490 C   0  0  2  0  0  0  0  0  0  0  0  0
    2.9710   15.4320   -1.8390 C   0  0  0  0  0  0  0  0  0  0  0  0
    3.1222   18.4786   -2.0081 H   0  0  0  0  0  0  0  0  0  0  0  0
    2.6539   17.3393   -3.3155 H   0  0  0  0  0  0  0  0  0  0  0  0
    2.0148   19.0180   -3.3155 H   0  0  0  0  0  0  0  0  0  0  0  0
    0.2954   18.4361   -2.0161 H   0  0  0  0  0  0  0  0  0  0  0  0
    0.7190   16.9987    0.1483 H   0  0  0  0  0  0  0  0  0  0  0  0
    2.4642   17.3936   -0.2297 H   0  0  0  0  0  0  0  0  0  0  0  0
    1.2757   18.9334    1.4207 H   0  0  0  0  0  0  0  0  0  0  0  0
    2.1137   19.6971    0.0063 H   0  0  0  0  0  0  0  0  0  0  0  0
    0.4754   20.1641   -0.9713 H   0  0  0  0  0  0  0  0  0  0  0  0
   -1.5359   17.9620    1.9280 H   0  0  0  0  0  0  0  0  0  0  0  0
   -2.5160   17.3934    0.5343 H   0  0  0  0  0  0  0  0  0  0  0  0
   -0.7349   17.1604    0.5343 H   0  0  0  0  0  0  0  0  0  0  0  0
   -3.3368   19.9846   -0.0182 H   0  0  0  0  0  0  0  0  0  0  0  0
   -2.1827   20.4735   -1.3050 H   0  0  0  0  0  0  0  0  0  0  0  0
   -2.8792   18.8177   -1.3050 H   0  0  0  0  0  0  0  0  0  0  0  0
   -0.3687   16.3271   -1.9092 H   0  0  0  0  0  0  0  0  0  0  0  0
   -0.1992   16.3497   -4.3194 H   0  0  0  0  0  0  0  0  0  0  0  0
    1.5134   16.8208   -4.2716 H   0  0  0  0  0  0  0  0  0  0  0  0
    0.5262   14.2018   -4.8506 H   0  0  0  0  0  0  0  0  0  0  0  0
    2.2020   14.5570   -4.4398 H   0  0  0  0  0  0  0  0  0  0  0  0
   -0.8991   13.6154   -1.5977 H   0  0  0  0  0  0  0  0  0  0  0  0
   -1.1299   14.4857   -3.1521 H   0  0  0  0  0  0  0  0  0  0  0  0
   -0.7936   12.7212   -3.1521 H   0  0  0  0  0  0  0  0  0  0  0  0
    2.8180   13.0178   -2.6736 H   0  0  0  0  0  0  0  0  0  0  0  0
    1.2212   11.9289   -4.3778 H   0  0  0  0  0  0  0  0  0  0  0  0
    2.4502   10.9231   -3.4459 H   0  0  0  0  0  0  0  0  0  0  0  0
    0.0513    9.8703   -3.7215 H   0  0  0  0  0  0  0  0  0  0  0  0
   -0.2459   12.1013   -0.3685 H   0  0  0  0  0  0  0  0  0  0  0  0
    1.5163    9.7125    0.4545 H   0  0  0  0  0  0  0  0  0  0  0  0
    1.0029   11.1062    1.5060 H   0  0  0  0  0  0  0  0  0  0  0  0
   -0.3167    9.0607    1.9513 H   0  0  0  0  0  0  0  0  0  0  0  0
   -1.3205   10.4269    1.3254 H   0  0  0  0  0  0  0  0  0  0  0  0
   -2.0147    8.4019    0.2411 H   0  0  0  0  0  0  0  0  0  0  0  0
    0.3170    7.5470    0.5650 H   0  0  0  0  0  0  0  0  0  0  0  0
   -2.7208   10.6716   -0.1514 H   0  0  0  0  0  0  0  0  0  0  0  0
   -2.3133   11.4882   -1.6986 H   0  0  0  0  0  0  0  0  0  0  0  0
   -3.3877   10.0486   -1.6986 H   0  0  0  0  0  0  0  0  0  0  0  0
   -1.9813    7.6318   -2.0211 H   0  0  0  0  0  0  0  0  0  0  0  0
   -2.4555    8.9769   -3.1132 H   0  0  0  0  0  0  0  0  0  0  0  0
   -0.7634    8.3739   -3.1132 H   0  0  0  0  0  0  0  0  0  0  0  0
    3.2782   11.2278    0.3387 H   0  0  0  0  0  0  0  0  0  0  0  0
    2.9528   10.3670   -1.2040 H   0  0  0  0  0  0  0  0  0  0  0  0
    3.9388   11.8685   -1.2040 H   0  0  0  0  0  0  0  0  0  0  0  0
    1.5043   13.0651    1.0398 H   0  0  0  0  0  0  0  0  0  0  0  0
    2.9556   13.6935    0.0736 H   0  0  0  0  0  0  0  0  0  0  0  0
    0.0522   14.5170   -0.2060 H   0  0  0  0  0  0  0  0  0  0  0  0
    1.4546   15.5029    0.3667 H   0  0  0  0  0  0  0  0  0  0  0  0
    3.3875   15.5196   -0.8247 H   0  0  0  0  0  0  0  0  0  0  0  0
    3.4849   14.6223   -2.3777 H   0  0  0  0  0  0  0  0  0  0  0  0
    3.1152   16.3801   -2.3777 H   0  0  0  0  0  0  0  0  0  0  0  0
  1  2  1  0
  2  3  1  0
  3  4  1  0
  4  5  1  0
  5  6  1  0
  6  7  1  0
  7  8  1  0
  7  9  1  0
  2 10  1  0
 10 11  1  0
 11 12  1  0
 12 13  1  0
 13 14  1  1
 13 15  1  0
 15 16  1  0
 16 17  1  0
 17 18  2  0
 18 19  1  0
 19 20  1  0
 20 21  1  0
 21 22  1  0
 22 23  1  0
 22 24  1  0
 24 25  1  0
 24 26  1  0
 19 27  1  0
 27 28  1  6
 27 29  1  0
 29 30  1  0
 30 31  1  0
 31 32  1  1
  7  5  1  0
 31 10  1  0
 31 13  1  0
 27 15  1  0
 24 18  1  0
  1 33  1  0
  1 34  1  0
  1 35  1  0
  2 36  1  1
  3 37  1  0
  3 38  1  0
  4 39  1  0
  4 40  1  0
  5 41  1  6
  8 42  1  0
  8 43  1  0
  8 44  1  0
  9 45  1  0
  9 46  1  0
  9 47  1  0
 10 48  1  1
 11 49  1  0
 11 50  1  0
 12 51  1  0
 12 52  1  0
 14 53  1  0
 14 54  1  0
 14 55  1  0
 15 56  1  6
 16 57  1  0
 16 58  1  0
 17 59  1  0
 19 60  1  1
 20 61  1  0
 20 62  1  0
 21 63  1  0
 21 64  1  0
 22 65  1  1
 23 66  1  0
 25 67  1  0
 25 68  1  0
 25 69  1  0
 26 70  1  0
 26 71  1  0
 26 72  1  0
 28 73  1  0
 28 74  1  0
 28 75  1  0
 29 76  1  0
 29 77  1  0
 30 78  1  0
 30 79  1  0
 32 80  1  0
 32 81  1  0
 32 82  1  0
M  END
>  <meeko>  (4) 
{"is_sidechain": [false], "intermolecular_energy": 2.731, "internal_energy": -0.839}

$$$$
EPH_relaxed_0001_pdb2pqr_Repair_36_r2_0001_out
     RDKit          3D

 82 86  0  0  0  0  0  0  0  0999 V2000
   -0.6620   10.0670   -2.6220 C   0  0  0  0  0  0  0  0  0  0  0  0
   -0.8390   10.1040   -1.1010 C   0  0  2  0  0  0  0  0  0  0  0  0
   -2.3150    9.9500   -0.6840 C   0  0  0  0  0  0  0  0  0  0  0  0
   -2.8920    8.5600   -0.9650 C   0  0  0  0  0  0  0  0  0  0  0  0
   -4.3780    8.5260   -0.7690 C   0  0  2  0  0  0  0  0  0  0  0  0
   -4.8820    7.2990   -0.2260 O   0  0  0  0  0  0  0  0  0  0  0  0
   -5.3060    7.6240   -1.5600 C   0  0  0  0  0  0  0  0  0  0  0  0
   -4.7830    6.6930   -2.6090 C   0  0  0  0  0  0  0  0  0  0  0  0
   -6.7530    7.9960   -1.6580 C   0  0  0  0  0  0  0  0  0  0  0  0
   -0.2730   11.4060   -0.5440 C   0  0  1  0  0  0  0  0  0  0  0  0
    0.9090   11.1730    0.4340 C   0  0  0  0  0  0  0  0  0  0  0  0
    1.8960   12.3510    0.2310 C   0  0  0  0  0  0  0  0  0  0  0  0
    1.1030   13.3840   -0.6030 C   0  0  1  0  0  0  0  0  0  0  0  0
    0.2160   14.1420    0.4340 C   0  0  0  0  0  0  0  0  0  0  0  0
    1.9530   14.3730   -1.4670 C   0  0  2  0  0  0  0  0  0  0  0  0
    2.8850   15.3010   -0.6690 C   0  0  0  0  0  0  0  0  0  0  0  0
    2.2890   16.6090   -0.2640 C   0  0  0  0  0  0  0  0  0  0  0  0
    1.1610   17.1430   -0.7680 C   0  0  0  0  0  0  0  0  0  0  0  0
    0.4130   16.4620   -1.9200 C   0  0  1  0  0  0  0  0  0  0  0  0
    0.0440   17.5180   -2.9940 C   0  0  0  0  0  0  0  0  0  0  0  0
   -0.7300   18.6980   -2.4140 C   0  0  0  0  0  0  0  0  0  0  0  0
    0.0720   19.3850   -1.3110 C   0  0  2  0  0  0  0  0  0  0  0  0
    1.2270   19.9960   -1.8940 O   0  0  0  0  0  0  0  0  0  0  0  0
    0.5080   18.4170   -0.1760 C   0  0  0  0  0  0  0  0  0  0  0  0
   -0.7310   17.9900    0.6490 C   0  0  0  0  0  0  0  0  0  0  0  0
    1.4270   19.2050    0.7970 C   0  0  0  0  0  0  0  0  0  0  0  0
    1.1160   15.1790   -2.5410 C   0  0  1  0  0  0  0  0  0  0  0  0
    2.1190   15.6090   -3.6550 C   0  0  0  0  0  0  0  0  0  0  0  0
    0.0270   14.2850   -3.2450 C   0  0  0  0  0  0  0  0  0  0  0  0
   -0.6930   13.2460   -2.3650 C   0  0  0  0  0  0  0  0  0  0  0  0
    0.3140   12.4180   -1.5590 C   0  0  2  0  0  0  0  0  0  0  0  0
    1.2060   11.6280   -2.5760 C   0  0  0  0  0  0  0  0  0  0  0  0
    0.3884    9.8474   -2.8637 H   0  0  0  0  0  0  0  0  0  0  0  0
   -1.3074    9.2844   -3.0473 H   0  0  0  0  0  0  0  0  0  0  0  0
   -0.9399   11.0426   -3.0473 H   0  0  0  0  0  0  0  0  0  0  0  0
   -0.2875    9.2492   -0.6825 H   0  0  0  0  0  0  0  0  0  0  0  0
   -2.3933   10.1468    0.3954 H   0  0  0  0  0  0  0  0  0  0  0  0
   -2.8951   10.6663   -1.2843 H   0  0  0  0  0  0  0  0  0  0  0  0
   -2.6632    8.2826   -2.0046 H   0  0  0  0  0  0  0  0  0  0  0  0
   -2.4368    7.8507   -0.2582 H   0  0  0  0  0  0  0  0  0  0  0  0
   -4.3989    9.6062   -0.5622 H   0  0  0  0  0  0  0  0  0  0  0  0
   -4.2989    5.8313   -2.1261 H   0  0  0  0  0  0  0  0  0  0  0  0
   -5.6159    6.3419   -3.2359 H   0  0  0  0  0  0  0  0  0  0  0  0
   -4.0498    7.2217   -3.2359 H   0  0  0  0  0  0  0  0  0  0  0  0
   -7.1731    8.1040   -0.6471 H   0  0  0  0  0  0  0  0  0  0  0  0
   -6.8509    8.9485   -2.1994 H   0  0  0  0  0  0  0  0  0  0  0  0
   -7.2981    7.2088   -2.1994 H   0  0  0  0  0  0  0  0  0  0  0  0
   -1.1819   11.8200   -0.0830 H   0  0  0  0  0  0  0  0  0  0  0  0
    0.5448   11.1585    1.4718 H   0  0  0  0  0  0  0  0  0  0  0  0
    1.3997   10.2082    0.2379 H   0  0  0  0  0  0  0  0  0  0  0  0
    2.1936   12.7797    1.1993 H   0  0  0  0  0  0  0  0  0  0  0  0
    2.8246   12.0364   -0.2676 H   0  0  0  0  0  0  0  0  0  0  0  0
    0.5314   13.8725    1.4528 H   0  0  0  0  0  0  0  0  0  0  0  0
    0.3293   15.2266    0.2900 H   0  0  0  0  0  0  0  0  0  0  0  0
   -0.8377   13.8611    0.2900 H   0  0  0  0  0  0  0  0  0  0  0  0
    2.6142   13.6921   -2.0230 H   0  0  0  0  0  0  0  0  0  0  0  0
    3.1925   14.7703    0.2442 H   0  0  0  0  0  0  0  0  0  0  0  0
    3.7216   15.5429   -1.3410 H   0  0  0  0  0  0  0  0  0  0  0  0
    2.8161   17.1843    0.5113 H   0  0  0  0  0  0  0  0  0  0  0  0
   -0.5034   16.0412   -1.4806 H   0  0  0  0  0  0  0  0  0  0  0  0
    0.9710   17.8949   -3.4508 H   0  0  0  0  0  0  0  0  0  0  0  0
   -0.6030   17.0271   -3.7359 H   0  0  0  0  0  0  0  0  0  0  0  0
   -0.9353   19.4231   -3.2153 H   0  0  0  0  0  0  0  0  0  0  0  0
   -1.6712   18.3245   -1.9842 H   0  0  0  0  0  0  0  0  0  0  0  0
   -0.5828   20.1366   -0.8460 H   0  0  0  0  0  0  0  0  0  0  0  0
    1.2350   19.7690   -2.8390 H   0  0  0  0  0  0  0  0  0  0  0  0
   -0.5020   18.0689    1.7220 H   0  0  0  0  0  0  0  0  0  0  0  0
   -1.5782   18.6480    0.4055 H   0  0  0  0  0  0  0  0  0  0  0  0
   -0.9929   16.9498    0.4055 H   0  0  0  0  0  0  0  0  0  0  0  0
    1.1507   18.9681    1.8351 H   0  0  0  0  0  0  0  0  0  0  0  0
    2.4752   18.9207    0.6225 H   0  0  0  0  0  0  0  0  0  0  0  0
    1.3059   20.2843    0.6225 H   0  0  0  0  0  0  0  0  0  0  0  0
    3.0357   16.0020   -3.1912 H   0  0  0  0  0  0  0  0  0  0  0  0
    2.3683   14.7387   -4.2798 H   0  0  0  0  0  0  0  0  0  0  0  0
    1.6605   16.3896   -4.2798 H   0  0  0  0  0  0  0  0  0  0  0  0
   -0.7383   14.9575   -3.6597 H   0  0  0  0  0  0  0  0  0  0  0  0
    0.5777   13.6963   -3.9935 H   0  0  0  0  0  0  0  0  0  0  0  0
   -1.3674   13.7682   -1.6704 H   0  0  0  0  0  0  0  0  0  0  0  0
   -1.2624   12.5678   -3.0175 H   0  0  0  0  0  0  0  0  0  0  0  0
    1.9188   10.9967   -2.0252 H   0  0  0  0  0  0  0  0  0  0  0  0
    0.5673   10.9939   -3.2085 H   0  0  0  0  0  0  0  0  0  0  0  0
    1.7582   12.3386   -3.2085 H   0  0  0  0  0  0  0  0  0  0  0  0
  1  2  1  0
  2  3  1  0
  3  4  1  0
  4  5  1  0
  5  6  1  0
  6  7  1  0
  7  8  1  0
  7  9  1  0
  2 10  1  0
 10 11  1  0
 11 12  1  0
 12 13  1  0
 13 14  1  1
 13 15  1  0
 15 16  1  0
 16 17  1  0
 17 18  2  0
 18 19  1  0
 19 20  1  0
 20 21  1  0
 21 22  1  0
 22 23  1  0
 22 24  1  0
 24 25  1  0
 24 26  1  0
 19 27  1  0
 27 28  1  6
 27 29  1  0
 29 30  1  0
 30 31  1  0
 31 32  1  6
  7  5  1  0
 31 10  1  0
 31 13  1  0
 27 15  1  0
 24 18  1  0
  1 33  1  0
  1 34  1  0
  1 35  1  0
  2 36  1  1
  3 37  1  0
  3 38  1  0
  4 39  1  0
  4 40  1  0
  5 41  1  1
  8 42  1  0
  8 43  1  0
  8 44  1  0
  9 45  1  0
  9 46  1  0
  9 47  1  0
 10 48  1  1
 11 49  1  0
 11 50  1  0
 12 51  1  0
 12 52  1  0
 14 53  1  0
 14 54  1  0
 14 55  1  0
 15 56  1  6
 16 57  1  0
 16 58  1  0
 17 59  1  0
 19 60  1  1
 20 61  1  0
 20 62  1  0
 21 63  1  0
 21 64  1  0
 22 65  1  1
 23 66  1  0
 25 67  1  0
 25 68  1  0
 25 69  1  0
 26 70  1  0
 26 71  1  0
 26 72  1  0
 28 73  1  0
 28 74  1  0
 28 75  1  0
 29 76  1  0
 29 77  1  0
 30 78  1  0
 30 79  1  0
 32 80  1  0
 32 81  1  0
 32 82  1  0
M  END
>  <meeko>  (5) 
{"is_sidechain": [false], "intermolecular_energy": 2.731, "internal_energy": -0.839}

$$$$
EPH_relaxed_0001_pdb2pqr_Repair_36_r2_0001_out
     RDKit          3D

 82 86  0  0  0  0  0  0  0  0999 V2000
   -0.1540   10.4320   -3.7410 C   0  0  0  0  0  0  0  0  0  0  0  0
    0.9800   10.2580   -2.7270 C   0  0  2  0  0  0  0  0  0  0  0  0
    0.8220    8.9690   -1.8950 C   0  0  0  0  0  0  0  0  0  0  0  0
    0.1750    9.1960   -0.5260 C   0  0  0  0  0  0  0  0  0  0  0  0
   -1.2420    8.7060   -0.4950 C   0  0  2  0  0  0  0  0  0  0  0  0
   -1.9380    8.8090   -1.7430 O   0  0  0  0  0  0  0  0  0  0  0  0
   -2.4450    9.6140   -0.6670 C   0  0  0  0  0  0  0  0  0  0  0  0
   -2.2870   11.0870   -0.8810 C   0  0  0  0  0  0  0  0  0  0  0  0
   -3.7690    9.1550   -0.1420 C   0  0  0  0  0  0  0  0  0  0  0  0
    1.0420   11.4690   -1.8040 C   0  0  1  0  0  0  0  0  0  0  0  0
    2.0990   11.3090   -0.6780 C   0  0  0  0  0  0  0  0  0  0  0  0
    2.6970   12.7160   -0.4230 C   0  0  0  0  0  0  0  0  0  0  0  0
    1.7440   13.6850   -1.1630 C   0  0  1  0  0  0  0  0  0  0  0  0
    0.5390   13.8830   -0.1910 C   0  0  0  0  0  0  0  0  0  0  0  0
    2.3580   15.0530   -1.6070 C   0  0  2  0  0  0  0  0  0  0  0  0
    2.8480   15.9520   -0.4580 C   0  0  0  0  0  0  0  0  0  0  0  0
    1.8340   16.9030    0.0850 C   0  0  0  0  0  0  0  0  0  0  0  0
    0.6740   17.2330   -0.5120 C   0  0  0  0  0  0  0  0  0  0  0  0
    0.3280   16.7040   -1.9100 C   0  0  1  0  0  0  0  0  0  0  0  0
   -0.2000   17.8680   -2.7890 C   0  0  0  0  0  0  0  0  0  0  0  0
   -1.3660   18.6080   -2.1400 C   0  0  0  0  0  0  0  0  0  0  0  0
   -0.9660   19.1700   -0.7780 C   0  0  2  0  0  0  0  0  0  0  0  0
    0.0140   20.1940   -0.9720 O   0  0  0  0  0  0  0  0  0  0  0  0
   -0.4090   18.0890    0.1900 C   0  0  0  0  0  0  0  0  0  0  0  0
   -1.5570   17.1500    0.6370 C   0  0  0  0  0  0  0  0  0  0  0  0
    0.0870   18.8080    1.4730 C   0  0  0  0  0  0  0  0  0  0  0  0
    1.4650   15.8610   -2.6330 C   0  0  1  0  0  0  0  0  0  0  0  0
    2.4270   16.8170   -3.4030 C   0  0  0  0  0  0  0  0  0  0  0  0
    0.8040   14.9290   -3.7150 C   0  0  0  0  0  0  0  0  0  0  0  0
    0.3260   13.5430   -3.2400 C   0  0  0  0  0  0  0  0  0  0  0  0
    1.4210   12.8300   -2.4410 C   0  0  2  0  0  0  0  0  0  0  0  0
    2.6380   12.5970   -3.4000 C   0  0  0  0  0  0  0  0  0  0  0  0
   -1.1044   10.5778   -3.2067 H   0  0  0  0  0  0  0  0  0  0  0  0
    0.0501   11.3093   -4.3724 H   0  0  0  0  0  0  0  0  0  0  0  0
   -0.2223    9.5338   -4.3724 H   0  0  0  0  0  0  0  0  0  0  0  0
    1.9197   10.1730   -3.2925 H   0  0  0  0  0  0  0  0  0  0  0  0
    0.1965    8.2640   -2.4622 H   0  0  0  0  0  0  0  0  0  0  0  0
    1.8339    8.5784   -1.7118 H   0  0  0  0  0  0  0  0  0  0  0  0
    0.7557    8.6565    0.2367 H   0  0  0  0  0  0  0  0  0  0  0  0
    0.1688   10.2773   -0.3243 H   0  0  0  0  0  0  0  0  0  0  0  0
   -0.9895    7.9520    0.2651 H   0  0  0  0  0  0  0  0  0  0  0  0
   -2.2325   11.5953    0.0930 H   0  0  0  0  0  0  0  0  0  0  0  0
   -1.3632   11.2783   -1.4466 H   0  0  0  0  0  0  0  0  0  0  0  0
   -3.1492   11.4699   -1.4466 H   0  0  0  0  0  0  0  0  0  0  0  0
   -3.7496    9.1617    0.9578 H   0  0  0  0  0  0  0  0  0  0  0  0
   -4.5595    9.8315   -0.4989 H   0  0  0  0  0  0  0  0  0  0  0  0
   -3.9711    8.1343   -0.4989 H   0  0  0  0  0  0  0  0  0  0  0  0
   -0.0025   11.4920   -1.4598 H   0  0  0  0  0  0  0  0  0  0  0  0
    1.6226   10.9283    0.2375 H   0  0  0  0  0  0  0  0  0  0  0  0
    2.8822   10.5939   -0.9701 H   0  0  0  0  0  0  0  0  0  0  0  0
    2.7186   12.9394    0.6539 H   0  0  0  0  0  0  0  0  0  0  0  0
    3.7347   12.7989   -0.7783 H   0  0  0  0  0  0  0  0  0  0  0  0
    0.8932   13.8248    0.8488 H   0  0  0  0  0  0  0  0  0  0  0  0
    0.0829   14.8681   -0.3684 H   0  0  0  0  0  0  0  0  0  0  0  0
   -0.2084   13.0956   -0.3684 H   0  0  0  0  0  0  0  0  0  0  0  0
    3.2633   14.7410   -2.1484 H   0  0  0  0  0  0  0  0  0  0  0  0
    3.1787   15.3015    0.3651 H   0  0  0  0  0  0  0  0  0  0  0  0
    3.6522   16.5730   -0.8796 H   0  0  0  0  0  0  0  0  0  0  0  0
    2.0533   17.3737    1.0547 H   0  0  0  0  0  0  0  0  0  0  0  0
   -0.4662   15.9571   -1.7641 H   0  0  0  0  0  0  0  0  0  0  0  0
    0.6198   18.5815   -2.9591 H   0  0  0  0  0  0  0  0  0  0  0  0
   -0.5625   17.4358   -3.7333 H   0  0  0  0  0  0  0  0  0  0  0  0
   -1.6755   19.4363   -2.7943 H   0  0  0  0  0  0  0  0  0  0  0  0
   -2.1954   17.8996   -1.9974 H   0  0  0  0  0  0  0  0  0  0  0  0
   -1.8743   19.5743   -0.3073 H   0  0  0  0  0  0  0  0  0  0  0  0
    0.0790   20.6990   -0.1430 H   0  0  0  0  0  0  0  0  0  0  0  0
   -1.5971   17.1172    1.7358 H   0  0  0  0  0  0  0  0  0  0  0  0
   -2.5132   17.5282    0.2463 H   0  0  0  0  0  0  0  0  0  0  0  0
   -1.3759   16.1378    0.2463 H   0  0  0  0  0  0  0  0  0  0  0  0
   -0.2826   18.2722    2.3597 H   0  0  0  0  0  0  0  0  0  0  0  0
    1.1869   18.8207    1.4843 H   0  0  0  0  0  0  0  0  0  0  0  0
   -0.2917   19.8407    1.4843 H   0  0  0  0  0  0  0  0  0  0  0  0
    3.0164   17.4027   -2.6822 H   0  0  0  0  0  0  0  0  0  0  0  0
    3.1047   16.2242   -4.0350 H   0  0  0  0  0  0  0  0  0  0  0  0
    1.8385   17.4984   -4.0350 H   0  0  0  0  0  0  0  0  0  0  0  0
   -0.0686   15.4600   -4.1232 H   0  0  0  0  0  0  0  0  0  0  0  0
    1.6017   14.7240   -4.4442 H   0  0  0  0  0  0  0  0  0  0  0  0
   -0.5616   13.6675   -2.6023 H   0  0  0  0  0  0  0  0  0  0  0  0
    0.0831   12.9339   -4.1232 H   0  0  0  0  0  0  0  0  0  0  0  0
    3.5462   12.4231   -2.8043 H   0  0  0  0  0  0  0  0  0  0  0  0
    2.4422   11.7200   -4.0345 H   0  0  0  0  0  0  0  0  0  0  0  0
    2.7800   13.4843   -4.0345 H   0  0  0  0  0  0  0  0  0  0  0  0
  1  2  1  0
  2  3  1  0
  3  4  1  0
  4  5  1  0
  5  6  1  0
  6  7  1  0
  7  8  1  0
  7  9  1  0
  2 10  1  0
 10 11  1  0
 11 12  1  0
 12 13  1  0
 13 14  1  1
 13 15  1  0
 15 16  1  0
 16 17  1  0
 17 18  2  0
 18 19  1  0
 19 20  1  0
 20 21  1  0
 21 22  1  0
 22 23  1  0
 22 24  1  0
 24 25  1  0
 24 26  1  0
 19 27  1  0
 27 28  1  6
 27 29  1  0
 29 30  1  0
 30 31  1  0
 31 32  1  6
  7  5  1  0
 31 10  1  0
 31 13  1  0
 27 15  1  0
 24 18  1  0
  1 33  1  0
  1 34  1  0
  1 35  1  0
  2 36  1  6
  3 37  1  0
  3 38  1  0
  4 39  1  0
  4 40  1  0
  5 41  1  1
  8 42  1  0
  8 43  1  0
  8 44  1  0
  9 45  1  0
  9 46  1  0
  9 47  1  0
 10 48  1  1
 11 49  1  0
 11 50  1  0
 12 51  1  0
 12 52  1  0
 14 53  1  0
 14 54  1  0
 14 55  1  0
 15 56  1  6
 16 57  1  0
 16 58  1  0
 17 59  1  0
 19 60  1  1
 20 61  1  0
 20 62  1  0
 21 63  1  0
 21 64  1  0
 22 65  1  1
 23 66  1  0
 25 67  1  0
 25 68  1  0
 25 69  1  0
 26 70  1  0
 26 71  1  0
 26 72  1  0
 28 73  1  0
 28 74  1  0
 28 75  1  0
 29 76  1  0
 29 77  1  0
 30 78  1  0
 30 79  1  0
 32 80  1  0
 32 81  1  0
 32 82  1  0
M  END
>  <meeko>  (6) 
{"is_sidechain": [false], "intermolecular_energy": 2.731, "internal_energy": -0.839}

$$$$
EPH_relaxed_0001_pdb2pqr_Repair_36_r2_0001_out
     RDKit          3D

 82 86  0  0  0  0  0  0  0  0999 V2000
    0.4440    8.7830   -2.3640 C   0  0  0  0  0  0  0  0  0  0  0  0
    1.1810    9.9260   -3.0690 C   0  0  2  0  0  0  0  0  0  0  0  0
    2.6820    9.9520   -2.7170 C   0  0  0  0  0  0  0  0  0  0  0  0
    3.5620   10.5490   -3.8190 C   0  0  0  0  0  0  0  0  0  0  0  0
    4.9560   10.8100   -3.3360 C   0  0  2  0  0  0  0  0  0  0  0  0
    5.5400   12.0260   -3.8190 O   0  0  0  0  0  0  0  0  0  0  0  0
    6.1710   10.8070   -4.2450 C   0  0  0  0  0  0  0  0  0  0  0  0
    6.0480   10.5380   -5.7110 C   0  0  0  0  0  0  0  0  0  0  0  0
    7.5200   10.5820   -3.6350 C   0  0  0  0  0  0  0  0  0  0  0  0
    0.5380   11.2600   -2.7080 C   0  0  1  0  0  0  0  0  0  0  0  0
   -0.8380   11.0900   -2.0100 C   0  0  0  0  0  0  0  0  0  0  0  0
   -0.9560   12.2350   -0.9710 C   0  0  0  0  0  0  0  0  0  0  0  0
    0.1900   13.2090   -1.3320 C   0  0  1  0  0  0  0  0  0  0  0  0
   -0.3640   14.0580   -2.5180 C   0  0  0  0  0  0  0  0  0  0  0  0
    0.7180   14.1140   -0.1720 C   0  0  2  0  0  0  0  0  0  0  0  0
   -0.3150   15.0900    0.4170 C   0  0  0  0  0  0  0  0  0  0  0  0
   -0.3640   16.4340   -0.2320 C   0  0  0  0  0  0  0  0  0  0  0  0
    0.5750   16.9420   -1.0510 C   0  0  0  0  0  0  0  0  0  0  0  0
    1.8790   16.1800   -1.3230 C   0  0  1  0  0  0  0  0  0  0  0  0
    3.0820   17.1520   -1.2000 C   0  0  0  0  0  0  0  0  0  0  0  0
    2.9310   18.3840   -2.0860 C   0  0  0  0  0  0  0  0  0  0  0  0
    1.6530   19.1470   -1.7460 C   0  0  2  0  0  0  0  0  0  0  0  0
    1.7790   19.6940   -0.4300 O   0  0  0  0  0  0  0  0  0  0  0  0
    0.3750   18.2670   -1.8270 C   0  0  0  0  0  0  0  0  0  0  0  0
    0.0720   17.9240   -3.3060 C   0  0  0  0  0  0  0  0  0  0  0  0
   -0.8230   19.1180   -1.3250 C   0  0  0  0  0  0  0  0  0  0  0  0
    2.0870   14.8430   -0.4900 C   0  0  1  0  0  0  0  0  0  0  0  0
    2.7470   15.1690    0.8850 C   0  0  0  0  0  0  0  0  0  0  0  0
    3.0970   13.9100   -1.2580 C   0  0  0  0  0  0  0  0  0  0  0  0
    2.4990   12.9540   -2.3070 C   0  0  0  0  0  0  0  0  0  0  0  0
    1.3100   12.1800   -1.7300 C   0  0  2  0  0  0  0  0  0  0  0  0
    1.8410   11.2990   -0.5480 C   0  0  0  0  0  0  0  0  0  0  0  0
    0.5262    8.9105   -1.2745 H   0  0  0  0  0  0  0  0  0  0  0  0
   -0.6166    8.7956   -2.6556 H   0  0  0  0  0  0  0  0  0  0  0  0
    0.8931    7.8221   -2.6556 H   0  0  0  0  0  0  0  0  0  0  0  0
    1.0985    9.7552   -4.1525 H   0  0  0  0  0  0  0  0  0  0  0  0
    2.8144   10.5511   -1.8040 H   0  0  0  0  0  0  0  0  0  0  0  0
    2.9991    8.9073   -2.5828 H   0  0  0  0  0  0  0  0  0  0  0  0
    3.6033    9.8445   -4.6628 H   0  0  0  0  0  0  0  0  0  0  0  0
    3.1211   11.5085   -4.1271 H   0  0  0  0  0  0  0  0  0  0  0  0
    4.7458   10.3011   -2.3837 H   0  0  0  0  0  0  0  0  0  0  0  0
    5.5951    9.5475   -5.8653 H   0  0  0  0  0  0  0  0  0  0  0  0
    5.4124   11.3078   -6.1730 H   0  0  0  0  0  0  0  0  0  0  0  0
    7.0460   10.5608   -6.1730 H   0  0  0  0  0  0  0  0  0  0  0  0
    7.4336   10.5964   -2.5385 H   0  0  0  0  0  0  0  0  0  0  0  0
    7.9109    9.6063   -3.9592 H   0  0  0  0  0  0  0  0  0  0  0  0
    8.2064   11.3781   -3.9592 H   0  0  0  0  0  0  0  0  0  0  0  0
    0.4980   11.7217   -3.7056 H   0  0  0  0  0  0  0  0  0  0  0  0
   -1.6495   11.1637   -2.7490 H   0  0  0  0  0  0  0  0  0  0  0  0
   -0.9161   10.1060   -1.5245 H   0  0  0  0  0  0  0  0  0  0  0  0
   -1.9319   12.7357   -1.0541 H   0  0  0  0  0  0  0  0  0  0  0  0
   -0.8819   11.8688    0.0636 H   0  0  0  0  0  0  0  0  0  0  0  0
   -0.9250   14.9177   -2.1229 H   0  0  0  0  0  0  0  0  0  0  0  0
    0.4734   14.4182   -3.1336 H   0  0  0  0  0  0  0  0  0  0  0  0
   -1.0310   13.4366   -3.1336 H   0  0  0  0  0  0  0  0  0  0  0  0
    0.9232   13.3818    0.6229 H   0  0  0  0  0  0  0  0  0  0  0  0
   -1.3098   14.6302    0.3223 H   0  0  0  0  0  0  0  0  0  0  0  0
   -0.0087   15.2657    1.4588 H   0  0  0  0  0  0  0  0  0  0  0  0
   -1.2424   17.0622   -0.0227 H   0  0  0  0  0  0  0  0  0  0  0  0
    1.8042   15.8077   -2.3554 H   0  0  0  0  0  0  0  0  0  0  0  0
    3.1658   17.4787   -0.1530 H   0  0  0  0  0  0  0  0  0  0  0  0
    3.9824   16.6124   -1.5289 H   0  0  0  0  0  0  0  0  0  0  0  0
    3.7966   19.0454   -1.9335 H   0  0  0  0  0  0  0  0  0  0  0  0
    2.8766   18.0576   -3.1351 H   0  0  0  0  0  0  0  0  0  0  0  0
    1.5336   19.9424   -2.4963 H   0  0  0  0  0  0  0  0  0  0  0  0
    2.7190   19.8930   -0.2820 H   0  0  0  0  0  0  0  0  0  0  0  0
   -0.6557   17.1002   -3.3497 H   0  0  0  0  0  0  0  0  0  0  0  0
   -0.3449   18.8086   -3.8096 H   0  0  0  0  0  0  0  0  0  0  0  0
    1.0013   17.6194   -3.8096 H   0  0  0  0  0  0  0  0  0  0  0  0
   -0.8325   19.1248   -0.2251 H   0  0  0  0  0  0  0  0  0  0  0  0
   -0.7224   20.1482   -1.6972 H   0  0  0  0  0  0  0  0  0  0  0  0
   -1.7627   18.6838   -1.6972 H   0  0  0  0  0  0  0  0  0  0  0  0
    2.0824   14.8407    1.6977 H   0  0  0  0  0  0  0  0  0  0  0  0
    3.7098   14.6428    0.9635 H   0  0  0  0  0  0  0  0  0  0  0  0
    2.9143   16.2534    0.9635 H   0  0  0  0  0  0  0  0  0  0  0  0
    3.8224   14.5572   -1.7728 H   0  0  0  0  0  0  0  0  0  0  0  0
    3.5290   13.2563   -0.4860 H   0  0  0  0  0  0  0  0  0  0  0  0
    2.1604   13.5388   -3.1750 H   0  0  0  0  0  0  0  0  0  0  0  0
    3.2742   12.2333   -2.6064 H   0  0  0  0  0  0  0  0  0  0  0  0
    1.5614   11.7629    0.4094 H   0  0  0  0  0  0  0  0  0  0  0  0
    1.3980   10.2942   -0.6118 H   0  0  0  0  0  0  0  0  0  0  0  0
    2.9364   11.2215   -0.6118 H   0  0  0  0  0  0  0  0  0  0  0  0
  1  2  1  0
  2  3  1  0
  3  4  1  0
  4  5  1  0
  5  6  1  0
  6  7  1  0
  7  8  1  0
  7  9  1  0
  2 10  1  0
 10 11  1  0
 11 12  1  0
 12 13  1  0
 13 14  1  6
 13 15  1  0
 15 16  1  0
 16 17  1  0
 17 18  2  0
 18 19  1  0
 19 20  1  0
 20 21  1  0
 21 22  1  0
 22 23  1  0
 22 24  1  0
 24 25  1  0
 24 26  1  0
 19 27  1  0
 27 28  1  1
 27 29  1  0
 29 30  1  0
 30 31  1  0
 31 32  1  1
  7  5  1  0
 31 10  1  0
 31 13  1  0
 27 15  1  0
 24 18  1  0
  1 33  1  0
  1 34  1  0
  1 35  1  0
  2 36  1  6
  3 37  1  0
  3 38  1  0
  4 39  1  0
  4 40  1  0
  5 41  1  1
  8 42  1  0
  8 43  1  0
  8 44  1  0
  9 45  1  0
  9 46  1  0
  9 47  1  0
 10 48  1  6
 11 49  1  0
 11 50  1  0
 12 51  1  0
 12 52  1  0
 14 53  1  0
 14 54  1  0
 14 55  1  0
 15 56  1  1
 16 57  1  0
 16 58  1  0
 17 59  1  0
 19 60  1  6
 20 61  1  0
 20 62  1  0
 21 63  1  0
 21 64  1  0
 22 65  1  6
 23 66  1  0
 25 67  1  0
 25 68  1  0
 25 69  1  0
 26 70  1  0
 26 71  1  0
 26 72  1  0
 28 73  1  0
 28 74  1  0
 28 75  1  0
 29 76  1  0
 29 77  1  0
 30 78  1  0
 30 79  1  0
 32 80  1  0
 32 81  1  0
 32 82  1  0
M  END
>  <meeko>  (7) 
{"is_sidechain": [false], "intermolecular_energy": 2.731, "internal_energy": -0.839}

$$$$
EPH_relaxed_0001_pdb2pqr_Repair_36_r2_0001_out
     RDKit          3D

 82 86  0  0  0  0  0  0  0  0999 V2000
   -5.1560    5.9610   -2.1480 C   0  0  0  0  0  0  0  0  0  0  0  0
   -5.5270    7.4400   -2.0090 C   0  0  2  0  0  0  0  0  0  0  0  0
   -5.3120    7.9610   -0.5730 C   0  0  0  0  0  0  0  0  0  0  0  0
   -4.2640    9.0720   -0.4720 C   0  0  0  0  0  0  0  0  0  0  0  0
   -2.8850    8.5630   -0.7670 C   0  0  2  0  0  0  0  0  0  0  0  0
   -1.8980    8.9060    0.2150 O   0  0  0  0  0  0  0  0  0  0  0  0
   -1.7120    9.4670   -1.0950 C   0  0  0  0  0  0  0  0  0  0  0  0
   -1.8630   10.9550   -1.1460 C   0  0  0  0  0  0  0  0  0  0  0  0
   -0.5490    8.8880   -1.8390 C   0  0  0  0  0  0  0  0  0  0  0  0
   -6.9770    7.6540   -2.4280 C   0  0  1  0  0  0  0  0  0  0  0  0
   -7.3310    6.9220   -3.7500 C   0  0  0  0  0  0  0  0  0  0  0  0
   -8.8020    6.4510   -3.6200 C   0  0  0  0  0  0  0  0  0  0  0  0
   -9.3460    7.2060   -2.3850 C   0  0  1  0  0  0  0  0  0  0  0  0
   -9.7150    8.6280   -2.9140 C   0  0  0  0  0  0  0  0  0  0  0  0
  -10.5470    6.5380   -1.6400 C   0  0  2  0  0  0  0  0  0  0  0  0
  -11.8310    6.3880   -2.4740 C   0  0  0  0  0  0  0  0  0  0  0  0
  -12.7830    7.5360   -2.3910 C   0  0  0  0  0  0  0  0  0  0  0  0
  -12.7540    8.5100   -1.4630 C   0  0  0  0  0  0  0  0  0  0  0  0
  -11.7480    8.4660   -0.3060 C   0  0  1  0  0  0  0  0  0  0  0  0
  -12.4780    8.7810    1.0260 C   0  0  0  0  0  0  0  0  0  0  0  0
  -13.2490   10.0960    0.9740 C   0  0  0  0  0  0  0  0  0  0  0  0
  -14.2790   10.0790   -0.1530 C   0  0  2  0  0  0  0  0  0  0  0  0
  -15.2870    9.1120    0.1580 O   0  0  0  0  0  0  0  0  0  0  0  0
  -13.6610    9.7620   -1.5430 C   0  0  0  0  0  0  0  0  0  0  0  0
  -12.7980   10.9590   -2.0140 C   0  0  0  0  0  0  0  0  0  0  0  0
  -14.8240    9.6370   -2.5650 C   0  0  0  0  0  0  0  0  0  0  0  0
  -10.8520    7.1560   -0.2160 C   0  0  1  0  0  0  0  0  0  0  0  0
  -11.5990    6.0550    0.5970 C   0  0  0  0  0  0  0  0  0  0  0  0
   -9.5380    7.4870    0.5870 C   0  0  0  0  0  0  0  0  0  0  0  0
   -8.3470    8.0320   -0.2240 C   0  0  0  0  0  0  0  0  0  0  0  0
   -8.0780    7.1620   -1.4560 C   0  0  2  0  0  0  0  0  0  0  0  0
   -7.6830    5.7320   -0.9550 C   0  0  0  0  0  0  0  0  0  0  0  0
   -5.0442    5.5155   -1.1485 H   0  0  0  0  0  0  0  0  0  0  0  0
   -5.9498    5.4340   -2.6977 H   0  0  0  0  0  0  0  0  0  0  0  0
   -4.2075    5.8710   -2.6977 H   0  0  0  0  0  0  0  0  0  0  0  0
   -4.8599    8.0114   -2.6711 H   0  0  0  0  0  0  0  0  0  0  0  0
   -6.2696    8.3518   -0.1983 H   0  0  0  0  0  0  0  0  0  0  0  0
   -4.9417    7.1146    0.0240 H   0  0  0  0  0  0  0  0  0  0  0  0
   -4.5135    9.8639   -1.1936 H   0  0  0  0  0  0  0  0  0  0  0  0
   -4.2733    9.4591    0.5576 H   0  0  0  0  0  0  0  0  0  0  0  0
   -3.2947    7.6747   -1.2701 H   0  0  0  0  0  0  0  0  0  0  0  0
   -1.9036   11.3547   -0.1220 H   0  0  0  0  0  0  0  0  0  0  0  0
   -1.0047   11.3927   -1.6767 H   0  0  0  0  0  0  0  0  0  0  0  0
   -2.7918   11.2113   -1.6767 H   0  0  0  0  0  0  0  0  0  0  0  0
    0.1972    8.5165   -1.1213 H   0  0  0  0  0  0  0  0  0  0  0  0
   -0.8951    8.0570   -2.4712 H   0  0  0  0  0  0  0  0  0  0  0  0
   -0.0946    9.6651   -2.4712 H   0  0  0  0  0  0  0  0  0  0  0  0
   -6.9915    8.7523   -2.4878 H   0  0  0  0  0  0  0  0  0  0  0  0
   -7.2271    7.6089   -4.6029 H   0  0  0  0  0  0  0  0  0  0  0  0
   -6.6571    6.0699   -3.9224 H   0  0  0  0  0  0  0  0  0  0  0  0
   -9.3755    6.7157   -4.5206 H   0  0  0  0  0  0  0  0  0  0  0  0
   -8.8822    5.3594   -3.5102 H   0  0  0  0  0  0  0  0  0  0  0  0
   -9.8899    9.3020   -2.0625 H   0  0  0  0  0  0  0  0  0  0  0  0
   -8.8882    9.0175   -3.5261 H   0  0  0  0  0  0  0  0  0  0  0  0
  -10.6269    8.5663   -3.5261 H   0  0  0  0  0  0  0  0  0  0  0  0
  -10.1791    5.5151   -1.4717 H   0  0  0  0  0  0  0  0  0  0  0  0
  -11.5396    6.2635   -3.5274 H   0  0  0  0  0  0  0  0  0  0  0  0
  -12.3640    5.5198   -2.0590 H   0  0  0  0  0  0  0  0  0  0  0  0
  -13.5747    7.5898   -3.1528 H   0  0  0  0  0  0  0  0  0  0  0  0
  -11.0046    9.2484   -0.5186 H   0  0  0  0  0  0  0  0  0  0  0  0
  -13.1848    7.9662    1.2419 H   0  0  0  0  0  0  0  0  0  0  0  0
  -11.7137    8.8731    1.8118 H   0  0  0  0  0  0  0  0  0  0  0  0
  -13.7665   10.2483    1.9327 H   0  0  0  0  0  0  0  0  0  0  0  0
  -12.5373   10.9138    0.7876 H   0  0  0  0  0  0  0  0  0  0  0  0
  -14.7071   11.0898   -0.2239 H   0  0  0  0  0  0  0  0  0  0  0  0
  -14.8510    8.2470    0.2330 H   0  0  0  0  0  0  0  0  0  0  0  0
  -12.4093   11.4981   -1.1375 H   0  0  0  0  0  0  0  0  0  0  0  0
  -11.9574   10.5892   -2.6195 H   0  0  0  0  0  0  0  0  0  0  0  0
  -13.4145   11.6397   -2.6195 H   0  0  0  0  0  0  0  0  0  0  0  0
  -15.7770    9.5346   -2.0253 H   0  0  0  0  0  0  0  0  0  0  0  0
  -14.8553   10.5370   -3.1967 H   0  0  0  0  0  0  0  0  0  0  0  0
  -14.6633    8.7510   -3.1967 H   0  0  0  0  0  0  0  0  0  0  0  0
  -11.4711    6.2436    1.6731 H   0  0  0  0  0  0  0  0  0  0  0  0
  -12.6697    6.0766    0.3457 H   0  0  0  0  0  0  0  0  0  0  0  0
  -11.1832    5.0681    0.3457 H   0  0  0  0  0  0  0  0  0  0  0  0
   -9.7938    8.2385    1.3485 H   0  0  0  0  0  0  0  0  0  0  0  0
   -9.1953    6.5219    0.9885 H   0  0  0  0  0  0  0  0  0  0  0  0
   -8.5733    9.0578   -0.5504 H   0  0  0  0  0  0  0  0  0  0  0  0
   -7.4523    8.0199    0.4158 H   0  0  0  0  0  0  0  0  0  0  0  0
   -7.6789    5.7170    0.1449 H   0  0  0  0  0  0  0  0  0  0  0  0
   -8.4121    4.9981   -1.3290 H   0  0  0  0  0  0  0  0  0  0  0  0
   -6.6806    5.4764   -1.3290 H   0  0  0  0  0  0  0  0  0  0  0  0
  1  2  1  0
  2  3  1  0
  3  4  1  0
  4  5  1  0
  5  6  1  0
  6  7  1  0
  7  8  1  0
  7  9  1  0
  2 10  1  0
 10 11  1  0
 11 12  1  0
 12 13  1  0
 13 14  1  6
 13 15  1  0
 15 16  1  0
 16 17  1  0
 17 18  2  0
 18 19  1  0
 19 20  1  0
 20 21  1  0
 21 22  1  0
 22 23  1  0
 22 24  1  0
 24 25  1  0
 24 26  1  0
 19 27  1  0
 27 28  1  1
 27 29  1  0
 29 30  1  0
 30 31  1  0
 31 32  1  1
  7  5  1  0
 31 10  1  0
 31 13  1  0
 27 15  1  0
 24 18  1  0
  1 33  1  0
  1 34  1  0
  1 35  1  0
  2 36  1  6
  3 37  1  0
  3 38  1  0
  4 39  1  0
  4 40  1  0
  5 41  1  6
  8 42  1  0
  8 43  1  0
  8 44  1  0
  9 45  1  0
  9 46  1  0
  9 47  1  0
 10 48  1  6
 11 49  1  0
 11 50  1  0
 12 51  1  0
 12 52  1  0
 14 53  1  0
 14 54  1  0
 14 55  1  0
 15 56  1  1
 16 57  1  0
 16 58  1  0
 17 59  1  0
 19 60  1  6
 20 61  1  0
 20 62  1  0
 21 63  1  0
 21 64  1  0
 22 65  1  6
 23 66  1  0
 25 67  1  0
 25 68  1  0
 25 69  1  0
 26 70  1  0
 26 71  1  0
 26 72  1  0
 28 73  1  0
 28 74  1  0
 28 75  1  0
 29 76  1  0
 29 77  1  0
 30 78  1  0
 30 79  1  0
 32 80  1  0
 32 81  1  0
 32 82  1  0
M  END
>  <meeko>  (8) 
{"is_sidechain": [false], "intermolecular_energy": 2.731, "internal_energy": -0.839}

$$$$
EPH_relaxed_0001_pdb2pqr_Repair_36_r2_0001_out
     RDKit          3D

 82 86  0  0  0  0  0  0  0  0999 V2000
   -0.9070   16.4090   -5.8920 C   0  0  0  0  0  0  0  0  0  0  0  0
    0.1880   15.7010   -6.6960 C   0  0  2  0  0  0  0  0  0  0  0  0
   -0.2150   15.4980   -8.1710 C   0  0  0  0  0  0  0  0  0  0  0  0
    0.4300   16.5030   -9.1290 C   0  0  0  0  0  0  0  0  0  0  0  0
    1.8350   16.1130   -9.4780 C   0  0  2  0  0  0  0  0  0  0  0  0
    2.3240   16.6720  -10.7040 O   0  0  0  0  0  0  0  0  0  0  0  0
    2.1910   15.2420  -10.6670 C   0  0  0  0  0  0  0  0  0  0  0  0
    1.1370   14.7050  -11.5840 C   0  0  0  0  0  0  0  0  0  0  0  0
    3.4990   14.5140  -10.6560 C   0  0  0  0  0  0  0  0  0  0  0  0
    0.5160   14.3580   -6.0560 C   0  0  1  0  0  0  0  0  0  0  0  0
    1.7360   13.6630   -6.7180 C   0  0  0  0  0  0  0  0  0  0  0  0
    2.4890   12.9120   -5.5890 C   0  0  0  0  0  0  0  0  0  0  0  0
    1.5100   12.9220   -4.3930 C   0  0  1  0  0  0  0  0  0  0  0  0
    0.5160   11.7530   -4.6790 C   0  0  0  0  0  0  0  0  0  0  0  0
    2.1520   12.7990   -2.9730 C   0  0  2  0  0  0  0  0  0  0  0  0
    2.9130   11.4870   -2.7120 C   0  0  0  0  0  0  0  0  0  0  0  0
    2.0960   10.3810   -2.1300 C   0  0  0  0  0  0  0  0  0  0  0  0
    0.8820   10.5190   -1.5650 C   0  0  0  0  0  0  0  0  0  0  0  0
    0.2520   11.9060   -1.3820 C   0  0  1  0  0  0  0  0  0  0  0  0
   -0.3200   12.0290    0.0550 C   0  0  0  0  0  0  0  0  0  0  0  0
   -1.2850   10.8990    0.4000 C   0  0  0  0  0  0  0  0  0  0  0  0
   -0.6050    9.5400    0.2620 C   0  0  2  0  0  0  0  0  0  0  0  0
    0.4120    9.4290    1.2630 O   0  0  0  0  0  0  0  0  0  0  0  0
    0.0180    9.3060   -1.1430 C   0  0  0  0  0  0  0  0  0  0  0  0
   -1.1100    9.1250   -2.1890 C   0  0  0  0  0  0  0  0  0  0  0  0
    0.7930    7.9610   -1.1040 C   0  0  0  0  0  0  0  0  0  0  0  0
    1.1670   13.1420   -1.7830 C   0  0  1  0  0  0  0  0  0  0  0  0
    2.0570   13.5600   -0.5730 C   0  0  0  0  0  0  0  0  0  0  0  0
    0.2470   14.3790   -2.1060 C   0  0  0  0  0  0  0  0  0  0  0  0
   -0.2580   14.5100   -3.5550 C   0  0  0  0  0  0  0  0  0  0  0  0
    0.8940   14.3590   -4.5530 C   0  0  2  0  0  0  0  0  0  0  0  0
    1.8990   15.5350   -4.3040 C   0  0  0  0  0  0  0  0  0  0  0  0
   -0.7120   16.2829   -4.8168 H   0  0  0  0  0  0  0  0  0  0  0  0
   -0.9100   17.4805   -6.1409 H   0  0  0  0  0  0  0  0  0  0  0  0
   -1.8853   15.9720   -6.1409 H   0  0  0  0  0  0  0  0  0  0  0  0
    1.0788   16.3462   -6.6828 H   0  0  0  0  0  0  0  0  0  0  0  0
    0.0851   14.4849   -8.4768 H   0  0  0  0  0  0  0  0  0  0  0  0
   -1.3029   15.6494   -8.2308 H   0  0  0  0  0  0  0  0  0  0  0  0
   -0.1668   16.5494  -10.0519 H   0  0  0  0  0  0  0  0  0  0  0  0
    0.4600   17.4825   -8.6294 H   0  0  0  0  0  0  0  0  0  0  0  0
    2.1082   16.0558   -8.4140 H   0  0  0  0  0  0  0  0  0  0  0  0
    0.3126   14.2850  -10.9890 H   0  0  0  0  0  0  0  0  0  0  0  0
    0.7541   15.5179  -12.2185 H   0  0  0  0  0  0  0  0  0  0  0  0
    1.5696   13.9174  -12.2185 H   0  0  0  0  0  0  0  0  0  0  0  0
    3.8127   14.3394   -9.6162 H   0  0  0  0  0  0  0  0  0  0  0  0
    3.3859   13.5491  -11.1718 H   0  0  0  0  0  0  0  0  0  0  0  0
    4.2595   15.1186  -11.1718 H   0  0  0  0  0  0  0  0  0  0  0  0
   -0.4460   13.8448   -6.2015 H   0  0  0  0  0  0  0  0  0  0  0  0
    1.3966   12.9517   -7.4854 H   0  0  0  0  0  0  0  0  0  0  0  0
    2.3910   14.3977   -7.2092 H   0  0  0  0  0  0  0  0  0  0  0  0
    2.7180   11.8804   -5.8946 H   0  0  0  0  0  0  0  0  0  0  0  0
    3.4516   13.3846   -5.3438 H   0  0  0  0  0  0  0  0  0  0  0  0
    0.1594   11.3336   -3.7266 H   0  0  0  0  0  0  0  0  0  0  0  0
   -0.3402   12.1326   -5.2560 H   0  0  0  0  0  0  0  0  0  0  0  0
    1.0283   10.9690   -5.2560 H   0  0  0  0  0  0  0  0  0  0  0  0
    2.9166   13.5896   -2.9918 H   0  0  0  0  0  0  0  0  0  0  0  0
    3.3257   11.1371   -3.6697 H   0  0  0  0  0  0  0  0  0  0  0  0
    3.6816   11.7249   -1.9619 H   0  0  0  0  0  0  0  0  0  0  0  0
    2.5223    9.3676   -2.1660 H   0  0  0  0  0  0  0  0  0  0  0  0
   -0.5652   11.9682   -2.1157 H   0  0  0  0  0  0  0  0  0  0  0  0
    0.5158   12.0094    0.7699 H   0  0  0  0  0  0  0  0  0  0  0  0
   -0.8795   12.9744    0.1115 H   0  0  0  0  0  0  0  0  0  0  0  0
   -1.6309   11.0249    1.4366 H   0  0  0  0  0  0  0  0  0  0  0  0
   -2.1353   10.9385   -0.2967 H   0  0  0  0  0  0  0  0  0  0  0  0
   -1.3789    8.7696    0.3945 H   0  0  0  0  0  0  0  0  0  0  0  0
    1.2420    9.1980    0.8150 H   0  0  0  0  0  0  0  0  0  0  0  0
   -2.0685    8.9712   -1.6717 H   0  0  0  0  0  0  0  0  0  0  0  0
   -1.1736   10.0244   -2.8191 H   0  0  0  0  0  0  0  0  0  0  0  0
   -0.8890    8.2508   -2.8191 H   0  0  0  0  0  0  0  0  0  0  0  0
    0.9630    7.6660   -0.0580 H   0  0  0  0  0  0  0  0  0  0  0  0
    0.2043    7.1837   -1.6132 H   0  0  0  0  0  0  0  0  0  0  0  0
    1.7607    8.0805   -1.6132 H   0  0  0  0  0  0  0  0  0  0  0  0
    1.5378   13.3161    0.3656 H   0  0  0  0  0  0  0  0  0  0  0  0
    3.0124   13.0164   -0.6155 H   0  0  0  0  0  0  0  0  0  0  0  0
    2.2487   14.6423   -0.6155 H   0  0  0  0  0  0  0  0  0  0  0  0
   -0.6344   14.3181   -1.4507 H   0  0  0  0  0  0  0  0  0  0  0  0
    0.8834   15.2612   -1.9424 H   0  0  0  0  0  0  0  0  0  0  0  0
   -1.0059   13.7267   -3.7476 H   0  0  0  0  0  0  0  0  0  0  0  0
   -0.7036   15.5076   -3.6822 H   0  0  0  0  0  0  0  0  0  0  0  0
    2.0271   15.6849   -3.2218 H   0  0  0  0  0  0  0  0  0  0  0  0
    2.8705   15.2894   -4.7577 H   0  0  0  0  0  0  0  0  0  0  0  0
    1.5049   16.4564   -4.7577 H   0  0  0  0  0  0  0  0  0  0  0  0
  1  2  1  0
  2  3  1  0
  3  4  1  0
  4  5  1  0
  5  6  1  0
  6  7  1  0
  7  8  1  0
  7  9  1  0
  2 10  1  0
 10 11  1  0
 11 12  1  0
 12 13  1  0
 13 14  1  6
 13 15  1  0
 15 16  1  0
 16 17  1  0
 17 18  2  0
 18 19  1  0
 19 20  1  0
 20 21  1  0
 21 22  1  0
 22 23  1  0
 22 24  1  0
 24 25  1  0
 24 26  1  0
 19 27  1  0
 27 28  1  1
 27 29  1  0
 29 30  1  0
 30 31  1  0
 31 32  1  6
  7  5  1  0
 31 10  1  0
 31 13  1  0
 27 15  1  0
 24 18  1  0
  1 33  1  0
  1 34  1  0
  1 35  1  0
  2 36  1  6
  3 37  1  0
  3 38  1  0
  4 39  1  0
  4 40  1  0
  5 41  1  1
  8 42  1  0
  8 43  1  0
  8 44  1  0
  9 45  1  0
  9 46  1  0
  9 47  1  0
 10 48  1  1
 11 49  1  0
 11 50  1  0
 12 51  1  0
 12 52  1  0
 14 53  1  0
 14 54  1  0
 14 55  1  0
 15 56  1  6
 16 57  1  0
 16 58  1  0
 17 59  1  0
 19 60  1  6
 20 61  1  0
 20 62  1  0
 21 63  1  0
 21 64  1  0
 22 65  1  1
 23 66  1  0
 25 67  1  0
 25 68  1  0
 25 69  1  0
 26 70  1  0
 26 71  1  0
 26 72  1  0
 28 73  1  0
 28 74  1  0
 28 75  1  0
 29 76  1  0
 29 77  1  0
 30 78  1  0
 30 79  1  0
 32 80  1  0
 32 81  1  0
 32 82  1  0
M  END
>  <meeko>  (9) 
{"is_sidechain": [false], "intermolecular_energy": 2.731, "internal_energy": -0.839}

$$$$
EPH_relaxed_0001_pdb2pqr_Repair_36_r2_0001_out
     RDKit          3D

 82 86  0  0  0  0  0  0  0  0999 V2000
   -0.2790   15.1100   -7.6980 C   0  0  0  0  0  0  0  0  0  0  0  0
    1.0880   15.1000   -7.0090 C   0  0  2  0  0  0  0  0  0  0  0  0
    2.2490   15.1950   -8.0200 C   0  0  0  0  0  0  0  0  0  0  0  0
    2.2660   16.5020   -8.8170 C   0  0  0  0  0  0  0  0  0  0  0  0
    1.8470   16.2900  -10.2400 C   0  0  2  0  0  0  0  0  0  0  0  0
    1.1740   15.0480  -10.4870 O   0  0  0  0  0  0  0  0  0  0  0  0
    2.4430   15.2220  -11.1370 C   0  0  0  0  0  0  0  0  0  0  0  0
    3.5110   14.2960  -10.6450 C   0  0  0  0  0  0  0  0  0  0  0  0
    2.3420   15.3950  -12.6210 C   0  0  0  0  0  0  0  0  0  0  0  0
    1.2350   13.8410   -6.1640 C   0  0  1  0  0  0  0  0  0  0  0  0
    2.6670   13.2450   -6.2240 C   0  0  0  0  0  0  0  0  0  0  0  0
    2.9630   12.6490   -4.8230 C   0  0  0  0  0  0  0  0  0  0  0  0
    1.5890   12.6220   -4.1130 C   0  0  1  0  0  0  0  0  0  0  0  0
    0.8840   11.3370   -4.6490 C   0  0  0  0  0  0  0  0  0  0  0  0
    1.6190   12.6540   -2.5500 C   0  0  2  0  0  0  0  0  0  0  0  0
    2.3100   11.4510   -1.8860 C   0  0  0  0  0  0  0  0  0  0  0  0
    1.4150   10.2990   -1.5650 C   0  0  0  0  0  0  0  0  0  0  0  0
    0.0700   10.3380   -1.5370 C   0  0  0  0  0  0  0  0  0  0  0  0
   -0.6850   11.6560   -1.7520 C   0  0  1  0  0  0  0  0  0  0  0  0
   -1.7900   11.8010   -0.6720 C   0  0  0  0  0  0  0  0  0  0  0  0
   -2.7230   10.5950   -0.6250 C   0  0  0  0  0  0  0  0  0  0  0  0
   -1.9430    9.3120   -0.3520 C   0  0  2  0  0  0  0  0  0  0  0  0
   -1.4050    9.3720    0.9730 O   0  0  0  0  0  0  0  0  0  0  0  0
   -0.7950    9.0640   -1.3710 C   0  0  0  0  0  0  0  0  0  0  0  0
   -1.3950    8.7000   -2.7520 C   0  0  0  0  0  0  0  0  0  0  0  0
   -0.0000    7.8160   -0.9000 C   0  0  0  0  0  0  0  0  0  0  0  0
    0.2170   12.9580   -1.8810 C   0  0  1  0  0  0  0  0  0  0  0  0
    0.5160   13.5410   -0.4660 C   0  0  0  0  0  0  0  0  0  0  0  0
   -0.5890   14.0660   -2.6560 C   0  0  0  0  0  0  0  0  0  0  0  0
   -0.4820   14.0550   -4.1930 C   0  0  0  0  0  0  0  0  0  0  0  0
    0.9800   13.9720   -4.6410 C   0  0  2  0  0  0  0  0  0  0  0  0
    1.7100   15.2630   -4.1340 C   0  0  0  0  0  0  0  0  0  0  0  0
   -1.0732   15.1158   -6.9369 H   0  0  0  0  0  0  0  0  0  0  0  0
   -0.3665   16.0088   -8.3261 H   0  0  0  0  0  0  0  0  0  0  0  0
   -0.3796   14.2126   -8.3261 H   0  0  0  0  0  0  0  0  0  0  0  0
    1.1393   15.9890   -6.3632 H   0  0  0  0  0  0  0  0  0  0  0  0
    3.1972   15.1122   -7.4686 H   0  0  0  0  0  0  0  0  0  0  0  0
    2.1119   14.3787   -8.7444 H   0  0  0  0  0  0  0  0  0  0  0  0
    1.5754   17.2162   -8.3449 H   0  0  0  0  0  0  0  0  0  0  0  0
    3.2954   16.8897   -8.8172 H   0  0  0  0  0  0  0  0  0  0  0  0
    1.6933   17.3701  -10.3806 H   0  0  0  0  0  0  0  0  0  0  0  0
    3.5151   14.2925   -9.5450 H   0  0  0  0  0  0  0  0  0  0  0  0
    3.3131   13.2789  -11.0142 H   0  0  0  0  0  0  0  0  0  0  0  0
    4.4898   14.6361  -11.0142 H   0  0  0  0  0  0  0  0  0  0  0  0
    1.7991   16.3249  -12.8456 H   0  0  0  0  0  0  0  0  0  0  0  0
    3.3520   15.4464  -13.0537 H   0  0  0  0  0  0  0  0  0  0  0  0
    1.8007   14.5407  -13.0537 H   0  0  0  0  0  0  0  0  0  0  0  0
    0.4535   13.2184   -6.6240 H   0  0  0  0  0  0  0  0  0  0  0  0
    2.7173   12.4565   -6.9894 H   0  0  0  0  0  0  0  0  0  0  0  0
    3.4050   14.0165   -6.4888 H   0  0  0  0  0  0  0  0  0  0  0  0
    3.3742   11.6326   -4.9122 H   0  0  0  0  0  0  0  0  0  0  0  0
    3.7082   13.2377   -4.2679 H   0  0  0  0  0  0  0  0  0  0  0  0
    0.5470   10.7228   -3.8009 H   0  0  0  0  0  0  0  0  0  0  0  0
    0.0166   11.6232   -5.2619 H   0  0  0  0  0  0  0  0  0  0  0  0
    1.5914   10.7592   -5.2619 H   0  0  0  0  0  0  0  0  0  0  0  0
    2.2652   13.5200   -2.3440 H   0  0  0  0  0  0  0  0  0  0  0  0
    3.0956   11.0917   -2.5670 H   0  0  0  0  0  0  0  0  0  0  0  0
    2.6954   11.8150   -0.9222 H   0  0  0  0  0  0  0  0  0  0  0  0
    1.8958    9.3375   -1.3318 H   0  0  0  0  0  0  0  0  0  0  0  0
   -1.1443   11.5852   -2.7490 H   0  0  0  0  0  0  0  0  0  0  0  0
   -1.3097   11.9139    0.3111 H   0  0  0  0  0  0  0  0  0  0  0  0
   -2.3957   12.6822   -0.9299 H   0  0  0  0  0  0  0  0  0  0  0  0
   -3.4631   10.7435    0.1751 H   0  0  0  0  0  0  0  0  0  0  0  0
   -3.2239   10.5006   -1.5998 H   0  0  0  0  0  0  0  0  0  0  0  0
   -2.6442    8.4712   -0.4584 H   0  0  0  0  0  0  0  0  0  0  0  0
   -0.5170    9.7630    0.9120 H   0  0  0  0  0  0  0  0  0  0  0  0
   -2.3275    8.1343   -2.6090 H   0  0  0  0  0  0  0  0  0  0  0  0
   -1.6076    9.6215   -3.3138 H   0  0  0  0  0  0  0  0  0  0  0  0
   -0.6759    8.0857   -3.3138 H   0  0  0  0  0  0  0  0  0  0  0  0
    0.0187    7.7866    0.1994 H   0  0  0  0  0  0  0  0  0  0  0  0
   -0.4853    6.9061   -1.2829 H   0  0  0  0  0  0  0  0  0  0  0  0
    1.0297    7.8712   -1.2829 H   0  0  0  0  0  0  0  0  0  0  0  0
    0.1568   12.8407    0.3025 H   0  0  0  0  0  0  0  0  0  0  0  0
    1.6002   13.6869   -0.3512 H   0  0  0  0  0  0  0  0  0  0  0  0
    0.0019   14.5067   -0.3512 H   0  0  0  0  0  0  0  0  0  0  0  0
   -1.6512   13.9485   -2.3954 H   0  0  0  0  0  0  0  0  0  0  0  0
   -0.1407   15.0204   -2.3429 H   0  0  0  0  0  0  0  0  0  0  0  0
   -1.0284   13.1846   -4.5854 H   0  0  0  0  0  0  0  0  0  0  0  0
   -0.9149   14.9889   -4.5810 H   0  0  0  0  0  0  0  0  0  0  0  0
    1.7157   15.2730   -3.0341 H   0  0  0  0  0  0  0  0  0  0  0  0
    2.7452   15.2689   -4.5061 H   0  0  0  0  0  0  0  0  0  0  0  0
    1.1815   16.1531   -4.5061 H   0  0  0  0  0  0  0  0  0  0  0  0
  1  2  1  0
  2  3  1  0
  3  4  1  0
  4  5  1  0
  5  6  1  0
  6  7  1  0
  7  8  1  0
  7  9  1  0
  2 10  1  0
 10 11  1  0
 11 12  1  0
 12 13  1  0
 13 14  1  1
 13 15  1  0
 15 16  1  0
 16 17  1  0
 17 18  2  0
 18 19  1  0
 19 20  1  0
 20 21  1  0
 21 22  1  0
 22 23  1  0
 22 24  1  0
 24 25  1  0
 24 26  1  0
 19 27  1  0
 27 28  1  1
 27 29  1  0
 29 30  1  0
 30 31  1  0
 31 32  1  1
  7  5  1  0
 31 10  1  0
 31 13  1  0
 27 15  1  0
 24 18  1  0
  1 33  1  0
  1 34  1  0
  1 35  1  0
  2 36  1  1
  3 37  1  0
  3 38  1  0
  4 39  1  0
  4 40  1  0
  5 41  1  6
  8 42  1  0
  8 43  1  0
  8 44  1  0
  9 45  1  0
  9 46  1  0
  9 47  1  0
 10 48  1  6
 11 49  1  0
 11 50  1  0
 12 51  1  0
 12 52  1  0
 14 53  1  0
 14 54  1  0
 14 55  1  0
 15 56  1  6
 16 57  1  0
 16 58  1  0
 17 59  1  0
 19 60  1  6
 20 61  1  0
 20 62  1  0
 21 63  1  0
 21 64  1  0
 22 65  1  1
 23 66  1  0
 25 67  1  0
 25 68  1  0
 25 69  1  0
 26 70  1  0
 26 71  1  0
 26 72  1  0
 28 73  1  0
 28 74  1  0
 28 75  1  0
 29 76  1  0
 29 77  1  0
 30 78  1  0
 30 79  1  0
 32 80  1  0
 32 81  1  0
 32 82  1  0
M  END
>  <meeko>  (10) 
{"is_sidechain": [false], "intermolecular_energy": 2.731, "internal_energy": -0.839}

$$$$
EPH_relaxed_0001_pdb2pqr_Repair_36_r2_0001_out
     RDKit          3D

 82 86  0  0  0  0  0  0  0  0999 V2000
    2.3910   19.3790   -1.5070 C   0  0  0  0  0  0  0  0  0  0  0  0
    1.9880   18.2900   -2.5060 C   0  0  2  0  0  0  0  0  0  0  0  0
    0.4860   18.3430   -2.8480 C   0  0  0  0  0  0  0  0  0  0  0  0
   -0.2420   19.5440   -2.2380 C   0  0  0  0  0  0  0  0  0  0  0  0
   -1.3830   19.1170   -1.3660 C   0  0  2  0  0  0  0  0  0  0  0  0
   -2.1840   20.1920   -0.8570 O   0  0  0  0  0  0  0  0  0  0  0  0
   -1.4620   19.4230    0.1180 C   0  0  0  0  0  0  0  0  0  0  0  0
   -0.3800   20.1860    0.8160 C   0  0  0  0  0  0  0  0  0  0  0  0
   -2.3380   18.5670    0.9800 C   0  0  0  0  0  0  0  0  0  0  0  0
    2.3490   16.9170   -1.9520 C   0  0  1  0  0  0  0  0  0  0  0  0
    3.1210   16.9990   -0.6080 C   0  0  0  0  0  0  0  0  0  0  0  0
    2.6700   15.7840    0.2420 C   0  0  0  0  0  0  0  0  0  0  0  0
    1.9170   14.8700   -0.7530 C   0  0  1  0  0  0  0  0  0  0  0  0
    3.0370   14.0870   -1.5060 C   0  0  0  0  0  0  0  0  0  0  0  0
    0.8530   13.9040   -0.1350 C   0  0  2  0  0  0  0  0  0  0  0  0
    1.4130   12.8610    0.8470 C   0  0  0  0  0  0  0  0  0  0  0  0
    1.8240   11.5630    0.2340 C   0  0  0  0  0  0  0  0  0  0  0  0
    1.4880   11.1390   -0.9990 C   0  0  0  0  0  0  0  0  0  0  0  0
    0.5320   11.9550   -1.8790 C   0  0  1  0  0  0  0  0  0  0  0  0
   -0.5320   11.0130   -2.4990 C   0  0  0  0  0  0  0  0  0  0  0  0
    0.0920    9.8390   -3.2480 C   0  0  0  0  0  0  0  0  0  0  0  0
    0.9890    9.0180   -2.3250 C   0  0  2  0  0  0  0  0  0  0  0  0
    0.1750    8.3870   -1.3320 O   0  0  0  0  0  0  0  0  0  0  0  0
    2.0950    9.8640   -1.6340 C   0  0  0  0  0  0  0  0  0  0  0  0
    3.1490   10.2980   -2.6820 C   0  0  0  0  0  0  0  0  0  0  0  0
    2.8370    8.9470   -0.6260 C   0  0  0  0  0  0  0  0  0  0  0  0
   -0.1120   13.2390   -1.1980 C   0  0  1  0  0  0  0  0  0  0  0  0
   -1.4100   12.8390   -0.4310 C   0  0  0  0  0  0  0  0  0  0  0  0
   -0.5540   14.2500   -2.3210 C   0  0  0  0  0  0  0  0  0  0  0  0
    0.5060   15.2570   -2.8050 C   0  0  0  0  0  0  0  0  0  0  0  0
    1.1800   15.9550   -1.6200 C   0  0  2  0  0  0  0  0  0  0  0  0
    0.0810   16.7690   -0.8560 C   0  0  0  0  0  0  0  0  0  0  0  0
    2.2527   19.0053   -0.4817 H   0  0  0  0  0  0  0  0  0  0  0  0
    3.4472   19.6451   -1.6610 H   0  0  0  0  0  0  0  0  0  0  0  0
    1.7625   20.2686   -1.6610 H   0  0  0  0  0  0  0  0  0  0  0  0
    2.5445   18.4725   -3.4371 H   0  0  0  0  0  0  0  0  0  0  0  0
    0.3804   18.3918   -3.9418 H   0  0  0  0  0  0  0  0  0  0  0  0
    0.0271   17.4386   -2.4220 H   0  0  0  0  0  0  0  0  0  0  0  0
    0.4712   20.1234   -1.6333 H   0  0  0  0  0  0  0  0  0  0  0  0
   -0.6479   20.1521   -3.0599 H   0  0  0  0  0  0  0  0  0  0  0  0
   -1.4972   18.1819   -1.9340 H   0  0  0  0  0  0  0  0  0  0  0  0
   -0.5102   20.0942    1.9044 H   0  0  0  0  0  0  0  0  0  0  0  0
    0.6003   19.7783    0.5283 H   0  0  0  0  0  0  0  0  0  0  0  0
   -0.4349   21.2463    0.5283 H   0  0  0  0  0  0  0  0  0  0  0  0
   -2.1255   18.7746    2.0391 H   0  0  0  0  0  0  0  0  0  0  0  0
   -3.3936   18.7912    0.7670 H   0  0  0  0  0  0  0  0  0  0  0  0
   -2.1382   17.5065    0.7670 H   0  0  0  0  0  0  0  0  0  0  0  0
    2.9319   16.5238   -2.7979 H   0  0  0  0  0  0  0  0  0  0  0  0
    4.2048   16.9523   -0.7903 H   0  0  0  0  0  0  0  0  0  0  0  0
    2.9092   17.9450   -0.0881 H   0  0  0  0  0  0  0  0  0  0  0  0
    3.5405   15.2622    0.6662 H   0  0  0  0  0  0  0  0  0  0  0  0
    2.0407   16.0813    1.0938 H   0  0  0  0  0  0  0  0  0  0  0  0
    3.7104   13.6162   -0.7746 H   0  0  0  0  0  0  0  0  0  0  0  0
    2.5805   13.3103   -2.1371 H   0  0  0  0  0  0  0  0  0  0  0  0
    3.6097   14.7825   -2.1371 H   0  0  0  0  0  0  0  0  0  0  0  0
    0.2380   14.5849    0.4717 H   0  0  0  0  0  0  0  0  0  0  0  0
    2.2937   13.2976    1.3406 H   0  0  0  0  0  0  0  0  0  0  0  0
    0.5919   12.6237    1.5394 H   0  0  0  0  0  0  0  0  0  0  0  0
    2.4546   10.8968    0.8411 H   0  0  0  0  0  0  0  0  0  0  0  0
    1.1513   12.3937   -2.6752 H   0  0  0  0  0  0  0  0  0  0  0  0
   -1.1673   10.6190   -1.6921 H   0  0  0  0  0  0  0  0  0  0  0  0
   -1.1158   11.5994   -3.2238 H   0  0  0  0  0  0  0  0  0  0  0  0
   -0.7092    9.1942   -3.6384 H   0  0  0  0  0  0  0  0  0  0  0  0
    0.7040   10.2338   -4.0724 H   0  0  0  0  0  0  0  0  0  0  0  0
    1.5067    8.2723   -2.9462 H   0  0  0  0  0  0  0  0  0  0  0  0
   -0.7410    8.3870   -1.6580 H   0  0  0  0  0  0  0  0  0  0  0  0
    4.0476   10.6680   -2.1667 H   0  0  0  0  0  0  0  0  0  0  0  0
    3.4160    9.4366   -3.3119 H   0  0  0  0  0  0  0  0  0  0  0  0
    2.7321   11.0976   -3.3119 H   0  0  0  0  0  0  0  0  0  0  0  0
    2.5885    9.2541    0.4006 H   0  0  0  0  0  0  0  0  0  0  0  0
    2.5260    7.9035   -0.7820 H   0  0  0  0  0  0  0  0  0  0  0  0
    3.9224    9.0334   -0.7820 H   0  0  0  0  0  0  0  0  0  0  0  0
   -1.2278   12.8952    0.6523 H   0  0  0  0  0  0  0  0  0  0  0  0
   -2.2233   13.5282   -0.7022 H   0  0  0  0  0  0  0  0  0  0  0  0
   -1.6943   11.8116   -0.7022 H   0  0  0  0  0  0  0  0  0  0  0  0
   -0.8750   13.6602   -3.1922 H   0  0  0  0  0  0  0  0  0  0  0  0
   -1.3444   14.8622   -1.8623 H   0  0  0  0  0  0  0  0  0  0  0  0
    1.2694   14.7228   -3.3897 H   0  0  0  0  0  0  0  0  0  0  0  0
    0.0096   16.0184   -3.4246 H   0  0  0  0  0  0  0  0  0  0  0  0
    0.2302   16.6585    0.2282 H   0  0  0  0  0  0  0  0  0  0  0  0
    0.1551   17.8318   -1.1299 H   0  0  0  0  0  0  0  0  0  0  0  0
   -0.9140   16.3883   -1.1299 H   0  0  0  0  0  0  0  0  0  0  0  0
  1  2  1  0
  2  3  1  0
  3  4  1  0
  4  5  1  0
  5  6  1  0
  6  7  1  0
  7  8  1  0
  7  9  1  0
  2 10  1  0
 10 11  1  0
 11 12  1  0
 12 13  1  0
 13 14  1  6
 13 15  1  0
 15 16  1  0
 16 17  1  0
 17 18  2  0
 18 19  1  0
 19 20  1  0
 20 21  1  0
 21 22  1  0
 22 23  1  0
 22 24  1  0
 24 25  1  0
 24 26  1  0
 19 27  1  0
 27 28  1  1
 27 29  1  0
 29 30  1  0
 30 31  1  0
 31 32  1  1
  7  5  1  0
 31 10  1  0
 31 13  1  0
 27 15  1  0
 24 18  1  0
  1 33  1  0
  1 34  1  0
  1 35  1  0
  2 36  1  6
  3 37  1  0
  3 38  1  0
  4 39  1  0
  4 40  1  0
  5 41  1  1
  8 42  1  0
  8 43  1  0
  8 44  1  0
  9 45  1  0
  9 46  1  0
  9 47  1  0
 10 48  1  6
 11 49  1  0
 11 50  1  0
 12 51  1  0
 12 52  1  0
 14 53  1  0
 14 54  1  0
 14 55  1  0
 15 56  1  1
 16 57  1  0
 16 58  1  0
 17 59  1  0
 19 60  1  6
 20 61  1  0
 20 62  1  0
 21 63  1  0
 21 64  1  0
 22 65  1  6
 23 66  1  0
 25 67  1  0
 25 68  1  0
 25 69  1  0
 26 70  1  0
 26 71  1  0
 26 72  1  0
 28 73  1  0
 28 74  1  0
 28 75  1  0
 29 76  1  0
 29 77  1  0
 30 78  1  0
 30 79  1  0
 32 80  1  0
 32 81  1  0
 32 82  1  0
M  END
>  <meeko>  (11) 
{"is_sidechain": [false], "intermolecular_energy": 2.731, "internal_energy": -0.839}

$$$$
EPH_relaxed_0001_pdb2pqr_Repair_36_r2_0001_out
     RDKit          3D

 82 86  0  0  0  0  0  0  0  0999 V2000
   -2.2920    7.8500   -2.1870 C   0  0  0  0  0  0  0  0  0  0  0  0
   -2.2270    8.4480   -0.7790 C   0  0  2  0  0  0  0  0  0  0  0  0
   -3.5990    8.4290   -0.0760 C   0  0  0  0  0  0  0  0  0  0  0  0
   -4.7830    8.5950   -1.0320 C   0  0  0  0  0  0  0  0  0  0  0  0
   -5.5180    7.3050   -1.2340 C   0  0  2  0  0  0  0  0  0  0  0  0
   -5.6540    6.9010   -2.6030 O   0  0  0  0  0  0  0  0  0  0  0  0
   -6.8740    7.2110   -1.9090 C   0  0  0  0  0  0  0  0  0  0  0  0
   -7.5750    8.4290   -2.4250 C   0  0  0  0  0  0  0  0  0  0  0  0
   -7.7300    6.0150   -1.6320 C   0  0  0  0  0  0  0  0  0  0  0  0
   -1.6960    9.8750   -0.8460 C   0  0  1  0  0  0  0  0  0  0  0  0
   -1.2590   10.4150    0.5420 C   0  0  0  0  0  0  0  0  0  0  0  0
   -0.0340   11.3340    0.2990 C   0  0  0  0  0  0  0  0  0  0  0  0
   -0.0110   11.5580   -1.2310 C   0  0  1  0  0  0  0  0  0  0  0  0
   -1.0640   12.6810   -1.4880 C   0  0  0  0  0  0  0  0  0  0  0  0
    1.3760   11.9130   -1.8570 C   0  0  2  0  0  0  0  0  0  0  0  0
    1.9960   13.2320   -1.3640 C   0  0  0  0  0  0  0  0  0  0  0  0
    1.6400   14.4420   -2.1640 C   0  0  0  0  0  0  0  0  0  0  0  0
    1.0920   14.4330   -3.3930 C   0  0  0  0  0  0  0  0  0  0  0  0
    0.8630   13.1150   -4.1450 C   0  0  1  0  0  0  0  0  0  0  0  0
    1.3610   13.2590   -5.6070 C   0  0  0  0  0  0  0  0  0  0  0  0
    0.7390   14.4540   -6.3220 C   0  0  0  0  0  0  0  0  0  0  0  0
    1.0370   15.7520   -5.5760 C   0  0  2  0  0  0  0  0  0  0  0  0
    2.4420   16.0130   -5.6490 O   0  0  0  0  0  0  0  0  0  0  0  0
    0.5870   15.7210   -4.0890 C   0  0  0  0  0  0  0  0  0  0  0  0
   -0.9590   15.7420   -4.0120 C   0  0  0  0  0  0  0  0  0  0  0  0
    1.0730   17.0340   -3.4160 C   0  0  0  0  0  0  0  0  0  0  0  0
    1.4220   11.8070   -3.4350 C   0  0  1  0  0  0  0  0  0  0  0  0
    2.9160   11.5880   -3.8240 C   0  0  0  0  0  0  0  0  0  0  0  0
    0.6340   10.5540   -3.9740 C   0  0  0  0  0  0  0  0  0  0  0  0
   -0.6670   10.1830   -3.2380 C   0  0  0  0  0  0  0  0  0  0  0  0
   -0.4450   10.1290   -1.7240 C   0  0  2  0  0  0  0  0  0  0  0  0
    0.5930    8.9920   -1.4330 C   0  0  0  0  0  0  0  0  0  0  0  0
   -2.4106    6.7587   -2.1167 H   0  0  0  0  0  0  0  0  0  0  0  0
   -3.1489    8.2779   -2.7279 H   0  0  0  0  0  0  0  0  0  0  0  0
   -1.3632    8.0838   -2.7279 H   0  0  0  0  0  0  0  0  0  0  0  0
   -1.5435    7.8236   -0.1849 H   0  0  0  0  0  0  0  0  0  0  0  0
   -3.7076    7.4677    0.4475 H   0  0  0  0  0  0  0  0  0  0  0  0
   -3.6192    9.2867    0.6124 H   0  0  0  0  0  0  0  0  0  0  0  0
   -5.4771    9.3389   -0.6139 H   0  0  0  0  0  0  0  0  0  0  0  0
   -4.3930    8.9234   -2.0067 H   0  0  0  0  0  0  0  0  0  0  0  0
   -5.1415    6.9138   -0.2774 H   0  0  0  0  0  0  0  0  0  0  0  0
   -7.9250    9.0371   -1.5778 H   0  0  0  0  0  0  0  0  0  0  0  0
   -6.8791    9.0204   -3.0382 H   0  0  0  0  0  0  0  0  0  0  0  0
   -8.4360    8.1244   -3.0382 H   0  0  0  0  0  0  0  0  0  0  0  0
   -7.8280    5.8781   -0.5450 H   0  0  0  0  0  0  0  0  0  0  0  0
   -8.7259    6.1667   -2.0737 H   0  0  0  0  0  0  0  0  0  0  0  0
   -7.2652    5.1212   -2.0737 H   0  0  0  0  0  0  0  0  0  0  0  0
   -2.5711   10.3765   -1.2850 H   0  0  0  0  0  0  0  0  0  0  0  0
   -2.0780   10.9888    1.0002 H   0  0  0  0  0  0  0  0  0  0  0  0
   -1.0050    9.5905    1.2245 H   0  0  0  0  0  0  0  0  0  0  0  0
   -0.1546   12.2900    0.8296 H   0  0  0  0  0  0  0  0  0  0  0  0
    0.9012   10.8887    0.6693 H   0  0  0  0  0  0  0  0  0  0  0  0
   -1.4282   13.0694   -0.5254 H   0  0  0  0  0  0  0  0  0  0  0  0
   -0.5978   13.4969   -2.0598 H   0  0  0  0  0  0  0  0  0  0  0  0
   -1.9082   12.2682   -2.0598 H   0  0  0  0  0  0  0  0  0  0  0  0
    2.0224   11.1140   -1.4650 H   0  0  0  0  0  0  0  0  0  0  0  0
    1.6626   13.3985   -0.3291 H   0  0  0  0  0  0  0  0  0  0  0  0
    3.0850   13.1119   -1.4618 H   0  0  0  0  0  0  0  0  0  0  0  0
    1.8429   15.4233   -1.7103 H   0  0  0  0  0  0  0  0  0  0  0  0
   -0.2237   12.9445   -4.1372 H   0  0  0  0  0  0  0  0  0  0  0  0
    2.4538   13.3841   -5.5965 H   0  0  0  0  0  0  0  0  0  0  0  0
    1.0625   12.3514   -6.1522 H   0  0  0  0  0  0  0  0  0  0  0  0
    1.1528   14.5202   -7.3391 H   0  0  0  0  0  0  0  0  0  0  0  0
   -0.3513   14.3126   -6.3586 H   0  0  0  0  0  0  0  0  0  0  0  0
    0.4588   16.5521   -6.0613 H   0  0  0  0  0  0  0  0  0  0  0  0
    2.6190   16.8170   -5.1320 H   0  0  0  0  0  0  0  0  0  0  0  0
   -1.2736   15.7463   -2.9580 H   0  0  0  0  0  0  0  0  0  0  0  0
   -1.3388   16.6454   -4.5117 H   0  0  0  0  0  0  0  0  0  0  0  0
   -1.3632   14.8493   -4.5117 H   0  0  0  0  0  0  0  0  0  0  0  0
    1.0317   16.9225   -2.3224 H   0  0  0  0  0  0  0  0  0  0  0  0
    2.1080   17.2428   -3.7245 H   0  0  0  0  0  0  0  0  0  0  0  0
    0.4234   17.8664   -3.7245 H   0  0  0  0  0  0  0  0  0  0  0  0
    3.5233   11.4990   -2.9112 H   0  0  0  0  0  0  0  0  0  0  0  0
    3.0091   10.6666   -4.4176 H   0  0  0  0  0  0  0  0  0  0  0  0
    3.2696   12.4439   -4.4176 H   0  0  0  0  0  0  0  0  0  0  0  0
    0.3774   10.7493   -5.0257 H   0  0  0  0  0  0  0  0  0  0  0  0
    1.3084    9.6996   -3.8153 H   0  0  0  0  0  0  0  0  0  0  0  0
   -1.4349   10.9380   -3.4622 H   0  0  0  0  0  0  0  0  0  0  0  0
   -0.9919    9.1893   -3.5801 H   0  0  0  0  0  0  0  0  0  0  0  0
    0.7060    8.8682   -0.3459 H   0  0  0  0  0  0  0  0  0  0  0  0
    0.2375    8.0492   -1.8744 H   0  0  0  0  0  0  0  0  0  0  0  0
    1.5642    9.2603   -1.8744 H   0  0  0  0  0  0  0  0  0  0  0  0
  1  2  1  0
  2  3  1  0
  3  4  1  0
  4  5  1  0
  5  6  1  0
  6  7  1  0
  7  8  1  0
  7  9  1  0
  2 10  1  0
 10 11  1  0
 11 12  1  0
 12 13  1  0
 13 14  1  1
 13 15  1  0
 15 16  1  0
 16 17  1  0
 17 18  2  0
 18 19  1  0
 19 20  1  0
 20 21  1  0
 21 22  1  0
 22 23  1  0
 22 24  1  0
 24 25  1  0
 24 26  1  0
 19 27  1  0
 27 28  1  1
 27 29  1  0
 29 30  1  0
 30 31  1  0
 31 32  1  6
  7  5  1  0
 31 10  1  0
 31 13  1  0
 27 15  1  0
 24 18  1  0
  1 33  1  0
  1 34  1  0
  1 35  1  0
  2 36  1  1
  3 37  1  0
  3 38  1  0
  4 39  1  0
  4 40  1  0
  5 41  1  1
  8 42  1  0
  8 43  1  0
  8 44  1  0
  9 45  1  0
  9 46  1  0
  9 47  1  0
 10 48  1  6
 11 49  1  0
 11 50  1  0
 12 51  1  0
 12 52  1  0
 14 53  1  0
 14 54  1  0
 14 55  1  0
 15 56  1  1
 16 57  1  0
 16 58  1  0
 17 59  1  0
 19 60  1  6
 20 61  1  0
 20 62  1  0
 21 63  1  0
 21 64  1  0
 22 65  1  6
 23 66  1  0
 25 67  1  0
 25 68  1  0
 25 69  1  0
 26 70  1  0
 26 71  1  0
 26 72  1  0
 28 73  1  0
 28 74  1  0
 28 75  1  0
 29 76  1  0
 29 77  1  0
 30 78  1  0
 30 79  1  0
 32 80  1  0
 32 81  1  0
 32 82  1  0
M  END
>  <meeko>  (12) 
{"is_sidechain": [false], "intermolecular_energy": 2.731, "internal_energy": -0.839}

$$$$
EPH_relaxed_0001_pdb2pqr_Repair_36_r2_0001_out
     RDKit          3D

 82 86  0  0  0  0  0  0  0  0999 V2000
   -3.7660    7.1200   -3.4400 C   0  0  0  0  0  0  0  0  0  0  0  0
   -3.8440    7.2400   -1.9150 C   0  0  2  0  0  0  0  0  0  0  0  0
   -5.2820    7.0550   -1.3900 C   0  0  0  0  0  0  0  0  0  0  0  0
   -6.3610    7.4760   -2.3910 C   0  0  0  0  0  0  0  0  0  0  0  0
   -7.6980    7.6300   -1.7310 C   0  0  2  0  0  0  0  0  0  0  0  0
   -8.2160    6.4320   -1.1400 O   0  0  0  0  0  0  0  0  0  0  0  0
   -8.9650    6.9690   -2.2420 C   0  0  0  0  0  0  0  0  0  0  0  0
   -8.9550    6.1040   -3.4630 C   0  0  0  0  0  0  0  0  0  0  0  0
  -10.2860    7.5520   -1.8470 C   0  0  0  0  0  0  0  0  0  0  0  0
   -3.2980    8.5920   -1.4720 C   0  0  1  0  0  0  0  0  0  0  0  0
   -3.9270    9.0830   -0.1410 C   0  0  0  0  0  0  0  0  0  0  0  0
   -2.8150    9.8470    0.6240 C   0  0  0  0  0  0  0  0  0  0  0  0
   -1.6950   10.0570   -0.4220 C   0  0  1  0  0  0  0  0  0  0  0  0
   -2.1500   11.2970   -1.2520 C   0  0  0  0  0  0  0  0  0  0  0  0
   -0.2480   10.2380    0.1420 C   0  0  2  0  0  0  0  0  0  0  0  0
   -0.0460   11.4760    1.0330 C   0  0  0  0  0  0  0  0  0  0  0  0
    0.3800   12.7150    0.3170 C   0  0  0  0  0  0  0  0  0  0  0  0
    0.8650   12.7650   -0.9370 C   0  0  0  0  0  0  0  0  0  0  0  0
    1.1200   11.4800   -1.7360 C   0  0  1  0  0  0  0  0  0  0  0  0
    2.5170   11.5550   -2.4050 C   0  0  0  0  0  0  0  0  0  0  0  0
    2.6950   12.8120   -3.2510 C   0  0  0  0  0  0  0  0  0  0  0  0
    2.4910   14.0690   -2.4090 C   0  0  2  0  0  0  0  0  0  0  0  0
    3.5500   14.1580   -1.4510 O   0  0  0  0  0  0  0  0  0  0  0  0
    1.1200   14.1010   -1.6780 C   0  0  0  0  0  0  0  0  0  0  0  0
   -0.0160   14.3090   -2.7110 C   0  0  0  0  0  0  0  0  0  0  0  0
    1.1000   15.3500   -0.7550 C   0  0  0  0  0  0  0  0  0  0  0  0
    0.8920   10.1190   -0.9490 C   0  0  1  0  0  0  0  0  0  0  0  0
    2.1940    9.7190   -0.1890 C   0  0  0  0  0  0  0  0  0  0  0  0
    0.6100    8.9670   -1.9850 C   0  0  0  0  0  0  0  0  0  0  0  0
   -0.8550    8.7600   -2.4120 C   0  0  0  0  0  0  0  0  0  0  0  0
   -1.7770    8.6880   -1.1910 C   0  0  2  0  0  0  0  0  0  0  0  0
   -1.3580    7.4360   -0.3470 C   0  0  0  0  0  0  0  0  0  0  0  0
   -3.1846    6.2255   -3.7082 H   0  0  0  0  0  0  0  0  0  0  0  0
   -4.7817    7.0347   -3.8535 H   0  0  0  0  0  0  0  0  0  0  0  0
   -3.2756    8.0136   -3.8535 H   0  0  0  0  0  0  0  0  0  0  0  0
   -3.2308    6.4328   -1.4880 H   0  0  0  0  0  0  0  0  0  0  0  0
   -5.4291    5.9923   -1.1472 H   0  0  0  0  0  0  0  0  0  0  0  0
   -5.3890    7.7052   -0.5092 H   0  0  0  0  0  0  0  0  0  0  0  0
   -6.0733    8.4369   -2.8425 H   0  0  0  0  0  0  0  0  0  0  0  0
   -6.4444    6.6906   -3.1567 H   0  0  0  0  0  0  0  0  0  0  0  0
   -7.4677    8.6697   -1.4553 H   0  0  0  0  0  0  0  0  0  0  0  0
   -8.9428    5.0459   -3.1626 H   0  0  0  0  0  0  0  0  0  0  0  0
   -9.8555    6.3047   -4.0620 H   0  0  0  0  0  0  0  0  0  0  0  0
   -8.0594    6.3255   -4.0620 H   0  0  0  0  0  0  0  0  0  0  0  0
  -10.3592    7.5843   -0.7499 H   0  0  0  0  0  0  0  0  0  0  0  0
  -10.3721    8.5717   -2.2504 H   0  0  0  0  0  0  0  0  0  0  0  0
  -11.0974    6.9284   -2.2504 H   0  0  0  0  0  0  0  0  0  0  0  0
   -3.5555    9.1934   -2.3563 H   0  0  0  0  0  0  0  0  0  0  0  0
   -4.7743    9.7535   -0.3471 H   0  0  0  0  0  0  0  0  0  0  0  0
   -4.3056    8.2378    0.4525 H   0  0  0  0  0  0  0  0  0  0  0  0
   -3.1900   10.8139    0.9907 H   0  0  0  0  0  0  0  0  0  0  0  0
   -2.4621    9.2951    1.5077 H   0  0  0  0  0  0  0  0  0  0  0  0
   -2.4470   12.1065   -0.5690 H   0  0  0  0  0  0  0  0  0  0  0  0
   -1.3187   11.6388   -1.8861 H   0  0  0  0  0  0  0  0  0  0  0  0
   -3.0051   11.0201   -1.8861 H   0  0  0  0  0  0  0  0  0  0  0  0
   -0.1436    9.3694    0.8088 H   0  0  0  0  0  0  0  0  0  0  0  0
   -0.9982   11.6877    1.5415 H   0  0  0  0  0  0  0  0  0  0  0  0
    0.7748   11.2249    1.7209 H   0  0  0  0  0  0  0  0  0  0  0  0
    0.2897   13.6671    0.8605 H   0  0  0  0  0  0  0  0  0  0  0  0
    0.3384   11.4416   -2.5091 H   0  0  0  0  0  0  0  0  0  0  0  0
    3.2855   11.5482   -1.6180 H   0  0  0  0  0  0  0  0  0  0  0  0
    2.6136   10.6868   -3.0735 H   0  0  0  0  0  0  0  0  0  0  0  0
    3.7111   12.8217   -3.6722 H   0  0  0  0  0  0  0  0  0  0  0  0
    1.9454   12.8028   -4.0560 H   0  0  0  0  0  0  0  0  0  0  0  0
    2.5008   14.9302   -3.0933 H   0  0  0  0  0  0  0  0  0  0  0  0
    3.8310   13.2520   -1.2380 H   0  0  0  0  0  0  0  0  0  0  0  0
   -0.9649   14.4827   -2.1825 H   0  0  0  0  0  0  0  0  0  0  0  0
    0.2170   15.1794   -3.3419 H   0  0  0  0  0  0  0  0  0  0  0  0
   -0.1065   13.4125   -3.3419 H   0  0  0  0  0  0  0  0  0  0  0  0
    1.1051   15.0286    0.2970 H   0  0  0  0  0  0  0  0  0  0  0  0
    1.9884   15.9674   -0.9541 H   0  0  0  0  0  0  0  0  0  0  0  0
    0.1923   15.9386   -0.9541 H   0  0  0  0  0  0  0  0  0  0  0  0
    2.0170    9.7734    0.8953 H   0  0  0  0  0  0  0  0  0  0  0  0
    2.4778    8.6922   -0.4632 H   0  0  0  0  0  0  0  0  0  0  0  0
    3.0054   10.4093   -0.4632 H   0  0  0  0  0  0  0  0  0  0  0  0
    1.1932    9.1849   -2.8918 H   0  0  0  0  0  0  0  0  0  0  0  0
    0.8926    8.0387   -1.4669 H   0  0  0  0  0  0  0  0  0  0  0  0
   -1.1664    9.6010   -3.0490 H   0  0  0  0  0  0  0  0  0  0  0  0
   -0.9288    7.8112   -2.9637 H   0  0  0  0  0  0  0  0  0  0  0  0
   -1.4372    7.6728    0.7243 H   0  0  0  0  0  0  0  0  0  0  0  0
   -2.0230    6.5931   -0.5864 H   0  0  0  0  0  0  0  0  0  0  0  0
   -0.3196    7.1632   -0.5864 H   0  0  0  0  0  0  0  0  0  0  0  0
  1  2  1  0
  2  3  1  0
  3  4  1  0
  4  5  1  0
  5  6  1  0
  6  7  1  0
  7  8  1  0
  7  9  1  0
  2 10  1  0
 10 11  1  0
 11 12  1  0
 12 13  1  0
 13 14  1  6
 13 15  1  0
 15 16  1  0
 16 17  1  0
 17 18  2  0
 18 19  1  0
 19 20  1  0
 20 21  1  0
 21 22  1  0
 22 23  1  0
 22 24  1  0
 24 25  1  0
 24 26  1  0
 19 27  1  0
 27 28  1  1
 27 29  1  0
 29 30  1  0
 30 31  1  0
 31 32  1  1
  7  5  1  0
 31 10  1  0
 31 13  1  0
 27 15  1  0
 24 18  1  0
  1 33  1  0
  1 34  1  0
  1 35  1  0
  2 36  1  1
  3 37  1  0
  3 38  1  0
  4 39  1  0
  4 40  1  0
  5 41  1  1
  8 42  1  0
  8 43  1  0
  8 44  1  0
  9 45  1  0
  9 46  1  0
  9 47  1  0
 10 48  1  6
 11 49  1  0
 11 50  1  0
 12 51  1  0
 12 52  1  0
 14 53  1  0
 14 54  1  0
 14 55  1  0
 15 56  1  1
 16 57  1  0
 16 58  1  0
 17 59  1  0
 19 60  1  6
 20 61  1  0
 20 62  1  0
 21 63  1  0
 21 64  1  0
 22 65  1  6
 23 66  1  0
 25 67  1  0
 25 68  1  0
 25 69  1  0
 26 70  1  0
 26 71  1  0
 26 72  1  0
 28 73  1  0
 28 74  1  0
 28 75  1  0
 29 76  1  0
 29 77  1  0
 30 78  1  0
 30 79  1  0
 32 80  1  0
 32 81  1  0
 32 82  1  0
M  END
>  <meeko>  (13) 
{"is_sidechain": [false], "intermolecular_energy": 2.731, "internal_energy": -0.839}

$$$$
EPH_relaxed_0001_pdb2pqr_Repair_36_r2_0001_out
     RDKit          3D

 82 86  0  0  0  0  0  0  0  0999 V2000
    2.0740   10.8720   -5.1940 C   0  0  0  0  0  0  0  0  0  0  0  0
    1.4180   10.7720   -3.8140 C   0  0  2  0  0  0  0  0  0  0  0  0
    0.2680    9.7460   -3.7910 C   0  0  0  0  0  0  0  0  0  0  0  0
    0.1310    9.0050   -2.4580 C   0  0  0  0  0  0  0  0  0  0  0  0
   -1.2990    8.9150   -2.0170 C   0  0  2  0  0  0  0  0  0  0  0  0
   -1.9550   10.1800   -1.8530 O   0  0  0  0  0  0  0  0  0  0  0  0
   -1.7880    9.3920   -0.6630 C   0  0  0  0  0  0  0  0  0  0  0  0
   -0.8520    9.9930    0.3380 C   0  0  0  0  0  0  0  0  0  0  0  0
   -3.0690    8.8320   -0.1270 C   0  0  0  0  0  0  0  0  0  0  0  0
    0.9040   12.1410   -3.3820 C   0  0  1  0  0  0  0  0  0  0  0  0
   -0.6230   12.1460   -3.1080 C   0  0  0  0  0  0  0  0  0  0  0  0
   -0.8640   13.1310   -1.9360 C   0  0  0  0  0  0  0  0  0  0  0  0
    0.4690   13.9030   -1.7950 C   0  0  1  0  0  0  0  0  0  0  0  0
    0.4120   15.0050   -2.8980 C   0  0  0  0  0  0  0  0  0  0  0  0
    0.7690   14.5110   -0.3860 C   0  0  2  0  0  0  0  0  0  0  0  0
   -0.2330   15.5760    0.0920 C   0  0  0  0  0  0  0  0  0  0  0  0
    0.1070   16.9820   -0.2770 C   0  0  0  0  0  0  0  0  0  0  0  0
    1.3080   17.4080   -0.7130 C   0  0  0  0  0  0  0  0  0  0  0  0
    2.5060   16.4520   -0.7800 C   0  0  1  0  0  0  0  0  0  0  0  0
    3.7530   17.1410   -0.1660 C   0  0  0  0  0  0  0  0  0  0  0  0
    4.0490   18.4940   -0.8070 C   0  0  0  0  0  0  0  0  0  0  0  0
    2.8550   19.4350   -0.6690 C   0  0  2  0  0  0  0  0  0  0  0  0
    2.6760   19.7530    0.7150 O   0  0  0  0  0  0  0  0  0  0  0  0
    1.5380   18.8440   -1.2450 C   0  0  0  0  0  0  0  0  0  0  0  0
    1.6270   18.7820   -2.7890 C   0  0  0  0  0  0  0  0  0  0  0  0
    0.3870   19.8320   -0.9150 C   0  0  0  0  0  0  0  0  0  0  0  0
    2.2630   14.9950   -0.1940 C   0  0  1  0  0  0  0  0  0  0  0  0
    2.5410   14.9850    1.3400 C   0  0  0  0  0  0  0  0  0  0  0  0
    3.3010   14.0020   -0.8400 C   0  0  0  0  0  0  0  0  0  0  0  0
    2.8960   13.3420   -2.1710 C   0  0  0  0  0  0  0  0  0  0  0  0
    1.4900   12.7420   -2.0800 C   0  0  2  0  0  0  0  0  0  0  0  0
    1.5210   11.6140   -0.9930 C   0  0  0  0  0  0  0  0  0  0  0  0
    3.1551   11.0368   -5.0750 H   0  0  0  0  0  0  0  0  0  0  0  0
    1.9044    9.9376   -5.7492 H   0  0  0  0  0  0  0  0  0  0  0  0
    1.6337   11.7134   -5.7492 H   0  0  0  0  0  0  0  0  0  0  0  0
    2.1855   10.4233   -3.1073 H   0  0  0  0  0  0  0  0  0  0  0  0
   -0.6746   10.2762   -3.9921 H   0  0  0  0  0  0  0  0  0  0  0  0
    0.4960    8.9902   -4.5571 H   0  0  0  0  0  0  0  0  0  0  0  0
    0.5331    7.9876   -2.5729 H   0  0  0  0  0  0  0  0  0  0  0  0
    0.6900    9.5665   -1.6950 H   0  0  0  0  0  0  0  0  0  0  0  0
   -1.4306    7.9652   -2.5560 H   0  0  0  0  0  0  0  0  0  0  0  0
   -1.2064    9.7654    1.3542 H   0  0  0  0  0  0  0  0  0  0  0  0
    0.1545    9.5719    0.1978 H   0  0  0  0  0  0  0  0  0  0  0  0
   -0.8160   11.0834    0.1978 H   0  0  0  0  0  0  0  0  0  0  0  0
   -3.0425    8.8436    0.9726 H   0  0  0  0  0  0  0  0  0  0  0  0
   -3.9125    9.4435   -0.4799 H   0  0  0  0  0  0  0  0  0  0  0  0
   -3.1930    7.7976   -0.4799 H   0  0  0  0  0  0  0  0  0  0  0  0
    1.2216   12.7394   -4.2486 H   0  0  0  0  0  0  0  0  0  0  0  0
   -1.1673   12.4818   -4.0030 H   0  0  0  0  0  0  0  0  0  0  0  0
   -0.9823   11.1373   -2.8562 H   0  0  0  0  0  0  0  0  0  0  0  0
   -1.6888   13.8199   -2.1710 H   0  0  0  0  0  0  0  0  0  0  0  0
   -1.1466   12.6134   -1.0074 H   0  0  0  0  0  0  0  0  0  0  0  0
    0.3607   15.9962   -2.4237 H   0  0  0  0  0  0  0  0  0  0  0  0
    1.3145   14.9443   -3.5240 H   0  0  0  0  0  0  0  0  0  0  0  0
   -0.4794   14.8515   -3.5240 H   0  0  0  0  0  0  0  0  0  0  0  0
    0.6256   13.6468    0.2792 H   0  0  0  0  0  0  0  0  0  0  0  0
   -1.2150   15.3384   -0.3429 H   0  0  0  0  0  0  0  0  0  0  0  0
   -0.2172   15.5374    1.1912 H   0  0  0  0  0  0  0  0  0  0  0  0
   -0.6908   17.7337   -0.1850 H   0  0  0  0  0  0  0  0  0  0  0  0
    2.6778   16.2532   -1.8482 H   0  0  0  0  0  0  0  0  0  0  0  0
    3.5792   17.2909    0.9098 H   0  0  0  0  0  0  0  0  0  0  0  0
    4.6192   16.4882   -0.3490 H   0  0  0  0  0  0  0  0  0  0  0  0
    4.9216   18.9442   -0.3112 H   0  0  0  0  0  0  0  0  0  0  0  0
    4.2526   18.3390   -1.8768 H   0  0  0  0  0  0  0  0  0  0  0  0
    3.0766   20.3371   -1.2582 H   0  0  0  0  0  0  0  0  0  0  0  0
    3.2290   19.1420    1.2310 H   0  0  0  0  0  0  0  0  0  0  0  0
    2.4970   18.1760   -3.0821 H   0  0  0  0  0  0  0  0  0  0  0  0
    0.7103   18.3260   -3.1911 H   0  0  0  0  0  0  0  0  0  0  0  0
    1.7370   19.7999   -3.1911 H   0  0  0  0  0  0  0  0  0  0  0  0
    0.2824   19.9218    0.1763 H   0  0  0  0  0  0  0  0  0  0  0  0
    0.6165   20.8187   -1.3437 H   0  0  0  0  0  0  0  0  0  0  0  0
   -0.5535   19.4557   -1.3437 H   0  0  0  0  0  0  0  0  0  0  0  0
    1.5866   15.0193    1.8858 H   0  0  0  0  0  0  0  0  0  0  0  0
    3.0840   14.0667    1.6083 H   0  0  0  0  0  0  0  0  0  0  0  0
    3.1486   15.8619    1.6083 H   0  0  0  0  0  0  0  0  0  0  0  0
    4.2316   14.5615   -1.0158 H   0  0  0  0  0  0  0  0  0  0  0  0
    3.3898   13.1724   -0.1231 H   0  0  0  0  0  0  0  0  0  0  0  0
    2.9129   14.0998   -2.9682 H   0  0  0  0  0  0  0  0  0  0  0  0
    3.6085   12.5338   -2.3927 H   0  0  0  0  0  0  0  0  0  0  0  0
    1.5085   12.0693    0.0083 H   0  0  0  0  0  0  0  0  0  0  0  0
    0.6403   10.9657   -1.1121 H   0  0  0  0  0  0  0  0  0  0  0  0
    2.4359   11.0151   -1.1121 H   0  0  0  0  0  0  0  0  0  0  0  0
  1  2  1  0
  2  3  1  0
  3  4  1  0
  4  5  1  0
  5  6  1  0
  6  7  1  0
  7  8  1  0
  7  9  1  0
  2 10  1  0
 10 11  1  0
 11 12  1  0
 12 13  1  0
 13 14  1  6
 13 15  1  0
 15 16  1  0
 16 17  1  0
 17 18  2  0
 18 19  1  0
 19 20  1  0
 20 21  1  0
 21 22  1  0
 22 23  1  0
 22 24  1  0
 24 25  1  0
 24 26  1  0
 19 27  1  0
 27 28  1  1
 27 29  1  0
 29 30  1  0
 30 31  1  0
 31 32  1  1
  7  5  1  0
 31 10  1  0
 31 13  1  0
 27 15  1  0
 24 18  1  0
  1 33  1  0
  1 34  1  0
  1 35  1  0
  2 36  1  1
  3 37  1  0
  3 38  1  0
  4 39  1  0
  4 40  1  0
  5 41  1  6
  8 42  1  0
  8 43  1  0
  8 44  1  0
  9 45  1  0
  9 46  1  0
  9 47  1  0
 10 48  1  6
 11 49  1  0
 11 50  1  0
 12 51  1  0
 12 52  1  0
 14 53  1  0
 14 54  1  0
 14 55  1  0
 15 56  1  1
 16 57  1  0
 16 58  1  0
 17 59  1  0
 19 60  1  6
 20 61  1  0
 20 62  1  0
 21 63  1  0
 21 64  1  0
 22 65  1  6
 23 66  1  0
 25 67  1  0
 25 68  1  0
 25 69  1  0
 26 70  1  0
 26 71  1  0
 26 72  1  0
 28 73  1  0
 28 74  1  0
 28 75  1  0
 29 76  1  0
 29 77  1  0
 30 78  1  0
 30 79  1  0
 32 80  1  0
 32 81  1  0
 32 82  1  0
M  END
>  <meeko>  (14) 
{"is_sidechain": [false], "intermolecular_energy": 2.731, "internal_energy": -0.839}

$$$$
EPH_relaxed_0001_pdb2pqr_Repair_36_r2_0001_out
     RDKit          3D

 82 86  0  0  0  0  0  0  0  0999 V2000
    0.9420   14.9300   -2.6820 C   0  0  0  0  0  0  0  0  0  0  0  0
    1.1940   14.2590   -4.0350 C   0  0  2  0  0  0  0  0  0  0  0  0
    0.4840   14.9940   -5.1890 C   0  0  0  0  0  0  0  0  0  0  0  0
    0.9950   14.5980   -6.5770 C   0  0  0  0  0  0  0  0  0  0  0  0
    0.7730   15.6880   -7.5810 C   0  0  2  0  0  0  0  0  0  0  0  0
    0.4230   15.2310   -8.8940 O   0  0  0  0  0  0  0  0  0  0  0  0
    1.6770   15.9210   -8.7770 C   0  0  0  0  0  0  0  0  0  0  0  0
    2.8730   15.0570   -9.0310 C   0  0  0  0  0  0  0  0  0  0  0  0
    1.6830   17.2740   -9.4180 C   0  0  0  0  0  0  0  0  0  0  0  0
    0.7390   12.8050   -3.9850 C   0  0  1  0  0  0  0  0  0  0  0  0
    1.8550   11.8150   -4.4140 C   0  0  0  0  0  0  0  0  0  0  0  0
    1.6770   10.5390   -3.5520 C   0  0  0  0  0  0  0  0  0  0  0  0
    0.2840   10.7000   -2.9000 C   0  0  1  0  0  0  0  0  0  0  0  0
   -0.7280   10.2490   -4.0000 C   0  0  0  0  0  0  0  0  0  0  0  0
    0.0560    9.9320   -1.5570 C   0  0  2  0  0  0  0  0  0  0  0  0
    0.1520    8.4000   -1.6570 C   0  0  0  0  0  0  0  0  0  0  0  0
   -1.1320    7.6980   -1.9510 C   0  0  0  0  0  0  0  0  0  0  0  0
   -2.3600    8.2380   -1.8460 C   0  0  0  0  0  0  0  0  0  0  0  0
   -2.5520    9.6600   -1.3010 C   0  0  1  0  0  0  0  0  0  0  0  0
   -3.7000    9.6640   -0.2580 C   0  0  0  0  0  0  0  0  0  0  0  0
   -4.9940    9.0720   -0.8100 C   0  0  0  0  0  0  0  0  0  0  0  0
   -4.7760    7.6380   -1.2890 C   0  0  2  0  0  0  0  0  0  0  0  0
   -4.4870    6.8130   -0.1560 O   0  0  0  0  0  0  0  0  0  0  0  0
   -3.6350    7.5080   -2.3360 C   0  0  0  0  0  0  0  0  0  0  0  0
   -4.0800    8.1510   -3.6730 C   0  0  0  0  0  0  0  0  0  0  0  0
   -3.4260    5.9980   -2.6280 C   0  0  0  0  0  0  0  0  0  0  0  0
   -1.2390   10.3790   -0.7660 C   0  0  1  0  0  0  0  0  0  0  0  0
   -0.9990   10.0070    0.7280 C   0  0  0  0  0  0  0  0  0  0  0  0
   -1.4560   11.9380   -0.8060 C   0  0  0  0  0  0  0  0  0  0  0  0
   -1.1000   12.6560   -2.1220 C   0  0  0  0  0  0  0  0  0  0  0  0
    0.2920   12.2450   -2.6120 C   0  0  2  0  0  0  0  0  0  0  0  0
    1.3330   12.7060   -1.5350 C   0  0  0  0  0  0  0  0  0  0  0  0
    1.2039   14.2328   -1.8725 H   0  0  0  0  0  0  0  0  0  0  0  0
    1.5614   15.8354   -2.6007 H   0  0  0  0  0  0  0  0  0  0  0  0
   -0.1203   15.2039   -2.6007 H   0  0  0  0  0  0  0  0  0  0  0  0
    2.2754   14.3044   -4.2315 H   0  0  0  0  0  0  0  0  0  0  0  0
   -0.5909   14.7664   -5.1366 H   0  0  0  0  0  0  0  0  0  0  0  0
    0.6922   16.0668   -5.0635 H   0  0  0  0  0  0  0  0  0  0  0  0
    2.0725   14.3862   -6.5131 H   0  0  0  0  0  0  0  0  0  0  0  0
    0.4374   13.7090   -6.9070 H   0  0  0  0  0  0  0  0  0  0  0  0
    0.3950   16.3630   -6.7990 H   0  0  0  0  0  0  0  0  0  0  0  0
    3.3085   14.7424   -8.0712 H   0  0  0  0  0  0  0  0  0  0  0  0
    2.5687   14.1689   -9.6042 H   0  0  0  0  0  0  0  0  0  0  0  0
    3.6205   15.6250   -9.6042 H   0  0  0  0  0  0  0  0  0  0  0  0
    1.6864   18.0494   -8.6378 H   0  0  0  0  0  0  0  0  0  0  0  0
    2.5816   17.3794  -10.0436 H   0  0  0  0  0  0  0  0  0  0  0  0
    0.7853   17.3873  -10.0436 H   0  0  0  0  0  0  0  0  0  0  0  0
   -0.1222   12.8588   -4.6672 H   0  0  0  0  0  0  0  0  0  0  0  0
    1.7529   11.5684   -5.4811 H   0  0  0  0  0  0  0  0  0  0  0  0
    2.8520   12.2556   -4.2659 H   0  0  0  0  0  0  0  0  0  0  0  0
    1.7093    9.6375   -4.1815 H   0  0  0  0  0  0  0  0  0  0  0  0
    2.4765   10.4252   -2.8052 H   0  0  0  0  0  0  0  0  0  0  0  0
   -1.6331    9.8456   -3.5224 H   0  0  0  0  0  0  0  0  0  0  0  0
   -0.9976   11.1122   -4.6263 H   0  0  0  0  0  0  0  0  0  0  0  0
   -0.2664    9.4714   -4.6263 H   0  0  0  0  0  0  0  0  0  0  0  0
    0.9217   10.2472   -0.9560 H   0  0  0  0  0  0  0  0  0  0  0  0
    0.8641    8.1558   -2.4590 H   0  0  0  0  0  0  0  0  0  0  0  0
    0.4695    8.0498   -0.6638 H   0  0  0  0  0  0  0  0  0  0  0  0
   -1.0691    6.6507   -2.2814 H   0  0  0  0  0  0  0  0  0  0  0  0
   -2.8304   10.2825   -2.1642 H   0  0  0  0  0  0  0  0  0  0  0  0
   -3.3857    9.0726    0.6146 H   0  0  0  0  0  0  0  0  0  0  0  0
   -3.9008   10.7108    0.0136 H   0  0  0  0  0  0  0  0  0  0  0  0
   -5.7580    9.0752   -0.0186 H   0  0  0  0  0  0  0  0  0  0  0  0
   -5.3234    9.6818   -1.6642 H   0  0  0  0  0  0  0  0  0  0  0  0
   -5.6994    7.3138   -1.7912 H   0  0  0  0  0  0  0  0  0  0  0  0
   -5.1360    7.0240    0.5360 H   0  0  0  0  0  0  0  0  0  0  0  0
   -4.6948    9.0393   -3.4659 H   0  0  0  0  0  0  0  0  0  0  0  0
   -3.1921    8.4463   -4.2513 H   0  0  0  0  0  0  0  0  0  0  0  0
   -4.6692    7.4240   -4.2513 H   0  0  0  0  0  0  0  0  0  0  0  0
   -3.3499    5.4480   -1.6784 H   0  0  0  0  0  0  0  0  0  0  0  0
   -4.2797    5.6148   -3.2063 H   0  0  0  0  0  0  0  0  0  0  0  0
   -2.5003    5.8611   -3.2063 H   0  0  0  0  0  0  0  0  0  0  0  0
   -1.4816   10.7550    1.3742 H   0  0  0  0  0  0  0  0  0  0  0  0
   -1.4277    9.0148    0.9322 H   0  0  0  0  0  0  0  0  0  0  0  0
    0.0817    9.9886    0.9322 H   0  0  0  0  0  0  0  0  0  0  0  0
   -2.5188   12.1314   -0.5985 H   0  0  0  0  0  0  0  0  0  0  0  0
   -0.7587   12.3447   -0.0588 H   0  0  0  0  0  0  0  0  0  0  0  0
   -1.8436   12.3921   -2.8884 H   0  0  0  0  0  0  0  0  0  0  0  0
   -1.1018   13.7410   -1.9410 H   0  0  0  0  0  0  0  0  0  0  0  0
    0.9249   12.5253   -0.5296 H   0  0  0  0  0  0  0  0  0  0  0  0
    2.2661   12.1369   -1.6597 H   0  0  0  0  0  0  0  0  0  0  0  0
    1.5387   13.7794   -1.6597 H   0  0  0  0  0  0  0  0  0  0  0  0
  1  2  1  0
  2  3  1  0
  3  4  1  0
  4  5  1  0
  5  6  1  0
  6  7  1  0
  7  8  1  0
  7  9  1  0
  2 10  1  0
 10 11  1  0
 11 12  1  0
 12 13  1  0
 13 14  1  6
 13 15  1  0
 15 16  1  0
 16 17  1  0
 17 18  2  0
 18 19  1  0
 19 20  1  0
 20 21  1  0
 21 22  1  0
 22 23  1  0
 22 24  1  0
 24 25  1  0
 24 26  1  0
 19 27  1  0
 27 28  1  1
 27 29  1  0
 29 30  1  0
 30 31  1  0
 31 32  1  1
  7  5  1  0
 31 10  1  0
 31 13  1  0
 27 15  1  0
 24 18  1  0
  1 33  1  0
  1 34  1  0
  1 35  1  0
  2 36  1  6
  3 37  1  0
  3 38  1  0
  4 39  1  0
  4 40  1  0
  5 41  1  1
  8 42  1  0
  8 43  1  0
  8 44  1  0
  9 45  1  0
  9 46  1  0
  9 47  1  0
 10 48  1  6
 11 49  1  0
 11 50  1  0
 12 51  1  0
 12 52  1  0
 14 53  1  0
 14 54  1  0
 14 55  1  0
 15 56  1  1
 16 57  1  0
 16 58  1  0
 17 59  1  0
 19 60  1  6
 20 61  1  0
 20 62  1  0
 21 63  1  0
 21 64  1  0
 22 65  1  6
 23 66  1  0
 25 67  1  0
 25 68  1  0
 25 69  1  0
 26 70  1  0
 26 71  1  0
 26 72  1  0
 28 73  1  0
 28 74  1  0
 28 75  1  0
 29 76  1  0
 29 77  1  0
 30 78  1  0
 30 79  1  0
 32 80  1  0
 32 81  1  0
 32 82  1  0
M  END
>  <meeko>  (15) 
{"is_sidechain": [false], "intermolecular_energy": 2.731, "internal_energy": -0.839}

$$$$
EPH_relaxed_0001_pdb2pqr_Repair_36_r2_0001_out
     RDKit          3D

 82 86  0  0  0  0  0  0  0  0999 V2000
   -0.1440    9.3170   -4.2450 C   0  0  0  0  0  0  0  0  0  0  0  0
    0.0660    9.5300   -2.7440 C   0  0  2  0  0  0  0  0  0  0  0  0
   -0.7000    8.4930   -1.8980 C   0  0  0  0  0  0  0  0  0  0  0  0
   -2.2200    8.5550   -2.0760 C   0  0  0  0  0  0  0  0  0  0  0  0
   -2.7530    7.3150   -2.7270 C   0  0  2  0  0  0  0  0  0  0  0  0
   -3.8670    7.5290   -3.6020 O   0  0  0  0  0  0  0  0  0  0  0  0
   -4.1250    6.7380   -2.4310 C   0  0  0  0  0  0  0  0  0  0  0  0
   -5.0490    7.3880   -1.4490 C   0  0  0  0  0  0  0  0  0  0  0  0
   -4.3710    5.2910   -2.7230 C   0  0  0  0  0  0  0  0  0  0  0  0
   -0.3630   10.9400   -2.3540 C   0  0  1  0  0  0  0  0  0  0  0  0
   -1.5720   10.9490   -1.3810 C   0  0  0  0  0  0  0  0  0  0  0  0
   -1.3660   12.1500   -0.4230 C   0  0  0  0  0  0  0  0  0  0  0  0
   -0.2360   12.9800   -1.0750 C   0  0  1  0  0  0  0  0  0  0  0  0
   -0.9450   13.8230   -2.1810 C   0  0  0  0  0  0  0  0  0  0  0  0
    0.6040   13.8810   -0.1120 C   0  0  2  0  0  0  0  0  0  0  0  0
   -0.1900   14.9880    0.6040 C   0  0  0  0  0  0  0  0  0  0  0  0
   -0.2500   16.2960   -0.1130 C   0  0  0  0  0  0  0  0  0  0  0  0
    0.5400   16.6620   -1.1400 C   0  0  0  0  0  0  0  0  0  0  0  0
    1.6830   15.7560   -1.6160 C   0  0  1  0  0  0  0  0  0  0  0  0
    2.9690   16.6020   -1.8070 C   0  0  0  0  0  0  0  0  0  0  0  0
    2.7510   17.7990   -2.7280 C   0  0  0  0  0  0  0  0  0  0  0  0
    1.6470   18.7060   -2.1910 C   0  0  2  0  0  0  0  0  0  0  0  0
    2.0940   19.3010   -0.9680 O   0  0  0  0  0  0  0  0  0  0  0  0
    0.3040   17.9610   -1.9490 C   0  0  0  0  0  0  0  0  0  0  0  0
   -0.3300   17.5780   -3.3090 C   0  0  0  0  0  0  0  0  0  0  0  0
   -0.6790   18.9560   -1.2760 C   0  0  0  0  0  0  0  0  0  0  0  0
    1.9360   14.4470   -0.7510 C   0  0  1  0  0  0  0  0  0  0  0  0
    2.8960   14.7700    0.4350 C   0  0  0  0  0  0  0  0  0  0  0  0
    2.6740   13.3780   -1.6410 C   0  0  0  0  0  0  0  0  0  0  0  0
    1.7860   12.4380   -2.4780 C   0  0  0  0  0  0  0  0  0  0  0  0
    0.6770   11.8220   -1.6190 C   0  0  2  0  0  0  0  0  0  0  0  0
    1.3600   10.9500   -0.5110 C   0  0  0  0  0  0  0  0  0  0  0  0
   -0.9084    8.5417   -4.4019 H   0  0  0  0  0  0  0  0  0  0  0  0
   -0.4768   10.2587   -4.7059 H   0  0  0  0  0  0  0  0  0  0  0  0
    0.8023    8.9975   -4.7059 H   0  0  0  0  0  0  0  0  0  0  0  0
    1.1383    9.3974   -2.5375 H   0  0  0  0  0  0  0  0  0  0  0  0
   -0.3573    7.4883   -2.1863 H   0  0  0  0  0  0  0  0  0  0  0  0
   -0.4904    8.7212   -0.8425 H   0  0  0  0  0  0  0  0  0  0  0  0
   -2.6902    8.6692   -1.0881 H   0  0  0  0  0  0  0  0  0  0  0  0
   -2.4545    9.4111   -2.7257 H   0  0  0  0  0  0  0  0  0  0  0  0
   -1.7500    6.8637   -2.7412 H   0  0  0  0  0  0  0  0  0  0  0  0
   -4.7189    7.1558   -0.4257 H   0  0  0  0  0  0  0  0  0  0  0  0
   -5.0368    8.4775   -1.5998 H   0  0  0  0  0  0  0  0  0  0  0  0
   -6.0703    7.0084   -1.5998 H   0  0  0  0  0  0  0  0  0  0  0  0
   -4.4652    4.7370   -1.7774 H   0  0  0  0  0  0  0  0  0  0  0  0
   -5.2998    5.1867   -3.3031 H   0  0  0  0  0  0  0  0  0  0  0  0
   -3.5289    4.8857   -3.3031 H   0  0  0  0  0  0  0  0  0  0  0  0
   -0.5682   11.3530   -3.3527 H   0  0  0  0  0  0  0  0  0  0  0  0
   -2.5098   11.0694   -1.9432 H   0  0  0  0  0  0  0  0  0  0  0  0
   -1.6359   10.0040   -0.8216 H   0  0  0  0  0  0  0  0  0  0  0  0
   -2.2877   12.7449   -0.3424 H   0  0  0  0  0  0  0  0  0  0  0  0
   -1.1123   11.8300    0.5984 H   0  0  0  0  0  0  0  0  0  0  0  0
   -1.5845   14.5834   -1.7090 H   0  0  0  0  0  0  0  0  0  0  0  0
   -0.1877   14.3179   -2.8067 H   0  0  0  0  0  0  0  0  0  0  0  0
   -1.5624   13.1617   -2.8067 H   0  0  0  0  0  0  0  0  0  0  0  0
    0.9032   13.1715    0.6736 H   0  0  0  0  0  0  0  0  0  0  0  0
   -1.2206   14.6301    0.7448 H   0  0  0  0  0  0  0  0  0  0  0  0
    0.3420   15.1823    1.5470 H   0  0  0  0  0  0  0  0  0  0  0  0
   -1.0033   17.0222    0.2264 H   0  0  0  0  0  0  0  0  0  0  0  0
    1.3612   15.3430   -2.5834 H   0  0  0  0  0  0  0  0  0  0  0  0
    3.2988   16.9691   -0.8239 H   0  0  0  0  0  0  0  0  0  0  0  0
    3.7273   15.9559   -2.2733 H   0  0  0  0  0  0  0  0  0  0  0  0
    3.6863   18.3736   -2.7992 H   0  0  0  0  0  0  0  0  0  0  0  0
    2.4506   17.4292   -3.7195 H   0  0  0  0  0  0  0  0  0  0  0  0
    1.4474   19.4707   -2.9561 H   0  0  0  0  0  0  0  0  0  0  0  0
    1.8850   18.6840   -0.2470 H   0  0  0  0  0  0  0  0  0  0  0  0
   -1.2597   17.0164   -3.1350 H   0  0  0  0  0  0  0  0  0  0  0  0
   -0.5547   18.4915   -3.8790 H   0  0  0  0  0  0  0  0  0  0  0  0
    0.3741   16.9540   -3.8790 H   0  0  0  0  0  0  0  0  0  0  0  0
   -0.5952   18.8712   -0.1825 H   0  0  0  0  0  0  0  0  0  0  0  0
   -0.4303   19.9822   -1.5843 H   0  0  0  0  0  0  0  0  0  0  0  0
   -1.7082   18.7198   -1.5843 H   0  0  0  0  0  0  0  0  0  0  0  0
    2.3742   14.5944    1.3873 H   0  0  0  0  0  0  0  0  0  0  0  0
    3.7818   14.1204    0.3771 H   0  0  0  0  0  0  0  0  0  0  0  0
    3.2090   15.8229    0.3771 H   0  0  0  0  0  0  0  0  0  0  0  0
    3.3317   13.9206   -2.3360 H   0  0  0  0  0  0  0  0  0  0  0  0
    3.1961   12.7220   -0.9289 H   0  0  0  0  0  0  0  0  0  0  0  0
    1.3293   13.0106   -3.2987 H   0  0  0  0  0  0  0  0  0  0  0  0
    2.4125   11.6265   -2.8766 H   0  0  0  0  0  0  0  0  0  0  0  0
    1.0676   11.3233    0.4815 H   0  0  0  0  0  0  0  0  0  0  0  0
    1.0389    9.9034   -0.6183 H   0  0  0  0  0  0  0  0  0  0  0  0
    2.4531   11.0110   -0.6183 H   0  0  0  0  0  0  0  0  0  0  0  0
  1  2  1  0
  2  3  1  0
  3  4  1  0
  4  5  1  0
  5  6  1  0
  6  7  1  0
  7  8  1  0
  7  9  1  0
  2 10  1  0
 10 11  1  0
 11 12  1  0
 12 13  1  0
 13 14  1  6
 13 15  1  0
 15 16  1  0
 16 17  1  0
 17 18  2  0
 18 19  1  0
 19 20  1  0
 20 21  1  0
 21 22  1  0
 22 23  1  0
 22 24  1  0
 24 25  1  0
 24 26  1  0
 19 27  1  0
 27 28  1  1
 27 29  1  0
 29 30  1  0
 30 31  1  0
 31 32  1  1
  7  5  1  0
 31 10  1  0
 31 13  1  0
 27 15  1  0
 24 18  1  0
  1 33  1  0
  1 34  1  0
  1 35  1  0
  2 36  1  6
  3 37  1  0
  3 38  1  0
  4 39  1  0
  4 40  1  0
  5 41  1  6
  8 42  1  0
  8 43  1  0
  8 44  1  0
  9 45  1  0
  9 46  1  0
  9 47  1  0
 10 48  1  6
 11 49  1  0
 11 50  1  0
 12 51  1  0
 12 52  1  0
 14 53  1  0
 14 54  1  0
 14 55  1  0
 15 56  1  1
 16 57  1  0
 16 58  1  0
 17 59  1  0
 19 60  1  6
 20 61  1  0
 20 62  1  0
 21 63  1  0
 21 64  1  0
 22 65  1  6
 23 66  1  0
 25 67  1  0
 25 68  1  0
 25 69  1  0
 26 70  1  0
 26 71  1  0
 26 72  1  0
 28 73  1  0
 28 74  1  0
 28 75  1  0
 29 76  1  0
 29 77  1  0
 30 78  1  0
 30 79  1  0
 32 80  1  0
 32 81  1  0
 32 82  1  0
M  END
>  <meeko>  (16) 
{"is_sidechain": [false], "intermolecular_energy": 2.731, "internal_energy": -0.839}

$$$$
EPH_relaxed_0001_pdb2pqr_Repair_36_r2_0001_out
     RDKit          3D

 82 86  0  0  0  0  0  0  0  0999 V2000
    3.1150   14.8690   -7.5640 C   0  0  0  0  0  0  0  0  0  0  0  0
    1.5910   14.8610   -7.4140 C   0  0  2  0  0  0  0  0  0  0  0  0
    0.9340   16.0790   -8.0950 C   0  0  0  0  0  0  0  0  0  0  0  0
    1.8400   16.7780   -9.1130 C   0  0  0  0  0  0  0  0  0  0  0  0
    1.5140   16.3690  -10.5170 C   0  0  2  0  0  0  0  0  0  0  0  0
    0.9380   15.0620  -10.6420 O   0  0  0  0  0  0  0  0  0  0  0  0
    2.2270   15.2470  -11.2490 C   0  0  0  0  0  0  0  0  0  0  0  0
    3.3250   14.4650  -10.5980 C   0  0  0  0  0  0  0  0  0  0  0  0
    2.1970   15.2350  -12.7460 C   0  0  0  0  0  0  0  0  0  0  0  0
    1.2140   14.8230   -5.9380 C   0  0  1  0  0  0  0  0  0  0  0  0
   -0.0310   15.6930   -5.6170 C   0  0  0  0  0  0  0  0  0  0  0  0
   -0.8110   14.9600   -4.4950 C   0  0  0  0  0  0  0  0  0  0  0  0
    0.1690   13.8800   -3.9800 C   0  0  1  0  0  0  0  0  0  0  0  0
    1.1190   14.6370   -2.9990 C   0  0  0  0  0  0  0  0  0  0  0  0
   -0.4760   12.6260   -3.3060 C   0  0  2  0  0  0  0  0  0  0  0  0
   -1.2840   12.9150   -2.0280 C   0  0  0  0  0  0  0  0  0  0  0  0
   -0.5080   12.8510   -0.7550 C   0  0  0  0  0  0  0  0  0  0  0  0
    0.7110   12.2990   -0.6080 C   0  0  0  0  0  0  0  0  0  0  0  0
    1.3920   11.5730   -1.7760 C   0  0  1  0  0  0  0  0  0  0  0  0
    1.9690   10.2210   -1.2790 C   0  0  0  0  0  0  0  0  0  0  0  0
    2.8920   10.3860   -0.0760 C   0  0  0  0  0  0  0  0  0  0  0  0
    2.1620   11.0590    1.0840 C   0  0  2  0  0  0  0  0  0  0  0  0
    1.1430   10.1750    1.5620 O   0  0  0  0  0  0  0  0  0  0  0  0
    1.5300   12.4260    0.6990 C   0  0  0  0  0  0  0  0  0  0  0  0
    2.6500   13.4710    0.4720 C   0  0  0  0  0  0  0  0  0  0  0  0
    0.7060   12.9290    1.9150 C   0  0  0  0  0  0  0  0  0  0  0  0
    0.5230   11.4160   -3.0970 C   0  0  1  0  0  0  0  0  0  0  0  0
   -0.3510   10.1280   -3.0100 C   0  0  0  0  0  0  0  0  0  0  0  0
    1.4870   11.2170   -4.3260 C   0  0  0  0  0  0  0  0  0  0  0  0
    1.9950   12.4930   -5.0240 C   0  0  0  0  0  0  0  0  0  0  0  0
    0.8380   13.4470   -5.3350 C   0  0  2  0  0  0  0  0  0  0  0  0
   -0.1230   12.7210   -6.3370 C   0  0  0  0  0  0  0  0  0  0  0  0
    3.5815   14.8714   -6.5678 H   0  0  0  0  0  0  0  0  0  0  0  0
    3.4338   13.9725   -8.1160 H   0  0  0  0  0  0  0  0  0  0  0  0
    3.4244   15.7688   -8.1160 H   0  0  0  0  0  0  0  0  0  0  0  0
    1.2138   13.9584   -7.9170 H   0  0  0  0  0  0  0  0  0  0  0  0
    0.0260   15.7387   -8.6143 H   0  0  0  0  0  0  0  0  0  0  0  0
    0.7153   16.8108   -7.3034 H   0  0  0  0  0  0  0  0  0  0  0  0
    1.7089   17.8661   -9.0190 H   0  0  0  0  0  0  0  0  0  0  0  0
    2.8799   16.4870   -8.9035 H   0  0  0  0  0  0  0  0  0  0  0  0
    1.2979   17.4111  -10.7950 H   0  0  0  0  0  0  0  0  0  0  0  0
    3.2266   14.5351   -9.5047 H   0  0  0  0  0  0  0  0  0  0  0  0
    3.2566   13.4111  -10.9055 H   0  0  0  0  0  0  0  0  0  0  0  0
    4.2987   14.8742  -10.9055 H   0  0  0  0  0  0  0  0  0  0  0  0
    1.2270   14.8470  -13.0902 H   0  0  0  0  0  0  0  0  0  0  0  0
    2.3374   16.2585  -13.1238 H   0  0  0  0  0  0  0  0  0  0  0  0
    3.0046   14.5907  -13.1238 H   0  0  0  0  0  0  0  0  0  0  0  0
    2.1563   15.1813   -5.4979 H   0  0  0  0  0  0  0  0  0  0  0  0
    0.2819   16.6896   -5.2721 H   0  0  0  0  0  0  0  0  0  0  0  0
   -0.6585   15.8298   -6.5101 H   0  0  0  0  0  0  0  0  0  0  0  0
   -1.0784   15.6582   -3.6881 H   0  0  0  0  0  0  0  0  0  0  0  0
   -1.7553   14.5276   -4.8574 H   0  0  0  0  0  0  0  0  0  0  0  0
    0.8325   14.4087   -1.9618 H   0  0  0  0  0  0  0  0  0  0  0  0
    2.1566   14.3154   -3.1720 H   0  0  0  0  0  0  0  0  0  0  0  0
    1.0372   15.7202   -3.1720 H   0  0  0  0  0  0  0  0  0  0  0  0
   -1.2116   12.3061   -4.0587 H   0  0  0  0  0  0  0  0  0  0  0  0
   -1.7096   13.9255   -2.1162 H   0  0  0  0  0  0  0  0  0  0  0  0
   -2.0429   12.1215   -1.9619 H   0  0  0  0  0  0  0  0  0  0  0  0
   -0.9716   13.2925    0.1395 H   0  0  0  0  0  0  0  0  0  0  0  0
    2.2100   12.2300   -2.1065 H   0  0  0  0  0  0  0  0  0  0  0  0
    1.1336    9.5641   -0.9950 H   0  0  0  0  0  0  0  0  0  0  0  0
    2.5625    9.7897   -2.0986 H   0  0  0  0  0  0  0  0  0  0  0  0
    3.2436    9.3949    0.2465 H   0  0  0  0  0  0  0  0  0  0  0  0
    3.7422   11.0189   -0.3701 H   0  0  0  0  0  0  0  0  0  0  0  0
    2.9064   11.2671    1.8667 H   0  0  0  0  0  0  0  0  0  0  0  0
    0.5460    9.9850    0.8190 H   0  0  0  0  0  0  0  0  0  0  0  0
    3.0264   13.8221    1.4441 H   0  0  0  0  0  0  0  0  0  0  0  0
    3.4723   13.0099   -0.0947 H   0  0  0  0  0  0  0  0  0  0  0  0
    2.2469   14.3233   -0.0947 H   0  0  0  0  0  0  0  0  0  0  0  0
    1.2047   12.6246    2.8470 H   0  0  0  0  0  0  0  0  0  0  0  0
    0.6327   14.0260    1.8797 H   0  0  0  0  0  0  0  0  0  0  0  0
   -0.3032   12.4928    1.8797 H   0  0  0  0  0  0  0  0  0  0  0  0
   -0.5241    9.8730   -1.9541 H   0  0  0  0  0  0  0  0  0  0  0  0
   -1.3160   10.3054   -3.5073 H   0  0  0  0  0  0  0  0  0  0  0  0
    0.1704    9.2968   -3.5073 H   0  0  0  0  0  0  0  0  0  0  0  0
    2.3663   10.6586   -3.9723 H   0  0  0  0  0  0  0  0  0  0  0  0
    0.8837   10.6952   -5.0835 H   0  0  0  0  0  0  0  0  0  0  0  0
    2.7133   13.0019   -4.3645 H   0  0  0  0  0  0  0  0  0  0  0  0
    2.4765   12.2063   -5.9705 H   0  0  0  0  0  0  0  0  0  0  0  0
   -0.8771   12.1513   -5.7742 H   0  0  0  0  0  0  0  0  0  0  0  0
   -0.6247   13.4676   -6.9701 H   0  0  0  0  0  0  0  0  0  0  0  0
    0.4581   12.0344   -6.9701 H   0  0  0  0  0  0  0  0  0  0  0  0
  1  2  1  0
  2  3  1  0
  3  4  1  0
  4  5  1  0
  5  6  1  0
  6  7  1  0
  7  8  1  0
  7  9  1  0
  2 10  1  0
 10 11  1  0
 11 12  1  0
 12 13  1  0
 13 14  1  1
 13 15  1  0
 15 16  1  0
 16 17  1  0
 17 18  2  0
 18 19  1  0
 19 20  1  0
 20 21  1  0
 21 22  1  0
 22 23  1  0
 22 24  1  0
 24 25  1  0
 24 26  1  0
 19 27  1  0
 27 28  1  1
 27 29  1  0
 29 30  1  0
 30 31  1  0
 31 32  1  6
  7  5  1  0
 31 10  1  0
 31 13  1  0
 27 15  1  0
 24 18  1  0
  1 33  1  0
  1 34  1  0
  1 35  1  0
  2 36  1  6
  3 37  1  0
  3 38  1  0
  4 39  1  0
  4 40  1  0
  5 41  1  6
  8 42  1  0
  8 43  1  0
  8 44  1  0
  9 45  1  0
  9 46  1  0
  9 47  1  0
 10 48  1  1
 11 49  1  0
 11 50  1  0
 12 51  1  0
 12 52  1  0
 14 53  1  0
 14 54  1  0
 14 55  1  0
 15 56  1  6
 16 57  1  0
 16 58  1  0
 17 59  1  0
 19 60  1  6
 20 61  1  0
 20 62  1  0
 21 63  1  0
 21 64  1  0
 22 65  1  1
 23 66  1  0
 25 67  1  0
 25 68  1  0
 25 69  1  0
 26 70  1  0
 26 71  1  0
 26 72  1  0
 28 73  1  0
 28 74  1  0
 28 75  1  0
 29 76  1  0
 29 77  1  0
 30 78  1  0
 30 79  1  0
 32 80  1  0
 32 81  1  0
 32 82  1  0
M  END
>  <meeko>  (17) 
{"is_sidechain": [false], "intermolecular_energy": 2.731, "internal_energy": -0.839}

$$$$
EPH_relaxed_0001_pdb2pqr_Repair_36_r2_0001_out
     RDKit          3D

 82 86  0  0  0  0  0  0  0  0999 V2000
   -2.5610    7.7210   -0.1560 C   0  0  0  0  0  0  0  0  0  0  0  0
   -3.1560    9.1310   -0.1150 C   0  0  2  0  0  0  0  0  0  0  0  0
   -4.6490    9.1430   -0.4990 C   0  0  0  0  0  0  0  0  0  0  0  0
   -5.2890    7.7530   -0.5230 C   0  0  0  0  0  0  0  0  0  0  0  0
   -5.9760    7.4810   -1.8270 C   0  0  2  0  0  0  0  0  0  0  0  0
   -6.8560    8.5220   -2.2690 O   0  0  0  0  0  0  0  0  0  0  0  0
   -7.4720    7.2620   -1.9560 C   0  0  0  0  0  0  0  0  0  0  0  0
   -8.3720    7.3050   -0.7610 C   0  0  0  0  0  0  0  0  0  0  0  0
   -7.9870    6.5290   -3.1550 C   0  0  0  0  0  0  0  0  0  0  0  0
   -2.3720   10.0530   -1.0410 C   0  0  1  0  0  0  0  0  0  0  0  0
   -3.0060   11.4650   -1.1550 C   0  0  0  0  0  0  0  0  0  0  0  0
   -1.8350   12.4710   -1.2990 C   0  0  0  0  0  0  0  0  0  0  0  0
   -0.5990   11.5910   -1.5950 C   0  0  1  0  0  0  0  0  0  0  0  0
   -0.6850   11.2800   -3.1220 C   0  0  0  0  0  0  0  0  0  0  0  0
    0.7900   12.1960   -1.2060 C   0  0  2  0  0  0  0  0  0  0  0  0
    1.1700   13.4870   -1.9510 C   0  0  0  0  0  0  0  0  0  0  0  0
    1.9270   13.2900   -3.2230 C   0  0  0  0  0  0  0  0  0  0  0  0
    2.5340   12.1510   -3.6040 C   0  0  0  0  0  0  0  0  0  0  0  0
    2.5770   10.9320   -2.6730 C   0  0  1  0  0  0  0  0  0  0  0  0
    4.0160   10.3530   -2.6440 C   0  0  0  0  0  0  0  0  0  0  0  0
    4.5480   10.0410   -4.0390 C   0  0  0  0  0  0  0  0  0  0  0  0
    4.5440   11.2900   -4.9170 C   0  0  2  0  0  0  0  0  0  0  0  0
    5.4960   12.2220   -4.3960 O   0  0  0  0  0  0  0  0  0  0  0  0
    3.1480   11.9660   -5.0130 C   0  0  0  0  0  0  0  0  0  0  0  0
    2.1940   11.0750   -5.8460 C   0  0  0  0  0  0  0  0  0  0  0  0
    3.3130   13.2890   -5.8090 C   0  0  0  0  0  0  0  0  0  0  0  0
    1.9780   11.1510   -1.2170 C   0  0  1  0  0  0  0  0  0  0  0  0
    3.0780   11.7180   -0.2680 C   0  0  0  0  0  0  0  0  0  0  0  0
    1.5540    9.7570   -0.6210 C   0  0  0  0  0  0  0  0  0  0  0  0
    0.1280    9.2690   -0.9420 C   0  0  0  0  0  0  0  0  0  0  0  0
   -0.9030   10.3650   -0.6590 C   0  0  2  0  0  0  0  0  0  0  0  0
   -0.8560   10.6830    0.8740 C   0  0  0  0  0  0  0  0  0  0  0  0
   -2.4077    7.3577    0.8709 H   0  0  0  0  0  0  0  0  0  0  0  0
   -3.2514    7.0469   -0.6842 H   0  0  0  0  0  0  0  0  0  0  0  0
   -1.5964    7.7453   -0.6842 H   0  0  0  0  0  0  0  0  0  0  0  0
   -3.0794    9.4924    0.9211 H   0  0  0  0  0  0  0  0  0  0  0  0
   -5.1905    9.7621    0.2314 H   0  0  0  0  0  0  0  0  0  0  0  0
   -4.7150    9.5451   -1.5207 H   0  0  0  0  0  0  0  0  0  0  0  0
   -4.5050    6.9970   -0.3687 H   0  0  0  0  0  0  0  0  0  0  0  0
   -6.0426    7.7088    0.2771 H   0  0  0  0  0  0  0  0  0  0  0  0
   -5.1122    6.9032   -2.1876 H   0  0  0  0  0  0  0  0  0  0  0  0
   -7.7654    7.2760    0.1561 H   0  0  0  0  0  0  0  0  0  0  0  0
   -8.9632    8.2324   -0.7804 H   0  0  0  0  0  0  0  0  0  0  0  0
   -9.0489    6.4382   -0.7804 H   0  0  0  0  0  0  0  0  0  0  0  0
   -8.5908    5.6696   -2.8280 H   0  0  0  0  0  0  0  0  0  0  0  0
   -8.6093    7.2057   -3.7591 H   0  0  0  0  0  0  0  0  0  0  0  0
   -7.1395    6.1730   -3.7591 H   0  0  0  0  0  0  0  0  0  0  0  0
   -2.4016    9.4549   -1.9637 H   0  0  0  0  0  0  0  0  0  0  0  0
   -3.6602   11.5163   -2.0379 H   0  0  0  0  0  0  0  0  0  0  0  0
   -3.6182   11.6956   -0.2707 H   0  0  0  0  0  0  0  0  0  0  0  0
   -2.0224   13.1689   -2.1283 H   0  0  0  0  0  0  0  0  0  0  0  0
   -1.7018   13.0878   -0.3980 H   0  0  0  0  0  0  0  0  0  0  0  0
   -0.9756   10.2290   -3.2663 H   0  0  0  0  0  0  0  0  0  0  0  0
   -1.4356   11.9353   -3.5880 H   0  0  0  0  0  0  0  0  0  0  0  0
    0.2957   11.4565   -3.5880 H   0  0  0  0  0  0  0  0  0  0  0  0
    0.6343   12.4906   -0.1577 H   0  0  0  0  0  0  0  0  0  0  0  0
    0.2422   14.0284   -2.1880 H   0  0  0  0  0  0  0  0  0  0  0  0
    1.8430   14.0395   -1.2788 H   0  0  0  0  0  0  0  0  0  0  0  0
    1.9942   14.1490   -3.9068 H   0  0  0  0  0  0  0  0  0  0  0  0
    1.8864   10.1935   -3.1063 H   0  0  0  0  0  0  0  0  0  0  0  0
    4.6824   11.0877   -2.1684 H   0  0  0  0  0  0  0  0  0  0  0  0
    3.9855    9.4096   -2.0791 H   0  0  0  0  0  0  0  0  0  0  0  0
    5.5777    9.6632   -3.9553 H   0  0  0  0  0  0  0  0  0  0  0  0
    3.8970    9.2847   -4.5018 H   0  0  0  0  0  0  0  0  0  0  0  0
    4.8116   10.9779   -5.9373 H   0  0  0  0  0  0  0  0  0  0  0  0
    6.1940   12.3350   -5.0640 H   0  0  0  0  0  0  0  0  0  0  0  0
    1.5604   10.4832   -5.1690 H   0  0  0  0  0  0  0  0  0  0  0  0
    1.5589   11.7108   -6.4804 H   0  0  0  0  0  0  0  0  0  0  0  0
    2.7850   10.3980   -6.4804 H   0  0  0  0  0  0  0  0  0  0  0  0
    3.4178   14.1290   -5.1065 H   0  0  0  0  0  0  0  0  0  0  0  0
    4.2103   13.2265   -6.4422 H   0  0  0  0  0  0  0  0  0  0  0  0
    2.4278   13.4488   -6.4422 H   0  0  0  0  0  0  0  0  0  0  0  0
    2.7757   11.5622    0.7781 H   0  0  0  0  0  0  0  0  0  0  0  0
    4.0286   11.1976   -0.4564 H   0  0  0  0  0  0  0  0  0  0  0  0
    3.2056   12.7942   -0.4564 H   0  0  0  0  0  0  0  0  0  0  0  0
    2.2578    9.0033   -1.0040 H   0  0  0  0  0  0  0  0  0  0  0  0
    1.5730    9.8928    0.4704 H   0  0  0  0  0  0  0  0  0  0  0  0
    0.0739    8.9898   -2.0046 H   0  0  0  0  0  0  0  0  0  0  0  0
   -0.0979    8.4018   -0.3040 H   0  0  0  0  0  0  0  0  0  0  0  0
   -0.9934    9.7533    1.4457 H   0  0  0  0  0  0  0  0  0  0  0  0
    0.1177   11.1282    1.1264 H   0  0  0  0  0  0  0  0  0  0  0  0
   -1.6593   11.3908    1.1264 H   0  0  0  0  0  0  0  0  0  0  0  0
  1  2  1  0
  2  3  1  0
  3  4  1  0
  4  5  1  0
  5  6  1  0
  6  7  1  0
  7  8  1  0
  7  9  1  0
  2 10  1  0
 10 11  1  0
 11 12  1  0
 12 13  1  0
 13 14  1  6
 13 15  1  0
 15 16  1  0
 16 17  1  0
 17 18  2  0
 18 19  1  0
 19 20  1  0
 20 21  1  0
 21 22  1  0
 22 23  1  0
 22 24  1  0
 24 25  1  0
 24 26  1  0
 19 27  1  0
 27 28  1  1
 27 29  1  0
 29 30  1  0
 30 31  1  0
 31 32  1  1
  7  5  1  0
 31 10  1  0
 31 13  1  0
 27 15  1  0
 24 18  1  0
  1 33  1  0
  1 34  1  0
  1 35  1  0
  2 36  1  1
  3 37  1  0
  3 38  1  0
  4 39  1  0
  4 40  1  0
  5 41  1  6
  8 42  1  0
  8 43  1  0
  8 44  1  0
  9 45  1  0
  9 46  1  0
  9 47  1  0
 10 48  1  6
 11 49  1  0
 11 50  1  0
 12 51  1  0
 12 52  1  0
 14 53  1  0
 14 54  1  0
 14 55  1  0
 15 56  1  1
 16 57  1  0
 16 58  1  0
 17 59  1  0
 19 60  1  6
 20 61  1  0
 20 62  1  0
 21 63  1  0
 21 64  1  0
 22 65  1  6
 23 66  1  0
 25 67  1  0
 25 68  1  0
 25 69  1  0
 26 70  1  0
 26 71  1  0
 26 72  1  0
 28 73  1  0
 28 74  1  0
 28 75  1  0
 29 76  1  0
 29 77  1  0
 30 78  1  0
 30 79  1  0
 32 80  1  0
 32 81  1  0
 32 82  1  0
M  END
>  <meeko>  (18) 
{"is_sidechain": [false], "intermolecular_energy": 2.731, "internal_energy": -0.839}

$$$$
