EPH_relaxed_0001_pdb2pqr_Repair_238_r2_0001_out
     RDKit          3D

 82 86  0  0  0  0  0  0  0  0999 V2000
   -1.5950    8.5790   -1.8140 C   0  0  0  0  0  0  0  0  0  0  0  0
   -1.9940    9.1590   -0.4540 C   0  0  2  0  0  0  0  0  0  0  0  0
   -3.4810    9.5630   -0.4090 C   0  0  0  0  0  0  0  0  0  0  0  0
   -4.4390    8.3760   -0.2790 C   0  0  0  0  0  0  0  0  0  0  0  0
   -5.0740    8.0290   -1.5910 C   0  0  2  0  0  0  0  0  0  0  0  0
   -6.3390    8.6610   -1.8300 O   0  0  0  0  0  0  0  0  0  0  0  0
   -6.3570    7.2290   -1.7150 C   0  0  0  0  0  0  0  0  0  0  0  0
   -7.0820    6.7250   -0.5060 C   0  0  0  0  0  0  0  0  0  0  0  0
   -6.6400    6.5250   -3.0050 C   0  0  0  0  0  0  0  0  0  0  0  0
   -1.1170   10.3600   -0.1230 C   0  0  1  0  0  0  0  0  0  0  0  0
   -0.0330   10.0350    0.9380 C   0  0  0  0  0  0  0  0  0  0  0  0
    1.2210   10.8680    0.5670 C   0  0  0  0  0  0  0  0  0  0  0  0
    0.7170   11.8840   -0.4850 C   0  0  1  0  0  0  0  0  0  0  0  0
    0.0510   13.0240    0.3470 C   0  0  0  0  0  0  0  0  0  0  0  0
    1.7900   12.4430   -1.4750 C   0  0  2  0  0  0  0  0  0  0  0  0
    2.9270   13.2460   -0.8210 C   0  0  0  0  0  0  0  0  0  0  0  0
    2.6820   14.7140   -0.6980 C   0  0  0  0  0  0  0  0  0  0  0  0
    1.7270   15.4050   -1.3480 C   0  0  0  0  0  0  0  0  0  0  0  0
    0.8300   14.7210   -2.3870 C   0  0  1  0  0  0  0  0  0  0  0  0
    0.7400   15.6070   -3.6580 C   0  0  0  0  0  0  0  0  0  0  0  0
    0.2920   17.0310   -3.3470 C   0  0  0  0  0  0  0  0  0  0  0  0
    1.2420   17.6980   -2.3550 C   0  0  2  0  0  0  0  0  0  0  0  0
    2.5140   17.8770   -2.9840 O   0  0  0  0  0  0  0  0  0  0  0  0
    1.4180   16.8900   -1.0390 C   0  0  0  0  0  0  0  0  0  0  0  0
    0.1120   16.9530   -0.2100 C   0  0  0  0  0  0  0  0  0  0  0  0
    2.5070   17.5980   -0.1870 C   0  0  0  0  0  0  0  0  0  0  0  0
    1.1850   13.2080   -2.7220 C   0  0  1  0  0  0  0  0  0  0  0  0
    2.2640   13.1510   -3.8460 C   0  0  0  0  0  0  0  0  0  0  0  0
   -0.0950   12.4950   -3.2980 C   0  0  0  0  0  0  0  0  0  0  0  0
   -1.0560   11.8580   -2.2750 C   0  0  0  0  0  0  0  0  0  0  0  0
   -0.2920   10.9780   -1.2800 C   0  0  2  0  0  0  0  0  0  0  0  0
    0.3700    9.8090   -2.0860 C   0  0  0  0  0  0  0  0  0  0  0  0
   -0.9775    7.6813   -1.6629 H   0  0  0  0  0  0  0  0  0  0  0  0
   -2.5004    8.3105   -2.3780 H   0  0  0  0  0  0  0  0  0  0  0  0
   -1.0205    9.3286   -2.3780 H   0  0  0  0  0  0  0  0  0  0  0  0
   -1.8434    8.3711    0.2987 H   0  0  0  0  0  0  0  0  0  0  0  0
   -3.6339   10.2284    0.4535 H   0  0  0  0  0  0  0  0  0  0  0  0
   -3.7087   10.0558   -1.3657 H   0  0  0  0  0  0  0  0  0  0  0  0
   -3.8778    7.5036    0.0870 H   0  0  0  0  0  0  0  0  0  0  0  0
   -5.2371    8.6554    0.4246 H   0  0  0  0  0  0  0  0  0  0  0  0
   -4.0877    7.9194   -2.0655 H   0  0  0  0  0  0  0  0  0  0  0  0
   -6.5719    7.0796    0.4018 H   0  0  0  0  0  0  0  0  0  0  0  0
   -8.1161    7.1000   -0.5157 H   0  0  0  0  0  0  0  0  0  0  0  0
   -7.0907    5.6251   -0.5157 H   0  0  0  0  0  0  0  0  0  0  0  0
   -7.0428    5.5231   -2.7953 H   0  0  0  0  0  0  0  0  0  0  0  0
   -7.3760    7.1022   -3.5839 H   0  0  0  0  0  0  0  0  0  0  0  0
   -5.7093    6.4322   -3.5839 H   0  0  0  0  0  0  0  0  0  0  0  0
   -1.8915   11.0677    0.2077 H   0  0  0  0  0  0  0  0  0  0  0  0
   -0.3893   10.3131    1.9408 H   0  0  0  0  0  0  0  0  0  0  0  0
    0.1972    8.9594    0.9504 H   0  0  0  0  0  0  0  0  0  0  0  0
    1.6169   11.3888    1.4513 H   0  0  0  0  0  0  0  0  0  0  0  0
    2.0396   10.2414    0.1832 H   0  0  0  0  0  0  0  0  0  0  0  0
    0.1734   12.8144    1.4199 H   0  0  0  0  0  0  0  0  0  0  0  0
    0.5306   13.9836    0.1038 H   0  0  0  0  0  0  0  0  0  0  0  0
   -1.0204   13.0775    0.1038 H   0  0  0  0  0  0  0  0  0  0  0  0
    2.2570   11.5241   -1.8592 H   0  0  0  0  0  0  0  0  0  0  0  0
    3.0904   12.8428    0.1893 H   0  0  0  0  0  0  0  0  0  0  0  0
    3.7974   13.1372   -1.4848 H   0  0  0  0  0  0  0  0  0  0  0  0
    3.3375   15.2785   -0.0186 H   0  0  0  0  0  0  0  0  0  0  0  0
   -0.1627   14.6347   -1.9210 H   0  0  0  0  0  0  0  0  0  0  0  0
    1.7317   15.6449   -4.1325 H   0  0  0  0  0  0  0  0  0  0  0  0
   -0.0109   15.1587   -4.3253 H   0  0  0  0  0  0  0  0  0  0  0  0
    0.2766   17.6151   -4.2790 H   0  0  0  0  0  0  0  0  0  0  0  0
   -0.7123   16.9932   -2.8999 H   0  0  0  0  0  0  0  0  0  0  0  0
    0.7997   18.6648   -2.0728 H   0  0  0  0  0  0  0  0  0  0  0  0
    2.4190   17.6240   -3.9180 H   0  0  0  0  0  0  0  0  0  0  0  0
    0.3574   16.9412    0.8622 H   0  0  0  0  0  0  0  0  0  0  0  0
   -0.4314   17.8784   -0.4516 H   0  0  0  0  0  0  0  0  0  0  0  0
   -0.5179   16.0842   -0.4516 H   0  0  0  0  0  0  0  0  0  0  0  0
    2.2872   17.4551    0.8813 H   0  0  0  0  0  0  0  0  0  0  0  0
    3.4920   17.1671   -0.4195 H   0  0  0  0  0  0  0  0  0  0  0  0
    2.5129   18.6731   -0.4195 H   0  0  0  0  0  0  0  0  0  0  0  0
    3.2644   13.0982   -3.3916 H   0  0  0  0  0  0  0  0  0  0  0  0
    2.0971   12.2604   -4.4697 H   0  0  0  0  0  0  0  0  0  0  0  0
    2.1918   14.0542   -4.4697 H   0  0  0  0  0  0  0  0  0  0  0  0
   -0.6646   13.2436   -3.8682 H   0  0  0  0  0  0  0  0  0  0  0  0
    0.2882   11.6542   -3.8948 H   0  0  0  0  0  0  0  0  0  0  0  0
   -1.5761   12.6557   -1.7245 H   0  0  0  0  0  0  0  0  0  0  0  0
   -1.7788   11.2298   -2.8162 H   0  0  0  0  0  0  0  0  0  0  0  0
    0.7879    9.0711   -1.3853 H   0  0  0  0  0  0  0  0  0  0  0  0
   -0.3881    9.3250   -2.7193 H   0  0  0  0  0  0  0  0  0  0  0  0
    1.1750   10.2101   -2.7193 H   0  0  0  0  0  0  0  0  0  0  0  0
  1  2  1  0
  2  3  1  0
  3  4  1  0
  4  5  1  0
  5  6  1  0
  6  7  1  0
  7  8  1  0
  7  9  1  0
  2 10  1  0
 10 11  1  0
 11 12  1  0
 12 13  1  0
 13 14  1  1
 13 15  1  0
 15 16  1  0
 16 17  1  0
 17 18  2  0
 18 19  1  0
 19 20  1  0
 20 21  1  0
 21 22  1  0
 22 23  1  0
 22 24  1  0
 24 25  1  0
 24 26  1  0
 19 27  1  0
 27 28  1  6
 27 29  1  0
 29 30  1  0
 30 31  1  0
 31 32  1  6
  7  5  1  0
 31 10  1  0
 31 13  1  0
 27 15  1  0
 24 18  1  0
  1 33  1  0
  1 34  1  0
  1 35  1  0
  2 36  1  1
  3 37  1  0
  3 38  1  0
  4 39  1  0
  4 40  1  0
  5 41  1  6
  8 42  1  0
  8 43  1  0
  8 44  1  0
  9 45  1  0
  9 46  1  0
  9 47  1  0
 10 48  1  1
 11 49  1  0
 11 50  1  0
 12 51  1  0
 12 52  1  0
 14 53  1  0
 14 54  1  0
 14 55  1  0
 15 56  1  6
 16 57  1  0
 16 58  1  0
 17 59  1  0
 19 60  1  1
 20 61  1  0
 20 62  1  0
 21 63  1  0
 21 64  1  0
 22 65  1  1
 23 66  1  0
 25 67  1  0
 25 68  1  0
 25 69  1  0
 26 70  1  0
 26 71  1  0
 26 72  1  0
 28 73  1  0
 28 74  1  0
 28 75  1  0
 29 76  1  0
 29 77  1  0
 30 78  1  0
 30 79  1  0
 32 80  1  0
 32 81  1  0
 32 82  1  0
M  END
>  <meeko>  (1) 
{"is_sidechain": [false], "intermolecular_energy": 2.731, "internal_energy": -0.839}

$$$$
EPH_relaxed_0001_pdb2pqr_Repair_238_r2_0001_out
     RDKit          3D

 82 86  0  0  0  0  0  0  0  0999 V2000
    4.3270   17.4820   -0.6300 C   0  0  0  0  0  0  0  0  0  0  0  0
    2.9610   18.0850   -0.2890 C   0  0  2  0  0  0  0  0  0  0  0  0
    2.9820   18.8500    1.0490 C   0  0  0  0  0  0  0  0  0  0  0  0
    4.2740   18.6580    1.8490 C   0  0  0  0  0  0  0  0  0  0  0  0
    4.1500   19.1990    3.2410 C   0  0  2  0  0  0  0  0  0  0  0  0
    5.1230   20.1940    3.5840 O   0  0  0  0  0  0  0  0  0  0  0  0
    5.1860   18.9650    4.3240 C   0  0  0  0  0  0  0  0  0  0  0  0
    6.4200   18.1590    4.0630 C   0  0  0  0  0  0  0  0  0  0  0  0
    4.7670   19.1000    5.7550 C   0  0  0  0  0  0  0  0  0  0  0  0
    1.9050   16.9870   -0.2450 C   0  0  1  0  0  0  0  0  0  0  0  0
    0.4720   17.5260   -0.5010 C   0  0  0  0  0  0  0  0  0  0  0  0
   -0.2880   16.4230   -1.2820 C   0  0  0  0  0  0  0  0  0  0  0  0
    0.6110   15.1700   -1.1620 C   0  0  1  0  0  0  0  0  0  0  0  0
    0.2830   14.5760    0.2440 C   0  0  0  0  0  0  0  0  0  0  0  0
    0.4590   14.1000   -2.2910 C   0  0  2  0  0  0  0  0  0  0  0  0
   -0.9310   13.4490   -2.3900 C   0  0  0  0  0  0  0  0  0  0  0  0
   -1.1150   12.2090   -1.5780 C   0  0  0  0  0  0  0  0  0  0  0  0
   -0.1250   11.4820   -1.0260 C   0  0  0  0  0  0  0  0  0  0  0  0
    1.3460   11.8350   -1.2790 C   0  0  1  0  0  0  0  0  0  0  0  0
    2.1340   10.5460   -1.6310 C   0  0  0  0  0  0  0  0  0  0  0  0
    1.9680    9.4530   -0.5800 C   0  0  0  0  0  0  0  0  0  0  0  0
    0.4970    9.0890   -0.3990 C   0  0  2  0  0  0  0  0  0  0  0  0
    0.0230    8.4730   -1.6010 O   0  0  0  0  0  0  0  0  0  0  0  0
   -0.3980   10.3110   -0.0510 C   0  0  0  0  0  0  0  0  0  0  0  0
   -0.0840   10.7930    1.3870 C   0  0  0  0  0  0  0  0  0  0  0  0
   -1.8750    9.8320   -0.0350 C   0  0  0  0  0  0  0  0  0  0  0  0
    1.6090   13.0130   -2.3130 C   0  0  1  0  0  0  0  0  0  0  0  0
    1.6590   12.4460   -3.7640 C   0  0  0  0  0  0  0  0  0  0  0  0
    3.0270   13.6370   -2.0310 C   0  0  0  0  0  0  0  0  0  0  0  0
    3.0930   14.7720   -0.9920 C   0  0  0  0  0  0  0  0  0  0  0  0
    2.0300   15.8380   -1.2760 C   0  0  2  0  0  0  0  0  0  0  0  0
    2.3470   16.4690   -2.6740 C   0  0  0  0  0  0  0  0  0  0  0  0
    4.8652   17.2444    0.2994 H   0  0  0  0  0  0  0  0  0  0  0  0
    4.1857   16.5626   -1.2172 H   0  0  0  0  0  0  0  0  0  0  0  0
    4.9111   18.2059   -1.2172 H   0  0  0  0  0  0  0  0  0  0  0  0
    2.7119   18.8088   -1.0789 H   0  0  0  0  0  0  0  0  0  0  0  0
    2.8609   19.9227    0.8375 H   0  0  0  0  0  0  0  0  0  0  0  0
    2.1621   18.4474    1.6619 H   0  0  0  0  0  0  0  0  0  0  0  0
    4.5032   17.5835    1.9033 H   0  0  0  0  0  0  0  0  0  0  0  0
    5.0784   19.2075    1.3381 H   0  0  0  0  0  0  0  0  0  0  0  0
    3.0585   19.0638    3.2226 H   0  0  0  0  0  0  0  0  0  0  0  0
    6.8737   17.8627    5.0203 H   0  0  0  0  0  0  0  0  0  0  0  0
    6.1554   17.2590    3.4885 H   0  0  0  0  0  0  0  0  0  0  0  0
    7.1377   18.7630    3.4885 H   0  0  0  0  0  0  0  0  0  0  0  0
    5.6079   18.8291    6.4104 H   0  0  0  0  0  0  0  0  0  0  0  0
    4.4681   20.1399    5.9530 H   0  0  0  0  0  0  0  0  0  0  0  0
    3.9172   18.4302    5.9530 H   0  0  0  0  0  0  0  0  0  0  0  0
    2.0817   16.6021    0.7702 H   0  0  0  0  0  0  0  0  0  0  0  0
   -0.0327   17.7292    0.4550 H   0  0  0  0  0  0  0  0  0  0  0  0
    0.4997   18.4661   -1.0715 H   0  0  0  0  0  0  0  0  0  0  0  0
   -1.2743   16.2378   -0.8316 H   0  0  0  0  0  0  0  0  0  0  0  0
   -0.4726   16.7052   -2.3290 H   0  0  0  0  0  0  0  0  0  0  0  0
    0.6575   15.2541    1.0250 H   0  0  0  0  0  0  0  0  0  0  0  0
   -0.8060   14.4618    0.3488 H   0  0  0  0  0  0  0  0  0  0  0  0
    0.7665   13.5935    0.3488 H   0  0  0  0  0  0  0  0  0  0  0  0
    0.5721   14.7031   -3.2040 H   0  0  0  0  0  0  0  0  0  0  0  0
   -1.6761   14.1867   -2.0572 H   0  0  0  0  0  0  0  0  0  0  0  0
   -1.0500   13.1449   -3.4404 H   0  0  0  0  0  0  0  0  0  0  0  0
   -2.1458   11.8603   -1.4174 H   0  0  0  0  0  0  0  0  0  0  0  0
    1.7238   12.2581   -0.3365 H   0  0  0  0  0  0  0  0  0  0  0  0
    1.7719   10.1642   -2.5969 H   0  0  0  0  0  0  0  0  0  0  0  0
    3.2013   10.8086   -1.6736 H   0  0  0  0  0  0  0  0  0  0  0  0
    2.5234    8.5589   -0.8997 H   0  0  0  0  0  0  0  0  0  0  0  0
    2.3579    9.8257    0.3787 H   0  0  0  0  0  0  0  0  0  0  0  0
    0.4309    8.3982    0.4545 H   0  0  0  0  0  0  0  0  0  0  0  0
    0.5830    8.7850   -2.3320 H   0  0  0  0  0  0  0  0  0  0  0  0
   -0.5353   10.1003    2.1126 H   0  0  0  0  0  0  0  0  0  0  0  0
    1.0057   10.8203    1.5348 H   0  0  0  0  0  0  0  0  0  0  0  0
   -0.4994   11.8008    1.5348 H   0  0  0  0  0  0  0  0  0  0  0  0
   -2.2136    9.7222    1.0058 H   0  0  0  0  0  0  0  0  0  0  0  0
   -2.5059   10.5716   -0.5497 H   0  0  0  0  0  0  0  0  0  0  0  0
   -1.9518    8.8629   -0.5497 H   0  0  0  0  0  0  0  0  0  0  0  0
    1.7556   11.3509   -3.7266 H   0  0  0  0  0  0  0  0  0  0  0  0
    0.7337   12.7146   -4.2947 H   0  0  0  0  0  0  0  0  0  0  0  0
    2.5230   12.8724   -4.2947 H   0  0  0  0  0  0  0  0  0  0  0  0
    3.6832   12.8267   -1.6806 H   0  0  0  0  0  0  0  0  0  0  0  0
    3.3318   14.0993   -2.9815 H   0  0  0  0  0  0  0  0  0  0  0  0
    2.9230   14.3524    0.0105 H   0  0  0  0  0  0  0  0  0  0  0  0
    4.0856   15.2426   -1.0492 H   0  0  0  0  0  0  0  0  0  0  0  0
    2.8368   17.4439   -2.5337 H   0  0  0  0  0  0  0  0  0  0  0  0
    3.0160   15.7999   -3.2351 H   0  0  0  0  0  0  0  0  0  0  0  0
    1.4109   16.6063   -3.2351 H   0  0  0  0  0  0  0  0  0  0  0  0
  1  2  1  0
  2  3  1  0
  3  4  1  0
  4  5  1  0
  5  6  1  0
  6  7  1  0
  7  8  1  0
  7  9  1  0
  2 10  1  0
 10 11  1  0
 11 12  1  0
 12 13  1  0
 13 14  1  1
 13 15  1  0
 15 16  1  0
 16 17  1  0
 17 18  2  0
 18 19  1  0
 19 20  1  0
 20 21  1  0
 21 22  1  0
 22 23  1  0
 22 24  1  0
 24 25  1  0
 24 26  1  0
 19 27  1  0
 27 28  1  6
 27 29  1  0
 29 30  1  0
 30 31  1  0
 31 32  1  6
  7  5  1  0
 31 10  1  0
 31 13  1  0
 27 15  1  0
 24 18  1  0
  1 33  1  0
  1 34  1  0
  1 35  1  0
  2 36  1  6
  3 37  1  0
  3 38  1  0
  4 39  1  0
  4 40  1  0
  5 41  1  1
  8 42  1  0
  8 43  1  0
  8 44  1  0
  9 45  1  0
  9 46  1  0
  9 47  1  0
 10 48  1  1
 11 49  1  0
 11 50  1  0
 12 51  1  0
 12 52  1  0
 14 53  1  0
 14 54  1  0
 14 55  1  0
 15 56  1  6
 16 57  1  0
 16 58  1  0
 17 59  1  0
 19 60  1  1
 20 61  1  0
 20 62  1  0
 21 63  1  0
 21 64  1  0
 22 65  1  1
 23 66  1  0
 25 67  1  0
 25 68  1  0
 25 69  1  0
 26 70  1  0
 26 71  1  0
 26 72  1  0
 28 73  1  0
 28 74  1  0
 28 75  1  0
 29 76  1  0
 29 77  1  0
 30 78  1  0
 30 79  1  0
 32 80  1  0
 32 81  1  0
 32 82  1  0
M  END
>  <meeko>  (2) 
{"is_sidechain": [false], "intermolecular_energy": 2.731, "internal_energy": -0.839}

$$$$
EPH_relaxed_0001_pdb2pqr_Repair_238_r2_0001_out
     RDKit          3D

 82 86  0  0  0  0  0  0  0  0999 V2000
    0.4170   18.4190   -0.0050 C   0  0  0  0  0  0  0  0  0  0  0  0
    1.5050   17.3680   -0.2380 C   0  0  2  0  0  0  0  0  0  0  0  0
    2.7110   17.9410   -1.0090 C   0  0  0  0  0  0  0  0  0  0  0  0
    3.9440   18.1800   -0.1340 C   0  0  0  0  0  0  0  0  0  0  0  0
    3.5670   18.6410    1.2420 C   0  0  2  0  0  0  0  0  0  0  0  0
    3.8170   20.0290    1.4980 O   0  0  0  0  0  0  0  0  0  0  0  0
    4.5780   19.0930    2.2790 C   0  0  0  0  0  0  0  0  0  0  0  0
    6.0450   19.1070    1.9850 C   0  0  0  0  0  0  0  0  0  0  0  0
    4.1870   19.0560    3.7230 C   0  0  0  0  0  0  0  0  0  0  0  0
    0.9240   16.1760   -0.9900 C   0  0  1  0  0  0  0  0  0  0  0  0
    0.7770   16.4450   -2.5120 C   0  0  0  0  0  0  0  0  0  0  0  0
    1.0610   15.1010   -3.2320 C   0  0  0  0  0  0  0  0  0  0  0  0
    1.0320   14.0410   -2.1060 C   0  0  1  0  0  0  0  0  0  0  0  0
   -0.4820   13.7430   -1.8740 C   0  0  0  0  0  0  0  0  0  0  0  0
    1.8450   12.7320   -2.3690 C   0  0  2  0  0  0  0  0  0  0  0  0
    1.3630   11.8940   -3.5660 C   0  0  0  0  0  0  0  0  0  0  0  0
    0.3360   10.8580   -3.2460 C   0  0  0  0  0  0  0  0  0  0  0  0
    0.0290   10.4160   -2.0130 C   0  0  0  0  0  0  0  0  0  0  0  0
    0.8130   10.8970   -0.7850 C   0  0  1  0  0  0  0  0  0  0  0  0
    1.1810    9.6800    0.1040 C   0  0  0  0  0  0  0  0  0  0  0  0
   -0.0360    8.8420    0.4810 C   0  0  0  0  0  0  0  0  0  0  0  0
   -0.7560    8.3340   -0.7650 C   0  0  2  0  0  0  0  0  0  0  0  0
    0.0950    7.4030   -1.4410 O   0  0  0  0  0  0  0  0  0  0  0  0
   -1.1670    9.4710   -1.7420 C   0  0  0  0  0  0  0  0  0  0  0  0
   -2.3140   10.3040   -1.1170 C   0  0  0  0  0  0  0  0  0  0  0  0
   -1.7550    8.8130   -3.0190 C   0  0  0  0  0  0  0  0  0  0  0  0
    2.0620   11.8340   -1.0840 C   0  0  1  0  0  0  0  0  0  0  0  0
    3.3270   10.9640   -1.3570 C   0  0  0  0  0  0  0  0  0  0  0  0
    2.3800   12.6910    0.1980 C   0  0  0  0  0  0  0  0  0  0  0  0
    1.6330   14.0310    0.3410 C   0  0  0  0  0  0  0  0  0  0  0  0
    1.7250   14.8510   -0.9500 C   0  0  2  0  0  0  0  0  0  0  0  0
    3.2350   15.1850   -1.1970 C   0  0  0  0  0  0  0  0  0  0  0  0
    0.2699   18.5611    1.0758 H   0  0  0  0  0  0  0  0  0  0  0  0
    0.7236   19.3716   -0.4617 H   0  0  0  0  0  0  0  0  0  0  0  0
   -0.5244   18.0797   -0.4617 H   0  0  0  0  0  0  0  0  0  0  0  0
    1.8683   17.0439    0.7484 H   0  0  0  0  0  0  0  0  0  0  0  0
    2.9825   17.2324   -1.8053 H   0  0  0  0  0  0  0  0  0  0  0  0
    2.4034   18.9201   -1.4050 H   0  0  0  0  0  0  0  0  0  0  0  0
    4.5107   17.2407   -0.0524 H   0  0  0  0  0  0  0  0  0  0  0  0
    4.5511   18.9672   -0.6049 H   0  0  0  0  0  0  0  0  0  0  0  0
    2.7409   17.9159    1.2841 H   0  0  0  0  0  0  0  0  0  0  0  0
    6.6083   19.1124    2.9298 H   0  0  0  0  0  0  0  0  0  0  0  0
    6.3112   18.2114    1.4045 H   0  0  0  0  0  0  0  0  0  0  0  0
    6.2940   20.0076    1.4045 H   0  0  0  0  0  0  0  0  0  0  0  0
    5.0875   19.1412    4.3490 H   0  0  0  0  0  0  0  0  0  0  0  0
    3.5084   19.8939    3.9407 H   0  0  0  0  0  0  0  0  0  0  0  0
    3.6777   18.1056    3.9407 H   0  0  0  0  0  0  0  0  0  0  0  0
   -0.0246   16.0583   -0.4456 H   0  0  0  0  0  0  0  0  0  0  0  0
   -0.2429   16.7887   -2.7394 H   0  0  0  0  0  0  0  0  0  0  0  0
    1.4753   17.2272   -2.8446 H   0  0  0  0  0  0  0  0  0  0  0  0
    0.2850   14.8912   -3.9828 H   0  0  0  0  0  0  0  0  0  0  0  0
    2.0200   15.1110   -3.7707 H   0  0  0  0  0  0  0  0  0  0  0  0
   -0.6865   13.7028   -0.7939 H   0  0  0  0  0  0  0  0  0  0  0  0
   -1.0869   14.5393   -2.3323 H   0  0  0  0  0  0  0  0  0  0  0  0
   -0.7400   12.7768   -2.3323 H   0  0  0  0  0  0  0  0  0  0  0  0
    2.8328   13.1217   -2.6559 H   0  0  0  0  0  0  0  0  0  0  0  0
    0.9332   12.5803   -4.3105 H   0  0  0  0  0  0  0  0  0  0  0  0
    2.2451   11.3465   -3.9296 H   0  0  0  0  0  0  0  0  0  0  0  0
   -0.2162   10.4191   -4.0900 H   0  0  0  0  0  0  0  0  0  0  0  0
    0.1367   11.5689   -0.2362 H   0  0  0  0  0  0  0  0  0  0  0  0
    1.8907    9.0439   -0.4452 H   0  0  0  0  0  0  0  0  0  0  0  0
    1.6210   10.0673    1.0348 H   0  0  0  0  0  0  0  0  0  0  0  0
    0.2918    7.9818    1.0831 H   0  0  0  0  0  0  0  0  0  0  0  0
   -0.7311    9.4715    1.0559 H   0  0  0  0  0  0  0  0  0  0  0  0
   -1.6884    7.8530   -0.4343 H   0  0  0  0  0  0  0  0  0  0  0  0
    0.9990    7.5360   -1.1090 H   0  0  0  0  0  0  0  0  0  0  0  0
   -2.2469   10.2553   -0.0201 H   0  0  0  0  0  0  0  0  0  0  0  0
   -2.2270   11.3508   -1.4436 H   0  0  0  0  0  0  0  0  0  0  0  0
   -3.2825    9.8974   -1.4436 H   0  0  0  0  0  0  0  0  0  0  0  0
   -2.4624    8.0214   -2.7311 H   0  0  0  0  0  0  0  0  0  0  0  0
   -2.2793    9.5741   -3.6154 H   0  0  0  0  0  0  0  0  0  0  0  0
   -0.9399    8.3772   -3.6154 H   0  0  0  0  0  0  0  0  0  0  0  0
    3.7740   10.6565   -0.4001 H   0  0  0  0  0  0  0  0  0  0  0  0
    3.0407   10.0708   -1.9317 H   0  0  0  0  0  0  0  0  0  0  0  0
    4.0586   11.5509   -1.9317 H   0  0  0  0  0  0  0  0  0  0  0  0
    2.1345   12.0777    1.0775 H   0  0  0  0  0  0  0  0  0  0  0  0
    3.4422   12.9620    0.1068 H   0  0  0  0  0  0  0  0  0  0  0  0
    0.5749   13.8309    0.5655 H   0  0  0  0  0  0  0  0  0  0  0  0
    2.0975   14.6062    1.1555 H   0  0  0  0  0  0  0  0  0  0  0  0
    3.7482   15.2985   -0.2307 H   0  0  0  0  0  0  0  0  0  0  0  0
    3.7027   14.3686   -1.7669 H   0  0  0  0  0  0  0  0  0  0  0  0
    3.3147   16.1225   -1.7669 H   0  0  0  0  0  0  0  0  0  0  0  0
  1  2  1  0
  2  3  1  0
  3  4  1  0
  4  5  1  0
  5  6  1  0
  6  7  1  0
  7  8  1  0
  7  9  1  0
  2 10  1  0
 10 11  1  0
 11 12  1  0
 12 13  1  0
 13 14  1  1
 13 15  1  0
 15 16  1  0
 16 17  1  0
 17 18  2  0
 18 19  1  0
 19 20  1  0
 20 21  1  0
 21 22  1  0
 22 23  1  0
 22 24  1  0
 24 25  1  0
 24 26  1  0
 19 27  1  0
 27 28  1  6
 27 29  1  0
 29 30  1  0
 30 31  1  0
 31 32  1  6
  7  5  1  0
 31 10  1  0
 31 13  1  0
 27 15  1  0
 24 18  1  0
  1 33  1  0
  1 34  1  0
  1 35  1  0
  2 36  1  1
  3 37  1  0
  3 38  1  0
  4 39  1  0
  4 40  1  0
  5 41  1  1
  8 42  1  0
  8 43  1  0
  8 44  1  0
  9 45  1  0
  9 46  1  0
  9 47  1  0
 10 48  1  1
 11 49  1  0
 11 50  1  0
 12 51  1  0
 12 52  1  0
 14 53  1  0
 14 54  1  0
 14 55  1  0
 15 56  1  6
 16 57  1  0
 16 58  1  0
 17 59  1  0
 19 60  1  1
 20 61  1  0
 20 62  1  0
 21 63  1  0
 21 64  1  0
 22 65  1  1
 23 66  1  0
 25 67  1  0
 25 68  1  0
 25 69  1  0
 26 70  1  0
 26 71  1  0
 26 72  1  0
 28 73  1  0
 28 74  1  0
 28 75  1  0
 29 76  1  0
 29 77  1  0
 30 78  1  0
 30 79  1  0
 32 80  1  0
 32 81  1  0
 32 82  1  0
M  END
>  <meeko>  (3) 
{"is_sidechain": [false], "intermolecular_energy": 2.731, "internal_energy": -0.839}

$$$$
EPH_relaxed_0001_pdb2pqr_Repair_238_r2_0001_out
     RDKit          3D

 82 86  0  0  0  0  0  0  0  0999 V2000
    2.2190   18.0320   -2.6520 C   0  0  0  0  0  0  0  0  0  0  0  0
    0.6960   17.8750   -2.6710 C   0  0  2  0  0  0  0  0  0  0  0  0
    0.0490   18.3330   -1.3490 C   0  0  0  0  0  0  0  0  0  0  0  0
    0.8340   17.9170   -0.1020 C   0  0  0  0  0  0  0  0  0  0  0  0
    1.3480   19.1050    0.6520 C   0  0  2  0  0  0  0  0  0  0  0  0
    2.2500   19.9390   -0.0870 O   0  0  0  0  0  0  0  0  0  0  0  0
    2.7990   19.2730    1.0610 C   0  0  0  0  0  0  0  0  0  0  0  0
    3.8280   18.2370    0.7300 C   0  0  0  0  0  0  0  0  0  0  0  0
    3.1210   20.1940    2.1960 C   0  0  0  0  0  0  0  0  0  0  0  0
    0.3270   16.4240   -2.9560 C   0  0  1  0  0  0  0  0  0  0  0  0
    0.3870   16.0780   -4.4670 C   0  0  0  0  0  0  0  0  0  0  0  0
    0.8770   14.6100   -4.5710 C   0  0  0  0  0  0  0  0  0  0  0  0
    0.7640   14.0590   -3.1310 C   0  0  1  0  0  0  0  0  0  0  0  0
   -0.7410   13.6770   -2.9650 C   0  0  0  0  0  0  0  0  0  0  0  0
    1.7050   12.8630   -2.7730 C   0  0  2  0  0  0  0  0  0  0  0  0
    1.4720   11.5810   -3.5910 C   0  0  0  0  0  0  0  0  0  0  0  0
    0.4920   10.6190   -3.0050 C   0  0  0  0  0  0  0  0  0  0  0  0
    0.0400   10.6390   -1.7370 C   0  0  0  0  0  0  0  0  0  0  0  0
    0.5930   11.6440   -0.7190 C   0  0  1  0  0  0  0  0  0  0  0  0
    0.9170   10.9100    0.6090 C   0  0  0  0  0  0  0  0  0  0  0  0
   -0.2750   10.1270    1.1510 C   0  0  0  0  0  0  0  0  0  0  0  0
   -0.7600    9.0980    0.1320 C   0  0  2  0  0  0  0  0  0  0  0  0
    0.2510    8.0990   -0.0310 O   0  0  0  0  0  0  0  0  0  0  0  0
   -1.1080    9.7200   -1.2490 C   0  0  0  0  0  0  0  0  0  0  0  0
   -2.3950   10.5730   -1.1270 C   0  0  0  0  0  0  0  0  0  0  0  0
   -1.4470    8.5600   -2.2230 C   0  0  0  0  0  0  0  0  0  0  0  0
    1.7960   12.5510   -1.2240 C   0  0  1  0  0  0  0  0  0  0  0  0
    3.1510   11.8130   -0.9970 C   0  0  0  0  0  0  0  0  0  0  0  0
    1.8530   13.8610   -0.3520 C   0  0  0  0  0  0  0  0  0  0  0  0
    0.9920   15.0480   -0.8250 C   0  0  0  0  0  0  0  0  0  0  0  0
    1.2120   15.3260   -2.3150 C   0  0  2  0  0  0  0  0  0  0  0  0
    2.7120   15.7330   -2.5100 C   0  0  0  0  0  0  0  0  0  0  0  0
    2.5709   18.0683   -1.6104 H   0  0  0  0  0  0  0  0  0  0  0  0
    2.6822   17.1768   -3.1660 H   0  0  0  0  0  0  0  0  0  0  0  0
    2.4980   18.9637   -3.1660 H   0  0  0  0  0  0  0  0  0  0  0  0
    0.3063   18.5218   -3.4708 H   0  0  0  0  0  0  0  0  0  0  0  0
   -0.0267   19.4303   -1.3615 H   0  0  0  0  0  0  0  0  0  0  0  0
   -0.9347   17.8447   -1.2869 H   0  0  0  0  0  0  0  0  0  0  0  0
    0.1732   17.3351    0.5574 H   0  0  0  0  0  0  0  0  0  0  0  0
    1.6972   17.3166   -0.4251 H   0  0  0  0  0  0  0  0  0  0  0  0
    0.4082   19.1810    1.2186 H   0  0  0  0  0  0  0  0  0  0  0  0
    4.2416   17.8206    1.6604 H   0  0  0  0  0  0  0  0  0  0  0  0
    3.3620   17.4317    0.1432 H   0  0  0  0  0  0  0  0  0  0  0  0
    4.6364   18.6975    0.1432 H   0  0  0  0  0  0  0  0  0  0  0  0
    2.9403   19.6772    3.1501 H   0  0  0  0  0  0  0  0  0  0  0  0
    4.1775   20.4944    2.1360 H   0  0  0  0  0  0  0  0  0  0  0  0
    2.4818   21.0872    2.1360 H   0  0  0  0  0  0  0  0  0  0  0  0
   -0.6803   16.4001   -2.5147 H   0  0  0  0  0  0  0  0  0  0  0  0
   -0.6113   16.1769   -4.9182 H   0  0  0  0  0  0  0  0  0  0  0  0
    1.0652   16.7595   -5.0015 H   0  0  0  0  0  0  0  0  0  0  0  0
    0.2387   14.0352   -5.2581 H   0  0  0  0  0  0  0  0  0  0  0  0
    1.9011   14.5388   -4.9660 H   0  0  0  0  0  0  0  0  0  0  0  0
   -0.9875   13.6144   -1.8948 H   0  0  0  0  0  0  0  0  0  0  0  0
   -1.3688   14.4443   -3.4416 H   0  0  0  0  0  0  0  0  0  0  0  0
   -0.9269   12.7032   -3.4416 H   0  0  0  0  0  0  0  0  0  0  0  0
    2.6914   13.2392   -3.0820 H   0  0  0  0  0  0  0  0  0  0  0  0
    1.1064   11.8746   -4.5860 H   0  0  0  0  0  0  0  0  0  0  0  0
    2.4379   11.0551   -3.6136 H   0  0  0  0  0  0  0  0  0  0  0  0
    0.1070    9.8274   -3.6647 H   0  0  0  0  0  0  0  0  0  0  0  0
   -0.2068   12.3807   -0.5530 H   0  0  0  0  0  0  0  0  0  0  0  0
    1.7472   10.2104    0.4317 H   0  0  0  0  0  0  0  0  0  0  0  0
    1.1826   11.6728    1.3557 H   0  0  0  0  0  0  0  0  0  0  0  0
    0.0247    9.6072    2.0730 H   0  0  0  0  0  0  0  0  0  0  0  0
   -1.0944   10.8316    1.3561 H   0  0  0  0  0  0  0  0  0  0  0  0
   -1.6910    8.6609    0.5221 H   0  0  0  0  0  0  0  0  0  0  0  0
    1.0100    8.5170   -0.4710 H   0  0  0  0  0  0  0  0  0  0  0  0
   -2.6316   10.7298   -0.0642 H   0  0  0  0  0  0  0  0  0  0  0  0
   -2.2375   11.5461   -1.6151 H   0  0  0  0  0  0  0  0  0  0  0  0
   -3.2299   10.0489   -1.6151 H   0  0  0  0  0  0  0  0  0  0  0  0
   -1.7096    7.6613   -1.6456 H   0  0  0  0  0  0  0  0  0  0  0  0
   -2.2979    8.8502   -2.8568 H   0  0  0  0  0  0  0  0  0  0  0  0
   -0.5737    8.3464   -2.8568 H   0  0  0  0  0  0  0  0  0  0  0  0
    3.3370   11.7117    0.0824 H   0  0  0  0  0  0  0  0  0  0  0  0
    3.1063   10.8146   -1.4567 H   0  0  0  0  0  0  0  0  0  0  0  0
    3.9654   12.3921   -1.4567 H   0  0  0  0  0  0  0  0  0  0  0  0
    1.5274   13.5981    0.6653 H   0  0  0  0  0  0  0  0  0  0  0  0
    2.8929   14.2117   -0.4268 H   0  0  0  0  0  0  0  0  0  0  0  0
   -0.0691   14.8127   -0.6558 H   0  0  0  0  0  0  0  0  0  0  0  0
    1.2841   15.9421   -0.2547 H   0  0  0  0  0  0  0  0  0  0  0  0
    3.1877   15.8621   -1.5266 H   0  0  0  0  0  0  0  0  0  0  0  0
    3.2360   14.9446   -3.0702 H   0  0  0  0  0  0  0  0  0  0  0  0
    2.7656   16.6782   -3.0702 H   0  0  0  0  0  0  0  0  0  0  0  0
  1  2  1  0
  2  3  1  0
  3  4  1  0
  4  5  1  0
  5  6  1  0
  6  7  1  0
  7  8  1  0
  7  9  1  0
  2 10  1  0
 10 11  1  0
 11 12  1  0
 12 13  1  0
 13 14  1  1
 13 15  1  0
 15 16  1  0
 16 17  1  0
 17 18  2  0
 18 19  1  0
 19 20  1  0
 20 21  1  0
 21 22  1  0
 22 23  1  0
 22 24  1  0
 24 25  1  0
 24 26  1  0
 19 27  1  0
 27 28  1  6
 27 29  1  0
 29 30  1  0
 30 31  1  0
 31 32  1  1
  7  5  1  0
 31 10  1  0
 31 13  1  0
 27 15  1  0
 24 18  1  0
  1 33  1  0
  1 34  1  0
  1 35  1  0
  2 36  1  6
  3 37  1  0
  3 38  1  0
  4 39  1  0
  4 40  1  0
  5 41  1  1
  8 42  1  0
  8 43  1  0
  8 44  1  0
  9 45  1  0
  9 46  1  0
  9 47  1  0
 10 48  1  1
 11 49  1  0
 11 50  1  0
 12 51  1  0
 12 52  1  0
 14 53  1  0
 14 54  1  0
 14 55  1  0
 15 56  1  6
 16 57  1  0
 16 58  1  0
 17 59  1  0
 19 60  1  1
 20 61  1  0
 20 62  1  0
 21 63  1  0
 21 64  1  0
 22 65  1  1
 23 66  1  0
 25 67  1  0
 25 68  1  0
 25 69  1  0
 26 70  1  0
 26 71  1  0
 26 72  1  0
 28 73  1  0
 28 74  1  0
 28 75  1  0
 29 76  1  0
 29 77  1  0
 30 78  1  0
 30 79  1  0
 32 80  1  0
 32 81  1  0
 32 82  1  0
M  END
>  <meeko>  (4) 
{"is_sidechain": [false], "intermolecular_energy": 2.731, "internal_energy": -0.839}

$$$$
EPH_relaxed_0001_pdb2pqr_Repair_238_r2_0001_out
     RDKit          3D

 82 86  0  0  0  0  0  0  0  0999 V2000
   -3.4620    9.3280    0.3980 C   0  0  0  0  0  0  0  0  0  0  0  0
   -2.5860    9.6730   -0.8100 C   0  0  2  0  0  0  0  0  0  0  0  0
   -1.9000    8.4270   -1.4050 C   0  0  0  0  0  0  0  0  0  0  0  0
   -2.8080    7.6050   -2.3240 C   0  0  0  0  0  0  0  0  0  0  0  0
   -4.2420    7.6740   -1.8920 C   0  0  2  0  0  0  0  0  0  0  0  0
   -4.7870    6.4320   -1.4270 O   0  0  0  0  0  0  0  0  0  0  0  0
   -5.3700    6.9710   -2.6240 C   0  0  0  0  0  0  0  0  0  0  0  0
   -5.1140    6.1500   -3.8490 C   0  0  0  0  0  0  0  0  0  0  0  0
   -6.7670    7.4770   -2.4400 C   0  0  0  0  0  0  0  0  0  0  0  0
   -1.5370   10.7050   -0.4120 C   0  0  1  0  0  0  0  0  0  0  0  0
   -0.4590   10.1250    0.5410 C   0  0  0  0  0  0  0  0  0  0  0  0
    0.8790   10.8210    0.1800 C   0  0  0  0  0  0  0  0  0  0  0  0
    0.4700   12.0040   -0.7280 C   0  0  1  0  0  0  0  0  0  0  0  0
    0.0070   13.1240    0.2560 C   0  0  0  0  0  0  0  0  0  0  0  0
    1.5610   12.5230   -1.7210 C   0  0  2  0  0  0  0  0  0  0  0  0
    2.8280   13.0920   -1.0580 C   0  0  0  0  0  0  0  0  0  0  0  0
    2.7940   14.5570   -0.7710 C   0  0  0  0  0  0  0  0  0  0  0  0
    1.9130   15.4350   -1.2860 C   0  0  0  0  0  0  0  0  0  0  0  0
    0.8820   14.9940   -2.3330 C   0  0  1  0  0  0  0  0  0  0  0  0
    0.8550   16.0180   -3.4970 C   0  0  0  0  0  0  0  0  0  0  0  0
    0.6230   17.4460   -3.0150 C   0  0  0  0  0  0  0  0  0  0  0  0
    1.7010   17.8690   -2.0200 C   0  0  2  0  0  0  0  0  0  0  0  0
    2.9550   17.9460   -2.7050 O   0  0  0  0  0  0  0  0  0  0  0  0
    1.8270   16.9050   -0.8070 C   0  0  0  0  0  0  0  0  0  0  0  0
    0.5820   17.0480    0.1020 C   0  0  0  0  0  0  0  0  0  0  0  0
    3.0410   17.3650    0.0440 C   0  0  0  0  0  0  0  0  0  0  0  0
    1.0090   13.4930   -2.8420 C   0  0  1  0  0  0  0  0  0  0  0  0
    2.0150   13.4190   -4.0310 C   0  0  0  0  0  0  0  0  0  0  0  0
   -0.3830   13.0230   -3.4080 C   0  0  0  0  0  0  0  0  0  0  0  0
   -1.3720   12.4100   -2.3990 C   0  0  0  0  0  0  0  0  0  0  0  0
   -0.6910   11.3330   -1.5480 C   0  0  2  0  0  0  0  0  0  0  0  0
   -0.2350   10.1820   -2.5090 C   0  0  0  0  0  0  0  0  0  0  0  0
   -2.9106    9.5452    1.3247 H   0  0  0  0  0  0  0  0  0  0  0  0
   -4.3814    9.9312    0.3684 H   0  0  0  0  0  0  0  0  0  0  0  0
   -3.7232    8.2599    0.3684 H   0  0  0  0  0  0  0  0  0  0  0  0
   -3.2430   10.0903   -1.5873 H   0  0  0  0  0  0  0  0  0  0  0  0
   -1.0250    8.7558   -1.9848 H   0  0  0  0  0  0  0  0  0  0  0  0
   -1.6240    7.7778   -0.5610 H   0  0  0  0  0  0  0  0  0  0  0  0
   -2.7252    7.9954   -3.3491 H   0  0  0  0  0  0  0  0  0  0  0  0
   -2.4851    6.5546   -2.2752 H   0  0  0  0  0  0  0  0  0  0  0  0
   -4.1158    8.7134   -1.5548 H   0  0  0  0  0  0  0  0  0  0  0  0
   -4.7986    5.1385   -3.5532 H   0  0  0  0  0  0  0  0  0  0  0  0
   -6.0350    6.0867   -4.4470 H   0  0  0  0  0  0  0  0  0  0  0  0
   -4.3202    6.6214   -4.4470 H   0  0  0  0  0  0  0  0  0  0  0  0
   -6.9893    7.5575   -1.3657 H   0  0  0  0  0  0  0  0  0  0  0  0
   -6.8632    8.4671   -2.9096 H   0  0  0  0  0  0  0  0  0  0  0  0
   -7.4749    6.7782   -2.9096 H   0  0  0  0  0  0  0  0  0  0  0  0
   -2.1902   11.4678    0.0370 H   0  0  0  0  0  0  0  0  0  0  0  0
   -0.7254   10.3359    1.5872 H   0  0  0  0  0  0  0  0  0  0  0  0
   -0.3791    9.0336    0.4291 H   0  0  0  0  0  0  0  0  0  0  0  0
    1.3850   11.1841    1.0867 H   0  0  0  0  0  0  0  0  0  0  0  0
    1.5841   10.1381   -0.3165 H   0  0  0  0  0  0  0  0  0  0  0  0
    0.1480   12.7829    1.2922 H   0  0  0  0  0  0  0  0  0  0  0  0
    0.6034   14.0322    0.0846 H   0  0  0  0  0  0  0  0  0  0  0  0
   -1.0566   13.3460    0.0846 H   0  0  0  0  0  0  0  0  0  0  0  0
    1.8778   11.5994   -2.2276 H   0  0  0  0  0  0  0  0  0  0  0  0
    2.9806   12.5625   -0.1060 H   0  0  0  0  0  0  0  0  0  0  0  0
    3.6435   12.9421   -1.7808 H   0  0  0  0  0  0  0  0  0  0  0  0
    3.5532   14.9523   -0.0802 H   0  0  0  0  0  0  0  0  0  0  0  0
   -0.0904   14.9889   -1.8188 H   0  0  0  0  0  0  0  0  0  0  0  0
    1.8189   15.9765   -4.0254 H   0  0  0  0  0  0  0  0  0  0  0  0
    0.0184   15.7491   -4.1586 H   0  0  0  0  0  0  0  0  0  0  0  0
    0.6448   18.1256   -3.8797 H   0  0  0  0  0  0  0  0  0  0  0  0
   -0.3549   17.4923   -2.5133 H   0  0  0  0  0  0  0  0  0  0  0  0
    1.4091   18.8485   -1.6134 H   0  0  0  0  0  0  0  0  0  0  0  0
    2.7870   17.7750   -3.6470 H   0  0  0  0  0  0  0  0  0  0  0  0
    0.8921   17.0124    1.1568 H   0  0  0  0  0  0  0  0  0  0  0  0
    0.0871   18.0089   -0.1025 H   0  0  0  0  0  0  0  0  0  0  0  0
   -0.1178   16.2243   -0.1025 H   0  0  0  0  0  0  0  0  0  0  0  0
    2.7961   17.2722    1.1124 H   0  0  0  0  0  0  0  0  0  0  0  0
    3.9118   16.7345   -0.1887 H   0  0  0  0  0  0  0  0  0  0  0  0
    3.2754   18.4143   -0.1887 H   0  0  0  0  0  0  0  0  0  0  0  0
    3.0403   13.3436   -3.6397 H   0  0  0  0  0  0  0  0  0  0  0  0
    1.7913   12.5349   -4.6461 H   0  0  0  0  0  0  0  0  0  0  0  0
    1.9231   14.3263   -4.6461 H   0  0  0  0  0  0  0  0  0  0  0  0
   -0.8704   13.8985   -3.8618 H   0  0  0  0  0  0  0  0  0  0  0  0
   -0.1482   12.2101   -4.1109 H   0  0  0  0  0  0  0  0  0  0  0  0
   -1.7508   13.2041   -1.7387 H   0  0  0  0  0  0  0  0  0  0  0  0
   -2.1987   11.9455   -2.9565 H   0  0  0  0  0  0  0  0  0  0  0  0
    0.1059    9.3215   -1.9146 H   0  0  0  0  0  0  0  0  0  0  0  0
   -1.0804    9.8775   -3.1435 H   0  0  0  0  0  0  0  0  0  0  0  0
    0.5896   10.5391   -3.1435 H   0  0  0  0  0  0  0  0  0  0  0  0
  1  2  1  0
  2  3  1  0
  3  4  1  0
  4  5  1  0
  5  6  1  0
  6  7  1  0
  7  8  1  0
  7  9  1  0
  2 10  1  0
 10 11  1  0
 11 12  1  0
 12 13  1  0
 13 14  1  1
 13 15  1  0
 15 16  1  0
 16 17  1  0
 17 18  2  0
 18 19  1  0
 19 20  1  0
 20 21  1  0
 21 22  1  0
 22 23  1  0
 22 24  1  0
 24 25  1  0
 24 26  1  0
 19 27  1  0
 27 28  1  6
 27 29  1  0
 29 30  1  0
 30 31  1  0
 31 32  1  6
  7  5  1  0
 31 10  1  0
 31 13  1  0
 27 15  1  0
 24 18  1  0
  1 33  1  0
  1 34  1  0
  1 35  1  0
  2 36  1  6
  3 37  1  0
  3 38  1  0
  4 39  1  0
  4 40  1  0
  5 41  1  1
  8 42  1  0
  8 43  1  0
  8 44  1  0
  9 45  1  0
  9 46  1  0
  9 47  1  0
 10 48  1  1
 11 49  1  0
 11 50  1  0
 12 51  1  0
 12 52  1  0
 14 53  1  0
 14 54  1  0
 14 55  1  0
 15 56  1  6
 16 57  1  0
 16 58  1  0
 17 59  1  0
 19 60  1  1
 20 61  1  0
 20 62  1  0
 21 63  1  0
 21 64  1  0
 22 65  1  1
 23 66  1  0
 25 67  1  0
 25 68  1  0
 25 69  1  0
 26 70  1  0
 26 71  1  0
 26 72  1  0
 28 73  1  0
 28 74  1  0
 28 75  1  0
 29 76  1  0
 29 77  1  0
 30 78  1  0
 30 79  1  0
 32 80  1  0
 32 81  1  0
 32 82  1  0
M  END
>  <meeko>  (5) 
{"is_sidechain": [false], "intermolecular_energy": 2.731, "internal_energy": -0.839}

$$$$
EPH_relaxed_0001_pdb2pqr_Repair_238_r2_0001_out
     RDKit          3D

 82 86  0  0  0  0  0  0  0  0999 V2000
    2.4030   17.9450   -2.6910 C   0  0  0  0  0  0  0  0  0  0  0  0
    1.1220   17.5570   -1.9480 C   0  0  2  0  0  0  0  0  0  0  0  0
    1.3060   17.5890   -0.4180 C   0  0  0  0  0  0  0  0  0  0  0  0
    1.0340   18.9600    0.2070 C   0  0  0  0  0  0  0  0  0  0  0  0
   -0.4010   19.1090    0.6140 C   0  0  2  0  0  0  0  0  0  0  0  0
   -1.3080   18.2200   -0.0520 O   0  0  0  0  0  0  0  0  0  0  0  0
   -1.4860   19.6210   -0.3160 C   0  0  0  0  0  0  0  0  0  0  0  0
   -1.1810   20.0180   -1.7270 C   0  0  0  0  0  0  0  0  0  0  0  0
   -2.7310   20.1940    0.2850 C   0  0  0  0  0  0  0  0  0  0  0  0
    0.6650   16.1710   -2.3890 C   0  0  1  0  0  0  0  0  0  0  0  0
    0.7450   15.9770   -3.9270 C   0  0  0  0  0  0  0  0  0  0  0  0
    1.1390   14.4980   -4.1710 C   0  0  0  0  0  0  0  0  0  0  0  0
    0.9490   13.8120   -2.7980 C   0  0  1  0  0  0  0  0  0  0  0  0
   -0.5820   13.5200   -2.7040 C   0  0  0  0  0  0  0  0  0  0  0  0
    1.7990   12.5240   -2.5460 C   0  0  2  0  0  0  0  0  0  0  0  0
    1.5040   11.3510   -3.4970 C   0  0  0  0  0  0  0  0  0  0  0  0
    0.4460   10.4040   -3.0340 C   0  0  0  0  0  0  0  0  0  0  0  0
   -0.0390   10.3260   -1.7810 C   0  0  0  0  0  0  0  0  0  0  0  0
    0.5520   11.1810   -0.6530 C   0  0  1  0  0  0  0  0  0  0  0  0
    0.7900   10.2960    0.5980 C   0  0  0  0  0  0  0  0  0  0  0  0
   -0.4660    9.5450    1.0310 C   0  0  0  0  0  0  0  0  0  0  0  0
   -0.9900    8.6620   -0.0980 C   0  0  2  0  0  0  0  0  0  0  0  0
   -0.0440    7.6170   -0.3420 O   0  0  0  0  0  0  0  0  0  0  0  0
   -1.2580    9.4440   -1.4140 C   0  0  0  0  0  0  0  0  0  0  0  0
   -2.4880   10.3660   -1.2310 C   0  0  0  0  0  0  0  0  0  0  0  0
   -1.6460    8.4150   -2.5100 C   0  0  0  0  0  0  0  0  0  0  0  0
    1.8260   12.0500   -1.0360 C   0  0  1  0  0  0  0  0  0  0  0  0
    3.1220   11.2020   -0.8590 C   0  0  0  0  0  0  0  0  0  0  0  0
    1.9450   13.2580   -0.0330 C   0  0  0  0  0  0  0  0  0  0  0  0
    1.1790   14.5430   -0.3980 C   0  0  0  0  0  0  0  0  0  0  0  0
    1.4580   14.9550   -1.8470 C   0  0  2  0  0  0  0  0  0  0  0  0
    2.9860   15.2760   -1.9670 C   0  0  0  0  0  0  0  0  0  0  0  0
    3.1916   18.1838   -1.9622 H   0  0  0  0  0  0  0  0  0  0  0  0
    2.7293   17.1054   -3.3223 H   0  0  0  0  0  0  0  0  0  0  0  0
    2.2086   18.8246   -3.3223 H   0  0  0  0  0  0  0  0  0  0  0  0
    0.3530   18.3008   -2.2034 H   0  0  0  0  0  0  0  0  0  0  0  0
    0.6148   16.8600    0.0301 H   0  0  0  0  0  0  0  0  0  0  0  0
    2.3601   17.3476   -0.2163 H   0  0  0  0  0  0  0  0  0  0  0  0
    1.6709   19.0792    1.0959 H   0  0  0  0  0  0  0  0  0  0  0  0
    1.2588   19.7304   -0.5452 H   0  0  0  0  0  0  0  0  0  0  0  0
   -0.1062   19.3978    1.6336 H   0  0  0  0  0  0  0  0  0  0  0  0
   -0.5108   20.8903   -1.7258 H   0  0  0  0  0  0  0  0  0  0  0  0
   -0.6918   19.1805   -2.2460 H   0  0  0  0  0  0  0  0  0  0  0  0
   -2.1163   20.2749   -2.2460 H   0  0  0  0  0  0  0  0  0  0  0  0
   -2.6577   20.1603    1.3820 H   0  0  0  0  0  0  0  0  0  0  0  0
   -2.8497   21.2373   -0.0426 H   0  0  0  0  0  0  0  0  0  0  0  0
   -3.6007   19.6056   -0.0426 H   0  0  0  0  0  0  0  0  0  0  0  0
   -0.3536   16.1717   -1.9738 H   0  0  0  0  0  0  0  0  0  0  0  0
   -0.2313   16.1898   -4.3870 H   0  0  0  0  0  0  0  0  0  0  0  0
    1.4817   16.6609   -4.3737 H   0  0  0  0  0  0  0  0  0  0  0  0
    0.4837   14.0413   -4.9273 H   0  0  0  0  0  0  0  0  0  0  0  0
    2.1671   14.3971   -4.5490 H   0  0  0  0  0  0  0  0  0  0  0  0
   -0.8802   13.4631   -1.6467 H   0  0  0  0  0  0  0  0  0  0  0  0
   -1.1405   14.3278   -3.1995 H   0  0  0  0  0  0  0  0  0  0  0  0
   -0.8039   12.5633   -3.1995 H   0  0  0  0  0  0  0  0  0  0  0  0
    2.8164   12.8612   -2.7935 H   0  0  0  0  0  0  0  0  0  0  0  0
    1.1865   11.7689   -4.4637 H   0  0  0  0  0  0  0  0  0  0  0  0
    2.4330   10.7647   -3.5539 H   0  0  0  0  0  0  0  0  0  0  0  0
    0.0280    9.7120   -3.7799 H   0  0  0  0  0  0  0  0  0  0  0  0
   -0.2019   11.9499   -0.4285 H   0  0  0  0  0  0  0  0  0  0  0  0
    1.5770    9.5631    0.3669 H   0  0  0  0  0  0  0  0  0  0  0  0
    1.0844   10.9590    1.4249 H   0  0  0  0  0  0  0  0  0  0  0  0
   -0.2267    8.9143    1.8999 H   0  0  0  0  0  0  0  0  0  0  0  0
   -1.2422   10.2797    1.2912 H   0  0  0  0  0  0  0  0  0  0  0  0
   -1.9587    8.2531    0.2251 H   0  0  0  0  0  0  0  0  0  0  0  0
   -0.4720    6.7730   -0.1170 H   0  0  0  0  0  0  0  0  0  0  0  0
   -2.6812   10.5108   -0.1578 H   0  0  0  0  0  0  0  0  0  0  0  0
   -2.2897   11.3398   -1.7026 H   0  0  0  0  0  0  0  0  0  0  0  0
   -3.3671    9.9025   -1.7026 H   0  0  0  0  0  0  0  0  0  0  0  0
   -1.9959    7.4870   -2.0343 H   0  0  0  0  0  0  0  0  0  0  0  0
   -2.4489    8.8314   -3.1361 H   0  0  0  0  0  0  0  0  0  0  0  0
   -0.7681    8.1976   -3.1361 H   0  0  0  0  0  0  0  0  0  0  0  0
    3.3283   11.0670    0.2130 H   0  0  0  0  0  0  0  0  0  0  0  0
    2.9843   10.2187   -1.3326 H   0  0  0  0  0  0  0  0  0  0  0  0
    3.9679   11.7219   -1.3326 H   0  0  0  0  0  0  0  0  0  0  0  0
    1.5744   12.9162    0.9447 H   0  0  0  0  0  0  0  0  0  0  0  0
    3.0075   13.5422   -0.0503 H   0  0  0  0  0  0  0  0  0  0  0  0
    0.1003   14.3659   -0.2756 H   0  0  0  0  0  0  0  0  0  0  0  0
    1.5143   15.3522    0.2674 H   0  0  0  0  0  0  0  0  0  0  0  0
    3.4216   15.3675   -0.9611 H   0  0  0  0  0  0  0  0  0  0  0  0
    3.4895   14.4640   -2.5121 H   0  0  0  0  0  0  0  0  0  0  0  0
    3.1202   16.2220   -2.5121 H   0  0  0  0  0  0  0  0  0  0  0  0
  1  2  1  0
  2  3  1  0
  3  4  1  0
  4  5  1  0
  5  6  1  0
  6  7  1  0
  7  8  1  0
  7  9  1  0
  2 10  1  0
 10 11  1  0
 11 12  1  0
 12 13  1  0
 13 14  1  1
 13 15  1  0
 15 16  1  0
 16 17  1  0
 17 18  2  0
 18 19  1  0
 19 20  1  0
 20 21  1  0
 21 22  1  0
 22 23  1  0
 22 24  1  0
 24 25  1  0
 24 26  1  0
 19 27  1  0
 27 28  1  6
 27 29  1  0
 29 30  1  0
 30 31  1  0
 31 32  1  1
  7  5  1  0
 31 10  1  0
 31 13  1  0
 27 15  1  0
 24 18  1  0
  1 33  1  0
  1 34  1  0
  1 35  1  0
  2 36  1  1
  3 37  1  0
  3 38  1  0
  4 39  1  0
  4 40  1  0
  5 41  1  1
  8 42  1  0
  8 43  1  0
  8 44  1  0
  9 45  1  0
  9 46  1  0
  9 47  1  0
 10 48  1  1
 11 49  1  0
 11 50  1  0
 12 51  1  0
 12 52  1  0
 14 53  1  0
 14 54  1  0
 14 55  1  0
 15 56  1  6
 16 57  1  0
 16 58  1  0
 17 59  1  0
 19 60  1  1
 20 61  1  0
 20 62  1  0
 21 63  1  0
 21 64  1  0
 22 65  1  1
 23 66  1  0
 25 67  1  0
 25 68  1  0
 25 69  1  0
 26 70  1  0
 26 71  1  0
 26 72  1  0
 28 73  1  0
 28 74  1  0
 28 75  1  0
 29 76  1  0
 29 77  1  0
 30 78  1  0
 30 79  1  0
 32 80  1  0
 32 81  1  0
 32 82  1  0
M  END
>  <meeko>  (6) 
{"is_sidechain": [false], "intermolecular_energy": 2.731, "internal_energy": -0.839}

$$$$
EPH_relaxed_0001_pdb2pqr_Repair_238_r2_0001_out
     RDKit          3D

 82 86  0  0  0  0  0  0  0  0999 V2000
   -4.8490    6.0310   -2.2630 C   0  0  0  0  0  0  0  0  0  0  0  0
   -5.2990    7.4780   -2.0360 C   0  0  2  0  0  0  0  0  0  0  0  0
   -5.1070    7.9230   -0.5720 C   0  0  0  0  0  0  0  0  0  0  0  0
   -4.0850    9.0500   -0.4010 C   0  0  0  0  0  0  0  0  0  0  0  0
   -2.7290    8.6500   -0.8980 C   0  0  2  0  0  0  0  0  0  0  0  0
   -1.6520    8.9360    0.0040 O   0  0  0  0  0  0  0  0  0  0  0  0
   -1.6380    9.6450   -1.2460 C   0  0  0  0  0  0  0  0  0  0  0  0
   -1.8560   11.1200   -1.1110 C   0  0  0  0  0  0  0  0  0  0  0  0
   -0.5440    9.2140   -2.1720 C   0  0  0  0  0  0  0  0  0  0  0  0
   -6.7590    7.6380   -2.4420 C   0  0  1  0  0  0  0  0  0  0  0  0
   -7.0940    6.9050   -3.7680 C   0  0  0  0  0  0  0  0  0  0  0  0
   -8.5450    6.3740   -3.6320 C   0  0  0  0  0  0  0  0  0  0  0  0
   -9.1080    7.0950   -2.3850 C   0  0  1  0  0  0  0  0  0  0  0  0
   -9.5380    8.5060   -2.8970 C   0  0  0  0  0  0  0  0  0  0  0  0
  -10.2750    6.3720   -1.6370 C   0  0  2  0  0  0  0  0  0  0  0  0
  -11.5590    6.1800   -2.4630 C   0  0  0  0  0  0  0  0  0  0  0  0
  -12.5550    7.2880   -2.3620 C   0  0  0  0  0  0  0  0  0  0  0  0
  -12.5570    8.2540   -1.4250 C   0  0  0  0  0  0  0  0  0  0  0  0
  -11.5410    8.2390   -0.2750 C   0  0  1  0  0  0  0  0  0  0  0  0
  -12.2720    8.5120    1.0650 C   0  0  0  0  0  0  0  0  0  0  0  0
  -13.0960    9.7960    1.0320 C   0  0  0  0  0  0  0  0  0  0  0  0
  -14.1330    9.7490   -0.0870 C   0  0  2  0  0  0  0  0  0  0  0  0
  -15.0990    8.7390    0.2220 O   0  0  0  0  0  0  0  0  0  0  0  0
  -13.5140    9.4700   -1.4850 C   0  0  0  0  0  0  0  0  0  0  0  0
  -12.7030   10.7040   -1.9520 C   0  0  0  0  0  0  0  0  0  0  0  0
  -14.6790    9.3070   -2.4990 C   0  0  0  0  0  0  0  0  0  0  0  0
  -10.5930    6.9650   -0.2050 C   0  0  1  0  0  0  0  0  0  0  0  0
  -11.2890    5.8280    0.6030 C   0  0  0  0  0  0  0  0  0  0  0  0
   -9.2870    7.3400    0.5910 C   0  0  0  0  0  0  0  0  0  0  0  0
   -8.1250    7.9400   -0.2240 C   0  0  0  0  0  0  0  0  0  0  0  0
   -7.8320    7.0930   -1.4660 C   0  0  2  0  0  0  0  0  0  0  0  0
   -7.3760    5.6750   -0.9820 C   0  0  0  0  0  0  0  0  0  0  0  0
   -4.6957    5.5380   -1.2917 H   0  0  0  0  0  0  0  0  0  0  0  0
   -5.6218    5.4914   -2.8301 H   0  0  0  0  0  0  0  0  0  0  0  0
   -3.9065    6.0248   -2.8301 H   0  0  0  0  0  0  0  0  0  0  0  0
   -4.6662    8.1235   -2.6627 H   0  0  0  0  0  0  0  0  0  0  0  0
   -6.0760    8.2710   -0.1848 H   0  0  0  0  0  0  0  0  0  0  0  0
   -4.7224    7.0533   -0.0192 H   0  0  0  0  0  0  0  0  0  0  0  0
   -4.4266    9.9295   -0.9665 H   0  0  0  0  0  0  0  0  0  0  0  0
   -4.0030    9.2780    0.6720 H   0  0  0  0  0  0  0  0  0  0  0  0
   -3.1568    7.8010   -1.4513 H   0  0  0  0  0  0  0  0  0  0  0  0
   -1.8957   11.3887   -0.0451 H   0  0  0  0  0  0  0  0  0  0  0  0
   -1.0277   11.6588   -1.5944 H   0  0  0  0  0  0  0  0  0  0  0  0
   -2.8047   11.3962   -1.5944 H   0  0  0  0  0  0  0  0  0  0  0  0
    0.3210    8.8732   -1.5841 H   0  0  0  0  0  0  0  0  0  0  0  0
   -0.9037    8.3904   -2.8062 H   0  0  0  0  0  0  0  0  0  0  0  0
   -0.2453   10.0616   -2.8062 H   0  0  0  0  0  0  0  0  0  0  0  0
   -6.8177    8.7353   -2.4913 H   0  0  0  0  0  0  0  0  0  0  0  0
   -7.0241    7.6034   -4.6149 H   0  0  0  0  0  0  0  0  0  0  0  0
   -6.3881    6.0820   -3.9534 H   0  0  0  0  0  0  0  0  0  0  0  0
   -9.1357    6.6246   -4.5254 H   0  0  0  0  0  0  0  0  0  0  0  0
   -8.5813    5.2791   -3.5331 H   0  0  0  0  0  0  0  0  0  0  0  0
   -9.7381    9.1626   -2.0375 H   0  0  0  0  0  0  0  0  0  0  0  0
   -8.7303    8.9365   -3.5071 H   0  0  0  0  0  0  0  0  0  0  0  0
  -10.4485    8.4129   -3.5071 H   0  0  0  0  0  0  0  0  0  0  0  0
   -9.8658    5.3630   -1.4809 H   0  0  0  0  0  0  0  0  0  0  0  0
  -11.2710    6.0773   -3.5197 H   0  0  0  0  0  0  0  0  0  0  0  0
  -12.0542    5.2878   -2.0521 H   0  0  0  0  0  0  0  0  0  0  0  0
  -13.3544    7.3171   -3.1171 H   0  0  0  0  0  0  0  0  0  0  0  0
  -10.8312    9.0527   -0.4849 H   0  0  0  0  0  0  0  0  0  0  0  0
  -12.9438    7.6675    1.2785 H   0  0  0  0  0  0  0  0  0  0  0  0
  -11.5056    8.6275    1.8455 H   0  0  0  0  0  0  0  0  0  0  0  0
  -13.6116    9.9179    1.9960 H   0  0  0  0  0  0  0  0  0  0  0  0
  -12.4191   10.6434    0.8485 H   0  0  0  0  0  0  0  0  0  0  0  0
  -14.6014   10.7426   -0.1445 H   0  0  0  0  0  0  0  0  0  0  0  0
  -15.1460    8.6630    1.1900 H   0  0  0  0  0  0  0  0  0  0  0  0
  -12.3392   11.2575   -1.0737 H   0  0  0  0  0  0  0  0  0  0  0  0
  -11.8463   10.3722   -2.5570 H   0  0  0  0  0  0  0  0  0  0  0  0
  -13.3474   11.3588   -2.5570 H   0  0  0  0  0  0  0  0  0  0  0  0
  -15.6246    9.1747   -1.9529 H   0  0  0  0  0  0  0  0  0  0  0  0
  -14.7432   10.2049   -3.1312 H   0  0  0  0  0  0  0  0  0  0  0  0
  -14.4943    8.4259   -3.1312 H   0  0  0  0  0  0  0  0  0  0  0  0
  -11.1721    6.0190    1.6800 H   0  0  0  0  0  0  0  0  0  0  0  0
  -12.3591    5.8002    0.3496 H   0  0  0  0  0  0  0  0  0  0  0  0
  -10.8270    4.8624    0.3496 H   0  0  0  0  0  0  0  0  0  0  0  0
   -9.5662    8.0732    1.3620 H   0  0  0  0  0  0  0  0  0  0  0  0
   -8.9030    6.3855    0.9802 H   0  0  0  0  0  0  0  0  0  0  0  0
   -8.3946    8.9589   -0.5387 H   0  0  0  0  0  0  0  0  0  0  0  0
   -7.2253    7.9579    0.4086 H   0  0  0  0  0  0  0  0  0  0  0  0
   -7.3674    5.6481    0.1176 H   0  0  0  0  0  0  0  0  0  0  0  0
   -8.0752    4.9155   -1.3619 H   0  0  0  0  0  0  0  0  0  0  0  0
   -6.3652    5.4654   -1.3619 H   0  0  0  0  0  0  0  0  0  0  0  0
  1  2  1  0
  2  3  1  0
  3  4  1  0
  4  5  1  0
  5  6  1  0
  6  7  1  0
  7  8  1  0
  7  9  1  0
  2 10  1  0
 10 11  1  0
 11 12  1  0
 12 13  1  0
 13 14  1  6
 13 15  1  0
 15 16  1  0
 16 17  1  0
 17 18  2  0
 18 19  1  0
 19 20  1  0
 20 21  1  0
 21 22  1  0
 22 23  1  0
 22 24  1  0
 24 25  1  0
 24 26  1  0
 19 27  1  0
 27 28  1  1
 27 29  1  0
 29 30  1  0
 30 31  1  0
 31 32  1  1
  7  5  1  0
 31 10  1  0
 31 13  1  0
 27 15  1  0
 24 18  1  0
  1 33  1  0
  1 34  1  0
  1 35  1  0
  2 36  1  6
  3 37  1  0
  3 38  1  0
  4 39  1  0
  4 40  1  0
  5 41  1  6
  8 42  1  0
  8 43  1  0
  8 44  1  0
  9 45  1  0
  9 46  1  0
  9 47  1  0
 10 48  1  6
 11 49  1  0
 11 50  1  0
 12 51  1  0
 12 52  1  0
 14 53  1  0
 14 54  1  0
 14 55  1  0
 15 56  1  1
 16 57  1  0
 16 58  1  0
 17 59  1  0
 19 60  1  6
 20 61  1  0
 20 62  1  0
 21 63  1  0
 21 64  1  0
 22 65  1  6
 23 66  1  0
 25 67  1  0
 25 68  1  0
 25 69  1  0
 26 70  1  0
 26 71  1  0
 26 72  1  0
 28 73  1  0
 28 74  1  0
 28 75  1  0
 29 76  1  0
 29 77  1  0
 30 78  1  0
 30 79  1  0
 32 80  1  0
 32 81  1  0
 32 82  1  0
M  END
>  <meeko>  (7) 
{"is_sidechain": [false], "intermolecular_energy": 2.731, "internal_energy": -0.839}

$$$$
EPH_relaxed_0001_pdb2pqr_Repair_238_r2_0001_out
     RDKit          3D

 82 86  0  0  0  0  0  0  0  0999 V2000
    0.4330    8.7960   -2.3680 C   0  0  0  0  0  0  0  0  0  0  0  0
    1.1680    9.9360   -3.0780 C   0  0  2  0  0  0  0  0  0  0  0  0
    2.6720    9.9570   -2.7400 C   0  0  0  0  0  0  0  0  0  0  0  0
    3.5410   10.5790   -3.8370 C   0  0  0  0  0  0  0  0  0  0  0  0
    4.9380   10.8370   -3.3580 C   0  0  2  0  0  0  0  0  0  0  0  0
    5.5250   12.0490   -3.8500 O   0  0  0  0  0  0  0  0  0  0  0  0
    6.1500   10.8260   -4.2700 C   0  0  0  0  0  0  0  0  0  0  0  0
    6.0220   10.5490   -5.7350 C   0  0  0  0  0  0  0  0  0  0  0  0
    7.5000   10.5990   -3.6640 C   0  0  0  0  0  0  0  0  0  0  0  0
    0.5330   11.2720   -2.7100 C   0  0  1  0  0  0  0  0  0  0  0  0
   -0.8430   11.1080   -2.0130 C   0  0  0  0  0  0  0  0  0  0  0  0
   -0.9550   12.2480   -0.9690 C   0  0  0  0  0  0  0  0  0  0  0  0
    0.1980   13.2170   -1.3240 C   0  0  1  0  0  0  0  0  0  0  0  0
   -0.3510   14.0760   -2.5060 C   0  0  0  0  0  0  0  0  0  0  0  0
    0.7320   14.1120   -0.1590 C   0  0  2  0  0  0  0  0  0  0  0  0
   -0.2950   15.0920    0.4340 C   0  0  0  0  0  0  0  0  0  0  0  0
   -0.3360   16.4390   -0.2070 C   0  0  0  0  0  0  0  0  0  0  0  0
    0.6070   16.9450   -1.0240 C   0  0  0  0  0  0  0  0  0  0  0  0
    1.9060   16.1760   -1.3000 C   0  0  1  0  0  0  0  0  0  0  0  0
    3.1150   17.1400   -1.1710 C   0  0  0  0  0  0  0  0  0  0  0  0
    2.9720   18.3780   -2.0510 C   0  0  0  0  0  0  0  0  0  0  0  0
    1.6990   19.1470   -1.7070 C   0  0  2  0  0  0  0  0  0  0  0  0
    1.8280   19.6860   -0.3880 O   0  0  0  0  0  0  0  0  0  0  0  0
    0.4150   18.2760   -1.7930 C   0  0  0  0  0  0  0  0  0  0  0  0
    0.1100   17.9420   -3.2740 C   0  0  0  0  0  0  0  0  0  0  0  0
   -0.7770   19.1320   -1.2870 C   0  0  0  0  0  0  0  0  0  0  0  0
    2.1050   14.8330   -0.4730 C   0  0  1  0  0  0  0  0  0  0  0  0
    2.7670   15.1490    0.9030 C   0  0  0  0  0  0  0  0  0  0  0  0
    3.1090   13.8990   -1.2460 C   0  0  0  0  0  0  0  0  0  0  0  0
    2.5050   12.9520   -2.3000 C   0  0  0  0  0  0  0  0  0  0  0  0
    1.3110   12.1820   -1.7270 C   0  0  2  0  0  0  0  0  0  0  0  0
    1.8360   11.2920   -0.5500 C   0  0  0  0  0  0  0  0  0  0  0  0
    0.5176    8.9272   -1.2791 H   0  0  0  0  0  0  0  0  0  0  0  0
   -0.6282    8.8075   -2.6574 H   0  0  0  0  0  0  0  0  0  0  0  0
    0.8815    7.8342   -2.6574 H   0  0  0  0  0  0  0  0  0  0  0  0
    1.0756    9.7656   -4.1608 H   0  0  0  0  0  0  0  0  0  0  0  0
    2.8121   10.5365   -1.8156 H   0  0  0  0  0  0  0  0  0  0  0  0
    2.9917    8.9101   -2.6316 H   0  0  0  0  0  0  0  0  0  0  0  0
    3.5795    9.8909   -4.6944 H   0  0  0  0  0  0  0  0  0  0  0  0
    3.0936   11.5420   -4.1242 H   0  0  0  0  0  0  0  0  0  0  0  0
    4.7289   10.3336   -2.4026 H   0  0  0  0  0  0  0  0  0  0  0  0
    5.5647    9.5595   -5.8825 H   0  0  0  0  0  0  0  0  0  0  0  0
    5.3883   11.3187   -6.1997 H   0  0  0  0  0  0  0  0  0  0  0  0
    7.0189   10.5652   -6.1997 H   0  0  0  0  0  0  0  0  0  0  0  0
    7.4167   10.6130   -2.5673 H   0  0  0  0  0  0  0  0  0  0  0  0
    7.8887    9.6229   -3.9897 H   0  0  0  0  0  0  0  0  0  0  0  0
    8.1866   11.3943   -3.9897 H   0  0  0  0  0  0  0  0  0  0  0  0
    0.4955   11.7384   -3.7055 H   0  0  0  0  0  0  0  0  0  0  0  0
   -1.6539   11.1901   -2.7518 H   0  0  0  0  0  0  0  0  0  0  0  0
   -0.9266   10.1224   -1.5316 H   0  0  0  0  0  0  0  0  0  0  0  0
   -1.9276   12.7553   -1.0507 H   0  0  0  0  0  0  0  0  0  0  0  0
   -0.8844   11.8762    0.0639 H   0  0  0  0  0  0  0  0  0  0  0  0
   -0.9029   14.9395   -2.1063 H   0  0  0  0  0  0  0  0  0  0  0  0
    0.4883   14.4306   -3.1223 H   0  0  0  0  0  0  0  0  0  0  0  0
   -1.0253   13.4632   -3.1223 H   0  0  0  0  0  0  0  0  0  0  0  0
    0.9325   13.3747    0.6324 H   0  0  0  0  0  0  0  0  0  0  0  0
   -1.2926   14.6389    0.3365 H   0  0  0  0  0  0  0  0  0  0  0  0
    0.0128   15.2608    1.4765 H   0  0  0  0  0  0  0  0  0  0  0  0
   -1.2102   17.0718    0.0059 H   0  0  0  0  0  0  0  0  0  0  0  0
    1.8296   15.8094   -2.3343 H   0  0  0  0  0  0  0  0  0  0  0  0
    3.2001   17.4607   -0.1222 H   0  0  0  0  0  0  0  0  0  0  0  0
    4.0123   16.5967   -1.5020 H   0  0  0  0  0  0  0  0  0  0  0  0
    3.8417   19.0331   -1.8950 H   0  0  0  0  0  0  0  0  0  0  0  0
    2.9158   18.0576   -3.1018 H   0  0  0  0  0  0  0  0  0  0  0  0
    1.5852   19.9471   -2.4532 H   0  0  0  0  0  0  0  0  0  0  0  0
    1.7860   18.9440    0.2390 H   0  0  0  0  0  0  0  0  0  0  0  0
   -0.6311   17.1305   -3.3218 H   0  0  0  0  0  0  0  0  0  0  0  0
   -0.2910   18.8348   -3.7761 H   0  0  0  0  0  0  0  0  0  0  0  0
    1.0354   17.6235   -3.7761 H   0  0  0  0  0  0  0  0  0  0  0  0
   -0.7840   19.1370   -0.1870 H   0  0  0  0  0  0  0  0  0  0  0  0
   -0.6720   20.1623   -1.6577 H   0  0  0  0  0  0  0  0  0  0  0  0
   -1.7197   18.7033   -1.6577 H   0  0  0  0  0  0  0  0  0  0  0  0
    2.0968   14.8291    1.7144 H   0  0  0  0  0  0  0  0  0  0  0  0
    3.7225   14.6099    0.9826 H   0  0  0  0  0  0  0  0  0  0  0  0
    2.9487   16.2310    0.9826 H   0  0  0  0  0  0  0  0  0  0  0  0
    3.8378   14.5449   -1.7576 H   0  0  0  0  0  0  0  0  0  0  0  0
    3.5378   13.2388   -0.4777 H   0  0  0  0  0  0  0  0  0  0  0  0
    2.1700   13.5434   -3.1649 H   0  0  0  0  0  0  0  0  0  0  0  0
    3.2758   12.2281   -2.6031 H   0  0  0  0  0  0  0  0  0  0  0  0
    1.5629   11.7549    0.4098 H   0  0  0  0  0  0  0  0  0  0  0  0
    1.3833   10.2917   -0.6166 H   0  0  0  0  0  0  0  0  0  0  0  0
    2.9305   11.2043   -0.6166 H   0  0  0  0  0  0  0  0  0  0  0  0
  1  2  1  0
  2  3  1  0
  3  4  1  0
  4  5  1  0
  5  6  1  0
  6  7  1  0
  7  8  1  0
  7  9  1  0
  2 10  1  0
 10 11  1  0
 11 12  1  0
 12 13  1  0
 13 14  1  6
 13 15  1  0
 15 16  1  0
 16 17  1  0
 17 18  2  0
 18 19  1  0
 19 20  1  0
 20 21  1  0
 21 22  1  0
 22 23  1  0
 22 24  1  0
 24 25  1  0
 24 26  1  0
 19 27  1  0
 27 28  1  1
 27 29  1  0
 29 30  1  0
 30 31  1  0
 31 32  1  1
  7  5  1  0
 31 10  1  0
 31 13  1  0
 27 15  1  0
 24 18  1  0
  1 33  1  0
  1 34  1  0
  1 35  1  0
  2 36  1  6
  3 37  1  0
  3 38  1  0
  4 39  1  0
  4 40  1  0
  5 41  1  1
  8 42  1  0
  8 43  1  0
  8 44  1  0
  9 45  1  0
  9 46  1  0
  9 47  1  0
 10 48  1  6
 11 49  1  0
 11 50  1  0
 12 51  1  0
 12 52  1  0
 14 53  1  0
 14 54  1  0
 14 55  1  0
 15 56  1  1
 16 57  1  0
 16 58  1  0
 17 59  1  0
 19 60  1  6
 20 61  1  0
 20 62  1  0
 21 63  1  0
 21 64  1  0
 22 65  1  6
 23 66  1  0
 25 67  1  0
 25 68  1  0
 25 69  1  0
 26 70  1  0
 26 71  1  0
 26 72  1  0
 28 73  1  0
 28 74  1  0
 28 75  1  0
 29 76  1  0
 29 77  1  0
 30 78  1  0
 30 79  1  0
 32 80  1  0
 32 81  1  0
 32 82  1  0
M  END
>  <meeko>  (8) 
{"is_sidechain": [false], "intermolecular_energy": 2.731, "internal_energy": -0.839}

$$$$
EPH_relaxed_0001_pdb2pqr_Repair_238_r2_0001_out
     RDKit          3D

 82 86  0  0  0  0  0  0  0  0999 V2000
   -0.9300   16.4000   -5.8770 C   0  0  0  0  0  0  0  0  0  0  0  0
    0.1690   15.7040   -6.6840 C   0  0  2  0  0  0  0  0  0  0  0  0
   -0.2310   15.5050   -8.1600 C   0  0  0  0  0  0  0  0  0  0  0  0
    0.4200   16.5110   -9.1140 C   0  0  0  0  0  0  0  0  0  0  0  0
    1.8280   16.1240   -9.4520 C   0  0  2  0  0  0  0  0  0  0  0  0
    2.3250   16.6830  -10.6750 O   0  0  0  0  0  0  0  0  0  0  0  0
    2.1940   15.2530  -10.6390 C   0  0  0  0  0  0  0  0  0  0  0  0
    1.1480   14.7140  -11.5640 C   0  0  0  0  0  0  0  0  0  0  0  0
    3.5040   14.5280  -10.6170 C   0  0  0  0  0  0  0  0  0  0  0  0
    0.5060   14.3590   -6.0510 C   0  0  1  0  0  0  0  0  0  0  0  0
    1.7350   13.6790   -6.7100 C   0  0  0  0  0  0  0  0  0  0  0  0
    2.4890   12.9280   -5.5830 C   0  0  0  0  0  0  0  0  0  0  0  0
    1.5030   12.9210   -4.3910 C   0  0  1  0  0  0  0  0  0  0  0  0
    0.5210   11.7450   -4.6900 C   0  0  0  0  0  0  0  0  0  0  0  0
    2.1390   12.7940   -2.9680 C   0  0  2  0  0  0  0  0  0  0  0  0
    2.9090   11.4870   -2.7120 C   0  0  0  0  0  0  0  0  0  0  0  0
    2.0980   10.3710   -2.1420 C   0  0  0  0  0  0  0  0  0  0  0  0
    0.8800   10.4950   -1.5830 C   0  0  0  0  0  0  0  0  0  0  0  0
    0.2370   11.8750   -1.3940 C   0  0  1  0  0  0  0  0  0  0  0  0
   -0.3430   11.9840    0.0410 C   0  0  0  0  0  0  0  0  0  0  0  0
   -1.3010   10.8440    0.3730 C   0  0  0  0  0  0  0  0  0  0  0  0
   -0.6080    9.4910    0.2300 C   0  0  2  0  0  0  0  0  0  0  0  0
    0.4040    9.3820    1.2360 O   0  0  0  0  0  0  0  0  0  0  0  0
    0.0240    9.2710   -1.1730 C   0  0  0  0  0  0  0  0  0  0  0  0
   -1.0970    9.0870   -2.2260 C   0  0  0  0  0  0  0  0  0  0  0  0
    0.8110    7.9330   -1.1380 C   0  0  0  0  0  0  0  0  0  0  0  0
    1.1440   13.1210   -1.7820 C   0  0  1  0  0  0  0  0  0  0  0  0
    2.0240   13.5390   -0.5650 C   0  0  0  0  0  0  0  0  0  0  0  0
    0.2150   14.3520   -2.1020 C   0  0  0  0  0  0  0  0  0  0  0  0
   -0.2830   14.4880   -3.5530 C   0  0  0  0  0  0  0  0  0  0  0  0
    0.8750   14.3540   -4.5460 C   0  0  2  0  0  0  0  0  0  0  0  0
    1.8690   15.5370   -4.2840 C   0  0  0  0  0  0  0  0  0  0  0  0
   -0.7313   16.2742   -4.8024 H   0  0  0  0  0  0  0  0  0  0  0  0
   -0.9436   17.4717   -6.1243 H   0  0  0  0  0  0  0  0  0  0  0  0
   -1.9047   15.9542   -6.1243 H   0  0  0  0  0  0  0  0  0  0  0  0
    1.0547   16.3561   -6.6668 H   0  0  0  0  0  0  0  0  0  0  0  0
    0.0670   14.4917   -8.4672 H   0  0  0  0  0  0  0  0  0  0  0  0
   -1.3184   15.6590   -8.2225 H   0  0  0  0  0  0  0  0  0  0  0  0
   -0.1697   16.5557  -10.0415 H   0  0  0  0  0  0  0  0  0  0  0  0
    0.4444   17.4907   -8.6145 H   0  0  0  0  0  0  0  0  0  0  0  0
    2.0937   16.0681   -8.3860 H   0  0  0  0  0  0  0  0  0  0  0  0
    0.3220   14.2884  -10.9753 H   0  0  0  0  0  0  0  0  0  0  0  0
    0.7652   15.5271  -12.1983 H   0  0  0  0  0  0  0  0  0  0  0  0
    1.5880   13.9304  -12.1983 H   0  0  0  0  0  0  0  0  0  0  0  0
    3.8114   14.3579   -9.5746 H   0  0  0  0  0  0  0  0  0  0  0  0
    3.3965   13.5610  -11.1301 H   0  0  0  0  0  0  0  0  0  0  0  0
    4.2663   15.1326  -11.1301 H   0  0  0  0  0  0  0  0  0  0  0  0
   -0.4503   13.8380   -6.2060 H   0  0  0  0  0  0  0  0  0  0  0  0
    1.4058   12.9695   -7.4834 H   0  0  0  0  0  0  0  0  0  0  0  0
    2.3859   14.4228   -7.1928 H   0  0  0  0  0  0  0  0  0  0  0  0
    2.7292   11.9007   -5.8943 H   0  0  0  0  0  0  0  0  0  0  0  0
    3.4459   13.4078   -5.3299 H   0  0  0  0  0  0  0  0  0  0  0  0
    0.1630   11.3163   -3.7423 H   0  0  0  0  0  0  0  0  0  0  0  0
   -0.3354   12.1207   -5.2692 H   0  0  0  0  0  0  0  0  0  0  0  0
    1.0434   10.9693   -5.2692 H   0  0  0  0  0  0  0  0  0  0  0  0
    2.8976   13.5905   -2.9765 H   0  0  0  0  0  0  0  0  0  0  0  0
    3.3295   11.1469   -3.6699 H   0  0  0  0  0  0  0  0  0  0  0  0
    3.6718   11.7259   -1.9563 H   0  0  0  0  0  0  0  0  0  0  0  0
    2.5328    9.3614   -2.1822 H   0  0  0  0  0  0  0  0  0  0  0  0
   -0.5774   11.9348   -2.1310 H   0  0  0  0  0  0  0  0  0  0  0  0
    0.4893   11.9659    0.7600 H   0  0  0  0  0  0  0  0  0  0  0  0
   -0.9098   12.9248    0.1014 H   0  0  0  0  0  0  0  0  0  0  0  0
   -1.6541   10.9602    1.4083 H   0  0  0  0  0  0  0  0  0  0  0  0
   -2.1478   10.8810   -0.3281 H   0  0  0  0  0  0  0  0  0  0  0  0
   -1.3759    8.7131    0.3533 H   0  0  0  0  0  0  0  0  0  0  0  0
   -0.0420    9.3480    2.0990 H   0  0  0  0  0  0  0  0  0  0  0  0
   -2.0581    8.9293   -1.7147 H   0  0  0  0  0  0  0  0  0  0  0  0
   -1.1600    9.9868   -2.8556 H   0  0  0  0  0  0  0  0  0  0  0  0
   -0.8690    8.2143   -2.8556 H   0  0  0  0  0  0  0  0  0  0  0  0
    0.9850    7.6372   -0.0929 H   0  0  0  0  0  0  0  0  0  0  0  0
    0.2286    7.1516   -1.6481 H   0  0  0  0  0  0  0  0  0  0  0  0
    1.7769    8.0623   -1.6481 H   0  0  0  0  0  0  0  0  0  0  0  0
    1.4997   13.2899    0.3694 H   0  0  0  0  0  0  0  0  0  0  0  0
    2.9820   12.9997   -0.6028 H   0  0  0  0  0  0  0  0  0  0  0  0
    2.2113   14.6223   -0.6028 H   0  0  0  0  0  0  0  0  0  0  0  0
   -0.6695   14.2791   -1.4521 H   0  0  0  0  0  0  0  0  0  0  0  0
    0.8426   15.2387   -1.9290 H   0  0  0  0  0  0  0  0  0  0  0  0
   -1.0228   13.6993   -3.7547 H   0  0  0  0  0  0  0  0  0  0  0  0
   -0.7364   15.4826   -3.6759 H   0  0  0  0  0  0  0  0  0  0  0  0
    1.9900   15.6810   -3.2002 H   0  0  0  0  0  0  0  0  0  0  0  0
    2.8450   15.3024   -4.7340 H   0  0  0  0  0  0  0  0  0  0  0  0
    1.4697   16.4579   -4.7340 H   0  0  0  0  0  0  0  0  0  0  0  0
  1  2  1  0
  2  3  1  0
  3  4  1  0
  4  5  1  0
  5  6  1  0
  6  7  1  0
  7  8  1  0
  7  9  1  0
  2 10  1  0
 10 11  1  0
 11 12  1  0
 12 13  1  0
 13 14  1  6
 13 15  1  0
 15 16  1  0
 16 17  1  0
 17 18  2  0
 18 19  1  0
 19 20  1  0
 20 21  1  0
 21 22  1  0
 22 23  1  0
 22 24  1  0
 24 25  1  0
 24 26  1  0
 19 27  1  0
 27 28  1  1
 27 29  1  0
 29 30  1  0
 30 31  1  0
 31 32  1  6
  7  5  1  0
 31 10  1  0
 31 13  1  0
 27 15  1  0
 24 18  1  0
  1 33  1  0
  1 34  1  0
  1 35  1  0
  2 36  1  6
  3 37  1  0
  3 38  1  0
  4 39  1  0
  4 40  1  0
  5 41  1  1
  8 42  1  0
  8 43  1  0
  8 44  1  0
  9 45  1  0
  9 46  1  0
  9 47  1  0
 10 48  1  1
 11 49  1  0
 11 50  1  0
 12 51  1  0
 12 52  1  0
 14 53  1  0
 14 54  1  0
 14 55  1  0
 15 56  1  6
 16 57  1  0
 16 58  1  0
 17 59  1  0
 19 60  1  6
 20 61  1  0
 20 62  1  0
 21 63  1  0
 21 64  1  0
 22 65  1  1
 23 66  1  0
 25 67  1  0
 25 68  1  0
 25 69  1  0
 26 70  1  0
 26 71  1  0
 26 72  1  0
 28 73  1  0
 28 74  1  0
 28 75  1  0
 29 76  1  0
 29 77  1  0
 30 78  1  0
 30 79  1  0
 32 80  1  0
 32 81  1  0
 32 82  1  0
M  END
>  <meeko>  (9) 
{"is_sidechain": [false], "intermolecular_energy": 2.731, "internal_energy": -0.839}

$$$$
EPH_relaxed_0001_pdb2pqr_Repair_238_r2_0001_out
     RDKit          3D

 82 86  0  0  0  0  0  0  0  0999 V2000
    3.1080   19.3690   -0.5750 C   0  0  0  0  0  0  0  0  0  0  0  0
    2.7190   18.4520   -1.7380 C   0  0  2  0  0  0  0  0  0  0  0  0
    1.2590   18.6680   -2.1860 C   0  0  0  0  0  0  0  0  0  0  0  0
    0.6670   20.0030   -1.7280 C   0  0  0  0  0  0  0  0  0  0  0  0
   -0.3630   19.8140   -0.6550 C   0  0  2  0  0  0  0  0  0  0  0  0
   -1.1750   18.6430   -0.8040 O   0  0  0  0  0  0  0  0  0  0  0  0
   -1.8570   19.9040   -0.9030 C   0  0  0  0  0  0  0  0  0  0  0  0
   -2.4050   20.1940   -2.2650 C   0  0  0  0  0  0  0  0  0  0  0  0
   -2.7590   20.1940    0.2560 C   0  0  0  0  0  0  0  0  0  0  0  0
    2.9330   16.9950   -1.3460 C   0  0  1  0  0  0  0  0  0  0  0  0
    3.6650   16.8440    0.0150 C   0  0  0  0  0  0  0  0  0  0  0  0
    3.0760   15.5850    0.7020 C   0  0  0  0  0  0  0  0  0  0  0  0
    2.2760   14.8710   -0.4120 C   0  0  1  0  0  0  0  0  0  0  0  0
    3.3450   14.0790   -1.2290 C   0  0  0  0  0  0  0  0  0  0  0  0
    1.1090   13.9450    0.0610 C   0  0  2  0  0  0  0  0  0  0  0  0
    1.5370   12.7440    0.9230 C   0  0  0  0  0  0  0  0  0  0  0  0
    1.8480   11.4950    0.1670 C   0  0  0  0  0  0  0  0  0  0  0  0
    1.5150   11.2530   -1.1140 C   0  0  0  0  0  0  0  0  0  0  0  0
    0.6680   12.2540   -1.9110 C   0  0  1  0  0  0  0  0  0  0  0  0
   -0.4570   11.4970   -2.6640 C   0  0  0  0  0  0  0  0  0  0  0  0
    0.0810   10.3650   -3.5340 C   0  0  0  0  0  0  0  0  0  0  0  0
    0.8680    9.3600   -2.6980 C   0  0  2  0  0  0  0  0  0  0  0  0
   -0.0330    8.6970   -1.8060 O   0  0  0  0  0  0  0  0  0  0  0  0
    2.0230   10.0100   -1.8860 C   0  0  0  0  0  0  0  0  0  0  0  0
    3.1470   10.4620   -2.8500 C   0  0  0  0  0  0  0  0  0  0  0  0
    2.6450    8.9140   -0.9790 C   0  0  0  0  0  0  0  0  0  0  0  0
    0.1220   13.5040   -1.0940 C   0  0  1  0  0  0  0  0  0  0  0  0
   -1.2320   13.1410   -0.4100 C   0  0  0  0  0  0  0  0  0  0  0  0
   -0.1880   14.6770   -2.0970 C   0  0  0  0  0  0  0  0  0  0  0  0
    0.9760   15.6300   -2.4330 C   0  0  0  0  0  0  0  0  0  0  0  0
    1.6710   16.1160   -1.1580 C   0  0  2  0  0  0  0  0  0  0  0  0
    0.6260   16.9350   -0.3250 C   0  0  0  0  0  0  0  0  0  0  0  0
    2.8935   18.8634    0.3781 H   0  0  0  0  0  0  0  0  0  0  0  0
    4.1818   19.6004   -0.6338 H   0  0  0  0  0  0  0  0  0  0  0  0
    2.5281   20.3019   -0.6338 H   0  0  0  0  0  0  0  0  0  0  0  0
    3.3666   18.7068   -2.5899 H   0  0  0  0  0  0  0  0  0  0  0  0
    1.2236   18.6309   -3.2848 H   0  0  0  0  0  0  0  0  0  0  0  0
    0.6584   17.8728   -1.7202 H   0  0  0  0  0  0  0  0  0  0  0  0
    1.4768   20.6367   -1.3372 H   0  0  0  0  0  0  0  0  0  0  0  0
    0.1785   20.4761   -2.5926 H   0  0  0  0  0  0  0  0  0  0  0  0
    0.2912   20.2922    0.0889 H   0  0  0  0  0  0  0  0  0  0  0  0
   -3.3735   20.7066   -2.1690 H   0  0  0  0  0  0  0  0  0  0  0  0
   -1.7020   20.8381   -2.8136 H   0  0  0  0  0  0  0  0  0  0  0  0
   -2.5422   19.2505   -2.8136 H   0  0  0  0  0  0  0  0  0  0  0  0
   -2.2155   20.0193    1.1963 H   0  0  0  0  0  0  0  0  0  0  0  0
   -3.0872   21.2430    0.2117 H   0  0  0  0  0  0  0  0  0  0  0  0
   -3.6370   19.5329    0.2117 H   0  0  0  0  0  0  0  0  0  0  0  0
    3.5041   16.6507   -2.2208 H   0  0  0  0  0  0  0  0  0  0  0  0
    4.7453   16.7162   -0.1480 H   0  0  0  0  0  0  0  0  0  0  0  0
    3.5243   17.7378    0.6406 H   0  0  0  0  0  0  0  0  0  0  0  0
    3.8803   14.9363    1.0791 H   0  0  0  0  0  0  0  0  0  0  0  0
    2.4486   15.8381    1.5693 H   0  0  0  0  0  0  0  0  0  0  0  0
    4.0321   13.5699   -0.5371 H   0  0  0  0  0  0  0  0  0  0  0  0
    2.8434   13.3329   -1.8628 H   0  0  0  0  0  0  0  0  0  0  0  0
    3.9127   14.7762   -1.8628 H   0  0  0  0  0  0  0  0  0  0  0  0
    0.5407   14.6067    0.7311 H   0  0  0  0  0  0  0  0  0  0  0  0
    2.4365   13.0333    1.4862 H   0  0  0  0  0  0  0  0  0  0  0  0
    0.6743   12.5057    1.5626 H   0  0  0  0  0  0  0  0  0  0  0  0
    2.3958   10.7056    0.7025 H   0  0  0  0  0  0  0  0  0  0  0  0
    1.3510   12.7222   -2.6350 H   0  0  0  0  0  0  0  0  0  0  0  0
   -1.1530   11.0735   -1.9249 H   0  0  0  0  0  0  0  0  0  0  0  0
   -0.9592   12.2176   -3.3263 H   0  0  0  0  0  0  0  0  0  0  0  0
   -0.7628    9.8495   -4.0160 H   0  0  0  0  0  0  0  0  0  0  0  0
    0.7536   10.7941   -4.2913 H   0  0  0  0  0  0  0  0  0  0  0  0
    1.3357    8.6471   -3.3930 H   0  0  0  0  0  0  0  0  0  0  0  0
   -0.7700    9.3050   -1.6270 H   0  0  0  0  0  0  0  0  0  0  0  0
    4.0123   10.8100   -2.2668 H   0  0  0  0  0  0  0  0  0  0  0  0
    3.4487    9.6153   -3.4841 H   0  0  0  0  0  0  0  0  0  0  0  0
    2.7785   11.2819   -3.4841 H   0  0  0  0  0  0  0  0  0  0  0  0
    2.4929    9.1821    0.0769 H   0  0  0  0  0  0  0  0  0  0  0  0
    2.1603    7.9484   -1.1857 H   0  0  0  0  0  0  0  0  0  0  0  0
    3.7225    8.8350   -1.1857 H   0  0  0  0  0  0  0  0  0  0  0  0
   -1.1110   13.1734    0.6828 H   0  0  0  0  0  0  0  0  0  0  0  0
   -2.0025   13.8643   -0.7152 H   0  0  0  0  0  0  0  0  0  0  0  0
   -1.5374   12.1293   -0.7152 H   0  0  0  0  0  0  0  0  0  0  0  0
   -0.5320   14.2266   -3.0397 H   0  0  0  0  0  0  0  0  0  0  0  0
   -0.9342   15.3031   -1.5859 H   0  0  0  0  0  0  0  0  0  0  0  0
    1.7064   15.0988   -3.0610 H   0  0  0  0  0  0  0  0  0  0  0  0
    0.5722   16.5027   -2.9671 H   0  0  0  0  0  0  0  0  0  0  0  0
    0.8154   16.7866    0.7484 H   0  0  0  0  0  0  0  0  0  0  0  0
    0.7187   18.0035   -0.5694 H   0  0  0  0  0  0  0  0  0  0  0  0
   -0.3894   16.5897   -0.5694 H   0  0  0  0  0  0  0  0  0  0  0  0
  1  2  1  0
  2  3  1  0
  3  4  1  0
  4  5  1  0
  5  6  1  0
  6  7  1  0
  7  8  1  0
  7  9  1  0
  2 10  1  0
 10 11  1  0
 11 12  1  0
 12 13  1  0
 13 14  1  6
 13 15  1  0
 15 16  1  0
 16 17  1  0
 17 18  2  0
 18 19  1  0
 19 20  1  0
 20 21  1  0
 21 22  1  0
 22 23  1  0
 22 24  1  0
 24 25  1  0
 24 26  1  0
 19 27  1  0
 27 28  1  1
 27 29  1  0
 29 30  1  0
 30 31  1  0
 31 32  1  1
  7  5  1  0
 31 10  1  0
 31 13  1  0
 27 15  1  0
 24 18  1  0
  1 33  1  0
  1 34  1  0
  1 35  1  0
  2 36  1  6
  3 37  1  0
  3 38  1  0
  4 39  1  0
  4 40  1  0
  5 41  1  1
  8 42  1  0
  8 43  1  0
  8 44  1  0
  9 45  1  0
  9 46  1  0
  9 47  1  0
 10 48  1  6
 11 49  1  0
 11 50  1  0
 12 51  1  0
 12 52  1  0
 14 53  1  0
 14 54  1  0
 14 55  1  0
 15 56  1  1
 16 57  1  0
 16 58  1  0
 17 59  1  0
 19 60  1  6
 20 61  1  0
 20 62  1  0
 21 63  1  0
 21 64  1  0
 22 65  1  6
 23 66  1  0
 25 67  1  0
 25 68  1  0
 25 69  1  0
 26 70  1  0
 26 71  1  0
 26 72  1  0
 28 73  1  0
 28 74  1  0
 28 75  1  0
 29 76  1  0
 29 77  1  0
 30 78  1  0
 30 79  1  0
 32 80  1  0
 32 81  1  0
 32 82  1  0
M  END
>  <meeko>  (10) 
{"is_sidechain": [false], "intermolecular_energy": 2.731, "internal_energy": -0.839}

$$$$
EPH_relaxed_0001_pdb2pqr_Repair_238_r2_0001_out
     RDKit          3D

 82 86  0  0  0  0  0  0  0  0999 V2000
   -0.0410    9.4410   -2.6730 C   0  0  0  0  0  0  0  0  0  0  0  0
    1.0610   10.4330   -3.0550 C   0  0  2  0  0  0  0  0  0  0  0  0
    2.4460    9.7600   -3.1320 C   0  0  0  0  0  0  0  0  0  0  0  0
    3.4360   10.4930   -4.0420 C   0  0  0  0  0  0  0  0  0  0  0  0
    4.7880   10.6140   -3.4070 C   0  0  2  0  0  0  0  0  0  0  0  0
    5.4330   11.8780   -3.6070 O   0  0  0  0  0  0  0  0  0  0  0  0
    6.0760   10.7390   -4.1990 C   0  0  0  0  0  0  0  0  0  0  0  0
    6.0740   10.7480   -5.6960 C   0  0  0  0  0  0  0  0  0  0  0  0
    7.3640   10.3610   -3.5360 C   0  0  0  0  0  0  0  0  0  0  0  0
    1.0950   11.5830   -2.0560 C   0  0  1  0  0  0  0  0  0  0  0  0
    2.1710   11.3860   -0.9550 C   0  0  0  0  0  0  0  0  0  0  0  0
    2.7250   12.7930   -0.6140 C   0  0  0  0  0  0  0  0  0  0  0  0
    1.7300   13.7750   -1.2770 C   0  0  1  0  0  0  0  0  0  0  0  0
    0.5320   13.8670   -0.2810 C   0  0  0  0  0  0  0  0  0  0  0  0
    2.2910   15.1890   -1.6370 C   0  0  2  0  0  0  0  0  0  0  0  0
    2.7660   16.0270   -0.4370 C   0  0  0  0  0  0  0  0  0  0  0  0
    1.7270   16.9050    0.1780 C   0  0  0  0  0  0  0  0  0  0  0  0
    0.5490   17.2340   -0.3820 C   0  0  0  0  0  0  0  0  0  0  0  0
    0.2020   16.7850   -1.8080 C   0  0  1  0  0  0  0  0  0  0  0  0
   -0.3770   17.9860   -2.6020 C   0  0  0  0  0  0  0  0  0  0  0  0
   -1.5580   18.6410   -1.8930 C   0  0  0  0  0  0  0  0  0  0  0  0
   -1.1590   19.1250   -0.5020 C   0  0  2  0  0  0  0  0  0  0  0  0
   -0.2170   20.1930   -0.6380 O   0  0  0  0  0  0  0  0  0  0  0  0
   -0.5530   18.0030    0.3870 C   0  0  0  0  0  0  0  0  0  0  0  0
   -1.6620   16.9980    0.7840 C   0  0  0  0  0  0  0  0  0  0  0  0
   -0.0640   18.6540    1.7090 C   0  0  0  0  0  0  0  0  0  0  0  0
    1.3580   16.0320   -2.5980 C   0  0  1  0  0  0  0  0  0  0  0  0
    2.2760   17.0680   -3.3150 C   0  0  0  0  0  0  0  0  0  0  0  0
    0.7140   15.1490   -3.7320 C   0  0  0  0  0  0  0  0  0  0  0  0
    0.2900   13.7200   -3.3440 C   0  0  0  0  0  0  0  0  0  0  0  0
    1.4190   12.9940   -2.6060 C   0  0  2  0  0  0  0  0  0  0  0  0
    2.6300   12.8670   -3.5910 C   0  0  0  0  0  0  0  0  0  0  0  0
   -0.1126    9.3766   -1.5772 H   0  0  0  0  0  0  0  0  0  0  0  0
   -1.0019    9.7844   -3.0837 H   0  0  0  0  0  0  0  0  0  0  0  0
    0.1998    8.4494   -3.0837 H   0  0  0  0  0  0  0  0  0  0  0  0
    0.8255   10.8195   -4.0576 H   0  0  0  0  0  0  0  0  0  0  0  0
    2.8700    9.7206   -2.1178 H   0  0  0  0  0  0  0  0  0  0  0  0
    2.2940    8.7590   -3.5621 H   0  0  0  0  0  0  0  0  0  0  0  0
    3.5337    9.9351   -4.9849 H   0  0  0  0  0  0  0  0  0  0  0  0
    3.0499   11.5071   -4.2221 H   0  0  0  0  0  0  0  0  0  0  0  0
    4.4879    9.9458   -2.5863 H   0  0  0  0  0  0  0  0  0  0  0  0
    5.8485   11.7626   -6.0563 H   0  0  0  0  0  0  0  0  0  0  0  0
    7.0628   10.4389   -6.0659 H   0  0  0  0  0  0  0  0  0  0  0  0
    5.3093   10.0492   -6.0659 H   0  0  0  0  0  0  0  0  0  0  0  0
    7.2388   10.3978   -2.4438 H   0  0  0  0  0  0  0  0  0  0  0  0
    7.6469    9.3420   -3.8385 H   0  0  0  0  0  0  0  0  0  0  0  0
    8.1527   11.0656   -3.8385 H   0  0  0  0  0  0  0  0  0  0  0  0
    0.0548   11.5482   -1.6998 H   0  0  0  0  0  0  0  0  0  0  0  0
    1.7196   10.9299   -0.0616 H   0  0  0  0  0  0  0  0  0  0  0  0
    2.9738   10.7190   -1.3023 H   0  0  0  0  0  0  0  0  0  0  0  0
    2.7539   12.9456    0.4750 H   0  0  0  0  0  0  0  0  0  0  0  0
    3.7544   12.9349   -0.9748 H   0  0  0  0  0  0  0  0  0  0  0  0
    0.9105   13.8379    0.7514 H   0  0  0  0  0  0  0  0  0  0  0  0
   -0.0107   14.8095   -0.4462 H   0  0  0  0  0  0  0  0  0  0  0  0
   -0.1482   13.0184   -0.4462 H   0  0  0  0  0  0  0  0  0  0  0  0
    3.1984   14.9440   -2.2085 H   0  0  0  0  0  0  0  0  0  0  0  0
    3.1292   15.3359    0.3379 H   0  0  0  0  0  0  0  0  0  0  0  0
    3.5437   16.7012   -0.8251 H   0  0  0  0  0  0  0  0  0  0  0  0
    1.9432   17.3182    1.1742 H   0  0  0  0  0  0  0  0  0  0  0  0
   -0.5638   16.0024   -1.7031 H   0  0  0  0  0  0  0  0  0  0  0  0
    0.4160   18.7370   -2.7335 H   0  0  0  0  0  0  0  0  0  0  0  0
   -0.7376   17.6045   -3.5687 H   0  0  0  0  0  0  0  0  0  0  0  0
   -1.9036   19.4996   -2.4875 H   0  0  0  0  0  0  0  0  0  0  0  0
   -2.3614   17.8969   -1.7887 H   0  0  0  0  0  0  0  0  0  0  0  0
   -2.0746   19.4652    0.0039 H   0  0  0  0  0  0  0  0  0  0  0  0
    0.6390   19.8750   -0.3030 H   0  0  0  0  0  0  0  0  0  0  0  0
   -1.7276   16.9386    1.8804 H   0  0  0  0  0  0  0  0  0  0  0  0
   -2.6262   17.3363    0.3768 H   0  0  0  0  0  0  0  0  0  0  0  0
   -1.4200   16.0052    0.3768 H   0  0  0  0  0  0  0  0  0  0  0  0
   -0.4789   18.1017    2.5651 H   0  0  0  0  0  0  0  0  0  0  0  0
    1.0348   18.6213    1.7493 H   0  0  0  0  0  0  0  0  0  0  0  0
   -0.4015   19.7002    1.7493 H   0  0  0  0  0  0  0  0  0  0  0  0
    2.8083   17.6687   -2.5628 H   0  0  0  0  0  0  0  0  0  0  0  0
    3.0060   16.5375   -3.9441 H   0  0  0  0  0  0  0  0  0  0  0  0
    1.6615   17.7288   -3.9441 H   0  0  0  0  0  0  0  0  0  0  0  0
   -0.1815   15.6747   -4.0948 H   0  0  0  0  0  0  0  0  0  0  0  0
    1.5085   15.0196   -4.4817 H   0  0  0  0  0  0  0  0  0  0  0  0
   -0.5926   13.7718   -2.6895 H   0  0  0  0  0  0  0  0  0  0  0  0
    0.0561   13.1621   -4.2627 H   0  0  0  0  0  0  0  0  0  0  0  0
    3.5622   12.7692   -3.0153 H   0  0  0  0  0  0  0  0  0  0  0  0
    2.4955   11.9780   -4.2248 H   0  0  0  0  0  0  0  0  0  0  0  0
    2.6828   13.7645   -4.2248 H   0  0  0  0  0  0  0  0  0  0  0  0
  1  2  1  0
  2  3  1  0
  3  4  1  0
  4  5  1  0
  5  6  1  0
  6  7  1  0
  7  8  1  0
  7  9  1  0
  2 10  1  0
 10 11  1  0
 11 12  1  0
 12 13  1  0
 13 14  1  1
 13 15  1  0
 15 16  1  0
 16 17  1  0
 17 18  2  0
 18 19  1  0
 19 20  1  0
 20 21  1  0
 21 22  1  0
 22 23  1  0
 22 24  1  0
 24 25  1  0
 24 26  1  0
 19 27  1  0
 27 28  1  6
 27 29  1  0
 29 30  1  0
 30 31  1  0
 31 32  1  6
  7  5  1  0
 31 10  1  0
 31 13  1  0
 27 15  1  0
 24 18  1  0
  1 33  1  0
  1 34  1  0
  1 35  1  0
  2 36  1  6
  3 37  1  0
  3 38  1  0
  4 39  1  0
  4 40  1  0
  5 41  1  1
  8 42  1  0
  8 43  1  0
  8 44  1  0
  9 45  1  0
  9 46  1  0
  9 47  1  0
 10 48  1  1
 11 49  1  0
 11 50  1  0
 12 51  1  0
 12 52  1  0
 14 53  1  0
 14 54  1  0
 14 55  1  0
 15 56  1  6
 16 57  1  0
 16 58  1  0
 17 59  1  0
 19 60  1  1
 20 61  1  0
 20 62  1  0
 21 63  1  0
 21 64  1  0
 22 65  1  1
 23 66  1  0
 25 67  1  0
 25 68  1  0
 25 69  1  0
 26 70  1  0
 26 71  1  0
 26 72  1  0
 28 73  1  0
 28 74  1  0
 28 75  1  0
 29 76  1  0
 29 77  1  0
 30 78  1  0
 30 79  1  0
 32 80  1  0
 32 81  1  0
 32 82  1  0
M  END
>  <meeko>  (11) 
{"is_sidechain": [false], "intermolecular_energy": 2.731, "internal_energy": -0.839}

$$$$
EPH_relaxed_0001_pdb2pqr_Repair_238_r2_0001_out
     RDKit          3D

 82 86  0  0  0  0  0  0  0  0999 V2000
   -3.7240    7.2220   -3.5050 C   0  0  0  0  0  0  0  0  0  0  0  0
   -3.7180    7.2780   -1.9740 C   0  0  2  0  0  0  0  0  0  0  0  0
   -5.1170    7.0240   -1.3790 C   0  0  0  0  0  0  0  0  0  0  0  0
   -6.2540    7.1740   -2.3930 C   0  0  0  0  0  0  0  0  0  0  0  0
   -7.5680    7.4290   -1.7190 C   0  0  2  0  0  0  0  0  0  0  0  0
   -8.1800    6.2690   -1.1400 O   0  0  0  0  0  0  0  0  0  0  0  0
   -8.8900    6.8840   -2.2280 C   0  0  0  0  0  0  0  0  0  0  0  0
   -8.9620    6.0400   -3.4620 C   0  0  0  0  0  0  0  0  0  0  0  0
  -10.1540    7.5690   -1.8120 C   0  0  0  0  0  0  0  0  0  0  0  0
   -3.1890    8.6280   -1.5060 C   0  0  1  0  0  0  0  0  0  0  0  0
   -3.8380    9.0950   -0.1750 C   0  0  0  0  0  0  0  0  0  0  0  0
   -2.7420    9.8560    0.6140 C   0  0  0  0  0  0  0  0  0  0  0  0
   -1.6120   10.0910   -0.4160 C   0  0  1  0  0  0  0  0  0  0  0  0
   -2.0670   11.3390   -1.2340 C   0  0  0  0  0  0  0  0  0  0  0  0
   -0.1730   10.2770    0.1680 C   0  0  2  0  0  0  0  0  0  0  0  0
    0.0080   11.5030    1.0790 C   0  0  0  0  0  0  0  0  0  0  0  0
    0.4320   12.7560    0.3850 C   0  0  0  0  0  0  0  0  0  0  0  0
    0.9320   12.8280   -0.8620 C   0  0  0  0  0  0  0  0  0  0  0  0
    1.2070   11.5560   -1.6750 C   0  0  1  0  0  0  0  0  0  0  0  0
    2.6120   11.6520   -2.3270 C   0  0  0  0  0  0  0  0  0  0  0  0
    2.7880   12.9220   -3.1530 C   0  0  0  0  0  0  0  0  0  0  0  0
    2.5640   14.1660   -2.2960 C   0  0  2  0  0  0  0  0  0  0  0  0
    3.6100   14.2500   -1.3240 O   0  0  0  0  0  0  0  0  0  0  0  0
    1.1840   14.1760   -1.5810 C   0  0  0  0  0  0  0  0  0  0  0  0
    0.0590   14.3890   -2.6240 C   0  0  0  0  0  0  0  0  0  0  0  0
    1.1430   15.4110   -0.6410 C   0  0  0  0  0  0  0  0  0  0  0  0
    0.9810   10.1820   -0.9100 C   0  0  1  0  0  0  0  0  0  0  0  0
    2.2770    9.7820   -0.1410 C   0  0  0  0  0  0  0  0  0  0  0  0
    0.7220    9.0420   -1.9660 C   0  0  0  0  0  0  0  0  0  0  0  0
   -0.7370    8.8290   -2.4130 C   0  0  0  0  0  0  0  0  0  0  0  0
   -1.6730    8.7320   -1.2050 C   0  0  2  0  0  0  0  0  0  0  0  0
   -1.2530    7.4720   -0.3740 C   0  0  0  0  0  0  0  0  0  0  0  0
   -3.8358    6.1781   -3.8333 H   0  0  0  0  0  0  0  0  0  0  0  0
   -4.5633    7.8195   -3.8905 H   0  0  0  0  0  0  0  0  0  0  0  0
   -2.7772    7.6282   -3.8905 H   0  0  0  0  0  0  0  0  0  0  0  0
   -3.0566    6.4756   -1.6152 H   0  0  0  0  0  0  0  0  0  0  0  0
   -5.1428    6.0003   -0.9773 H   0  0  0  0  0  0  0  0  0  0  0  0
   -5.2781    7.7846   -0.6009 H   0  0  0  0  0  0  0  0  0  0  0  0
   -6.0266    8.0176   -3.0613 H   0  0  0  0  0  0  0  0  0  0  0  0
   -6.3354    6.2339   -2.9583 H   0  0  0  0  0  0  0  0  0  0  0  0
   -7.2494    8.4416   -1.4306 H   0  0  0  0  0  0  0  0  0  0  0  0
   -9.0523    4.9813   -3.1774 H   0  0  0  0  0  0  0  0  0  0  0  0
   -9.8382    6.3355   -4.0578 H   0  0  0  0  0  0  0  0  0  0  0  0
   -8.0484    6.1829   -4.0578 H   0  0  0  0  0  0  0  0  0  0  0  0
  -10.2102    7.5995   -0.7139 H   0  0  0  0  0  0  0  0  0  0  0  0
  -10.1625    8.5951   -2.2082 H   0  0  0  0  0  0  0  0  0  0  0  0
  -11.0183    7.0158   -2.2082 H   0  0  0  0  0  0  0  0  0  0  0  0
   -3.4410    9.2397   -2.3848 H   0  0  0  0  0  0  0  0  0  0  0  0
   -4.6881    9.7619   -0.3816 H   0  0  0  0  0  0  0  0  0  0  0  0
   -4.2169    8.2383    0.4016 H   0  0  0  0  0  0  0  0  0  0  0  0
   -3.1293   10.8141    0.9909 H   0  0  0  0  0  0  0  0  0  0  0  0
   -2.3947    9.2938    1.4934 H   0  0  0  0  0  0  0  0  0  0  0  0
   -2.3602   12.1432   -0.5432 H   0  0  0  0  0  0  0  0  0  0  0  0
   -1.2370   11.6845   -1.8678 H   0  0  0  0  0  0  0  0  0  0  0  0
   -2.9246   11.0692   -1.8678 H   0  0  0  0  0  0  0  0  0  0  0  0
   -0.0696    9.4002    0.8241 H   0  0  0  0  0  0  0  0  0  0  0  0
   -0.9518   11.6995    1.5792 H   0  0  0  0  0  0  0  0  0  0  0  0
    0.8225   11.2489    1.7733 H   0  0  0  0  0  0  0  0  0  0  0  0
    0.3265   13.6996    0.9404 H   0  0  0  0  0  0  0  0  0  0  0  0
    0.4344   11.5216   -2.4573 H   0  0  0  0  0  0  0  0  0  0  0  0
    3.3715   11.6408   -1.5313 H   0  0  0  0  0  0  0  0  0  0  0  0
    2.7243   10.7939   -3.0060 H   0  0  0  0  0  0  0  0  0  0  0  0
    3.8085   12.9463   -3.5629 H   0  0  0  0  0  0  0  0  0  0  0  0
    2.0469   12.9176   -3.9659 H   0  0  0  0  0  0  0  0  0  0  0  0
    2.5755   15.0368   -2.9680 H   0  0  0  0  0  0  0  0  0  0  0  0
    3.1930   14.3430   -0.4500 H   0  0  0  0  0  0  0  0  0  0  0  0
   -0.8935   14.5693   -2.1042 H   0  0  0  0  0  0  0  0  0  0  0  0
    0.3028   15.2569   -3.2543 H   0  0  0  0  0  0  0  0  0  0  0  0
   -0.0313   13.4920   -3.2543 H   0  0  0  0  0  0  0  0  0  0  0  0
    1.1542   15.0751    0.4064 H   0  0  0  0  0  0  0  0  0  0  0  0
    2.0206   16.0462   -0.8317 H   0  0  0  0  0  0  0  0  0  0  0  0
    0.2252   15.9866   -0.8317 H   0  0  0  0  0  0  0  0  0  0  0  0
    2.0930    9.8388    0.9420 H   0  0  0  0  0  0  0  0  0  0  0  0
    2.5613    8.7543   -0.4112 H   0  0  0  0  0  0  0  0  0  0  0  0
    3.0910   10.4707   -0.4112 H   0  0  0  0  0  0  0  0  0  0  0  0
    1.3139    9.2780   -2.8626 H   0  0  0  0  0  0  0  0  0  0  0  0
    1.0072    8.1087   -1.4585 H   0  0  0  0  0  0  0  0  0  0  0  0
   -1.0479    9.6764   -3.0417 H   0  0  0  0  0  0  0  0  0  0  0  0
   -0.7961    7.8873   -2.9784 H   0  0  0  0  0  0  0  0  0  0  0  0
   -1.3287    7.6990    0.6997 H   0  0  0  0  0  0  0  0  0  0  0  0
   -1.9198    6.6322   -0.6191 H   0  0  0  0  0  0  0  0  0  0  0  0
   -0.2157    7.2002   -0.6191 H   0  0  0  0  0  0  0  0  0  0  0  0
  1  2  1  0
  2  3  1  0
  3  4  1  0
  4  5  1  0
  5  6  1  0
  6  7  1  0
  7  8  1  0
  7  9  1  0
  2 10  1  0
 10 11  1  0
 11 12  1  0
 12 13  1  0
 13 14  1  6
 13 15  1  0
 15 16  1  0
 16 17  1  0
 17 18  2  0
 18 19  1  0
 19 20  1  0
 20 21  1  0
 21 22  1  0
 22 23  1  0
 22 24  1  0
 24 25  1  0
 24 26  1  0
 19 27  1  0
 27 28  1  1
 27 29  1  0
 29 30  1  0
 30 31  1  0
 31 32  1  1
  7  5  1  0
 31 10  1  0
 31 13  1  0
 27 15  1  0
 24 18  1  0
  1 33  1  0
  1 34  1  0
  1 35  1  0
  2 36  1  1
  3 37  1  0
  3 38  1  0
  4 39  1  0
  4 40  1  0
  5 41  1  1
  8 42  1  0
  8 43  1  0
  8 44  1  0
  9 45  1  0
  9 46  1  0
  9 47  1  0
 10 48  1  6
 11 49  1  0
 11 50  1  0
 12 51  1  0
 12 52  1  0
 14 53  1  0
 14 54  1  0
 14 55  1  0
 15 56  1  1
 16 57  1  0
 16 58  1  0
 17 59  1  0
 19 60  1  6
 20 61  1  0
 20 62  1  0
 21 63  1  0
 21 64  1  0
 22 65  1  6
 23 66  1  0
 25 67  1  0
 25 68  1  0
 25 69  1  0
 26 70  1  0
 26 71  1  0
 26 72  1  0
 28 73  1  0
 28 74  1  0
 28 75  1  0
 29 76  1  0
 29 77  1  0
 30 78  1  0
 30 79  1  0
 32 80  1  0
 32 81  1  0
 32 82  1  0
M  END
>  <meeko>  (12) 
{"is_sidechain": [false], "intermolecular_energy": 2.731, "internal_energy": -0.839}

$$$$
EPH_relaxed_0001_pdb2pqr_Repair_238_r2_0001_out
     RDKit          3D

 82 86  0  0  0  0  0  0  0  0999 V2000
   -2.3140    7.7900   -2.2680 C   0  0  0  0  0  0  0  0  0  0  0  0
   -2.2900    8.3870   -0.8580 C   0  0  2  0  0  0  0  0  0  0  0  0
   -3.6790    8.3560   -0.1900 C   0  0  0  0  0  0  0  0  0  0  0  0
   -4.8330    8.6360   -1.1570 C   0  0  0  0  0  0  0  0  0  0  0  0
   -5.9530    7.6550   -0.9830 C   0  0  2  0  0  0  0  0  0  0  0  0
   -5.5400    6.2860   -0.8850 O   0  0  0  0  0  0  0  0  0  0  0  0
   -6.3360    6.6280   -2.0320 C   0  0  0  0  0  0  0  0  0  0  0  0
   -5.6030    6.5300   -3.3330 C   0  0  0  0  0  0  0  0  0  0  0  0
   -7.7180    6.0530   -1.9990 C   0  0  0  0  0  0  0  0  0  0  0  0
   -1.7680    9.8180   -0.9090 C   0  0  1  0  0  0  0  0  0  0  0  0
   -1.3640   10.3560    0.4900 C   0  0  0  0  0  0  0  0  0  0  0  0
   -0.1410   11.2850    0.2750 C   0  0  0  0  0  0  0  0  0  0  0  0
   -0.0890   11.5130   -1.2540 C   0  0  1  0  0  0  0  0  0  0  0  0
   -1.1440   12.6300   -1.5290 C   0  0  0  0  0  0  0  0  0  0  0  0
    1.3090   11.8810   -1.8490 C   0  0  2  0  0  0  0  0  0  0  0  0
    1.9090   13.2030   -1.3400 C   0  0  0  0  0  0  0  0  0  0  0  0
    1.5610   14.4130   -2.1430 C   0  0  0  0  0  0  0  0  0  0  0  0
    1.0380   14.4040   -3.3840 C   0  0  0  0  0  0  0  0  0  0  0  0
    0.8350   13.0870   -4.1430 C   0  0  1  0  0  0  0  0  0  0  0  0
    1.3630   13.2390   -5.5940 C   0  0  0  0  0  0  0  0  0  0  0  0
    0.7460   14.4320   -6.3190 C   0  0  0  0  0  0  0  0  0  0  0  0
    1.0200   15.7300   -5.5630 C   0  0  2  0  0  0  0  0  0  0  0  0
    2.4240   16.0010   -5.6060 O   0  0  0  0  0  0  0  0  0  0  0  0
    0.5390   15.6910   -4.0850 C   0  0  0  0  0  0  0  0  0  0  0  0
   -1.0090   15.7000   -4.0410 C   0  0  0  0  0  0  0  0  0  0  0  0
    1.0010   17.0050   -3.3990 C   0  0  0  0  0  0  0  0  0  0  0  0
    1.3890   11.7800   -3.4270 C   0  0  1  0  0  0  0  0  0  0  0  0
    2.8920   11.5730   -3.7850 C   0  0  0  0  0  0  0  0  0  0  0  0
    0.6220   10.5240   -3.9850 C   0  0  0  0  0  0  0  0  0  0  0  0
   -0.6920   10.1400   -3.2780 C   0  0  0  0  0  0  0  0  0  0  0  0
   -0.5010   10.0830   -1.7600 C   0  0  2  0  0  0  0  0  0  0  0  0
    0.5390    8.9530   -1.4500 C   0  0  0  0  0  0  0  0  0  0  0  0
   -2.3581    6.6929   -2.2010 H   0  0  0  0  0  0  0  0  0  0  0  0
   -3.1980    8.1602   -2.8079 H   0  0  0  0  0  0  0  0  0  0  0  0
   -1.4031    8.0880   -2.8079 H   0  0  0  0  0  0  0  0  0  0  0  0
   -1.6170    7.7670   -0.2475 H   0  0  0  0  0  0  0  0  0  0  0  0
   -3.8299    7.3600    0.2517 H   0  0  0  0  0  0  0  0  0  0  0  0
   -3.6907    9.1559    0.5650 H   0  0  0  0  0  0  0  0  0  0  0  0
   -5.2156    9.6504   -0.9711 H   0  0  0  0  0  0  0  0  0  0  0  0
   -4.4504    8.5408   -2.1839 H   0  0  0  0  0  0  0  0  0  0  0  0
   -6.5451    8.3945   -0.4239 H   0  0  0  0  0  0  0  0  0  0  0  0
   -4.5297    6.3865   -3.1393 H   0  0  0  0  0  0  0  0  0  0  0  0
   -5.9893    5.6755   -3.9080 H   0  0  0  0  0  0  0  0  0  0  0  0
   -5.7512    7.4560   -3.9080 H   0  0  0  0  0  0  0  0  0  0  0  0
   -8.0353    5.9210   -0.9541 H   0  0  0  0  0  0  0  0  0  0  0  0
   -8.4120    6.7370   -2.5093 H   0  0  0  0  0  0  0  0  0  0  0  0
   -7.7220    5.0786   -2.5093 H   0  0  0  0  0  0  0  0  0  0  0  0
   -2.6370   10.3157   -1.3642 H   0  0  0  0  0  0  0  0  0  0  0  0
   -2.1966   10.9220    0.9333 H   0  0  0  0  0  0  0  0  0  0  0  0
   -1.1183    9.5311    1.1749 H   0  0  0  0  0  0  0  0  0  0  0  0
   -0.2796   12.2386    0.8054 H   0  0  0  0  0  0  0  0  0  0  0  0
    0.7899   10.8462    0.6635 H   0  0  0  0  0  0  0  0  0  0  0  0
   -1.5173   13.0252   -0.5727 H   0  0  0  0  0  0  0  0  0  0  0  0
   -0.6762   13.4427   -2.1040 H   0  0  0  0  0  0  0  0  0  0  0  0
   -1.9820   12.2093   -2.1040 H   0  0  0  0  0  0  0  0  0  0  0  0
    1.9528   11.0862   -1.4443 H   0  0  0  0  0  0  0  0  0  0  0  0
    1.5534   13.3639   -0.3116 H   0  0  0  0  0  0  0  0  0  0  0  0
    3.0006   13.0909   -1.4165 H   0  0  0  0  0  0  0  0  0  0  0  0
    1.7475   15.3942   -1.6821 H   0  0  0  0  0  0  0  0  0  0  0  0
   -0.2504   12.9089   -4.1563 H   0  0  0  0  0  0  0  0  0  0  0  0
    2.4543   13.3729   -5.5600 H   0  0  0  0  0  0  0  0  0  0  0  0
    1.0838   12.3306   -6.1479 H   0  0  0  0  0  0  0  0  0  0  0  0
    1.1795   14.5041   -7.3274 H   0  0  0  0  0  0  0  0  0  0  0  0
   -0.3422   14.2828   -6.3784 H   0  0  0  0  0  0  0  0  0  0  0  0
    0.4469   16.5278   -6.0580 H   0  0  0  0  0  0  0  0  0  0  0  0
    2.8520   15.2620   -6.0700 H   0  0  0  0  0  0  0  0  0  0  0  0
   -1.3460   15.7020   -2.9939 H   0  0  0  0  0  0  0  0  0  0  0  0
   -1.3850   16.6003   -4.5489 H   0  0  0  0  0  0  0  0  0  0  0  0
   -1.3955   14.8041   -4.5489 H   0  0  0  0  0  0  0  0  0  0  0  0
    0.9581   16.8830   -2.3066 H   0  0  0  0  0  0  0  0  0  0  0  0
    2.0334   17.2335   -3.7022 H   0  0  0  0  0  0  0  0  0  0  0  0
    0.3388   17.8294   -3.7022 H   0  0  0  0  0  0  0  0  0  0  0  0
    3.4815   11.4918   -2.8598 H   0  0  0  0  0  0  0  0  0  0  0  0
    3.0050   10.6508   -4.3739 H   0  0  0  0  0  0  0  0  0  0  0  0
    3.2501   12.4303   -4.3739 H   0  0  0  0  0  0  0  0  0  0  0  0
    0.3861   10.7207   -5.0412 H   0  0  0  0  0  0  0  0  0  0  0  0
    1.2993    9.6744   -3.8135 H   0  0  0  0  0  0  0  0  0  0  0  0
   -1.4611   10.8896   -3.5160 H   0  0  0  0  0  0  0  0  0  0  0  0
   -1.0020    9.1451   -3.6301 H   0  0  0  0  0  0  0  0  0  0  0  0
    0.6434    8.8395   -0.3609 H   0  0  0  0  0  0  0  0  0  0  0  0
    0.1910    8.0048   -1.8857 H   0  0  0  0  0  0  0  0  0  0  0  0
    1.5127    9.2213   -1.8857 H   0  0  0  0  0  0  0  0  0  0  0  0
  1  2  1  0
  2  3  1  0
  3  4  1  0
  4  5  1  0
  5  6  1  0
  6  7  1  0
  7  8  1  0
  7  9  1  0
  2 10  1  0
 10 11  1  0
 11 12  1  0
 12 13  1  0
 13 14  1  1
 13 15  1  0
 15 16  1  0
 16 17  1  0
 17 18  2  0
 18 19  1  0
 19 20  1  0
 20 21  1  0
 21 22  1  0
 22 23  1  0
 22 24  1  0
 24 25  1  0
 24 26  1  0
 19 27  1  0
 27 28  1  1
 27 29  1  0
 29 30  1  0
 30 31  1  0
 31 32  1  6
  7  5  1  0
 31 10  1  0
 31 13  1  0
 27 15  1  0
 24 18  1  0
  1 33  1  0
  1 34  1  0
  1 35  1  0
  2 36  1  1
  3 37  1  0
  3 38  1  0
  4 39  1  0
  4 40  1  0
  5 41  1  1
  8 42  1  0
  8 43  1  0
  8 44  1  0
  9 45  1  0
  9 46  1  0
  9 47  1  0
 10 48  1  6
 11 49  1  0
 11 50  1  0
 12 51  1  0
 12 52  1  0
 14 53  1  0
 14 54  1  0
 14 55  1  0
 15 56  1  1
 16 57  1  0
 16 58  1  0
 17 59  1  0
 19 60  1  6
 20 61  1  0
 20 62  1  0
 21 63  1  0
 21 64  1  0
 22 65  1  6
 23 66  1  0
 25 67  1  0
 25 68  1  0
 25 69  1  0
 26 70  1  0
 26 71  1  0
 26 72  1  0
 28 73  1  0
 28 74  1  0
 28 75  1  0
 29 76  1  0
 29 77  1  0
 30 78  1  0
 30 79  1  0
 32 80  1  0
 32 81  1  0
 32 82  1  0
M  END
>  <meeko>  (13) 
{"is_sidechain": [false], "intermolecular_energy": 2.731, "internal_energy": -0.839}

$$$$
EPH_relaxed_0001_pdb2pqr_Repair_238_r2_0001_out
     RDKit          3D

 82 86  0  0  0  0  0  0  0  0999 V2000
    1.2690   10.8250   -4.6340 C   0  0  0  0  0  0  0  0  0  0  0  0
    0.6920   10.3990   -3.2810 C   0  0  2  0  0  0  0  0  0  0  0  0
   -0.7870    9.9780   -3.3860 C   0  0  0  0  0  0  0  0  0  0  0  0
   -1.2370    9.0240   -2.2760 C   0  0  0  0  0  0  0  0  0  0  0  0
   -0.2310    8.9510   -1.1670 C   0  0  2  0  0  0  0  0  0  0  0  0
   -0.6360    8.1600   -0.0430 O   0  0  0  0  0  0  0  0  0  0  0  0
   -0.4510    9.5640    0.2030 C   0  0  0  0  0  0  0  0  0  0  0  0
   -1.7130   10.2950    0.5380 C   0  0  0  0  0  0  0  0  0  0  0  0
    0.7450    9.8750    1.0480 C   0  0  0  0  0  0  0  0  0  0  0  0
    0.8410   11.5330   -2.2730 C   0  0  1  0  0  0  0  0  0  0  0  0
    1.9490   11.2560   -1.2220 C   0  0  0  0  0  0  0  0  0  0  0  0
    2.6040   12.6230   -0.8930 C   0  0  0  0  0  0  0  0  0  0  0  0
    1.6450   13.6720   -1.5030 C   0  0  1  0  0  0  0  0  0  0  0  0
    0.4990   13.8250   -0.4540 C   0  0  0  0  0  0  0  0  0  0  0  0
    2.2770   15.0530   -1.8730 C   0  0  2  0  0  0  0  0  0  0  0  0
    2.8540   15.8460   -0.6880 C   0  0  0  0  0  0  0  0  0  0  0  0
    1.9000   16.7790   -0.0190 C   0  0  0  0  0  0  0  0  0  0  0  0
    0.7210   17.1860   -0.5240 C   0  0  0  0  0  0  0  0  0  0  0  0
    0.2860   16.7770   -1.9380 C   0  0  1  0  0  0  0  0  0  0  0  0
   -0.2510   18.0200   -2.6940 C   0  0  0  0  0  0  0  0  0  0  0  0
   -1.3580   18.7380   -1.9280 C   0  0  0  0  0  0  0  0  0  0  0  0
   -0.8700   19.1810   -0.5510 C   0  0  2  0  0  0  0  0  0  0  0  0
    0.1310   20.1900   -0.7190 O   0  0  0  0  0  0  0  0  0  0  0  0
   -0.2970   18.0130    0.3000 C   0  0  0  0  0  0  0  0  0  0  0  0
   -1.4480   17.0730    0.7360 C   0  0  0  0  0  0  0  0  0  0  0  0
    0.2890   18.6160    1.6050 C   0  0  0  0  0  0  0  0  0  0  0  0
    1.3570   15.9630   -2.7840 C   0  0  1  0  0  0  0  0  0  0  0  0
    2.3060   16.9490   -3.5310 C   0  0  0  0  0  0  0  0  0  0  0  0
    0.6110   15.1360   -3.8970 C   0  0  0  0  0  0  0  0  0  0  0  0
    0.1160   13.7310   -3.5040 C   0  0  0  0  0  0  0  0  0  0  0  0
    1.2280   12.9280   -2.8240 C   0  0  2  0  0  0  0  0  0  0  0  0
    2.3850   12.7380   -3.8620 C   0  0  0  0  0  0  0  0  0  0  0  0
    2.1443   11.4713   -4.4722 H   0  0  0  0  0  0  0  0  0  0  0  0
    1.5720    9.9323   -5.2008 H   0  0  0  0  0  0  0  0  0  0  0  0
    0.5051   11.3774   -5.2008 H   0  0  0  0  0  0  0  0  0  0  0  0
    1.2606    9.5211   -2.9405 H   0  0  0  0  0  0  0  0  0  0  0  0
   -1.4098   10.8835   -3.3390 H   0  0  0  0  0  0  0  0  0  0  0  0
   -0.9004    9.4388   -4.3381 H   0  0  0  0  0  0  0  0  0  0  0  0
   -2.1940    9.3795   -1.8665 H   0  0  0  0  0  0  0  0  0  0  0  0
   -1.3433    8.0187   -2.7097 H   0  0  0  0  0  0  0  0  0  0  0  0
    0.6000    9.0261   -1.8838 H   0  0  0  0  0  0  0  0  0  0  0  0
   -1.8213   10.3577    1.6309 H   0  0  0  0  0  0  0  0  0  0  0  0
   -1.6725   11.3095    0.1147 H   0  0  0  0  0  0  0  0  0  0  0  0
   -2.5729    9.7551    0.1147 H   0  0  0  0  0  0  0  0  0  0  0  0
    0.4714    9.8039    2.1111 H   0  0  0  0  0  0  0  0  0  0  0  0
    1.5472    9.1556    0.8269 H   0  0  0  0  0  0  0  0  0  0  0  0
    1.0952   10.8941    0.8269 H   0  0  0  0  0  0  0  0  0  0  0  0
   -0.1827   11.5587   -1.8714 H   0  0  0  0  0  0  0  0  0  0  0  0
    1.5090   10.8182   -0.3138 H   0  0  0  0  0  0  0  0  0  0  0  0
    2.6927   10.5443   -1.6097 H   0  0  0  0  0  0  0  0  0  0  0  0
    2.6892   12.7610    0.1950 H   0  0  0  0  0  0  0  0  0  0  0  0
    3.6237   12.7051   -1.2973 H   0  0  0  0  0  0  0  0  0  0  0  0
    0.9206   13.7687    0.5604 H   0  0  0  0  0  0  0  0  0  0  0  0
    0.0033   14.7973   -0.5917 H   0  0  0  0  0  0  0  0  0  0  0  0
   -0.2344   13.0168   -0.5917 H   0  0  0  0  0  0  0  0  0  0  0  0
    3.1427   14.7593   -2.4848 H   0  0  0  0  0  0  0  0  0  0  0  0
    3.2072   15.1247    0.0636 H   0  0  0  0  0  0  0  0  0  0  0  0
    3.6536   16.4761   -1.1046 H   0  0  0  0  0  0  0  0  0  0  0  0
    2.1848   17.1665    0.9703 H   0  0  0  0  0  0  0  0  0  0  0  0
   -0.5220   16.0421   -1.8076 H   0  0  0  0  0  0  0  0  0  0  0  0
    0.5805   18.7224   -2.8529 H   0  0  0  0  0  0  0  0  0  0  0  0
   -0.6759   17.6729   -3.6474 H   0  0  0  0  0  0  0  0  0  0  0  0
   -1.6755   19.6228   -2.4992 H   0  0  0  0  0  0  0  0  0  0  0  0
   -2.2004   18.0433   -1.7951 H   0  0  0  0  0  0  0  0  0  0  0  0
   -1.7396   19.5720   -0.0025 H   0  0  0  0  0  0  0  0  0  0  0  0
   -0.2810   20.9370   -1.1850 H   0  0  0  0  0  0  0  0  0  0  0  0
   -1.4944   17.0351    1.8344 H   0  0  0  0  0  0  0  0  0  0  0  0
   -2.4017   17.4537    0.3417 H   0  0  0  0  0  0  0  0  0  0  0  0
   -1.2655   16.0625    0.3417 H   0  0  0  0  0  0  0  0  0  0  0  0
   -0.1802   18.1332    2.4749 H   0  0  0  0  0  0  0  0  0  0  0  0
    1.3753   18.4451    1.6324 H   0  0  0  0  0  0  0  0  0  0  0  0
    0.0871   19.6970    1.6324 H   0  0  0  0  0  0  0  0  0  0  0  0
    2.8738   17.5389   -2.7964 H   0  0  0  0  0  0  0  0  0  0  0  0
    3.0040   16.3791   -4.1618 H   0  0  0  0  0  0  0  0  0  0  0  0
    1.7098   17.6247   -4.1618 H   0  0  0  0  0  0  0  0  0  0  0  0
   -0.2649   15.7205   -4.2150 H   0  0  0  0  0  0  0  0  0  0  0  0
    1.3624   14.9672   -4.6824 H   0  0  0  0  0  0  0  0  0  0  0  0
   -0.7323   13.8293   -2.8106 H   0  0  0  0  0  0  0  0  0  0  0  0
   -0.1920   13.1999   -4.4167 H   0  0  0  0  0  0  0  0  0  0  0  0
    3.3343   12.5821   -3.3285 H   0  0  0  0  0  0  0  0  0  0  0  0
    2.1712   11.8629   -4.4933 H   0  0  0  0  0  0  0  0  0  0  0  0
    2.4623   13.6355   -4.4933 H   0  0  0  0  0  0  0  0  0  0  0  0
  1  2  1  0
  2  3  1  0
  3  4  1  0
  4  5  1  0
  5  6  1  0
  6  7  1  0
  7  8  1  0
  7  9  1  0
  2 10  1  0
 10 11  1  0
 11 12  1  0
 12 13  1  0
 13 14  1  1
 13 15  1  0
 15 16  1  0
 16 17  1  0
 17 18  2  0
 18 19  1  0
 19 20  1  0
 20 21  1  0
 21 22  1  0
 22 23  1  0
 22 24  1  0
 24 25  1  0
 24 26  1  0
 19 27  1  0
 27 28  1  6
 27 29  1  0
 29 30  1  0
 30 31  1  0
 31 32  1  6
  7  5  1  0
 31 10  1  0
 31 13  1  0
 27 15  1  0
 24 18  1  0
  1 33  1  0
  1 34  1  0
  1 35  1  0
  2 36  1  1
  3 37  1  0
  3 38  1  0
  4 39  1  0
  4 40  1  0
  5 41  1  6
  8 42  1  0
  8 43  1  0
  8 44  1  0
  9 45  1  0
  9 46  1  0
  9 47  1  0
 10 48  1  1
 11 49  1  0
 11 50  1  0
 12 51  1  0
 12 52  1  0
 14 53  1  0
 14 54  1  0
 14 55  1  0
 15 56  1  6
 16 57  1  0
 16 58  1  0
 17 59  1  0
 19 60  1  1
 20 61  1  0
 20 62  1  0
 21 63  1  0
 21 64  1  0
 22 65  1  1
 23 66  1  0
 25 67  1  0
 25 68  1  0
 25 69  1  0
 26 70  1  0
 26 71  1  0
 26 72  1  0
 28 73  1  0
 28 74  1  0
 28 75  1  0
 29 76  1  0
 29 77  1  0
 30 78  1  0
 30 79  1  0
 32 80  1  0
 32 81  1  0
 32 82  1  0
M  END
>  <meeko>  (14) 
{"is_sidechain": [false], "intermolecular_energy": 2.731, "internal_energy": -0.839}

$$$$
EPH_relaxed_0001_pdb2pqr_Repair_238_r2_0001_out
     RDKit          3D

 82 86  0  0  0  0  0  0  0  0999 V2000
    2.9070   11.3990   -5.3750 C   0  0  0  0  0  0  0  0  0  0  0  0
    1.9040   11.0870   -4.2600 C   0  0  2  0  0  0  0  0  0  0  0  0
    0.7910   10.1300   -4.7320 C   0  0  0  0  0  0  0  0  0  0  0  0
   -0.2930    9.8810   -3.6790 C   0  0  0  0  0  0  0  0  0  0  0  0
    0.2240    9.0660   -2.5330 C   0  0  2  0  0  0  0  0  0  0  0  0
   -0.6300    7.9870   -2.1320 O   0  0  0  0  0  0  0  0  0  0  0  0
   -0.4340    9.0330   -1.1660 C   0  0  0  0  0  0  0  0  0  0  0  0
   -1.6670    9.8300   -0.8740 C   0  0  0  0  0  0  0  0  0  0  0  0
    0.3880    8.6170    0.0140 C   0  0  0  0  0  0  0  0  0  0  0  0
    1.2920   12.3810   -3.7360 C   0  0  1  0  0  0  0  0  0  0  0  0
   -0.2490   12.2890   -3.5750 C   0  0  0  0  0  0  0  0  0  0  0  0
   -0.6200   13.1400   -2.3330 C   0  0  0  0  0  0  0  0  0  0  0  0
    0.6580   13.9530   -2.0210 C   0  0  1  0  0  0  0  0  0  0  0  0
    0.6190   15.1570   -3.0140 C   0  0  0  0  0  0  0  0  0  0  0  0
    0.8310   14.4300   -0.5420 C   0  0  2  0  0  0  0  0  0  0  0  0
   -0.2550   15.3950   -0.0370 C   0  0  0  0  0  0  0  0  0  0  0  0
    0.0350   16.8450   -0.2420 C   0  0  0  0  0  0  0  0  0  0  0  0
    1.2380   17.3660   -0.5470 C   0  0  0  0  0  0  0  0  0  0  0  0
    2.4860   16.4770   -0.6190 C   0  0  1  0  0  0  0  0  0  0  0  0
    3.6510   17.1570    0.1470 C   0  0  0  0  0  0  0  0  0  0  0  0
    3.9190   18.5790   -0.3370 C   0  0  0  0  0  0  0  0  0  0  0  0
    2.6710   19.4470   -0.1950 C   0  0  2  0  0  0  0  0  0  0  0  0
    2.3830   19.6160    1.1960 O   0  0  0  0  0  0  0  0  0  0  0  0
    1.4290   18.8580   -0.9190 C   0  0  0  0  0  0  0  0  0  0  0  0
    1.6240   18.9550   -2.4520 C   0  0  0  0  0  0  0  0  0  0  0  0
    0.2080   19.7550   -0.5790 C   0  0  0  0  0  0  0  0  0  0  0  0
    2.2810   14.9590   -0.1970 C   0  0  1  0  0  0  0  0  0  0  0  0
    2.4550   14.8080    1.3450 C   0  0  0  0  0  0  0  0  0  0  0  0
    3.4110   14.0840   -0.8590 C   0  0  0  0  0  0  0  0  0  0  0  0
    3.1310   13.5440   -2.2740 C   0  0  0  0  0  0  0  0  0  0  0  0
    1.7560   12.8740   -2.3430 C   0  0  2  0  0  0  0  0  0  0  0  0
    1.7720   11.6450   -1.3710 C   0  0  0  0  0  0  0  0  0  0  0  0
    3.8679   11.6979   -4.9307 H   0  0  0  0  0  0  0  0  0  0  0  0
    3.0535   10.5040   -5.9975 H   0  0  0  0  0  0  0  0  0  0  0  0
    2.5199   12.2192   -5.9975 H   0  0  0  0  0  0  0  0  0  0  0  0
    2.4527   10.5813   -3.4518 H   0  0  0  0  0  0  0  0  0  0  0  0
    0.3156   10.5632   -5.6244 H   0  0  0  0  0  0  0  0  0  0  0  0
    1.2669    9.1603   -4.9396 H   0  0  0  0  0  0  0  0  0  0  0  0
   -0.6474   10.8495   -3.2963 H   0  0  0  0  0  0  0  0  0  0  0  0
   -1.1117    9.3218   -4.1555 H   0  0  0  0  0  0  0  0  0  0  0  0
    1.2636    9.2404   -2.8474 H   0  0  0  0  0  0  0  0  0  0  0  0
   -1.7991    9.9154    0.2147 H   0  0  0  0  0  0  0  0  0  0  0  0
   -1.5664   10.8344   -1.3111 H   0  0  0  0  0  0  0  0  0  0  0  0
   -2.5415    9.3258   -1.3111 H   0  0  0  0  0  0  0  0  0  0  0  0
   -0.1400    8.8842    0.9412 H   0  0  0  0  0  0  0  0  0  0  0  0
    0.5485    7.5292   -0.0161 H   0  0  0  0  0  0  0  0  0  0  0  0
    1.3596    9.1319   -0.0161 H   0  0  0  0  0  0  0  0  0  0  0  0
    1.6365   13.0775   -4.5146 H   0  0  0  0  0  0  0  0  0  0  0  0
   -0.7480   12.6879   -4.4705 H   0  0  0  0  0  0  0  0  0  0  0  0
   -0.5716   11.2449   -3.4494 H   0  0  0  0  0  0  0  0  0  0  0  0
   -1.4615   13.8112   -2.5595 H   0  0  0  0  0  0  0  0  0  0  0  0
   -0.9377   12.5195   -1.4821 H   0  0  0  0  0  0  0  0  0  0  0  0
    0.5885   16.0991   -2.4470 H   0  0  0  0  0  0  0  0  0  0  0  0
    1.5182   15.1392   -3.6474 H   0  0  0  0  0  0  0  0  0  0  0  0
   -0.2772   15.0810   -3.6474 H   0  0  0  0  0  0  0  0  0  0  0  0
    0.6890   13.4980    0.0247 H   0  0  0  0  0  0  0  0  0  0  0  0
   -1.1916   15.1580   -0.5630 H   0  0  0  0  0  0  0  0  0  0  0  0
   -0.3114   15.2469    1.0515 H   0  0  0  0  0  0  0  0  0  0  0  0
   -0.8053   17.5468   -0.1348 H   0  0  0  0  0  0  0  0  0  0  0  0
    2.7396   16.3943   -1.6862 H   0  0  0  0  0  0  0  0  0  0  0  0
    3.3973   17.1907    1.2168 H   0  0  0  0  0  0  0  0  0  0  0  0
    4.5604   16.5655   -0.0353 H   0  0  0  0  0  0  0  0  0  0  0  0
    4.7317   19.0161    0.2617 H   0  0  0  0  0  0  0  0  0  0  0  0
    4.2019   18.5413   -1.3993 H   0  0  0  0  0  0  0  0  0  0  0  0
    2.8845   20.4128   -0.6763 H   0  0  0  0  0  0  0  0  0  0  0  0
    2.1960   20.5580    1.3460 H   0  0  0  0  0  0  0  0  0  0  0  0
    2.5895   19.4353   -2.6691 H   0  0  0  0  0  0  0  0  0  0  0  0
    1.6105   17.9452   -2.8880 H   0  0  0  0  0  0  0  0  0  0  0  0
    0.8105   19.5535   -2.8880 H   0  0  0  0  0  0  0  0  0  0  0  0
    0.1027   19.8324    0.5132 H   0  0  0  0  0  0  0  0  0  0  0  0
    0.3599   20.7579   -1.0047 H   0  0  0  0  0  0  0  0  0  0  0  0
   -0.7036   19.3102   -1.0047 H   0  0  0  0  0  0  0  0  0  0  0  0
    1.7212   15.4448    1.8609 H   0  0  0  0  0  0  0  0  0  0  0  0
    2.2946   13.7580    1.6310 H   0  0  0  0  0  0  0  0  0  0  0  0
    3.4719   15.1147    1.6310 H   0  0  0  0  0  0  0  0  0  0  0  0
    4.3210   14.6998   -0.9117 H   0  0  0  0  0  0  0  0  0  0  0  0
    3.4950   13.1916   -0.2214 H   0  0  0  0  0  0  0  0  0  0  0  0
    3.1609   14.3785   -2.9900 H   0  0  0  0  0  0  0  0  0  0  0  0
    3.8984   12.7960   -2.5220 H   0  0  0  0  0  0  0  0  0  0  0  0
    1.7674   12.0007   -0.3301 H   0  0  0  0  0  0  0  0  0  0  0  0
    0.8819   11.0241   -1.5503 H   0  0  0  0  0  0  0  0  0  0  0  0
    2.6780   11.0475   -1.5503 H   0  0  0  0  0  0  0  0  0  0  0  0
  1  2  1  0
  2  3  1  0
  3  4  1  0
  4  5  1  0
  5  6  1  0
  6  7  1  0
  7  8  1  0
  7  9  1  0
  2 10  1  0
 10 11  1  0
 11 12  1  0
 12 13  1  0
 13 14  1  6
 13 15  1  0
 15 16  1  0
 16 17  1  0
 17 18  2  0
 18 19  1  0
 19 20  1  0
 20 21  1  0
 21 22  1  0
 22 23  1  0
 22 24  1  0
 24 25  1  0
 24 26  1  0
 19 27  1  0
 27 28  1  1
 27 29  1  0
 29 30  1  0
 30 31  1  0
 31 32  1  1
  7  5  1  0
 31 10  1  0
 31 13  1  0
 27 15  1  0
 24 18  1  0
  1 33  1  0
  1 34  1  0
  1 35  1  0
  2 36  1  1
  3 37  1  0
  3 38  1  0
  4 39  1  0
  4 40  1  0
  5 41  1  1
  8 42  1  0
  8 43  1  0
  8 44  1  0
  9 45  1  0
  9 46  1  0
  9 47  1  0
 10 48  1  6
 11 49  1  0
 11 50  1  0
 12 51  1  0
 12 52  1  0
 14 53  1  0
 14 54  1  0
 14 55  1  0
 15 56  1  1
 16 57  1  0
 16 58  1  0
 17 59  1  0
 19 60  1  6
 20 61  1  0
 20 62  1  0
 21 63  1  0
 21 64  1  0
 22 65  1  6
 23 66  1  0
 25 67  1  0
 25 68  1  0
 25 69  1  0
 26 70  1  0
 26 71  1  0
 26 72  1  0
 28 73  1  0
 28 74  1  0
 28 75  1  0
 29 76  1  0
 29 77  1  0
 30 78  1  0
 30 79  1  0
 32 80  1  0
 32 81  1  0
 32 82  1  0
M  END
>  <meeko>  (15) 
{"is_sidechain": [false], "intermolecular_energy": 2.731, "internal_energy": -0.839}

$$$$
EPH_relaxed_0001_pdb2pqr_Repair_238_r2_0001_out
     RDKit          3D

 82 86  0  0  0  0  0  0  0  0999 V2000
    0.9910   14.9650   -2.7020 C   0  0  0  0  0  0  0  0  0  0  0  0
    1.2170   14.2890   -4.0570 C   0  0  2  0  0  0  0  0  0  0  0  0
    0.4740   15.0140   -5.1980 C   0  0  0  0  0  0  0  0  0  0  0  0
    0.9530   14.6130   -6.5960 C   0  0  0  0  0  0  0  0  0  0  0  0
    0.7900   15.7320   -7.5800 C   0  0  2  0  0  0  0  0  0  0  0  0
    0.4090   15.3190   -8.8990 O   0  0  0  0  0  0  0  0  0  0  0  0
    1.7020   15.9330   -8.7760 C   0  0  0  0  0  0  0  0  0  0  0  0
    2.8440   15.0060   -9.0510 C   0  0  0  0  0  0  0  0  0  0  0  0
    1.7830   17.2950   -9.3920 C   0  0  0  0  0  0  0  0  0  0  0  0
    0.7750   12.8320   -3.9910 C   0  0  1  0  0  0  0  0  0  0  0  0
    1.9090   11.8460   -4.3820 C   0  0  0  0  0  0  0  0  0  0  0  0
    1.7270   10.5840   -3.5000 C   0  0  0  0  0  0  0  0  0  0  0  0
    0.3190   10.7420   -2.8780 C   0  0  1  0  0  0  0  0  0  0  0  0
   -0.6660   10.2620   -3.9900 C   0  0  0  0  0  0  0  0  0  0  0  0
    0.0730    9.9950   -1.5270 C   0  0  2  0  0  0  0  0  0  0  0  0
    0.1860    8.4620   -1.5980 C   0  0  0  0  0  0  0  0  0  0  0  0
   -1.0860    7.7430   -1.9040 C   0  0  0  0  0  0  0  0  0  0  0  0
   -2.3210    8.2730   -1.8320 C   0  0  0  0  0  0  0  0  0  0  0  0
   -2.5360    9.7010   -1.3160 C   0  0  1  0  0  0  0  0  0  0  0  0
   -3.7050    9.7130   -0.2950 C   0  0  0  0  0  0  0  0  0  0  0  0
   -4.9810    9.0980   -0.8610 C   0  0  0  0  0  0  0  0  0  0  0  0
   -4.7410    7.6590   -1.3100 C   0  0  2  0  0  0  0  0  0  0  0  0
   -4.4660    6.8570   -0.1580 O   0  0  0  0  0  0  0  0  0  0  0  0
   -3.5790    7.5220   -2.3330 C   0  0  0  0  0  0  0  0  0  0  0  0
   -4.0040    8.1360   -3.6900 C   0  0  0  0  0  0  0  0  0  0  0  0
   -3.3490    6.0090   -2.5950 C   0  0  0  0  0  0  0  0  0  0  0  0
   -1.2420   10.4440   -0.7690 C   0  0  1  0  0  0  0  0  0  0  0  0
   -1.0270   10.0990    0.7370 C   0  0  0  0  0  0  0  0  0  0  0  0
   -1.4720   11.9990   -0.8400 C   0  0  0  0  0  0  0  0  0  0  0  0
   -1.0980   12.6980   -2.1610 C   0  0  0  0  0  0  0  0  0  0  0  0
    0.3070   12.2920   -2.6170 C   0  0  2  0  0  0  0  0  0  0  0  0
    1.3230   12.7820   -1.5290 C   0  0  0  0  0  0  0  0  0  0  0  0
    1.2279   14.2564   -1.8947 H   0  0  0  0  0  0  0  0  0  0  0  0
    1.6432   15.8469   -2.6189 H   0  0  0  0  0  0  0  0  0  0  0  0
   -0.0604   15.2774   -2.6189 H   0  0  0  0  0  0  0  0  0  0  0  0
    2.2933   14.3411   -4.2779 H   0  0  0  0  0  0  0  0  0  0  0  0
   -0.5980   14.7807   -5.1179 H   0  0  0  0  0  0  0  0  0  0  0  0
    0.6790   16.0887   -5.0836 H   0  0  0  0  0  0  0  0  0  0  0  0
    2.0165   14.3370   -6.5429 H   0  0  0  0  0  0  0  0  0  0  0  0
    0.3421   13.7643   -6.9375 H   0  0  0  0  0  0  0  0  0  0  0  0
    0.4543   16.4140   -6.7849 H   0  0  0  0  0  0  0  0  0  0  0  0
    3.2718   14.6587   -8.0990 H   0  0  0  0  0  0  0  0  0  0  0  0
    2.4838   14.1416   -9.6281 H   0  0  0  0  0  0  0  0  0  0  0  0
    3.6159   15.5362   -9.6281 H   0  0  0  0  0  0  0  0  0  0  0  0
    1.8282   18.0546   -8.5977 H   0  0  0  0  0  0  0  0  0  0  0  0
    2.6867   17.3623  -10.0155 H   0  0  0  0  0  0  0  0  0  0  0  0
    0.8936   17.4689  -10.0155 H   0  0  0  0  0  0  0  0  0  0  0  0
   -0.0734   12.8647   -4.6904 H   0  0  0  0  0  0  0  0  0  0  0  0
    1.8291   11.5793   -5.4462 H   0  0  0  0  0  0  0  0  0  0  0  0
    2.8988   12.2992   -4.2242 H   0  0  0  0  0  0  0  0  0  0  0  0
    1.7810    9.6715   -4.1119 H   0  0  0  0  0  0  0  0  0  0  0  0
    2.5127   10.4925   -2.7356 H   0  0  0  0  0  0  0  0  0  0  0  0
   -1.5614    9.8257   -3.5233 H   0  0  0  0  0  0  0  0  0  0  0  0
   -0.9588   11.1184   -4.6151 H   0  0  0  0  0  0  0  0  0  0  0  0
   -0.1719    9.5037   -4.6151 H   0  0  0  0  0  0  0  0  0  0  0  0
    0.9241   10.3280   -0.9149 H   0  0  0  0  0  0  0  0  0  0  0  0
    0.9156    8.2108   -2.3819 H   0  0  0  0  0  0  0  0  0  0  0  0
    0.4883    8.1320   -0.5932 H   0  0  0  0  0  0  0  0  0  0  0  0
   -1.0072    6.6907   -2.2147 H   0  0  0  0  0  0  0  0  0  0  0  0
   -2.8023   10.3042   -2.1965 H   0  0  0  0  0  0  0  0  0  0  0  0
   -3.4023    9.1412    0.5946 H   0  0  0  0  0  0  0  0  0  0  0  0
   -3.9213   10.7626   -0.0468 H   0  0  0  0  0  0  0  0  0  0  0  0
   -5.7602    9.1076   -0.0846 H   0  0  0  0  0  0  0  0  0  0  0  0
   -5.2988    9.6891   -1.7325 H   0  0  0  0  0  0  0  0  0  0  0  0
   -5.6517    7.3170   -1.8235 H   0  0  0  0  0  0  0  0  0  0  0  0
   -5.3120    6.6770    0.2850 H   0  0  0  0  0  0  0  0  0  0  0  0
   -4.6217    9.0284   -3.5112 H   0  0  0  0  0  0  0  0  0  0  0  0
   -3.1076    8.4190   -4.2612 H   0  0  0  0  0  0  0  0  0  0  0  0
   -4.5845    7.3966   -4.2612 H   0  0  0  0  0  0  0  0  0  0  0  0
   -3.2684    5.4787   -1.6347 H   0  0  0  0  0  0  0  0  0  0  0  0
   -4.1958    5.6032   -3.1680 H   0  0  0  0  0  0  0  0  0  0  0  0
   -2.4199    5.8732   -3.1680 H   0  0  0  0  0  0  0  0  0  0  0  0
   -1.5060   10.8677    1.3613 H   0  0  0  0  0  0  0  0  0  0  0  0
   -1.4739    9.1180    0.9559 H   0  0  0  0  0  0  0  0  0  0  0  0
    0.0506   10.0680    0.9559 H   0  0  0  0  0  0  0  0  0  0  0  0
   -2.5402   12.1859   -0.6557 H   0  0  0  0  0  0  0  0  0  0  0  0
   -0.7922   12.4247   -0.0872 H   0  0  0  0  0  0  0  0  0  0  0  0
   -1.8243   12.4139   -2.9367 H   0  0  0  0  0  0  0  0  0  0  0  0
   -1.1137   13.7859   -1.9991 H   0  0  0  0  0  0  0  0  0  0  0  0
    0.9122   12.5839   -0.5280 H   0  0  0  0  0  0  0  0  0  0  0  0
    2.2751   12.2440   -1.6477 H   0  0  0  0  0  0  0  0  0  0  0  0
    1.4948   13.8620   -1.6477 H   0  0  0  0  0  0  0  0  0  0  0  0
  1  2  1  0
  2  3  1  0
  3  4  1  0
  4  5  1  0
  5  6  1  0
  6  7  1  0
  7  8  1  0
  7  9  1  0
  2 10  1  0
 10 11  1  0
 11 12  1  0
 12 13  1  0
 13 14  1  6
 13 15  1  0
 15 16  1  0
 16 17  1  0
 17 18  2  0
 18 19  1  0
 19 20  1  0
 20 21  1  0
 21 22  1  0
 22 23  1  0
 22 24  1  0
 24 25  1  0
 24 26  1  0
 19 27  1  0
 27 28  1  1
 27 29  1  0
 29 30  1  0
 30 31  1  0
 31 32  1  1
  7  5  1  0
 31 10  1  0
 31 13  1  0
 27 15  1  0
 24 18  1  0
  1 33  1  0
  1 34  1  0
  1 35  1  0
  2 36  1  6
  3 37  1  0
  3 38  1  0
  4 39  1  0
  4 40  1  0
  5 41  1  1
  8 42  1  0
  8 43  1  0
  8 44  1  0
  9 45  1  0
  9 46  1  0
  9 47  1  0
 10 48  1  6
 11 49  1  0
 11 50  1  0
 12 51  1  0
 12 52  1  0
 14 53  1  0
 14 54  1  0
 14 55  1  0
 15 56  1  1
 16 57  1  0
 16 58  1  0
 17 59  1  0
 19 60  1  6
 20 61  1  0
 20 62  1  0
 21 63  1  0
 21 64  1  0
 22 65  1  6
 23 66  1  0
 25 67  1  0
 25 68  1  0
 25 69  1  0
 26 70  1  0
 26 71  1  0
 26 72  1  0
 28 73  1  0
 28 74  1  0
 28 75  1  0
 29 76  1  0
 29 77  1  0
 30 78  1  0
 30 79  1  0
 32 80  1  0
 32 81  1  0
 32 82  1  0
M  END
>  <meeko>  (16) 
{"is_sidechain": [false], "intermolecular_energy": 2.731, "internal_energy": -0.839}

$$$$
EPH_relaxed_0001_pdb2pqr_Repair_238_r2_0001_out
     RDKit          3D

 82 86  0  0  0  0  0  0  0  0999 V2000
   -1.7150   14.8190    0.5430 C   0  0  0  0  0  0  0  0  0  0  0  0
   -0.3760   15.5200    0.2940 C   0  0  2  0  0  0  0  0  0  0  0  0
   -0.4530   16.5170   -0.8790 C   0  0  0  0  0  0  0  0  0  0  0  0
   -0.0400   17.9430   -0.5030 C   0  0  0  0  0  0  0  0  0  0  0  0
    1.3880   18.0060   -0.0530 C   0  0  2  0  0  0  0  0  0  0  0  0
    2.0610   19.2320   -0.3670 O   0  0  0  0  0  0  0  0  0  0  0  0
    2.5650   18.0500   -1.0100 C   0  0  0  0  0  0  0  0  0  0  0  0
    2.3670   18.0320   -2.4930 C   0  0  0  0  0  0  0  0  0  0  0  0
    3.9090   17.6190   -0.5110 C   0  0  0  0  0  0  0  0  0  0  0  0
    0.7110   14.4850    0.0280 C   0  0  1  0  0  0  0  0  0  0  0  0
    0.8360   13.4430    1.1710 C   0  0  0  0  0  0  0  0  0  0  0  0
    1.2080   12.0920    0.5060 C   0  0  0  0  0  0  0  0  0  0  0  0
    1.6070   12.4670   -0.9410 C   0  0  1  0  0  0  0  0  0  0  0  0
    3.0820   12.9640   -0.8340 C   0  0  0  0  0  0  0  0  0  0  0  0
    1.4540   11.3390   -2.0140 C   0  0  2  0  0  0  0  0  0  0  0  0
    2.3320   10.0970   -1.7850 C   0  0  0  0  0  0  0  0  0  0  0  0
    3.6780   10.1400   -2.4300 C   0  0  0  0  0  0  0  0  0  0  0  0
    4.0560   11.0010   -3.3930 C   0  0  0  0  0  0  0  0  0  0  0  0
    3.0560   11.9940   -3.9990 C   0  0  1  0  0  0  0  0  0  0  0  0
    3.1830   11.9770   -5.5450 C   0  0  0  0  0  0  0  0  0  0  0  0
    4.6120   12.2260   -6.0180 C   0  0  0  0  0  0  0  0  0  0  0  0
    5.5670   11.1840   -5.4410 C   0  0  2  0  0  0  0  0  0  0  0  0
    5.2470    9.9060   -5.9990 O   0  0  0  0  0  0  0  0  0  0  0  0
    5.5200   11.1030   -3.8890 C   0  0  0  0  0  0  0  0  0  0  0  0
    6.1510   12.3810   -3.2830 C   0  0  0  0  0  0  0  0  0  0  0  0
    6.4220    9.9200   -3.4450 C   0  0  0  0  0  0  0  0  0  0  0  0
    1.5520   11.8490   -3.5080 C   0  0  1  0  0  0  0  0  0  0  0  0
    0.8040   10.8000   -4.3870 C   0  0  0  0  0  0  0  0  0  0  0  0
    0.8070   13.2200   -3.7230 C   0  0  0  0  0  0  0  0  0  0  0  0
    0.8960   14.2460   -2.5770 C   0  0  0  0  0  0  0  0  0  0  0  0
    0.5540   13.5970   -1.2330 C   0  0  2  0  0  0  0  0  0  0  0  0
   -0.9320   13.1070   -1.3020 C   0  0  0  0  0  0  0  0  0  0  0  0
   -1.8862   14.7294    1.6259 H   0  0  0  0  0  0  0  0  0  0  0  0
   -2.5268   15.4078    0.0910 H   0  0  0  0  0  0  0  0  0  0  0  0
   -1.6936   13.8164    0.0910 H   0  0  0  0  0  0  0  0  0  0  0  0
   -0.1288   16.0937    1.1994 H   0  0  0  0  0  0  0  0  0  0  0  0
    0.2122   16.1626   -1.6802 H   0  0  0  0  0  0  0  0  0  0  0  0
   -1.5055   16.5601   -1.1957 H   0  0  0  0  0  0  0  0  0  0  0  0
   -0.1662   18.5938   -1.3808 H   0  0  0  0  0  0  0  0  0  0  0  0
   -0.6769   18.2762    0.3296 H   0  0  0  0  0  0  0  0  0  0  0  0
    1.1671   17.3693    0.8164 H   0  0  0  0  0  0  0  0  0  0  0  0
    1.2948   17.9345   -2.7186 H   0  0  0  0  0  0  0  0  0  0  0  0
    2.7490   18.9686   -2.9253 H   0  0  0  0  0  0  0  0  0  0  0  0
    2.9116   17.1797   -2.9253 H   0  0  0  0  0  0  0  0  0  0  0  0
    3.9090   17.6190    0.5890 H   0  0  0  0  0  0  0  0  0  0  0  0
    4.1285   16.6054   -0.8777 H   0  0  0  0  0  0  0  0  0  0  0  0
    4.6770   18.3159   -0.8777 H   0  0  0  0  0  0  0  0  0  0  0  0
    1.5776   15.1526   -0.0874 H   0  0  0  0  0  0  0  0  0  0  0  0
    1.6231   13.7473    1.8766 H   0  0  0  0  0  0  0  0  0  0  0  0
   -0.1050   13.3600    1.7345 H   0  0  0  0  0  0  0  0  0  0  0  0
    2.0511   11.6195    1.0314 H   0  0  0  0  0  0  0  0  0  0  0  0
    0.3792   11.3694    0.5366 H   0  0  0  0  0  0  0  0  0  0  0  0
    3.3612   13.0581    0.2258 H   0  0  0  0  0  0  0  0  0  0  0  0
    3.7491   12.2410   -1.3262 H   0  0  0  0  0  0  0  0  0  0  0  0
    3.1756   13.9433   -1.3262 H   0  0  0  0  0  0  0  0  0  0  0  0
    0.4178   11.0042   -1.8583 H   0  0  0  0  0  0  0  0  0  0  0  0
    2.4780    9.9791   -0.7011 H   0  0  0  0  0  0  0  0  0  0  0  0
    1.7976    9.2562   -2.2515 H   0  0  0  0  0  0  0  0  0  0  0  0
    4.4234    9.4062   -2.0895 H   0  0  0  0  0  0  0  0  0  0  0  0
    3.3374   12.9846   -3.6124 H   0  0  0  0  0  0  0  0  0  0  0  0
    2.8555   10.9942   -5.9148 H   0  0  0  0  0  0  0  0  0  0  0  0
    2.5545   12.7886   -5.9403 H   0  0  0  0  0  0  0  0  0  0  0  0
    4.6421   12.1729   -7.1163 H   0  0  0  0  0  0  0  0  0  0  0  0
    4.9279   13.2214   -5.6723 H   0  0  0  0  0  0  0  0  0  0  0  0
    6.5893   11.4895   -5.7086 H   0  0  0  0  0  0  0  0  0  0  0  0
    6.0820    9.4260   -6.1340 H   0  0  0  0  0  0  0  0  0  0  0  0
    6.1207   12.3197   -2.1851 H   0  0  0  0  0  0  0  0  0  0  0  0
    7.1955   12.4679   -3.6167 H   0  0  0  0  0  0  0  0  0  0  0  0
    5.5849   13.2631   -3.6167 H   0  0  0  0  0  0  0  0  0  0  0  0
    6.4552    9.8765   -2.3464 H   0  0  0  0  0  0  0  0  0  0  0  0
    6.0107    8.9781   -3.8370 H   0  0  0  0  0  0  0  0  0  0  0  0
    7.4392   10.0672   -3.8370 H   0  0  0  0  0  0  0  0  0  0  0  0
    0.2888   10.0775   -3.7369 H   0  0  0  0  0  0  0  0  0  0  0  0
    0.0665   11.3128   -5.0220 H   0  0  0  0  0  0  0  0  0  0  0  0
    1.5291   10.2699   -5.0220 H   0  0  0  0  0  0  0  0  0  0  0  0
    1.2283   13.6900   -4.6239 H   0  0  0  0  0  0  0  0  0  0  0  0
   -0.2594   12.9600   -3.7945 H   0  0  0  0  0  0  0  0  0  0  0  0
    1.9189   14.6481   -2.5326 H   0  0  0  0  0  0  0  0  0  0  0  0
    0.1735   15.0524   -2.7712 H   0  0  0  0  0  0  0  0  0  0  0  0
   -1.3233   12.9780   -0.2821 H   0  0  0  0  0  0  0  0  0  0  0  0
   -1.5395   13.8524   -1.8362 H   0  0  0  0  0  0  0  0  0  0  0  0
   -0.9769   12.1465   -1.8362 H   0  0  0  0  0  0  0  0  0  0  0  0
  1  2  1  0
  2  3  1  0
  3  4  1  0
  4  5  1  0
  5  6  1  0
  6  7  1  0
  7  8  1  0
  7  9  1  0
  2 10  1  0
 10 11  1  0
 11 12  1  0
 12 13  1  0
 13 14  1  1
 13 15  1  0
 15 16  1  0
 16 17  1  0
 17 18  2  0
 18 19  1  0
 19 20  1  0
 20 21  1  0
 21 22  1  0
 22 23  1  0
 22 24  1  0
 24 25  1  0
 24 26  1  0
 19 27  1  0
 27 28  1  6
 27 29  1  0
 29 30  1  0
 30 31  1  0
 31 32  1  6
  7  5  1  0
 31 10  1  0
 31 13  1  0
 27 15  1  0
 24 18  1  0
  1 33  1  0
  1 34  1  0
  1 35  1  0
  2 36  1  1
  3 37  1  0
  3 38  1  0
  4 39  1  0
  4 40  1  0
  5 41  1  1
  8 42  1  0
  8 43  1  0
  8 44  1  0
  9 45  1  0
  9 46  1  0
  9 47  1  0
 10 48  1  6
 11 49  1  0
 11 50  1  0
 12 51  1  0
 12 52  1  0
 14 53  1  0
 14 54  1  0
 14 55  1  0
 15 56  1  6
 16 57  1  0
 16 58  1  0
 17 59  1  0
 19 60  1  1
 20 61  1  0
 20 62  1  0
 21 63  1  0
 21 64  1  0
 22 65  1  1
 23 66  1  0
 25 67  1  0
 25 68  1  0
 25 69  1  0
 26 70  1  0
 26 71  1  0
 26 72  1  0
 28 73  1  0
 28 74  1  0
 28 75  1  0
 29 76  1  0
 29 77  1  0
 30 78  1  0
 30 79  1  0
 32 80  1  0
 32 81  1  0
 32 82  1  0
M  END
>  <meeko>  (17) 
{"is_sidechain": [false], "intermolecular_energy": 2.731, "internal_energy": -0.839}

$$$$
EPH_relaxed_0001_pdb2pqr_Repair_238_r2_0001_out
     RDKit          3D

 82 86  0  0  0  0  0  0  0  0999 V2000
    2.5570   16.3170   -7.3810 C   0  0  0  0  0  0  0  0  0  0  0  0
    1.4100   15.3130   -7.2420 C   0  0  2  0  0  0  0  0  0  0  0  0
    0.1690   15.7320   -8.0540 C   0  0  0  0  0  0  0  0  0  0  0  0
    0.4990   16.2670   -9.4510 C   0  0  0  0  0  0  0  0  0  0  0  0
    1.9090   15.9490   -9.8470 C   0  0  2  0  0  0  0  0  0  0  0  0
    2.3300   16.5370  -11.0840 O   0  0  0  0  0  0  0  0  0  0  0  0
    2.2680   15.1020  -11.0530 C   0  0  0  0  0  0  0  0  0  0  0  0
    1.2130   14.5190  -11.9400 C   0  0  0  0  0  0  0  0  0  0  0  0
    3.6110   14.4400  -11.0880 C   0  0  0  0  0  0  0  0  0  0  0  0
    1.0400   15.1470   -5.7730 C   0  0  1  0  0  0  0  0  0  0  0  0
   -0.2740   15.8850   -5.4010 C   0  0  0  0  0  0  0  0  0  0  0  0
   -0.9880   15.0180   -4.3320 C   0  0  0  0  0  0  0  0  0  0  0  0
    0.0810   13.9940   -3.8840 C   0  0  1  0  0  0  0  0  0  0  0  0
    0.9650   14.7630   -2.8520 C   0  0  0  0  0  0  0  0  0  0  0  0
   -0.4550   12.6490   -3.2950 C   0  0  2  0  0  0  0  0  0  0  0  0
   -1.2830   12.7840   -2.0050 C   0  0  0  0  0  0  0  0  0  0  0  0
   -0.5020   12.7040   -0.7350 C   0  0  0  0  0  0  0  0  0  0  0  0
    0.7590   12.2480   -0.6200 C   0  0  0  0  0  0  0  0  0  0  0  0
    1.4980   11.6590   -1.8290 C   0  0  1  0  0  0  0  0  0  0  0  0
    2.1870   10.3320   -1.4190 C   0  0  0  0  0  0  0  0  0  0  0  0
    3.0950   10.4960   -0.2030 C   0  0  0  0  0  0  0  0  0  0  0  0
    2.3130   11.0280    0.9940 C   0  0  2  0  0  0  0  0  0  0  0  0
    1.3730   10.0320    1.4100 O   0  0  0  0  0  0  0  0  0  0  0  0
    1.5670   12.3580    0.6970 C   0  0  0  0  0  0  0  0  0  0  0  0
    2.5940   13.5070    0.5420 C   0  0  0  0  0  0  0  0  0  0  0  0
    0.7050   12.7110    1.9390 C   0  0  0  0  0  0  0  0  0  0  0  0
    0.6430   11.5170   -3.1610 C   0  0  1  0  0  0  0  0  0  0  0  0
   -0.1180   10.1560   -3.1620 C   0  0  0  0  0  0  0  0  0  0  0  0
    1.6190   11.4800   -4.3970 C   0  0  0  0  0  0  0  0  0  0  0  0
    2.0170   12.8370   -5.0080 C   0  0  0  0  0  0  0  0  0  0  0  0
    0.7820   13.7080   -5.2620 C   0  0  2  0  0  0  0  0  0  0  0  0
   -0.1150   12.9700   -6.3130 C   0  0  0  0  0  0  0  0  0  0  0  0
    2.9026   16.6195   -6.3815 H   0  0  0  0  0  0  0  0  0  0  0  0
    3.3879   15.8507   -7.9307 H   0  0  0  0  0  0  0  0  0  0  0  0
    2.2048   17.2023   -7.9307 H   0  0  0  0  0  0  0  0  0  0  0  0
    1.7603   14.3526   -7.6481 H   0  0  0  0  0  0  0  0  0  0  0  0
   -0.4864   14.8554   -8.1637 H   0  0  0  0  0  0  0  0  0  0  0  0
   -0.3148   16.5513   -7.5020 H   0  0  0  0  0  0  0  0  0  0  0  0
   -0.1875   15.8103  -10.1791 H   0  0  0  0  0  0  0  0  0  0  0  0
    0.3855   17.3610   -9.4351 H   0  0  0  0  0  0  0  0  0  0  0  0
    2.2193   15.9005   -8.7928 H   0  0  0  0  0  0  0  0  0  0  0  0
    0.4165   14.0789  -11.3220 H   0  0  0  0  0  0  0  0  0  0  0  0
    0.7891   15.3109  -12.5750 H   0  0  0  0  0  0  0  0  0  0  0  0
    1.6579   13.7387  -12.5750 H   0  0  0  0  0  0  0  0  0  0  0  0
    3.9615   14.2672  -10.0598 H   0  0  0  0  0  0  0  0  0  0  0  0
    3.5318   13.4777  -11.6150 H   0  0  0  0  0  0  0  0  0  0  0  0
    4.3260   15.0889  -11.6150 H   0  0  0  0  0  0  0  0  0  0  0  0
    1.9496   15.5542   -5.3073 H   0  0  0  0  0  0  0  0  0  0  0  0
   -0.0464   16.8801   -4.9911 H   0  0  0  0  0  0  0  0  0  0  0  0
   -0.9121   16.0249   -6.2860 H   0  0  0  0  0  0  0  0  0  0  0  0
   -1.3125   15.6374   -3.4829 H   0  0  0  0  0  0  0  0  0  0  0  0
   -1.8930   14.5318   -4.7252 H   0  0  0  0  0  0  0  0  0  0  0  0
    0.6554   14.4937   -1.8314 H   0  0  0  0  0  0  0  0  0  0  0  0
    2.0207   14.4909   -2.9988 H   0  0  0  0  0  0  0  0  0  0  0  0
    0.8417   15.8462   -2.9988 H   0  0  0  0  0  0  0  0  0  0  0  0
   -1.1623   12.3185   -4.0699 H   0  0  0  0  0  0  0  0  0  0  0  0
   -1.7938   13.7579   -2.0292 H   0  0  0  0  0  0  0  0  0  0  0  0
   -1.9712   11.9260   -1.9938 H   0  0  0  0  0  0  0  0  0  0  0  0
   -0.9993   13.0467    0.1844 H   0  0  0  0  0  0  0  0  0  0  0  0
    2.2587   12.4014   -2.1122 H   0  0  0  0  0  0  0  0  0  0  0  0
    1.4104    9.5900   -1.1818 H   0  0  0  0  0  0  0  0  0  0  0  0
    2.8136   10.0063   -2.2624 H   0  0  0  0  0  0  0  0  0  0  0  0
    3.5294    9.5192    0.0562 H   0  0  0  0  0  0  0  0  0  0  0  0
    3.8884   11.2161   -0.4520 H   0  0  0  0  0  0  0  0  0  0  0  0
    3.0390   11.2472    1.7908 H   0  0  0  0  0  0  0  0  0  0  0  0
    1.8600    9.3600    1.9160 H   0  0  0  0  0  0  0  0  0  0  0  0
    2.9063   13.8564    1.5372 H   0  0  0  0  0  0  0  0  0  0  0  0
    3.4722   13.1418   -0.0106 H   0  0  0  0  0  0  0  0  0  0  0  0
    2.1329   14.3389   -0.0106 H   0  0  0  0  0  0  0  0  0  0  0  0
    1.2692   12.4799    2.8546 H   0  0  0  0  0  0  0  0  0  0  0  0
    0.4579   13.7827    1.9212 H   0  0  0  0  0  0  0  0  0  0  0  0
   -0.2229   12.1204    1.9212 H   0  0  0  0  0  0  0  0  0  0  0  0
   -0.2973    9.8354   -2.1251 H   0  0  0  0  0  0  0  0  0  0  0  0
   -1.0807   10.2746   -3.6808 H   0  0  0  0  0  0  0  0  0  0  0  0
    0.4871    9.3979   -3.6808 H   0  0  0  0  0  0  0  0  0  0  0  0
    2.5425   10.9754   -4.0769 H   0  0  0  0  0  0  0  0  0  0  0  0
    1.0607   10.9599   -5.1894 H   0  0  0  0  0  0  0  0  0  0  0  0
    2.6900   13.3609   -4.3133 H   0  0  0  0  0  0  0  0  0  0  0  0
    2.5209   12.6546   -5.9686 H   0  0  0  0  0  0  0  0  0  0  0  0
   -0.8623   12.3552   -5.7900 H   0  0  0  0  0  0  0  0  0  0  0  0
   -0.6269   13.7119   -6.9435 H   0  0  0  0  0  0  0  0  0  0  0  0
    0.5143   12.3247   -6.9435 H   0  0  0  0  0  0  0  0  0  0  0  0
  1  2  1  0
  2  3  1  0
  3  4  1  0
  4  5  1  0
  5  6  1  0
  6  7  1  0
  7  8  1  0
  7  9  1  0
  2 10  1  0
 10 11  1  0
 11 12  1  0
 12 13  1  0
 13 14  1  1
 13 15  1  0
 15 16  1  0
 16 17  1  0
 17 18  2  0
 18 19  1  0
 19 20  1  0
 20 21  1  0
 21 22  1  0
 22 23  1  0
 22 24  1  0
 24 25  1  0
 24 26  1  0
 19 27  1  0
 27 28  1  1
 27 29  1  0
 29 30  1  0
 30 31  1  0
 31 32  1  6
  7  5  1  0
 31 10  1  0
 31 13  1  0
 27 15  1  0
 24 18  1  0
  1 33  1  0
  1 34  1  0
  1 35  1  0
  2 36  1  6
  3 37  1  0
  3 38  1  0
  4 39  1  0
  4 40  1  0
  5 41  1  1
  8 42  1  0
  8 43  1  0
  8 44  1  0
  9 45  1  0
  9 46  1  0
  9 47  1  0
 10 48  1  1
 11 49  1  0
 11 50  1  0
 12 51  1  0
 12 52  1  0
 14 53  1  0
 14 54  1  0
 14 55  1  0
 15 56  1  6
 16 57  1  0
 16 58  1  0
 17 59  1  0
 19 60  1  6
 20 61  1  0
 20 62  1  0
 21 63  1  0
 21 64  1  0
 22 65  1  1
 23 66  1  0
 25 67  1  0
 25 68  1  0
 25 69  1  0
 26 70  1  0
 26 71  1  0
 26 72  1  0
 28 73  1  0
 28 74  1  0
 28 75  1  0
 29 76  1  0
 29 77  1  0
 30 78  1  0
 30 79  1  0
 32 80  1  0
 32 81  1  0
 32 82  1  0
M  END
>  <meeko>  (18) 
{"is_sidechain": [false], "intermolecular_energy": 2.731, "internal_energy": -0.839}

$$$$
EPH_relaxed_0001_pdb2pqr_Repair_238_r2_0001_out
     RDKit          3D

 82 86  0  0  0  0  0  0  0  0999 V2000
    0.2830    9.2780    0.1310 C   0  0  0  0  0  0  0  0  0  0  0  0
   -0.7070   10.3700   -0.2820 C   0  0  2  0  0  0  0  0  0  0  0  0
   -0.9510   10.3870   -1.8050 C   0  0  0  0  0  0  0  0  0  0  0  0
    0.3120   10.1370   -2.6330 C   0  0  0  0  0  0  0  0  0  0  0  0
    0.3630   11.0150   -3.8470 C   0  0  2  0  0  0  0  0  0  0  0  0
    0.7330   10.3430   -5.0570 O   0  0  0  0  0  0  0  0  0  0  0  0
    1.6450   11.3480   -4.5860 C   0  0  0  0  0  0  0  0  0  0  0  0
    2.9670   10.8080   -4.1380 C   0  0  0  0  0  0  0  0  0  0  0  0
    1.6810   12.5770   -5.4390 C   0  0  0  0  0  0  0  0  0  0  0  0
   -0.2000   11.7320    0.1790 C   0  0  1  0  0  0  0  0  0  0  0  0
    0.9250   11.6220    1.2430 C   0  0  0  0  0  0  0  0  0  0  0  0
    1.9000   12.7990    0.9850 C   0  0  0  0  0  0  0  0  0  0  0  0
    1.1400   13.7290    0.0110 C   0  0  1  0  0  0  0  0  0  0  0  0
    0.1780   14.5590    0.9170 C   0  0  0  0  0  0  0  0  0  0  0  0
    2.0210   14.6520   -0.8920 C   0  0  2  0  0  0  0  0  0  0  0  0
    2.8860   15.6740   -0.1340 C   0  0  0  0  0  0  0  0  0  0  0  0
    2.2420   16.9990    0.1080 C   0  0  0  0  0  0  0  0  0  0  0  0
    1.1370   17.4560   -0.5100 C   0  0  0  0  0  0  0  0  0  0  0  0
    0.4720   16.6500   -1.6330 C   0  0  1  0  0  0  0  0  0  0  0  0
    0.1490   17.5900   -2.8240 C   0  0  0  0  0  0  0  0  0  0  0  0
   -0.6800   18.8010   -2.4050 C   0  0  0  0  0  0  0  0  0  0  0  0
    0.0400   19.6090   -1.3290 C   0  0  2  0  0  0  0  0  0  0  0  0
    1.2170   20.1900   -1.8990 O   0  0  0  0  0  0  0  0  0  0  0  0
    0.4250   18.7640   -0.0830 C   0  0  0  0  0  0  0  0  0  0  0  0
   -0.8530   18.3860    0.7060 C   0  0  0  0  0  0  0  0  0  0  0  0
    1.2680   19.6620    0.8620 C   0  0  0  0  0  0  0  0  0  0  0  0
    1.2360   15.3320   -2.0860 C   0  0  1  0  0  0  0  0  0  0  0  0
    2.2960   15.6790   -3.1760 C   0  0  0  0  0  0  0  0  0  0  0  0
    0.2090   14.3490   -2.7630 C   0  0  0  0  0  0  0  0  0  0  0  0
   -0.5430   13.3800   -1.8310 C   0  0  0  0  0  0  0  0  0  0  0  0
    0.4280   12.6580   -0.8920 C   0  0  2  0  0  0  0  0  0  0  0  0
    1.3940   11.7970   -1.7750 C   0  0  0  0  0  0  0  0  0  0  0  0
    0.3322    9.2237    1.2286 H   0  0  0  0  0  0  0  0  0  0  0  0
   -0.0513    8.3095   -0.2694 H   0  0  0  0  0  0  0  0  0  0  0  0
    1.2795    9.5160   -0.2694 H   0  0  0  0  0  0  0  0  0  0  0  0
   -1.6682   10.1465    0.2040 H   0  0  0  0  0  0  0  0  0  0  0  0
   -1.6859    9.6053   -2.0478 H   0  0  0  0  0  0  0  0  0  0  0  0
   -1.3099   11.3946   -2.0620 H   0  0  0  0  0  0  0  0  0  0  0  0
    1.1939   10.3414   -2.0082 H   0  0  0  0  0  0  0  0  0  0  0  0
    0.3000    9.0894   -2.9682 H   0  0  0  0  0  0  0  0  0  0  0  0
   -0.4462   11.6469   -3.4521 H   0  0  0  0  0  0  0  0  0  0  0  0
    3.0035   10.7931   -3.0387 H   0  0  0  0  0  0  0  0  0  0  0  0
    3.0949    9.7856   -4.5230 H   0  0  0  0  0  0  0  0  0  0  0  0
    3.7742   11.4485   -4.5230 H   0  0  0  0  0  0  0  0  0  0  0  0
    1.7071   13.4690   -4.7959 H   0  0  0  0  0  0  0  0  0  0  0  0
    2.5789   12.5564   -6.0741 H   0  0  0  0  0  0  0  0  0  0  0  0
    0.7834   12.6090   -6.0741 H   0  0  0  0  0  0  0  0  0  0  0  0
   -1.1431   12.1651    0.5437 H   0  0  0  0  0  0  0  0  0  0  0  0
    0.4988   11.6977    2.2543 H   0  0  0  0  0  0  0  0  0  0  0  0
    1.4445   10.6551    1.1704 H   0  0  0  0  0  0  0  0  0  0  0  0
    2.1309   13.3247    1.9232 H   0  0  0  0  0  0  0  0  0  0  0  0
    2.8624   12.4608    0.5733 H   0  0  0  0  0  0  0  0  0  0  0  0
    0.4079   14.3607    1.9743 H   0  0  0  0  0  0  0  0  0  0  0  0
    0.3107   15.6307    0.7077 H   0  0  0  0  0  0  0  0  0  0  0  0
   -0.8627   14.2707    0.7077 H   0  0  0  0  0  0  0  0  0  0  0  0
    2.7270   13.9374   -1.3402 H   0  0  0  0  0  0  0  0  0  0  0  0
    3.1480   15.2400    0.8422 H   0  0  0  0  0  0  0  0  0  0  0  0
    3.7570   15.8715   -0.7762 H   0  0  0  0  0  0  0  0  0  0  0  0
    2.7101   17.6575    0.8545 H   0  0  0  0  0  0  0  0  0  0  0  0
   -0.4612   16.2506   -1.2091 H   0  0  0  0  0  0  0  0  0  0  0  0
    1.0946   17.9439   -3.2606 H   0  0  0  0  0  0  0  0  0  0  0  0
   -0.4428   17.0157   -3.5520 H   0  0  0  0  0  0  0  0  0  0  0  0
   -0.8504   19.4417   -3.2827 H   0  0  0  0  0  0  0  0  0  0  0  0
   -1.6376   18.4464   -1.9959 H   0  0  0  0  0  0  0  0  0  0  0  0
   -0.6561   20.3851   -0.9782 H   0  0  0  0  0  0  0  0  0  0  0  0
    1.1440   21.1550   -1.8050 H   0  0  0  0  0  0  0  0  0  0  0  0
   -0.6489   18.4464    1.7852 H   0  0  0  0  0  0  0  0  0  0  0  0
   -1.6636   19.0828    0.4466 H   0  0  0  0  0  0  0  0  0  0  0  0
   -1.1541   17.3603    0.4466 H   0  0  0  0  0  0  0  0  0  0  0  0
    1.0350   19.4138    1.9080 H   0  0  0  0  0  0  0  0  0  0  0  0
    2.3380   19.4895    0.6738 H   0  0  0  0  0  0  0  0  0  0  0  0
    1.0283   20.7189    0.6738 H   0  0  0  0  0  0  0  0  0  0  0  0
    3.2341   15.9861   -2.6906 H   0  0  0  0  0  0  0  0  0  0  0  0
    2.4802   14.7943   -3.8031 H   0  0  0  0  0  0  0  0  0  0  0  0
    1.9214   16.5014   -3.8031 H   0  0  0  0  0  0  0  0  0  0  0  0
   -0.5427   14.9602   -3.2841 H   0  0  0  0  0  0  0  0  0  0  0  0
    0.8151   13.7060   -3.4181 H   0  0  0  0  0  0  0  0  0  0  0  0
   -1.2685   13.9485   -1.2306 H   0  0  0  0  0  0  0  0  0  0  0  0
   -1.0582   12.6289   -2.4479 H   0  0  0  0  0  0  0  0  0  0  0  0
    2.0565   11.2065   -1.1250 H   0  0  0  0  0  0  0  0  0  0  0  0
    0.8043   11.1195   -2.4100 H   0  0  0  0  0  0  0  0  0  0  0  0
    1.9995   12.4604   -2.4100 H   0  0  0  0  0  0  0  0  0  0  0  0
  1  2  1  0
  2  3  1  0
  3  4  1  0
  4  5  1  0
  5  6  1  0
  6  7  1  0
  7  8  1  0
  7  9  1  0
  2 10  1  0
 10 11  1  0
 11 12  1  0
 12 13  1  0
 13 14  1  1
 13 15  1  0
 15 16  1  0
 16 17  1  0
 17 18  2  0
 18 19  1  0
 19 20  1  0
 20 21  1  0
 21 22  1  0
 22 23  1  0
 22 24  1  0
 24 25  1  0
 24 26  1  0
 19 27  1  0
 27 28  1  6
 27 29  1  0
 29 30  1  0
 30 31  1  0
 31 32  1  6
  7  5  1  0
 31 10  1  0
 31 13  1  0
 27 15  1  0
 24 18  1  0
  1 33  1  0
  1 34  1  0
  1 35  1  0
  2 36  1  1
  3 37  1  0
  3 38  1  0
  4 39  1  0
  4 40  1  0
  5 41  1  6
  8 42  1  0
  8 43  1  0
  8 44  1  0
  9 45  1  0
  9 46  1  0
  9 47  1  0
 10 48  1  1
 11 49  1  0
 11 50  1  0
 12 51  1  0
 12 52  1  0
 14 53  1  0
 14 54  1  0
 14 55  1  0
 15 56  1  6
 16 57  1  0
 16 58  1  0
 17 59  1  0
 19 60  1  1
 20 61  1  0
 20 62  1  0
 21 63  1  0
 21 64  1  0
 22 65  1  1
 23 66  1  0
 25 67  1  0
 25 68  1  0
 25 69  1  0
 26 70  1  0
 26 71  1  0
 26 72  1  0
 28 73  1  0
 28 74  1  0
 28 75  1  0
 29 76  1  0
 29 77  1  0
 30 78  1  0
 30 79  1  0
 32 80  1  0
 32 81  1  0
 32 82  1  0
M  END
>  <meeko>  (19) 
{"is_sidechain": [false], "intermolecular_energy": 2.731, "internal_energy": -0.839}

$$$$
EPH_relaxed_0001_pdb2pqr_Repair_238_r2_0001_out
     RDKit          3D

 82 86  0  0  0  0  0  0  0  0999 V2000
   -2.6550    7.7540   -0.2830 C   0  0  0  0  0  0  0  0  0  0  0  0
   -3.2080    9.1790   -0.1900 C   0  0  2  0  0  0  0  0  0  0  0  0
   -4.6980    9.2510   -0.5780 C   0  0  0  0  0  0  0  0  0  0  0  0
   -5.4180    7.9010   -0.5080 C   0  0  0  0  0  0  0  0  0  0  0  0
   -6.0730    7.5530   -1.8110 C   0  0  2  0  0  0  0  0  0  0  0  0
   -7.0570    8.4950   -2.2560 O   0  0  0  0  0  0  0  0  0  0  0  0
   -7.5370    7.1790   -1.9370 C   0  0  0  0  0  0  0  0  0  0  0  0
   -8.4370    7.1320   -0.7420 C   0  0  0  0  0  0  0  0  0  0  0  0
   -7.9740    6.3900   -3.1330 C   0  0  0  0  0  0  0  0  0  0  0  0
   -2.3930   10.1110   -1.0790 C   0  0  1  0  0  0  0  0  0  0  0  0
   -2.9760   11.5480   -1.1310 C   0  0  0  0  0  0  0  0  0  0  0  0
   -1.7700   12.5170   -1.2350 C   0  0  0  0  0  0  0  0  0  0  0  0
   -0.5660   11.6070   -1.5720 C   0  0  1  0  0  0  0  0  0  0  0  0
   -0.6650   11.3640   -3.1110 C   0  0  0  0  0  0  0  0  0  0  0  0
    0.8430   12.1450   -1.1620 C   0  0  2  0  0  0  0  0  0  0  0  0
    1.2690   13.4520   -1.8520 C   0  0  0  0  0  0  0  0  0  0  0  0
    2.0160   13.2830   -3.1330 C   0  0  0  0  0  0  0  0  0  0  0  0
    2.5820   12.1390   -3.5640 C   0  0  0  0  0  0  0  0  0  0  0  0
    2.5820   10.8820   -2.6850 C   0  0  1  0  0  0  0  0  0  0  0  0
    4.0000   10.2510   -2.6850 C   0  0  0  0  0  0  0  0  0  0  0  0
    4.5190    9.9790   -4.0930 C   0  0  0  0  0  0  0  0  0  0  0  0
    4.5590   11.2640   -4.9170 C   0  0  2  0  0  0  0  0  0  0  0  0
    5.5440   12.1390   -4.3600 O   0  0  0  0  0  0  0  0  0  0  0  0
    3.1880   11.9930   -4.9810 C   0  0  0  0  0  0  0  0  0  0  0  0
    2.2010   11.1720   -5.8490 C   0  0  0  0  0  0  0  0  0  0  0  0
    3.3980   13.3420   -5.7210 C   0  0  0  0  0  0  0  0  0  0  0  0
    1.9930   11.0600   -1.2200 C   0  0  1  0  0  0  0  0  0  0  0  0
    3.1140   11.5470   -0.2510 C   0  0  0  0  0  0  0  0  0  0  0  0
    1.5200    9.6570   -0.6820 C   0  0  0  0  0  0  0  0  0  0  0  0
    0.0780    9.2340   -1.0200 C   0  0  0  0  0  0  0  0  0  0  0  0
   -0.9130   10.3540   -0.6880 C   0  0  2  0  0  0  0  0  0  0  0  0
   -0.8530   10.6050    0.8570 C   0  0  0  0  0  0  0  0  0  0  0  0
   -2.4998    7.3541    0.7299 H   0  0  0  0  0  0  0  0  0  0  0  0
   -3.3713    7.1172   -0.8229 H   0  0  0  0  0  0  0  0  0  0  0  0
   -1.6967    7.7671   -0.8229 H   0  0  0  0  0  0  0  0  0  0  0  0
   -3.1250    9.4981    0.8594 H   0  0  0  0  0  0  0  0  0  0  0  0
   -5.2018    9.9493    0.1065 H   0  0  0  0  0  0  0  0  0  0  0  0
   -4.7419    9.5850   -1.6251 H   0  0  0  0  0  0  0  0  0  0  0  0
   -4.6859    7.1192   -0.2572 H   0  0  0  0  0  0  0  0  0  0  0  0
   -6.2010    7.9698    0.2615 H   0  0  0  0  0  0  0  0  0  0  0  0
   -5.1540    7.0670   -2.1705 H   0  0  0  0  0  0  0  0  0  0  0  0
   -7.8306    7.1637    0.1752 H   0  0  0  0  0  0  0  0  0  0  0  0
   -9.1178    7.9958   -0.7615 H   0  0  0  0  0  0  0  0  0  0  0  0
   -9.0241    6.2020   -0.7615 H   0  0  0  0  0  0  0  0  0  0  0  0
   -8.4822    5.4725   -2.8013 H   0  0  0  0  0  0  0  0  0  0  0  0
   -8.6661    6.9942   -3.7380 H   0  0  0  0  0  0  0  0  0  0  0  0
   -7.0947    6.1239   -3.7380 H   0  0  0  0  0  0  0  0  0  0  0  0
   -2.4455    9.5542   -2.0262 H   0  0  0  0  0  0  0  0  0  0  0  0
   -3.6289   11.6603   -2.0092 H   0  0  0  0  0  0  0  0  0  0  0  0
   -3.5785   11.7622   -0.2360 H   0  0  0  0  0  0  0  0  0  0  0  0
   -1.9335   13.2561   -2.0331 H   0  0  0  0  0  0  0  0  0  0  0  0
   -1.6138   13.0893   -0.3087 H   0  0  0  0  0  0  0  0  0  0  0  0
   -1.0740   10.3601   -3.2981 H   0  0  0  0  0  0  0  0  0  0  0  0
   -1.3272   12.1192   -3.5596 H   0  0  0  0  0  0  0  0  0  0  0  0
    0.3364   11.4415   -3.5596 H   0  0  0  0  0  0  0  0  0  0  0  0
    0.6979   12.4006   -0.1020 H   0  0  0  0  0  0  0  0  0  0  0  0
    0.3613   14.0366   -2.0625 H   0  0  0  0  0  0  0  0  0  0  0  0
    1.9630   13.9497   -1.1587 H   0  0  0  0  0  0  0  0  0  0  0  0
    2.1126   14.1674   -3.7799 H   0  0  0  0  0  0  0  0  0  0  0  0
    1.8641   10.1879   -3.1463 H   0  0  0  0  0  0  0  0  0  0  0  0
    4.6929   10.9408   -2.1809 H   0  0  0  0  0  0  0  0  0  0  0  0
    3.9362    9.2862   -2.1605 H   0  0  0  0  0  0  0  0  0  0  0  0
    5.5345    9.5612   -4.0280 H   0  0  0  0  0  0  0  0  0  0  0  0
    3.8411    9.2666   -4.5858 H   0  0  0  0  0  0  0  0  0  0  0  0
    4.8147   10.9856   -5.9500 H   0  0  0  0  0  0  0  0  0  0  0  0
    6.0170   11.6470   -3.6680 H   0  0  0  0  0  0  0  0  0  0  0  0
    1.5209   10.6063   -5.1952 H   0  0  0  0  0  0  0  0  0  0  0  0
    1.6164   11.8540   -6.4839 H   0  0  0  0  0  0  0  0  0  0  0  0
    2.7651   10.4730   -6.4839 H   0  0  0  0  0  0  0  0  0  0  0  0
    3.5236   14.1488   -4.9840 H   0  0  0  0  0  0  0  0  0  0  0  0
    4.2970   13.2782   -6.3516 H   0  0  0  0  0  0  0  0  0  0  0  0
    2.5221   13.5545   -6.3516 H   0  0  0  0  0  0  0  0  0  0  0  0
    2.7866   11.4048    0.7895 H   0  0  0  0  0  0  0  0  0  0  0  0
    4.0309   10.9661   -0.4295 H   0  0  0  0  0  0  0  0  0  0  0  0
    3.3151   12.6136   -0.4295 H   0  0  0  0  0  0  0  0  0  0  0  0
    2.1963    8.8958   -1.0980 H   0  0  0  0  0  0  0  0  0  0  0  0
    1.5446    9.7457    0.4141 H   0  0  0  0  0  0  0  0  0  0  0  0
    0.0130    9.0022   -2.0933 H   0  0  0  0  0  0  0  0  0  0  0  0
   -0.1783    8.3489   -0.4193 H   0  0  0  0  0  0  0  0  0  0  0  0
   -1.0768    9.6689    1.3895 H   0  0  0  0  0  0  0  0  0  0  0  0
    0.1535   10.9524    1.1332 H   0  0  0  0  0  0  0  0  0  0  0  0
   -1.5936   11.3700    1.1332 H   0  0  0  0  0  0  0  0  0  0  0  0
  1  2  1  0
  2  3  1  0
  3  4  1  0
  4  5  1  0
  5  6  1  0
  6  7  1  0
  7  8  1  0
  7  9  1  0
  2 10  1  0
 10 11  1  0
 11 12  1  0
 12 13  1  0
 13 14  1  6
 13 15  1  0
 15 16  1  0
 16 17  1  0
 17 18  2  0
 18 19  1  0
 19 20  1  0
 20 21  1  0
 21 22  1  0
 22 23  1  0
 22 24  1  0
 24 25  1  0
 24 26  1  0
 19 27  1  0
 27 28  1  1
 27 29  1  0
 29 30  1  0
 30 31  1  0
 31 32  1  1
  7  5  1  0
 31 10  1  0
 31 13  1  0
 27 15  1  0
 24 18  1  0
  1 33  1  0
  1 34  1  0
  1 35  1  0
  2 36  1  1
  3 37  1  0
  3 38  1  0
  4 39  1  0
  4 40  1  0
  5 41  1  6
  8 42  1  0
  8 43  1  0
  8 44  1  0
  9 45  1  0
  9 46  1  0
  9 47  1  0
 10 48  1  6
 11 49  1  0
 11 50  1  0
 12 51  1  0
 12 52  1  0
 14 53  1  0
 14 54  1  0
 14 55  1  0
 15 56  1  1
 16 57  1  0
 16 58  1  0
 17 59  1  0
 19 60  1  6
 20 61  1  0
 20 62  1  0
 21 63  1  0
 21 64  1  0
 22 65  1  6
 23 66  1  0
 25 67  1  0
 25 68  1  0
 25 69  1  0
 26 70  1  0
 26 71  1  0
 26 72  1  0
 28 73  1  0
 28 74  1  0
 28 75  1  0
 29 76  1  0
 29 77  1  0
 30 78  1  0
 30 79  1  0
 32 80  1  0
 32 81  1  0
 32 82  1  0
M  END
>  <meeko>  (20) 
{"is_sidechain": [false], "intermolecular_energy": 2.731, "internal_energy": -0.839}

$$$$
