EPH_relaxed_0001_pdb2pqr_Repair_190_r2_0001_out
     RDKit          3D

 82 86  0  0  0  0  0  0  0  0999 V2000
   -5.1600    5.8360   -1.8240 C   0  0  0  0  0  0  0  0  0  0  0  0
   -5.4710    7.3350   -1.8600 C   0  0  2  0  0  0  0  0  0  0  0  0
   -5.2410    8.0080   -0.4920 C   0  0  0  0  0  0  0  0  0  0  0  0
   -4.2860    9.2040   -0.5470 C   0  0  0  0  0  0  0  0  0  0  0  0
   -2.9000    8.8260   -0.1190 C   0  0  2  0  0  0  0  0  0  0  0  0
   -2.2950    9.7310    0.8150 O   0  0  0  0  0  0  0  0  0  0  0  0
   -1.6660    9.6340   -0.4730 C   0  0  0  0  0  0  0  0  0  0  0  0
   -1.7590   10.8840   -1.2920 C   0  0  0  0  0  0  0  0  0  0  0  0
   -0.3330    8.9540   -0.4430 C   0  0  0  0  0  0  0  0  0  0  0  0
   -6.9090    7.5560   -2.3140 C   0  0  1  0  0  0  0  0  0  0  0  0
   -7.2280    6.8430   -3.6550 C   0  0  0  0  0  0  0  0  0  0  0  0
   -8.7030    6.3730   -3.5720 C   0  0  0  0  0  0  0  0  0  0  0  0
   -9.2780    7.1110   -2.3410 C   0  0  1  0  0  0  0  0  0  0  0  0
   -9.6320    8.5400   -2.8590 C   0  0  0  0  0  0  0  0  0  0  0  0
  -10.4990    6.4330   -1.6370 C   0  0  2  0  0  0  0  0  0  0  0  0
  -11.7610    6.2970   -2.5080 C   0  0  0  0  0  0  0  0  0  0  0  0
  -12.7130    7.4450   -2.4340 C   0  0  0  0  0  0  0  0  0  0  0  0
  -12.7080    8.4060   -1.4920 C   0  0  0  0  0  0  0  0  0  0  0  0
  -11.7340    8.3440   -0.3090 C   0  0  1  0  0  0  0  0  0  0  0  0
  -12.4990    8.6410    1.0080 C   0  0  0  0  0  0  0  0  0  0  0  0
  -13.2670    9.9580    0.9540 C   0  0  0  0  0  0  0  0  0  0  0  0
  -14.2670    9.9590   -0.2000 C   0  0  2  0  0  0  0  0  0  0  0  0
  -15.2830    8.9880    0.0700 O   0  0  0  0  0  0  0  0  0  0  0  0
  -13.6120    9.6600   -1.5780 C   0  0  0  0  0  0  0  0  0  0  0  0
  -12.7360   10.8630   -2.0090 C   0  0  0  0  0  0  0  0  0  0  0  0
  -14.7470    9.5500   -2.6320 C   0  0  0  0  0  0  0  0  0  0  0  0
  -10.8410    7.0320   -0.2130 C   0  0  1  0  0  0  0  0  0  0  0  0
  -11.6110    5.9210    0.5640 C   0  0  0  0  0  0  0  0  0  0  0  0
   -9.5490    7.3500    0.6290 C   0  0  0  0  0  0  0  0  0  0  0  0
   -8.3370    7.9050   -0.1430 C   0  0  0  0  0  0  0  0  0  0  0  0
   -8.0360    7.0520   -1.3790 C   0  0  2  0  0  0  0  0  0  0  0  0
   -7.6550    5.6140   -0.8870 C   0  0  0  0  0  0  0  0  0  0  0  0
   -5.0905    5.5010   -0.7786 H   0  0  0  0  0  0  0  0  0  0  0  0
   -5.9625    5.2827   -2.3338 H   0  0  0  0  0  0  0  0  0  0  0  0
   -4.2036    5.6476   -2.3338 H   0  0  0  0  0  0  0  0  0  0  0  0
   -4.7789    7.8001   -2.5774 H   0  0  0  0  0  0  0  0  0  0  0  0
   -6.2115    8.3559   -0.1086 H   0  0  0  0  0  0  0  0  0  0  0  0
   -4.7765    7.2556    0.1623 H   0  0  0  0  0  0  0  0  0  0  0  0
   -4.2495    9.5841   -1.5786 H   0  0  0  0  0  0  0  0  0  0  0  0
   -4.6604    9.9742    0.1434 H   0  0  0  0  0  0  0  0  0  0  0  0
   -3.1348    7.7560   -0.2190 H   0  0  0  0  0  0  0  0  0  0  0  0
   -1.8239   11.7558   -0.6244 H   0  0  0  0  0  0  0  0  0  0  0  0
   -0.8651   10.9739   -1.9267 H   0  0  0  0  0  0  0  0  0  0  0  0
   -2.6564   10.8406   -1.9267 H   0  0  0  0  0  0  0  0  0  0  0  0
   -0.0250    8.7969    0.6012 H   0  0  0  0  0  0  0  0  0  0  0  0
   -0.4053    7.9826   -0.9541 H   0  0  0  0  0  0  0  0  0  0  0  0
    0.4109    9.5827   -0.9541 H   0  0  0  0  0  0  0  0  0  0  0  0
   -6.9211    8.6550   -2.3584 H   0  0  0  0  0  0  0  0  0  0  0  0
   -7.0997    7.5413   -4.4952 H   0  0  0  0  0  0  0  0  0  0  0  0
   -6.5511    5.9919   -3.8205 H   0  0  0  0  0  0  0  0  0  0  0  0
   -9.2516    6.6523   -4.4836 H   0  0  0  0  0  0  0  0  0  0  0  0
   -8.7884    5.2801   -3.4810 H   0  0  0  0  0  0  0  0  0  0  0  0
   -9.7979    9.2098   -2.0024 H   0  0  0  0  0  0  0  0  0  0  0  0
   -8.8020    8.9246   -3.4699 H   0  0  0  0  0  0  0  0  0  0  0  0
  -10.5456    8.4927   -3.4699 H   0  0  0  0  0  0  0  0  0  0  0  0
  -10.1372    5.4073   -1.4727 H   0  0  0  0  0  0  0  0  0  0  0  0
  -11.4414    6.1872   -3.5548 H   0  0  0  0  0  0  0  0  0  0  0  0
  -12.3061    5.4238   -2.1202 H   0  0  0  0  0  0  0  0  0  0  0  0
  -13.4839    7.5107   -3.2159 H   0  0  0  0  0  0  0  0  0  0  0  0
  -10.9849    9.1287   -0.4911 H   0  0  0  0  0  0  0  0  0  0  0  0
  -13.2121    7.8243    1.1934 H   0  0  0  0  0  0  0  0  0  0  0  0
  -11.7559    8.7206    1.8151 H   0  0  0  0  0  0  0  0  0  0  0  0
  -13.8095   10.0976    1.9007 H   0  0  0  0  0  0  0  0  0  0  0  0
  -12.5495   10.7770    0.7978 H   0  0  0  0  0  0  0  0  0  0  0  0
  -14.6923   10.9712   -0.2675 H   0  0  0  0  0  0  0  0  0  0  0  0
  -15.2400    8.7730    1.0170 H   0  0  0  0  0  0  0  0  0  0  0  0
  -12.3589   11.3809   -1.1148 H   0  0  0  0  0  0  0  0  0  0  0  0
  -11.8875   10.5024   -2.6091 H   0  0  0  0  0  0  0  0  0  0  0  0
  -13.3396   11.5598   -2.6091 H   0  0  0  0  0  0  0  0  0  0  0  0
  -15.7157    9.4561   -2.1193 H   0  0  0  0  0  0  0  0  0  0  0  0
  -14.7513   10.4519   -3.2617 H   0  0  0  0  0  0  0  0  0  0  0  0
  -14.5780    8.6640   -3.2617 H   0  0  0  0  0  0  0  0  0  0  0  0
  -11.4977    6.0845    1.6459 H   0  0  0  0  0  0  0  0  0  0  0  0
  -12.6775    5.9589    0.2972 H   0  0  0  0  0  0  0  0  0  0  0  0
  -11.2011    4.9357    0.2972 H   0  0  0  0  0  0  0  0  0  0  0  0
   -9.8242    8.0910    1.3940 H   0  0  0  0  0  0  0  0  0  0  0  0
   -9.2177    6.3792    1.0263 H   0  0  0  0  0  0  0  0  0  0  0  0
   -8.5543    8.9353   -0.4612 H   0  0  0  0  0  0  0  0  0  0  0  0
   -7.4594    7.8834    0.5199 H   0  0  0  0  0  0  0  0  0  0  0  0
   -7.6492    5.5923    0.2128 H   0  0  0  0  0  0  0  0  0  0  0  0
   -8.3923    4.8901   -1.2642 H   0  0  0  0  0  0  0  0  0  0  0  0
   -6.6560    5.3501   -1.2642 H   0  0  0  0  0  0  0  0  0  0  0  0
  1  2  1  0
  2  3  1  0
  3  4  1  0
  4  5  1  0
  5  6  1  0
  6  7  1  0
  7  8  1  0
  7  9  1  0
  2 10  1  0
 10 11  1  0
 11 12  1  0
 12 13  1  0
 13 14  1  6
 13 15  1  0
 15 16  1  0
 16 17  1  0
 17 18  2  0
 18 19  1  0
 19 20  1  0
 20 21  1  0
 21 22  1  0
 22 23  1  0
 22 24  1  0
 24 25  1  0
 24 26  1  0
 19 27  1  0
 27 28  1  1
 27 29  1  0
 29 30  1  0
 30 31  1  0
 31 32  1  1
  7  5  1  0
 31 10  1  0
 31 13  1  0
 27 15  1  0
 24 18  1  0
  1 33  1  0
  1 34  1  0
  1 35  1  0
  2 36  1  6
  3 37  1  0
  3 38  1  0
  4 39  1  0
  4 40  1  0
  5 41  1  1
  8 42  1  0
  8 43  1  0
  8 44  1  0
  9 45  1  0
  9 46  1  0
  9 47  1  0
 10 48  1  6
 11 49  1  0
 11 50  1  0
 12 51  1  0
 12 52  1  0
 14 53  1  0
 14 54  1  0
 14 55  1  0
 15 56  1  1
 16 57  1  0
 16 58  1  0
 17 59  1  0
 19 60  1  6
 20 61  1  0
 20 62  1  0
 21 63  1  0
 21 64  1  0
 22 65  1  6
 23 66  1  0
 25 67  1  0
 25 68  1  0
 25 69  1  0
 26 70  1  0
 26 71  1  0
 26 72  1  0
 28 73  1  0
 28 74  1  0
 28 75  1  0
 29 76  1  0
 29 77  1  0
 30 78  1  0
 30 79  1  0
 32 80  1  0
 32 81  1  0
 32 82  1  0
M  END
>  <meeko>  (1) 
{"is_sidechain": [false], "intermolecular_energy": 2.731, "internal_energy": -0.839}

$$$$
EPH_relaxed_0001_pdb2pqr_Repair_190_r2_0001_out
     RDKit          3D

 82 86  0  0  0  0  0  0  0  0999 V2000
   -1.3380    8.7650   -0.4360 C   0  0  0  0  0  0  0  0  0  0  0  0
   -2.2430    9.8540    0.1470 C   0  0  2  0  0  0  0  0  0  0  0  0
   -3.4210   10.1910   -0.7890 C   0  0  0  0  0  0  0  0  0  0  0  0
   -4.7340    9.5070   -0.3960 C   0  0  0  0  0  0  0  0  0  0  0  0
   -4.7080    8.0410   -0.7030 C   0  0  2  0  0  0  0  0  0  0  0  0
   -4.6160    7.7220   -2.0980 O   0  0  0  0  0  0  0  0  0  0  0  0
   -5.8250    7.3190   -1.4340 C   0  0  0  0  0  0  0  0  0  0  0  0
   -7.0470    8.0450   -1.9030 C   0  0  0  0  0  0  0  0  0  0  0  0
   -5.9530    5.8380   -1.2620 C   0  0  0  0  0  0  0  0  0  0  0  0
   -1.4280   11.1100    0.4320 C   0  0  1  0  0  0  0  0  0  0  0  0
   -0.3410   10.8830    1.5160 C   0  0  0  0  0  0  0  0  0  0  0  0
    0.8750   11.7590    1.1200 C   0  0  0  0  0  0  0  0  0  0  0  0
    0.3350   12.7030    0.0200 C   0  0  1  0  0  0  0  0  0  0  0  0
   -0.3940   13.8450    0.7950 C   0  0  0  0  0  0  0  0  0  0  0  0
    1.3910   13.2690   -0.9840 C   0  0  2  0  0  0  0  0  0  0  0  0
    2.4810   14.1550   -0.3550 C   0  0  0  0  0  0  0  0  0  0  0  0
    2.1650   15.6130   -0.3000 C   0  0  0  0  0  0  0  0  0  0  0  0
    1.1850   16.2270   -0.9880 C   0  0  0  0  0  0  0  0  0  0  0  0
    0.3330   15.4560   -2.0040 C   0  0  1  0  0  0  0  0  0  0  0  0
    0.2160   16.2810   -3.3130 C   0  0  0  0  0  0  0  0  0  0  0  0
   -0.3040   17.6940   -3.0690 C   0  0  0  0  0  0  0  0  0  0  0  0
    0.6020   18.4480   -2.0990 C   0  0  2  0  0  0  0  0  0  0  0  0
    1.8710   18.6610   -2.7240 O   0  0  0  0  0  0  0  0  0  0  0  0
    0.8020   17.7090   -0.7470 C   0  0  0  0  0  0  0  0  0  0  0  0
   -0.5150   17.7440    0.0660 C   0  0  0  0  0  0  0  0  0  0  0  0
    1.8460   18.5040    0.0830 C   0  0  0  0  0  0  0  0  0  0  0  0
    0.7640   13.9490   -2.2680 C   0  0  1  0  0  0  0  0  0  0  0  0
    1.8570   13.8960   -3.3790 C   0  0  0  0  0  0  0  0  0  0  0  0
   -0.4740   13.1510   -2.8240 C   0  0  0  0  0  0  0  0  0  0  0  0
   -1.4140   12.5140   -1.7830 C   0  0  0  0  0  0  0  0  0  0  0  0
   -0.6210   11.7160   -0.7440 C   0  0  2  0  0  0  0  0  0  0  0  0
    0.1060   10.5460   -1.4910 C   0  0  0  0  0  0  0  0  0  0  0  0
   -0.8689    8.2006    0.3834 H   0  0  0  0  0  0  0  0  0  0  0  0
   -1.9382    8.0820   -1.0551 H   0  0  0  0  0  0  0  0  0  0  0  0
   -0.5567    9.2301   -1.0551 H   0  0  0  0  0  0  0  0  0  0  0  0
   -2.6667    9.4658    1.0850 H   0  0  0  0  0  0  0  0  0  0  0  0
   -3.5778   11.2796   -0.7720 H   0  0  0  0  0  0  0  0  0  0  0  0
   -3.1527    9.8215   -1.7897 H   0  0  0  0  0  0  0  0  0  0  0  0
   -4.8975    9.6424    0.6833 H   0  0  0  0  0  0  0  0  0  0  0  0
   -5.5472    9.9651   -0.9782 H   0  0  0  0  0  0  0  0  0  0  0  0
   -4.1867    7.8289    0.2421 H   0  0  0  0  0  0  0  0  0  0  0  0
   -7.6257    8.3888   -1.0330 H   0  0  0  0  0  0  0  0  0  0  0  0
   -6.7479    8.9120   -2.5103 H   0  0  0  0  0  0  0  0  0  0  0  0
   -7.6654    7.3677   -2.5103 H   0  0  0  0  0  0  0  0  0  0  0  0
   -5.9741    5.5939   -0.1896 H   0  0  0  0  0  0  0  0  0  0  0  0
   -6.8843    5.4931   -1.7350 H   0  0  0  0  0  0  0  0  0  0  0  0
   -5.0947    5.3384   -1.7350 H   0  0  0  0  0  0  0  0  0  0  0  0
   -2.2385   11.7940    0.7240 H   0  0  0  0  0  0  0  0  0  0  0  0
   -0.7209   11.1861    2.5028 H   0  0  0  0  0  0  0  0  0  0  0  0
   -0.0598    9.8213    1.5772 H   0  0  0  0  0  0  0  0  0  0  0  0
    1.2355   12.3362    1.9842 H   0  0  0  0  0  0  0  0  0  0  0  0
    1.7268   11.1566    0.7712 H   0  0  0  0  0  0  0  0  0  0  0  0
   -0.2882   13.6792    1.8773 H   0  0  0  0  0  0  0  0  0  0  0  0
    0.0533   14.8136    0.5270 H   0  0  0  0  0  0  0  0  0  0  0  0
   -1.4608   13.8470    0.5270 H   0  0  0  0  0  0  0  0  0  0  0  0
    1.9058   12.3580   -1.3233 H   0  0  0  0  0  0  0  0  0  0  0  0
    2.6515   13.8052    0.6739 H   0  0  0  0  0  0  0  0  0  0  0  0
    3.3633   14.0593   -1.0049 H   0  0  0  0  0  0  0  0  0  0  0  0
    2.7857   16.2382    0.3586 H   0  0  0  0  0  0  0  0  0  0  0  0
   -0.6601   15.3420   -1.5449 H   0  0  0  0  0  0  0  0  0  0  0  0
    1.2105   16.3467   -3.7785 H   0  0  0  0  0  0  0  0  0  0  0  0
   -0.5043   15.7684   -3.9676 H   0  0  0  0  0  0  0  0  0  0  0  0
   -0.3373   18.2357   -4.0258 H   0  0  0  0  0  0  0  0  0  0  0  0
   -1.3104   17.6272   -2.6301 H   0  0  0  0  0  0  0  0  0  0  0  0
    0.1103   19.4034   -1.8636 H   0  0  0  0  0  0  0  0  0  0  0  0
    1.9390   18.0420   -3.4710 H   0  0  0  0  0  0  0  0  0  0  0  0
   -0.2825   17.7378    1.1411 H   0  0  0  0  0  0  0  0  0  0  0  0
   -1.0753   18.6574   -0.1827 H   0  0  0  0  0  0  0  0  0  0  0  0
   -1.1230   16.8617   -0.1827 H   0  0  0  0  0  0  0  0  0  0  0  0
    1.6515   18.3559    1.1555 H   0  0  0  0  0  0  0  0  0  0  0  0
    2.8572   18.1451   -0.1592 H   0  0  0  0  0  0  0  0  0  0  0  0
    1.7689   19.5742   -0.1592 H   0  0  0  0  0  0  0  0  0  0  0  0
    2.8520   13.8478   -2.9125 H   0  0  0  0  0  0  0  0  0  0  0  0
    1.7015   13.0043   -4.0041 H   0  0  0  0  0  0  0  0  0  0  0  0
    1.7885   14.7985   -4.0041 H   0  0  0  0  0  0  0  0  0  0  0  0
   -1.0723   13.8459   -3.4315 H   0  0  0  0  0  0  0  0  0  0  0  0
   -0.0447   12.3047   -3.3803 H   0  0  0  0  0  0  0  0  0  0  0  0
   -1.9774   13.3091   -1.2727 H   0  0  0  0  0  0  0  0  0  0  0  0
   -2.0999   11.8288   -2.3027 H   0  0  0  0  0  0  0  0  0  0  0  0
    0.5370    9.8523   -0.7541 H   0  0  0  0  0  0  0  0  0  0  0  0
   -0.6172   10.0082   -2.1216 H   0  0  0  0  0  0  0  0  0  0  0  0
    0.9085   10.9562   -2.1216 H   0  0  0  0  0  0  0  0  0  0  0  0
  1  2  1  0
  2  3  1  0
  3  4  1  0
  4  5  1  0
  5  6  1  0
  6  7  1  0
  7  8  1  0
  7  9  1  0
  2 10  1  0
 10 11  1  0
 11 12  1  0
 12 13  1  0
 13 14  1  1
 13 15  1  0
 15 16  1  0
 16 17  1  0
 17 18  2  0
 18 19  1  0
 19 20  1  0
 20 21  1  0
 21 22  1  0
 22 23  1  0
 22 24  1  0
 24 25  1  0
 24 26  1  0
 19 27  1  0
 27 28  1  6
 27 29  1  0
 29 30  1  0
 30 31  1  0
 31 32  1  6
  7  5  1  0
 31 10  1  0
 31 13  1  0
 27 15  1  0
 24 18  1  0
  1 33  1  0
  1 34  1  0
  1 35  1  0
  2 36  1  1
  3 37  1  0
  3 38  1  0
  4 39  1  0
  4 40  1  0
  5 41  1  1
  8 42  1  0
  8 43  1  0
  8 44  1  0
  9 45  1  0
  9 46  1  0
  9 47  1  0
 10 48  1  1
 11 49  1  0
 11 50  1  0
 12 51  1  0
 12 52  1  0
 14 53  1  0
 14 54  1  0
 14 55  1  0
 15 56  1  6
 16 57  1  0
 16 58  1  0
 17 59  1  0
 19 60  1  1
 20 61  1  0
 20 62  1  0
 21 63  1  0
 21 64  1  0
 22 65  1  1
 23 66  1  0
 25 67  1  0
 25 68  1  0
 25 69  1  0
 26 70  1  0
 26 71  1  0
 26 72  1  0
 28 73  1  0
 28 74  1  0
 28 75  1  0
 29 76  1  0
 29 77  1  0
 30 78  1  0
 30 79  1  0
 32 80  1  0
 32 81  1  0
 32 82  1  0
M  END
>  <meeko>  (2) 
{"is_sidechain": [false], "intermolecular_energy": 2.731, "internal_energy": -0.839}

$$$$
EPH_relaxed_0001_pdb2pqr_Repair_190_r2_0001_out
     RDKit          3D

 82 86  0  0  0  0  0  0  0  0999 V2000
  -14.3580    5.4890    0.4820 C   0  0  0  0  0  0  0  0  0  0  0  0
  -13.8060    6.9090    0.3210 C   0  0  2  0  0  0  0  0  0  0  0  0
  -14.9170    7.9310    0.0050 C   0  0  0  0  0  0  0  0  0  0  0  0
  -14.4770    9.3880    0.1690 C   0  0  0  0  0  0  0  0  0  0  0  0
  -15.2230   10.3000   -0.7570 C   0  0  2  0  0  0  0  0  0  0  0  0
  -15.1420    9.9430   -2.1430 O   0  0  0  0  0  0  0  0  0  0  0  0
  -14.5440   11.1970   -1.7760 C   0  0  0  0  0  0  0  0  0  0  0  0
  -13.0550   11.2260   -1.9190 C   0  0  0  0  0  0  0  0  0  0  0  0
  -15.2870   12.3920   -2.2850 C   0  0  0  0  0  0  0  0  0  0  0  0
  -12.7470    6.9340   -0.7750 C   0  0  1  0  0  0  0  0  0  0  0  0
  -13.1170    7.8890   -1.9410 C   0  0  0  0  0  0  0  0  0  0  0  0
  -11.7900    8.5090   -2.4490 C   0  0  0  0  0  0  0  0  0  0  0  0
  -10.6830    7.6520   -1.7930 C   0  0  1  0  0  0  0  0  0  0  0  0
  -10.5770    6.3780   -2.6890 C   0  0  0  0  0  0  0  0  0  0  0  0
   -9.2930    8.3440   -1.6070 C   0  0  2  0  0  0  0  0  0  0  0  0
   -8.5950    8.7670   -2.9110 C   0  0  0  0  0  0  0  0  0  0  0  0
   -7.6900    7.7420   -3.5120 C   0  0  0  0  0  0  0  0  0  0  0  0
   -7.2250    6.6460   -2.8840 C   0  0  0  0  0  0  0  0  0  0  0  0
   -7.5270    6.3990   -1.4010 C   0  0  1  0  0  0  0  0  0  0  0  0
   -6.2250    5.9820   -0.6690 C   0  0  0  0  0  0  0  0  0  0  0  0
   -5.5380    4.7910   -1.3300 C   0  0  0  0  0  0  0  0  0  0  0  0
   -5.2010    5.0960   -2.7870 C   0  0  2  0  0  0  0  0  0  0  0  0
   -4.2030    6.1210   -2.8250 O   0  0  0  0  0  0  0  0  0  0  0  0
   -6.4350    5.5370   -3.6230 C   0  0  0  0  0  0  0  0  0  0  0  0
   -7.3790    4.3270   -3.8350 C   0  0  0  0  0  0  0  0  0  0  0  0
   -5.9350    5.9500   -5.0330 C   0  0  0  0  0  0  0  0  0  0  0  0
   -8.3040    7.5640   -0.6490 C   0  0  1  0  0  0  0  0  0  0  0  0
   -7.2890    8.6160   -0.1060 C   0  0  0  0  0  0  0  0  0  0  0  0
   -9.0380    6.9650    0.6090 C   0  0  0  0  0  0  0  0  0  0  0  0
  -10.4560    6.4050    0.3850 C   0  0  0  0  0  0  0  0  0  0  0  0
  -11.3260    7.4070   -0.3800 C   0  0  2  0  0  0  0  0  0  0  0  0
  -11.4680    8.6910    0.5070 C   0  0  0  0  0  0  0  0  0  0  0  0
  -14.4506    5.2507    1.5519 H   0  0  0  0  0  0  0  0  0  0  0  0
  -15.3470    5.4238    0.0049 H   0  0  0  0  0  0  0  0  0  0  0  0
  -13.6727    4.7729    0.0049 H   0  0  0  0  0  0  0  0  0  0  0  0
  -13.3537    7.1995    1.2807 H   0  0  0  0  0  0  0  0  0  0  0  0
  -15.2412    7.7811   -1.0354 H   0  0  0  0  0  0  0  0  0  0  0  0
  -15.7288    7.7570    0.7266 H   0  0  0  0  0  0  0  0  0  0  0  0
  -14.6643    9.7023    1.2064 H   0  0  0  0  0  0  0  0  0  0  0  0
  -13.4064    9.4524   -0.0752 H   0  0  0  0  0  0  0  0  0  0  0  0
  -15.9806   10.5017    0.0146 H   0  0  0  0  0  0  0  0  0  0  0  0
  -12.5910   11.2350   -0.9217 H   0  0  0  0  0  0  0  0  0  0  0  0
  -12.7221   10.3342   -2.4702 H   0  0  0  0  0  0  0  0  0  0  0  0
  -12.7571   12.1301   -2.4702 H   0  0  0  0  0  0  0  0  0  0  0  0
  -15.6553   12.9844   -1.4345 H   0  0  0  0  0  0  0  0  0  0  0  0
  -14.6132   13.0093   -2.8973 H   0  0  0  0  0  0  0  0  0  0  0  0
  -16.1387   12.0608   -2.8973 H   0  0  0  0  0  0  0  0  0  0  0  0
  -12.7284    5.8661   -1.0380 H   0  0  0  0  0  0  0  0  0  0  0  0
  -13.6068    7.3272   -2.7500 H   0  0  0  0  0  0  0  0  0  0  0  0
  -13.8152    8.6701   -1.6056 H   0  0  0  0  0  0  0  0  0  0  0  0
  -11.7284    8.4497   -3.5457 H   0  0  0  0  0  0  0  0  0  0  0  0
  -11.7013    9.5744   -2.1901 H   0  0  0  0  0  0  0  0  0  0  0  0
  -10.5027    5.4856   -2.0502 H   0  0  0  0  0  0  0  0  0  0  0  0
  -11.4718    6.3009   -3.3241 H   0  0  0  0  0  0  0  0  0  0  0  0
   -9.6817    6.4498   -3.3241 H   0  0  0  0  0  0  0  0  0  0  0  0
   -9.5620    9.2798   -1.0952 H   0  0  0  0  0  0  0  0  0  0  0  0
   -9.3731    9.0086   -3.6501 H   0  0  0  0  0  0  0  0  0  0  0  0
   -7.9547    9.6224   -2.6496 H   0  0  0  0  0  0  0  0  0  0  0  0
   -7.3773    7.8957   -4.5554 H   0  0  0  0  0  0  0  0  0  0  0  0
   -8.2516    5.5719   -1.3719 H   0  0  0  0  0  0  0  0  0  0  0  0
   -5.5307    6.8352   -0.6709 H   0  0  0  0  0  0  0  0  0  0  0  0
   -6.4979    5.6844    0.3542 H   0  0  0  0  0  0  0  0  0  0  0  0
   -4.6096    4.5632   -0.7857 H   0  0  0  0  0  0  0  0  0  0  0  0
   -6.2220    3.9300   -1.3004 H   0  0  0  0  0  0  0  0  0  0  0  0
   -4.8317    4.1647   -3.2412 H   0  0  0  0  0  0  0  0  0  0  0  0
   -4.2230    6.5820   -1.9690 H   0  0  0  0  0  0  0  0  0  0  0  0
   -7.6897    3.9287   -2.8578 H   0  0  0  0  0  0  0  0  0  0  0  0
   -8.2669    4.6490   -4.3988 H   0  0  0  0  0  0  0  0  0  0  0  0
   -6.8506    3.5441   -4.3988 H   0  0  0  0  0  0  0  0  0  0  0  0
   -5.0904    6.6476   -4.9328 H   0  0  0  0  0  0  0  0  0  0  0  0
   -5.6081    5.0551   -5.5828 H   0  0  0  0  0  0  0  0  0  0  0  0
   -6.7521    6.4400   -5.5828 H   0  0  0  0  0  0  0  0  0  0  0  0
   -7.3011    8.6035    0.9939 H   0  0  0  0  0  0  0  0  0  0  0  0
   -6.2786    8.3697   -0.4644 H   0  0  0  0  0  0  0  0  0  0  0  0
   -7.5713    9.6169   -0.4644 H   0  0  0  0  0  0  0  0  0  0  0  0
   -8.4150    6.1468    0.9995 H   0  0  0  0  0  0  0  0  0  0  0  0
   -9.1690    7.8134    1.2968 H   0  0  0  0  0  0  0  0  0  0  0  0
  -10.3873    5.4723   -0.1941 H   0  0  0  0  0  0  0  0  0  0  0  0
  -10.9177    6.2161    1.3654 H   0  0  0  0  0  0  0  0  0  0  0  0
  -11.4367    8.4080    1.5695 H   0  0  0  0  0  0  0  0  0  0  0  0
  -10.6408    9.3819    0.2871 H   0  0  0  0  0  0  0  0  0  0  0  0
  -12.4262    9.1845    0.2871 H   0  0  0  0  0  0  0  0  0  0  0  0
  1  2  1  0
  2  3  1  0
  3  4  1  0
  4  5  1  0
  5  6  1  0
  6  7  1  0
  7  8  1  0
  7  9  1  0
  2 10  1  0
 10 11  1  0
 11 12  1  0
 12 13  1  0
 13 14  1  6
 13 15  1  0
 15 16  1  0
 16 17  1  0
 17 18  2  0
 18 19  1  0
 19 20  1  0
 20 21  1  0
 21 22  1  0
 22 23  1  0
 22 24  1  0
 24 25  1  0
 24 26  1  0
 19 27  1  0
 27 28  1  1
 27 29  1  0
 29 30  1  0
 30 31  1  0
 31 32  1  1
  7  5  1  0
 31 10  1  0
 31 13  1  0
 27 15  1  0
 24 18  1  0
  1 33  1  0
  1 34  1  0
  1 35  1  0
  2 36  1  1
  3 37  1  0
  3 38  1  0
  4 39  1  0
  4 40  1  0
  5 41  1  1
  8 42  1  0
  8 43  1  0
  8 44  1  0
  9 45  1  0
  9 46  1  0
  9 47  1  0
 10 48  1  6
 11 49  1  0
 11 50  1  0
 12 51  1  0
 12 52  1  0
 14 53  1  0
 14 54  1  0
 14 55  1  0
 15 56  1  1
 16 57  1  0
 16 58  1  0
 17 59  1  0
 19 60  1  6
 20 61  1  0
 20 62  1  0
 21 63  1  0
 21 64  1  0
 22 65  1  6
 23 66  1  0
 25 67  1  0
 25 68  1  0
 25 69  1  0
 26 70  1  0
 26 71  1  0
 26 72  1  0
 28 73  1  0
 28 74  1  0
 28 75  1  0
 29 76  1  0
 29 77  1  0
 30 78  1  0
 30 79  1  0
 32 80  1  0
 32 81  1  0
 32 82  1  0
M  END
>  <meeko>  (3) 
{"is_sidechain": [false], "intermolecular_energy": 2.731, "internal_energy": -0.839}

$$$$
EPH_relaxed_0001_pdb2pqr_Repair_190_r2_0001_out
     RDKit          3D

 82 86  0  0  0  0  0  0  0  0999 V2000
  -15.2140    8.8200    0.6280 C   0  0  0  0  0  0  0  0  0  0  0  0
  -14.3320    9.0990   -0.5920 C   0  0  2  0  0  0  0  0  0  0  0  0
  -14.6560    8.1590   -1.7710 C   0  0  0  0  0  0  0  0  0  0  0  0
  -14.6330    8.8530   -3.1360 C   0  0  0  0  0  0  0  0  0  0  0  0
  -15.2870   10.2010   -3.0830 C   0  0  2  0  0  0  0  0  0  0  0  0
  -14.9580   11.0690   -4.1760 O   0  0  0  0  0  0  0  0  0  0  0  0
  -14.5230   11.4940   -2.8740 C   0  0  0  0  0  0  0  0  0  0  0  0
  -13.0360   11.5030   -2.7030 C   0  0  0  0  0  0  0  0  0  0  0  0
  -15.2620   12.6860   -2.3510 C   0  0  0  0  0  0  0  0  0  0  0  0
  -12.8620    8.9680   -0.2120 C   0  0  1  0  0  0  0  0  0  0  0  0
  -12.6400    8.9640    1.3240 C   0  0  0  0  0  0  0  0  0  0  0  0
  -11.4520    8.0090    1.6030 C   0  0  0  0  0  0  0  0  0  0  0  0
  -10.8210    7.7560    0.2140 C   0  0  1  0  0  0  0  0  0  0  0  0
   -9.9200    9.0030   -0.0500 C   0  0  0  0  0  0  0  0  0  0  0  0
  -10.0220    6.4220    0.0490 C   0  0  2  0  0  0  0  0  0  0  0  0
   -8.7870    6.2850    0.9560 C   0  0  0  0  0  0  0  0  0  0  0  0
   -7.5090    6.7930    0.3740 C   0  0  0  0  0  0  0  0  0  0  0  0
   -7.2990    7.0760   -0.9250 C   0  0  0  0  0  0  0  0  0  0  0  0
   -8.3800    6.7940   -1.9770 C   0  0  1  0  0  0  0  0  0  0  0  0
   -7.7410    6.0840   -3.1990 C   0  0  0  0  0  0  0  0  0  0  0  0
   -6.5570    6.8570   -3.7720 C   0  0  0  0  0  0  0  0  0  0  0  0
   -5.4780    7.0660   -2.7120 C   0  0  2  0  0  0  0  0  0  0  0  0
   -4.9150    5.7960   -2.3700 O   0  0  0  0  0  0  0  0  0  0  0  0
   -6.0070    7.7660   -1.4280 C   0  0  0  0  0  0  0  0  0  0  0  0
   -6.3370    9.2460   -1.7410 C   0  0  0  0  0  0  0  0  0  0  0  0
   -4.8560    7.7880   -0.3870 C   0  0  0  0  0  0  0  0  0  0  0  0
   -9.6820    6.0510   -1.4510 C   0  0  1  0  0  0  0  0  0  0  0  0
   -9.4650    4.5070   -1.4890 C   0  0  0  0  0  0  0  0  0  0  0  0
  -10.8780    6.3550   -2.4290 C   0  0  0  0  0  0  0  0  0  0  0  0
  -11.7030    7.6240   -2.1430 C   0  0  0  0  0  0  0  0  0  0  0  0
  -12.1190    7.6880   -0.6700 C   0  0  2  0  0  0  0  0  0  0  0  0
  -13.0450    6.4580   -0.3810 C   0  0  0  0  0  0  0  0  0  0  0  0
  -14.6373    9.0024    1.5468 H   0  0  0  0  0  0  0  0  0  0  0  0
  -16.0901    9.4849    0.6069 H   0  0  0  0  0  0  0  0  0  0  0  0
  -15.5483    7.7722    0.6069 H   0  0  0  0  0  0  0  0  0  0  0  0
  -14.5411   10.1273   -0.9221 H   0  0  0  0  0  0  0  0  0  0  0  0
  -13.9141    7.3470   -1.7817 H   0  0  0  0  0  0  0  0  0  0  0  0
  -15.6804    7.7896   -1.6154 H   0  0  0  0  0  0  0  0  0  0  0  0
  -13.5878    8.9761   -3.4559 H   0  0  0  0  0  0  0  0  0  0  0  0
  -15.1919    8.2281   -3.8482 H   0  0  0  0  0  0  0  0  0  0  0  0
  -16.1715    9.7783   -2.5840 H   0  0  0  0  0  0  0  0  0  0  0  0
  -12.7902   11.5045   -1.6308 H   0  0  0  0  0  0  0  0  0  0  0  0
  -12.6071   10.6074   -3.1763 H   0  0  0  0  0  0  0  0  0  0  0  0
  -12.6179   12.4037   -3.1763 H   0  0  0  0  0  0  0  0  0  0  0  0
  -15.2521   12.6700   -1.2512 H   0  0  0  0  0  0  0  0  0  0  0  0
  -14.7751   13.6052   -2.7087 H   0  0  0  0  0  0  0  0  0  0  0  0
  -16.3018   12.6587   -2.7087 H   0  0  0  0  0  0  0  0  0  0  0  0
  -12.4579    9.8458   -0.7375 H   0  0  0  0  0  0  0  0  0  0  0  0
  -12.4003    9.9788    1.6745 H   0  0  0  0  0  0  0  0  0  0  0  0
  -13.5457    8.6317    1.8525 H   0  0  0  0  0  0  0  0  0  0  0  0
  -10.7247    8.4812    2.2798 H   0  0  0  0  0  0  0  0  0  0  0  0
  -11.7717    7.0771    2.0922 H   0  0  0  0  0  0  0  0  0  0  0  0
   -9.6056    9.4381    0.9101 H   0  0  0  0  0  0  0  0  0  0  0  0
   -9.0317    8.6988   -0.6231 H   0  0  0  0  0  0  0  0  0  0  0  0
  -10.4877    9.7508   -0.6231 H   0  0  0  0  0  0  0  0  0  0  0  0
  -10.7409    5.6707    0.4079 H   0  0  0  0  0  0  0  0  0  0  0  0
   -8.9832    6.8423    1.8839 H   0  0  0  0  0  0  0  0  0  0  0  0
   -8.6425    5.2058    1.1126 H   0  0  0  0  0  0  0  0  0  0  0  0
   -6.6679    6.9491    1.0656 H   0  0  0  0  0  0  0  0  0  0  0  0
   -8.7730    7.7758   -2.2798 H   0  0  0  0  0  0  0  0  0  0  0  0
   -7.3938    5.0882   -2.8863 H   0  0  0  0  0  0  0  0  0  0  0  0
   -8.5078    6.0173   -3.9848 H   0  0  0  0  0  0  0  0  0  0  0  0
   -6.1305    6.2909   -4.6132 H   0  0  0  0  0  0  0  0  0  0  0  0
   -6.9113    7.8415   -4.1115 H   0  0  0  0  0  0  0  0  0  0  0  0
   -4.7180    7.7343   -3.1430 H   0  0  0  0  0  0  0  0  0  0  0  0
   -4.2260    5.5940   -3.0250 H   0  0  0  0  0  0  0  0  0  0  0  0
   -6.4608    9.8011   -0.7994 H   0  0  0  0  0  0  0  0  0  0  0  0
   -5.5157    9.6896   -2.3230 H   0  0  0  0  0  0  0  0  0  0  0  0
   -7.2690    9.2987   -2.3230 H   0  0  0  0  0  0  0  0  0  0  0  0
   -5.2796    7.7799    0.6282 H   0  0  0  0  0  0  0  0  0  0  0  0
   -4.2192    6.9019   -0.5257 H   0  0  0  0  0  0  0  0  0  0  0  0
   -4.2535    8.6978   -0.5257 H   0  0  0  0  0  0  0  0  0  0  0  0
   -9.4105    4.1190   -0.4612 H   0  0  0  0  0  0  0  0  0  0  0  0
  -10.3051    4.0315   -2.0163 H   0  0  0  0  0  0  0  0  0  0  0  0
   -8.5263    4.2815   -2.0163 H   0  0  0  0  0  0  0  0  0  0  0  0
  -10.4629    6.4494   -3.4433 H   0  0  0  0  0  0  0  0  0  0  0  0
  -11.5798    5.5187   -2.2945 H   0  0  0  0  0  0  0  0  0  0  0  0
  -11.0964    8.5094   -2.3843 H   0  0  0  0  0  0  0  0  0  0  0  0
  -12.6113    7.5986   -2.7629 H   0  0  0  0  0  0  0  0  0  0  0  0
  -13.1467    6.3230    0.7059 H   0  0  0  0  0  0  0  0  0  0  0  0
  -14.0368    6.6339   -0.8230 H   0  0  0  0  0  0  0  0  0  0  0  0
  -12.6018    5.5535   -0.8230 H   0  0  0  0  0  0  0  0  0  0  0  0
  1  2  1  0
  2  3  1  0
  3  4  1  0
  4  5  1  0
  5  6  1  0
  6  7  1  0
  7  8  1  0
  7  9  1  0
  2 10  1  0
 10 11  1  0
 11 12  1  0
 12 13  1  0
 13 14  1  6
 13 15  1  0
 15 16  1  0
 16 17  1  0
 17 18  2  0
 18 19  1  0
 19 20  1  0
 20 21  1  0
 21 22  1  0
 22 23  1  0
 22 24  1  0
 24 25  1  0
 24 26  1  0
 19 27  1  0
 27 28  1  1
 27 29  1  0
 29 30  1  0
 30 31  1  0
 31 32  1  1
  7  5  1  0
 31 10  1  0
 31 13  1  0
 27 15  1  0
 24 18  1  0
  1 33  1  0
  1 34  1  0
  1 35  1  0
  2 36  1  6
  3 37  1  0
  3 38  1  0
  4 39  1  0
  4 40  1  0
  5 41  1  1
  8 42  1  0
  8 43  1  0
  8 44  1  0
  9 45  1  0
  9 46  1  0
  9 47  1  0
 10 48  1  6
 11 49  1  0
 11 50  1  0
 12 51  1  0
 12 52  1  0
 14 53  1  0
 14 54  1  0
 14 55  1  0
 15 56  1  1
 16 57  1  0
 16 58  1  0
 17 59  1  0
 19 60  1  6
 20 61  1  0
 20 62  1  0
 21 63  1  0
 21 64  1  0
 22 65  1  6
 23 66  1  0
 25 67  1  0
 25 68  1  0
 25 69  1  0
 26 70  1  0
 26 71  1  0
 26 72  1  0
 28 73  1  0
 28 74  1  0
 28 75  1  0
 29 76  1  0
 29 77  1  0
 30 78  1  0
 30 79  1  0
 32 80  1  0
 32 81  1  0
 32 82  1  0
M  END
>  <meeko>  (4) 
{"is_sidechain": [false], "intermolecular_energy": 2.731, "internal_energy": -0.839}

$$$$
EPH_relaxed_0001_pdb2pqr_Repair_190_r2_0001_out
     RDKit          3D

 82 86  0  0  0  0  0  0  0  0999 V2000
   -5.1100    6.6010   -3.4970 C   0  0  0  0  0  0  0  0  0  0  0  0
   -5.8610    7.5710   -2.5800 C   0  0  2  0  0  0  0  0  0  0  0  0
   -5.2080    7.6750   -1.1870 C   0  0  0  0  0  0  0  0  0  0  0  0
   -4.3650    8.9390   -0.9950 C   0  0  0  0  0  0  0  0  0  0  0  0
   -3.0330    8.6280   -0.3830 C   0  0  2  0  0  0  0  0  0  0  0  0
   -2.6480    9.5010    0.6870 O   0  0  0  0  0  0  0  0  0  0  0  0
   -1.8280    9.5450   -0.4920 C   0  0  0  0  0  0  0  0  0  0  0  0
   -1.8990   10.8420   -1.2350 C   0  0  0  0  0  0  0  0  0  0  0  0
   -0.4640    8.9590   -0.3010 C   0  0  0  0  0  0  0  0  0  0  0  0
   -7.3150    7.1360   -2.4430 C   0  0  1  0  0  0  0  0  0  0  0  0
   -7.5240    5.6360   -2.7820 C   0  0  0  0  0  0  0  0  0  0  0  0
   -8.6400    5.1150   -1.8390 C   0  0  0  0  0  0  0  0  0  0  0  0
   -9.2620    6.3930   -1.2290 C   0  0  1  0  0  0  0  0  0  0  0  0
  -10.2510    6.9170   -2.3160 C   0  0  0  0  0  0  0  0  0  0  0  0
   -9.9650    6.2250    0.1580 C   0  0  2  0  0  0  0  0  0  0  0  0
  -11.1810    5.2820    0.1630 C   0  0  0  0  0  0  0  0  0  0  0  0
  -12.4950    5.9360   -0.1090 C   0  0  0  0  0  0  0  0  0  0  0  0
  -12.7340    7.2600   -0.0660 C   0  0  0  0  0  0  0  0  0  0  0  0
  -11.6440    8.2430    0.3790 C   0  0  1  0  0  0  0  0  0  0  0  0
  -12.2400    9.2520    1.3950 C   0  0  0  0  0  0  0  0  0  0  0  0
  -13.4800    9.9600    0.8590 C   0  0  0  0  0  0  0  0  0  0  0  0
  -14.5630    8.9520    0.4820 C   0  0  2  0  0  0  0  0  0  0  0  0
  -15.0320    8.3120    1.6730 O   0  0  0  0  0  0  0  0  0  0  0  0
  -14.0750    7.8790   -0.5310 C   0  0  0  0  0  0  0  0  0  0  0  0
  -13.8540    8.5330   -1.9170 C   0  0  0  0  0  0  0  0  0  0  0  0
  -15.2180    6.8440   -0.7180 C   0  0  0  0  0  0  0  0  0  0  0  0
  -10.2880    7.5890    0.8910 C   0  0  1  0  0  0  0  0  0  0  0  0
  -10.3950    7.2640    2.4120 C   0  0  0  0  0  0  0  0  0  0  0  0
   -9.1240    8.6390    0.7420 C   0  0  0  0  0  0  0  0  0  0  0  0
   -8.3890    8.6750   -0.6110 C   0  0  0  0  0  0  0  0  0  0  0  0
   -7.9680    7.2670   -1.0440 C   0  0  2  0  0  0  0  0  0  0  0  0
   -6.9550    6.7220    0.0200 C   0  0  0  0  0  0  0  0  0  0  0  0
   -4.5501    5.8778   -2.8859 H   0  0  0  0  0  0  0  0  0  0  0  0
   -5.8304    6.0644   -4.1319 H   0  0  0  0  0  0  0  0  0  0  0  0
   -4.4101    7.1641   -4.1319 H   0  0  0  0  0  0  0  0  0  0  0  0
   -5.8138    8.5681   -3.0421 H   0  0  0  0  0  0  0  0  0  0  0  0
   -6.0049    7.6706   -0.4287 H   0  0  0  0  0  0  0  0  0  0  0  0
   -4.5277    6.8165   -1.0860 H   0  0  0  0  0  0  0  0  0  0  0  0
   -4.2054    9.4135   -1.9745 H   0  0  0  0  0  0  0  0  0  0  0  0
   -4.9065    9.6128   -0.3147 H   0  0  0  0  0  0  0  0  0  0  0  0
   -3.1640    7.5545   -0.5841 H   0  0  0  0  0  0  0  0  0  0  0  0
   -1.9445   11.6740   -0.5168 H   0  0  0  0  0  0  0  0  0  0  0  0
   -1.0055   10.9518   -1.8672 H   0  0  0  0  0  0  0  0  0  0  0  0
   -2.7991   10.8536   -1.8672 H   0  0  0  0  0  0  0  0  0  0  0  0
   -0.2515    8.8677    0.7744 H   0  0  0  0  0  0  0  0  0  0  0  0
   -0.4236    7.9641   -0.7685 H   0  0  0  0  0  0  0  0  0  0  0  0
    0.2855    9.6145   -0.7685 H   0  0  0  0  0  0  0  0  0  0  0  0
   -7.7850    7.8404   -3.1451 H   0  0  0  0  0  0  0  0  0  0  0  0
   -7.8326    5.5244   -3.8319 H   0  0  0  0  0  0  0  0  0  0  0  0
   -6.5930    5.0666   -2.6442 H   0  0  0  0  0  0  0  0  0  0  0  0
   -9.3938    4.5482   -2.4052 H   0  0  0  0  0  0  0  0  0  0  0  0
   -8.2513    4.4316   -1.0697 H   0  0  0  0  0  0  0  0  0  0  0  0
  -11.1219    7.3784   -1.8275 H   0  0  0  0  0  0  0  0  0  0  0  0
   -9.7437    7.6646   -2.9434 H   0  0  0  0  0  0  0  0  0  0  0  0
  -10.5847    6.0774   -2.9434 H   0  0  0  0  0  0  0  0  0  0  0  0
   -9.1917    5.7185    0.7542 H   0  0  0  0  0  0  0  0  0  0  0  0
  -11.0181    4.5130   -0.6065 H   0  0  0  0  0  0  0  0  0  0  0  0
  -11.2479    4.8764    1.1833 H   0  0  0  0  0  0  0  0  0  0  0  0
  -13.3398    5.2802   -0.3665 H   0  0  0  0  0  0  0  0  0  0  0  0
  -11.3237    8.7742   -0.5294 H   0  0  0  0  0  0  0  0  0  0  0  0
  -12.5129    8.7092    2.3120 H   0  0  0  0  0  0  0  0  0  0  0  0
  -11.4762   10.0192    1.5901 H   0  0  0  0  0  0  0  0  0  0  0  0
  -13.8714   10.6364    1.6332 H   0  0  0  0  0  0  0  0  0  0  0  0
  -13.1994   10.5272   -0.0408 H   0  0  0  0  0  0  0  0  0  0  0  0
  -15.3721    9.5072   -0.0151 H   0  0  0  0  0  0  0  0  0  0  0  0
  -15.9730    8.5330    1.7740 H   0  0  0  0  0  0  0  0  0  0  0  0
  -13.5045    9.5673   -1.7828 H   0  0  0  0  0  0  0  0  0  0  0  0
  -13.0994    7.9606   -2.4764 H   0  0  0  0  0  0  0  0  0  0  0  0
  -14.8011    8.5357   -2.4764 H   0  0  0  0  0  0  0  0  0  0  0  0
  -15.5804    6.5159    0.2674 H   0  0  0  0  0  0  0  0  0  0  0  0
  -16.0444    7.3073   -1.2769 H   0  0  0  0  0  0  0  0  0  0  0  0
  -14.8387    5.9758   -1.2769 H   0  0  0  0  0  0  0  0  0  0  0  0
  -10.1038    8.1486    2.9973 H   0  0  0  0  0  0  0  0  0  0  0  0
  -11.4315    6.9879    2.6559 H   0  0  0  0  0  0  0  0  0  0  0  0
   -9.7253    6.4262    2.6559 H   0  0  0  0  0  0  0  0  0  0  0  0
   -9.5525    9.6373    0.9144 H   0  0  0  0  0  0  0  0  0  0  0  0
   -8.3633    8.3306    1.4742 H   0  0  0  0  0  0  0  0  0  0  0  0
   -9.0585    9.1007   -1.3730 H   0  0  0  0  0  0  0  0  0  0  0  0
   -7.4858    9.2935   -0.5031 H   0  0  0  0  0  0  0  0  0  0  0  0
   -7.3381    6.9281    1.0303 H   0  0  0  0  0  0  0  0  0  0  0  0
   -6.8334    5.6367   -0.1117 H   0  0  0  0  0  0  0  0  0  0  0  0
   -5.9823    7.2186   -0.1117 H   0  0  0  0  0  0  0  0  0  0  0  0
  1  2  1  0
  2  3  1  0
  3  4  1  0
  4  5  1  0
  5  6  1  0
  6  7  1  0
  7  8  1  0
  7  9  1  0
  2 10  1  0
 10 11  1  0
 11 12  1  0
 12 13  1  0
 13 14  1  6
 13 15  1  0
 15 16  1  0
 16 17  1  0
 17 18  2  0
 18 19  1  0
 19 20  1  0
 20 21  1  0
 21 22  1  0
 22 23  1  0
 22 24  1  0
 24 25  1  0
 24 26  1  0
 19 27  1  0
 27 28  1  1
 27 29  1  0
 29 30  1  0
 30 31  1  0
 31 32  1  1
  7  5  1  0
 31 10  1  0
 31 13  1  0
 27 15  1  0
 24 18  1  0
  1 33  1  0
  1 34  1  0
  1 35  1  0
  2 36  1  6
  3 37  1  0
  3 38  1  0
  4 39  1  0
  4 40  1  0
  5 41  1  1
  8 42  1  0
  8 43  1  0
  8 44  1  0
  9 45  1  0
  9 46  1  0
  9 47  1  0
 10 48  1  6
 11 49  1  0
 11 50  1  0
 12 51  1  0
 12 52  1  0
 14 53  1  0
 14 54  1  0
 14 55  1  0
 15 56  1  1
 16 57  1  0
 16 58  1  0
 17 59  1  0
 19 60  1  6
 20 61  1  0
 20 62  1  0
 21 63  1  0
 21 64  1  0
 22 65  1  6
 23 66  1  0
 25 67  1  0
 25 68  1  0
 25 69  1  0
 26 70  1  0
 26 71  1  0
 26 72  1  0
 28 73  1  0
 28 74  1  0
 28 75  1  0
 29 76  1  0
 29 77  1  0
 30 78  1  0
 30 79  1  0
 32 80  1  0
 32 81  1  0
 32 82  1  0
M  END
>  <meeko>  (5) 
{"is_sidechain": [false], "intermolecular_energy": 2.731, "internal_energy": -0.839}

$$$$
EPH_relaxed_0001_pdb2pqr_Repair_190_r2_0001_out
     RDKit          3D

 82 86  0  0  0  0  0  0  0  0999 V2000
  -14.0760    9.7450    0.8540 C   0  0  0  0  0  0  0  0  0  0  0  0
  -13.4050    9.2840   -0.4420 C   0  0  2  0  0  0  0  0  0  0  0  0
  -14.3140    8.3500   -1.2660 C   0  0  0  0  0  0  0  0  0  0  0  0
  -14.5380    8.8230   -2.7050 C   0  0  0  0  0  0  0  0  0  0  0  0
  -15.2490   10.1410   -2.7520 C   0  0  2  0  0  0  0  0  0  0  0  0
  -15.0400   10.8920   -3.9550 O   0  0  0  0  0  0  0  0  0  0  0  0
  -14.5330   11.4790   -2.7460 C   0  0  0  0  0  0  0  0  0  0  0  0
  -13.0390   11.5640   -2.6910 C   0  0  0  0  0  0  0  0  0  0  0  0
  -15.2880   12.6930   -2.3020 C   0  0  0  0  0  0  0  0  0  0  0  0
  -12.0890    8.5830   -0.1250 C   0  0  1  0  0  0  0  0  0  0  0  0
  -12.2430    7.4840    0.9600 C   0  0  0  0  0  0  0  0  0  0  0  0
  -11.2560    6.3480    0.5890 C   0  0  0  0  0  0  0  0  0  0  0  0
  -10.3390    6.9650   -0.4920 C   0  0  1  0  0  0  0  0  0  0  0  0
   -9.2820    7.7940    0.3040 C   0  0  0  0  0  0  0  0  0  0  0  0
   -9.6590    5.9600   -1.4780 C   0  0  2  0  0  0  0  0  0  0  0  0
   -8.6970    4.9540   -0.8240 C   0  0  0  0  0  0  0  0  0  0  0  0
   -7.2730    5.3960   -0.7380 C   0  0  0  0  0  0  0  0  0  0  0  0
   -6.7320    6.4240   -1.4180 C   0  0  0  0  0  0  0  0  0  0  0  0
   -7.5510    7.2010   -2.4550 C   0  0  1  0  0  0  0  0  0  0  0  0
   -6.7110    7.3860   -3.7460 C   0  0  0  0  0  0  0  0  0  0  0  0
   -5.3540    8.0280   -3.4750 C   0  0  0  0  0  0  0  0  0  0  0  0
   -4.5460    7.1950   -2.4830 C   0  0  2  0  0  0  0  0  0  0  0  0
   -4.2090    5.9470   -3.0960 O   0  0  0  0  0  0  0  0  0  0  0  0
   -5.2950    6.9360   -1.1460 C   0  0  0  0  0  0  0  0  0  0  0  0
   -5.3930    8.2540   -0.3400 C   0  0  0  0  0  0  0  0  0  0  0  0
   -4.4300    5.9680   -0.2940 C   0  0  0  0  0  0  0  0  0  0  0  0
   -9.0080    6.6390   -2.7500 C   0  0  1  0  0  0  0  0  0  0  0  0
   -8.9420    5.5420   -3.8560 C   0  0  0  0  0  0  0  0  0  0  0  0
   -9.9000    7.8010   -3.3300 C   0  0  0  0  0  0  0  0  0  0  0  0
  -10.6400    8.6850   -2.3090 C   0  0  0  0  0  0  0  0  0  0  0  0
  -11.3880    7.8280   -1.2830 C   0  0  2  0  0  0  0  0  0  0  0  0
  -12.4730    6.9990   -2.0510 C   0  0  0  0  0  0  0  0  0  0  0  0
  -13.5129    9.3581    1.7161 H   0  0  0  0  0  0  0  0  0  0  0  0
  -14.0901   10.8444    0.8887 H   0  0  0  0  0  0  0  0  0  0  0  0
  -15.1073    9.3638    0.8887 H   0  0  0  0  0  0  0  0  0  0  0  0
  -13.2122   10.1792   -1.0514 H   0  0  0  0  0  0  0  0  0  0  0  0
  -13.8512    7.3526   -1.2962 H   0  0  0  0  0  0  0  0  0  0  0  0
  -15.2975    8.3410   -0.7733 H   0  0  0  0  0  0  0  0  0  0  0  0
  -13.5621    8.9267   -3.2019 H   0  0  0  0  0  0  0  0  0  0  0  0
  -15.1644    8.0776   -3.2168 H   0  0  0  0  0  0  0  0  0  0  0  0
  -16.0750    9.7433   -2.1440 H   0  0  0  0  0  0  0  0  0  0  0  0
  -12.7112   11.5826   -1.6411 H   0  0  0  0  0  0  0  0  0  0  0  0
  -12.6031   10.6892   -3.1957 H   0  0  0  0  0  0  0  0  0  0  0  0
  -12.7052   12.4826   -3.1957 H   0  0  0  0  0  0  0  0  0  0  0  0
  -15.3105   12.7291   -1.2028 H   0  0  0  0  0  0  0  0  0  0  0  0
  -14.7915   13.5953   -2.6885 H   0  0  0  0  0  0  0  0  0  0  0  0
  -16.3168   12.6466   -2.6885 H   0  0  0  0  0  0  0  0  0  0  0  0
  -11.4861    9.4519    0.1775 H   0  0  0  0  0  0  0  0  0  0  0  0
  -11.9952    7.8925    1.9508 H   0  0  0  0  0  0  0  0  0  0  0  0
  -13.2771    7.1112    1.0006 H   0  0  0  0  0  0  0  0  0  0  0  0
  -10.6689    6.0415    1.4673 H   0  0  0  0  0  0  0  0  0  0  0  0
  -11.7739    5.4460    0.2311 H   0  0  0  0  0  0  0  0  0  0  0  0
   -9.4498    7.6624    1.3831 H   0  0  0  0  0  0  0  0  0  0  0  0
   -8.2715    7.4451    0.0448 H   0  0  0  0  0  0  0  0  0  0  0  0
   -9.3801    8.8585    0.0448 H   0  0  0  0  0  0  0  0  0  0  0  0
  -10.5137    5.3669   -1.8355 H   0  0  0  0  0  0  0  0  0  0  0  0
   -9.0540    4.7572    0.1977 H   0  0  0  0  0  0  0  0  0  0  0  0
   -8.7009    4.0645   -1.4712 H   0  0  0  0  0  0  0  0  0  0  0  0
   -6.6109    4.8345   -0.0625 H   0  0  0  0  0  0  0  0  0  0  0  0
   -7.7613    8.1817   -2.0034 H   0  0  0  0  0  0  0  0  0  0  0  0
   -6.5489    6.3997   -4.2054 H   0  0  0  0  0  0  0  0  0  0  0  0
   -7.2701    8.0574   -4.4143 H   0  0  0  0  0  0  0  0  0  0  0  0
   -4.7962    8.1038   -4.4200 H   0  0  0  0  0  0  0  0  0  0  0  0
   -5.5173    9.0269   -3.0443 H   0  0  0  0  0  0  0  0  0  0  0  0
   -3.6429    7.7694   -2.2292 H   0  0  0  0  0  0  0  0  0  0  0  0
   -3.9830    6.1270   -4.0250 H   0  0  0  0  0  0  0  0  0  0  0  0
   -5.3762    8.0277    0.7363 H   0  0  0  0  0  0  0  0  0  0  0  0
   -4.5406    8.9020   -0.5918 H   0  0  0  0  0  0  0  0  0  0  0  0
   -6.3319    8.7688   -0.5918 H   0  0  0  0  0  0  0  0  0  0  0  0
   -4.6049    6.1637    0.7742 H   0  0  0  0  0  0  0  0  0  0  0  0
   -4.7059    4.9288   -0.5263 H   0  0  0  0  0  0  0  0  0  0  0  0
   -3.3664    6.1257   -0.5263 H   0  0  0  0  0  0  0  0  0  0  0  0
   -8.8823    4.5497   -3.3851 H   0  0  0  0  0  0  0  0  0  0  0  0
   -9.8451    5.5972   -4.4816 H   0  0  0  0  0  0  0  0  0  0  0  0
   -8.0520    5.7051   -4.4816 H   0  0  0  0  0  0  0  0  0  0  0  0
   -9.2471    8.4560   -3.9256 H   0  0  0  0  0  0  0  0  0  0  0  0
  -10.6930    7.2967   -3.9017 H   0  0  0  0  0  0  0  0  0  0  0  0
   -9.9092    9.3182   -1.7847 H   0  0  0  0  0  0  0  0  0  0  0  0
  -11.3711    9.3061   -2.8473 H   0  0  0  0  0  0  0  0  0  0  0  0
  -13.1309    6.4963   -1.3268 H   0  0  0  0  0  0  0  0  0  0  0  0
  -13.0702    7.6730   -2.6827 H   0  0  0  0  0  0  0  0  0  0  0  0
  -11.9797    6.2456   -2.6827 H   0  0  0  0  0  0  0  0  0  0  0  0
  1  2  1  0
  2  3  1  0
  3  4  1  0
  4  5  1  0
  5  6  1  0
  6  7  1  0
  7  8  1  0
  7  9  1  0
  2 10  1  0
 10 11  1  0
 11 12  1  0
 12 13  1  0
 13 14  1  1
 13 15  1  0
 15 16  1  0
 16 17  1  0
 17 18  2  0
 18 19  1  0
 19 20  1  0
 20 21  1  0
 21 22  1  0
 22 23  1  0
 22 24  1  0
 24 25  1  0
 24 26  1  0
 19 27  1  0
 27 28  1  6
 27 29  1  0
 29 30  1  0
 30 31  1  0
 31 32  1  6
  7  5  1  0
 31 10  1  0
 31 13  1  0
 27 15  1  0
 24 18  1  0
  1 33  1  0
  1 34  1  0
  1 35  1  0
  2 36  1  6
  3 37  1  0
  3 38  1  0
  4 39  1  0
  4 40  1  0
  5 41  1  1
  8 42  1  0
  8 43  1  0
  8 44  1  0
  9 45  1  0
  9 46  1  0
  9 47  1  0
 10 48  1  1
 11 49  1  0
 11 50  1  0
 12 51  1  0
 12 52  1  0
 14 53  1  0
 14 54  1  0
 14 55  1  0
 15 56  1  6
 16 57  1  0
 16 58  1  0
 17 59  1  0
 19 60  1  1
 20 61  1  0
 20 62  1  0
 21 63  1  0
 21 64  1  0
 22 65  1  1
 23 66  1  0
 25 67  1  0
 25 68  1  0
 25 69  1  0
 26 70  1  0
 26 71  1  0
 26 72  1  0
 28 73  1  0
 28 74  1  0
 28 75  1  0
 29 76  1  0
 29 77  1  0
 30 78  1  0
 30 79  1  0
 32 80  1  0
 32 81  1  0
 32 82  1  0
M  END
>  <meeko>  (6) 
{"is_sidechain": [false], "intermolecular_energy": 2.731, "internal_energy": -0.839}

$$$$
EPH_relaxed_0001_pdb2pqr_Repair_190_r2_0001_out
     RDKit          3D

 82 86  0  0  0  0  0  0  0  0999 V2000
  -15.0130    9.1150    0.9420 C   0  0  0  0  0  0  0  0  0  0  0  0
  -14.2050    9.1040   -0.3590 C   0  0  2  0  0  0  0  0  0  0  0  0
  -14.6420    7.9680   -1.3050 C   0  0  0  0  0  0  0  0  0  0  0  0
  -15.2870    8.4610   -2.6030 C   0  0  0  0  0  0  0  0  0  0  0  0
  -15.1110    7.4760   -3.7180 C   0  0  2  0  0  0  0  0  0  0  0  0
  -13.8320    7.5220   -4.3630 O   0  0  0  0  0  0  0  0  0  0  0  0
  -14.9630    7.8770   -5.1740 C   0  0  0  0  0  0  0  0  0  0  0  0
  -14.9840    9.3140   -5.5930 C   0  0  0  0  0  0  0  0  0  0  0  0
  -15.2870    6.8680   -6.2310 C   0  0  0  0  0  0  0  0  0  0  0  0
  -12.7190    8.9790   -0.0460 C   0  0  1  0  0  0  0  0  0  0  0  0
  -12.4260    8.9920    1.4780 C   0  0  0  0  0  0  0  0  0  0  0  0
  -11.2240    8.0410    1.7110 C   0  0  0  0  0  0  0  0  0  0  0  0
  -10.6590    7.7730    0.2970 C   0  0  1  0  0  0  0  0  0  0  0  0
   -9.7720    9.0170   -0.0230 C   0  0  0  0  0  0  0  0  0  0  0  0
   -9.8670    6.4370    0.1110 C   0  0  2  0  0  0  0  0  0  0  0  0
   -8.5910    6.3110    0.9600 C   0  0  0  0  0  0  0  0  0  0  0  0
   -7.3420    6.8140    0.3130 C   0  0  0  0  0  0  0  0  0  0  0  0
   -7.1940    7.0810   -0.9980 C   0  0  0  0  0  0  0  0  0  0  0  0
   -8.3230    6.7870   -1.9940 C   0  0  1  0  0  0  0  0  0  0  0  0
   -7.7410    6.0630   -3.2370 C   0  0  0  0  0  0  0  0  0  0  0  0
   -6.5860    6.8310   -3.8730 C   0  0  0  0  0  0  0  0  0  0  0  0
   -5.4590    7.0520   -2.8680 C   0  0  2  0  0  0  0  0  0  0  0  0
   -4.8790    5.7860   -2.5380 O   0  0  0  0  0  0  0  0  0  0  0  0
   -5.9280    7.7660   -1.5690 C   0  0  0  0  0  0  0  0  0  0  0  0
   -6.2730    9.2420   -1.8820 C   0  0  0  0  0  0  0  0  0  0  0  0
   -4.7290    7.8000   -0.5830 C   0  0  0  0  0  0  0  0  0  0  0  0
   -9.5980    6.0490   -1.3990 C   0  0  1  0  0  0  0  0  0  0  0  0
   -9.3810    4.5050   -1.4300 C   0  0  0  0  0  0  0  0  0  0  0  0
  -10.8390    6.3410   -2.3230 C   0  0  0  0  0  0  0  0  0  0  0  0
  -11.6510    7.6130   -2.0140 C   0  0  0  0  0  0  0  0  0  0  0  0
  -11.9970    7.6940   -0.5240 C   0  0  2  0  0  0  0  0  0  0  0  0
  -12.9070    6.4660   -0.1770 C   0  0  0  0  0  0  0  0  0  0  0  0
  -14.3255    9.1056    1.8007 H   0  0  0  0  0  0  0  0  0  0  0  0
  -15.6347   10.0217    0.9799 H   0  0  0  0  0  0  0  0  0  0  0  0
  -15.6591    8.2256    0.9799 H   0  0  0  0  0  0  0  0  0  0  0  0
  -14.3974   10.0556   -0.8762 H   0  0  0  0  0  0  0  0  0  0  0  0
  -13.7551    7.3707   -1.5631 H   0  0  0  0  0  0  0  0  0  0  0  0
  -15.4033    7.3804   -0.7710 H   0  0  0  0  0  0  0  0  0  0  0  0
  -16.3623    8.6157   -2.4304 H   0  0  0  0  0  0  0  0  0  0  0  0
  -14.7954    9.4008   -2.8948 H   0  0  0  0  0  0  0  0  0  0  0  0
  -15.7711    6.7543   -3.2146 H   0  0  0  0  0  0  0  0  0  0  0  0
  -14.9934    9.9562   -4.7000 H   0  0  0  0  0  0  0  0  0  0  0  0
  -14.0890    9.5340   -6.1934 H   0  0  0  0  0  0  0  0  0  0  0  0
  -15.8851    9.5077   -6.1934 H   0  0  0  0  0  0  0  0  0  0  0  0
  -15.5903    5.9235   -5.7556 H   0  0  0  0  0  0  0  0  0  0  0  0
  -16.1096    7.2441   -6.8571 H   0  0  0  0  0  0  0  0  0  0  0  0
  -14.3993    6.6949   -6.8571 H   0  0  0  0  0  0  0  0  0  0  0  0
  -12.3406    9.8515   -0.5987 H   0  0  0  0  0  0  0  0  0  0  0  0
  -12.1721   10.0107    1.8061 H   0  0  0  0  0  0  0  0  0  0  0  0
  -13.3055    8.6646    2.0519 H   0  0  0  0  0  0  0  0  0  0  0  0
  -10.4663    8.5216    2.3473 H   0  0  0  0  0  0  0  0  0  0  0  0
  -11.5188    7.1142    2.2250 H   0  0  0  0  0  0  0  0  0  0  0  0
   -9.4402    9.4823    0.9169 H   0  0  0  0  0  0  0  0  0  0  0  0
   -8.8941    8.7012   -0.6057 H   0  0  0  0  0  0  0  0  0  0  0  0
  -10.3567    9.7441   -0.6057 H   0  0  0  0  0  0  0  0  0  0  0  0
  -10.5669    5.6896    0.5130 H   0  0  0  0  0  0  0  0  0  0  0  0
   -8.7442    6.8781    1.8900 H   0  0  0  0  0  0  0  0  0  0  0  0
   -8.4377    5.2337    1.1211 H   0  0  0  0  0  0  0  0  0  0  0  0
   -6.4699    6.9802    0.9625 H   0  0  0  0  0  0  0  0  0  0  0  0
   -8.7312    7.7651   -2.2887 H   0  0  0  0  0  0  0  0  0  0  0  0
   -7.3783    5.0710   -2.9298 H   0  0  0  0  0  0  0  0  0  0  0  0
   -8.5436    5.9862   -3.9853 H   0  0  0  0  0  0  0  0  0  0  0  0
   -6.1989    6.2565   -4.7274 H   0  0  0  0  0  0  0  0  0  0  0  0
   -6.9573    7.8116   -4.2054 H   0  0  0  0  0  0  0  0  0  0  0  0
   -4.7205    7.7153   -3.3421 H   0  0  0  0  0  0  0  0  0  0  0  0
   -4.5600    5.8380   -1.6220 H   0  0  0  0  0  0  0  0  0  0  0  0
   -6.4025    9.7959   -0.9405 H   0  0  0  0  0  0  0  0  0  0  0  0
   -5.4563    9.6940   -2.4640 H   0  0  0  0  0  0  0  0  0  0  0  0
   -7.2054    9.2851   -2.4640 H   0  0  0  0  0  0  0  0  0  0  0  0
   -5.1042    7.7894    0.4510 H   0  0  0  0  0  0  0  0  0  0  0  0
   -4.0913    6.9196   -0.7507 H   0  0  0  0  0  0  0  0  0  0  0  0
   -4.1422    8.7151   -0.7507 H   0  0  0  0  0  0  0  0  0  0  0  0
   -9.3271    4.1216   -0.4004 H   0  0  0  0  0  0  0  0  0  0  0  0
  -10.2208    4.0272   -1.9557 H   0  0  0  0  0  0  0  0  0  0  0  0
   -8.4420    4.2772   -1.9557 H   0  0  0  0  0  0  0  0  0  0  0  0
  -10.4721    6.4233   -3.3567 H   0  0  0  0  0  0  0  0  0  0  0  0
  -11.5330    5.5063   -2.1452 H   0  0  0  0  0  0  0  0  0  0  0  0
  -11.0574    8.4957   -2.2941 H   0  0  0  0  0  0  0  0  0  0  0  0
  -12.5874    7.5800   -2.5903 H   0  0  0  0  0  0  0  0  0  0  0  0
  -12.9832    6.3632    0.9155 H   0  0  0  0  0  0  0  0  0  0  0  0
  -13.9099    6.6212   -0.6015 H   0  0  0  0  0  0  0  0  0  0  0  0
  -12.4666    5.5517   -0.6015 H   0  0  0  0  0  0  0  0  0  0  0  0
  1  2  1  0
  2  3  1  0
  3  4  1  0
  4  5  1  0
  5  6  1  0
  6  7  1  0
  7  8  1  0
  7  9  1  0
  2 10  1  0
 10 11  1  0
 11 12  1  0
 12 13  1  0
 13 14  1  6
 13 15  1  0
 15 16  1  0
 16 17  1  0
 17 18  2  0
 18 19  1  0
 19 20  1  0
 20 21  1  0
 21 22  1  0
 22 23  1  0
 22 24  1  0
 24 25  1  0
 24 26  1  0
 19 27  1  0
 27 28  1  1
 27 29  1  0
 29 30  1  0
 30 31  1  0
 31 32  1  1
  7  5  1  0
 31 10  1  0
 31 13  1  0
 27 15  1  0
 24 18  1  0
  1 33  1  0
  1 34  1  0
  1 35  1  0
  2 36  1  6
  3 37  1  0
  3 38  1  0
  4 39  1  0
  4 40  1  0
  5 41  1  6
  8 42  1  0
  8 43  1  0
  8 44  1  0
  9 45  1  0
  9 46  1  0
  9 47  1  0
 10 48  1  6
 11 49  1  0
 11 50  1  0
 12 51  1  0
 12 52  1  0
 14 53  1  0
 14 54  1  0
 14 55  1  0
 15 56  1  1
 16 57  1  0
 16 58  1  0
 17 59  1  0
 19 60  1  6
 20 61  1  0
 20 62  1  0
 21 63  1  0
 21 64  1  0
 22 65  1  6
 23 66  1  0
 25 67  1  0
 25 68  1  0
 25 69  1  0
 26 70  1  0
 26 71  1  0
 26 72  1  0
 28 73  1  0
 28 74  1  0
 28 75  1  0
 29 76  1  0
 29 77  1  0
 30 78  1  0
 30 79  1  0
 32 80  1  0
 32 81  1  0
 32 82  1  0
M  END
>  <meeko>  (7) 
{"is_sidechain": [false], "intermolecular_energy": 2.731, "internal_energy": -0.839}

$$$$
EPH_relaxed_0001_pdb2pqr_Repair_190_r2_0001_out
     RDKit          3D

 82 86  0  0  0  0  0  0  0  0999 V2000
  -12.7210   10.9880   -2.3020 C   0  0  0  0  0  0  0  0  0  0  0  0
  -13.0190    9.7290   -1.4840 C   0  0  2  0  0  0  0  0  0  0  0  0
  -14.0020   10.0060   -0.3290 C   0  0  0  0  0  0  0  0  0  0  0  0
  -15.2870    9.1770   -0.4020 C   0  0  0  0  0  0  0  0  0  0  0  0
  -15.2260    7.9800    0.4970 C   0  0  2  0  0  0  0  0  0  0  0  0
  -13.9110    7.4410    0.6880 O   0  0  0  0  0  0  0  0  0  0  0  0
  -14.8530    6.5900    0.0150 C   0  0  0  0  0  0  0  0  0  0  0  0
  -14.5190    6.3250   -1.4190 C   0  0  0  0  0  0  0  0  0  0  0  0
  -15.2870    5.4100    0.8290 C   0  0  0  0  0  0  0  0  0  0  0  0
  -11.7220    9.1460   -0.9340 C   0  0  1  0  0  0  0  0  0  0  0  0
  -11.9080    8.4770    0.4530 C   0  0  0  0  0  0  0  0  0  0  0  0
  -10.9470    7.2610    0.4960 C   0  0  0  0  0  0  0  0  0  0  0  0
  -10.0100    7.4620   -0.7180 C   0  0  1  0  0  0  0  0  0  0  0  0
   -8.9370    8.4870   -0.2320 C   0  0  0  0  0  0  0  0  0  0  0  0
   -9.3510    6.1710   -1.3030 C   0  0  2  0  0  0  0  0  0  0  0  0
   -8.4150    5.4210   -0.3390 C   0  0  0  0  0  0  0  0  0  0  0  0
   -6.9820    5.8360   -0.3880 C   0  0  0  0  0  0  0  0  0  0  0  0
   -6.4130    6.5660   -1.3650 C   0  0  0  0  0  0  0  0  0  0  0  0
   -7.2090    6.9690   -2.6130 C   0  0  1  0  0  0  0  0  0  0  0  0
   -6.3590    6.6940   -3.8810 C   0  0  0  0  0  0  0  0  0  0  0  0
   -4.9880    7.3610   -3.8230 C   0  0  0  0  0  0  0  0  0  0  0  0
   -4.2040    6.8900   -2.6000 C   0  0  2  0  0  0  0  0  0  0  0  0
   -3.8950    5.5020   -2.7570 O   0  0  0  0  0  0  0  0  0  0  0  0
   -4.9660    7.1080   -1.2630 C   0  0  0  0  0  0  0  0  0  0  0  0
   -5.0350    8.6220   -0.9440 C   0  0  0  0  0  0  0  0  0  0  0  0
   -4.1280    6.4630   -0.1260 C   0  0  0  0  0  0  0  0  0  0  0  0
   -8.6780    6.3720   -2.7210 C   0  0  1  0  0  0  0  0  0  0  0  0
   -8.6320    4.9670   -3.3960 C   0  0  0  0  0  0  0  0  0  0  0  0
   -9.5380    7.2910   -3.6670 C   0  0  0  0  0  0  0  0  0  0  0  0
  -10.2610    8.4820   -3.0080 C   0  0  0  0  0  0  0  0  0  0  0  0
  -11.0340    8.0330   -1.7650 C   0  0  2  0  0  0  0  0  0  0  0  0
  -12.1350    7.0180   -2.2260 C   0  0  0  0  0  0  0  0  0  0  0  0
  -12.5220   11.8289   -1.6214 H   0  0  0  0  0  0  0  0  0  0  0  0
  -11.8394   10.8131   -2.9362 H   0  0  0  0  0  0  0  0  0  0  0  0
  -13.5874   11.2268   -2.9362 H   0  0  0  0  0  0  0  0  0  0  0  0
  -13.4967    9.0029   -2.1582 H   0  0  0  0  0  0  0  0  0  0  0  0
  -13.4953    9.7782    0.6204 H   0  0  0  0  0  0  0  0  0  0  0  0
  -14.2968   11.0631   -0.4045 H   0  0  0  0  0  0  0  0  0  0  0  0
  -16.1358    9.8076   -0.0989 H   0  0  0  0  0  0  0  0  0  0  0  0
  -15.4085    8.8231   -1.4364 H   0  0  0  0  0  0  0  0  0  0  0  0
  -16.0743    8.3525    1.0900 H   0  0  0  0  0  0  0  0  0  0  0  0
  -13.6584    5.6422   -1.4749 H   0  0  0  0  0  0  0  0  0  0  0  0
  -15.3847    5.8654   -1.9182 H   0  0  0  0  0  0  0  0  0  0  0  0
  -14.2683    7.2726   -1.9182 H   0  0  0  0  0  0  0  0  0  0  0  0
  -15.1987    5.6501    1.8988 H   0  0  0  0  0  0  0  0  0  0  0  0
  -16.3335    5.1667    0.5930 H   0  0  0  0  0  0  0  0  0  0  0  0
  -14.6476    4.5466    0.5930 H   0  0  0  0  0  0  0  0  0  0  0  0
  -11.0993   10.0527   -0.9309 H   0  0  0  0  0  0  0  0  0  0  0  0
  -11.6552    9.1880    1.2534 H   0  0  0  0  0  0  0  0  0  0  0  0
  -12.9511    8.1613    0.6024 H   0  0  0  0  0  0  0  0  0  0  0  0
  -10.3718    7.2534    1.4336 H   0  0  0  0  0  0  0  0  0  0  0  0
  -11.4847    6.3023    0.4540 H   0  0  0  0  0  0  0  0  0  0  0  0
   -8.9184    8.5047    0.8677 H   0  0  0  0  0  0  0  0  0  0  0  0
   -7.9479    8.1897   -0.6107 H   0  0  0  0  0  0  0  0  0  0  0  0
   -9.1887    9.4886   -0.6107 H   0  0  0  0  0  0  0  0  0  0  0  0
  -10.2185    5.5111   -1.4513 H   0  0  0  0  0  0  0  0  0  0  0  0
   -8.7810    5.5840    0.6854 H   0  0  0  0  0  0  0  0  0  0  0  0
   -8.4369    4.3669   -0.6528 H   0  0  0  0  0  0  0  0  0  0  0  0
   -6.3368    5.5185    0.4444 H   0  0  0  0  0  0  0  0  0  0  0  0
   -7.3977    8.0485   -2.5178 H   0  0  0  0  0  0  0  0  0  0  0  0
   -6.2185    5.6077   -3.9825 H   0  0  0  0  0  0  0  0  0  0  0  0
   -6.8986    7.1149   -4.7422 H   0  0  0  0  0  0  0  0  0  0  0  0
   -4.4244    7.1054   -4.7324 H   0  0  0  0  0  0  0  0  0  0  0  0
   -5.1295    8.4495   -3.7518 H   0  0  0  0  0  0  0  0  0  0  0  0
   -3.2881    7.4964   -2.5414 H   0  0  0  0  0  0  0  0  0  0  0  0
   -4.4400    5.0060   -2.1240 H   0  0  0  0  0  0  0  0  0  0  0  0
   -5.0416    8.7670    0.1464 H   0  0  0  0  0  0  0  0  0  0  0  0
   -4.1590    9.1280   -1.3759 H   0  0  0  0  0  0  0  0  0  0  0  0
   -5.9534    9.0462   -1.3759 H   0  0  0  0  0  0  0  0  0  0  0  0
   -4.5319    6.7739    0.8488 H   0  0  0  0  0  0  0  0  0  0  0  0
   -4.1770    5.3674   -0.2107 H   0  0  0  0  0  0  0  0  0  0  0  0
   -3.0814    6.7908   -0.2107 H   0  0  0  0  0  0  0  0  0  0  0  0
   -8.6065    4.1880   -2.6198 H   0  0  0  0  0  0  0  0  0  0  0  0
   -9.5262    4.8316   -4.0222 H   0  0  0  0  0  0  0  0  0  0  0  0
   -7.7309    4.8904   -4.0222 H   0  0  0  0  0  0  0  0  0  0  0  0
   -8.8666    7.6949   -4.4391 H   0  0  0  0  0  0  0  0  0  0  0  0
  -10.3402    6.6419   -4.0480 H   0  0  0  0  0  0  0  0  0  0  0  0
   -9.5171    9.2378   -2.7158 H   0  0  0  0  0  0  0  0  0  0  0  0
  -10.9741    8.9039   -3.7316 H   0  0  0  0  0  0  0  0  0  0  0  0
  -12.6170    6.5736   -1.3427 H   0  0  0  0  0  0  0  0  0  0  0  0
  -12.8893    7.5442   -2.8295 H   0  0  0  0  0  0  0  0  0  0  0  0
  -11.6717    6.2235   -2.8295 H   0  0  0  0  0  0  0  0  0  0  0  0
  1  2  1  0
  2  3  1  0
  3  4  1  0
  4  5  1  0
  5  6  1  0
  6  7  1  0
  7  8  1  0
  7  9  1  0
  2 10  1  0
 10 11  1  0
 11 12  1  0
 12 13  1  0
 13 14  1  1
 13 15  1  0
 15 16  1  0
 16 17  1  0
 17 18  2  0
 18 19  1  0
 19 20  1  0
 20 21  1  0
 21 22  1  0
 22 23  1  0
 22 24  1  0
 24 25  1  0
 24 26  1  0
 19 27  1  0
 27 28  1  6
 27 29  1  0
 29 30  1  0
 30 31  1  0
 31 32  1  6
  7  5  1  0
 31 10  1  0
 31 13  1  0
 27 15  1  0
 24 18  1  0
  1 33  1  0
  1 34  1  0
  1 35  1  0
  2 36  1  6
  3 37  1  0
  3 38  1  0
  4 39  1  0
  4 40  1  0
  5 41  1  1
  8 42  1  0
  8 43  1  0
  8 44  1  0
  9 45  1  0
  9 46  1  0
  9 47  1  0
 10 48  1  1
 11 49  1  0
 11 50  1  0
 12 51  1  0
 12 52  1  0
 14 53  1  0
 14 54  1  0
 14 55  1  0
 15 56  1  6
 16 57  1  0
 16 58  1  0
 17 59  1  0
 19 60  1  1
 20 61  1  0
 20 62  1  0
 21 63  1  0
 21 64  1  0
 22 65  1  1
 23 66  1  0
 25 67  1  0
 25 68  1  0
 25 69  1  0
 26 70  1  0
 26 71  1  0
 26 72  1  0
 28 73  1  0
 28 74  1  0
 28 75  1  0
 29 76  1  0
 29 77  1  0
 30 78  1  0
 30 79  1  0
 32 80  1  0
 32 81  1  0
 32 82  1  0
M  END
>  <meeko>  (8) 
{"is_sidechain": [false], "intermolecular_energy": 2.731, "internal_energy": -0.839}

$$$$
EPH_relaxed_0001_pdb2pqr_Repair_190_r2_0001_out
     RDKit          3D

 82 86  0  0  0  0  0  0  0  0999 V2000
  -13.7920    9.9680    0.1950 C   0  0  0  0  0  0  0  0  0  0  0  0
  -13.2180    9.0090   -0.8530 C   0  0  2  0  0  0  0  0  0  0  0  0
  -14.1370    7.7950   -1.0930 C   0  0  0  0  0  0  0  0  0  0  0  0
  -15.2860    8.0750   -2.0650 C   0  0  0  0  0  0  0  0  0  0  0  0
  -15.0450    7.4460   -3.4040 C   0  0  2  0  0  0  0  0  0  0  0  0
  -13.8250    7.8460   -4.0420 O   0  0  0  0  0  0  0  0  0  0  0  0
  -15.0410    8.2260   -4.7060 C   0  0  0  0  0  0  0  0  0  0  0  0
  -15.2840    9.7030   -4.7310 C   0  0  0  0  0  0  0  0  0  0  0  0
  -15.2870    7.4870   -5.9840 C   0  0  0  0  0  0  0  0  0  0  0  0
  -11.8340    8.5380   -0.4240 C   0  0  1  0  0  0  0  0  0  0  0  0
  -11.8640    7.7100    0.8880 C   0  0  0  0  0  0  0  0  0  0  0  0
  -10.7640    6.6250    0.7580 C   0  0  0  0  0  0  0  0  0  0  0  0
   -9.9240    7.0660   -0.4640 C   0  0  1  0  0  0  0  0  0  0  0  0
   -8.9570    8.1600    0.0890 C   0  0  0  0  0  0  0  0  0  0  0  0
   -9.1480    5.9350   -1.2140 C   0  0  2  0  0  0  0  0  0  0  0  0
   -8.0800    5.2110   -0.3760 C   0  0  0  0  0  0  0  0  0  0  0  0
   -6.7110    5.8040   -0.4370 C   0  0  0  0  0  0  0  0  0  0  0  0
   -6.2860    6.6970   -1.3500 C   0  0  0  0  0  0  0  0  0  0  0  0
   -7.1890    7.1260   -2.5130 C   0  0  1  0  0  0  0  0  0  0  0  0
   -6.3820    7.0920   -3.8360 C   0  0  0  0  0  0  0  0  0  0  0  0
   -5.0990    7.9150   -3.7600 C   0  0  0  0  0  0  0  0  0  0  0  0
   -4.2000    7.4200   -2.6290 C   0  0  2  0  0  0  0  0  0  0  0  0
   -3.7370    6.1050   -2.9510 O   0  0  0  0  0  0  0  0  0  0  0  0
   -4.9100    7.4010   -1.2470 C   0  0  0  0  0  0  0  0  0  0  0  0
   -5.1430    8.8530   -0.7610 C   0  0  0  0  0  0  0  0  0  0  0  0
   -3.9420    6.7500   -0.2220 C   0  0  0  0  0  0  0  0  0  0  0  0
   -8.5800    6.3660   -2.6270 C   0  0  1  0  0  0  0  0  0  0  0  0
   -8.4040    5.0560   -3.4540 C   0  0  0  0  0  0  0  0  0  0  0  0
   -9.5930    7.2650   -3.4300 C   0  0  0  0  0  0  0  0  0  0  0  0
  -10.4170    8.2810   -2.6160 C   0  0  0  0  0  0  0  0  0  0  0  0
  -11.0640    7.6120   -1.3990 C   0  0  2  0  0  0  0  0  0  0  0  0
  -12.0590    6.5220   -1.9240 C   0  0  0  0  0  0  0  0  0  0  0  0
  -13.5650    9.5888    1.2023 H   0  0  0  0  0  0  0  0  0  0  0  0
  -13.3409   10.9631    0.0675 H   0  0  0  0  0  0  0  0  0  0  0  0
  -14.8822   10.0406    0.0675 H   0  0  0  0  0  0  0  0  0  0  0  0
  -13.1448    9.5606   -1.8019 H   0  0  0  0  0  0  0  0  0  0  0  0
  -13.5288    6.9745   -1.5015 H   0  0  0  0  0  0  0  0  0  0  0  0
  -14.5909    7.5392   -0.1242 H   0  0  0  0  0  0  0  0  0  0  0  0
  -16.2171    7.6690   -1.6428 H   0  0  0  0  0  0  0  0  0  0  0  0
  -15.3588    9.1636   -2.2055 H   0  0  0  0  0  0  0  0  0  0  0  0
  -15.5687    6.5295   -3.0945 H   0  0  0  0  0  0  0  0  0  0  0  0
  -15.3463   10.0818   -3.7002 H   0  0  0  0  0  0  0  0  0  0  0  0
  -14.4559   10.2020   -5.2556 H   0  0  0  0  0  0  0  0  0  0  0  0
  -16.2283    9.9104   -5.2556 H   0  0  0  0  0  0  0  0  0  0  0  0
  -15.6270    6.4657   -5.7574 H   0  0  0  0  0  0  0  0  0  0  0  0
  -16.0596    8.0097   -6.5670 H   0  0  0  0  0  0  0  0  0  0  0  0
  -14.3552    7.4424   -6.5670 H   0  0  0  0  0  0  0  0  0  0  0  0
  -11.3247    9.5099   -0.3468 H   0  0  0  0  0  0  0  0  0  0  0  0
  -11.6551    8.3597    1.7507 H   0  0  0  0  0  0  0  0  0  0  0  0
  -12.8525    7.2533    1.0441 H   0  0  0  0  0  0  0  0  0  0  0  0
  -10.1424    6.5915    1.6649 H   0  0  0  0  0  0  0  0  0  0  0  0
  -11.1852    5.6166    0.6329 H   0  0  0  0  0  0  0  0  0  0  0  0
   -8.9732    8.1417    1.1887 H   0  0  0  0  0  0  0  0  0  0  0  0
   -7.9353    7.9597   -0.2661 H   0  0  0  0  0  0  0  0  0  0  0  0
   -9.2812    9.1494   -0.2661 H   0  0  0  0  0  0  0  0  0  0  0  0
   -9.9365    5.1910   -1.4005 H   0  0  0  0  0  0  0  0  0  0  0  0
   -8.4079    5.2203    0.6739 H   0  0  0  0  0  0  0  0  0  0  0  0
   -7.9930    4.2004   -0.8015 H   0  0  0  0  0  0  0  0  0  0  0  0
   -5.9890    5.4841    0.3287 H   0  0  0  0  0  0  0  0  0  0  0  0
   -7.4988    8.1581   -2.2921 H   0  0  0  0  0  0  0  0  0  0  0  0
   -6.1185    6.0481   -4.0616 H   0  0  0  0  0  0  0  0  0  0  0  0
   -7.0132    7.5294   -4.6236 H   0  0  0  0  0  0  0  0  0  0  0  0
   -4.5584    7.8281   -4.7140 H   0  0  0  0  0  0  0  0  0  0  0  0
   -5.3655    8.9640   -3.5635 H   0  0  0  0  0  0  0  0  0  0  0  0
   -3.3608    8.1257   -2.5404 H   0  0  0  0  0  0  0  0  0  0  0  0
   -3.7220    6.0270   -3.9200 H   0  0  0  0  0  0  0  0  0  0  0  0
   -5.1466    8.8754    0.3388 H   0  0  0  0  0  0  0  0  0  0  0  0
   -4.3371    9.4997   -1.1383 H   0  0  0  0  0  0  0  0  0  0  0  0
   -6.1107    9.2151   -1.1383 H   0  0  0  0  0  0  0  0  0  0  0  0
   -4.2815    6.9783    0.7991 H   0  0  0  0  0  0  0  0  0  0  0  0
   -3.9306    5.6600   -0.3695 H   0  0  0  0  0  0  0  0  0  0  0  0
   -2.9282    7.1506   -0.3695 H   0  0  0  0  0  0  0  0  0  0  0  0
   -8.2894    4.2027   -2.7693 H   0  0  0  0  0  0  0  0  0  0  0  0
   -9.2894    4.9009   -4.0881 H   0  0  0  0  0  0  0  0  0  0  0  0
   -7.5091    5.1401   -4.0881 H   0  0  0  0  0  0  0  0  0  0  0  0
   -9.0168    7.8279   -4.1790 H   0  0  0  0  0  0  0  0  0  0  0  0
  -10.3312    6.5643   -3.8472 H   0  0  0  0  0  0  0  0  0  0  0  0
   -9.7544    9.0891   -2.2726 H   0  0  0  0  0  0  0  0  0  0  0  0
  -11.2130    8.6834   -3.2598 H   0  0  0  0  0  0  0  0  0  0  0  0
  -12.5262    6.0101   -1.0698 H   0  0  0  0  0  0  0  0  0  0  0  0
  -12.8381    7.0007   -2.5354 H   0  0  0  0  0  0  0  0  0  0  0  0
  -11.5114    5.7897   -2.5354 H   0  0  0  0  0  0  0  0  0  0  0  0
  1  2  1  0
  2  3  1  0
  3  4  1  0
  4  5  1  0
  5  6  1  0
  6  7  1  0
  7  8  1  0
  7  9  1  0
  2 10  1  0
 10 11  1  0
 11 12  1  0
 12 13  1  0
 13 14  1  1
 13 15  1  0
 15 16  1  0
 16 17  1  0
 17 18  2  0
 18 19  1  0
 19 20  1  0
 20 21  1  0
 21 22  1  0
 22 23  1  0
 22 24  1  0
 24 25  1  0
 24 26  1  0
 19 27  1  0
 27 28  1  6
 27 29  1  0
 29 30  1  0
 30 31  1  0
 31 32  1  6
  7  5  1  0
 31 10  1  0
 31 13  1  0
 27 15  1  0
 24 18  1  0
  1 33  1  0
  1 34  1  0
  1 35  1  0
  2 36  1  6
  3 37  1  0
  3 38  1  0
  4 39  1  0
  4 40  1  0
  5 41  1  6
  8 42  1  0
  8 43  1  0
  8 44  1  0
  9 45  1  0
  9 46  1  0
  9 47  1  0
 10 48  1  1
 11 49  1  0
 11 50  1  0
 12 51  1  0
 12 52  1  0
 14 53  1  0
 14 54  1  0
 14 55  1  0
 15 56  1  6
 16 57  1  0
 16 58  1  0
 17 59  1  0
 19 60  1  1
 20 61  1  0
 20 62  1  0
 21 63  1  0
 21 64  1  0
 22 65  1  1
 23 66  1  0
 25 67  1  0
 25 68  1  0
 25 69  1  0
 26 70  1  0
 26 71  1  0
 26 72  1  0
 28 73  1  0
 28 74  1  0
 28 75  1  0
 29 76  1  0
 29 77  1  0
 30 78  1  0
 30 79  1  0
 32 80  1  0
 32 81  1  0
 32 82  1  0
M  END
>  <meeko>  (9) 
{"is_sidechain": [false], "intermolecular_energy": 2.731, "internal_energy": -0.839}

$$$$
EPH_relaxed_0001_pdb2pqr_Repair_190_r2_0001_out
     RDKit          3D

 82 86  0  0  0  0  0  0  0  0999 V2000
  -11.4900    8.8620   -2.6590 C   0  0  0  0  0  0  0  0  0  0  0  0
  -11.0670    7.5840   -1.9290 C   0  0  2  0  0  0  0  0  0  0  0  0
  -12.1370    7.1060   -0.9280 C   0  0  0  0  0  0  0  0  0  0  0  0
  -13.5470    7.6110   -1.2450 C   0  0  0  0  0  0  0  0  0  0  0  0
  -13.7230    9.0470   -0.8520 C   0  0  2  0  0  0  0  0  0  0  0  0
  -15.0710    9.4210   -0.5400 O   0  0  0  0  0  0  0  0  0  0  0  0
  -14.4870   10.0560   -1.6890 C   0  0  0  0  0  0  0  0  0  0  0  0
  -15.1240    9.6700   -2.9870 C   0  0  0  0  0  0  0  0  0  0  0  0
  -14.2000   11.5120   -1.4920 C   0  0  0  0  0  0  0  0  0  0  0  0
   -9.7430    7.8120   -1.2080 C   0  0  1  0  0  0  0  0  0  0  0  0
   -9.8440    7.5570    0.3200 C   0  0  0  0  0  0  0  0  0  0  0  0
   -8.4860    6.9540    0.7630 C   0  0  0  0  0  0  0  0  0  0  0  0
   -7.5440    7.1880   -0.4410 C   0  0  1  0  0  0  0  0  0  0  0  0
   -7.0740    8.6690   -0.3010 C   0  0  0  0  0  0  0  0  0  0  0  0
   -6.3330    6.2080   -0.5720 C   0  0  2  0  0  0  0  0  0  0  0  0
   -5.3280    6.2530    0.5930 C   0  0  0  0  0  0  0  0  0  0  0  0
   -4.2030    7.2200    0.4270 C   0  0  0  0  0  0  0  0  0  0  0  0
   -3.8440    7.8120   -0.7270 C   0  0  0  0  0  0  0  0  0  0  0  0
   -4.5380    7.4510   -2.0470 C   0  0  1  0  0  0  0  0  0  0  0  0
   -3.4700    7.2250   -3.1490 C   0  0  0  0  0  0  0  0  0  0  0  0
   -2.5210    8.4100   -3.2950 C   0  0  0  0  0  0  0  0  0  0  0  0
   -1.8060    8.7020   -1.9780 C   0  0  2  0  0  0  0  0  0  0  0  0
   -0.9340    7.6090   -1.6750 O   0  0  0  0  0  0  0  0  0  0  0  0
   -2.7820    8.9370   -0.7900 C   0  0  0  0  0  0  0  0  0  0  0  0
   -3.5140   10.2880   -0.9780 C   0  0  0  0  0  0  0  0  0  0  0  0
   -1.9340    9.0790    0.5030 C   0  0  0  0  0  0  0  0  0  0  0  0
   -5.5970    6.2680   -1.9720 C   0  0  1  0  0  0  0  0  0  0  0  0
   -4.8780    4.8970   -2.1560 C   0  0  0  0  0  0  0  0  0  0  0  0
   -6.6070    6.4050   -3.1720 C   0  0  0  0  0  0  0  0  0  0  0  0
   -7.8450    7.2920   -2.9410 C   0  0  0  0  0  0  0  0  0  0  0  0
   -8.5430    6.9270   -1.6270 C   0  0  2  0  0  0  0  0  0  0  0  0
   -9.0470    5.4480   -1.7470 C   0  0  0  0  0  0  0  0  0  0  0  0
  -11.7466    9.6373   -1.9221 H   0  0  0  0  0  0  0  0  0  0  0  0
  -10.6610    9.2155   -3.2896 H   0  0  0  0  0  0  0  0  0  0  0  0
  -12.3663    8.6511   -3.2896 H   0  0  0  0  0  0  0  0  0  0  0  0
  -10.9474    6.7944   -2.6855 H   0  0  0  0  0  0  0  0  0  0  0  0
  -12.1524    6.0061   -0.9353 H   0  0  0  0  0  0  0  0  0  0  0  0
  -11.8627    7.5159    0.0552 H   0  0  0  0  0  0  0  0  0  0  0  0
  -13.7263    7.5126   -2.3258 H   0  0  0  0  0  0  0  0  0  0  0  0
  -14.2647    7.0076   -0.6699 H   0  0  0  0  0  0  0  0  0  0  0  0
  -12.7199    9.0712   -0.4013 H   0  0  0  0  0  0  0  0  0  0  0  0
  -16.0494    9.1093   -2.7889 H   0  0  0  0  0  0  0  0  0  0  0  0
  -15.3609   10.5766   -3.5631 H   0  0  0  0  0  0  0  0  0  0  0  0
  -14.4300    9.0404   -3.5631 H   0  0  0  0  0  0  0  0  0  0  0  0
  -14.1561   11.7347   -0.4157 H   0  0  0  0  0  0  0  0  0  0  0  0
  -13.2353   11.7619   -1.9578 H   0  0  0  0  0  0  0  0  0  0  0  0
  -14.9977   12.1093   -1.9578 H   0  0  0  0  0  0  0  0  0  0  0  0
   -9.5556    8.8579   -1.4926 H   0  0  0  0  0  0  0  0  0  0  0  0
  -10.0298    8.5026    0.8505 H   0  0  0  0  0  0  0  0  0  0  0  0
  -10.6743    6.8741    0.5527 H   0  0  0  0  0  0  0  0  0  0  0  0
   -8.1066    7.4679    1.6585 H   0  0  0  0  0  0  0  0  0  0  0  0
   -8.5686    5.8894    1.0273 H   0  0  0  0  0  0  0  0  0  0  0  0
   -6.9917    8.9284    0.7648 H   0  0  0  0  0  0  0  0  0  0  0  0
   -6.0934    8.7898   -0.7845 H   0  0  0  0  0  0  0  0  0  0  0  0
   -7.8055    9.3331   -0.7845 H   0  0  0  0  0  0  0  0  0  0  0  0
   -6.8199    5.2236   -0.5098 H   0  0  0  0  0  0  0  0  0  0  0  0
   -5.8779    6.5247    1.5061 H   0  0  0  0  0  0  0  0  0  0  0  0
   -4.8677    5.2549    0.6368 H   0  0  0  0  0  0  0  0  0  0  0  0
   -3.6177    7.4699    1.3242 H   0  0  0  0  0  0  0  0  0  0  0  0
   -5.1653    8.3163   -2.3074 H   0  0  0  0  0  0  0  0  0  0  0  0
   -2.8818    6.3317   -2.8922 H   0  0  0  0  0  0  0  0  0  0  0  0
   -3.9984    7.1003   -4.1057 H   0  0  0  0  0  0  0  0  0  0  0  0
   -1.7726    8.1788   -4.0673 H   0  0  0  0  0  0  0  0  0  0  0  0
   -3.1071    9.2961   -3.5803 H   0  0  0  0  0  0  0  0  0  0  0  0
   -1.2408    9.6365   -2.1093 H   0  0  0  0  0  0  0  0  0  0  0  0
   -0.0900    7.9820   -1.3690 H   0  0  0  0  0  0  0  0  0  0  0  0
   -3.7474   10.7187    0.0069 H   0  0  0  0  0  0  0  0  0  0  0  0
   -2.8677   10.9805   -1.5372 H   0  0  0  0  0  0  0  0  0  0  0  0
   -4.4471   10.1248   -1.5372 H   0  0  0  0  0  0  0  0  0  0  0  0
   -2.5855    8.9699    1.3826 H   0  0  0  0  0  0  0  0  0  0  0  0
   -1.1596    8.2980    0.5212 H   0  0  0  0  0  0  0  0  0  0  0  0
   -1.4562   10.0697    0.5212 H   0  0  0  0  0  0  0  0  0  0  0  0
   -4.6520    4.4662   -1.1694 H   0  0  0  0  0  0  0  0  0  0  0  0
   -5.5327    4.2116   -2.7142 H   0  0  0  0  0  0  0  0  0  0  0  0
   -3.9419    5.0459   -2.7142 H   0  0  0  0  0  0  0  0  0  0  0  0
   -6.0538    6.8220   -4.0264 H   0  0  0  0  0  0  0  0  0  0  0  0
   -7.0048    5.3917   -3.3301 H   0  0  0  0  0  0  0  0  0  0  0  0
   -7.5307    8.3454   -2.9011 H   0  0  0  0  0  0  0  0  0  0  0  0
   -8.5508    7.1322   -3.7695 H   0  0  0  0  0  0  0  0  0  0  0  0
   -9.1905    5.0268   -0.7410 H   0  0  0  0  0  0  0  0  0  0  0  0
  -10.0023    5.4292   -2.2921 H   0  0  0  0  0  0  0  0  0  0  0  0
   -8.3020    4.8498   -2.2921 H   0  0  0  0  0  0  0  0  0  0  0  0
  1  2  1  0
  2  3  1  0
  3  4  1  0
  4  5  1  0
  5  6  1  0
  6  7  1  0
  7  8  1  0
  7  9  1  0
  2 10  1  0
 10 11  1  0
 11 12  1  0
 12 13  1  0
 13 14  1  6
 13 15  1  0
 15 16  1  0
 16 17  1  0
 17 18  2  0
 18 19  1  0
 19 20  1  0
 20 21  1  0
 21 22  1  0
 22 23  1  0
 22 24  1  0
 24 25  1  0
 24 26  1  0
 19 27  1  0
 27 28  1  6
 27 29  1  0
 29 30  1  0
 30 31  1  0
 31 32  1  6
  7  5  1  0
 31 10  1  0
 31 13  1  0
 27 15  1  0
 24 18  1  0
  1 33  1  0
  1 34  1  0
  1 35  1  0
  2 36  1  6
  3 37  1  0
  3 38  1  0
  4 39  1  0
  4 40  1  0
  5 41  1  1
  8 42  1  0
  8 43  1  0
  8 44  1  0
  9 45  1  0
  9 46  1  0
  9 47  1  0
 10 48  1  1
 11 49  1  0
 11 50  1  0
 12 51  1  0
 12 52  1  0
 14 53  1  0
 14 54  1  0
 14 55  1  0
 15 56  1  6
 16 57  1  0
 16 58  1  0
 17 59  1  0
 19 60  1  6
 20 61  1  0
 20 62  1  0
 21 63  1  0
 21 64  1  0
 22 65  1  6
 23 66  1  0
 25 67  1  0
 25 68  1  0
 25 69  1  0
 26 70  1  0
 26 71  1  0
 26 72  1  0
 28 73  1  0
 28 74  1  0
 28 75  1  0
 29 76  1  0
 29 77  1  0
 30 78  1  0
 30 79  1  0
 32 80  1  0
 32 81  1  0
 32 82  1  0
M  END
>  <meeko>  (10) 
{"is_sidechain": [false], "intermolecular_energy": 2.731, "internal_energy": -0.839}

$$$$
EPH_relaxed_0001_pdb2pqr_Repair_190_r2_0001_out
     RDKit          3D

 82 86  0  0  0  0  0  0  0  0999 V2000
    4.5240   19.7030    0.2530 C   0  0  0  0  0  0  0  0  0  0  0  0
    3.1000   20.1110    0.6370 C   0  0  2  0  0  0  0  0  0  0  0  0
    2.9110   20.1930    2.1650 C   0  0  0  0  0  0  0  0  0  0  0  0
    3.8280   19.2500    2.9500 C   0  0  0  0  0  0  0  0  0  0  0  0
    4.8540   20.0050    3.7400 C   0  0  2  0  0  0  0  0  0  0  0  0
    6.1070   20.1930    3.0690 O   0  0  0  0  0  0  0  0  0  0  0  0
    6.1380   19.3820    4.2550 C   0  0  0  0  0  0  0  0  0  0  0  0
    6.4640   17.9430    4.0000 C   0  0  0  0  0  0  0  0  0  0  0  0
    6.8340   20.0300    5.4110 C   0  0  0  0  0  0  0  0  0  0  0  0
    2.0990   19.1290    0.0410 C   0  0  1  0  0  0  0  0  0  0  0  0
    1.4810   19.6390   -1.2890 C   0  0  0  0  0  0  0  0  0  0  0  0
    1.2610   18.3940   -2.1860 C   0  0  0  0  0  0  0  0  0  0  0  0
    1.4450   17.1890   -1.2340 C   0  0  1  0  0  0  0  0  0  0  0  0
    0.0780   17.0510   -0.4930 C   0  0  0  0  0  0  0  0  0  0  0  0
    1.8790   15.8420   -1.9000 C   0  0  2  0  0  0  0  0  0  0  0  0
    0.8750   15.2600   -2.9100 C   0  0  0  0  0  0  0  0  0  0  0  0
   -0.1380   14.3260   -2.3360 C   0  0  0  0  0  0  0  0  0  0  0  0
   -0.0680   13.7450   -1.1240 C   0  0  0  0  0  0  0  0  0  0  0  0
    1.1630   13.9350   -0.2290 C   0  0  1  0  0  0  0  0  0  0  0  0
    1.6030   12.5620    0.3440 C   0  0  0  0  0  0  0  0  0  0  0  0
    0.4680   11.8360    1.0600 C   0  0  0  0  0  0  0  0  0  0  0  0
   -0.7160   11.6150    0.1220 C   0  0  2  0  0  0  0  0  0  0  0  0
   -0.3250   10.6970   -0.9040 O   0  0  0  0  0  0  0  0  0  0  0  0
   -1.2390   12.9280   -0.5240 C   0  0  0  0  0  0  0  0  0  0  0  0
   -1.9360   13.7960    0.5530 C   0  0  0  0  0  0  0  0  0  0  0  0
   -2.3380   12.5490   -1.5540 C   0  0  0  0  0  0  0  0  0  0  0  0
    2.3710   14.7420   -0.8740 C   0  0  1  0  0  0  0  0  0  0  0  0
    3.2940   13.7710   -1.6720 C   0  0  0  0  0  0  0  0  0  0  0  0
    3.2560   15.3500    0.2770 C   0  0  0  0  0  0  0  0  0  0  0  0
    2.8470   16.7360    0.8100 C   0  0  0  0  0  0  0  0  0  0  0  0
    2.6240   17.7220   -0.3410 C   0  0  2  0  0  0  0  0  0  0  0  0
    3.9880   17.8980   -1.0910 C   0  0  0  0  0  0  0  0  0  0  0  0
    5.1154   19.5336    1.1649 H   0  0  0  0  0  0  0  0  0  0  0  0
    4.4927   18.7777   -0.3410 H   0  0  0  0  0  0  0  0  0  0  0  0
    4.9875   20.5045   -0.3410 H   0  0  0  0  0  0  0  0  0  0  0  0
    2.9230   21.1167    0.2280 H   0  0  0  0  0  0  0  0  0  0  0  0
    3.1174   21.2248    2.4856 H   0  0  0  0  0  0  0  0  0  0  0  0
    1.8763   19.8865    2.3780 H   0  0  0  0  0  0  0  0  0  0  0  0
    3.2163   18.6509    3.6406 H   0  0  0  0  0  0  0  0  0  0  0  0
    4.3549   18.6062    2.2303 H   0  0  0  0  0  0  0  0  0  0  0  0
    4.0708   20.5972    4.2358 H   0  0  0  0  0  0  0  0  0  0  0  0
    6.5829   17.4184    4.9595 H   0  0  0  0  0  0  0  0  0  0  0  0
    5.6484   17.4783    3.4266 H   0  0  0  0  0  0  0  0  0  0  0  0
    7.4003   17.8752    3.4266 H   0  0  0  0  0  0  0  0  0  0  0  0
    6.4183   19.6430    6.3530 H   0  0  0  0  0  0  0  0  0  0  0  0
    7.9096   19.8043    5.3647 H   0  0  0  0  0  0  0  0  0  0  0  0
    6.6856   21.1190    5.3647 H   0  0  0  0  0  0  0  0  0  0  0  0
    1.3934   19.0523    0.8814 H   0  0  0  0  0  0  0  0  0  0  0  0
    0.5211   20.1394   -1.0934 H   0  0  0  0  0  0  0  0  0  0  0  0
    2.1442   20.3669   -1.7792 H   0  0  0  0  0  0  0  0  0  0  0  0
    0.2481   18.3987   -2.6150 H   0  0  0  0  0  0  0  0  0  0  0  0
    1.9586   18.3641   -3.0360 H   0  0  0  0  0  0  0  0  0  0  0  0
    0.2467   17.0680    0.5939 H   0  0  0  0  0  0  0  0  0  0  0  0
   -0.5782   17.8875   -0.7753 H   0  0  0  0  0  0  0  0  0  0  0  0
   -0.3978   16.1003   -0.7753 H   0  0  0  0  0  0  0  0  0  0  0  0
    2.7563   16.1425   -2.4916 H   0  0  0  0  0  0  0  0  0  0  0  0
    0.3379   16.0987   -3.3771 H   0  0  0  0  0  0  0  0  0  0  0  0
    1.4682   14.6661   -3.6209 H   0  0  0  0  0  0  0  0  0  0  0  0
   -1.0161   14.0928   -2.9561 H   0  0  0  0  0  0  0  0  0  0  0  0
    0.8447   14.5969    0.5899 H   0  0  0  0  0  0  0  0  0  0  0  0
    1.9577   11.9314   -0.4846 H   0  0  0  0  0  0  0  0  0  0  0  0
    2.3984   12.7471    1.0810 H   0  0  0  0  0  0  0  0  0  0  0  0
    0.8322   10.8609    1.4158 H   0  0  0  0  0  0  0  0  0  0  0  0
    0.1346   12.4543    1.9065 H   0  0  0  0  0  0  0  0  0  0  0  0
   -1.5432   11.2105    0.7238 H   0  0  0  0  0  0  0  0  0  0  0  0
   -0.4560   11.1390   -1.7600 H   0  0  0  0  0  0  0  0  0  0  0  0
   -1.6495   13.4392    1.5533 H   0  0  0  0  0  0  0  0  0  0  0  0
   -1.6264   14.8450    0.4353 H   0  0  0  0  0  0  0  0  0  0  0  0
   -3.0271   13.7203    0.4353 H   0  0  0  0  0  0  0  0  0  0  0  0
   -3.2476   12.2353   -1.0209 H   0  0  0  0  0  0  0  0  0  0  0  0
   -2.5652   13.4207   -2.1853 H   0  0  0  0  0  0  0  0  0  0  0  0
   -1.9795   11.7226   -2.1853 H   0  0  0  0  0  0  0  0  0  0  0  0
    3.8767   13.1580   -0.9686 H   0  0  0  0  0  0  0  0  0  0  0  0
    2.6772   13.1162   -2.3051 H   0  0  0  0  0  0  0  0  0  0  0  0
    3.9792   14.3538   -2.3051 H   0  0  0  0  0  0  0  0  0  0  0  0
    3.2301   14.6474    1.1230 H   0  0  0  0  0  0  0  0  0  0  0  0
    4.2499   15.4961   -0.1712 H   0  0  0  0  0  0  0  0  0  0  0  0
    1.9152   16.6392    1.3866 H   0  0  0  0  0  0  0  0  0  0  0  0
    3.6567   17.1193    1.4484 H   0  0  0  0  0  0  0  0  0  0  0  0
    4.7997   18.0027   -0.3560 H   0  0  0  0  0  0  0  0  0  0  0  0
    4.1760   17.0167   -1.7218 H   0  0  0  0  0  0  0  0  0  0  0  0
    3.9461   18.7982   -1.7218 H   0  0  0  0  0  0  0  0  0  0  0  0
  1  2  1  0
  2  3  1  0
  3  4  1  0
  4  5  1  0
  5  6  1  0
  6  7  1  0
  7  8  1  0
  7  9  1  0
  2 10  1  0
 10 11  1  0
 11 12  1  0
 12 13  1  0
 13 14  1  1
 13 15  1  0
 15 16  1  0
 16 17  1  0
 17 18  2  0
 18 19  1  0
 19 20  1  0
 20 21  1  0
 21 22  1  0
 22 23  1  0
 22 24  1  0
 24 25  1  0
 24 26  1  0
 19 27  1  0
 27 28  1  6
 27 29  1  0
 29 30  1  0
 30 31  1  0
 31 32  1  6
  7  5  1  0
 31 10  1  0
 31 13  1  0
 27 15  1  0
 24 18  1  0
  1 33  1  0
  1 34  1  0
  1 35  1  0
  2 36  1  6
  3 37  1  0
  3 38  1  0
  4 39  1  0
  4 40  1  0
  5 41  1  1
  8 42  1  0
  8 43  1  0
  8 44  1  0
  9 45  1  0
  9 46  1  0
  9 47  1  0
 10 48  1  1
 11 49  1  0
 11 50  1  0
 12 51  1  0
 12 52  1  0
 14 53  1  0
 14 54  1  0
 14 55  1  0
 15 56  1  6
 16 57  1  0
 16 58  1  0
 17 59  1  0
 19 60  1  1
 20 61  1  0
 20 62  1  0
 21 63  1  0
 21 64  1  0
 22 65  1  1
 23 66  1  0
 25 67  1  0
 25 68  1  0
 25 69  1  0
 26 70  1  0
 26 71  1  0
 26 72  1  0
 28 73  1  0
 28 74  1  0
 28 75  1  0
 29 76  1  0
 29 77  1  0
 30 78  1  0
 30 79  1  0
 32 80  1  0
 32 81  1  0
 32 82  1  0
M  END
>  <meeko>  (11) 
{"is_sidechain": [false], "intermolecular_energy": 2.731, "internal_energy": -0.839}

$$$$
EPH_relaxed_0001_pdb2pqr_Repair_190_r2_0001_out
     RDKit          3D

 82 86  0  0  0  0  0  0  0  0999 V2000
    1.3290   12.5310   -5.3700 C   0  0  0  0  0  0  0  0  0  0  0  0
    1.0330   13.8350   -6.1160 C   0  0  2  0  0  0  0  0  0  0  0  0
    2.1210   14.1680   -7.1560 C   0  0  0  0  0  0  0  0  0  0  0  0
    2.1090   15.6300   -7.6120 C   0  0  0  0  0  0  0  0  0  0  0  0
    2.4900   15.7640   -9.0550 C   0  0  2  0  0  0  0  0  0  0  0  0
    1.9180   16.8970   -9.7220 O   0  0  0  0  0  0  0  0  0  0  0  0
    1.5040   15.6060  -10.1980 C   0  0  0  0  0  0  0  0  0  0  0  0
    0.0610   15.2980   -9.9470 C   0  0  0  0  0  0  0  0  0  0  0  0
    2.0330   15.2660  -11.5570 C   0  0  0  0  0  0  0  0  0  0  0  0
    0.8930   14.9820   -5.1220 C   0  0  1  0  0  0  0  0  0  0  0  0
   -0.4980   15.6670   -5.1920 C   0  0  0  0  0  0  0  0  0  0  0  0
   -0.8590   16.0940   -3.7460 C   0  0  0  0  0  0  0  0  0  0  0  0
    0.4610   15.9460   -2.9540 C   0  0  1  0  0  0  0  0  0  0  0  0
    1.2680   17.2440   -3.2720 C   0  0  0  0  0  0  0  0  0  0  0  0
    0.3210   15.7150   -1.4140 C   0  0  2  0  0  0  0  0  0  0  0  0
   -0.3510   16.8640   -0.6410 C   0  0  0  0  0  0  0  0  0  0  0  0
    0.5780   17.9080   -0.1160 C   0  0  0  0  0  0  0  0  0  0  0  0
    1.9140   17.7850   -0.0100 C   0  0  0  0  0  0  0  0  0  0  0  0
    2.6120   16.4620   -0.3490 C   0  0  1  0  0  0  0  0  0  0  0  0
    3.6300   16.1120    0.7680 C   0  0  0  0  0  0  0  0  0  0  0  0
    4.6200   17.2430    1.0320 C   0  0  0  0  0  0  0  0  0  0  0  0
    3.8900   18.5260    1.4230 C   0  0  2  0  0  0  0  0  0  0  0  0
    3.2590   18.3290    2.6920 O   0  0  0  0  0  0  0  0  0  0  0  0
    2.8310   18.9720    0.3770 C   0  0  0  0  0  0  0  0  0  0  0  0
    3.5430   19.4730   -0.9040 C   0  0  0  0  0  0  0  0  0  0  0  0
    2.0710   20.1940    0.9570 C   0  0  0  0  0  0  0  0  0  0  0  0
    1.6550   15.2440   -0.7050 C   0  0  1  0  0  0  0  0  0  0  0  0
    1.2290   14.5040    0.5990 C   0  0  0  0  0  0  0  0  0  0  0  0
    2.4540   14.1980   -1.5690 C   0  0  0  0  0  0  0  0  0  0  0  0
    2.4560   14.4120   -3.0950 C   0  0  0  0  0  0  0  0  0  0  0  0
    1.0340   14.6410   -3.6170 C   0  0  2  0  0  0  0  0  0  0  0  0
    0.2050   13.3420   -3.3320 C   0  0  0  0  0  0  0  0  0  0  0  0
    1.2880   12.7115   -4.2857 H   0  0  0  0  0  0  0  0  0  0  0  0
    0.5799   11.7736   -5.6442 H   0  0  0  0  0  0  0  0  0  0  0  0
    2.3317   12.1712   -5.6442 H   0  0  0  0  0  0  0  0  0  0  0  0
    0.0871   13.6980   -6.6605 H   0  0  0  0  0  0  0  0  0  0  0  0
    3.1038   13.9505   -6.7124 H   0  0  0  0  0  0  0  0  0  0  0  0
    1.9163   13.5522   -8.0442 H   0  0  0  0  0  0  0  0  0  0  0  0
    1.0977   16.0391   -7.4709 H   0  0  0  0  0  0  0  0  0  0  0  0
    2.8455   16.1828   -7.0103 H   0  0  0  0  0  0  0  0  0  0  0  0
    3.4746   15.3131   -8.8621 H   0  0  0  0  0  0  0  0  0  0  0  0
   -0.1224   15.2589   -8.8631 H   0  0  0  0  0  0  0  0  0  0  0  0
   -0.5650   16.0828  -10.3967 H   0  0  0  0  0  0  0  0  0  0  0  0
   -0.1901   14.3260  -10.3967 H   0  0  0  0  0  0  0  0  0  0  0  0
    2.9543   14.6739  -11.4542 H   0  0  0  0  0  0  0  0  0  0  0  0
    1.2810   14.6816  -12.1075 H   0  0  0  0  0  0  0  0  0  0  0  0
    2.2523   16.1927  -12.1075 H   0  0  0  0  0  0  0  0  0  0  0  0
    1.7361   15.6099   -5.4458 H   0  0  0  0  0  0  0  0  0  0  0  0
   -0.4533   16.5492   -5.8476 H   0  0  0  0  0  0  0  0  0  0  0  0
   -1.2552   14.9829   -5.6027 H   0  0  0  0  0  0  0  0  0  0  0  0
   -1.2095   17.1364   -3.7251 H   0  0  0  0  0  0  0  0  0  0  0  0
   -1.6705   15.4846   -3.3216 H   0  0  0  0  0  0  0  0  0  0  0  0
    1.5691   17.7283   -2.3313 H   0  0  0  0  0  0  0  0  0  0  0  0
    2.1645   16.9849   -3.8544 H   0  0  0  0  0  0  0  0  0  0  0  0
    0.6390   17.9334   -3.8544 H   0  0  0  0  0  0  0  0  0  0  0  0
   -0.3815   14.8700   -1.3648 H   0  0  0  0  0  0  0  0  0  0  0  0
   -1.0672   17.3548   -1.3163 H   0  0  0  0  0  0  0  0  0  0  0  0
   -0.8212   16.4038    0.2405 H   0  0  0  0  0  0  0  0  0  0  0  0
    0.1326   18.8588    0.2122 H   0  0  0  0  0  0  0  0  0  0  0  0
    3.1423   16.6331   -1.2974 H   0  0  0  0  0  0  0  0  0  0  0  0
    3.0775   15.9031    1.6959 H   0  0  0  0  0  0  0  0  0  0  0  0
    4.2050   15.2359    0.4336 H   0  0  0  0  0  0  0  0  0  0  0  0
    5.2937   16.9483    1.8501 H   0  0  0  0  0  0  0  0  0  0  0  0
    5.1925   17.4309    0.1117 H   0  0  0  0  0  0  0  0  0  0  0  0
    4.6396   19.3295    1.4722 H   0  0  0  0  0  0  0  0  0  0  0  0
    2.6160   17.6070    2.5920 H   0  0  0  0  0  0  0  0  0  0  0  0
    4.4130   20.0852   -0.6243 H   0  0  0  0  0  0  0  0  0  0  0  0
    3.8777   18.6103   -1.4987 H   0  0  0  0  0  0  0  0  0  0  0  0
    2.8440   20.0793   -1.4987 H   0  0  0  0  0  0  0  0  0  0  0  0
    2.0961   20.1536    2.0560 H   0  0  0  0  0  0  0  0  0  0  0  0
    2.5517   21.1217    0.6131 H   0  0  0  0  0  0  0  0  0  0  0  0
    1.0263   20.1731    0.6131 H   0  0  0  0  0  0  0  0  0  0  0  0
    1.5617   15.0819    1.4739 H   0  0  0  0  0  0  0  0  0  0  0  0
    0.1340   14.4020    0.6217 H   0  0  0  0  0  0  0  0  0  0  0  0
    1.6907   13.5059    0.6217 H   0  0  0  0  0  0  0  0  0  0  0  0
    3.5001   14.2160   -1.2294 H   0  0  0  0  0  0  0  0  0  0  0  0
    1.9345   13.2409   -1.4139 H   0  0  0  0  0  0  0  0  0  0  0  0
    3.0734   15.2903   -3.3347 H   0  0  0  0  0  0  0  0  0  0  0  0
    2.8659   13.5114   -3.5755 H   0  0  0  0  0  0  0  0  0  0  0  0
    0.1125   13.1971   -2.2455 H   0  0  0  0  0  0  0  0  0  0  0  0
   -0.7968   13.4417   -3.7752 H   0  0  0  0  0  0  0  0  0  0  0  0
    0.7174   12.4754   -3.7752 H   0  0  0  0  0  0  0  0  0  0  0  0
  1  2  1  0
  2  3  1  0
  3  4  1  0
  4  5  1  0
  5  6  1  0
  6  7  1  0
  7  8  1  0
  7  9  1  0
  2 10  1  0
 10 11  1  0
 11 12  1  0
 12 13  1  0
 13 14  1  1
 13 15  1  0
 15 16  1  0
 16 17  1  0
 17 18  2  0
 18 19  1  0
 19 20  1  0
 20 21  1  0
 21 22  1  0
 22 23  1  0
 22 24  1  0
 24 25  1  0
 24 26  1  0
 19 27  1  0
 27 28  1  1
 27 29  1  0
 29 30  1  0
 30 31  1  0
 31 32  1  6
  7  5  1  0
 31 10  1  0
 31 13  1  0
 27 15  1  0
 24 18  1  0
  1 33  1  0
  1 34  1  0
  1 35  1  0
  2 36  1  6
  3 37  1  0
  3 38  1  0
  4 39  1  0
  4 40  1  0
  5 41  1  6
  8 42  1  0
  8 43  1  0
  8 44  1  0
  9 45  1  0
  9 46  1  0
  9 47  1  0
 10 48  1  6
 11 49  1  0
 11 50  1  0
 12 51  1  0
 12 52  1  0
 14 53  1  0
 14 54  1  0
 14 55  1  0
 15 56  1  6
 16 57  1  0
 16 58  1  0
 17 59  1  0
 19 60  1  6
 20 61  1  0
 20 62  1  0
 21 63  1  0
 21 64  1  0
 22 65  1  1
 23 66  1  0
 25 67  1  0
 25 68  1  0
 25 69  1  0
 26 70  1  0
 26 71  1  0
 26 72  1  0
 28 73  1  0
 28 74  1  0
 28 75  1  0
 29 76  1  0
 29 77  1  0
 30 78  1  0
 30 79  1  0
 32 80  1  0
 32 81  1  0
 32 82  1  0
M  END
>  <meeko>  (12) 
{"is_sidechain": [false], "intermolecular_energy": 2.731, "internal_energy": -0.839}

$$$$
EPH_relaxed_0001_pdb2pqr_Repair_190_r2_0001_out
     RDKit          3D

 82 86  0  0  0  0  0  0  0  0999 V2000
    6.1150   19.3240    1.0640 C   0  0  0  0  0  0  0  0  0  0  0  0
    4.9290   19.9440    1.8070 C   0  0  2  0  0  0  0  0  0  0  0  0
    5.2430   20.1940    3.2960 C   0  0  0  0  0  0  0  0  0  0  0  0
    6.7160   19.9870    3.6580 C   0  0  0  0  0  0  0  0  0  0  0  0
    6.9260   19.9700    5.1410 C   0  0  2  0  0  0  0  0  0  0  0  0
    6.8730   18.6680    5.7390 O   0  0  0  0  0  0  0  0  0  0  0  0
    5.8440   19.5890    6.1350 C   0  0  0  0  0  0  0  0  0  0  0  0
    4.4710   19.2000    5.6830 C   0  0  0  0  0  0  0  0  0  0  0  0
    5.9720   20.0640    7.5490 C   0  0  0  0  0  0  0  0  0  0  0  0
    3.7060   19.0430    1.6770 C   0  0  1  0  0  0  0  0  0  0  0  0
    2.4750   19.5930    2.4460 C   0  0  0  0  0  0  0  0  0  0  0  0
    1.2230   19.2170    1.6120 C   0  0  0  0  0  0  0  0  0  0  0  0
    1.7370   18.1880    0.5780 C   0  0  1  0  0  0  0  0  0  0  0  0
    1.7850   16.8330    1.3510 C   0  0  0  0  0  0  0  0  0  0  0  0
    0.9150   18.0690   -0.7460 C   0  0  2  0  0  0  0  0  0  0  0  0
   -0.5400   17.5990   -0.5710 C   0  0  0  0  0  0  0  0  0  0  0  0
   -0.7450   16.1210   -0.6410 C   0  0  0  0  0  0  0  0  0  0  0  0
    0.1440   15.2300   -1.1160 C   0  0  0  0  0  0  0  0  0  0  0  0
    1.4670   15.6930   -1.7410 C   0  0  1  0  0  0  0  0  0  0  0  0
    1.7040   14.9330   -3.0730 C   0  0  0  0  0  0  0  0  0  0  0  0
    1.6390   13.4190   -2.9020 C   0  0  0  0  0  0  0  0  0  0  0  0
    0.2880   12.9920   -2.3330 C   0  0  2  0  0  0  0  0  0  0  0  0
   -0.7280   13.2640   -3.3040 O   0  0  0  0  0  0  0  0  0  0  0  0
   -0.0650   13.7000   -0.9950 C   0  0  0  0  0  0  0  0  0  0  0  0
    0.8560   13.1720    0.1320 C   0  0  0  0  0  0  0  0  0  0  0  0
   -1.5100   13.2890   -0.6030 C   0  0  0  0  0  0  0  0  0  0  0  0
    1.6480   17.2650   -1.8950 C   0  0  1  0  0  0  0  0  0  0  0  0
    1.0250   17.7430   -3.2410 C   0  0  0  0  0  0  0  0  0  0  0  0
    3.1850   17.6000   -1.9720 C   0  0  0  0  0  0  0  0  0  0  0  0
    3.9150   17.8240   -0.6350 C   0  0  0  0  0  0  0  0  0  0  0  0
    3.1450   18.8070    0.2520 C   0  0  2  0  0  0  0  0  0  0  0  0
    3.1000   20.1860   -0.4890 C   0  0  0  0  0  0  0  0  0  0  0  0
    6.8452   18.9423    1.7927 H   0  0  0  0  0  0  0  0  0  0  0  0
    5.7599   18.4961    0.4327 H   0  0  0  0  0  0  0  0  0  0  0  0
    6.5921   20.0880    0.4327 H   0  0  0  0  0  0  0  0  0  0  0  0
    4.7226   20.9205    1.3446 H   0  0  0  0  0  0  0  0  0  0  0  0
    4.9681   21.2309    3.5395 H   0  0  0  0  0  0  0  0  0  0  0  0
    4.6637   19.4591    3.8743 H   0  0  0  0  0  0  0  0  0  0  0  0
    7.0544   19.0278    3.2392 H   0  0  0  0  0  0  0  0  0  0  0  0
    7.2924   20.8255    3.2401 H   0  0  0  0  0  0  0  0  0  0  0  0
    7.5990   20.8379    5.0791 H   0  0  0  0  0  0  0  0  0  0  0  0
    3.8334   19.0194    6.5610 H   0  0  0  0  0  0  0  0  0  0  0  0
    4.0405   20.0115    5.0779 H   0  0  0  0  0  0  0  0  0  0  0  0
    4.5302   18.2833    5.0779 H   0  0  0  0  0  0  0  0  0  0  0  0
    5.7485   19.2346    8.2361 H   0  0  0  0  0  0  0  0  0  0  0  0
    6.9980   20.4195    7.7249 H   0  0  0  0  0  0  0  0  0  0  0  0
    5.2636   20.8869    7.7249 H   0  0  0  0  0  0  0  0  0  0  0  0
    4.1227   18.1069    2.0771 H   0  0  0  0  0  0  0  0  0  0  0  0
    2.4166   19.1354    3.4446 H   0  0  0  0  0  0  0  0  0  0  0  0
    2.5476   20.6823    2.5809 H   0  0  0  0  0  0  0  0  0  0  0  0
    0.4493   18.7697    2.2533 H   0  0  0  0  0  0  0  0  0  0  0  0
    0.7618   20.0937    1.1339 H   0  0  0  0  0  0  0  0  0  0  0  0
    1.7781   17.0280    2.4336 H   0  0  0  0  0  0  0  0  0  0  0  0
    0.9078   16.2262    1.0821 H   0  0  0  0  0  0  0  0  0  0  0  0
    2.7030   16.2898    1.0821 H   0  0  0  0  0  0  0  0  0  0  0  0
    0.8529   19.1155   -1.0791 H   0  0  0  0  0  0  0  0  0  0  0  0
   -0.8933   17.9452    0.4115 H   0  0  0  0  0  0  0  0  0  0  0  0
   -1.1014   18.0248   -1.4157 H   0  0  0  0  0  0  0  0  0  0  0  0
   -1.7042   15.7278   -0.2730 H   0  0  0  0  0  0  0  0  0  0  0  0
    2.2534   15.4324   -1.0173 H   0  0  0  0  0  0  0  0  0  0  0  0
    0.9336   15.2396   -3.7958 H   0  0  0  0  0  0  0  0  0  0  0  0
    2.7144   15.1860   -3.4265 H   0  0  0  0  0  0  0  0  0  0  0  0
    1.7851   12.9395   -3.8811 H   0  0  0  0  0  0  0  0  0  0  0  0
    2.4287   13.1104   -2.2011 H   0  0  0  0  0  0  0  0  0  0  0  0
    0.3485   11.9162   -2.1118 H   0  0  0  0  0  0  0  0  0  0  0  0
   -0.7260   14.2220   -3.4710 H   0  0  0  0  0  0  0  0  0  0  0  0
    0.4192   13.4224    1.1100 H   0  0  0  0  0  0  0  0  0  0  0  0
    0.9549   12.0800    0.0433 H   0  0  0  0  0  0  0  0  0  0  0  0
    1.8483   13.6384    0.0433 H   0  0  0  0  0  0  0  0  0  0  0  0
   -1.5994   13.2636    0.4931 H   0  0  0  0  0  0  0  0  0  0  0  0
   -2.2229   14.0200   -1.0122 H   0  0  0  0  0  0  0  0  0  0  0  0
   -1.7315   12.2922   -1.0122 H   0  0  0  0  0  0  0  0  0  0  0  0
    0.1677   18.4008   -3.0351 H   0  0  0  0  0  0  0  0  0  0  0  0
    1.7805   18.2954   -3.8190 H   0  0  0  0  0  0  0  0  0  0  0  0
    0.6870   16.8703   -3.8190 H   0  0  0  0  0  0  0  0  0  0  0  0
    3.6822   16.7646   -2.4866 H   0  0  0  0  0  0  0  0  0  0  0  0
    3.2431   18.5651   -2.4966 H   0  0  0  0  0  0  0  0  0  0  0  0
    4.0074   16.8619   -0.1099 H   0  0  0  0  0  0  0  0  0  0  0  0
    4.9093   18.2454   -0.8445 H   0  0  0  0  0  0  0  0  0  0  0  0
    3.0735   20.9993    0.2512 H   0  0  0  0  0  0  0  0  0  0  0  0
    3.9951   20.2929   -1.1193 H   0  0  0  0  0  0  0  0  0  0  0  0
    2.1998   20.2344   -1.1193 H   0  0  0  0  0  0  0  0  0  0  0  0
  1  2  1  0
  2  3  1  0
  3  4  1  0
  4  5  1  0
  5  6  1  0
  6  7  1  0
  7  8  1  0
  7  9  1  0
  2 10  1  0
 10 11  1  0
 11 12  1  0
 12 13  1  0
 13 14  1  1
 13 15  1  0
 15 16  1  0
 16 17  1  0
 17 18  2  0
 18 19  1  0
 19 20  1  0
 20 21  1  0
 21 22  1  0
 22 23  1  0
 22 24  1  0
 24 25  1  0
 24 26  1  0
 19 27  1  0
 27 28  1  6
 27 29  1  0
 29 30  1  0
 30 31  1  0
 31 32  1  6
  7  5  1  0
 31 10  1  0
 31 13  1  0
 27 15  1  0
 24 18  1  0
  1 33  1  0
  1 34  1  0
  1 35  1  0
  2 36  1  6
  3 37  1  0
  3 38  1  0
  4 39  1  0
  4 40  1  0
  5 41  1  1
  8 42  1  0
  8 43  1  0
  8 44  1  0
  9 45  1  0
  9 46  1  0
  9 47  1  0
 10 48  1  1
 11 49  1  0
 11 50  1  0
 12 51  1  0
 12 52  1  0
 14 53  1  0
 14 54  1  0
 14 55  1  0
 15 56  1  6
 16 57  1  0
 16 58  1  0
 17 59  1  0
 19 60  1  1
 20 61  1  0
 20 62  1  0
 21 63  1  0
 21 64  1  0
 22 65  1  1
 23 66  1  0
 25 67  1  0
 25 68  1  0
 25 69  1  0
 26 70  1  0
 26 71  1  0
 26 72  1  0
 28 73  1  0
 28 74  1  0
 28 75  1  0
 29 76  1  0
 29 77  1  0
 30 78  1  0
 30 79  1  0
 32 80  1  0
 32 81  1  0
 32 82  1  0
M  END
>  <meeko>  (13) 
{"is_sidechain": [false], "intermolecular_energy": 2.731, "internal_energy": -0.839}

$$$$
EPH_relaxed_0001_pdb2pqr_Repair_190_r2_0001_out
     RDKit          3D

 82 86  0  0  0  0  0  0  0  0999 V2000
    2.1640   12.5350   -5.7670 C   0  0  0  0  0  0  0  0  0  0  0  0
    1.2170   13.6820   -6.1310 C   0  0  2  0  0  0  0  0  0  0  0  0
    1.9620   14.8670   -6.7780 C   0  0  0  0  0  0  0  0  0  0  0  0
    1.2490   15.4480   -8.0020 C   0  0  0  0  0  0  0  0  0  0  0  0
    2.1950   15.6620   -9.1450 C   0  0  2  0  0  0  0  0  0  0  0  0
    1.8380   16.7350  -10.0260 O   0  0  0  0  0  0  0  0  0  0  0  0
    1.8250   15.4160  -10.5950 C   0  0  0  0  0  0  0  0  0  0  0  0
    0.4620   14.9330  -10.9810 C   0  0  0  0  0  0  0  0  0  0  0  0
    2.9230   15.1750  -11.5840 C   0  0  0  0  0  0  0  0  0  0  0  0
    0.4680   14.1520   -4.8900 C   0  0  1  0  0  0  0  0  0  0  0  0
   -0.3250   13.0090   -4.2020 C   0  0  0  0  0  0  0  0  0  0  0  0
   -0.2670   13.2790   -2.6770 C   0  0  0  0  0  0  0  0  0  0  0  0
    0.2630   14.7270   -2.5570 C   0  0  1  0  0  0  0  0  0  0  0  0
   -0.9850   15.6330   -2.7970 C   0  0  0  0  0  0  0  0  0  0  0  0
    0.9900   15.0880   -1.2200 C   0  0  2  0  0  0  0  0  0  0  0  0
    0.1160   14.9970    0.0430 C   0  0  0  0  0  0  0  0  0  0  0  0
   -0.5970   16.2540    0.4180 C   0  0  0  0  0  0  0  0  0  0  0  0
   -0.3220   17.4810   -0.0600 C   0  0  0  0  0  0  0  0  0  0  0  0
    0.8660   17.7110   -1.0040 C   0  0  1  0  0  0  0  0  0  0  0  0
    1.6670   18.9540   -0.5350 C   0  0  0  0  0  0  0  0  0  0  0  0
    0.7910   20.1940   -0.3880 C   0  0  0  0  0  0  0  0  0  0  0  0
   -0.3440   19.9450    0.6020 C   0  0  2  0  0  0  0  0  0  0  0  0
    0.2130   19.7720    1.9090 O   0  0  0  0  0  0  0  0  0  0  0  0
   -1.2150   18.7100    0.2380 C   0  0  0  0  0  0  0  0  0  0  0  0
   -2.0540   19.0200   -1.0270 C   0  0  0  0  0  0  0  0  0  0  0  0
   -2.2330   18.4870    1.3890 C   0  0  0  0  0  0  0  0  0  0  0  0
    1.7960   16.4490   -1.2680 C   0  0  1  0  0  0  0  0  0  0  0  0
    2.8930   16.3560   -0.1640 C   0  0  0  0  0  0  0  0  0  0  0  0
    2.5550   16.6470   -2.6330 C   0  0  0  0  0  0  0  0  0  0  0  0
    1.8360   16.1610   -3.9060 C   0  0  0  0  0  0  0  0  0  0  0  0
    1.3120   14.7330   -3.7280 C   0  0  2  0  0  0  0  0  0  0  0  0
    2.5480   13.7950   -3.5060 C   0  0  0  0  0  0  0  0  0  0  0  0
    2.2338   12.4505   -4.6725 H   0  0  0  0  0  0  0  0  0  0  0  0
    1.7766   11.5935   -6.1835 H   0  0  0  0  0  0  0  0  0  0  0  0
    3.1618   12.7371   -6.1835 H   0  0  0  0  0  0  0  0  0  0  0  0
    0.5016   13.2975   -6.8728 H   0  0  0  0  0  0  0  0  0  0  0  0
    2.0666   15.6634   -6.0265 H   0  0  0  0  0  0  0  0  0  0  0  0
    2.9342   14.4855   -7.1234 H   0  0  0  0  0  0  0  0  0  0  0  0
    0.4592   14.7510   -8.3187 H   0  0  0  0  0  0  0  0  0  0  0  0
    0.8247   16.4232   -7.7209 H   0  0  0  0  0  0  0  0  0  0  0  0
    3.0455   15.3264   -8.5335 H   0  0  0  0  0  0  0  0  0  0  0  0
   -0.1240   14.7253  -10.0736 H   0  0  0  0  0  0  0  0  0  0  0  0
   -0.0459   15.7059  -11.5766 H   0  0  0  0  0  0  0  0  0  0  0  0
    0.5541   14.0128  -11.5766 H   0  0  0  0  0  0  0  0  0  0  0  0
    3.8610   14.9691  -11.0476 H   0  0  0  0  0  0  0  0  0  0  0  0
    2.6648   14.3122  -12.2155 H   0  0  0  0  0  0  0  0  0  0  0  0
    3.0499   16.0667  -12.2155 H   0  0  0  0  0  0  0  0  0  0  0  0
   -0.1522   14.9428   -5.3373 H   0  0  0  0  0  0  0  0  0  0  0  0
   -1.3693   13.0113   -4.5476 H   0  0  0  0  0  0  0  0  0  0  0  0
    0.1064   12.0269   -4.4457 H   0  0  0  0  0  0  0  0  0  0  0  0
   -1.2681   13.1935   -2.2292 H   0  0  0  0  0  0  0  0  0  0  0  0
    0.3722   12.5558   -2.1493 H   0  0  0  0  0  0  0  0  0  0  0  0
   -1.4072   15.9395   -1.8286 H   0  0  0  0  0  0  0  0  0  0  0  0
   -0.6860   16.5258   -3.3658 H   0  0  0  0  0  0  0  0  0  0  0  0
   -1.7413   15.0722   -3.3658 H   0  0  0  0  0  0  0  0  0  0  0  0
    1.7315   14.2806   -1.1290 H   0  0  0  0  0  0  0  0  0  0  0  0
   -0.6392   14.2144   -0.1221 H   0  0  0  0  0  0  0  0  0  0  0  0
    0.8036   14.7783    0.8733 H   0  0  0  0  0  0  0  0  0  0  0  0
   -1.4166   16.1697    1.1468 H   0  0  0  0  0  0  0  0  0  0  0  0
    0.4332   17.8994   -1.9976 H   0  0  0  0  0  0  0  0  0  0  0  0
    2.1271   18.7300    0.4387 H   0  0  0  0  0  0  0  0  0  0  0  0
    2.4257   19.1706   -1.3015 H   0  0  0  0  0  0  0  0  0  0  0  0
    1.4078   21.0298   -0.0260 H   0  0  0  0  0  0  0  0  0  0  0  0
    0.3552   20.4347   -1.3689 H   0  0  0  0  0  0  0  0  0  0  0  0
   -1.0097   20.8200    0.5665 H   0  0  0  0  0  0  0  0  0  0  0  0
    0.2280   20.6430    2.3400 H   0  0  0  0  0  0  0  0  0  0  0  0
   -3.0469   19.3869   -0.7276 H   0  0  0  0  0  0  0  0  0  0  0  0
   -1.5441   19.7891   -1.6258 H   0  0  0  0  0  0  0  0  0  0  0  0
   -2.1667   18.1041   -1.6258 H   0  0  0  0  0  0  0  0  0  0  0  0
   -1.7224   18.5988    2.3569 H   0  0  0  0  0  0  0  0  0  0  0  0
   -3.0411   19.2294    1.3128 H   0  0  0  0  0  0  0  0  0  0  0  0
   -2.6567   17.4747    1.3128 H   0  0  0  0  0  0  0  0  0  0  0  0
    2.4193   16.3962    0.8279 H   0  0  0  0  0  0  0  0  0  0  0  0
    3.4410   15.4082   -0.2705 H   0  0  0  0  0  0  0  0  0  0  0  0
    3.5927   17.1980   -0.2705 H   0  0  0  0  0  0  0  0  0  0  0  0
    2.7505   17.7230   -2.7517 H   0  0  0  0  0  0  0  0  0  0  0  0
    3.4554   16.0200   -2.5546 H   0  0  0  0  0  0  0  0  0  0  0  0
    0.9900   16.8308   -4.1194 H   0  0  0  0  0  0  0  0  0  0  0  0
    2.5538   16.1700   -4.7395 H   0  0  0  0  0  0  0  0  0  0  0  0
    2.7201   13.6644   -2.4274 H   0  0  0  0  0  0  0  0  0  0  0  0
    2.3527   12.8157   -3.9674 H   0  0  0  0  0  0  0  0  0  0  0  0
    3.4386   14.2466   -3.9674 H   0  0  0  0  0  0  0  0  0  0  0  0
  1  2  1  0
  2  3  1  0
  3  4  1  0
  4  5  1  0
  5  6  1  0
  6  7  1  0
  7  8  1  0
  7  9  1  0
  2 10  1  0
 10 11  1  0
 11 12  1  0
 12 13  1  0
 13 14  1  6
 13 15  1  0
 15 16  1  0
 16 17  1  0
 17 18  2  0
 18 19  1  0
 19 20  1  0
 20 21  1  0
 21 22  1  0
 22 23  1  0
 22 24  1  0
 24 25  1  0
 24 26  1  0
 19 27  1  0
 27 28  1  1
 27 29  1  0
 29 30  1  0
 30 31  1  0
 31 32  1  1
  7  5  1  0
 31 10  1  0
 31 13  1  0
 27 15  1  0
 24 18  1  0
  1 33  1  0
  1 34  1  0
  1 35  1  0
  2 36  1  6
  3 37  1  0
  3 38  1  0
  4 39  1  0
  4 40  1  0
  5 41  1  1
  8 42  1  0
  8 43  1  0
  8 44  1  0
  9 45  1  0
  9 46  1  0
  9 47  1  0
 10 48  1  6
 11 49  1  0
 11 50  1  0
 12 51  1  0
 12 52  1  0
 14 53  1  0
 14 54  1  0
 14 55  1  0
 15 56  1  1
 16 57  1  0
 16 58  1  0
 17 59  1  0
 19 60  1  6
 20 61  1  0
 20 62  1  0
 21 63  1  0
 21 64  1  0
 22 65  1  1
 23 66  1  0
 25 67  1  0
 25 68  1  0
 25 69  1  0
 26 70  1  0
 26 71  1  0
 26 72  1  0
 28 73  1  0
 28 74  1  0
 28 75  1  0
 29 76  1  0
 29 77  1  0
 30 78  1  0
 30 79  1  0
 32 80  1  0
 32 81  1  0
 32 82  1  0
M  END
>  <meeko>  (14) 
{"is_sidechain": [false], "intermolecular_energy": 2.731, "internal_energy": -0.839}

$$$$
EPH_relaxed_0001_pdb2pqr_Repair_190_r2_0001_out
     RDKit          3D

 82 86  0  0  0  0  0  0  0  0999 V2000
   -5.1930    5.6230   -0.0750 C   0  0  0  0  0  0  0  0  0  0  0  0
   -5.2680    6.5690   -1.2770 C   0  0  2  0  0  0  0  0  0  0  0  0
   -3.9950    7.4270   -1.4210 C   0  0  0  0  0  0  0  0  0  0  0  0
   -3.6100    8.1770   -0.1430 C   0  0  0  0  0  0  0  0  0  0  0  0
   -2.8880    9.4550   -0.4460 C   0  0  2  0  0  0  0  0  0  0  0  0
   -2.1920    9.4660   -1.6990 O   0  0  0  0  0  0  0  0  0  0  0  0
   -1.3760    9.5630   -0.5200 C   0  0  0  0  0  0  0  0  0  0  0  0
   -0.4960    8.3750   -0.2890 C   0  0  0  0  0  0  0  0  0  0  0  0
   -0.7450   10.9080   -0.3330 C   0  0  0  0  0  0  0  0  0  0  0  0
   -6.4920    7.4690   -1.1550 C   0  0  1  0  0  0  0  0  0  0  0  0
   -6.2750    8.8630   -1.8010 C   0  0  0  0  0  0  0  0  0  0  0  0
   -7.6360    9.2920   -2.4070 C   0  0  0  0  0  0  0  0  0  0  0  0
   -8.6590    8.2980   -1.8090 C   0  0  1  0  0  0  0  0  0  0  0  0
   -8.9750    8.8560   -0.3860 C   0  0  0  0  0  0  0  0  0  0  0  0
   -9.9630    8.0660   -2.6400 C   0  0  2  0  0  0  0  0  0  0  0  0
  -10.8470    9.3110   -2.8290 C   0  0  0  0  0  0  0  0  0  0  0  0
  -11.8880    9.5190   -1.7800 C   0  0  0  0  0  0  0  0  0  0  0  0
  -12.2960    8.5970   -0.8880 C   0  0  0  0  0  0  0  0  0  0  0  0
  -11.7630    7.1590   -0.9430 C   0  0  1  0  0  0  0  0  0  0  0  0
  -12.9440    6.1640   -0.8060 C   0  0  0  0  0  0  0  0  0  0  0  0
  -13.7890    6.4260    0.4370 C   0  0  0  0  0  0  0  0  0  0  0  0
  -14.3490    7.8460    0.4260 C   0  0  2  0  0  0  0  0  0  0  0  0
  -15.2870    7.9630   -0.6480 O   0  0  0  0  0  0  0  0  0  0  0  0
  -13.2510    8.9360    0.2830 C   0  0  0  0  0  0  0  0  0  0  0  0
  -12.4160    9.0090    1.5850 C   0  0  0  0  0  0  0  0  0  0  0  0
  -13.9580   10.3110    0.1430 C   0  0  0  0  0  0  0  0  0  0  0  0
  -10.8160    6.8180   -2.1730 C   0  0  1  0  0  0  0  0  0  0  0  0
  -11.6740    6.3800   -3.3990 C   0  0  0  0  0  0  0  0  0  0  0  0
   -9.9130    5.5830   -1.7990 C   0  0  0  0  0  0  0  0  0  0  0  0
   -8.5820    5.8860   -1.0860 C   0  0  0  0  0  0  0  0  0  0  0  0
   -7.8020    6.9800   -1.8220 C   0  0  2  0  0  0  0  0  0  0  0  0
   -7.4520    6.4400   -3.2500 C   0  0  0  0  0  0  0  0  0  0  0  0
   -5.2394    6.2079    0.8554 H   0  0  0  0  0  0  0  0  0  0  0  0
   -6.0382    4.9198   -0.1085 H   0  0  0  0  0  0  0  0  0  0  0  0
   -4.2475    5.0618   -0.1085 H   0  0  0  0  0  0  0  0  0  0  0  0
   -5.3518    5.9486   -2.1815 H   0  0  0  0  0  0  0  0  0  0  0  0
   -3.1610    6.7666   -1.7006 H   0  0  0  0  0  0  0  0  0  0  0  0
   -4.2046    8.1866   -2.1885 H   0  0  0  0  0  0  0  0  0  0  0  0
   -4.5242    8.4096    0.4229 H   0  0  0  0  0  0  0  0  0  0  0  0
   -2.9368    7.5335    0.4424 H   0  0  0  0  0  0  0  0  0  0  0  0
   -3.6438   10.0398    0.0987 H   0  0  0  0  0  0  0  0  0  0  0  0
   -0.3757    8.2125    0.7923 H   0  0  0  0  0  0  0  0  0  0  0  0
   -0.9544    7.4850   -0.7447 H   0  0  0  0  0  0  0  0  0  0  0  0
    0.4890    8.5542   -0.7447 H   0  0  0  0  0  0  0  0  0  0  0  0
   -0.6455   11.1201    0.7418 H   0  0  0  0  0  0  0  0  0  0  0  0
    0.2501   10.9145   -0.8017 H   0  0  0  0  0  0  0  0  0  0  0  0
   -1.3761   11.6774   -0.8017 H   0  0  0  0  0  0  0  0  0  0  0  0
   -6.6069    7.4781   -0.0611 H   0  0  0  0  0  0  0  0  0  0  0  0
   -5.9545    9.5881   -1.0384 H   0  0  0  0  0  0  0  0  0  0  0  0
   -5.4936    8.8227   -2.5742 H   0  0  0  0  0  0  0  0  0  0  0  0
   -7.8822   10.3242   -2.1172 H   0  0  0  0  0  0  0  0  0  0  0  0
   -7.6282    9.2720   -3.5068 H   0  0  0  0  0  0  0  0  0  0  0  0
   -8.5833    8.1643    0.3744 H   0  0  0  0  0  0  0  0  0  0  0  0
   -8.5007    9.8410   -0.2648 H   0  0  0  0  0  0  0  0  0  0  0  0
  -10.0637    8.9559   -0.2648 H   0  0  0  0  0  0  0  0  0  0  0  0
   -9.5665    7.8267   -3.6378 H   0  0  0  0  0  0  0  0  0  0  0  0
  -10.1920   10.1947   -2.8378 H   0  0  0  0  0  0  0  0  0  0  0  0
  -11.3919    9.1570   -3.7721 H   0  0  0  0  0  0  0  0  0  0  0  0
  -12.3624   10.5103   -1.7316 H   0  0  0  0  0  0  0  0  0  0  0  0
  -11.0843    7.0523   -0.0839 H   0  0  0  0  0  0  0  0  0  0  0  0
  -13.5862    6.2547   -1.6944 H   0  0  0  0  0  0  0  0  0  0  0  0
  -12.5199    5.1532   -0.7143 H   0  0  0  0  0  0  0  0  0  0  0  0
  -14.6236    5.7100    0.4625 H   0  0  0  0  0  0  0  0  0  0  0  0
  -13.1525    6.3063    1.3261 H   0  0  0  0  0  0  0  0  0  0  0  0
  -14.8351    8.0169    1.3978 H   0  0  0  0  0  0  0  0  0  0  0  0
  -14.8290    8.3870   -1.3930 H   0  0  0  0  0  0  0  0  0  0  0  0
  -13.0870    8.9503    2.4547 H   0  0  0  0  0  0  0  0  0  0  0  0
  -11.7057    8.1695    1.6126 H   0  0  0  0  0  0  0  0  0  0  0  0
  -11.8621    9.9590    1.6126 H   0  0  0  0  0  0  0  0  0  0  0  0
  -14.1677   10.7189    1.1428 H   0  0  0  0  0  0  0  0  0  0  0  0
  -13.3049   11.0049   -0.4065 H   0  0  0  0  0  0  0  0  0  0  0  0
  -14.9023   10.1835   -0.4065 H   0  0  0  0  0  0  0  0  0  0  0  0
  -12.6021    5.9062   -3.0466 H   0  0  0  0  0  0  0  0  0  0  0  0
  -11.9210    7.2623   -4.0077 H   0  0  0  0  0  0  0  0  0  0  0  0
  -11.1043    5.6624   -4.0077 H   0  0  0  0  0  0  0  0  0  0  0  0
  -10.5017    4.9278   -1.1401 H   0  0  0  0  0  0  0  0  0  0  0  0
   -9.6278    5.1333   -2.7615 H   0  0  0  0  0  0  0  0  0  0  0  0
   -8.7919    6.2222   -0.0599 H   0  0  0  0  0  0  0  0  0  0  0  0
   -7.9740    4.9694   -1.0742 H   0  0  0  0  0  0  0  0  0  0  0  0
   -6.8558    5.5202   -3.1582 H   0  0  0  0  0  0  0  0  0  0  0  0
   -8.3809    6.2218   -3.7973 H   0  0  0  0  0  0  0  0  0  0  0  0
   -6.8735    7.1988   -3.7973 H   0  0  0  0  0  0  0  0  0  0  0  0
  1  2  1  0
  2  3  1  0
  3  4  1  0
  4  5  1  0
  5  6  1  0
  6  7  1  0
  7  8  1  0
  7  9  1  0
  2 10  1  0
 10 11  1  0
 11 12  1  0
 12 13  1  0
 13 14  1  1
 13 15  1  0
 15 16  1  0
 16 17  1  0
 17 18  2  0
 18 19  1  0
 19 20  1  0
 20 21  1  0
 21 22  1  0
 22 23  1  0
 22 24  1  0
 24 25  1  0
 24 26  1  0
 19 27  1  0
 27 28  1  6
 27 29  1  0
 29 30  1  0
 30 31  1  0
 31 32  1  6
  7  5  1  0
 31 10  1  0
 31 13  1  0
 27 15  1  0
 24 18  1  0
  1 33  1  0
  1 34  1  0
  1 35  1  0
  2 36  1  6
  3 37  1  0
  3 38  1  0
  4 39  1  0
  4 40  1  0
  5 41  1  6
  8 42  1  0
  8 43  1  0
  8 44  1  0
  9 45  1  0
  9 46  1  0
  9 47  1  0
 10 48  1  1
 11 49  1  0
 11 50  1  0
 12 51  1  0
 12 52  1  0
 14 53  1  0
 14 54  1  0
 14 55  1  0
 15 56  1  6
 16 57  1  0
 16 58  1  0
 17 59  1  0
 19 60  1  1
 20 61  1  0
 20 62  1  0
 21 63  1  0
 21 64  1  0
 22 65  1  1
 23 66  1  0
 25 67  1  0
 25 68  1  0
 25 69  1  0
 26 70  1  0
 26 71  1  0
 26 72  1  0
 28 73  1  0
 28 74  1  0
 28 75  1  0
 29 76  1  0
 29 77  1  0
 30 78  1  0
 30 79  1  0
 32 80  1  0
 32 81  1  0
 32 82  1  0
M  END
>  <meeko>  (15) 
{"is_sidechain": [false], "intermolecular_energy": 2.731, "internal_energy": -0.839}

$$$$
EPH_relaxed_0001_pdb2pqr_Repair_190_r2_0001_out
     RDKit          3D

 82 86  0  0  0  0  0  0  0  0999 V2000
   -5.4940    7.1820    0.1960 C   0  0  0  0  0  0  0  0  0  0  0  0
   -5.4730    7.3030   -1.3300 C   0  0  2  0  0  0  0  0  0  0  0  0
   -4.4570    8.3560   -1.8160 C   0  0  0  0  0  0  0  0  0  0  0  0
   -3.2570    7.7580   -2.5540 C   0  0  0  0  0  0  0  0  0  0  0  0
   -3.2380    6.2630   -2.4620 C   0  0  2  0  0  0  0  0  0  0  0  0
   -2.8420    5.5940   -3.6670 O   0  0  0  0  0  0  0  0  0  0  0  0
   -4.1910    5.3650   -3.2290 C   0  0  0  0  0  0  0  0  0  0  0  0
   -5.2320    5.9320   -4.1430 C   0  0  0  0  0  0  0  0  0  0  0  0
   -4.4330    3.9780   -2.7200 C   0  0  0  0  0  0  0  0  0  0  0  0
   -6.8660    7.6480   -1.8430 C   0  0  1  0  0  0  0  0  0  0  0  0
   -7.1390    7.0770   -3.2600 C   0  0  0  0  0  0  0  0  0  0  0  0
   -8.6390    6.6880   -3.3050 C   0  0  0  0  0  0  0  0  0  0  0  0
   -9.2500    7.3460   -2.0450 C   0  0  1  0  0  0  0  0  0  0  0  0
   -9.4950    8.8340   -2.4490 C   0  0  0  0  0  0  0  0  0  0  0  0
  -10.5470    6.6810   -1.4780 C   0  0  2  0  0  0  0  0  0  0  0  0
  -11.7570    6.6980   -2.4270 C   0  0  0  0  0  0  0  0  0  0  0  0
  -12.6500    7.8880   -2.3020 C   0  0  0  0  0  0  0  0  0  0  0  0
  -12.6520    8.7590   -1.2760 C   0  0  0  0  0  0  0  0  0  0  0  0
  -11.7580    8.5350   -0.0500 C   0  0  1  0  0  0  0  0  0  0  0  0
  -12.5860    8.7580    1.2420 C   0  0  0  0  0  0  0  0  0  0  0  0
  -13.2780   10.1170    1.2660 C   0  0  0  0  0  0  0  0  0  0  0  0
  -14.2030   10.2790    0.0630 C   0  0  2  0  0  0  0  0  0  0  0  0
  -15.2840    9.3500    0.1840 O   0  0  0  0  0  0  0  0  0  0  0  0
  -13.4810   10.0670   -1.2980 C   0  0  0  0  0  0  0  0  0  0  0  0
  -12.5180   11.2490   -1.5650 C   0  0  0  0  0  0  0  0  0  0  0  0
  -14.5530   10.1180   -2.4200 C   0  0  0  0  0  0  0  0  0  0  0  0
  -10.9440    7.1700   -0.0260 C   0  0  1  0  0  0  0  0  0  0  0  0
  -11.8180    6.0410    0.6000 C   0  0  0  0  0  0  0  0  0  0  0  0
   -9.6910    7.3350    0.9130 C   0  0  0  0  0  0  0  0  0  0  0  0
   -8.4050    7.8850    0.2670 C   0  0  0  0  0  0  0  0  0  0  0  0
   -8.0750    7.1290   -1.0240 C   0  0  2  0  0  0  0  0  0  0  0  0
   -7.8020    5.6330   -0.6470 C   0  0  0  0  0  0  0  0  0  0  0  0
   -5.3223    8.1715    0.6447 H   0  0  0  0  0  0  0  0  0  0  0  0
   -6.4723    6.7973    0.5199 H   0  0  0  0  0  0  0  0  0  0  0  0
   -4.7025    6.4902    0.5199 H   0  0  0  0  0  0  0  0  0  0  0  0
   -5.1579    6.3297   -1.7344 H   0  0  0  0  0  0  0  0  0  0  0  0
   -4.9735    9.0487   -2.4968 H   0  0  0  0  0  0  0  0  0  0  0  0
   -4.0649    8.8615   -0.9212 H   0  0  0  0  0  0  0  0  0  0  0  0
   -3.3090    8.0492   -3.6135 H   0  0  0  0  0  0  0  0  0  0  0  0
   -2.3396    8.1419   -2.0839 H   0  0  0  0  0  0  0  0  0  0  0  0
   -2.9624    6.3085   -1.3981 H   0  0  0  0  0  0  0  0  0  0  0  0
   -6.0431    6.3738   -3.5456 H   0  0  0  0  0  0  0  0  0  0  0  0
   -4.7793    6.7082   -4.7775 H   0  0  0  0  0  0  0  0  0  0  0  0
   -5.6385    5.1307   -4.7775 H   0  0  0  0  0  0  0  0  0  0  0  0
   -4.4317    3.9857   -1.6200 H   0  0  0  0  0  0  0  0  0  0  0  0
   -5.4073    3.6190   -3.0830 H   0  0  0  0  0  0  0  0  0  0  0  0
   -3.6378    3.3103   -3.0830 H   0  0  0  0  0  0  0  0  0  0  0  0
   -6.8164    8.7454   -1.7863 H   0  0  0  0  0  0  0  0  0  0  0  0
   -6.9223    7.8387   -4.0234 H   0  0  0  0  0  0  0  0  0  0  0  0
   -6.4991    6.2059   -3.4645 H   0  0  0  0  0  0  0  0  0  0  0  0
   -9.1145    7.0788   -4.2167 H   0  0  0  0  0  0  0  0  0  0  0  0
   -8.7874    5.5982   -3.3204 H   0  0  0  0  0  0  0  0  0  0  0  0
   -9.5961    9.4483   -1.5421 H   0  0  0  0  0  0  0  0  0  0  0  0
   -8.6445    9.1970   -3.0448 H   0  0  0  0  0  0  0  0  0  0  0  0
  -10.4170    8.9052   -3.0448 H   0  0  0  0  0  0  0  0  0  0  0  0
  -10.2518    5.6250   -1.3898 H   0  0  0  0  0  0  0  0  0  0  0  0
  -11.3794    6.6636   -3.4596 H   0  0  0  0  0  0  0  0  0  0  0  0
  -12.3707    5.8273   -2.1526 H   0  0  0  0  0  0  0  0  0  0  0  0
  -13.3665    8.0680   -3.1170 H   0  0  0  0  0  0  0  0  0  0  0  0
  -10.9582    9.2874   -0.1147 H   0  0  0  0  0  0  0  0  0  0  0  0
  -13.3517    7.9712    1.3103 H   0  0  0  0  0  0  0  0  0  0  0  0
  -11.8913    8.7220    2.0941 H   0  0  0  0  0  0  0  0  0  0  0  0
  -13.8696   10.2035    2.1893 H   0  0  0  0  0  0  0  0  0  0  0  0
  -12.5096   10.9031    1.2266 H   0  0  0  0  0  0  0  0  0  0  0  0
  -14.5690   11.3163    0.0657 H   0  0  0  0  0  0  0  0  0  0  0  0
  -16.0950    9.8020   -0.1050 H   0  0  0  0  0  0  0  0  0  0  0  0
  -12.1769   11.6677   -0.6067 H   0  0  0  0  0  0  0  0  0  0  0  0
  -11.6501   10.8924   -2.1390 H   0  0  0  0  0  0  0  0  0  0  0  0
  -13.0427   12.0270   -2.1390 H   0  0  0  0  0  0  0  0  0  0  0  0
  -15.5548   10.1657   -1.9681 H   0  0  0  0  0  0  0  0  0  0  0  0
  -14.3892   11.0094   -3.0434 H   0  0  0  0  0  0  0  0  0  0  0  0
  -14.4745    9.2151   -3.0434 H   0  0  0  0  0  0  0  0  0  0  0  0
  -11.7686    6.1048    1.6970 H   0  0  0  0  0  0  0  0  0  0  0  0
  -12.8612    6.1606    0.2723 H   0  0  0  0  0  0  0  0  0  0  0  0
  -11.4408    5.0610    0.2723 H   0  0  0  0  0  0  0  0  0  0  0  0
   -9.9731    8.0191    1.7269 H   0  0  0  0  0  0  0  0  0  0  0  0
   -9.4369    6.3143    1.2350 H   0  0  0  0  0  0  0  0  0  0  0  0
   -8.5464    8.9507    0.0341 H   0  0  0  0  0  0  0  0  0  0  0  0
   -7.5726    7.7532    0.9739 H   0  0  0  0  0  0  0  0  0  0  0  0
   -7.7829    5.5284    0.4478 H   0  0  0  0  0  0  0  0  0  0  0  0
   -8.5993    4.9989   -1.0621 H   0  0  0  0  0  0  0  0  0  0  0  0
   -6.8322    5.3214   -1.0621 H   0  0  0  0  0  0  0  0  0  0  0  0
  1  2  1  0
  2  3  1  0
  3  4  1  0
  4  5  1  0
  5  6  1  0
  6  7  1  0
  7  8  1  0
  7  9  1  0
  2 10  1  0
 10 11  1  0
 11 12  1  0
 12 13  1  0
 13 14  1  6
 13 15  1  0
 15 16  1  0
 16 17  1  0
 17 18  2  0
 18 19  1  0
 19 20  1  0
 20 21  1  0
 21 22  1  0
 22 23  1  0
 22 24  1  0
 24 25  1  0
 24 26  1  0
 19 27  1  0
 27 28  1  1
 27 29  1  0
 29 30  1  0
 30 31  1  0
 31 32  1  1
  7  5  1  0
 31 10  1  0
 31 13  1  0
 27 15  1  0
 24 18  1  0
  1 33  1  0
  1 34  1  0
  1 35  1  0
  2 36  1  6
  3 37  1  0
  3 38  1  0
  4 39  1  0
  4 40  1  0
  5 41  1  1
  8 42  1  0
  8 43  1  0
  8 44  1  0
  9 45  1  0
  9 46  1  0
  9 47  1  0
 10 48  1  6
 11 49  1  0
 11 50  1  0
 12 51  1  0
 12 52  1  0
 14 53  1  0
 14 54  1  0
 14 55  1  0
 15 56  1  1
 16 57  1  0
 16 58  1  0
 17 59  1  0
 19 60  1  6
 20 61  1  0
 20 62  1  0
 21 63  1  0
 21 64  1  0
 22 65  1  6
 23 66  1  0
 25 67  1  0
 25 68  1  0
 25 69  1  0
 26 70  1  0
 26 71  1  0
 26 72  1  0
 28 73  1  0
 28 74  1  0
 28 75  1  0
 29 76  1  0
 29 77  1  0
 30 78  1  0
 30 79  1  0
 32 80  1  0
 32 81  1  0
 32 82  1  0
M  END
>  <meeko>  (16) 
{"is_sidechain": [false], "intermolecular_energy": 2.731, "internal_energy": -0.839}

$$$$
EPH_relaxed_0001_pdb2pqr_Repair_190_r2_0001_out
     RDKit          3D

 82 86  0  0  0  0  0  0  0  0999 V2000
   -4.8840    4.5210   -2.2350 C   0  0  0  0  0  0  0  0  0  0  0  0
   -5.7250    5.7230   -2.6760 C   0  0  2  0  0  0  0  0  0  0  0  0
   -4.8790    7.0050   -2.8110 C   0  0  0  0  0  0  0  0  0  0  0  0
   -3.9270    7.2410   -1.6360 C   0  0  0  0  0  0  0  0  0  0  0  0
   -2.8610    8.2390   -1.9770 C   0  0  2  0  0  0  0  0  0  0  0  0
   -1.6190    8.0470   -1.2880 O   0  0  0  0  0  0  0  0  0  0  0  0
   -2.3270    9.2620   -0.9930 C   0  0  0  0  0  0  0  0  0  0  0  0
   -2.8440    9.3400    0.4100 C   0  0  0  0  0  0  0  0  0  0  0  0
   -1.6640   10.4920   -1.5290 C   0  0  0  0  0  0  0  0  0  0  0  0
   -6.8620    5.9510   -1.6870 C   0  0  1  0  0  0  0  0  0  0  0  0
   -6.3590    6.4050   -0.2910 C   0  0  0  0  0  0  0  0  0  0  0  0
   -7.4150    7.3940    0.2660 C   0  0  0  0  0  0  0  0  0  0  0  0
   -8.6380    7.2230   -0.6660 C   0  0  1  0  0  0  0  0  0  0  0  0
   -9.3690    5.9490   -0.1390 C   0  0  0  0  0  0  0  0  0  0  0  0
   -9.6080    8.4460   -0.7630 C   0  0  2  0  0  0  0  0  0  0  0  0
  -10.3010    8.8360    0.5540 C   0  0  0  0  0  0  0  0  0  0  0  0
  -11.6140    8.1720    0.8040 C   0  0  0  0  0  0  0  0  0  0  0  0
  -12.3490    7.5200   -0.1160 C   0  0  0  0  0  0  0  0  0  0  0  0
  -11.9180    7.4860   -1.5880 C   0  0  1  0  0  0  0  0  0  0  0  0
  -13.1380    7.8020   -2.4920 C   0  0  0  0  0  0  0  0  0  0  0  0
  -14.3270    6.8880   -2.2110 C   0  0  0  0  0  0  0  0  0  0  0  0
  -14.7630    6.9940   -0.7510 C   0  0  2  0  0  0  0  0  0  0  0  0
  -15.2860    8.3050   -0.5200 O   0  0  0  0  0  0  0  0  0  0  0  0
  -13.6130    6.7050    0.2540 C   0  0  0  0  0  0  0  0  0  0  0  0
  -13.2510    5.2000    0.2120 C   0  0  0  0  0  0  0  0  0  0  0  0
  -14.1480    6.9840    1.6840 C   0  0  0  0  0  0  0  0  0  0  0  0
  -10.6420    8.3590   -1.9570 C   0  0  1  0  0  0  0  0  0  0  0  0
  -11.0740    9.8220   -2.2800 C   0  0  0  0  0  0  0  0  0  0  0  0
   -9.9920    7.7870   -3.2730 C   0  0  0  0  0  0  0  0  0  0  0  0
   -8.9530    6.6620   -3.1020 C   0  0  0  0  0  0  0  0  0  0  0  0
   -7.9090    7.0360   -2.0460 C   0  0  2  0  0  0  0  0  0  0  0  0
   -7.1420    8.3030   -2.5590 C   0  0  0  0  0  0  0  0  0  0  0  0
   -4.8539    4.4779   -1.1363 H   0  0  0  0  0  0  0  0  0  0  0  0
   -5.3330    3.5961   -2.6260 H   0  0  0  0  0  0  0  0  0  0  0  0
   -3.8612    4.6259   -2.6260 H   0  0  0  0  0  0  0  0  0  0  0  0
   -6.1366    5.4932   -3.6699 H   0  0  0  0  0  0  0  0  0  0  0  0
   -4.2822    6.9317   -3.7321 H   0  0  0  0  0  0  0  0  0  0  0  0
   -5.5804    7.8521   -2.8314 H   0  0  0  0  0  0  0  0  0  0  0  0
   -4.5052    7.6160   -0.7786 H   0  0  0  0  0  0  0  0  0  0  0  0
   -3.4376    6.2860   -1.3943 H   0  0  0  0  0  0  0  0  0  0  0  0
   -3.2451    8.3335   -3.0034 H   0  0  0  0  0  0  0  0  0  0  0  0
   -2.0097    9.2141    1.1157 H   0  0  0  0  0  0  0  0  0  0  0  0
   -3.3171   10.3197    0.5725 H   0  0  0  0  0  0  0  0  0  0  0  0
   -3.5851    8.5435    0.5725 H   0  0  0  0  0  0  0  0  0  0  0  0
   -1.3253   11.1203   -0.6920 H   0  0  0  0  0  0  0  0  0  0  0  0
   -0.7991   10.2037   -2.1445 H   0  0  0  0  0  0  0  0  0  0  0  0
   -2.3803   11.0560   -2.1445 H   0  0  0  0  0  0  0  0  0  0  0  0
   -7.3283    4.9550   -1.7096 H   0  0  0  0  0  0  0  0  0  0  0  0
   -6.2634    5.5369    0.3778 H   0  0  0  0  0  0  0  0  0  0  0  0
   -5.3708    6.8826   -0.3638 H   0  0  0  0  0  0  0  0  0  0  0  0
   -7.6780    7.1382    1.3030 H   0  0  0  0  0  0  0  0  0  0  0  0
   -7.0469    8.4304    0.2860 H   0  0  0  0  0  0  0  0  0  0  0  0
   -9.3665    5.9534    0.9610 H   0  0  0  0  0  0  0  0  0  0  0  0
  -10.4069    5.9447   -0.5033 H   0  0  0  0  0  0  0  0  0  0  0  0
   -8.8489    5.0508   -0.5033 H   0  0  0  0  0  0  0  0  0  0  0  0
   -8.9215    9.2737   -0.9946 H   0  0  0  0  0  0  0  0  0  0  0  0
   -9.6259    8.5772    1.3830 H   0  0  0  0  0  0  0  0  0  0  0  0
  -10.5137    9.9126    0.4789 H   0  0  0  0  0  0  0  0  0  0  0  0
  -12.0152    8.2195    1.8271 H   0  0  0  0  0  0  0  0  0  0  0  0
  -11.5678    6.4609   -1.7790 H   0  0  0  0  0  0  0  0  0  0  0  0
  -13.4453    8.8438   -2.3181 H   0  0  0  0  0  0  0  0  0  0  0  0
  -12.8312    7.6392   -3.5357 H   0  0  0  0  0  0  0  0  0  0  0  0
  -15.1664    7.1793   -2.8596 H   0  0  0  0  0  0  0  0  0  0  0  0
  -14.0273    5.8492   -2.4137 H   0  0  0  0  0  0  0  0  0  0  0  0
  -15.5303    6.2248   -0.5791 H   0  0  0  0  0  0  0  0  0  0  0  0
  -15.8720    8.5240   -1.2650 H   0  0  0  0  0  0  0  0  0  0  0  0
  -13.1587    4.8163    1.2388 H   0  0  0  0  0  0  0  0  0  0  0  0
  -14.0418    4.6473   -0.3163 H   0  0  0  0  0  0  0  0  0  0  0  0
  -12.2953    5.0673   -0.3163 H   0  0  0  0  0  0  0  0  0  0  0  0
  -13.4272    6.6081    2.4250 H   0  0  0  0  0  0  0  0  0  0  0  0
  -14.2827    8.0672    1.8202 H   0  0  0  0  0  0  0  0  0  0  0  0
  -15.1133    6.4745    1.8202 H   0  0  0  0  0  0  0  0  0  0  0  0
  -11.2364   10.3721   -1.3414 H   0  0  0  0  0  0  0  0  0  0  0  0
  -10.2838   10.3174   -2.8633 H   0  0  0  0  0  0  0  0  0  0  0  0
  -12.0065    9.8087   -2.8633 H   0  0  0  0  0  0  0  0  0  0  0  0
  -10.8047    7.3966   -3.9031 H   0  0  0  0  0  0  0  0  0  0  0  0
   -9.4351    8.6295   -3.7089 H   0  0  0  0  0  0  0  0  0  0  0  0
   -9.4675    5.7415   -2.7891 H   0  0  0  0  0  0  0  0  0  0  0  0
   -8.4404    6.5089   -4.0632 H   0  0  0  0  0  0  0  0  0  0  0  0
   -6.7868    8.8898   -1.6990 H   0  0  0  0  0  0  0  0  0  0  0  0
   -6.2821    7.9891   -3.1690 H   0  0  0  0  0  0  0  0  0  0  0  0
   -7.8188    8.9193   -3.1690 H   0  0  0  0  0  0  0  0  0  0  0  0
  1  2  1  0
  2  3  1  0
  3  4  1  0
  4  5  1  0
  5  6  1  0
  6  7  1  0
  7  8  1  0
  7  9  1  0
  2 10  1  0
 10 11  1  0
 11 12  1  0
 12 13  1  0
 13 14  1  1
 13 15  1  0
 15 16  1  0
 16 17  1  0
 17 18  2  0
 18 19  1  0
 19 20  1  0
 20 21  1  0
 21 22  1  0
 22 23  1  0
 22 24  1  0
 24 25  1  0
 24 26  1  0
 19 27  1  0
 27 28  1  6
 27 29  1  0
 29 30  1  0
 30 31  1  0
 31 32  1  6
  7  5  1  0
 31 10  1  0
 31 13  1  0
 27 15  1  0
 24 18  1  0
  1 33  1  0
  1 34  1  0
  1 35  1  0
  2 36  1  6
  3 37  1  0
  3 38  1  0
  4 39  1  0
  4 40  1  0
  5 41  1  6
  8 42  1  0
  8 43  1  0
  8 44  1  0
  9 45  1  0
  9 46  1  0
  9 47  1  0
 10 48  1  1
 11 49  1  0
 11 50  1  0
 12 51  1  0
 12 52  1  0
 14 53  1  0
 14 54  1  0
 14 55  1  0
 15 56  1  6
 16 57  1  0
 16 58  1  0
 17 59  1  0
 19 60  1  6
 20 61  1  0
 20 62  1  0
 21 63  1  0
 21 64  1  0
 22 65  1  6
 23 66  1  0
 25 67  1  0
 25 68  1  0
 25 69  1  0
 26 70  1  0
 26 71  1  0
 26 72  1  0
 28 73  1  0
 28 74  1  0
 28 75  1  0
 29 76  1  0
 29 77  1  0
 30 78  1  0
 30 79  1  0
 32 80  1  0
 32 81  1  0
 32 82  1  0
M  END
>  <meeko>  (17) 
{"is_sidechain": [false], "intermolecular_energy": 2.731, "internal_energy": -0.839}

$$$$
EPH_relaxed_0001_pdb2pqr_Repair_190_r2_0001_out
     RDKit          3D

 82 86  0  0  0  0  0  0  0  0999 V2000
    3.8660   19.5490    0.1900 C   0  0  0  0  0  0  0  0  0  0  0  0
    2.3750   19.8850    0.0940 C   0  0  2  0  0  0  0  0  0  0  0  0
    1.7600   20.1940    1.4730 C   0  0  0  0  0  0  0  0  0  0  0  0
    0.3610   19.6030    1.6700 C   0  0  0  0  0  0  0  0  0  0  0  0
   -0.6280   20.1860    0.7070 C   0  0  2  0  0  0  0  0  0  0  0  0
   -1.9840   20.1940    1.1720 O   0  0  0  0  0  0  0  0  0  0  0  0
   -1.7120   19.3730    0.0250 C   0  0  0  0  0  0  0  0  0  0  0  0
   -1.8620   17.9050    0.2780 C   0  0  0  0  0  0  0  0  0  0  0  0
   -2.3070   19.8950   -1.2450 C   0  0  0  0  0  0  0  0  0  0  0  0
    1.6250   18.7340   -0.5650 C   0  0  1  0  0  0  0  0  0  0  0  0
    1.3660   18.9770   -2.0760 C   0  0  0  0  0  0  0  0  0  0  0  0
    1.4620   17.5960   -2.7740 C   0  0  0  0  0  0  0  0  0  0  0  0
    1.4410   16.5710   -1.6160 C   0  0  1  0  0  0  0  0  0  0  0  0
   -0.0670   16.4180   -1.2420 C   0  0  0  0  0  0  0  0  0  0  0  0
    2.1070   15.1860   -1.9060 C   0  0  2  0  0  0  0  0  0  0  0  0
    1.4460   14.3670   -3.0280 C   0  0  0  0  0  0  0  0  0  0  0  0
    0.3640   13.4380   -2.5860 C   0  0  0  0  0  0  0  0  0  0  0  0
    0.1310   13.0560   -1.3160 C   0  0  0  0  0  0  0  0  0  0  0  0
    1.0630   13.4930   -0.1790 C   0  0  1  0  0  0  0  0  0  0  0  0
    1.4000   12.2700    0.7140 C   0  0  0  0  0  0  0  0  0  0  0  0
    0.1520   11.5570    1.2240 C   0  0  0  0  0  0  0  0  0  0  0  0
   -0.7200   11.0860    0.0630 C   0  0  2  0  0  0  0  0  0  0  0  0
   -0.0210   10.0650   -0.6540 O   0  0  0  0  0  0  0  0  0  0  0  0
   -1.1150   12.2310   -0.9100 C   0  0  0  0  0  0  0  0  0  0  0  0
   -2.1210   13.1820   -0.2150 C   0  0  0  0  0  0  0  0  0  0  0  0
   -1.8730   11.5990   -2.1090 C   0  0  0  0  0  0  0  0  0  0  0  0
    2.3580   14.3040   -0.6160 C   0  0  1  0  0  0  0  0  0  0  0  0
    3.5110   13.3160   -0.9700 C   0  0  0  0  0  0  0  0  0  0  0  0
    2.8660   15.1600    0.6040 C   0  0  0  0  0  0  0  0  0  0  0  0
    2.2570   16.5660    0.7680 C   0  0  0  0  0  0  0  0  0  0  0  0
    2.3050   17.3410   -0.5520 C   0  0  2  0  0  0  0  0  0  0  0  0
    3.8100   17.5300   -0.9420 C   0  0  0  0  0  0  0  0  0  0  0  0
    4.1596   19.4828    1.2480 H   0  0  0  0  0  0  0  0  0  0  0  0
    4.0573   18.5852   -0.3045 H   0  0  0  0  0  0  0  0  0  0  0  0
    4.4522   20.3376   -0.3045 H   0  0  0  0  0  0  0  0  0  0  0  0
    2.2785   20.7920   -0.5209 H   0  0  0  0  0  0  0  0  0  0  0  0
    2.4229   19.7831    2.2487 H   0  0  0  0  0  0  0  0  0  0  0  0
    1.6596   21.2872    1.5424 H   0  0  0  0  0  0  0  0  0  0  0  0
    0.4089   18.5148    1.5166 H   0  0  0  0  0  0  0  0  0  0  0  0
    0.0281   19.8431    2.6906 H   0  0  0  0  0  0  0  0  0  0  0  0
    0.1289   20.8816    0.3155 H   0  0  0  0  0  0  0  0  0  0  0  0
   -1.8809   17.7198    1.3621 H   0  0  0  0  0  0  0  0  0  0  0  0
   -2.8011   17.5496   -0.1711 H   0  0  0  0  0  0  0  0  0  0  0  0
   -1.0142   17.3670   -0.1711 H   0  0  0  0  0  0  0  0  0  0  0  0
   -3.1144   20.6033   -1.0076 H   0  0  0  0  0  0  0  0  0  0  0  0
   -1.5297   20.4078   -1.8305 H   0  0  0  0  0  0  0  0  0  0  0  0
   -2.7143   19.0575   -1.8305 H   0  0  0  0  0  0  0  0  0  0  0  0
    0.7227   18.7182    0.0640 H   0  0  0  0  0  0  0  0  0  0  0  0
    0.3647   19.4076   -2.2242 H   0  0  0  0  0  0  0  0  0  0  0  0
    2.0991   19.6826   -2.4939 H   0  0  0  0  0  0  0  0  0  0  0  0
    0.6052   17.4402   -3.4460 H   0  0  0  0  0  0  0  0  0  0  0  0
    2.3650   17.5047   -3.3955 H   0  0  0  0  0  0  0  0  0  0  0  0
   -0.1740   16.4071   -0.1473 H   0  0  0  0  0  0  0  0  0  0  0  0
   -0.6354   17.2631   -1.6576 H   0  0  0  0  0  0  0  0  0  0  0  0
   -0.4541   15.4760   -1.6576 H   0  0  0  0  0  0  0  0  0  0  0  0
    3.0960   15.4756   -2.2908 H   0  0  0  0  0  0  0  0  0  0  0  0
    1.0138   15.0715   -3.7538 H   0  0  0  0  0  0  0  0  0  0  0  0
    2.2392   13.7321   -3.4495 H   0  0  0  0  0  0  0  0  0  0  0  0
   -0.2990   13.0311   -3.3637 H   0  0  0  0  0  0  0  0  0  0  0  0
    0.5015   14.2378    0.4040 H   0  0  0  0  0  0  0  0  0  0  0  0
    1.9975   11.5579    0.1259 H   0  0  0  0  0  0  0  0  0  0  0  0
    1.9554   12.6384    1.5892 H   0  0  0  0  0  0  0  0  0  0  0  0
    0.4548   10.6857    1.8234 H   0  0  0  0  0  0  0  0  0  0  0  0
   -0.4295   12.2618    1.8364 H   0  0  0  0  0  0  0  0  0  0  0  0
   -1.6575   10.7002    0.4900 H   0  0  0  0  0  0  0  0  0  0  0  0
    0.5120    9.5660   -0.0120 H   0  0  0  0  0  0  0  0  0  0  0  0
   -2.0210   13.0875    0.8764 H   0  0  0  0  0  0  0  0  0  0  0  0
   -1.9112   14.2196   -0.5139 H   0  0  0  0  0  0  0  0  0  0  0  0
   -3.1452   12.9143   -0.5139 H   0  0  0  0  0  0  0  0  0  0  0  0
   -2.6670   10.9370   -1.7330 H   0  0  0  0  0  0  0  0  0  0  0  0
   -2.3196   12.3960   -2.7216 H   0  0  0  0  0  0  0  0  0  0  0  0
   -1.1693   11.0163   -2.7216 H   0  0  0  0  0  0  0  0  0  0  0  0
    3.9610   12.9304   -0.0432 H   0  0  0  0  0  0  0  0  0  0  0  0
    3.1083   12.4782   -1.5583 H   0  0  0  0  0  0  0  0  0  0  0  0
    4.2772   13.8423   -1.5583 H   0  0  0  0  0  0  0  0  0  0  0  0
    2.6479   14.5938    1.5215 H   0  0  0  0  0  0  0  0  0  0  0  0
    3.9354   15.3304    0.4106 H   0  0  0  0  0  0  0  0  0  0  0  0
    1.2099   16.4693    1.0907 H   0  0  0  0  0  0  0  0  0  0  0  0
    2.8420   17.1164    1.5196 H   0  0  0  0  0  0  0  0  0  0  0  0
    4.4186   17.6064   -0.0289 H   0  0  0  0  0  0  0  0  0  0  0  0
    4.1461   16.6670   -1.5355 H   0  0  0  0  0  0  0  0  0  0  0  0
    3.9223   18.4493   -1.5355 H   0  0  0  0  0  0  0  0  0  0  0  0
  1  2  1  0
  2  3  1  0
  3  4  1  0
  4  5  1  0
  5  6  1  0
  6  7  1  0
  7  8  1  0
  7  9  1  0
  2 10  1  0
 10 11  1  0
 11 12  1  0
 12 13  1  0
 13 14  1  1
 13 15  1  0
 15 16  1  0
 16 17  1  0
 17 18  2  0
 18 19  1  0
 19 20  1  0
 20 21  1  0
 21 22  1  0
 22 23  1  0
 22 24  1  0
 24 25  1  0
 24 26  1  0
 19 27  1  0
 27 28  1  6
 27 29  1  0
 29 30  1  0
 30 31  1  0
 31 32  1  6
  7  5  1  0
 31 10  1  0
 31 13  1  0
 27 15  1  0
 24 18  1  0
  1 33  1  0
  1 34  1  0
  1 35  1  0
  2 36  1  6
  3 37  1  0
  3 38  1  0
  4 39  1  0
  4 40  1  0
  5 41  1  6
  8 42  1  0
  8 43  1  0
  8 44  1  0
  9 45  1  0
  9 46  1  0
  9 47  1  0
 10 48  1  1
 11 49  1  0
 11 50  1  0
 12 51  1  0
 12 52  1  0
 14 53  1  0
 14 54  1  0
 14 55  1  0
 15 56  1  6
 16 57  1  0
 16 58  1  0
 17 59  1  0
 19 60  1  1
 20 61  1  0
 20 62  1  0
 21 63  1  0
 21 64  1  0
 22 65  1  1
 23 66  1  0
 25 67  1  0
 25 68  1  0
 25 69  1  0
 26 70  1  0
 26 71  1  0
 26 72  1  0
 28 73  1  0
 28 74  1  0
 28 75  1  0
 29 76  1  0
 29 77  1  0
 30 78  1  0
 30 79  1  0
 32 80  1  0
 32 81  1  0
 32 82  1  0
M  END
>  <meeko>  (18) 
{"is_sidechain": [false], "intermolecular_energy": 2.731, "internal_energy": -0.839}

$$$$
EPH_relaxed_0001_pdb2pqr_Repair_190_r2_0001_out
     RDKit          3D

 82 86  0  0  0  0  0  0  0  0999 V2000
   -0.6770    7.7230   -2.0750 C   0  0  0  0  0  0  0  0  0  0  0  0
   -1.8610    8.3700   -1.3520 C   0  0  2  0  0  0  0  0  0  0  0  0
   -3.2160    7.8650   -1.8880 C   0  0  0  0  0  0  0  0  0  0  0  0
   -4.3180    7.8150   -0.8270 C   0  0  0  0  0  0  0  0  0  0  0  0
   -5.3250    6.7460   -1.1240 C   0  0  2  0  0  0  0  0  0  0  0  0
   -5.5670    6.5220   -2.5190 O   0  0  0  0  0  0  0  0  0  0  0  0
   -6.6770    7.0220   -1.7550 C   0  0  0  0  0  0  0  0  0  0  0  0
   -7.0960    8.4100   -2.1270 C   0  0  0  0  0  0  0  0  0  0  0  0
   -7.7740    6.0220   -1.5620 C   0  0  0  0  0  0  0  0  0  0  0  0
   -1.7830    9.8870   -1.4810 C   0  0  1  0  0  0  0  0  0  0  0  0
   -3.1810   10.5600   -1.4790 C   0  0  0  0  0  0  0  0  0  0  0  0
   -3.0230   11.9180   -0.7480 C   0  0  0  0  0  0  0  0  0  0  0  0
   -1.4950   12.1320   -0.6490 C   0  0  1  0  0  0  0  0  0  0  0  0
   -1.0770   12.6920   -2.0450 C   0  0  0  0  0  0  0  0  0  0  0  0
   -1.0000   13.0530    0.5130 C   0  0  2  0  0  0  0  0  0  0  0  0
   -1.4910   14.5100    0.4460 C   0  0  0  0  0  0  0  0  0  0  0  0
   -0.6020   15.4490   -0.3000 C   0  0  0  0  0  0  0  0  0  0  0  0
    0.6760   15.2060   -0.6470 C   0  0  0  0  0  0  0  0  0  0  0  0
    1.3830   13.9200   -0.2010 C   0  0  1  0  0  0  0  0  0  0  0  0
    2.7910   14.2680    0.3510 C   0  0  0  0  0  0  0  0  0  0  0  0
    3.6230   15.0780   -0.6380 C   0  0  0  0  0  0  0  0  0  0  0  0
    2.9130   16.3770   -1.0130 C   0  0  2  0  0  0  0  0  0  0  0  0
    2.8520   17.2190    0.1420 O   0  0  0  0  0  0  0  0  0  0  0  0
    1.4800   16.1520   -1.5730 C   0  0  0  0  0  0  0  0  0  0  0  0
    1.5660   15.5030   -2.9760 C   0  0  0  0  0  0  0  0  0  0  0  0
    0.8240   17.5440   -1.7780 C   0  0  0  0  0  0  0  0  0  0  0  0
    0.5580   12.9800    0.7800 C   0  0  1  0  0  0  0  0  0  0  0  0
    0.7790   13.4280    2.2570 C   0  0  0  0  0  0  0  0  0  0  0  0
    1.1150   11.5110    0.6730 C   0  0  0  0  0  0  0  0  0  0  0  0
    0.5020   10.6130   -0.4180 C   0  0  0  0  0  0  0  0  0  0  0  0
   -1.0280   10.6570   -0.3680 C   0  0  2  0  0  0  0  0  0  0  0  0
   -1.4790   10.0800    1.0170 C   0  0  0  0  0  0  0  0  0  0  0  0
    0.0365    7.3331   -1.3341 H   0  0  0  0  0  0  0  0  0  0  0  0
   -1.0390    6.8973   -2.7052 H   0  0  0  0  0  0  0  0  0  0  0  0
   -0.1776    8.4736   -2.7052 H   0  0  0  0  0  0  0  0  0  0  0  0
   -1.7977    8.0829   -0.2920 H   0  0  0  0  0  0  0  0  0  0  0  0
   -3.5420    8.5368   -2.6957 H   0  0  0  0  0  0  0  0  0  0  0  0
   -3.0591    6.8337   -2.2370 H   0  0  0  0  0  0  0  0  0  0  0  0
   -3.8608    7.6118    0.1526 H   0  0  0  0  0  0  0  0  0  0  0  0
   -4.8374    8.7847   -0.8260 H   0  0  0  0  0  0  0  0  0  0  0  0
   -5.0317    6.1869   -0.2232 H   0  0  0  0  0  0  0  0  0  0  0  0
   -7.2731    8.9968   -1.2136 H   0  0  0  0  0  0  0  0  0  0  0  0
   -6.3016    8.8862   -2.7204 H   0  0  0  0  0  0  0  0  0  0  0  0
   -8.0212    8.3671   -2.7204 H   0  0  0  0  0  0  0  0  0  0  0  0
   -7.9439    5.8671   -0.4863 H   0  0  0  0  0  0  0  0  0  0  0  0
   -8.6972    6.3958   -2.0289 H   0  0  0  0  0  0  0  0  0  0  0  0
   -7.4871    5.0683   -2.0289 H   0  0  0  0  0  0  0  0  0  0  0  0
   -1.2336    9.9632   -2.4309 H   0  0  0  0  0  0  0  0  0  0  0  0
   -3.5242   10.7232   -2.5113 H   0  0  0  0  0  0  0  0  0  0  0  0
   -3.9243    9.9246   -0.9753 H   0  0  0  0  0  0  0  0  0  0  0  0
   -3.4918   12.7275   -1.3268 H   0  0  0  0  0  0  0  0  0  0  0  0
   -3.5093   11.9198    0.2387 H   0  0  0  0  0  0  0  0  0  0  0  0
   -0.4241   13.5667   -1.9087 H   0  0  0  0  0  0  0  0  0  0  0  0
   -0.5364   11.9147   -2.6050 H   0  0  0  0  0  0  0  0  0  0  0  0
   -1.9759   12.9892   -2.6050 H   0  0  0  0  0  0  0  0  0  0  0  0
   -1.4951   12.6111    1.3903 H   0  0  0  0  0  0  0  0  0  0  0  0
   -2.4765   14.5144   -0.0427 H   0  0  0  0  0  0  0  0  0  0  0  0
   -1.5125   14.8718    1.4846 H   0  0  0  0  0  0  0  0  0  0  0  0
   -1.0268   16.4212   -0.5906 H   0  0  0  0  0  0  0  0  0  0  0  0
    1.4790   13.2971   -1.1025 H   0  0  0  0  0  0  0  0  0  0  0  0
    2.6728   14.8533    1.2748 H   0  0  0  0  0  0  0  0  0  0  0  0
    3.3203   13.3217    0.5363 H   0  0  0  0  0  0  0  0  0  0  0  0
    4.5940   15.3177   -0.1800 H   0  0  0  0  0  0  0  0  0  0  0  0
    3.7651   14.4796   -1.5500 H   0  0  0  0  0  0  0  0  0  0  0  0
    3.4937   16.8501   -1.8186 H   0  0  0  0  0  0  0  0  0  0  0  0
    2.8310   16.6430    0.9250 H   0  0  0  0  0  0  0  0  0  0  0  0
    1.7098   14.4176   -2.8697 H   0  0  0  0  0  0  0  0  0  0  0  0
    0.6343   15.6971   -3.5275 H   0  0  0  0  0  0  0  0  0  0  0  0
    2.4150   15.9331   -3.5275 H   0  0  0  0  0  0  0  0  0  0  0  0
    0.6107   17.9967   -0.7984 H   0  0  0  0  0  0  0  0  0  0  0  0
    1.5107   18.1937   -2.3404 H   0  0  0  0  0  0  0  0  0  0  0  0
   -0.1142   17.4280   -2.3404 H   0  0  0  0  0  0  0  0  0  0  0  0
    0.3963   12.6523    2.9366 H   0  0  0  0  0  0  0  0  0  0  0  0
    1.8538   13.5765    2.4382 H   0  0  0  0  0  0  0  0  0  0  0  0
    0.2428   14.3712    2.4382 H   0  0  0  0  0  0  0  0  0  0  0  0
    2.1958   11.5783    0.4800 H   0  0  0  0  0  0  0  0  0  0  0  0
    0.8455   11.0312    1.6254 H   0  0  0  0  0  0  0  0  0  0  0  0
    0.8401   10.9633   -1.4044 H   0  0  0  0  0  0  0  0  0  0  0  0
    0.8291    9.5772   -0.2446 H   0  0  0  0  0  0  0  0  0  0  0  0
   -1.0199   10.6673    1.8259 H   0  0  0  0  0  0  0  0  0  0  0  0
   -2.5745   10.1369    1.0988 H   0  0  0  0  0  0  0  0  0  0  0  0
   -1.1592    9.0307    1.0988 H   0  0  0  0  0  0  0  0  0  0  0  0
  1  2  1  0
  2  3  1  0
  3  4  1  0
  4  5  1  0
  5  6  1  0
  6  7  1  0
  7  8  1  0
  7  9  1  0
  2 10  1  0
 10 11  1  0
 11 12  1  0
 12 13  1  0
 13 14  1  6
 13 15  1  0
 15 16  1  0
 16 17  1  0
 17 18  2  0
 18 19  1  0
 19 20  1  0
 20 21  1  0
 21 22  1  0
 22 23  1  0
 22 24  1  0
 24 25  1  0
 24 26  1  0
 19 27  1  0
 27 28  1  1
 27 29  1  0
 29 30  1  0
 30 31  1  0
 31 32  1  1
  7  5  1  0
 31 10  1  0
 31 13  1  0
 27 15  1  0
 24 18  1  0
  1 33  1  0
  1 34  1  0
  1 35  1  0
  2 36  1  1
  3 37  1  0
  3 38  1  0
  4 39  1  0
  4 40  1  0
  5 41  1  1
  8 42  1  0
  8 43  1  0
  8 44  1  0
  9 45  1  0
  9 46  1  0
  9 47  1  0
 10 48  1  6
 11 49  1  0
 11 50  1  0
 12 51  1  0
 12 52  1  0
 14 53  1  0
 14 54  1  0
 14 55  1  0
 15 56  1  1
 16 57  1  0
 16 58  1  0
 17 59  1  0
 19 60  1  6
 20 61  1  0
 20 62  1  0
 21 63  1  0
 21 64  1  0
 22 65  1  6
 23 66  1  0
 25 67  1  0
 25 68  1  0
 25 69  1  0
 26 70  1  0
 26 71  1  0
 26 72  1  0
 28 73  1  0
 28 74  1  0
 28 75  1  0
 29 76  1  0
 29 77  1  0
 30 78  1  0
 30 79  1  0
 32 80  1  0
 32 81  1  0
 32 82  1  0
M  END
>  <meeko>  (19) 
{"is_sidechain": [false], "intermolecular_energy": 2.731, "internal_energy": -0.839}

$$$$
EPH_relaxed_0001_pdb2pqr_Repair_190_r2_0001_out
     RDKit          3D

 82 86  0  0  0  0  0  0  0  0999 V2000
  -13.7170    6.4510    0.6930 C   0  0  0  0  0  0  0  0  0  0  0  0
  -13.2980    7.3150   -0.5010 C   0  0  2  0  0  0  0  0  0  0  0  0
  -14.4310    7.4620   -1.5370 C   0  0  0  0  0  0  0  0  0  0  0  0
  -15.2620    8.7360   -1.3620 C   0  0  0  0  0  0  0  0  0  0  0  0
  -15.2860    9.5580   -2.6150 C   0  0  2  0  0  0  0  0  0  0  0  0
  -14.0010    9.7780   -3.2120 O   0  0  0  0  0  0  0  0  0  0  0  0
  -14.6780   10.9450   -2.7170 C   0  0  0  0  0  0  0  0  0  0  0  0
  -14.0040   11.5890   -1.5470 C   0  0  0  0  0  0  0  0  0  0  0  0
  -15.1640   11.8620   -3.7960 C   0  0  0  0  0  0  0  0  0  0  0  0
  -12.0610    6.7200   -1.1630 C   0  0  1  0  0  0  0  0  0  0  0  0
  -12.3840    6.0060   -2.5020 C   0  0  0  0  0  0  0  0  0  0  0  0
  -11.1730    6.2450   -3.4400 C   0  0  0  0  0  0  0  0  0  0  0  0
  -10.0640    6.7950   -2.5130 C   0  0  1  0  0  0  0  0  0  0  0  0
   -9.4480    5.5330   -1.8320 C   0  0  0  0  0  0  0  0  0  0  0  0
   -8.9670    7.6760   -3.1960 C   0  0  2  0  0  0  0  0  0  0  0  0
   -8.1220    6.9570   -4.2610 C   0  0  0  0  0  0  0  0  0  0  0  0
   -6.8800    6.3010   -3.7530 C   0  0  0  0  0  0  0  0  0  0  0  0
   -6.3110    6.5260   -2.5550 C   0  0  0  0  0  0  0  0  0  0  0  0
   -6.8680    7.5950   -1.6060 C   0  0  1  0  0  0  0  0  0  0  0  0
   -5.7010    8.4540   -1.0520 C   0  0  0  0  0  0  0  0  0  0  0  0
   -4.6100    7.6090   -0.4020 C   0  0  0  0  0  0  0  0  0  0  0  0
   -4.0410    6.5960   -1.3930 C   0  0  2  0  0  0  0  0  0  0  0  0
   -3.3470    7.3030   -2.4250 O   0  0  0  0  0  0  0  0  0  0  0  0
   -5.1260    5.6810   -2.0250 C   0  0  0  0  0  0  0  0  0  0  0  0
   -5.6680    4.7010   -0.9540 C   0  0  0  0  0  0  0  0  0  0  0  0
   -4.4400    4.8050   -3.1070 C   0  0  0  0  0  0  0  0  0  0  0  0
   -8.0570    8.4790   -2.1800 C   0  0  1  0  0  0  0  0  0  0  0  0
   -7.4830    9.6980   -2.9660 C   0  0  0  0  0  0  0  0  0  0  0  0
   -8.8820    9.0740   -0.9790 C   0  0  0  0  0  0  0  0  0  0  0  0
  -10.0300    8.2070   -0.4270 C   0  0  0  0  0  0  0  0  0  0  0  0
  -10.9270    7.6990   -1.5590 C   0  0  2  0  0  0  0  0  0  0  0  0
  -11.5780    8.9460   -2.2490 C   0  0  0  0  0  0  0  0  0  0  0  0
  -13.4646    6.9714    1.6287 H   0  0  0  0  0  0  0  0  0  0  0  0
  -14.8017    6.2726    0.6538 H   0  0  0  0  0  0  0  0  0  0  0  0
  -13.1855    5.4887    0.6538 H   0  0  0  0  0  0  0  0  0  0  0  0
  -13.0681    8.3204   -0.1184 H   0  0  0  0  0  0  0  0  0  0  0  0
  -13.9836    7.4742   -2.5418 H   0  0  0  0  0  0  0  0  0  0  0  0
  -15.1124    6.6107   -1.3919 H   0  0  0  0  0  0  0  0  0  0  0  0
  -16.2929    8.4561   -1.0994 H   0  0  0  0  0  0  0  0  0  0  0  0
  -14.8023    9.3388   -0.5649 H   0  0  0  0  0  0  0  0  0  0  0  0
  -16.2785    9.1658   -2.8815 H   0  0  0  0  0  0  0  0  0  0  0  0
  -14.4252   11.1865   -0.6140 H   0  0  0  0  0  0  0  0  0  0  0  0
  -12.9251   11.3776   -1.5834 H   0  0  0  0  0  0  0  0  0  0  0  0
  -14.1660   12.6764   -1.5834 H   0  0  0  0  0  0  0  0  0  0  0  0
  -15.6331   12.7470   -3.3413 H   0  0  0  0  0  0  0  0  0  0  0  0
  -14.3144   12.1770   -4.4197 H   0  0  0  0  0  0  0  0  0  0  0  0
  -15.9016   11.3358   -4.4197 H   0  0  0  0  0  0  0  0  0  0  0  0
  -11.7207    6.0561   -0.3547 H   0  0  0  0  0  0  0  0  0  0  0  0
  -12.5247    4.9283   -2.3323 H   0  0  0  0  0  0  0  0  0  0  0  0
  -13.3107    6.3990   -2.9456 H   0  0  0  0  0  0  0  0  0  0  0  0
  -10.8543    5.3031   -3.9103 H   0  0  0  0  0  0  0  0  0  0  0  0
  -11.4116    6.9370   -4.2611 H   0  0  0  0  0  0  0  0  0  0  0  0
   -9.5018    5.6432   -0.7389 H   0  0  0  0  0  0  0  0  0  0  0  0
  -10.0112    4.6392   -2.1386 H   0  0  0  0  0  0  0  0  0  0  0  0
   -8.3969    5.4272   -2.1386 H   0  0  0  0  0  0  0  0  0  0  0  0
   -9.5666    8.4181   -3.7434 H   0  0  0  0  0  0  0  0  0  0  0  0
   -8.7492    6.1828   -4.7270 H   0  0  0  0  0  0  0  0  0  0  0  0
   -7.7898    7.7359   -4.9631 H   0  0  0  0  0  0  0  0  0  0  0  0
   -6.3890    5.5721   -4.4146 H   0  0  0  0  0  0  0  0  0  0  0  0
   -7.3529    7.0490   -0.7833 H   0  0  0  0  0  0  0  0  0  0  0  0
   -5.2580    9.0242   -1.8819 H   0  0  0  0  0  0  0  0  0  0  0  0
   -6.1136    9.1188   -0.2788 H   0  0  0  0  0  0  0  0  0  0  0  0
   -3.8005    8.2693   -0.0575 H   0  0  0  0  0  0  0  0  0  0  0  0
   -5.0479    7.0624    0.4463 H   0  0  0  0  0  0  0  0  0  0  0  0
   -3.3603    5.9353   -0.8362 H   0  0  0  0  0  0  0  0  0  0  0  0
   -3.6570    8.2240   -2.4120 H   0  0  0  0  0  0  0  0  0  0  0  0
   -5.4493    5.0964    0.0489 H   0  0  0  0  0  0  0  0  0  0  0  0
   -6.7557    4.5902   -1.0753 H   0  0  0  0  0  0  0  0  0  0  0  0
   -5.1838    3.7208   -1.0753 H   0  0  0  0  0  0  0  0  0  0  0  0
   -3.8321    4.0288   -2.6191 H   0  0  0  0  0  0  0  0  0  0  0  0
   -5.2079    4.3289   -3.7344 H   0  0  0  0  0  0  0  0  0  0  0  0
   -3.7937    5.4364   -3.7344 H   0  0  0  0  0  0  0  0  0  0  0  0
   -7.1255   10.4573   -2.2549 H   0  0  0  0  0  0  0  0  0  0  0  0
   -6.6468    9.3655   -3.5987 H   0  0  0  0  0  0  0  0  0  0  0  0
   -8.2720   10.1308   -3.5987 H   0  0  0  0  0  0  0  0  0  0  0  0
   -8.1797    9.2611   -0.1533 H   0  0  0  0  0  0  0  0  0  0  0  0
   -9.3695    9.9737   -1.3827 H   0  0  0  0  0  0  0  0  0  0  0  0
   -9.6047    7.3457    0.1090 H   0  0  0  0  0  0  0  0  0  0  0  0
  -10.6380    8.8220    0.2528 H   0  0  0  0  0  0  0  0  0  0  0  0
  -11.9417    9.6427   -1.4794 H   0  0  0  0  0  0  0  0  0  0  0  0
  -10.8285    9.4510   -2.8760 H   0  0  0  0  0  0  0  0  0  0  0  0
  -12.4208    8.6197   -2.8760 H   0  0  0  0  0  0  0  0  0  0  0  0
  1  2  1  0
  2  3  1  0
  3  4  1  0
  4  5  1  0
  5  6  1  0
  6  7  1  0
  7  8  1  0
  7  9  1  0
  2 10  1  0
 10 11  1  0
 11 12  1  0
 12 13  1  0
 13 14  1  1
 13 15  1  0
 15 16  1  0
 16 17  1  0
 17 18  2  0
 18 19  1  0
 19 20  1  0
 20 21  1  0
 21 22  1  0
 22 23  1  0
 22 24  1  0
 24 25  1  0
 24 26  1  0
 19 27  1  0
 27 28  1  6
 27 29  1  0
 29 30  1  0
 30 31  1  0
 31 32  1  6
  7  5  1  0
 31 10  1  0
 31 13  1  0
 27 15  1  0
 24 18  1  0
  1 33  1  0
  1 34  1  0
  1 35  1  0
  2 36  1  1
  3 37  1  0
  3 38  1  0
  4 39  1  0
  4 40  1  0
  5 41  1  6
  8 42  1  0
  8 43  1  0
  8 44  1  0
  9 45  1  0
  9 46  1  0
  9 47  1  0
 10 48  1  1
 11 49  1  0
 11 50  1  0
 12 51  1  0
 12 52  1  0
 14 53  1  0
 14 54  1  0
 14 55  1  0
 15 56  1  6
 16 57  1  0
 16 58  1  0
 17 59  1  0
 19 60  1  1
 20 61  1  0
 20 62  1  0
 21 63  1  0
 21 64  1  0
 22 65  1  1
 23 66  1  0
 25 67  1  0
 25 68  1  0
 25 69  1  0
 26 70  1  0
 26 71  1  0
 26 72  1  0
 28 73  1  0
 28 74  1  0
 28 75  1  0
 29 76  1  0
 29 77  1  0
 30 78  1  0
 30 79  1  0
 32 80  1  0
 32 81  1  0
 32 82  1  0
M  END
>  <meeko>  (20) 
{"is_sidechain": [false], "intermolecular_energy": 2.731, "internal_energy": -0.839}

$$$$
