EPH_relaxed_0001_pdb2pqr_Repair_69_r2_0001_out
     RDKit          3D

 82 86  0  0  0  0  0  0  0  0999 V2000
   -1.7060    8.5880   -1.8730 C   0  0  0  0  0  0  0  0  0  0  0  0
   -2.0810    9.1220   -0.4880 C   0  0  2  0  0  0  0  0  0  0  0  0
   -3.5710    9.5060   -0.3970 C   0  0  0  0  0  0  0  0  0  0  0  0
   -4.5080    8.3050   -0.2380 C   0  0  0  0  0  0  0  0  0  0  0  0
   -5.2160    7.9790   -1.5180 C   0  0  2  0  0  0  0  0  0  0  0  0
   -6.3750    8.7810   -1.7810 O   0  0  0  0  0  0  0  0  0  0  0  0
   -6.6080    7.3780   -1.5750 C   0  0  0  0  0  0  0  0  0  0  0  0
   -7.3740    7.0660   -0.3280 C   0  0  0  0  0  0  0  0  0  0  0  0
   -7.0210    6.6470   -2.8140 C   0  0  0  0  0  0  0  0  0  0  0  0
   -1.2110   10.3250   -0.1420 C   0  0  1  0  0  0  0  0  0  0  0  0
   -0.1640   10.0080    0.9590 C   0  0  0  0  0  0  0  0  0  0  0  0
    1.1040   10.8330    0.6200 C   0  0  0  0  0  0  0  0  0  0  0  0
    0.6390   11.8390   -0.4590 C   0  0  1  0  0  0  0  0  0  0  0  0
   -0.0510   12.9900    0.3380 C   0  0  0  0  0  0  0  0  0  0  0  0
    1.7460   12.3840   -1.4190 C   0  0  2  0  0  0  0  0  0  0  0  0
    2.8630   13.1910   -0.7350 C   0  0  0  0  0  0  0  0  0  0  0  0
    2.6190   14.6610   -0.6370 C   0  0  0  0  0  0  0  0  0  0  0  0
    1.6880   15.3470   -1.3260 C   0  0  0  0  0  0  0  0  0  0  0  0
    0.8240   14.6540   -2.3870 C   0  0  1  0  0  0  0  0  0  0  0  0
    0.7800   15.5260   -3.6700 C   0  0  0  0  0  0  0  0  0  0  0  0
    0.3260   16.9550   -3.3900 C   0  0  0  0  0  0  0  0  0  0  0  0
    1.2450   17.6300   -2.3740 C   0  0  2  0  0  0  0  0  0  0  0  0
    2.5380   17.7980   -2.9620 O   0  0  0  0  0  0  0  0  0  0  0  0
    1.3750   16.8370   -1.0440 C   0  0  0  0  0  0  0  0  0  0  0  0
    0.0410   16.9130   -0.2600 C   0  0  0  0  0  0  0  0  0  0  0  0
    2.4360   17.5510   -0.1640 C   0  0  0  0  0  0  0  0  0  0  0  0
    1.1850   13.1370   -2.6930 C   0  0  1  0  0  0  0  0  0  0  0  0
    2.3010   13.0640   -3.7800 C   0  0  0  0  0  0  0  0  0  0  0  0
   -0.0770   12.4210   -3.3040 C   0  0  0  0  0  0  0  0  0  0  0  0
   -1.0730   11.7980   -2.3070 C   0  0  0  0  0  0  0  0  0  0  0  0
   -0.3470   10.9280   -1.2770 C   0  0  2  0  0  0  0  0  0  0  0  0
    0.3390    9.7480   -2.0470 C   0  0  0  0  0  0  0  0  0  0  0  0
   -1.0770    7.6923   -1.7627 H   0  0  0  0  0  0  0  0  0  0  0  0
   -2.6208    8.3278   -2.4257 H   0  0  0  0  0  0  0  0  0  0  0  0
   -1.1508    9.3602   -2.4257 H   0  0  0  0  0  0  0  0  0  0  0  0
   -1.9040    8.3139    0.2370 H   0  0  0  0  0  0  0  0  0  0  0  0
   -3.7063   10.1692    0.4701 H   0  0  0  0  0  0  0  0  0  0  0  0
   -3.8350    9.9962   -1.3457 H   0  0  0  0  0  0  0  0  0  0  0  0
   -3.9173    7.4314    0.0748 H   0  0  0  0  0  0  0  0  0  0  0  0
   -5.2662    8.5601    0.5170 H   0  0  0  0  0  0  0  0  0  0  0  0
   -4.2684    7.6911   -1.9967 H   0  0  0  0  0  0  0  0  0  0  0  0
   -6.7613    7.3156    0.5508 H   0  0  0  0  0  0  0  0  0  0  0  0
   -8.3007    7.6583   -0.3091 H   0  0  0  0  0  0  0  0  0  0  0  0
   -7.6231    5.9947   -0.3091 H   0  0  0  0  0  0  0  0  0  0  0  0
   -7.5445    5.7204   -2.5358 H   0  0  0  0  0  0  0  0  0  0  0  0
   -7.6930    7.2835   -3.4084 H   0  0  0  0  0  0  0  0  0  0  0  0
   -6.1291    6.3999   -3.4084 H   0  0  0  0  0  0  0  0  0  0  0  0
   -1.9935   11.0392    0.1542 H   0  0  0  0  0  0  0  0  0  0  0  0
   -0.5524   10.2986    1.9463 H   0  0  0  0  0  0  0  0  0  0  0  0
    0.0616    8.9319    0.9919 H   0  0  0  0  0  0  0  0  0  0  0  0
    1.4725   11.3623    1.5111 H   0  0  0  0  0  0  0  0  0  0  0  0
    1.9323   10.1994    0.2699 H   0  0  0  0  0  0  0  0  0  0  0  0
    0.0592   12.8062    1.4169 H   0  0  0  0  0  0  0  0  0  0  0  0
    0.4211   13.9493    0.0794 H   0  0  0  0  0  0  0  0  0  0  0  0
   -1.1196   13.0257    0.0794 H   0  0  0  0  0  0  0  0  0  0  0  0
    2.2229   11.4603   -1.7786 H   0  0  0  0  0  0  0  0  0  0  0  0
    2.9901   12.7988    0.2848 H   0  0  0  0  0  0  0  0  0  0  0  0
    3.7554   13.0720   -1.3670 H   0  0  0  0  0  0  0  0  0  0  0  0
    3.2538   15.2315    0.0569 H   0  0  0  0  0  0  0  0  0  0  0  0
   -0.1841   14.5758   -1.9538 H   0  0  0  0  0  0  0  0  0  0  0  0
    1.7874   15.5559   -4.1109 H   0  0  0  0  0  0  0  0  0  0  0  0
    0.0509   15.0724   -4.3575 H   0  0  0  0  0  0  0  0  0  0  0  0
    0.3435   17.5288   -4.3283 H   0  0  0  0  0  0  0  0  0  0  0  0
   -0.6929   16.9252   -2.9766 H   0  0  0  0  0  0  0  0  0  0  0  0
    0.7962   18.6010   -2.1176 H   0  0  0  0  0  0  0  0  0  0  0  0
    3.1750   17.3040   -2.4190 H   0  0  0  0  0  0  0  0  0  0  0  0
    0.2493   16.9011    0.8200 H   0  0  0  0  0  0  0  0  0  0  0  0
   -0.4856   17.8426   -0.5217 H   0  0  0  0  0  0  0  0  0  0  0  0
   -0.5878   16.0492   -0.5217 H   0  0  0  0  0  0  0  0  0  0  0  0
    2.1989   17.3914    0.8982 H   0  0  0  0  0  0  0  0  0  0  0  0
    3.4319   17.1386   -0.3833 H   0  0  0  0  0  0  0  0  0  0  0  0
    2.4290   18.6289   -0.3833 H   0  0  0  0  0  0  0  0  0  0  0  0
    3.2847   12.9997   -3.2919 H   0  0  0  0  0  0  0  0  0  0  0  0
    2.1441   12.1742   -4.4074 H   0  0  0  0  0  0  0  0  0  0  0  0
    2.2614   13.9667   -4.4074 H   0  0  0  0  0  0  0  0  0  0  0  0
   -0.6251   13.1648   -3.9010 H   0  0  0  0  0  0  0  0  0  0  0  0
    0.3234   11.5729   -3.8787 H   0  0  0  0  0  0  0  0  0  0  0  0
   -1.6092   12.6033   -1.7836 H   0  0  0  0  0  0  0  0  0  0  0  0
   -1.7782   11.1650   -2.8656 H   0  0  0  0  0  0  0  0  0  0  0  0
    0.7556    9.0314   -1.3239 H   0  0  0  0  0  0  0  0  0  0  0  0
   -0.4050    9.2408   -2.6788 H   0  0  0  0  0  0  0  0  0  0  0  0
    1.1479   10.1436   -2.6788 H   0  0  0  0  0  0  0  0  0  0  0  0
  1  2  1  0
  2  3  1  0
  3  4  1  0
  4  5  1  0
  5  6  1  0
  6  7  1  0
  7  8  1  0
  7  9  1  0
  2 10  1  0
 10 11  1  0
 11 12  1  0
 12 13  1  0
 13 14  1  1
 13 15  1  0
 15 16  1  0
 16 17  1  0
 17 18  2  0
 18 19  1  0
 19 20  1  0
 20 21  1  0
 21 22  1  0
 22 23  1  0
 22 24  1  0
 24 25  1  0
 24 26  1  0
 19 27  1  0
 27 28  1  6
 27 29  1  0
 29 30  1  0
 30 31  1  0
 31 32  1  6
  7  5  1  0
 31 10  1  0
 31 13  1  0
 27 15  1  0
 24 18  1  0
  1 33  1  0
  1 34  1  0
  1 35  1  0
  2 36  1  1
  3 37  1  0
  3 38  1  0
  4 39  1  0
  4 40  1  0
  5 41  1  6
  8 42  1  0
  8 43  1  0
  8 44  1  0
  9 45  1  0
  9 46  1  0
  9 47  1  0
 10 48  1  1
 11 49  1  0
 11 50  1  0
 12 51  1  0
 12 52  1  0
 14 53  1  0
 14 54  1  0
 14 55  1  0
 15 56  1  6
 16 57  1  0
 16 58  1  0
 17 59  1  0
 19 60  1  1
 20 61  1  0
 20 62  1  0
 21 63  1  0
 21 64  1  0
 22 65  1  1
 23 66  1  0
 25 67  1  0
 25 68  1  0
 25 69  1  0
 26 70  1  0
 26 71  1  0
 26 72  1  0
 28 73  1  0
 28 74  1  0
 28 75  1  0
 29 76  1  0
 29 77  1  0
 30 78  1  0
 30 79  1  0
 32 80  1  0
 32 81  1  0
 32 82  1  0
M  END
>  <meeko>  (1) 
{"is_sidechain": [false], "intermolecular_energy": 2.731, "internal_energy": -0.839}

$$$$
EPH_relaxed_0001_pdb2pqr_Repair_69_r2_0001_out
     RDKit          3D

 82 86  0  0  0  0  0  0  0  0999 V2000
    4.2090   17.5890   -0.6640 C   0  0  0  0  0  0  0  0  0  0  0  0
    2.8520   18.1470   -0.2270 C   0  0  2  0  0  0  0  0  0  0  0  0
    2.9200   18.8220    1.1570 C   0  0  0  0  0  0  0  0  0  0  0  0
    4.2780   18.6740    1.8480 C   0  0  0  0  0  0  0  0  0  0  0  0
    4.2780   19.2970    3.2110 C   0  0  2  0  0  0  0  0  0  0  0  0
    5.3680   20.1940    3.4590 O   0  0  0  0  0  0  0  0  0  0  0  0
    5.3300   19.0060    4.2650 C   0  0  0  0  0  0  0  0  0  0  0  0
    6.4560   18.0550    4.0020 C   0  0  0  0  0  0  0  0  0  0  0  0
    4.9940   19.2610    5.7010 C   0  0  0  0  0  0  0  0  0  0  0  0
    1.8120   17.0330   -0.2130 C   0  0  1  0  0  0  0  0  0  0  0  0
    0.3820   17.5470   -0.5270 C   0  0  0  0  0  0  0  0  0  0  0  0
   -0.3310   16.4270   -1.3270 C   0  0  0  0  0  0  0  0  0  0  0  0
    0.5820   15.1890   -1.1620 C   0  0  1  0  0  0  0  0  0  0  0  0
    0.2110   14.6000    0.2350 C   0  0  0  0  0  0  0  0  0  0  0  0
    0.4890   14.1070   -2.2870 C   0  0  2  0  0  0  0  0  0  0  0  0
   -0.8870   13.4330   -2.4330 C   0  0  0  0  0  0  0  0  0  0  0  0
   -1.0810   12.1980   -1.6170 C   0  0  0  0  0  0  0  0  0  0  0  0
   -0.1020   11.4910   -1.0230 C   0  0  0  0  0  0  0  0  0  0  0  0
    1.3720   11.8650   -1.2230 C   0  0  1  0  0  0  0  0  0  0  0  0
    2.1930   10.5860   -1.5350 C   0  0  0  0  0  0  0  0  0  0  0  0
    2.0050    9.4980   -0.4810 C   0  0  0  0  0  0  0  0  0  0  0  0
    0.5330    9.1130   -0.3520 C   0  0  2  0  0  0  0  0  0  0  0  0
    0.1150    8.4800   -1.5650 O   0  0  0  0  0  0  0  0  0  0  0  0
   -0.3930   10.3230   -0.0480 C   0  0  0  0  0  0  0  0  0  0  0  0
   -0.1400   10.8220    1.3970 C   0  0  0  0  0  0  0  0  0  0  0  0
   -1.8620    9.8220   -0.0830 C   0  0  0  0  0  0  0  0  0  0  0  0
    1.6560   13.0380   -2.2570 C   0  0  1  0  0  0  0  0  0  0  0  0
    1.7680   12.4610   -3.7010 C   0  0  0  0  0  0  0  0  0  0  0  0
    3.0520   13.6870   -1.9280 C   0  0  0  0  0  0  0  0  0  0  0  0
    3.0620   14.8310   -0.8970 C   0  0  0  0  0  0  0  0  0  0  0  0
    1.9930   15.8780   -1.2290 C   0  0  2  0  0  0  0  0  0  0  0  0
    2.3530   16.5030   -2.6200 C   0  0  0  0  0  0  0  0  0  0  0  0
    4.8078   17.3428    0.2253 H   0  0  0  0  0  0  0  0  0  0  0  0
    4.0555   16.6810   -1.2656 H   0  0  0  0  0  0  0  0  0  0  0  0
    4.7387   18.3423   -1.2656 H   0  0  0  0  0  0  0  0  0  0  0  0
    2.5611   18.9178   -0.9558 H   0  0  0  0  0  0  0  0  0  0  0  0
    2.7095   19.8943    1.0311 H   0  0  0  0  0  0  0  0  0  0  0  0
    2.1780   18.3207    1.7959 H   0  0  0  0  0  0  0  0  0  0  0  0
    4.5136   17.6039    1.9453 H   0  0  0  0  0  0  0  0  0  0  0  0
    5.0321   19.1899    1.2355 H   0  0  0  0  0  0  0  0  0  0  0  0
    3.1785   19.2831    3.2426 H   0  0  0  0  0  0  0  0  0  0  0  0
    6.8709   17.7045    4.9586 H   0  0  0  0  0  0  0  0  0  0  0  0
    6.0827   17.1947    3.4271 H   0  0  0  0  0  0  0  0  0  0  0  0
    7.2417   18.5670    3.4271 H   0  0  0  0  0  0  0  0  0  0  0  0
    5.7043   18.7219    6.3451 H   0  0  0  0  0  0  0  0  0  0  0  0
    5.0583   20.3397    5.9067 H   0  0  0  0  0  0  0  0  0  0  0  0
    3.9724   18.9088    5.9067 H   0  0  0  0  0  0  0  0  0  0  0  0
    1.9565   16.6593    0.8114 H   0  0  0  0  0  0  0  0  0  0  0  0
   -0.1614   17.7493    0.4078 H   0  0  0  0  0  0  0  0  0  0  0  0
    0.4169   18.4830   -1.1038 H   0  0  0  0  0  0  0  0  0  0  0  0
   -1.3309   16.2302   -0.9130 H   0  0  0  0  0  0  0  0  0  0  0  0
   -0.4801   16.6981   -2.3826 H   0  0  0  0  0  0  0  0  0  0  0  0
    0.6186   15.2471    1.0257 H   0  0  0  0  0  0  0  0  0  0  0  0
   -0.8835   14.5476    0.3319 H   0  0  0  0  0  0  0  0  0  0  0  0
    0.6364   13.5902    0.3319 H   0  0  0  0  0  0  0  0  0  0  0  0
    0.6270   14.7047   -3.2001 H   0  0  0  0  0  0  0  0  0  0  0  0
   -1.6557   14.1614   -2.1355 H   0  0  0  0  0  0  0  0  0  0  0  0
   -0.9622   13.1184   -3.4844 H   0  0  0  0  0  0  0  0  0  0  0  0
   -2.1117   11.8351   -1.4905 H   0  0  0  0  0  0  0  0  0  0  0  0
    1.7064   12.3011   -0.2701 H   0  0  0  0  0  0  0  0  0  0  0  0
    1.8731   10.1909   -2.5105 H   0  0  0  0  0  0  0  0  0  0  0  0
    3.2569   10.8653   -1.5404 H   0  0  0  0  0  0  0  0  0  0  0  0
    2.5853    8.6101   -0.7724 H   0  0  0  0  0  0  0  0  0  0  0  0
    2.3537    9.8837    0.4884 H   0  0  0  0  0  0  0  0  0  0  0  0
    0.4448    8.4287    0.5047 H   0  0  0  0  0  0  0  0  0  0  0  0
    0.9100    8.1420   -2.0110 H   0  0  0  0  0  0  0  0  0  0  0  0
   -0.5175   10.0775    2.1134 H   0  0  0  0  0  0  0  0  0  0  0  0
    0.9396   10.9652    1.5517 H   0  0  0  0  0  0  0  0  0  0  0  0
   -0.6625   11.7775    1.5517 H   0  0  0  0  0  0  0  0  0  0  0  0
   -2.2311    9.6961    0.9456 H   0  0  0  0  0  0  0  0  0  0  0  0
   -2.4878   10.5575   -0.6097 H   0  0  0  0  0  0  0  0  0  0  0  0
   -1.9080    8.8574   -0.6097 H   0  0  0  0  0  0  0  0  0  0  0  0
    1.9774   11.3823   -3.6496 H   0  0  0  0  0  0  0  0  0  0  0  0
    0.8211   12.6256   -4.2361 H   0  0  0  0  0  0  0  0  0  0  0  0
    2.5845   12.9679   -4.2361 H   0  0  0  0  0  0  0  0  0  0  0  0
    3.7075   12.8902   -1.5468 H   0  0  0  0  0  0  0  0  0  0  0  0
    3.3841   14.1469   -2.8704 H   0  0  0  0  0  0  0  0  0  0  0  0
    2.8619   14.4167    0.1022 H   0  0  0  0  0  0  0  0  0  0  0  0
    4.0485   15.3169   -0.9218 H   0  0  0  0  0  0  0  0  0  0  0  0
    2.8968   17.4471   -2.4681 H   0  0  0  0  0  0  0  0  0  0  0  0
    2.9857   15.8021   -3.1842 H   0  0  0  0  0  0  0  0  0  0  0  0
    1.4292   16.6986   -3.1842 H   0  0  0  0  0  0  0  0  0  0  0  0
  1  2  1  0
  2  3  1  0
  3  4  1  0
  4  5  1  0
  5  6  1  0
  6  7  1  0
  7  8  1  0
  7  9  1  0
  2 10  1  0
 10 11  1  0
 11 12  1  0
 12 13  1  0
 13 14  1  1
 13 15  1  0
 15 16  1  0
 16 17  1  0
 17 18  2  0
 18 19  1  0
 19 20  1  0
 20 21  1  0
 21 22  1  0
 22 23  1  0
 22 24  1  0
 24 25  1  0
 24 26  1  0
 19 27  1  0
 27 28  1  6
 27 29  1  0
 29 30  1  0
 30 31  1  0
 31 32  1  6
  7  5  1  0
 31 10  1  0
 31 13  1  0
 27 15  1  0
 24 18  1  0
  1 33  1  0
  1 34  1  0
  1 35  1  0
  2 36  1  6
  3 37  1  0
  3 38  1  0
  4 39  1  0
  4 40  1  0
  5 41  1  1
  8 42  1  0
  8 43  1  0
  8 44  1  0
  9 45  1  0
  9 46  1  0
  9 47  1  0
 10 48  1  1
 11 49  1  0
 11 50  1  0
 12 51  1  0
 12 52  1  0
 14 53  1  0
 14 54  1  0
 14 55  1  0
 15 56  1  6
 16 57  1  0
 16 58  1  0
 17 59  1  0
 19 60  1  1
 20 61  1  0
 20 62  1  0
 21 63  1  0
 21 64  1  0
 22 65  1  1
 23 66  1  0
 25 67  1  0
 25 68  1  0
 25 69  1  0
 26 70  1  0
 26 71  1  0
 26 72  1  0
 28 73  1  0
 28 74  1  0
 28 75  1  0
 29 76  1  0
 29 77  1  0
 30 78  1  0
 30 79  1  0
 32 80  1  0
 32 81  1  0
 32 82  1  0
M  END
>  <meeko>  (2) 
{"is_sidechain": [false], "intermolecular_energy": 2.731, "internal_energy": -0.839}

$$$$
EPH_relaxed_0001_pdb2pqr_Repair_69_r2_0001_out
     RDKit          3D

 82 86  0  0  0  0  0  0  0  0999 V2000
    0.4130   18.4110   -0.0180 C   0  0  0  0  0  0  0  0  0  0  0  0
    1.5040   17.3620   -0.2520 C   0  0  2  0  0  0  0  0  0  0  0  0
    2.7080   17.9400   -1.0220 C   0  0  0  0  0  0  0  0  0  0  0  0
    3.9450   18.1690   -0.1490 C   0  0  0  0  0  0  0  0  0  0  0  0
    3.5740   18.6390    1.2250 C   0  0  2  0  0  0  0  0  0  0  0  0
    3.8260   20.0290    1.4690 O   0  0  0  0  0  0  0  0  0  0  0  0
    4.5900   19.0990    2.2540 C   0  0  0  0  0  0  0  0  0  0  0  0
    6.0560   19.1100    1.9530 C   0  0  0  0  0  0  0  0  0  0  0  0
    4.2060   19.0720    3.7000 C   0  0  0  0  0  0  0  0  0  0  0  0
    0.9270   16.1700   -1.0060 C   0  0  1  0  0  0  0  0  0  0  0  0
    0.7810   16.4390   -2.5280 C   0  0  0  0  0  0  0  0  0  0  0  0
    1.0680   15.0970   -3.2490 C   0  0  0  0  0  0  0  0  0  0  0  0
    1.0400   14.0360   -2.1230 C   0  0  1  0  0  0  0  0  0  0  0  0
   -0.4740   13.7350   -1.8940 C   0  0  0  0  0  0  0  0  0  0  0  0
    1.8560   12.7290   -2.3860 C   0  0  2  0  0  0  0  0  0  0  0  0
    1.3770   11.8900   -3.5840 C   0  0  0  0  0  0  0  0  0  0  0  0
    0.3520   10.8530   -3.2670 C   0  0  0  0  0  0  0  0  0  0  0  0
    0.0430   10.4090   -2.0340 C   0  0  0  0  0  0  0  0  0  0  0  0
    0.8250   10.8910   -0.8050 C   0  0  1  0  0  0  0  0  0  0  0  0
    1.1940    9.6740    0.0840 C   0  0  0  0  0  0  0  0  0  0  0  0
   -0.0230    8.8330    0.4590 C   0  0  0  0  0  0  0  0  0  0  0  0
   -0.7400    8.3240   -0.7890 C   0  0  2  0  0  0  0  0  0  0  0  0
    0.1140    7.3960   -1.4640 O   0  0  0  0  0  0  0  0  0  0  0  0
   -1.1520    9.4610   -1.7660 C   0  0  0  0  0  0  0  0  0  0  0  0
   -2.3000   10.2920   -1.1420 C   0  0  0  0  0  0  0  0  0  0  0  0
   -1.7370    8.8040   -3.0450 C   0  0  0  0  0  0  0  0  0  0  0  0
    2.0720   11.8300   -1.1010 C   0  0  1  0  0  0  0  0  0  0  0  0
    3.3390   10.9630   -1.3730 C   0  0  0  0  0  0  0  0  0  0  0  0
    2.3870   12.6870    0.1820 C   0  0  0  0  0  0  0  0  0  0  0  0
    1.6370   14.0250    0.3250 C   0  0  0  0  0  0  0  0  0  0  0  0
    1.7290   14.8460   -0.9650 C   0  0  2  0  0  0  0  0  0  0  0  0
    3.2400   15.1840   -1.2100 C   0  0  0  0  0  0  0  0  0  0  0  0
    0.2660   18.5523    1.0629 H   0  0  0  0  0  0  0  0  0  0  0  0
    0.7172   19.3645   -0.4744 H   0  0  0  0  0  0  0  0  0  0  0  0
   -0.5278   18.0696   -0.4744 H   0  0  0  0  0  0  0  0  0  0  0  0
    1.8673   17.0366    0.7340 H   0  0  0  0  0  0  0  0  0  0  0  0
    2.9754   17.2383   -1.8258 H   0  0  0  0  0  0  0  0  0  0  0  0
    2.4006   18.9232   -1.4079 H   0  0  0  0  0  0  0  0  0  0  0  0
    4.5016   17.2240   -0.0644 H   0  0  0  0  0  0  0  0  0  0  0  0
    4.5604   18.9476   -0.6234 H   0  0  0  0  0  0  0  0  0  0  0  0
    2.7482   17.9142    1.2767 H   0  0  0  0  0  0  0  0  0  0  0  0
    6.6237   19.1143    2.8952 H   0  0  0  0  0  0  0  0  0  0  0  0
    6.3176   18.2138    1.3713 H   0  0  0  0  0  0  0  0  0  0  0  0
    6.3041   20.0100    1.3713 H   0  0  0  0  0  0  0  0  0  0  0  0
    5.1116   19.1357    4.3211 H   0  0  0  0  0  0  0  0  0  0  0  0
    3.5490   19.9262    3.9209 H   0  0  0  0  0  0  0  0  0  0  0  0
    3.6750   18.1343    3.9209 H   0  0  0  0  0  0  0  0  0  0  0  0
   -0.0222   16.0512   -0.4630 H   0  0  0  0  0  0  0  0  0  0  0  0
   -0.2393   16.7809   -2.7561 H   0  0  0  0  0  0  0  0  0  0  0  0
    1.4786   17.2224   -2.8593 H   0  0  0  0  0  0  0  0  0  0  0  0
    0.2929   14.8863   -4.0006 H   0  0  0  0  0  0  0  0  0  0  0  0
    2.0272   15.1092   -3.7873 H   0  0  0  0  0  0  0  0  0  0  0  0
   -0.6805   13.6940   -0.8143 H   0  0  0  0  0  0  0  0  0  0  0  0
   -1.0795   14.5303   -2.3531 H   0  0  0  0  0  0  0  0  0  0  0  0
   -0.7292   12.7685   -2.3531 H   0  0  0  0  0  0  0  0  0  0  0  0
    2.8432   13.1213   -2.6715 H   0  0  0  0  0  0  0  0  0  0  0  0
    0.9475   12.5758   -4.3291 H   0  0  0  0  0  0  0  0  0  0  0  0
    2.2607   11.3437   -3.9456 H   0  0  0  0  0  0  0  0  0  0  0  0
   -0.1979   10.4140   -4.1125 H   0  0  0  0  0  0  0  0  0  0  0  0
    0.1468   11.5618   -0.2573 H   0  0  0  0  0  0  0  0  0  0  0  0
    1.9057    9.0395   -0.4645 H   0  0  0  0  0  0  0  0  0  0  0  0
    1.6320   10.0616    1.0156 H   0  0  0  0  0  0  0  0  0  0  0  0
    0.3054    7.9732    1.0614 H   0  0  0  0  0  0  0  0  0  0  0  0
   -0.7203    9.4609    1.0330 H   0  0  0  0  0  0  0  0  0  0  0  0
   -1.6718    7.8405   -0.4603 H   0  0  0  0  0  0  0  0  0  0  0  0
   -0.2960    6.5170   -1.3970 H   0  0  0  0  0  0  0  0  0  0  0  0
   -2.2333   10.2437   -0.0451 H   0  0  0  0  0  0  0  0  0  0  0  0
   -2.2145   11.3388   -1.4688 H   0  0  0  0  0  0  0  0  0  0  0  0
   -3.2677    9.8838   -1.4688 H   0  0  0  0  0  0  0  0  0  0  0  0
   -2.4434    8.0106   -2.7594 H   0  0  0  0  0  0  0  0  0  0  0  0
   -2.2618    9.5652   -3.6410 H   0  0  0  0  0  0  0  0  0  0  0  0
   -0.9203    8.3706   -3.6410 H   0  0  0  0  0  0  0  0  0  0  0  0
    3.7863   10.6569   -0.4158 H   0  0  0  0  0  0  0  0  0  0  0  0
    3.0551   10.0690   -1.9476 H   0  0  0  0  0  0  0  0  0  0  0  0
    4.0695   11.5514   -1.9476 H   0  0  0  0  0  0  0  0  0  0  0  0
    2.1421   12.0726    1.0609 H   0  0  0  0  0  0  0  0  0  0  0  0
    3.4487   12.9604    0.0920 H   0  0  0  0  0  0  0  0  0  0  0  0
    0.5790   13.8224    0.5479 H   0  0  0  0  0  0  0  0  0  0  0  0
    2.0991   14.6005    1.1406 H   0  0  0  0  0  0  0  0  0  0  0  0
    3.7516   15.2984   -0.2430 H   0  0  0  0  0  0  0  0  0  0  0  0
    3.7104   14.3689   -1.7795 H   0  0  0  0  0  0  0  0  0  0  0  0
    3.3183   16.1219   -1.7795 H   0  0  0  0  0  0  0  0  0  0  0  0
  1  2  1  0
  2  3  1  0
  3  4  1  0
  4  5  1  0
  5  6  1  0
  6  7  1  0
  7  8  1  0
  7  9  1  0
  2 10  1  0
 10 11  1  0
 11 12  1  0
 12 13  1  0
 13 14  1  1
 13 15  1  0
 15 16  1  0
 16 17  1  0
 17 18  2  0
 18 19  1  0
 19 20  1  0
 20 21  1  0
 21 22  1  0
 22 23  1  0
 22 24  1  0
 24 25  1  0
 24 26  1  0
 19 27  1  0
 27 28  1  6
 27 29  1  0
 29 30  1  0
 30 31  1  0
 31 32  1  6
  7  5  1  0
 31 10  1  0
 31 13  1  0
 27 15  1  0
 24 18  1  0
  1 33  1  0
  1 34  1  0
  1 35  1  0
  2 36  1  1
  3 37  1  0
  3 38  1  0
  4 39  1  0
  4 40  1  0
  5 41  1  1
  8 42  1  0
  8 43  1  0
  8 44  1  0
  9 45  1  0
  9 46  1  0
  9 47  1  0
 10 48  1  1
 11 49  1  0
 11 50  1  0
 12 51  1  0
 12 52  1  0
 14 53  1  0
 14 54  1  0
 14 55  1  0
 15 56  1  6
 16 57  1  0
 16 58  1  0
 17 59  1  0
 19 60  1  1
 20 61  1  0
 20 62  1  0
 21 63  1  0
 21 64  1  0
 22 65  1  1
 23 66  1  0
 25 67  1  0
 25 68  1  0
 25 69  1  0
 26 70  1  0
 26 71  1  0
 26 72  1  0
 28 73  1  0
 28 74  1  0
 28 75  1  0
 29 76  1  0
 29 77  1  0
 30 78  1  0
 30 79  1  0
 32 80  1  0
 32 81  1  0
 32 82  1  0
M  END
>  <meeko>  (3) 
{"is_sidechain": [false], "intermolecular_energy": 2.731, "internal_energy": -0.839}

$$$$
EPH_relaxed_0001_pdb2pqr_Repair_69_r2_0001_out
     RDKit          3D

 82 86  0  0  0  0  0  0  0  0999 V2000
    2.4050   18.0130   -2.7220 C   0  0  0  0  0  0  0  0  0  0  0  0
    1.1460   17.6090   -1.9490 C   0  0  2  0  0  0  0  0  0  0  0  0
    1.3680   17.6380   -0.4230 C   0  0  0  0  0  0  0  0  0  0  0  0
    1.0670   18.9970    0.2160 C   0  0  0  0  0  0  0  0  0  0  0  0
   -0.3770   19.1230    0.5980 C   0  0  2  0  0  0  0  0  0  0  0  0
   -1.2610   18.2420   -0.1060 O   0  0  0  0  0  0  0  0  0  0  0  0
   -1.4480   19.6470   -0.3390 C   0  0  0  0  0  0  0  0  0  0  0  0
   -1.1200   20.0820   -1.7330 C   0  0  0  0  0  0  0  0  0  0  0  0
   -2.7100   20.1940    0.2510 C   0  0  0  0  0  0  0  0  0  0  0  0
    0.6940   16.2200   -2.3820 C   0  0  1  0  0  0  0  0  0  0  0  0
    0.8140   16.0030   -3.9140 C   0  0  0  0  0  0  0  0  0  0  0  0
    1.2050   14.5180   -4.1270 C   0  0  0  0  0  0  0  0  0  0  0  0
    0.9740   13.8530   -2.7500 C   0  0  1  0  0  0  0  0  0  0  0  0
   -0.5610   13.5710   -2.6940 C   0  0  0  0  0  0  0  0  0  0  0  0
    1.8080   12.5640   -2.4570 C   0  0  2  0  0  0  0  0  0  0  0  0
    1.5320   11.3790   -3.3990 C   0  0  0  0  0  0  0  0  0  0  0  0
    0.4560   10.4450   -2.9510 C   0  0  0  0  0  0  0  0  0  0  0  0
   -0.0630   10.3880   -1.7110 C   0  0  0  0  0  0  0  0  0  0  0  0
    0.5020   11.2560   -0.5790 C   0  0  1  0  0  0  0  0  0  0  0  0
    0.6990   10.3870    0.6900 C   0  0  0  0  0  0  0  0  0  0  0  0
   -0.5730    9.6500    1.0990 C   0  0  0  0  0  0  0  0  0  0  0  0
   -1.0710    8.7540   -0.0310 C   0  0  2  0  0  0  0  0  0  0  0  0
   -0.1240    7.7000   -0.2350 O   0  0  0  0  0  0  0  0  0  0  0  0
   -1.2970    9.5180   -1.3650 C   0  0  0  0  0  0  0  0  0  0  0  0
   -2.5260   10.4500   -1.2290 C   0  0  0  0  0  0  0  0  0  0  0  0
   -1.6610    8.4760   -2.4570 C   0  0  0  0  0  0  0  0  0  0  0  0
    1.7910   12.1120   -0.9400 C   0  0  1  0  0  0  0  0  0  0  0  0
    3.0770   11.2580   -0.7150 C   0  0  0  0  0  0  0  0  0  0  0  0
    1.8910   13.3330    0.0490 C   0  0  0  0  0  0  0  0  0  0  0  0
    1.1420   14.6180   -0.3550 C   0  0  0  0  0  0  0  0  0  0  0  0
    1.4630   15.0070   -1.8020 C   0  0  2  0  0  0  0  0  0  0  0  0
    2.9970   15.3180   -1.8840 C   0  0  0  0  0  0  0  0  0  0  0  0
    3.2048   18.2696   -2.0117 H   0  0  0  0  0  0  0  0  0  0  0  0
    2.7316   17.1746   -3.3547 H   0  0  0  0  0  0  0  0  0  0  0  0
    2.1828   18.8849   -3.3547 H   0  0  0  0  0  0  0  0  0  0  0  0
    0.3630   18.3451   -2.1836 H   0  0  0  0  0  0  0  0  0  0  0  0
    0.7125   16.8844    0.0379 H   0  0  0  0  0  0  0  0  0  0  0  0
    2.4338   17.4292   -0.2486 H   0  0  0  0  0  0  0  0  0  0  0  0
    1.6856   19.1114    1.1183 H   0  0  0  0  0  0  0  0  0  0  0  0
    1.2960   19.7806   -0.5213 H   0  0  0  0  0  0  0  0  0  0  0  0
   -0.1048   19.3903    1.6297 H   0  0  0  0  0  0  0  0  0  0  0  0
   -0.4581   20.9598   -1.6970 H   0  0  0  0  0  0  0  0  0  0  0  0
   -0.6133   19.2622   -2.2633 H   0  0  0  0  0  0  0  0  0  0  0  0
   -2.0475   20.3437   -2.2633 H   0  0  0  0  0  0  0  0  0  0  0  0
   -2.6441   20.1654    1.3486 H   0  0  0  0  0  0  0  0  0  0  0  0
   -2.8496   21.2334   -0.0810 H   0  0  0  0  0  0  0  0  0  0  0  0
   -3.5639   19.5852   -0.0810 H   0  0  0  0  0  0  0  0  0  0  0  0
   -0.3351   16.2333   -1.9937 H   0  0  0  0  0  0  0  0  0  0  0  0
   -0.1482   16.2151   -4.4030 H   0  0  0  0  0  0  0  0  0  0  0  0
    1.5671   16.6758   -4.3501 H   0  0  0  0  0  0  0  0  0  0  0  0
    0.5671   14.0546   -4.8941 H   0  0  0  0  0  0  0  0  0  0  0  0
    2.2420   14.4054   -4.4762 H   0  0  0  0  0  0  0  0  0  0  0  0
   -0.8848   13.5115   -1.6444 H   0  0  0  0  0  0  0  0  0  0  0  0
   -1.1020   14.3848   -3.1991 H   0  0  0  0  0  0  0  0  0  0  0  0
   -0.7774   12.6181   -3.1991 H   0  0  0  0  0  0  0  0  0  0  0  0
    2.8338   12.8913   -2.6819 H   0  0  0  0  0  0  0  0  0  0  0  0
    1.2433   11.7846   -4.3799 H   0  0  0  0  0  0  0  0  0  0  0  0
    2.4587   10.7868   -3.4226 H   0  0  0  0  0  0  0  0  0  0  0  0
    0.0539    9.7446   -3.6979 H   0  0  0  0  0  0  0  0  0  0  0  0
   -0.2521   12.0330   -0.3851 H   0  0  0  0  0  0  0  0  0  0  0  0
    1.4871    9.6459    0.4908 H   0  0  0  0  0  0  0  0  0  0  0  0
    0.9746   11.0599    1.5154 H   0  0  0  0  0  0  0  0  0  0  0  0
   -0.3617    9.0306    1.9831 H   0  0  0  0  0  0  0  0  0  0  0  0
   -1.3514   10.3930    1.3271 H   0  0  0  0  0  0  0  0  0  0  0  0
   -2.0506    8.3555    0.2718 H   0  0  0  0  0  0  0  0  0  0  0  0
   -0.0090    7.2400    0.6140 H   0  0  0  0  0  0  0  0  0  0  0  0
   -2.7444   10.6157   -0.1637 H   0  0  0  0  0  0  0  0  0  0  0  0
   -2.3106   11.4139   -1.7133 H   0  0  0  0  0  0  0  0  0  0  0  0
   -3.3960    9.9826   -1.7133 H   0  0  0  0  0  0  0  0  0  0  0  0
   -1.9875    7.5413   -1.9776 H   0  0  0  0  0  0  0  0  0  0  0  0
   -2.4746    8.8704   -3.0835 H   0  0  0  0  0  0  0  0  0  0  0  0
   -0.7788    8.2780   -3.0835 H   0  0  0  0  0  0  0  0  0  0  0  0
    3.2546   11.1400    0.3641 H   0  0  0  0  0  0  0  0  0  0  0  0
    2.9447   10.2677   -1.1752 H   0  0  0  0  0  0  0  0  0  0  0  0
    3.9384   11.7641   -1.1752 H   0  0  0  0  0  0  0  0  0  0  0  0
    1.4925   13.0073    1.0211 H   0  0  0  0  0  0  0  0  0  0  0  0
    2.9553   13.6107    0.0566 H   0  0  0  0  0  0  0  0  0  0  0  0
    0.0593   14.4487   -0.2594 H   0  0  0  0  0  0  0  0  0  0  0  0
    1.4636   15.4349    0.3078 H   0  0  0  0  0  0  0  0  0  0  0  0
    3.4090   15.4015   -0.8675 H   0  0  0  0  0  0  0  0  0  0  0  0
    3.5077   14.5051   -2.4210 H   0  0  0  0  0  0  0  0  0  0  0  0
    3.1508   16.2656   -2.4210 H   0  0  0  0  0  0  0  0  0  0  0  0
  1  2  1  0
  2  3  1  0
  3  4  1  0
  4  5  1  0
  5  6  1  0
  6  7  1  0
  7  8  1  0
  7  9  1  0
  2 10  1  0
 10 11  1  0
 11 12  1  0
 12 13  1  0
 13 14  1  1
 13 15  1  0
 15 16  1  0
 16 17  1  0
 17 18  2  0
 18 19  1  0
 19 20  1  0
 20 21  1  0
 21 22  1  0
 22 23  1  0
 22 24  1  0
 24 25  1  0
 24 26  1  0
 19 27  1  0
 27 28  1  6
 27 29  1  0
 29 30  1  0
 30 31  1  0
 31 32  1  1
  7  5  1  0
 31 10  1  0
 31 13  1  0
 27 15  1  0
 24 18  1  0
  1 33  1  0
  1 34  1  0
  1 35  1  0
  2 36  1  1
  3 37  1  0
  3 38  1  0
  4 39  1  0
  4 40  1  0
  5 41  1  1
  8 42  1  0
  8 43  1  0
  8 44  1  0
  9 45  1  0
  9 46  1  0
  9 47  1  0
 10 48  1  1
 11 49  1  0
 11 50  1  0
 12 51  1  0
 12 52  1  0
 14 53  1  0
 14 54  1  0
 14 55  1  0
 15 56  1  6
 16 57  1  0
 16 58  1  0
 17 59  1  0
 19 60  1  1
 20 61  1  0
 20 62  1  0
 21 63  1  0
 21 64  1  0
 22 65  1  1
 23 66  1  0
 25 67  1  0
 25 68  1  0
 25 69  1  0
 26 70  1  0
 26 71  1  0
 26 72  1  0
 28 73  1  0
 28 74  1  0
 28 75  1  0
 29 76  1  0
 29 77  1  0
 30 78  1  0
 30 79  1  0
 32 80  1  0
 32 81  1  0
 32 82  1  0
M  END
>  <meeko>  (4) 
{"is_sidechain": [false], "intermolecular_energy": 2.731, "internal_energy": -0.839}

$$$$
EPH_relaxed_0001_pdb2pqr_Repair_69_r2_0001_out
     RDKit          3D

 82 86  0  0  0  0  0  0  0  0999 V2000
    3.6360   17.7420    0.6340 C   0  0  0  0  0  0  0  0  0  0  0  0
    2.7560   18.0260   -0.5870 C   0  0  2  0  0  0  0  0  0  0  0  0
    2.0700   19.4040   -0.5010 C   0  0  0  0  0  0  0  0  0  0  0  0
    1.2080   19.5850    0.7510 C   0  0  0  0  0  0  0  0  0  0  0  0
   -0.1390   20.1510    0.4190 C   0  0  2  0  0  0  0  0  0  0  0  0
   -1.0600   20.1900    1.5180 O   0  0  0  0  0  0  0  0  0  0  0  0
   -1.4160   19.3310    0.4230 C   0  0  0  0  0  0  0  0  0  0  0  0
   -1.4060   17.8740    0.7640 C   0  0  0  0  0  0  0  0  0  0  0  0
   -2.5840   19.8220   -0.3740 C   0  0  0  0  0  0  0  0  0  0  0  0
    1.7080   16.9300   -0.7370 C   0  0  1  0  0  0  0  0  0  0  0  0
    0.4790   17.3880   -1.5680 C   0  0  0  0  0  0  0  0  0  0  0  0
   -0.0020   16.1540   -2.3730 C   0  0  0  0  0  0  0  0  0  0  0  0
    0.7450   14.9580   -1.7360 C   0  0  1  0  0  0  0  0  0  0  0  0
   -0.0800   14.6040   -0.4590 C   0  0  0  0  0  0  0  0  0  0  0  0
    0.9550   13.7090   -2.6520 C   0  0  2  0  0  0  0  0  0  0  0  0
   -0.3370   13.0220   -3.1270 C   0  0  0  0  0  0  0  0  0  0  0  0
   -0.8450   11.9350   -2.2380 C   0  0  0  0  0  0  0  0  0  0  0  0
   -0.1430   11.3320   -1.2600 C   0  0  0  0  0  0  0  0  0  0  0  0
    1.3360   11.6670   -1.0320 C   0  0  1  0  0  0  0  0  0  0  0  0
    2.1440   10.3530   -0.8640 C   0  0  0  0  0  0  0  0  0  0  0  0
    1.5750    9.4510    0.2270 C   0  0  0  0  0  0  0  0  0  0  0  0
    0.1200    9.0930   -0.0660 C   0  0  2  0  0  0  0  0  0  0  0  0
    0.0740    8.2730   -1.2370 O   0  0  0  0  0  0  0  0  0  0  0  0
   -0.7890   10.3380   -0.2640 C   0  0  0  0  0  0  0  0  0  0  0  0
   -0.9810   11.0640    1.0910 C   0  0  0  0  0  0  0  0  0  0  0  0
   -2.1960    9.8390   -0.6910 C   0  0  0  0  0  0  0  0  0  0  0  0
    1.9940   12.6580   -2.0860 C   0  0  1  0  0  0  0  0  0  0  0  0
    2.5270   11.8530   -3.3110 C   0  0  0  0  0  0  0  0  0  0  0  0
    3.2470   13.3490   -1.4300 C   0  0  0  0  0  0  0  0  0  0  0  0
    2.9910   14.6450   -0.6380 C   0  0  0  0  0  0  0  0  0  0  0  0
    2.1390   15.6250   -1.4510 C   0  0  2  0  0  0  0  0  0  0  0  0
    2.9530   16.0170   -2.7320 C   0  0  0  0  0  0  0  0  0  0  0  0
    3.0599   17.9279    1.5524 H   0  0  0  0  0  0  0  0  0  0  0  0
    3.9642   16.6923    0.6132 H   0  0  0  0  0  0  0  0  0  0  0  0
    4.5159   18.4018    0.6132 H   0  0  0  0  0  0  0  0  0  0  0  0
    3.4101   18.0387   -1.4713 H   0  0  0  0  0  0  0  0  0  0  0  0
    2.8492   20.1805   -0.5015 H   0  0  0  0  0  0  0  0  0  0  0  0
    1.3980   19.4833   -1.3683 H   0  0  0  0  0  0  0  0  0  0  0  0
    1.0740   18.6069    1.2361 H   0  0  0  0  0  0  0  0  0  0  0  0
    1.7207   20.2904    1.4214 H   0  0  0  0  0  0  0  0  0  0  0  0
    0.3030   20.8247   -0.3299 H   0  0  0  0  0  0  0  0  0  0  0  0
   -1.4052   17.7533    1.8574 H   0  0  0  0  0  0  0  0  0  0  0  0
   -2.3009   17.3927    0.3427 H   0  0  0  0  0  0  0  0  0  0  0  0
   -0.5046   17.4050    0.3427 H   0  0  0  0  0  0  0  0  0  0  0  0
   -3.3792   20.1563    0.3086 H   0  0  0  0  0  0  0  0  0  0  0  0
   -2.2675   20.6632   -1.0082 H   0  0  0  0  0  0  0  0  0  0  0  0
   -2.9636   19.0073   -1.0082 H   0  0  0  0  0  0  0  0  0  0  0  0
    1.5017   16.7272    0.3243 H   0  0  0  0  0  0  0  0  0  0  0  0
   -0.3207   17.7392   -0.8993 H   0  0  0  0  0  0  0  0  0  0  0  0
    0.7435   18.2185   -2.2390 H   0  0  0  0  0  0  0  0  0  0  0  0
   -1.0905   16.0278   -2.2770 H   0  0  0  0  0  0  0  0  0  0  0  0
    0.2056   16.2507   -3.4489 H   0  0  0  0  0  0  0  0  0  0  0  0
    0.5059   14.8554    0.4374 H   0  0  0  0  0  0  0  0  0  0  0  0
   -1.0178   15.1789   -0.4573 H   0  0  0  0  0  0  0  0  0  0  0  0
   -0.3095   13.5282   -0.4573 H   0  0  0  0  0  0  0  0  0  0  0  0
    1.4056   14.1511   -3.5528 H   0  0  0  0  0  0  0  0  0  0  0  0
   -1.1206   13.7898   -3.2070 H   0  0  0  0  0  0  0  0  0  0  0  0
   -0.0916   12.5416   -4.0856 H   0  0  0  0  0  0  0  0  0  0  0  0
   -1.8803   11.5984   -2.3955 H   0  0  0  0  0  0  0  0  0  0  0  0
    1.3753   12.2515   -0.1010 H   0  0  0  0  0  0  0  0  0  0  0  0
    2.1285    9.8053   -1.8178 H   0  0  0  0  0  0  0  0  0  0  0  0
    3.1682   10.6264   -0.5703 H   0  0  0  0  0  0  0  0  0  0  0  0
    2.1701    8.5272    0.2773 H   0  0  0  0  0  0  0  0  0  0  0  0
    1.6185    9.9887    1.1857 H   0  0  0  0  0  0  0  0  0  0  0  0
   -0.2706    8.5556    0.8108 H   0  0  0  0  0  0  0  0  0  0  0  0
   -0.6780    8.5720   -1.7770 H   0  0  0  0  0  0  0  0  0  0  0  0
   -0.7945   10.3589    1.9144 H   0  0  0  0  0  0  0  0  0  0  0  0
   -0.2741   11.9039    1.1603 H   0  0  0  0  0  0  0  0  0  0  0  0
   -2.0107   11.4447    1.1603 H   0  0  0  0  0  0  0  0  0  0  0  0
   -2.7970    9.6258    0.2053 H   0  0  0  0  0  0  0  0  0  0  0  0
   -2.6941   10.6153   -1.2904 H   0  0  0  0  0  0  0  0  0  0  0  0
   -2.0936    8.9223   -1.2904 H   0  0  0  0  0  0  0  0  0  0  0  0
    3.1020   10.9846   -2.9570 H   0  0  0  0  0  0  0  0  0  0  0  0
    1.6786   11.5075   -3.9200 H   0  0  0  0  0  0  0  0  0  0  0  0
    3.1763   12.4992   -3.9200 H   0  0  0  0  0  0  0  0  0  0  0  0
    3.7046   12.6233   -0.7415 H   0  0  0  0  0  0  0  0  0  0  0  0
    3.8847   13.6493   -2.2745 H   0  0  0  0  0  0  0  0  0  0  0  0
    2.4637   14.3982    0.2953 H   0  0  0  0  0  0  0  0  0  0  0  0
    3.9590   15.1195   -0.4193 H   0  0  0  0  0  0  0  0  0  0  0  0
    3.9070   16.4764   -2.4339 H   0  0  0  0  0  0  0  0  0  0  0  0
    3.1513   15.1156   -3.3305 H   0  0  0  0  0  0  0  0  0  0  0  0
    2.3719   16.7340   -3.3305 H   0  0  0  0  0  0  0  0  0  0  0  0
  1  2  1  0
  2  3  1  0
  3  4  1  0
  4  5  1  0
  5  6  1  0
  6  7  1  0
  7  8  1  0
  7  9  1  0
  2 10  1  0
 10 11  1  0
 11 12  1  0
 12 13  1  0
 13 14  1  1
 13 15  1  0
 15 16  1  0
 16 17  1  0
 17 18  2  0
 18 19  1  0
 19 20  1  0
 20 21  1  0
 21 22  1  0
 22 23  1  0
 22 24  1  0
 24 25  1  0
 24 26  1  0
 19 27  1  0
 27 28  1  6
 27 29  1  0
 29 30  1  0
 30 31  1  0
 31 32  1  6
  7  5  1  0
 31 10  1  0
 31 13  1  0
 27 15  1  0
 24 18  1  0
  1 33  1  0
  1 34  1  0
  1 35  1  0
  2 36  1  6
  3 37  1  0
  3 38  1  0
  4 39  1  0
  4 40  1  0
  5 41  1  6
  8 42  1  0
  8 43  1  0
  8 44  1  0
  9 45  1  0
  9 46  1  0
  9 47  1  0
 10 48  1  1
 11 49  1  0
 11 50  1  0
 12 51  1  0
 12 52  1  0
 14 53  1  0
 14 54  1  0
 14 55  1  0
 15 56  1  6
 16 57  1  0
 16 58  1  0
 17 59  1  0
 19 60  1  1
 20 61  1  0
 20 62  1  0
 21 63  1  0
 21 64  1  0
 22 65  1  1
 23 66  1  0
 25 67  1  0
 25 68  1  0
 25 69  1  0
 26 70  1  0
 26 71  1  0
 26 72  1  0
 28 73  1  0
 28 74  1  0
 28 75  1  0
 29 76  1  0
 29 77  1  0
 30 78  1  0
 30 79  1  0
 32 80  1  0
 32 81  1  0
 32 82  1  0
M  END
>  <meeko>  (5) 
{"is_sidechain": [false], "intermolecular_energy": 2.731, "internal_energy": -0.839}

$$$$
EPH_relaxed_0001_pdb2pqr_Repair_69_r2_0001_out
     RDKit          3D

 82 86  0  0  0  0  0  0  0  0999 V2000
   -5.0900    5.9900   -1.7310 C   0  0  0  0  0  0  0  0  0  0  0  0
   -5.4220    7.4830   -1.8040 C   0  0  2  0  0  0  0  0  0  0  0  0
   -5.2040    8.1930   -0.4530 C   0  0  0  0  0  0  0  0  0  0  0  0
   -4.2310    9.3730   -0.5270 C   0  0  0  0  0  0  0  0  0  0  0  0
   -2.8130    8.9370   -0.3170 C   0  0  2  0  0  0  0  0  0  0  0  0
   -2.0970    9.6860    0.6730 O   0  0  0  0  0  0  0  0  0  0  0  0
   -1.6120    9.7920   -0.6760 C   0  0  0  0  0  0  0  0  0  0  0  0
   -1.7750   11.1530   -1.2760 C   0  0  0  0  0  0  0  0  0  0  0  0
   -0.2940    9.1170   -0.8970 C   0  0  0  0  0  0  0  0  0  0  0  0
   -6.8620    7.6740   -2.2660 C   0  0  1  0  0  0  0  0  0  0  0  0
   -7.1550    6.9660   -3.6160 C   0  0  0  0  0  0  0  0  0  0  0  0
   -8.6180    6.4580   -3.5470 C   0  0  0  0  0  0  0  0  0  0  0  0
   -9.2200    7.1700   -2.3130 C   0  0  1  0  0  0  0  0  0  0  0  0
   -9.6060    8.5940   -2.8200 C   0  0  0  0  0  0  0  0  0  0  0  0
  -10.4280    6.4550   -1.6240 C   0  0  2  0  0  0  0  0  0  0  0  0
  -11.6800    6.2960   -2.5050 C   0  0  0  0  0  0  0  0  0  0  0  0
  -12.6610    7.4190   -2.4260 C   0  0  0  0  0  0  0  0  0  0  0  0
  -12.6860    8.3710   -1.4750 C   0  0  0  0  0  0  0  0  0  0  0  0
  -11.7180    8.3210   -0.2850 C   0  0  1  0  0  0  0  0  0  0  0  0
  -12.4990    8.5860    1.0290 C   0  0  0  0  0  0  0  0  0  0  0  0
  -13.3000    9.8840    0.9820 C   0  0  0  0  0  0  0  0  0  0  0  0
  -14.2920    9.8710   -0.1780 C   0  0  2  0  0  0  0  0  0  0  0  0
  -15.2850    8.8730    0.0750 O   0  0  0  0  0  0  0  0  0  0  0  0
  -13.6210    9.6030   -1.5550 C   0  0  0  0  0  0  0  0  0  0  0  0
  -12.7720   10.8300   -1.9680 C   0  0  0  0  0  0  0  0  0  0  0  0
  -14.7460    9.4750   -2.6170 C   0  0  0  0  0  0  0  0  0  0  0  0
  -10.7940    7.0310   -0.1970 C   0  0  1  0  0  0  0  0  0  0  0  0
  -11.5410    5.8930    0.5650 C   0  0  0  0  0  0  0  0  0  0  0  0
   -9.5160    7.3720    0.6570 C   0  0  0  0  0  0  0  0  0  0  0  0
   -8.3130    7.9650   -0.1010 C   0  0  0  0  0  0  0  0  0  0  0  0
   -7.9830    7.1320   -1.3430 C   0  0  2  0  0  0  0  0  0  0  0  0
   -7.5690    5.6990   -0.8630 C   0  0  0  0  0  0  0  0  0  0  0  0
   -5.0212    5.6808   -0.6776 H   0  0  0  0  0  0  0  0  0  0  0  0
   -5.8819    5.4134   -2.2315 H   0  0  0  0  0  0  0  0  0  0  0  0
   -4.1284    5.8033   -2.2315 H   0  0  0  0  0  0  0  0  0  0  0  0
   -4.7347    7.9391   -2.5317 H   0  0  0  0  0  0  0  0  0  0  0  0
   -6.1754    8.5659   -0.0961 H   0  0  0  0  0  0  0  0  0  0  0  0
   -4.7609    7.4538    0.2305 H   0  0  0  0  0  0  0  0  0  0  0  0
   -4.3161    9.8435   -1.5177 H   0  0  0  0  0  0  0  0  0  0  0  0
   -4.4927   10.0834    0.2710 H   0  0  0  0  0  0  0  0  0  0  0  0
   -3.0738    7.8951   -0.5546 H   0  0  0  0  0  0  0  0  0  0  0  0
   -1.8644   11.8994   -0.4730 H   0  0  0  0  0  0  0  0  0  0  0  0
   -0.8984   11.3869   -1.8981 H   0  0  0  0  0  0  0  0  0  0  0  0
   -2.6820   11.1733   -1.8981 H   0  0  0  0  0  0  0  0  0  0  0  0
    0.1650    8.8819    0.0746 H   0  0  0  0  0  0  0  0  0  0  0  0
   -0.4488    8.1872   -1.4640 H   0  0  0  0  0  0  0  0  0  0  0  0
    0.3701    9.7860   -1.4640 H   0  0  0  0  0  0  0  0  0  0  0  0
   -6.9006    8.7728   -2.3001 H   0  0  0  0  0  0  0  0  0  0  0  0
   -7.0394    7.6755   -4.4486 H   0  0  0  0  0  0  0  0  0  0  0  0
   -6.4558    6.1339   -3.7852 H   0  0  0  0  0  0  0  0  0  0  0  0
   -9.1676    6.7316   -4.4598 H   0  0  0  0  0  0  0  0  0  0  0  0
   -8.6760    5.3625   -3.4662 H   0  0  0  0  0  0  0  0  0  0  0  0
   -9.7849    9.2540   -1.9584 H   0  0  0  0  0  0  0  0  0  0  0  0
   -8.7858    9.0010   -3.4296 H   0  0  0  0  0  0  0  0  0  0  0  0
  -10.5195    8.5311   -3.4296 H   0  0  0  0  0  0  0  0  0  0  0  0
  -10.0420    5.4370   -1.4668 H   0  0  0  0  0  0  0  0  0  0  0  0
  -11.3508    6.2049   -3.5506 H   0  0  0  0  0  0  0  0  0  0  0  0
  -12.2055    5.4053   -2.1300 H   0  0  0  0  0  0  0  0  0  0  0  0
  -13.4286    7.4728   -3.2120 H   0  0  0  0  0  0  0  0  0  0  0  0
  -10.9870    9.1256   -0.4530 H   0  0  0  0  0  0  0  0  0  0  0  0
  -13.1925    7.7498    1.2018 H   0  0  0  0  0  0  0  0  0  0  0  0
  -11.7636    8.6767    1.8420 H   0  0  0  0  0  0  0  0  0  0  0  0
  -13.8519   10.0009    1.9263 H   0  0  0  0  0  0  0  0  0  0  0  0
  -12.6023   10.7222    0.8380 H   0  0  0  0  0  0  0  0  0  0  0  0
  -14.7423   10.8729   -0.2377 H   0  0  0  0  0  0  0  0  0  0  0  0
  -14.8790    8.0050   -0.0890 H   0  0  0  0  0  0  0  0  0  0  0  0
  -12.4135   11.3481   -1.0663 H   0  0  0  0  0  0  0  0  0  0  0  0
  -11.9111   10.4958   -2.5656 H   0  0  0  0  0  0  0  0  0  0  0  0
  -13.3882   11.5179   -2.5656 H   0  0  0  0  0  0  0  0  0  0  0  0
  -15.7167    9.3646   -2.1114 H   0  0  0  0  0  0  0  0  0  0  0  0
  -14.7608   10.3773   -3.2461 H   0  0  0  0  0  0  0  0  0  0  0  0
  -14.5577    8.5925   -3.2461 H   0  0  0  0  0  0  0  0  0  0  0  0
  -11.4386    6.0490    1.6491 H   0  0  0  0  0  0  0  0  0  0  0  0
  -12.6064    5.9066    0.2916 H   0  0  0  0  0  0  0  0  0  0  0  0
  -11.1047    4.9209    0.2916 H   0  0  0  0  0  0  0  0  0  0  0  0
   -9.8145    8.0978    1.4277 H   0  0  0  0  0  0  0  0  0  0  0  0
   -9.1633    6.4056    1.0465 H   0  0  0  0  0  0  0  0  0  0  0  0
   -8.5538    8.9927   -0.4106 H   0  0  0  0  0  0  0  0  0  0  0  0
   -7.4396    7.9589    0.5676 H   0  0  0  0  0  0  0  0  0  0  0  0
   -7.5603    5.6689    0.2366 H   0  0  0  0  0  0  0  0  0  0  0  0
   -8.2909    4.9618   -1.2443 H   0  0  0  0  0  0  0  0  0  0  0  0
   -6.5652    5.4604   -1.2443 H   0  0  0  0  0  0  0  0  0  0  0  0
  1  2  1  0
  2  3  1  0
  3  4  1  0
  4  5  1  0
  5  6  1  0
  6  7  1  0
  7  8  1  0
  7  9  1  0
  2 10  1  0
 10 11  1  0
 11 12  1  0
 12 13  1  0
 13 14  1  6
 13 15  1  0
 15 16  1  0
 16 17  1  0
 17 18  2  0
 18 19  1  0
 19 20  1  0
 20 21  1  0
 21 22  1  0
 22 23  1  0
 22 24  1  0
 24 25  1  0
 24 26  1  0
 19 27  1  0
 27 28  1  1
 27 29  1  0
 29 30  1  0
 30 31  1  0
 31 32  1  1
  7  5  1  0
 31 10  1  0
 31 13  1  0
 27 15  1  0
 24 18  1  0
  1 33  1  0
  1 34  1  0
  1 35  1  0
  2 36  1  6
  3 37  1  0
  3 38  1  0
  4 39  1  0
  4 40  1  0
  5 41  1  1
  8 42  1  0
  8 43  1  0
  8 44  1  0
  9 45  1  0
  9 46  1  0
  9 47  1  0
 10 48  1  6
 11 49  1  0
 11 50  1  0
 12 51  1  0
 12 52  1  0
 14 53  1  0
 14 54  1  0
 14 55  1  0
 15 56  1  1
 16 57  1  0
 16 58  1  0
 17 59  1  0
 19 60  1  6
 20 61  1  0
 20 62  1  0
 21 63  1  0
 21 64  1  0
 22 65  1  6
 23 66  1  0
 25 67  1  0
 25 68  1  0
 25 69  1  0
 26 70  1  0
 26 71  1  0
 26 72  1  0
 28 73  1  0
 28 74  1  0
 28 75  1  0
 29 76  1  0
 29 77  1  0
 30 78  1  0
 30 79  1  0
 32 80  1  0
 32 81  1  0
 32 82  1  0
M  END
>  <meeko>  (6) 
{"is_sidechain": [false], "intermolecular_energy": 2.731, "internal_energy": -0.839}

$$$$
EPH_relaxed_0001_pdb2pqr_Repair_69_r2_0001_out
     RDKit          3D

 82 86  0  0  0  0  0  0  0  0999 V2000
   -0.2460   10.3550   -3.4760 C   0  0  0  0  0  0  0  0  0  0  0  0
    0.8870   10.1840   -2.4610 C   0  0  2  0  0  0  0  0  0  0  0  0
    0.6940    8.9330   -1.5800 C   0  0  0  0  0  0  0  0  0  0  0  0
   -0.0650    9.2080   -0.2790 C   0  0  0  0  0  0  0  0  0  0  0  0
   -1.4700    8.6880   -0.3360 C   0  0  2  0  0  0  0  0  0  0  0  0
   -2.0840    8.7650   -1.6290 O   0  0  0  0  0  0  0  0  0  0  0  0
   -2.6780    9.5680   -0.5960 C   0  0  0  0  0  0  0  0  0  0  0  0
   -2.5370   11.0420   -0.8150 C   0  0  0  0  0  0  0  0  0  0  0  0
   -4.0240    9.0840   -0.1550 C   0  0  0  0  0  0  0  0  0  0  0  0
    0.9920   11.4270   -1.5850 C   0  0  1  0  0  0  0  0  0  0  0  0
    2.0740   11.2890   -0.4800 C   0  0  0  0  0  0  0  0  0  0  0  0
    2.7010   12.6940   -0.2910 C   0  0  0  0  0  0  0  0  0  0  0  0
    1.7470   13.6520   -1.0420 C   0  0  1  0  0  0  0  0  0  0  0  0
    0.5700   13.9060   -0.0490 C   0  0  0  0  0  0  0  0  0  0  0  0
    2.3720   14.9920   -1.5510 C   0  0  2  0  0  0  0  0  0  0  0  0
    2.9050   15.9230   -0.4480 C   0  0  0  0  0  0  0  0  0  0  0  0
    1.9200   16.9110    0.0830 C   0  0  0  0  0  0  0  0  0  0  0  0
    0.7510   17.2400   -0.4970 C   0  0  0  0  0  0  0  0  0  0  0  0
    0.3620   16.6660   -1.8660 C   0  0  1  0  0  0  0  0  0  0  0  0
   -0.1680   17.8070   -2.7740 C   0  0  0  0  0  0  0  0  0  0  0  0
   -1.3050   18.5900   -2.1250 C   0  0  0  0  0  0  0  0  0  0  0  0
   -0.8630   19.1930   -0.7940 C   0  0  2  0  0  0  0  0  0  0  0  0
    0.1300   20.1920   -1.0490 O   0  0  0  0  0  0  0  0  0  0  0  0
   -0.3000   18.1390    0.1990 C   0  0  0  0  0  0  0  0  0  0  0  0
   -1.4510   17.2370    0.7080 C   0  0  0  0  0  0  0  0  0  0  0  0
    0.2400   18.8960    1.4430 C   0  0  0  0  0  0  0  0  0  0  0  0
    1.4670   15.7780   -2.5840 C   0  0  1  0  0  0  0  0  0  0  0  0
    2.4250   16.6880   -3.4130 C   0  0  0  0  0  0  0  0  0  0  0  0
    0.7650   14.8180   -3.6160 C   0  0  0  0  0  0  0  0  0  0  0  0
    0.2760   13.4590   -3.0790 C   0  0  0  0  0  0  0  0  0  0  0  0
    1.3780   12.7560   -2.2810 C   0  0  2  0  0  0  0  0  0  0  0  0
    2.5670   12.4680   -3.2590 C   0  0  0  0  0  0  0  0  0  0  0  0
   -1.1974   10.4986   -2.9428 H   0  0  0  0  0  0  0  0  0  0  0  0
   -0.0434   11.2327   -4.1073 H   0  0  0  0  0  0  0  0  0  0  0  0
   -0.3114    9.4566   -4.1073 H   0  0  0  0  0  0  0  0  0  0  0  0
    1.8204   10.0480   -3.0269 H   0  0  0  0  0  0  0  0  0  0  0  0
    0.1325    8.1843   -2.1581 H   0  0  0  0  0  0  0  0  0  0  0  0
    1.6971    8.5799   -1.2987 H   0  0  0  0  0  0  0  0  0  0  0  0
    0.4631    8.7178    0.5522 H   0  0  0  0  0  0  0  0  0  0  0  0
   -0.1083   10.2971   -0.1310 H   0  0  0  0  0  0  0  0  0  0  0  0
   -1.2526    7.9465    0.4469 H   0  0  0  0  0  0  0  0  0  0  0  0
   -2.4880   11.5541    0.1573 H   0  0  0  0  0  0  0  0  0  0  0  0
   -1.6156   11.2420   -1.3816 H   0  0  0  0  0  0  0  0  0  0  0  0
   -3.4037   11.4131   -1.3816 H   0  0  0  0  0  0  0  0  0  0  0  0
   -4.0662    9.0688    0.9441 H   0  0  0  0  0  0  0  0  0  0  0  0
   -4.8014    9.7589   -0.5425 H   0  0  0  0  0  0  0  0  0  0  0  0
   -4.1936    8.0686   -0.5425 H   0  0  0  0  0  0  0  0  0  0  0  0
   -0.0430   11.4818   -1.2165 H   0  0  0  0  0  0  0  0  0  0  0  0
    1.6145   10.9496    0.4600 H   0  0  0  0  0  0  0  0  0  0  0  0
    2.8378   10.5504   -0.7648 H   0  0  0  0  0  0  0  0  0  0  0  0
    2.7529   12.9556    0.7762 H   0  0  0  0  0  0  0  0  0  0  0  0
    3.7307   12.7460   -0.6743 H   0  0  0  0  0  0  0  0  0  0  0  0
    0.9385   13.8265    0.9844 H   0  0  0  0  0  0  0  0  0  0  0  0
    0.1604   14.9132   -0.2158 H   0  0  0  0  0  0  0  0  0  0  0  0
   -0.2185   13.1573   -0.2158 H   0  0  0  0  0  0  0  0  0  0  0  0
    3.2579   14.6450   -2.1030 H   0  0  0  0  0  0  0  0  0  0  0  0
    3.2445   15.2971    0.3905 H   0  0  0  0  0  0  0  0  0  0  0  0
    3.7095   16.5136   -0.9105 H   0  0  0  0  0  0  0  0  0  0  0  0
    2.1711   17.4130    1.0290 H   0  0  0  0  0  0  0  0  0  0  0  0
   -0.4404   15.9384   -1.6744 H   0  0  0  0  0  0  0  0  0  0  0  0
    0.6591   18.4994   -2.9894 H   0  0  0  0  0  0  0  0  0  0  0  0
   -0.5607   17.3475   -3.6931 H   0  0  0  0  0  0  0  0  0  0  0  0
   -1.6161   19.3998   -2.8013 H   0  0  0  0  0  0  0  0  0  0  0  0
   -2.1425   17.9019   -1.9375 H   0  0  0  0  0  0  0  0  0  0  0  0
   -1.7531   19.6290   -0.3169 H   0  0  0  0  0  0  0  0  0  0  0  0
    0.7680   19.8190   -1.6800 H   0  0  0  0  0  0  0  0  0  0  0  0
   -1.4552   17.2337    1.8080 H   0  0  0  0  0  0  0  0  0  0  0  0
   -2.4117   17.6252    0.3388 H   0  0  0  0  0  0  0  0  0  0  0  0
   -1.3037   16.2113    0.3388 H   0  0  0  0  0  0  0  0  0  0  0  0
   -0.1149   18.3985    2.3576 H   0  0  0  0  0  0  0  0  0  0  0  0
    1.3399   18.8913    1.4262 H   0  0  0  0  0  0  0  0  0  0  0  0
   -0.1225   19.9344    1.4262 H   0  0  0  0  0  0  0  0  0  0  0  0
    3.0498   17.2815   -2.7294 H   0  0  0  0  0  0  0  0  0  0  0  0
    3.0689   16.0609   -4.0471 H   0  0  0  0  0  0  0  0  0  0  0  0
    1.8318   17.3633   -4.0471 H   0  0  0  0  0  0  0  0  0  0  0  0
   -0.1082   15.3486   -4.0234 H   0  0  0  0  0  0  0  0  0  0  0  0
    1.5416   14.5728   -4.3555 H   0  0  0  0  0  0  0  0  0  0  0  0
   -0.5934   13.6222   -2.4251 H   0  0  0  0  0  0  0  0  0  0  0  0
    0.0014   12.8227   -3.9332 H   0  0  0  0  0  0  0  0  0  0  0  0
    3.4747   12.2481   -2.6779 H   0  0  0  0  0  0  0  0  0  0  0  0
    2.3192   11.6039   -3.8930 H   0  0  0  0  0  0  0  0  0  0  0  0
    2.7421   13.3497   -3.8930 H   0  0  0  0  0  0  0  0  0  0  0  0
  1  2  1  0
  2  3  1  0
  3  4  1  0
  4  5  1  0
  5  6  1  0
  6  7  1  0
  7  8  1  0
  7  9  1  0
  2 10  1  0
 10 11  1  0
 11 12  1  0
 12 13  1  0
 13 14  1  1
 13 15  1  0
 15 16  1  0
 16 17  1  0
 17 18  2  0
 18 19  1  0
 19 20  1  0
 20 21  1  0
 21 22  1  0
 22 23  1  0
 22 24  1  0
 24 25  1  0
 24 26  1  0
 19 27  1  0
 27 28  1  6
 27 29  1  0
 29 30  1  0
 30 31  1  0
 31 32  1  6
  7  5  1  0
 31 10  1  0
 31 13  1  0
 27 15  1  0
 24 18  1  0
  1 33  1  0
  1 34  1  0
  1 35  1  0
  2 36  1  6
  3 37  1  0
  3 38  1  0
  4 39  1  0
  4 40  1  0
  5 41  1  1
  8 42  1  0
  8 43  1  0
  8 44  1  0
  9 45  1  0
  9 46  1  0
  9 47  1  0
 10 48  1  1
 11 49  1  0
 11 50  1  0
 12 51  1  0
 12 52  1  0
 14 53  1  0
 14 54  1  0
 14 55  1  0
 15 56  1  6
 16 57  1  0
 16 58  1  0
 17 59  1  0
 19 60  1  1
 20 61  1  0
 20 62  1  0
 21 63  1  0
 21 64  1  0
 22 65  1  1
 23 66  1  0
 25 67  1  0
 25 68  1  0
 25 69  1  0
 26 70  1  0
 26 71  1  0
 26 72  1  0
 28 73  1  0
 28 74  1  0
 28 75  1  0
 29 76  1  0
 29 77  1  0
 30 78  1  0
 30 79  1  0
 32 80  1  0
 32 81  1  0
 32 82  1  0
M  END
>  <meeko>  (7) 
{"is_sidechain": [false], "intermolecular_energy": 2.731, "internal_energy": -0.839}

$$$$
EPH_relaxed_0001_pdb2pqr_Repair_69_r2_0001_out
     RDKit          3D

 82 86  0  0  0  0  0  0  0  0999 V2000
    0.4420    8.8180   -2.3890 C   0  0  0  0  0  0  0  0  0  0  0  0
    1.1840    9.9640   -3.0810 C   0  0  2  0  0  0  0  0  0  0  0  0
    2.6840    9.9830   -2.7250 C   0  0  0  0  0  0  0  0  0  0  0  0
    3.5680   10.5950   -3.8150 C   0  0  0  0  0  0  0  0  0  0  0  0
    4.9650   10.8330   -3.3280 C   0  0  2  0  0  0  0  0  0  0  0  0
    5.5640   12.0490   -3.7950 O   0  0  0  0  0  0  0  0  0  0  0  0
    6.1810   10.8280   -4.2360 C   0  0  0  0  0  0  0  0  0  0  0  0
    6.0550   10.5790   -5.7060 C   0  0  0  0  0  0  0  0  0  0  0  0
    7.5260   10.5800   -3.6290 C   0  0  0  0  0  0  0  0  0  0  0  0
    0.5440   11.2960   -2.7110 C   0  0  1  0  0  0  0  0  0  0  0  0
   -0.8280   11.1250   -2.0070 C   0  0  0  0  0  0  0  0  0  0  0  0
   -0.9400   12.2650   -0.9620 C   0  0  0  0  0  0  0  0  0  0  0  0
    0.2050   13.2400   -1.3240 C   0  0  1  0  0  0  0  0  0  0  0  0
   -0.3550   14.0950   -2.5040 C   0  0  0  0  0  0  0  0  0  0  0  0
    0.7400   14.1390   -0.1630 C   0  0  2  0  0  0  0  0  0  0  0  0
   -0.2900   15.1140    0.4350 C   0  0  0  0  0  0  0  0  0  0  0  0
   -0.3410   16.4600   -0.2070 C   0  0  0  0  0  0  0  0  0  0  0  0
    0.5940   16.9710   -1.0290 C   0  0  0  0  0  0  0  0  0  0  0  0
    1.8960   16.2090   -1.3110 C   0  0  1  0  0  0  0  0  0  0  0  0
    3.1000   17.1800   -1.1890 C   0  0  0  0  0  0  0  0  0  0  0  0
    2.9460   18.4170   -2.0690 C   0  0  0  0  0  0  0  0  0  0  0  0
    1.6700   19.1790   -1.7190 C   0  0  2  0  0  0  0  0  0  0  0  0
    1.8030   19.7190   -0.4010 O   0  0  0  0  0  0  0  0  0  0  0  0
    0.3900   18.3000   -1.7970 C   0  0  0  0  0  0  0  0  0  0  0  0
    0.0800   17.9630   -3.2770 C   0  0  0  0  0  0  0  0  0  0  0  0
   -0.8040   19.1490   -1.2860 C   0  0  0  0  0  0  0  0  0  0  0  0
    2.1070   14.8680   -0.4850 C   0  0  1  0  0  0  0  0  0  0  0  0
    2.7750   15.1880    0.8870 C   0  0  0  0  0  0  0  0  0  0  0  0
    3.1120   13.9390   -1.2620 C   0  0  0  0  0  0  0  0  0  0  0  0
    2.5080   12.9870   -2.3130 C   0  0  0  0  0  0  0  0  0  0  0  0
    1.3220   12.2120   -1.7330 C   0  0  2  0  0  0  0  0  0  0  0  0
    1.8580   11.3250   -0.5580 C   0  0  0  0  0  0  0  0  0  0  0  0
    0.5191    8.9371   -1.2982 H   0  0  0  0  0  0  0  0  0  0  0  0
   -0.6171    8.8348   -2.6857 H   0  0  0  0  0  0  0  0  0  0  0  0
    0.8907    7.8585   -2.6857 H   0  0  0  0  0  0  0  0  0  0  0  0
    1.1043    9.8023   -4.1661 H   0  0  0  0  0  0  0  0  0  0  0  0
    2.8146   10.5683   -1.8028 H   0  0  0  0  0  0  0  0  0  0  0  0
    2.9992    8.9359   -2.6060 H   0  0  0  0  0  0  0  0  0  0  0  0
    3.6021    9.9081   -4.6735 H   0  0  0  0  0  0  0  0  0  0  0  0
    3.1355   11.5647   -4.1024 H   0  0  0  0  0  0  0  0  0  0  0  0
    4.7480   10.3139   -2.3828 H   0  0  0  0  0  0  0  0  0  0  0  0
    5.5641    9.6089   -5.8728 H   0  0  0  0  0  0  0  0  0  0  0  0
    5.4528   11.3781   -6.1629 H   0  0  0  0  0  0  0  0  0  0  0  0
    7.0555   10.5670   -6.1629 H   0  0  0  0  0  0  0  0  0  0  0  0
    7.4418   10.5955   -2.5323 H   0  0  0  0  0  0  0  0  0  0  0  0
    7.8996    9.5978   -3.9542 H   0  0  0  0  0  0  0  0  0  0  0  0
    8.2253   11.3643   -3.9542 H   0  0  0  0  0  0  0  0  0  0  0  0
    0.4991   11.7612   -3.7068 H   0  0  0  0  0  0  0  0  0  0  0  0
   -1.6430   11.2032   -2.7416 H   0  0  0  0  0  0  0  0  0  0  0  0
   -0.9045   10.1390   -1.5254 H   0  0  0  0  0  0  0  0  0  0  0  0
   -1.9159   12.7668   -1.0379 H   0  0  0  0  0  0  0  0  0  0  0  0
   -0.8610   11.8937    0.0704 H   0  0  0  0  0  0  0  0  0  0  0  0
   -0.9160   14.9516   -2.1022 H   0  0  0  0  0  0  0  0  0  0  0  0
    0.4796   14.4600   -3.1207 H   0  0  0  0  0  0  0  0  0  0  0  0
   -1.0231   13.4758   -3.1207 H   0  0  0  0  0  0  0  0  0  0  0  0
    0.9492   13.4035    0.6277 H   0  0  0  0  0  0  0  0  0  0  0  0
   -1.2856   14.6554    0.3427 H   0  0  0  0  0  0  0  0  0  0  0  0
    0.0215   15.2850    1.4760 H   0  0  0  0  0  0  0  0  0  0  0  0
   -1.2176   17.0881    0.0101 H   0  0  0  0  0  0  0  0  0  0  0  0
    1.8162   15.8411   -2.3446 H   0  0  0  0  0  0  0  0  0  0  0  0
    3.1886   17.5018   -0.1409 H   0  0  0  0  0  0  0  0  0  0  0  0
    3.9985   16.6414   -1.5246 H   0  0  0  0  0  0  0  0  0  0  0  0
    3.8128   19.0771   -1.9174 H   0  0  0  0  0  0  0  0  0  0  0  0
    2.8868   18.0960   -3.1194 H   0  0  0  0  0  0  0  0  0  0  0  0
    1.5475   19.9777   -2.4654 H   0  0  0  0  0  0  0  0  0  0  0  0
    2.7510   19.7420   -0.1870 H   0  0  0  0  0  0  0  0  0  0  0  0
   -0.6641   17.1541   -3.3208 H   0  0  0  0  0  0  0  0  0  0  0  0
   -0.3190   18.8559   -3.7806 H   0  0  0  0  0  0  0  0  0  0  0  0
    1.0030   17.6398   -3.7806 H   0  0  0  0  0  0  0  0  0  0  0  0
   -0.8078   19.1517   -0.1860 H   0  0  0  0  0  0  0  0  0  0  0  0
   -0.7049   20.1806   -1.6549 H   0  0  0  0  0  0  0  0  0  0  0  0
   -1.7458   18.7166   -1.6549 H   0  0  0  0  0  0  0  0  0  0  0  0
    2.1091   14.8690    1.7023 H   0  0  0  0  0  0  0  0  0  0  0  0
    3.7316   14.6504    0.9633 H   0  0  0  0  0  0  0  0  0  0  0  0
    2.9556   16.2704    0.9633 H   0  0  0  0  0  0  0  0  0  0  0  0
    3.8347   14.5884   -1.7776 H   0  0  0  0  0  0  0  0  0  0  0  0
    3.5479   13.2818   -0.4952 H   0  0  0  0  0  0  0  0  0  0  0  0
    2.1654   13.5755   -3.1769 H   0  0  0  0  0  0  0  0  0  0  0  0
    3.2812   12.2672   -2.6197 H   0  0  0  0  0  0  0  0  0  0  0  0
    1.5812   11.7831    0.4030 H   0  0  0  0  0  0  0  0  0  0  0  0
    1.4159   10.3201   -0.6260 H   0  0  0  0  0  0  0  0  0  0  0  0
    2.9533   11.2491   -0.6260 H   0  0  0  0  0  0  0  0  0  0  0  0
  1  2  1  0
  2  3  1  0
  3  4  1  0
  4  5  1  0
  5  6  1  0
  6  7  1  0
  7  8  1  0
  7  9  1  0
  2 10  1  0
 10 11  1  0
 11 12  1  0
 12 13  1  0
 13 14  1  6
 13 15  1  0
 15 16  1  0
 16 17  1  0
 17 18  2  0
 18 19  1  0
 19 20  1  0
 20 21  1  0
 21 22  1  0
 22 23  1  0
 22 24  1  0
 24 25  1  0
 24 26  1  0
 19 27  1  0
 27 28  1  1
 27 29  1  0
 29 30  1  0
 30 31  1  0
 31 32  1  1
  7  5  1  0
 31 10  1  0
 31 13  1  0
 27 15  1  0
 24 18  1  0
  1 33  1  0
  1 34  1  0
  1 35  1  0
  2 36  1  6
  3 37  1  0
  3 38  1  0
  4 39  1  0
  4 40  1  0
  5 41  1  1
  8 42  1  0
  8 43  1  0
  8 44  1  0
  9 45  1  0
  9 46  1  0
  9 47  1  0
 10 48  1  6
 11 49  1  0
 11 50  1  0
 12 51  1  0
 12 52  1  0
 14 53  1  0
 14 54  1  0
 14 55  1  0
 15 56  1  1
 16 57  1  0
 16 58  1  0
 17 59  1  0
 19 60  1  6
 20 61  1  0
 20 62  1  0
 21 63  1  0
 21 64  1  0
 22 65  1  6
 23 66  1  0
 25 67  1  0
 25 68  1  0
 25 69  1  0
 26 70  1  0
 26 71  1  0
 26 72  1  0
 28 73  1  0
 28 74  1  0
 28 75  1  0
 29 76  1  0
 29 77  1  0
 30 78  1  0
 30 79  1  0
 32 80  1  0
 32 81  1  0
 32 82  1  0
M  END
>  <meeko>  (8) 
{"is_sidechain": [false], "intermolecular_energy": 2.731, "internal_energy": -0.839}

$$$$
EPH_relaxed_0001_pdb2pqr_Repair_69_r2_0001_out
     RDKit          3D

 82 86  0  0  0  0  0  0  0  0999 V2000
   -3.7600    7.2270   -3.4430 C   0  0  0  0  0  0  0  0  0  0  0  0
   -3.7770    7.2960   -1.9140 C   0  0  2  0  0  0  0  0  0  0  0  0
   -5.1900    7.0750   -1.3380 C   0  0  0  0  0  0  0  0  0  0  0  0
   -6.3100    7.2730   -2.3620 C   0  0  0  0  0  0  0  0  0  0  0  0
   -7.6370    7.4840   -1.6990 C   0  0  2  0  0  0  0  0  0  0  0  0
   -8.2220    6.3010   -1.1400 O   0  0  0  0  0  0  0  0  0  0  0  0
   -8.9380    6.9090   -2.2280 C   0  0  0  0  0  0  0  0  0  0  0  0
   -8.9750    6.0780   -3.4720 C   0  0  0  0  0  0  0  0  0  0  0  0
  -10.2250    7.5540   -1.8170 C   0  0  0  0  0  0  0  0  0  0  0  0
   -3.2280    8.6390   -1.4480 C   0  0  1  0  0  0  0  0  0  0  0  0
   -3.8460    9.1030   -0.1020 C   0  0  0  0  0  0  0  0  0  0  0  0
   -2.7280    9.8520    0.6690 C   0  0  0  0  0  0  0  0  0  0  0  0
   -1.6180   10.0840   -0.3830 C   0  0  1  0  0  0  0  0  0  0  0  0
   -2.0810   11.3410   -1.1840 C   0  0  0  0  0  0  0  0  0  0  0  0
   -0.1660   10.2560    0.1720 C   0  0  2  0  0  0  0  0  0  0  0  0
    0.0430   11.4760    1.0860 C   0  0  0  0  0  0  0  0  0  0  0  0
    0.4610   12.7290    0.3910 C   0  0  0  0  0  0  0  0  0  0  0  0
    0.9360   12.8060   -0.8670 C   0  0  0  0  0  0  0  0  0  0  0  0
    1.1840   11.5370   -1.6930 C   0  0  1  0  0  0  0  0  0  0  0  0
    2.5760   11.6260   -2.3730 C   0  0  0  0  0  0  0  0  0  0  0  0
    2.7440   12.9010   -3.1950 C   0  0  0  0  0  0  0  0  0  0  0  0
    2.5470   14.1400   -2.3260 C   0  0  2  0  0  0  0  0  0  0  0  0
    3.6140   14.2110   -1.3750 O   0  0  0  0  0  0  0  0  0  0  0  0
    1.1820   14.1560   -1.5830 C   0  0  0  0  0  0  0  0  0  0  0  0
    0.0370   14.3830   -2.6010 C   0  0  0  0  0  0  0  0  0  0  0  0
    1.1700   15.3860   -0.6340 C   0  0  0  0  0  0  0  0  0  0  0  0
    0.9650   10.1600   -0.9310 C   0  0  1  0  0  0  0  0  0  0  0  0
    2.2740    9.7460   -0.1920 C   0  0  0  0  0  0  0  0  0  0  0  0
    0.6750    9.0280   -1.9870 C   0  0  0  0  0  0  0  0  0  0  0  0
   -0.7940    8.8280   -2.4060 C   0  0  0  0  0  0  0  0  0  0  0  0
   -1.7050    8.7310   -1.1780 C   0  0  2  0  0  0  0  0  0  0  0  0
   -1.2770    7.4630   -0.3640 C   0  0  0  0  0  0  0  0  0  0  0  0
   -3.5081    6.2046   -3.7611 H   0  0  0  0  0  0  0  0  0  0  0  0
   -4.7519    7.4986   -3.8333 H   0  0  0  0  0  0  0  0  0  0  0  0
   -3.0078    7.9283   -3.8333 H   0  0  0  0  0  0  0  0  0  0  0  0
   -3.1376    6.4832   -1.5392 H   0  0  0  0  0  0  0  0  0  0  0  0
   -5.2506    6.0469   -0.9516 H   0  0  0  0  0  0  0  0  0  0  0  0
   -5.3376    7.8288   -0.5506 H   0  0  0  0  0  0  0  0  0  0  0  0
   -6.0765    8.1526   -2.9799 H   0  0  0  0  0  0  0  0  0  0  0  0
   -6.3755    6.3641   -2.9782 H   0  0  0  0  0  0  0  0  0  0  0  0
   -7.3497    8.5016   -1.3956 H   0  0  0  0  0  0  0  0  0  0  0  0
   -9.0224    5.0131   -3.2003 H   0  0  0  0  0  0  0  0  0  0  0  0
   -9.8621    6.3450   -4.0650 H   0  0  0  0  0  0  0  0  0  0  0  0
   -8.0676    6.2651   -4.0650 H   0  0  0  0  0  0  0  0  0  0  0  0
  -10.2857    7.5844   -0.7191 H   0  0  0  0  0  0  0  0  0  0  0  0
  -10.2651    8.5787   -2.2150 H   0  0  0  0  0  0  0  0  0  0  0  0
  -11.0699    6.9728   -2.2150 H   0  0  0  0  0  0  0  0  0  0  0  0
   -3.4935    9.2575   -2.3181 H   0  0  0  0  0  0  0  0  0  0  0  0
   -4.6952    9.7771   -0.2875 H   0  0  0  0  0  0  0  0  0  0  0  0
   -4.2193    8.2458    0.4775 H   0  0  0  0  0  0  0  0  0  0  0  0
   -3.1003   10.8109    1.0588 H   0  0  0  0  0  0  0  0  0  0  0  0
   -2.3670    9.2828    1.5383 H   0  0  0  0  0  0  0  0  0  0  0  0
   -2.3737   12.1357   -0.4821 H   0  0  0  0  0  0  0  0  0  0  0  0
   -1.2550   11.6970   -1.8172 H   0  0  0  0  0  0  0  0  0  0  0  0
   -2.9406   11.0762   -1.8172 H   0  0  0  0  0  0  0  0  0  0  0  0
   -0.0555    9.3744    0.8205 H   0  0  0  0  0  0  0  0  0  0  0  0
   -0.9046   11.6764    1.6074 H   0  0  0  0  0  0  0  0  0  0  0  0
    0.8702   11.2121    1.7614 H   0  0  0  0  0  0  0  0  0  0  0  0
    0.3737   13.6698    0.9542 H   0  0  0  0  0  0  0  0  0  0  0  0
    0.3946   11.5135   -2.4587 H   0  0  0  0  0  0  0  0  0  0  0  0
    3.3516   11.6041   -1.5933 H   0  0  0  0  0  0  0  0  0  0  0  0
    2.6683   10.7712   -3.0591 H   0  0  0  0  0  0  0  0  0  0  0  0
    3.7558   12.9208   -3.6260 H   0  0  0  0  0  0  0  0  0  0  0  0
    1.9862   12.9072   -3.9923 H   0  0  0  0  0  0  0  0  0  0  0  0
    2.5512   15.0148   -2.9928 H   0  0  0  0  0  0  0  0  0  0  0  0
    4.0740   13.3550   -1.3850 H   0  0  0  0  0  0  0  0  0  0  0  0
   -0.9027   14.5693   -2.0604 H   0  0  0  0  0  0  0  0  0  0  0  0
    0.2749   15.2515   -3.2328 H   0  0  0  0  0  0  0  0  0  0  0  0
   -0.0744   13.4895   -3.2328 H   0  0  0  0  0  0  0  0  0  0  0  0
    1.1733   15.0428    0.4111 H   0  0  0  0  0  0  0  0  0  0  0  0
    2.0622   16.0018   -0.8206 H   0  0  0  0  0  0  0  0  0  0  0  0
    0.2660   15.9843   -0.8206 H   0  0  0  0  0  0  0  0  0  0  0  0
    2.1132    9.7969    0.8950 H   0  0  0  0  0  0  0  0  0  0  0  0
    2.5453    8.7182   -0.4748 H   0  0  0  0  0  0  0  0  0  0  0  0
    3.0870   10.4309   -0.4748 H   0  0  0  0  0  0  0  0  0  0  0  0
    1.2505    9.2640   -2.8942 H   0  0  0  0  0  0  0  0  0  0  0  0
    0.9624    8.0900   -1.4894 H   0  0  0  0  0  0  0  0  0  0  0  0
   -1.1116    9.6811   -3.0235 H   0  0  0  0  0  0  0  0  0  0  0  0
   -0.8721    7.8905   -2.9762 H   0  0  0  0  0  0  0  0  0  0  0  0
   -1.3492    7.6768    0.7126 H   0  0  0  0  0  0  0  0  0  0  0  0
   -1.9416    6.6236   -0.6165 H   0  0  0  0  0  0  0  0  0  0  0  0
   -0.2397    7.1981   -0.6165 H   0  0  0  0  0  0  0  0  0  0  0  0
  1  2  1  0
  2  3  1  0
  3  4  1  0
  4  5  1  0
  5  6  1  0
  6  7  1  0
  7  8  1  0
  7  9  1  0
  2 10  1  0
 10 11  1  0
 11 12  1  0
 12 13  1  0
 13 14  1  6
 13 15  1  0
 15 16  1  0
 16 17  1  0
 17 18  2  0
 18 19  1  0
 19 20  1  0
 20 21  1  0
 21 22  1  0
 22 23  1  0
 22 24  1  0
 24 25  1  0
 24 26  1  0
 19 27  1  0
 27 28  1  1
 27 29  1  0
 29 30  1  0
 30 31  1  0
 31 32  1  1
  7  5  1  0
 31 10  1  0
 31 13  1  0
 27 15  1  0
 24 18  1  0
  1 33  1  0
  1 34  1  0
  1 35  1  0
  2 36  1  1
  3 37  1  0
  3 38  1  0
  4 39  1  0
  4 40  1  0
  5 41  1  1
  8 42  1  0
  8 43  1  0
  8 44  1  0
  9 45  1  0
  9 46  1  0
  9 47  1  0
 10 48  1  6
 11 49  1  0
 11 50  1  0
 12 51  1  0
 12 52  1  0
 14 53  1  0
 14 54  1  0
 14 55  1  0
 15 56  1  1
 16 57  1  0
 16 58  1  0
 17 59  1  0
 19 60  1  6
 20 61  1  0
 20 62  1  0
 21 63  1  0
 21 64  1  0
 22 65  1  6
 23 66  1  0
 25 67  1  0
 25 68  1  0
 25 69  1  0
 26 70  1  0
 26 71  1  0
 26 72  1  0
 28 73  1  0
 28 74  1  0
 28 75  1  0
 29 76  1  0
 29 77  1  0
 30 78  1  0
 30 79  1  0
 32 80  1  0
 32 81  1  0
 32 82  1  0
M  END
>  <meeko>  (9) 
{"is_sidechain": [false], "intermolecular_energy": 2.731, "internal_energy": -0.839}

$$$$
EPH_relaxed_0001_pdb2pqr_Repair_69_r2_0001_out
     RDKit          3D

 82 86  0  0  0  0  0  0  0  0999 V2000
    2.7910   19.1960   -1.1400 C   0  0  0  0  0  0  0  0  0  0  0  0
    2.4610   18.1380   -2.1960 C   0  0  2  0  0  0  0  0  0  0  0  0
    1.0100   18.2570   -2.7050 C   0  0  0  0  0  0  0  0  0  0  0  0
    0.2680   19.4820   -2.1650 C   0  0  0  0  0  0  0  0  0  0  0  0
   -0.9890   19.0960   -1.4450 C   0  0  2  0  0  0  0  0  0  0  0  0
   -1.6730   20.1840   -0.8100 O   0  0  0  0  0  0  0  0  0  0  0  0
   -1.1460   19.1700    0.0620 C   0  0  0  0  0  0  0  0  0  0  0  0
   -0.0310   19.6430    0.9410 C   0  0  0  0  0  0  0  0  0  0  0  0
   -2.1990   18.3290    0.7140 C   0  0  0  0  0  0  0  0  0  0  0  0
    2.7010   16.7440   -1.6270 C   0  0  1  0  0  0  0  0  0  0  0  0
    3.3670   16.7770   -0.2260 C   0  0  0  0  0  0  0  0  0  0  0  0
    2.7840   15.5840    0.5740 C   0  0  0  0  0  0  0  0  0  0  0  0
    2.0650   14.7180   -0.4850 C   0  0  1  0  0  0  0  0  0  0  0  0
    3.1980   13.8780   -1.1540 C   0  0  0  0  0  0  0  0  0  0  0  0
    0.9050   13.8090    0.0370 C   0  0  2  0  0  0  0  0  0  0  0  0
    1.3260   12.7310    1.0520 C   0  0  0  0  0  0  0  0  0  0  0  0
    1.7140   11.4160    0.4610 C   0  0  0  0  0  0  0  0  0  0  0  0
    1.4550   11.0180   -0.7980 C   0  0  0  0  0  0  0  0  0  0  0  0
    0.6180   11.8890   -1.7440 C   0  0  1  0  0  0  0  0  0  0  0  0
   -0.4420   11.0090   -2.4560 C   0  0  0  0  0  0  0  0  0  0  0  0
    0.1740    9.8060   -3.1630 C   0  0  0  0  0  0  0  0  0  0  0  0
    0.9490    8.9330   -2.1790 C   0  0  2  0  0  0  0  0  0  0  0  0
    0.0250    8.3430   -1.2600 O   0  0  0  0  0  0  0  0  0  0  0  0
    2.0410    9.7140   -1.3950 C   0  0  0  0  0  0  0  0  0  0  0  0
    3.1970   10.0950   -2.3520 C   0  0  0  0  0  0  0  0  0  0  0  0
    2.6500    8.7530   -0.3390 C   0  0  0  0  0  0  0  0  0  0  0  0
   -0.0080   13.2020   -1.1050 C   0  0  1  0  0  0  0  0  0  0  0  0
   -1.3820   12.8710   -0.4470 C   0  0  0  0  0  0  0  0  0  0  0  0
   -0.3030   14.2410   -2.2500 C   0  0  0  0  0  0  0  0  0  0  0  0
    0.8460   15.1910   -2.6390 C   0  0  0  0  0  0  0  0  0  0  0  0
    1.4600   15.8460   -1.3980 C   0  0  2  0  0  0  0  0  0  0  0  0
    0.3490   16.7150   -0.7160 C   0  0  0  0  0  0  0  0  0  0  0  0
    2.6570   18.7664   -0.1362 H   0  0  0  0  0  0  0  0  0  0  0  0
    3.8340   19.5235   -1.2625 H   0  0  0  0  0  0  0  0  0  0  0  0
    2.1191   20.0583   -1.2625 H   0  0  0  0  0  0  0  0  0  0  0  0
    3.1264   18.3091   -3.0550 H   0  0  0  0  0  0  0  0  0  0  0  0
    1.0310   18.3196   -3.8030 H   0  0  0  0  0  0  0  0  0  0  0  0
    0.4691   17.3690   -2.3460 H   0  0  0  0  0  0  0  0  0  0  0  0
    0.9275   20.0195   -1.4677 H   0  0  0  0  0  0  0  0  0  0  0  0
   -0.0074   20.1197   -3.0180 H   0  0  0  0  0  0  0  0  0  0  0  0
   -1.1840   18.2904   -2.1681 H   0  0  0  0  0  0  0  0  0  0  0  0
   -0.3186   19.5210    1.9957 H   0  0  0  0  0  0  0  0  0  0  0  0
    0.8733   19.0510    0.7367 H   0  0  0  0  0  0  0  0  0  0  0  0
    0.1718   20.7047    0.7367 H   0  0  0  0  0  0  0  0  0  0  0  0
   -2.1040   18.4049    1.8073 H   0  0  0  0  0  0  0  0  0  0  0  0
   -3.1939   18.6839    0.4069 H   0  0  0  0  0  0  0  0  0  0  0  0
   -2.0729   17.2803    0.4069 H   0  0  0  0  0  0  0  0  0  0  0  0
    3.3268   16.3234   -2.4279 H   0  0  0  0  0  0  0  0  0  0  0  0
    4.4577   16.6717   -0.3224 H   0  0  0  0  0  0  0  0  0  0  0  0
    3.1667   17.7306    0.2844 H   0  0  0  0  0  0  0  0  0  0  0  0
    3.5882   15.0132    1.0613 H   0  0  0  0  0  0  0  0  0  0  0  0
    2.1055   15.9113    1.3755 H   0  0  0  0  0  0  0  0  0  0  0  0
    3.8212   13.4160   -0.3741 H   0  0  0  0  0  0  0  0  0  0  0  0
    2.7507   13.0916   -1.7797 H   0  0  0  0  0  0  0  0  0  0  0  0
    3.8205   14.5345   -1.7797 H   0  0  0  0  0  0  0  0  0  0  0  0
    0.2828   14.5214    0.5985 H   0  0  0  0  0  0  0  0  0  0  0  0
    2.1862   13.1158    1.6195 H   0  0  0  0  0  0  0  0  0  0  0  0
    0.4400   12.5358    1.6739 H   0  0  0  0  0  0  0  0  0  0  0  0
    2.2575   10.7132    1.1096 H   0  0  0  0  0  0  0  0  0  0  0  0
    1.3217   12.2973   -2.4843 H   0  0  0  0  0  0  0  0  0  0  0  0
   -1.1607   10.6470   -1.7061 H   0  0  0  0  0  0  0  0  0  0  0  0
   -0.9318   11.6301   -3.2204 H   0  0  0  0  0  0  0  0  0  0  0  0
   -0.6278    9.2080   -3.6207 H   0  0  0  0  0  0  0  0  0  0  0  0
    0.8699   10.1698   -3.9333 H   0  0  0  0  0  0  0  0  0  0  0  0
    1.4740    8.1630   -2.7634 H   0  0  0  0  0  0  0  0  0  0  0  0
   -0.0350    7.3960   -1.4710 H   0  0  0  0  0  0  0  0  0  0  0  0
    4.0795   10.3859   -1.7634 H   0  0  0  0  0  0  0  0  0  0  0  0
    3.4475    9.2319   -2.9863 H   0  0  0  0  0  0  0  0  0  0  0  0
    2.8852   10.9379   -2.9863 H   0  0  0  0  0  0  0  0  0  0  0  0
    2.4162    9.1219    0.6706 H   0  0  0  0  0  0  0  0  0  0  0  0
    2.2240    7.7473   -0.4696 H   0  0  0  0  0  0  0  0  0  0  0  0
    3.7413    8.7088   -0.4696 H   0  0  0  0  0  0  0  0  0  0  0  0
   -1.2796   12.8957    0.6479 H   0  0  0  0  0  0  0  0  0  0  0  0
   -2.1283   13.6151   -0.7623 H   0  0  0  0  0  0  0  0  0  0  0  0
   -1.7076   11.8687   -0.7623 H   0  0  0  0  0  0  0  0  0  0  0  0
   -0.5849   13.6739   -3.1494 H   0  0  0  0  0  0  0  0  0  0  0  0
   -1.0931   14.8935   -1.8500 H   0  0  0  0  0  0  0  0  0  0  0  0
    1.6237   14.6184   -3.1656 H   0  0  0  0  0  0  0  0  0  0  0  0
    0.4427   15.9812   -3.2893 H   0  0  0  0  0  0  0  0  0  0  0  0
    0.4446   16.6402    0.3773 H   0  0  0  0  0  0  0  0  0  0  0  0
    0.4645   17.7649   -1.0232 H   0  0  0  0  0  0  0  0  0  0  0  0
   -0.6422   16.3500   -1.0232 H   0  0  0  0  0  0  0  0  0  0  0  0
  1  2  1  0
  2  3  1  0
  3  4  1  0
  4  5  1  0
  5  6  1  0
  6  7  1  0
  7  8  1  0
  7  9  1  0
  2 10  1  0
 10 11  1  0
 11 12  1  0
 12 13  1  0
 13 14  1  6
 13 15  1  0
 15 16  1  0
 16 17  1  0
 17 18  2  0
 18 19  1  0
 19 20  1  0
 20 21  1  0
 21 22  1  0
 22 23  1  0
 22 24  1  0
 24 25  1  0
 24 26  1  0
 19 27  1  0
 27 28  1  1
 27 29  1  0
 29 30  1  0
 30 31  1  0
 31 32  1  1
  7  5  1  0
 31 10  1  0
 31 13  1  0
 27 15  1  0
 24 18  1  0
  1 33  1  0
  1 34  1  0
  1 35  1  0
  2 36  1  6
  3 37  1  0
  3 38  1  0
  4 39  1  0
  4 40  1  0
  5 41  1  6
  8 42  1  0
  8 43  1  0
  8 44  1  0
  9 45  1  0
  9 46  1  0
  9 47  1  0
 10 48  1  6
 11 49  1  0
 11 50  1  0
 12 51  1  0
 12 52  1  0
 14 53  1  0
 14 54  1  0
 14 55  1  0
 15 56  1  1
 16 57  1  0
 16 58  1  0
 17 59  1  0
 19 60  1  6
 20 61  1  0
 20 62  1  0
 21 63  1  0
 21 64  1  0
 22 65  1  6
 23 66  1  0
 25 67  1  0
 25 68  1  0
 25 69  1  0
 26 70  1  0
 26 71  1  0
 26 72  1  0
 28 73  1  0
 28 74  1  0
 28 75  1  0
 29 76  1  0
 29 77  1  0
 30 78  1  0
 30 79  1  0
 32 80  1  0
 32 81  1  0
 32 82  1  0
M  END
>  <meeko>  (10) 
{"is_sidechain": [false], "intermolecular_energy": 2.731, "internal_energy": -0.839}

$$$$
EPH_relaxed_0001_pdb2pqr_Repair_69_r2_0001_out
     RDKit          3D

 82 86  0  0  0  0  0  0  0  0999 V2000
   -0.9040   16.3860   -5.8570 C   0  0  0  0  0  0  0  0  0  0  0  0
    0.1880   15.6840   -6.6690 C   0  0  2  0  0  0  0  0  0  0  0  0
   -0.2180   15.4930   -8.1440 C   0  0  0  0  0  0  0  0  0  0  0  0
    0.4300   16.5010   -9.0970 C   0  0  0  0  0  0  0  0  0  0  0  0
    1.8370   16.1140   -9.4390 C   0  0  2  0  0  0  0  0  0  0  0  0
    2.3340   16.6790  -10.6600 O   0  0  0  0  0  0  0  0  0  0  0  0
    2.2000   15.2490  -10.6320 C   0  0  0  0  0  0  0  0  0  0  0  0
    1.1520   14.7170  -11.5580 C   0  0  0  0  0  0  0  0  0  0  0  0
    3.5090   14.5220  -10.6170 C   0  0  0  0  0  0  0  0  0  0  0  0
    0.5170   14.3350   -6.0400 C   0  0  1  0  0  0  0  0  0  0  0  0
    1.7460   13.6530   -6.6980 C   0  0  0  0  0  0  0  0  0  0  0  0
    2.4930   12.8950   -5.5710 C   0  0  0  0  0  0  0  0  0  0  0  0
    1.5020   12.8860   -4.3830 C   0  0  1  0  0  0  0  0  0  0  0  0
    0.5160   11.7150   -4.6920 C   0  0  0  0  0  0  0  0  0  0  0  0
    2.1310   12.7510   -2.9590 C   0  0  2  0  0  0  0  0  0  0  0  0
    2.8960   11.4400   -2.7050 C   0  0  0  0  0  0  0  0  0  0  0  0
    2.0790   10.3240   -2.1430 C   0  0  0  0  0  0  0  0  0  0  0  0
    0.8590   10.4500   -1.5890 C   0  0  0  0  0  0  0  0  0  0  0  0
    0.2200   11.8310   -1.3960 C   0  0  1  0  0  0  0  0  0  0  0  0
   -0.3660   11.9360    0.0360 C   0  0  0  0  0  0  0  0  0  0  0  0
   -1.3290   10.7970    0.3590 C   0  0  0  0  0  0  0  0  0  0  0  0
   -0.6410    9.4430    0.2130 C   0  0  2  0  0  0  0  0  0  0  0  0
    0.3660    9.3260    1.2230 O   0  0  0  0  0  0  0  0  0  0  0  0
   -0.0040    9.2270   -1.1880 C   0  0  0  0  0  0  0  0  0  0  0  0
   -1.1210    9.0520   -2.2460 C   0  0  0  0  0  0  0  0  0  0  0  0
    0.7780    7.8860   -1.1560 C   0  0  0  0  0  0  0  0  0  0  0  0
    1.1320   13.0760   -1.7750 C   0  0  1  0  0  0  0  0  0  0  0  0
    2.0090   13.4840   -0.5520 C   0  0  0  0  0  0  0  0  0  0  0  0
    0.2100   14.3120   -2.0930 C   0  0  0  0  0  0  0  0  0  0  0  0
   -0.2830   14.4560   -3.5460 C   0  0  0  0  0  0  0  0  0  0  0  0
    0.8800   14.3220   -4.5340 C   0  0  2  0  0  0  0  0  0  0  0  0
    1.8770   15.5000   -4.2630 C   0  0  0  0  0  0  0  0  0  0  0  0
   -0.7029   16.2567   -4.7833 H   0  0  0  0  0  0  0  0  0  0  0  0
   -0.9111   17.4583   -6.1022 H   0  0  0  0  0  0  0  0  0  0  0  0
   -1.8825   15.9473   -6.1022 H   0  0  0  0  0  0  0  0  0  0  0  0
    1.0791   16.3287   -6.6529 H   0  0  0  0  0  0  0  0  0  0  0  0
    0.0768   14.4805   -8.4569 H   0  0  0  0  0  0  0  0  0  0  0  0
   -1.3052   15.6505   -8.2008 H   0  0  0  0  0  0  0  0  0  0  0  0
   -0.1620   16.5479  -10.0229 H   0  0  0  0  0  0  0  0  0  0  0  0
    0.4554   17.4799   -8.5958 H   0  0  0  0  0  0  0  0  0  0  0  0
    2.1039   16.0519   -8.3737 H   0  0  0  0  0  0  0  0  0  0  0  0
    0.3229   14.2961  -10.9703 H   0  0  0  0  0  0  0  0  0  0  0  0
    0.7748   15.5328  -12.1922 H   0  0  0  0  0  0  0  0  0  0  0  0
    1.5879   13.9310  -12.1922 H   0  0  0  0  0  0  0  0  0  0  0  0
    3.8204   14.3490   -9.5763 H   0  0  0  0  0  0  0  0  0  0  0  0
    3.3980   13.5563  -11.1318 H   0  0  0  0  0  0  0  0  0  0  0  0
    4.2701   15.1266  -11.1318 H   0  0  0  0  0  0  0  0  0  0  0  0
   -0.4408   13.8184   -6.2002 H   0  0  0  0  0  0  0  0  0  0  0  0
    1.4169   12.9477   -7.4753 H   0  0  0  0  0  0  0  0  0  0  0  0
    2.4013   14.3960   -7.1760 H   0  0  0  0  0  0  0  0  0  0  0  0
    2.7314   11.8682   -5.8856 H   0  0  0  0  0  0  0  0  0  0  0  0
    3.4503   13.3708   -5.3119 H   0  0  0  0  0  0  0  0  0  0  0  0
    0.1523   11.2831   -3.7480 H   0  0  0  0  0  0  0  0  0  0  0  0
   -0.3364   12.0970   -5.2728 H   0  0  0  0  0  0  0  0  0  0  0  0
    1.0376   10.9401   -5.2728 H   0  0  0  0  0  0  0  0  0  0  0  0
    2.8919   13.5453   -2.9615 H   0  0  0  0  0  0  0  0  0  0  0  0
    3.3195   11.1026   -3.6625 H   0  0  0  0  0  0  0  0  0  0  0  0
    3.6563   11.6734   -1.9451 H   0  0  0  0  0  0  0  0  0  0  0  0
    2.5107    9.3132   -2.1853 H   0  0  0  0  0  0  0  0  0  0  0  0
   -0.5911   11.8961   -2.1362 H   0  0  0  0  0  0  0  0  0  0  0  0
    0.4629   11.9127    0.7588 H   0  0  0  0  0  0  0  0  0  0  0  0
   -0.9304   12.8781    0.0976 H   0  0  0  0  0  0  0  0  0  0  0  0
   -1.6859   10.9098    1.3934 H   0  0  0  0  0  0  0  0  0  0  0  0
   -2.1724   10.8400   -0.3458 H   0  0  0  0  0  0  0  0  0  0  0  0
   -1.4121    8.6672    0.3294 H   0  0  0  0  0  0  0  0  0  0  0  0
   -0.0810    9.3200    2.0860 H   0  0  0  0  0  0  0  0  0  0  0  0
   -2.0856    8.9009   -1.7393 H   0  0  0  0  0  0  0  0  0  0  0  0
   -1.1745    9.9527   -2.8752 H   0  0  0  0  0  0  0  0  0  0  0  0
   -0.8965    8.1781   -2.8752 H   0  0  0  0  0  0  0  0  0  0  0  0
    0.9519    7.5878   -0.1116 H   0  0  0  0  0  0  0  0  0  0  0  0
    0.1922    7.1076   -1.6669 H   0  0  0  0  0  0  0  0  0  0  0  0
    1.7439    8.0125   -1.6669 H   0  0  0  0  0  0  0  0  0  0  0  0
    1.4777   13.2368    0.3789 H   0  0  0  0  0  0  0  0  0  0  0  0
    2.9628   12.9372   -0.5861 H   0  0  0  0  0  0  0  0  0  0  0  0
    2.2051   14.5658   -0.5861 H   0  0  0  0  0  0  0  0  0  0  0  0
   -0.6769   14.2406   -1.4463 H   0  0  0  0  0  0  0  0  0  0  0  0
    0.8411   15.1951   -1.9145 H   0  0  0  0  0  0  0  0  0  0  0  0
   -1.0246   13.6707   -3.7541 H   0  0  0  0  0  0  0  0  0  0  0  0
   -0.7337   15.4521   -3.6670 H   0  0  0  0  0  0  0  0  0  0  0  0
    1.9944   15.6387   -3.1781 H   0  0  0  0  0  0  0  0  0  0  0  0
    2.8538   15.2639   -4.7103 H   0  0  0  0  0  0  0  0  0  0  0  0
    1.4827   16.4244   -4.7103 H   0  0  0  0  0  0  0  0  0  0  0  0
  1  2  1  0
  2  3  1  0
  3  4  1  0
  4  5  1  0
  5  6  1  0
  6  7  1  0
  7  8  1  0
  7  9  1  0
  2 10  1  0
 10 11  1  0
 11 12  1  0
 12 13  1  0
 13 14  1  6
 13 15  1  0
 15 16  1  0
 16 17  1  0
 17 18  2  0
 18 19  1  0
 19 20  1  0
 20 21  1  0
 21 22  1  0
 22 23  1  0
 22 24  1  0
 24 25  1  0
 24 26  1  0
 19 27  1  0
 27 28  1  1
 27 29  1  0
 29 30  1  0
 30 31  1  0
 31 32  1  6
  7  5  1  0
 31 10  1  0
 31 13  1  0
 27 15  1  0
 24 18  1  0
  1 33  1  0
  1 34  1  0
  1 35  1  0
  2 36  1  6
  3 37  1  0
  3 38  1  0
  4 39  1  0
  4 40  1  0
  5 41  1  1
  8 42  1  0
  8 43  1  0
  8 44  1  0
  9 45  1  0
  9 46  1  0
  9 47  1  0
 10 48  1  1
 11 49  1  0
 11 50  1  0
 12 51  1  0
 12 52  1  0
 14 53  1  0
 14 54  1  0
 14 55  1  0
 15 56  1  6
 16 57  1  0
 16 58  1  0
 17 59  1  0
 19 60  1  6
 20 61  1  0
 20 62  1  0
 21 63  1  0
 21 64  1  0
 22 65  1  1
 23 66  1  0
 25 67  1  0
 25 68  1  0
 25 69  1  0
 26 70  1  0
 26 71  1  0
 26 72  1  0
 28 73  1  0
 28 74  1  0
 28 75  1  0
 29 76  1  0
 29 77  1  0
 30 78  1  0
 30 79  1  0
 32 80  1  0
 32 81  1  0
 32 82  1  0
M  END
>  <meeko>  (11) 
{"is_sidechain": [false], "intermolecular_energy": 2.731, "internal_energy": -0.839}

$$$$
EPH_relaxed_0001_pdb2pqr_Repair_69_r2_0001_out
     RDKit          3D

 82 86  0  0  0  0  0  0  0  0999 V2000
   -0.2860   15.1230   -7.6380 C   0  0  0  0  0  0  0  0  0  0  0  0
    1.0890   15.0910   -6.9660 C   0  0  2  0  0  0  0  0  0  0  0  0
    2.2390   15.1750   -7.9900 C   0  0  0  0  0  0  0  0  0  0  0  0
    2.2670   16.4870   -8.7780 C   0  0  0  0  0  0  0  0  0  0  0  0
    1.8600   16.2860  -10.2060 C   0  0  2  0  0  0  0  0  0  0  0  0
    1.1930   15.0440  -10.4690 O   0  0  0  0  0  0  0  0  0  0  0  0
    2.4670   15.2270  -11.1070 C   0  0  0  0  0  0  0  0  0  0  0  0
    3.5330   14.3000  -10.6130 C   0  0  0  0  0  0  0  0  0  0  0  0
    2.3780   15.4120  -12.5900 C   0  0  0  0  0  0  0  0  0  0  0  0
    1.2290   13.8250   -6.1290 C   0  0  1  0  0  0  0  0  0  0  0  0
    2.6590   13.2240   -6.1880 C   0  0  0  0  0  0  0  0  0  0  0  0
    2.9480   12.6170   -4.7910 C   0  0  0  0  0  0  0  0  0  0  0  0
    1.5720   12.5910   -4.0850 C   0  0  1  0  0  0  0  0  0  0  0  0
    0.8640   11.3120   -4.6330 C   0  0  0  0  0  0  0  0  0  0  0  0
    1.5970   12.6110   -2.5220 C   0  0  2  0  0  0  0  0  0  0  0  0
    2.2810   11.4010   -1.8640 C   0  0  0  0  0  0  0  0  0  0  0  0
    1.3810   10.2500   -1.5550 C   0  0  0  0  0  0  0  0  0  0  0  0
    0.0360   10.2930   -1.5310 C   0  0  0  0  0  0  0  0  0  0  0  0
   -0.7130   11.6160   -1.7380 C   0  0  1  0  0  0  0  0  0  0  0  0
   -1.8210   11.7570   -0.6620 C   0  0  0  0  0  0  0  0  0  0  0  0
   -2.7590   10.5550   -0.6260 C   0  0  0  0  0  0  0  0  0  0  0  0
   -1.9840    9.2670   -0.3600 C   0  0  2  0  0  0  0  0  0  0  0  0
   -1.4510    9.3150    0.9670 O   0  0  0  0  0  0  0  0  0  0  0  0
   -0.8340    9.0220   -1.3760 C   0  0  0  0  0  0  0  0  0  0  0  0
   -1.4310    8.6700   -2.7620 C   0  0  0  0  0  0  0  0  0  0  0  0
   -0.0450    7.7680   -0.9120 C   0  0  0  0  0  0  0  0  0  0  0  0
    0.1940   12.9150   -1.8560 C   0  0  1  0  0  0  0  0  0  0  0  0
    0.4900   13.4870   -0.4350 C   0  0  0  0  0  0  0  0  0  0  0  0
   -0.6050   14.0320   -2.6260 C   0  0  0  0  0  0  0  0  0  0  0  0
   -0.4940   14.0320   -4.1620 C   0  0  0  0  0  0  0  0  0  0  0  0
    0.9700   13.9460   -4.6060 C   0  0  2  0  0  0  0  0  0  0  0  0
    1.7020   15.2310   -4.0880 C   0  0  0  0  0  0  0  0  0  0  0  0
   -1.0705   15.1413   -6.8671 H   0  0  0  0  0  0  0  0  0  0  0  0
   -0.3669   16.0233   -8.2649 H   0  0  0  0  0  0  0  0  0  0  0  0
   -0.4087   14.2275   -8.2649 H   0  0  0  0  0  0  0  0  0  0  0  0
    1.1601   15.9762   -6.3169 H   0  0  0  0  0  0  0  0  0  0  0  0
    3.1923   15.0735   -7.4506 H   0  0  0  0  0  0  0  0  0  0  0  0
    2.0805   14.3660   -8.7183 H   0  0  0  0  0  0  0  0  0  0  0  0
    1.5744   17.2002   -8.3072 H   0  0  0  0  0  0  0  0  0  0  0  0
    3.2976   16.8713   -8.7666 H   0  0  0  0  0  0  0  0  0  0  0  0
    1.7038   17.3667  -10.3388 H   0  0  0  0  0  0  0  0  0  0  0  0
    3.5359   14.2975   -9.5130 H   0  0  0  0  0  0  0  0  0  0  0  0
    3.3340   13.2828  -10.9814 H   0  0  0  0  0  0  0  0  0  0  0  0
    4.5127   14.6383  -10.9814 H   0  0  0  0  0  0  0  0  0  0  0  0
    1.9108   16.3830  -12.8110 H   0  0  0  0  0  0  0  0  0  0  0  0
    3.3882   15.3838  -13.0243 H   0  0  0  0  0  0  0  0  0  0  0  0
    1.7695   14.6051  -13.0243 H   0  0  0  0  0  0  0  0  0  0  0  0
    0.4467   13.2089   -6.5964 H   0  0  0  0  0  0  0  0  0  0  0  0
    2.7091   12.4409   -6.9588 H   0  0  0  0  0  0  0  0  0  0  0  0
    3.4007   13.9948   -6.4445 H   0  0  0  0  0  0  0  0  0  0  0  0
    3.3549   11.5995   -4.8863 H   0  0  0  0  0  0  0  0  0  0  0  0
    3.6941   13.1985   -4.2296 H   0  0  0  0  0  0  0  0  0  0  0  0
    0.5214   10.6931   -3.7906 H   0  0  0  0  0  0  0  0  0  0  0  0
    0.0001   11.6058   -5.2473 H   0  0  0  0  0  0  0  0  0  0  0  0
    1.5717   10.7359   -5.2473 H   0  0  0  0  0  0  0  0  0  0  0  0
    2.2463   13.4727   -2.3077 H   0  0  0  0  0  0  0  0  0  0  0  0
    3.0682   11.0439   -2.5443 H   0  0  0  0  0  0  0  0  0  0  0  0
    2.6636   11.7567   -0.8960 H   0  0  0  0  0  0  0  0  0  0  0  0
    1.8578    9.2851   -1.3277 H   0  0  0  0  0  0  0  0  0  0  0  0
   -1.1694   11.5547   -2.7370 H   0  0  0  0  0  0  0  0  0  0  0  0
   -1.3439   11.8613    0.3236 H   0  0  0  0  0  0  0  0  0  0  0  0
   -2.4226   12.6419   -0.9168 H   0  0  0  0  0  0  0  0  0  0  0  0
   -3.5006   10.7007    0.1733 H   0  0  0  0  0  0  0  0  0  0  0  0
   -3.2583   10.4695   -1.6024 H   0  0  0  0  0  0  0  0  0  0  0  0
   -2.6879    8.4296   -0.4756 H   0  0  0  0  0  0  0  0  0  0  0  0
   -0.8330   10.0650    1.0090 H   0  0  0  0  0  0  0  0  0  0  0  0
   -2.3713    8.1156   -2.6261 H   0  0  0  0  0  0  0  0  0  0  0  0
   -1.6289    9.5959   -3.3219 H   0  0  0  0  0  0  0  0  0  0  0  0
   -0.7166    8.0486   -3.3219 H   0  0  0  0  0  0  0  0  0  0  0  0
   -0.0237    7.7342    0.1873 H   0  0  0  0  0  0  0  0  0  0  0  0
   -0.5363    6.8624   -1.2973 H   0  0  0  0  0  0  0  0  0  0  0  0
    0.9841    7.8190   -1.2973 H   0  0  0  0  0  0  0  0  0  0  0  0
    0.1254   12.7825    0.3271 H   0  0  0  0  0  0  0  0  0  0  0  0
    1.5743   13.6281   -0.3151 H   0  0  0  0  0  0  0  0  0  0  0  0
   -0.0210   14.4537   -0.3151 H   0  0  0  0  0  0  0  0  0  0  0  0
   -1.6684   13.9172   -2.3693 H   0  0  0  0  0  0  0  0  0  0  0  0
   -0.1530   14.9820   -2.3050 H   0  0  0  0  0  0  0  0  0  0  0  0
   -1.0429   13.1669   -4.5625 H   0  0  0  0  0  0  0  0  0  0  0  0
   -0.9220   14.9703   -4.5446 H   0  0  0  0  0  0  0  0  0  0  0  0
    1.7036   15.2338   -2.9880 H   0  0  0  0  0  0  0  0  0  0  0  0
    2.7385   15.2361   -4.4562 H   0  0  0  0  0  0  0  0  0  0  0  0
    1.1777   16.1252   -4.4562 H   0  0  0  0  0  0  0  0  0  0  0  0
  1  2  1  0
  2  3  1  0
  3  4  1  0
  4  5  1  0
  5  6  1  0
  6  7  1  0
  7  8  1  0
  7  9  1  0
  2 10  1  0
 10 11  1  0
 11 12  1  0
 12 13  1  0
 13 14  1  1
 13 15  1  0
 15 16  1  0
 16 17  1  0
 17 18  2  0
 18 19  1  0
 19 20  1  0
 20 21  1  0
 21 22  1  0
 22 23  1  0
 22 24  1  0
 24 25  1  0
 24 26  1  0
 19 27  1  0
 27 28  1  1
 27 29  1  0
 29 30  1  0
 30 31  1  0
 31 32  1  1
  7  5  1  0
 31 10  1  0
 31 13  1  0
 27 15  1  0
 24 18  1  0
  1 33  1  0
  1 34  1  0
  1 35  1  0
  2 36  1  1
  3 37  1  0
  3 38  1  0
  4 39  1  0
  4 40  1  0
  5 41  1  6
  8 42  1  0
  8 43  1  0
  8 44  1  0
  9 45  1  0
  9 46  1  0
  9 47  1  0
 10 48  1  6
 11 49  1  0
 11 50  1  0
 12 51  1  0
 12 52  1  0
 14 53  1  0
 14 54  1  0
 14 55  1  0
 15 56  1  6
 16 57  1  0
 16 58  1  0
 17 59  1  0
 19 60  1  6
 20 61  1  0
 20 62  1  0
 21 63  1  0
 21 64  1  0
 22 65  1  1
 23 66  1  0
 25 67  1  0
 25 68  1  0
 25 69  1  0
 26 70  1  0
 26 71  1  0
 26 72  1  0
 28 73  1  0
 28 74  1  0
 28 75  1  0
 29 76  1  0
 29 77  1  0
 30 78  1  0
 30 79  1  0
 32 80  1  0
 32 81  1  0
 32 82  1  0
M  END
>  <meeko>  (12) 
{"is_sidechain": [false], "intermolecular_energy": 2.731, "internal_energy": -0.839}

$$$$
EPH_relaxed_0001_pdb2pqr_Repair_69_r2_0001_out
     RDKit          3D

 82 86  0  0  0  0  0  0  0  0999 V2000
   -2.1760    7.8430   -2.1000 C   0  0  0  0  0  0  0  0  0  0  0  0
   -2.2540    8.5090   -0.7240 C   0  0  2  0  0  0  0  0  0  0  0  0
   -3.6910    8.5230   -0.1650 C   0  0  0  0  0  0  0  0  0  0  0  0
   -4.7640    8.2360   -1.2190 C   0  0  0  0  0  0  0  0  0  0  0  0
   -5.8430    7.3450   -0.6830 C   0  0  2  0  0  0  0  0  0  0  0  0
   -6.2230    6.2730   -1.5560 O   0  0  0  0  0  0  0  0  0  0  0  0
   -7.2330    7.2590   -1.2860 C   0  0  0  0  0  0  0  0  0  0  0  0
   -7.6180    8.0780   -2.4790 C   0  0  0  0  0  0  0  0  0  0  0  0
   -8.3540    6.7560   -0.4320 C   0  0  0  0  0  0  0  0  0  0  0  0
   -1.7120    9.9320   -0.8030 C   0  0  1  0  0  0  0  0  0  0  0  0
   -1.2620   10.4770    0.5780 C   0  0  0  0  0  0  0  0  0  0  0  0
   -0.0320   11.3850    0.3200 C   0  0  0  0  0  0  0  0  0  0  0  0
   -0.0180   11.5980   -1.2120 C   0  0  1  0  0  0  0  0  0  0  0  0
   -1.0640   12.7280   -1.4690 C   0  0  0  0  0  0  0  0  0  0  0  0
    1.3680   11.9390   -1.8500 C   0  0  2  0  0  0  0  0  0  0  0  0
    2.0010   13.2570   -1.3710 C   0  0  0  0  0  0  0  0  0  0  0  0
    1.6490   14.4630   -2.1770 C   0  0  0  0  0  0  0  0  0  0  0  0
    1.0920   14.4500   -3.4020 C   0  0  0  0  0  0  0  0  0  0  0  0
    0.8480   13.1290   -4.1420 C   0  0  1  0  0  0  0  0  0  0  0  0
    1.3370   13.2590   -5.6080 C   0  0  0  0  0  0  0  0  0  0  0  0
    0.7190   14.4530   -6.3280 C   0  0  0  0  0  0  0  0  0  0  0  0
    1.0320   15.7540   -5.5930 C   0  0  2  0  0  0  0  0  0  0  0  0
    2.4380   16.0040   -5.6780 O   0  0  0  0  0  0  0  0  0  0  0  0
    0.5920   15.7370   -4.1020 C   0  0  0  0  0  0  0  0  0  0  0  0
   -0.9530   15.7700   -4.0150 C   0  0  0  0  0  0  0  0  0  0  0  0
    1.0920   17.0510   -3.4420 C   0  0  0  0  0  0  0  0  0  0  0  0
    1.4020   11.8210   -3.4280 C   0  0  1  0  0  0  0  0  0  0  0  0
    2.8910   11.5880   -3.8250 C   0  0  0  0  0  0  0  0  0  0  0  0
    0.6010   10.5710   -3.9520 C   0  0  0  0  0  0  0  0  0  0  0  0
   -0.6980   10.2140   -3.2050 C   0  0  0  0  0  0  0  0  0  0  0  0
   -0.4660   10.1690   -1.6920 C   0  0  2  0  0  0  0  0  0  0  0  0
    0.5660    9.0270   -1.4000 C   0  0  0  0  0  0  0  0  0  0  0  0
   -2.0489    6.7575   -1.9753 H   0  0  0  0  0  0  0  0  0  0  0  0
   -3.1036    8.0420   -2.6568 H   0  0  0  0  0  0  0  0  0  0  0  0
   -1.3195    8.2509   -2.6568 H   0  0  0  0  0  0  0  0  0  0  0  0
   -1.6376    7.9140   -0.0340 H   0  0  0  0  0  0  0  0  0  0  0  0
   -3.7647    7.7588    0.6227 H   0  0  0  0  0  0  0  0  0  0  0  0
   -3.8779    9.5378    0.2161 H   0  0  0  0  0  0  0  0  0  0  0  0
   -5.2135    9.1878   -1.5384 H   0  0  0  0  0  0  0  0  0  0  0  0
   -4.2845    7.7228   -2.0656 H   0  0  0  0  0  0  0  0  0  0  0  0
   -5.4945    7.5036    0.3482 H   0  0  0  0  0  0  0  0  0  0  0  0
   -8.0638    9.0263   -2.1443 H   0  0  0  0  0  0  0  0  0  0  0  0
   -6.7237    8.2868   -3.0845 H   0  0  0  0  0  0  0  0  0  0  0  0
   -8.3493    7.5226   -3.0845 H   0  0  0  0  0  0  0  0  0  0  0  0
   -8.0887    6.8751    0.6289 H   0  0  0  0  0  0  0  0  0  0  0  0
   -9.2664    7.3310   -0.6485 H   0  0  0  0  0  0  0  0  0  0  0  0
   -8.5310    5.6921   -0.6485 H   0  0  0  0  0  0  0  0  0  0  0  0
   -2.5858   10.4391   -1.2381 H   0  0  0  0  0  0  0  0  0  0  0  0
   -2.0735   11.0599    1.0382 H   0  0  0  0  0  0  0  0  0  0  0  0
   -1.0098    9.6552    1.2644 H   0  0  0  0  0  0  0  0  0  0  0  0
   -0.1418   12.3456    0.8445 H   0  0  0  0  0  0  0  0  0  0  0  0
    0.9024   10.9354    0.6870 H   0  0  0  0  0  0  0  0  0  0  0  0
   -1.4257   13.1187   -0.5064 H   0  0  0  0  0  0  0  0  0  0  0  0
   -0.5926   13.5409   -2.0408 H   0  0  0  0  0  0  0  0  0  0  0  0
   -1.9108   12.3207   -2.0408 H   0  0  0  0  0  0  0  0  0  0  0  0
    2.0117   11.1387   -1.4561 H   0  0  0  0  0  0  0  0  0  0  0  0
    1.6757   13.4336   -0.3351 H   0  0  0  0  0  0  0  0  0  0  0  0
    3.0884   13.1280   -1.4752 H   0  0  0  0  0  0  0  0  0  0  0  0
    1.8631   15.4459   -1.7319 H   0  0  0  0  0  0  0  0  0  0  0  0
   -0.2399   12.9671   -4.1239 H   0  0  0  0  0  0  0  0  0  0  0  0
    2.4307   13.3764   -5.6056 H   0  0  0  0  0  0  0  0  0  0  0  0
    1.0281   12.3497   -6.1444 H   0  0  0  0  0  0  0  0  0  0  0  0
    1.1265   14.5087   -7.3482 H   0  0  0  0  0  0  0  0  0  0  0  0
   -0.3725   14.3195   -6.3570 H   0  0  0  0  0  0  0  0  0  0  0  0
    0.4562   16.5550   -6.0797 H   0  0  0  0  0  0  0  0  0  0  0  0
    2.7090   15.8540   -6.5990 H   0  0  0  0  0  0  0  0  0  0  0  0
   -1.2607   15.7766   -2.9589 H   0  0  0  0  0  0  0  0  0  0  0  0
   -1.3290   16.6764   -4.5121 H   0  0  0  0  0  0  0  0  0  0  0  0
   -1.3673   14.8805   -4.5121 H   0  0  0  0  0  0  0  0  0  0  0  0
    1.0533   16.9493   -2.3474 H   0  0  0  0  0  0  0  0  0  0  0  0
    2.1278   17.2477   -3.7556 H   0  0  0  0  0  0  0  0  0  0  0  0
    0.4490   17.8866   -3.7556 H   0  0  0  0  0  0  0  0  0  0  0  0
    3.5023   11.4923   -2.9155 H   0  0  0  0  0  0  0  0  0  0  0  0
    2.9720   10.6663   -4.4198 H   0  0  0  0  0  0  0  0  0  0  0  0
    3.2497   12.4410   -4.4198 H   0  0  0  0  0  0  0  0  0  0  0  0
    0.3386   10.7610   -5.0032 H   0  0  0  0  0  0  0  0  0  0  0  0
    1.2701    9.7129   -3.7910 H   0  0  0  0  0  0  0  0  0  0  0  0
   -1.4622   10.9727   -3.4294 H   0  0  0  0  0  0  0  0  0  0  0  0
   -1.0322    9.2204   -3.5381 H   0  0  0  0  0  0  0  0  0  0  0  0
    0.6779    8.9031   -0.3127 H   0  0  0  0  0  0  0  0  0  0  0  0
    0.2060    8.0858   -1.8411 H   0  0  0  0  0  0  0  0  0  0  0  0
    1.5387    9.2902   -1.8411 H   0  0  0  0  0  0  0  0  0  0  0  0
  1  2  1  0
  2  3  1  0
  3  4  1  0
  4  5  1  0
  5  6  1  0
  6  7  1  0
  7  8  1  0
  7  9  1  0
  2 10  1  0
 10 11  1  0
 11 12  1  0
 12 13  1  0
 13 14  1  1
 13 15  1  0
 15 16  1  0
 16 17  1  0
 17 18  2  0
 18 19  1  0
 19 20  1  0
 20 21  1  0
 21 22  1  0
 22 23  1  0
 22 24  1  0
 24 25  1  0
 24 26  1  0
 19 27  1  0
 27 28  1  6
 27 29  1  0
 29 30  1  0
 30 31  1  0
 31 32  1  6
  7  5  1  0
 31 10  1  0
 31 13  1  0
 27 15  1  0
 24 18  1  0
  1 33  1  0
  1 34  1  0
  1 35  1  0
  2 36  1  1
  3 37  1  0
  3 38  1  0
  4 39  1  0
  4 40  1  0
  5 41  1  1
  8 42  1  0
  8 43  1  0
  8 44  1  0
  9 45  1  0
  9 46  1  0
  9 47  1  0
 10 48  1  6
 11 49  1  0
 11 50  1  0
 12 51  1  0
 12 52  1  0
 14 53  1  0
 14 54  1  0
 14 55  1  0
 15 56  1  1
 16 57  1  0
 16 58  1  0
 17 59  1  0
 19 60  1  6
 20 61  1  0
 20 62  1  0
 21 63  1  0
 21 64  1  0
 22 65  1  6
 23 66  1  0
 25 67  1  0
 25 68  1  0
 25 69  1  0
 26 70  1  0
 26 71  1  0
 26 72  1  0
 28 73  1  0
 28 74  1  0
 28 75  1  0
 29 76  1  0
 29 77  1  0
 30 78  1  0
 30 79  1  0
 32 80  1  0
 32 81  1  0
 32 82  1  0
M  END
>  <meeko>  (13) 
{"is_sidechain": [false], "intermolecular_energy": 2.731, "internal_energy": -0.839}

$$$$
EPH_relaxed_0001_pdb2pqr_Repair_69_r2_0001_out
     RDKit          3D

 82 86  0  0  0  0  0  0  0  0999 V2000
    1.4260   19.7210   -2.0140 C   0  0  0  0  0  0  0  0  0  0  0  0
    1.4080   19.4760   -0.5020 C   0  0  2  0  0  0  0  0  0  0  0  0
    2.7560   19.8260    0.1590 C   0  0  0  0  0  0  0  0  0  0  0  0
    3.6700   18.6160    0.3710 C   0  0  0  0  0  0  0  0  0  0  0  0
    4.6390   18.8430    1.4920 C   0  0  2  0  0  0  0  0  0  0  0  0
    4.3140   18.1630    2.7110 O   0  0  0  0  0  0  0  0  0  0  0  0
    4.2880   19.5990    2.7610 C   0  0  0  0  0  0  0  0  0  0  0  0
    2.9240   20.1760    2.9730 C   0  0  0  0  0  0  0  0  0  0  0  0
    5.3990   20.1940    3.5690 C   0  0  0  0  0  0  0  0  0  0  0  0
    1.0490   18.0220   -0.2160 C   0  0  1  0  0  0  0  0  0  0  0  0
   -0.2950   17.8780    0.5480 C   0  0  0  0  0  0  0  0  0  0  0  0
   -0.9670   16.5810    0.0290 C   0  0  0  0  0  0  0  0  0  0  0  0
    0.1470   15.8530   -0.7600 C   0  0  1  0  0  0  0  0  0  0  0  0
    1.0000   15.1270    0.3270 C   0  0  0  0  0  0  0  0  0  0  0  0
   -0.3290   14.8660   -1.8760 C   0  0  2  0  0  0  0  0  0  0  0  0
   -1.1580   13.6700   -1.3780 C   0  0  0  0  0  0  0  0  0  0  0  0
   -0.3710   12.4500   -1.0270 C   0  0  0  0  0  0  0  0  0  0  0  0
    0.9090   12.2190   -1.3730 C   0  0  0  0  0  0  0  0  0  0  0  0
    1.6690   13.1970   -2.2790 C   0  0  1  0  0  0  0  0  0  0  0  0
    2.4170   12.4050   -3.3830 C   0  0  0  0  0  0  0  0  0  0  0  0
    3.3200   11.3160   -2.8120 C   0  0  0  0  0  0  0  0  0  0  0  0
    2.5180   10.3310   -1.9650 C   0  0  2  0  0  0  0  0  0  0  0  0
    1.6240    9.6100   -2.8190 O   0  0  0  0  0  0  0  0  0  0  0  0
    1.7150   11.0160   -0.8250 C   0  0  0  0  0  0  0  0  0  0  0  0
    2.6910   11.5370    0.2590 C   0  0  0  0  0  0  0  0  0  0  0  0
    0.8420    9.9310   -0.1370 C   0  0  0  0  0  0  0  0  0  0  0  0
    0.8170   14.4040   -2.8640 C   0  0  1  0  0  0  0  0  0  0  0  0
    0.1160   13.9680   -4.1870 C   0  0  0  0  0  0  0  0  0  0  0  0
    1.7900   15.5820   -3.2450 C   0  0  0  0  0  0  0  0  0  0  0  0
    2.1270   16.5920   -2.1310 C   0  0  0  0  0  0  0  0  0  0  0  0
    0.8550   17.0840   -1.4340 C   0  0  2  0  0  0  0  0  0  0  0  0
   -0.0120   17.8390   -2.4980 C   0  0  0  0  0  0  0  0  0  0  0  0
    1.5053   20.8006   -2.2096 H   0  0  0  0  0  0  0  0  0  0  0  0
    2.2885   19.2034   -2.4591 H   0  0  0  0  0  0  0  0  0  0  0  0
    0.4971   19.3350   -2.4591 H   0  0  0  0  0  0  0  0  0  0  0  0
    0.6458   20.1397   -0.0678 H   0  0  0  0  0  0  0  0  0  0  0  0
    3.2803   20.5490   -0.4831 H   0  0  0  0  0  0  0  0  0  0  0  0
    2.5292   20.2359    1.1543 H   0  0  0  0  0  0  0  0  0  0  0  0
    3.0505   17.7383    0.6075 H   0  0  0  0  0  0  0  0  0  0  0  0
    4.2455   18.4549   -0.5525 H   0  0  0  0  0  0  0  0  0  0  0  0
    5.4739   18.9397    0.7824 H   0  0  0  0  0  0  0  0  0  0  0  0
    2.7251   20.2602    4.0516 H   0  0  0  0  0  0  0  0  0  0  0  0
    2.8720   21.1732    2.5116 H   0  0  0  0  0  0  0  0  0  0  0  0
    2.1721   19.5189    2.5116 H   0  0  0  0  0  0  0  0  0  0  0  0
    5.1777   20.0755    4.6400 H   0  0  0  0  0  0  0  0  0  0  0  0
    6.3419   19.6801    3.3304 H   0  0  0  0  0  0  0  0  0  0  0  0
    5.4938   21.2636    3.3304 H   0  0  0  0  0  0  0  0  0  0  0  0
    1.9410   17.7203    0.3527 H   0  0  0  0  0  0  0  0  0  0  0  0
   -0.1097   17.8021    1.6296 H   0  0  0  0  0  0  0  0  0  0  0  0
   -0.9409   18.7524    0.3797 H   0  0  0  0  0  0  0  0  0  0  0  0
   -1.3163   15.9619    0.8685 H   0  0  0  0  0  0  0  0  0  0  0  0
   -1.8505   16.7889   -0.5924 H   0  0  0  0  0  0  0  0  0  0  0  0
    0.6504   15.4246    1.3266 H   0  0  0  0  0  0  0  0  0  0  0  0
    0.8933   14.0384    0.2102 H   0  0  0  0  0  0  0  0  0  0  0  0
    2.0575   15.4063    0.2102 H   0  0  0  0  0  0  0  0  0  0  0  0
   -1.0230   15.4875   -2.4610 H   0  0  0  0  0  0  0  0  0  0  0  0
   -1.7093   13.9885   -0.4810 H   0  0  0  0  0  0  0  0  0  0  0  0
   -1.8093   13.3812   -2.2161 H   0  0  0  0  0  0  0  0  0  0  0  0
   -0.8806   11.6749   -0.4358 H   0  0  0  0  0  0  0  0  0  0  0  0
    2.3951   13.7105   -1.6317 H   0  0  0  0  0  0  0  0  0  0  0  0
    1.6743   11.9359   -4.0451 H   0  0  0  0  0  0  0  0  0  0  0  0
    3.0550   13.1153   -3.9293 H   0  0  0  0  0  0  0  0  0  0  0  0
    3.7972   10.7727   -3.6409 H   0  0  0  0  0  0  0  0  0  0  0  0
    4.0808   11.7894   -2.1740 H   0  0  0  0  0  0  0  0  0  0  0  0
    3.2352    9.6533   -1.4789 H   0  0  0  0  0  0  0  0  0  0  0  0
    1.9300    9.7300   -3.7340 H   0  0  0  0  0  0  0  0  0  0  0  0
    2.2817   11.3185    1.2564 H   0  0  0  0  0  0  0  0  0  0  0  0
    3.6651   11.0389    0.1452 H   0  0  0  0  0  0  0  0  0  0  0  0
    2.8192   12.6236    0.1452 H   0  0  0  0  0  0  0  0  0  0  0  0
    0.9239   10.0328    0.9552 H   0  0  0  0  0  0  0  0  0  0  0  0
   -0.2078   10.0590   -0.4395 H   0  0  0  0  0  0  0  0  0  0  0  0
    1.1917    8.9329   -0.4395 H   0  0  0  0  0  0  0  0  0  0  0  0
   -0.7960   13.4008   -3.9491 H   0  0  0  0  0  0  0  0  0  0  0  0
   -0.1496   14.8605   -4.7726 H   0  0  0  0  0  0  0  0  0  0  0  0
    0.7991   13.3352   -4.7726 H   0  0  0  0  0  0  0  0  0  0  0  0
    2.7355   15.1355   -3.5867 H   0  0  0  0  0  0  0  0  0  0  0  0
    1.2528   16.1638   -4.0085 H   0  0  0  0  0  0  0  0  0  0  0  0
    2.7785   16.1061   -1.3898 H   0  0  0  0  0  0  0  0  0  0  0  0
    2.6358   17.4561   -2.5831 H   0  0  0  0  0  0  0  0  0  0  0  0
   -0.7462   18.4783   -1.9859 H   0  0  0  0  0  0  0  0  0  0  0  0
    0.6405   18.4617   -3.1276 H   0  0  0  0  0  0  0  0  0  0  0  0
   -0.5392   17.1071   -3.1276 H   0  0  0  0  0  0  0  0  0  0  0  0
  1  2  1  0
  2  3  1  0
  3  4  1  0
  4  5  1  0
  5  6  1  0
  6  7  1  0
  7  8  1  0
  7  9  1  0
  2 10  1  0
 10 11  1  0
 11 12  1  0
 12 13  1  0
 13 14  1  1
 13 15  1  0
 15 16  1  0
 16 17  1  0
 17 18  2  0
 18 19  1  0
 19 20  1  0
 20 21  1  0
 21 22  1  0
 22 23  1  0
 22 24  1  0
 24 25  1  0
 24 26  1  0
 19 27  1  0
 27 28  1  6
 27 29  1  0
 29 30  1  0
 30 31  1  0
 31 32  1  6
  7  5  1  0
 31 10  1  0
 31 13  1  0
 27 15  1  0
 24 18  1  0
  1 33  1  0
  1 34  1  0
  1 35  1  0
  2 36  1  1
  3 37  1  0
  3 38  1  0
  4 39  1  0
  4 40  1  0
  5 41  1  6
  8 42  1  0
  8 43  1  0
  8 44  1  0
  9 45  1  0
  9 46  1  0
  9 47  1  0
 10 48  1  1
 11 49  1  0
 11 50  1  0
 12 51  1  0
 12 52  1  0
 14 53  1  0
 14 54  1  0
 14 55  1  0
 15 56  1  6
 16 57  1  0
 16 58  1  0
 17 59  1  0
 19 60  1  1
 20 61  1  0
 20 62  1  0
 21 63  1  0
 21 64  1  0
 22 65  1  1
 23 66  1  0
 25 67  1  0
 25 68  1  0
 25 69  1  0
 26 70  1  0
 26 71  1  0
 26 72  1  0
 28 73  1  0
 28 74  1  0
 28 75  1  0
 29 76  1  0
 29 77  1  0
 30 78  1  0
 30 79  1  0
 32 80  1  0
 32 81  1  0
 32 82  1  0
M  END
>  <meeko>  (14) 
{"is_sidechain": [false], "intermolecular_energy": 2.731, "internal_energy": -0.839}

$$$$
EPH_relaxed_0001_pdb2pqr_Repair_69_r2_0001_out
     RDKit          3D

 82 86  0  0  0  0  0  0  0  0999 V2000
    0.0220    9.2690   -2.3320 C   0  0  0  0  0  0  0  0  0  0  0  0
    0.9490   10.3580   -2.8810 C   0  0  2  0  0  0  0  0  0  0  0  0
    2.3710    9.8270   -3.1530 C   0  0  0  0  0  0  0  0  0  0  0  0
    3.2110   10.7470   -4.0430 C   0  0  0  0  0  0  0  0  0  0  0  0
    4.6030   10.9120   -3.5130 C   0  0  2  0  0  0  0  0  0  0  0  0
    5.3440   11.9890   -4.1000 O   0  0  0  0  0  0  0  0  0  0  0  0
    5.8490   10.6660   -4.3430 C   0  0  0  0  0  0  0  0  0  0  0  0
    5.7620   10.2340   -5.7730 C   0  0  0  0  0  0  0  0  0  0  0  0
    7.1350   10.3730   -3.6340 C   0  0  0  0  0  0  0  0  0  0  0  0
    1.0070   11.5300   -1.9090 C   0  0  1  0  0  0  0  0  0  0  0  0
    2.0840   11.3400   -0.8070 C   0  0  0  0  0  0  0  0  0  0  0  0
    2.6640   12.7450   -0.5020 C   0  0  0  0  0  0  0  0  0  0  0  0
    1.6840   13.7280   -1.1850 C   0  0  1  0  0  0  0  0  0  0  0  0
    0.4920   13.8650   -0.1860 C   0  0  0  0  0  0  0  0  0  0  0  0
    2.2690   15.1230   -1.5790 C   0  0  2  0  0  0  0  0  0  0  0  0
    2.7640   15.9810   -0.4010 C   0  0  0  0  0  0  0  0  0  0  0  0
    1.7430   16.8920    0.1970 C   0  0  0  0  0  0  0  0  0  0  0  0
    0.5680   17.2280   -0.3670 C   0  0  0  0  0  0  0  0  0  0  0  0
    0.2090   16.7520   -1.7810 C   0  0  1  0  0  0  0  0  0  0  0  0
   -0.3520   17.9440   -2.6010 C   0  0  0  0  0  0  0  0  0  0  0  0
   -1.5190   18.6360   -1.9040 C   0  0  0  0  0  0  0  0  0  0  0  0
   -1.1060   19.1460   -0.5260 C   0  0  2  0  0  0  0  0  0  0  0  0
   -0.1450   20.1940   -0.6910 O   0  0  0  0  0  0  0  0  0  0  0  0
   -0.5160   18.0350    0.3870 C   0  0  0  0  0  0  0  0  0  0  0  0
   -1.6410   17.0590    0.8120 C   0  0  0  0  0  0  0  0  0  0  0  0
   -0.0100   18.7080    1.6920 C   0  0  0  0  0  0  0  0  0  0  0  0
    1.3470   15.9600   -2.5560 C   0  0  1  0  0  0  0  0  0  0  0  0
    2.2810   16.9630   -3.3010 C   0  0  0  0  0  0  0  0  0  0  0  0
    0.6840   15.0630   -3.6670 C   0  0  0  0  0  0  0  0  0  0  0  0
    0.2350   13.6510   -3.2440 C   0  0  0  0  0  0  0  0  0  0  0  0
    1.3540   12.9220   -2.4930 C   0  0  2  0  0  0  0  0  0  0  0  0
    2.5590   12.7510   -3.4790 C   0  0  0  0  0  0  0  0  0  0  0  0
    0.0410    9.2914   -1.2324 H   0  0  0  0  0  0  0  0  0  0  0  0
   -1.0043    9.4490   -2.6847 H   0  0  0  0  0  0  0  0  0  0  0  0
    0.3636    8.2847   -2.6847 H   0  0  0  0  0  0  0  0  0  0  0  0
    0.5327   10.6934   -3.8423 H   0  0  0  0  0  0  0  0  0  0  0  0
    2.8880    9.7091   -2.1893 H   0  0  0  0  0  0  0  0  0  0  0  0
    2.2611    8.8730   -3.6894 H   0  0  0  0  0  0  0  0  0  0  0  0
    3.2632   10.3151   -5.0533 H   0  0  0  0  0  0  0  0  0  0  0  0
    2.7318   11.7369   -4.0615 H   0  0  0  0  0  0  0  0  0  0  0  0
    4.2933   10.5494   -2.5217 H   0  0  0  0  0  0  0  0  0  0  0  0
    5.5450    9.1566   -5.8180 H   0  0  0  0  0  0  0  0  0  0  0  0
    4.9580   10.7913   -6.2761 H   0  0  0  0  0  0  0  0  0  0  0  0
    6.7190   10.4366   -6.2761 H   0  0  0  0  0  0  0  0  0  0  0  0
    6.9711   10.4103   -2.5469 H   0  0  0  0  0  0  0  0  0  0  0  0
    7.4898    9.3710   -3.9171 H   0  0  0  0  0  0  0  0  0  0  0  0
    7.8888   11.1224   -3.9171 H   0  0  0  0  0  0  0  0  0  0  0  0
   -0.0322   11.5216   -1.5485 H   0  0  0  0  0  0  0  0  0  0  0  0
    1.6282   10.9135    0.0987 H   0  0  0  0  0  0  0  0  0  0  0  0
    2.8735   10.6506   -1.1408 H   0  0  0  0  0  0  0  0  0  0  0  0
    2.6998   12.9233    0.5829 H   0  0  0  0  0  0  0  0  0  0  0  0
    3.6943   12.8600   -0.8697 H   0  0  0  0  0  0  0  0  0  0  0  0
    0.8713   13.8214    0.8456 H   0  0  0  0  0  0  0  0  0  0  0  0
   -0.0150   14.8273   -0.3499 H   0  0  0  0  0  0  0  0  0  0  0  0
   -0.2201   13.0428   -0.3499 H   0  0  0  0  0  0  0  0  0  0  0  0
    3.1701   14.8480   -2.1467 H   0  0  0  0  0  0  0  0  0  0  0  0
    3.1183   15.3022    0.3888 H   0  0  0  0  0  0  0  0  0  0  0  0
    3.5518   16.6318   -0.8081 H   0  0  0  0  0  0  0  0  0  0  0  0
    1.9705   17.3253    1.1821 H   0  0  0  0  0  0  0  0  0  0  0  0
   -0.5698   15.9853   -1.6555 H   0  0  0  0  0  0  0  0  0  0  0  0
    0.4534   18.6777   -2.7526 H   0  0  0  0  0  0  0  0  0  0  0  0
   -0.7227   17.5462   -3.5572 H   0  0  0  0  0  0  0  0  0  0  0  0
   -1.8520   19.4860   -2.5176 H   0  0  0  0  0  0  0  0  0  0  0  0
   -2.3349   17.9088   -1.7794 H   0  0  0  0  0  0  0  0  0  0  0  0
   -2.0134   19.5144   -0.0251 H   0  0  0  0  0  0  0  0  0  0  0  0
    0.2390   20.1030   -1.5790 H   0  0  0  0  0  0  0  0  0  0  0  0
   -1.6924   17.0144    1.9099 H   0  0  0  0  0  0  0  0  0  0  0  0
   -2.6034   17.4131    0.4140 H   0  0  0  0  0  0  0  0  0  0  0  0
   -1.4262   16.0563    0.4140 H   0  0  0  0  0  0  0  0  0  0  0  0
   -0.4142   18.1704    2.5624 H   0  0  0  0  0  0  0  0  0  0  0  0
    1.0892   18.6754    1.7190 H   0  0  0  0  0  0  0  0  0  0  0  0
   -0.3466   19.7549    1.7190 H   0  0  0  0  0  0  0  0  0  0  0  0
    2.8381   17.5612   -2.5649 H   0  0  0  0  0  0  0  0  0  0  0  0
    2.9891   16.4054   -3.9317 H   0  0  0  0  0  0  0  0  0  0  0  0
    1.6745   17.6296   -3.9317 H   0  0  0  0  0  0  0  0  0  0  0  0
   -0.2028   15.5964   -4.0399 H   0  0  0  0  0  0  0  0  0  0  0  0
    1.4737   14.9016   -4.4156 H   0  0  0  0  0  0  0  0  0  0  0  0
   -0.6439   13.7343   -2.5878 H   0  0  0  0  0  0  0  0  0  0  0  0
   -0.0130   13.0760   -4.1484 H   0  0  0  0  0  0  0  0  0  0  0  0
    3.4874   12.6192   -2.9040 H   0  0  0  0  0  0  0  0  0  0  0  0
    2.3917   11.8676   -4.1127 H   0  0  0  0  0  0  0  0  0  0  0  0
    2.6441   13.6461   -4.1127 H   0  0  0  0  0  0  0  0  0  0  0  0
  1  2  1  0
  2  3  1  0
  3  4  1  0
  4  5  1  0
  5  6  1  0
  6  7  1  0
  7  8  1  0
  7  9  1  0
  2 10  1  0
 10 11  1  0
 11 12  1  0
 12 13  1  0
 13 14  1  1
 13 15  1  0
 15 16  1  0
 16 17  1  0
 17 18  2  0
 18 19  1  0
 19 20  1  0
 20 21  1  0
 21 22  1  0
 22 23  1  0
 22 24  1  0
 24 25  1  0
 24 26  1  0
 19 27  1  0
 27 28  1  6
 27 29  1  0
 29 30  1  0
 30 31  1  0
 31 32  1  6
  7  5  1  0
 31 10  1  0
 31 13  1  0
 27 15  1  0
 24 18  1  0
  1 33  1  0
  1 34  1  0
  1 35  1  0
  2 36  1  6
  3 37  1  0
  3 38  1  0
  4 39  1  0
  4 40  1  0
  5 41  1  1
  8 42  1  0
  8 43  1  0
  8 44  1  0
  9 45  1  0
  9 46  1  0
  9 47  1  0
 10 48  1  1
 11 49  1  0
 11 50  1  0
 12 51  1  0
 12 52  1  0
 14 53  1  0
 14 54  1  0
 14 55  1  0
 15 56  1  6
 16 57  1  0
 16 58  1  0
 17 59  1  0
 19 60  1  1
 20 61  1  0
 20 62  1  0
 21 63  1  0
 21 64  1  0
 22 65  1  1
 23 66  1  0
 25 67  1  0
 25 68  1  0
 25 69  1  0
 26 70  1  0
 26 71  1  0
 26 72  1  0
 28 73  1  0
 28 74  1  0
 28 75  1  0
 29 76  1  0
 29 77  1  0
 30 78  1  0
 30 79  1  0
 32 80  1  0
 32 81  1  0
 32 82  1  0
M  END
>  <meeko>  (15) 
{"is_sidechain": [false], "intermolecular_energy": 2.731, "internal_energy": -0.839}

$$$$
EPH_relaxed_0001_pdb2pqr_Repair_69_r2_0001_out
     RDKit          3D

 82 86  0  0  0  0  0  0  0  0999 V2000
    2.8040   11.4190   -5.5440 C   0  0  0  0  0  0  0  0  0  0  0  0
    1.9130   11.1120   -4.3370 C   0  0  2  0  0  0  0  0  0  0  0  0
    0.8000   10.1010   -4.6790 C   0  0  0  0  0  0  0  0  0  0  0  0
   -0.2620    9.9610   -3.5860 C   0  0  0  0  0  0  0  0  0  0  0  0
    0.1990    9.0650   -2.4760 C   0  0  2  0  0  0  0  0  0  0  0  0
   -0.7160    8.0160   -2.1350 O   0  0  0  0  0  0  0  0  0  0  0  0
   -0.4740    9.0010   -1.1180 C   0  0  0  0  0  0  0  0  0  0  0  0
   -1.6650    9.8490   -0.7970 C   0  0  0  0  0  0  0  0  0  0  0  0
    0.3120    8.4850    0.0460 C   0  0  0  0  0  0  0  0  0  0  0  0
    1.3000   12.4000   -3.8020 C   0  0  1  0  0  0  0  0  0  0  0  0
   -0.2420   12.3110   -3.6530 C   0  0  0  0  0  0  0  0  0  0  0  0
   -0.6200   13.1470   -2.4030 C   0  0  0  0  0  0  0  0  0  0  0  0
    0.6570   13.9530   -2.0720 C   0  0  1  0  0  0  0  0  0  0  0  0
    0.6290   15.1700   -3.0500 C   0  0  0  0  0  0  0  0  0  0  0  0
    0.8200   14.4110   -0.5860 C   0  0  2  0  0  0  0  0  0  0  0  0
   -0.2670   15.3740   -0.0770 C   0  0  0  0  0  0  0  0  0  0  0  0
    0.0280   16.8250   -0.2630 C   0  0  0  0  0  0  0  0  0  0  0  0
    1.2350   17.3470   -0.5520 C   0  0  0  0  0  0  0  0  0  0  0  0
    2.4810   16.4550   -0.6260 C   0  0  1  0  0  0  0  0  0  0  0  0
    3.6420   17.1230    0.1580 C   0  0  0  0  0  0  0  0  0  0  0  0
    3.9170   18.5500   -0.3070 C   0  0  0  0  0  0  0  0  0  0  0  0
    2.6710   19.4190   -0.1640 C   0  0  2  0  0  0  0  0  0  0  0  0
    2.3720   19.5710    1.2270 O   0  0  0  0  0  0  0  0  0  0  0  0
    1.4320   18.8420   -0.9040 C   0  0  0  0  0  0  0  0  0  0  0  0
    1.6400   18.9580   -2.4340 C   0  0  0  0  0  0  0  0  0  0  0  0
    0.2110   19.7380   -0.5630 C   0  0  0  0  0  0  0  0  0  0  0  0
    2.2690   14.9330   -0.2230 C   0  0  1  0  0  0  0  0  0  0  0  0
    2.4310   14.7620    1.3180 C   0  0  0  0  0  0  0  0  0  0  0  0
    3.4020   14.0630   -0.8870 C   0  0  0  0  0  0  0  0  0  0  0  0
    3.1320   13.5400   -2.3110 C   0  0  0  0  0  0  0  0  0  0  0  0
    1.7540   12.8750   -2.3990 C   0  0  2  0  0  0  0  0  0  0  0  0
    1.7600   11.6350   -1.4420 C   0  0  0  0  0  0  0  0  0  0  0  0
    3.7902   11.7588   -5.1948 H   0  0  0  0  0  0  0  0  0  0  0  0
    2.9235   10.5102   -6.1521 H   0  0  0  0  0  0  0  0  0  0  0  0
    2.3383   12.2085   -6.1521 H   0  0  0  0  0  0  0  0  0  0  0  0
    2.5487   10.6545   -3.5647 H   0  0  0  0  0  0  0  0  0  0  0  0
    0.3045   10.4300   -5.6043 H   0  0  0  0  0  0  0  0  0  0  0  0
    1.2813    9.1178   -4.7869 H   0  0  0  0  0  0  0  0  0  0  0  0
   -0.4814   10.9565   -3.1727 H   0  0  0  0  0  0  0  0  0  0  0  0
   -1.1606    9.5142   -4.0364 H   0  0  0  0  0  0  0  0  0  0  0  0
    1.2497    9.1984   -2.7729 H   0  0  0  0  0  0  0  0  0  0  0  0
   -1.7756    9.9277    0.2946 H   0  0  0  0  0  0  0  0  0  0  0  0
   -1.5264   10.8529   -1.2249 H   0  0  0  0  0  0  0  0  0  0  0  0
   -2.5683    9.3896   -1.2249 H   0  0  0  0  0  0  0  0  0  0  0  0
   -0.1698    8.8013    0.9829 H   0  0  0  0  0  0  0  0  0  0  0  0
    0.3489    7.3864    0.0054 H   0  0  0  0  0  0  0  0  0  0  0  0
    1.3347    8.8880    0.0054 H   0  0  0  0  0  0  0  0  0  0  0  0
    1.6523   13.1041   -4.5702 H   0  0  0  0  0  0  0  0  0  0  0  0
   -0.7333   12.7229   -4.5469 H   0  0  0  0  0  0  0  0  0  0  0  0
   -0.5684   11.2663   -3.5428 H   0  0  0  0  0  0  0  0  0  0  0  0
   -1.4586   13.8228   -2.6269 H   0  0  0  0  0  0  0  0  0  0  0  0
   -0.9450   12.5165   -1.5622 H   0  0  0  0  0  0  0  0  0  0  0  0
    0.6075   16.1051   -2.4712 H   0  0  0  0  0  0  0  0  0  0  0  0
    1.5278   15.1517   -3.6839 H   0  0  0  0  0  0  0  0  0  0  0  0
   -0.2680   15.1104   -3.6839 H   0  0  0  0  0  0  0  0  0  0  0  0
    0.6711   13.4719   -0.0330 H   0  0  0  0  0  0  0  0  0  0  0  0
   -1.2007   15.1458   -0.6120 H   0  0  0  0  0  0  0  0  0  0  0  0
   -0.3308   15.2136    1.0094 H   0  0  0  0  0  0  0  0  0  0  0  0
   -0.8116   17.5274   -0.1549 H   0  0  0  0  0  0  0  0  0  0  0  0
    2.7420   16.3839   -1.6922 H   0  0  0  0  0  0  0  0  0  0  0  0
    3.3798   17.1445    1.2261 H   0  0  0  0  0  0  0  0  0  0  0  0
    4.5514   16.5315   -0.0237 H   0  0  0  0  0  0  0  0  0  0  0  0
    4.7264   18.9778    0.3028 H   0  0  0  0  0  0  0  0  0  0  0  0
    4.2076   18.5241   -1.3676 H   0  0  0  0  0  0  0  0  0  0  0  0
    2.8915   20.3898   -0.6320 H   0  0  0  0  0  0  0  0  0  0  0  0
    2.0900   20.4910    1.3690 H   0  0  0  0  0  0  0  0  0  0  0  0
    2.5842   19.4846   -2.6368 H   0  0  0  0  0  0  0  0  0  0  0  0
    1.6792   17.9515   -2.8761 H   0  0  0  0  0  0  0  0  0  0  0  0
    0.8043   19.5203   -2.8761 H   0  0  0  0  0  0  0  0  0  0  0  0
    0.1063   19.8149    0.5293 H   0  0  0  0  0  0  0  0  0  0  0  0
    0.3621   20.7411   -0.9883 H   0  0  0  0  0  0  0  0  0  0  0  0
   -0.7006   19.2929   -0.9883 H   0  0  0  0  0  0  0  0  0  0  0  0
    1.7640   15.4660    1.8372 H   0  0  0  0  0  0  0  0  0  0  0  0
    2.1696   13.7320    1.6021 H   0  0  0  0  0  0  0  0  0  0  0  0
    3.4736   14.9674    1.6021 H   0  0  0  0  0  0  0  0  0  0  0  0
    4.3138   14.6772   -0.9254 H   0  0  0  0  0  0  0  0  0  0  0  0
    3.4786   13.1628   -0.2595 H   0  0  0  0  0  0  0  0  0  0  0  0
    3.1707   14.3825   -3.0172 H   0  0  0  0  0  0  0  0  0  0  0  0
    3.8989   12.7923   -2.5613 H   0  0  0  0  0  0  0  0  0  0  0  0
    1.7583   11.9784   -0.3970 H   0  0  0  0  0  0  0  0  0  0  0  0
    0.8648   11.0236   -1.6285 H   0  0  0  0  0  0  0  0  0  0  0  0
    2.6611   11.0323   -1.6285 H   0  0  0  0  0  0  0  0  0  0  0  0
  1  2  1  0
  2  3  1  0
  3  4  1  0
  4  5  1  0
  5  6  1  0
  6  7  1  0
  7  8  1  0
  7  9  1  0
  2 10  1  0
 10 11  1  0
 11 12  1  0
 12 13  1  0
 13 14  1  6
 13 15  1  0
 15 16  1  0
 16 17  1  0
 17 18  2  0
 18 19  1  0
 19 20  1  0
 20 21  1  0
 21 22  1  0
 22 23  1  0
 22 24  1  0
 24 25  1  0
 24 26  1  0
 19 27  1  0
 27 28  1  1
 27 29  1  0
 29 30  1  0
 30 31  1  0
 31 32  1  1
  7  5  1  0
 31 10  1  0
 31 13  1  0
 27 15  1  0
 24 18  1  0
  1 33  1  0
  1 34  1  0
  1 35  1  0
  2 36  1  1
  3 37  1  0
  3 38  1  0
  4 39  1  0
  4 40  1  0
  5 41  1  1
  8 42  1  0
  8 43  1  0
  8 44  1  0
  9 45  1  0
  9 46  1  0
  9 47  1  0
 10 48  1  6
 11 49  1  0
 11 50  1  0
 12 51  1  0
 12 52  1  0
 14 53  1  0
 14 54  1  0
 14 55  1  0
 15 56  1  1
 16 57  1  0
 16 58  1  0
 17 59  1  0
 19 60  1  6
 20 61  1  0
 20 62  1  0
 21 63  1  0
 21 64  1  0
 22 65  1  6
 23 66  1  0
 25 67  1  0
 25 68  1  0
 25 69  1  0
 26 70  1  0
 26 71  1  0
 26 72  1  0
 28 73  1  0
 28 74  1  0
 28 75  1  0
 29 76  1  0
 29 77  1  0
 30 78  1  0
 30 79  1  0
 32 80  1  0
 32 81  1  0
 32 82  1  0
M  END
>  <meeko>  (16) 
{"is_sidechain": [false], "intermolecular_energy": 2.731, "internal_energy": -0.839}

$$$$
EPH_relaxed_0001_pdb2pqr_Repair_69_r2_0001_out
     RDKit          3D

 82 86  0  0  0  0  0  0  0  0999 V2000
    0.6690   19.0800   -2.3820 C   0  0  0  0  0  0  0  0  0  0  0  0
    0.2740   18.0950   -1.2780 C   0  0  2  0  0  0  0  0  0  0  0  0
    0.8040   18.5270    0.1040 C   0  0  0  0  0  0  0  0  0  0  0  0
    2.1460   19.2640    0.0450 C   0  0  0  0  0  0  0  0  0  0  0  0
    2.8210   19.2920    1.3830 C   0  0  2  0  0  0  0  0  0  0  0  0
    3.9330   20.1920    1.4730 O   0  0  0  0  0  0  0  0  0  0  0  0
    4.2350   18.7950    1.6170 C   0  0  0  0  0  0  0  0  0  0  0  0
    5.0590   18.2320    0.5010 C   0  0  0  0  0  0  0  0  0  0  0  0
    4.6360   18.4050    3.0050 C   0  0  0  0  0  0  0  0  0  0  0  0
    0.7860   16.7000   -1.6190 C   0  0  1  0  0  0  0  0  0  0  0  0
    2.3010   16.6860   -1.9560 C   0  0  0  0  0  0  0  0  0  0  0  0
    2.8650   15.3440   -1.4220 C   0  0  0  0  0  0  0  0  0  0  0  0
    1.6130   14.4950   -1.0990 C   0  0  1  0  0  0  0  0  0  0  0  0
    1.1630   13.9050   -2.4720 C   0  0  0  0  0  0  0  0  0  0  0  0
    1.7950   13.3770   -0.0220 C   0  0  2  0  0  0  0  0  0  0  0  0
    2.8030   12.2740   -0.3910 C   0  0  0  0  0  0  0  0  0  0  0  0
    2.2270   11.0980   -1.1080 C   0  0  0  0  0  0  0  0  0  0  0  0
    0.9180   10.7980   -1.1940 C   0  0  0  0  0  0  0  0  0  0  0  0
   -0.1320   11.6300   -0.4450 C   0  0  1  0  0  0  0  0  0  0  0  0
   -1.1240   10.6820    0.2780 C   0  0  0  0  0  0  0  0  0  0  0  0
   -1.7530    9.6630   -0.6670 C   0  0  0  0  0  0  0  0  0  0  0  0
   -0.6810    8.8160   -1.3480 C   0  0  2  0  0  0  0  0  0  0  0  0
   -0.0380    8.0050   -0.3600 O   0  0  0  0  0  0  0  0  0  0  0  0
    0.3810    9.6640   -2.1020 C   0  0  0  0  0  0  0  0  0  0  0  0
   -0.2600   10.3070   -3.3560 C   0  0  0  0  0  0  0  0  0  0  0  0
    1.4800    8.6980   -2.6220 C   0  0  0  0  0  0  0  0  0  0  0  0
    0.4370   12.7640    0.5120 C   0  0  1  0  0  0  0  0  0  0  0  0
    0.7420   12.1680    1.9210 C   0  0  0  0  0  0  0  0  0  0  0  0
   -0.6720   13.8610    0.7250 C   0  0  0  0  0  0  0  0  0  0  0  0
   -0.7240   15.0050   -0.3060 C   0  0  0  0  0  0  0  0  0  0  0  0
    0.6660   15.6110   -0.5240 C   0  0  2  0  0  0  0  0  0  0  0  0
    1.1350   16.2320    0.8350 C   0  0  0  0  0  0  0  0  0  0  0  0
    1.0419   20.0098   -1.9276 H   0  0  0  0  0  0  0  0  0  0  0  0
    1.4581   18.6346   -3.0057 H   0  0  0  0  0  0  0  0  0  0  0  0
   -0.2092   19.3032   -3.0057 H   0  0  0  0  0  0  0  0  0  0  0  0
   -0.8245   18.0851   -1.2214 H   0  0  0  0  0  0  0  0  0  0  0  0
    0.0618   19.1932    0.5680 H   0  0  0  0  0  0  0  0  0  0  0  0
    0.9663   17.6090    0.6879 H   0  0  0  0  0  0  0  0  0  0  0  0
    2.8022   18.7531   -0.6750 H   0  0  0  0  0  0  0  0  0  0  0  0
    1.9545   20.3019   -0.2648 H   0  0  0  0  0  0  0  0  0  0  0  0
    1.8703   19.0791    1.8938 H   0  0  0  0  0  0  0  0  0  0  0  0
    5.8991   17.6580    0.9190 H   0  0  0  0  0  0  0  0  0  0  0  0
    4.4350   17.5706   -0.1180 H   0  0  0  0  0  0  0  0  0  0  0  0
    5.4483   19.0538   -0.1180 H   0  0  0  0  0  0  0  0  0  0  0  0
    4.0447   18.9801    3.7327 H   0  0  0  0  0  0  0  0  0  0  0  0
    4.4528   17.3303    3.1513 H   0  0  0  0  0  0  0  0  0  0  0  0
    5.7052   18.6180    3.1513 H   0  0  0  0  0  0  0  0  0  0  0  0
    0.1211   16.4603   -2.4619 H   0  0  0  0  0  0  0  0  0  0  0  0
    2.4478   16.7525   -3.0441 H   0  0  0  0  0  0  0  0  0  0  0  0
    2.8161   17.5422   -1.4960 H   0  0  0  0  0  0  0  0  0  0  0  0
    3.4821   14.8503   -2.1872 H   0  0  0  0  0  0  0  0  0  0  0  0
    3.5120   15.4837   -0.5435 H   0  0  0  0  0  0  0  0  0  0  0  0
    0.5040   13.0409   -2.3015 H   0  0  0  0  0  0  0  0  0  0  0  0
    0.6198   14.6738   -3.0411 H   0  0  0  0  0  0  0  0  0  0  0  0
    2.0481   13.5844   -3.0411 H   0  0  0  0  0  0  0  0  0  0  0  0
    2.2476   13.9276    0.8158 H   0  0  0  0  0  0  0  0  0  0  0  0
    3.5747   12.7204   -1.0353 H   0  0  0  0  0  0  0  0  0  0  0  0
    3.1942   11.8879    0.5619 H   0  0  0  0  0  0  0  0  0  0  0  0
    2.9328   10.4189   -1.6087 H   0  0  0  0  0  0  0  0  0  0  0  0
   -0.6642   12.2114   -1.2123 H   0  0  0  0  0  0  0  0  0  0  0  0
   -0.5830   10.1423    1.0692 H   0  0  0  0  0  0  0  0  0  0  0  0
   -1.9351   11.2995    0.6913 H   0  0  0  0  0  0  0  0  0  0  0  0
   -2.4214    9.0044   -0.0930 H   0  0  0  0  0  0  0  0  0  0  0  0
   -2.3174   10.2037   -1.4410 H   0  0  0  0  0  0  0  0  0  0  0  0
   -1.1817    8.1953   -2.1057 H   0  0  0  0  0  0  0  0  0  0  0  0
   -0.7100    7.7480    0.2930 H   0  0  0  0  0  0  0  0  0  0  0  0
   -1.0049   11.0542   -3.0448 H   0  0  0  0  0  0  0  0  0  0  0  0
    0.5208   10.7959   -3.9571 H   0  0  0  0  0  0  0  0  0  0  0  0
   -0.7514    9.5277   -3.9571 H   0  0  0  0  0  0  0  0  0  0  0  0
    2.0003    8.2406   -1.7676 H   0  0  0  0  0  0  0  0  0  0  0  0
    1.0161    7.9100   -3.2334 H   0  0  0  0  0  0  0  0  0  0  0  0
    2.2020    9.2591   -3.2334 H   0  0  0  0  0  0  0  0  0  0  0  0
    0.3870   12.8618    2.6973 H   0  0  0  0  0  0  0  0  0  0  0  0
    0.2275   11.2018    2.0296 H   0  0  0  0  0  0  0  0  0  0  0  0
    1.8266   12.0201    2.0296 H   0  0  0  0  0  0  0  0  0  0  0  0
   -1.6484   13.3546    0.7099 H   0  0  0  0  0  0  0  0  0  0  0  0
   -0.4188   14.3450    1.6798 H   0  0  0  0  0  0  0  0  0  0  0  0
   -1.0986   14.6108   -1.2622 H   0  0  0  0  0  0  0  0  0  0  0  0
   -1.3929   15.7905    0.0755 H   0  0  0  0  0  0  0  0  0  0  0  0
    0.7024   15.6592    1.6685 H   0  0  0  0  0  0  0  0  0  0  0  0
    2.2327   16.1952    0.8955 H   0  0  0  0  0  0  0  0  0  0  0  0
    0.7993   17.2778    0.8955 H   0  0  0  0  0  0  0  0  0  0  0  0
  1  2  1  0
  2  3  1  0
  3  4  1  0
  4  5  1  0
  5  6  1  0
  6  7  1  0
  7  8  1  0
  7  9  1  0
  2 10  1  0
 10 11  1  0
 11 12  1  0
 12 13  1  0
 13 14  1  6
 13 15  1  0
 15 16  1  0
 16 17  1  0
 17 18  2  0
 18 19  1  0
 19 20  1  0
 20 21  1  0
 21 22  1  0
 22 23  1  0
 22 24  1  0
 24 25  1  0
 24 26  1  0
 19 27  1  0
 27 28  1  1
 27 29  1  0
 29 30  1  0
 30 31  1  0
 31 32  1  1
  7  5  1  0
 31 10  1  0
 31 13  1  0
 27 15  1  0
 24 18  1  0
  1 33  1  0
  1 34  1  0
  1 35  1  0
  2 36  1  1
  3 37  1  0
  3 38  1  0
  4 39  1  0
  4 40  1  0
  5 41  1  1
  8 42  1  0
  8 43  1  0
  8 44  1  0
  9 45  1  0
  9 46  1  0
  9 47  1  0
 10 48  1  6
 11 49  1  0
 11 50  1  0
 12 51  1  0
 12 52  1  0
 14 53  1  0
 14 54  1  0
 14 55  1  0
 15 56  1  1
 16 57  1  0
 16 58  1  0
 17 59  1  0
 19 60  1  6
 20 61  1  0
 20 62  1  0
 21 63  1  0
 21 64  1  0
 22 65  1  6
 23 66  1  0
 25 67  1  0
 25 68  1  0
 25 69  1  0
 26 70  1  0
 26 71  1  0
 26 72  1  0
 28 73  1  0
 28 74  1  0
 28 75  1  0
 29 76  1  0
 29 77  1  0
 30 78  1  0
 30 79  1  0
 32 80  1  0
 32 81  1  0
 32 82  1  0
M  END
>  <meeko>  (17) 
{"is_sidechain": [false], "intermolecular_energy": 2.731, "internal_energy": -0.839}

$$$$
EPH_relaxed_0001_pdb2pqr_Repair_69_r2_0001_out
     RDKit          3D

 82 86  0  0  0  0  0  0  0  0999 V2000
    0.9110   14.9100   -2.6410 C   0  0  0  0  0  0  0  0  0  0  0  0
    1.1700   14.2340   -3.9900 C   0  0  2  0  0  0  0  0  0  0  0  0
    0.4630   14.9620   -5.1510 C   0  0  0  0  0  0  0  0  0  0  0  0
    0.9820   14.5640   -6.5350 C   0  0  0  0  0  0  0  0  0  0  0  0
    0.7560   15.6490   -7.5440 C   0  0  2  0  0  0  0  0  0  0  0  0
    0.4230   15.1830   -8.8590 O   0  0  0  0  0  0  0  0  0  0  0  0
    1.6690   15.8890   -8.7330 C   0  0  0  0  0  0  0  0  0  0  0  0
    2.8770   15.0390   -8.9730 C   0  0  0  0  0  0  0  0  0  0  0  0
    1.6640   17.2400   -9.3770 C   0  0  0  0  0  0  0  0  0  0  0  0
    0.7200   12.7790   -3.9370 C   0  0  1  0  0  0  0  0  0  0  0  0
    1.8490   11.7890   -4.3290 C   0  0  0  0  0  0  0  0  0  0  0  0
    1.6560   10.5210   -3.4580 C   0  0  0  0  0  0  0  0  0  0  0  0
    0.2460   10.6830   -2.8420 C   0  0  1  0  0  0  0  0  0  0  0  0
   -0.7370   10.2170   -3.9610 C   0  0  0  0  0  0  0  0  0  0  0  0
   -0.0110    9.9280   -1.4970 C   0  0  2  0  0  0  0  0  0  0  0  0
    0.0930    8.3950   -1.5790 C   0  0  0  0  0  0  0  0  0  0  0  0
   -1.1810    7.6860   -1.8960 C   0  0  0  0  0  0  0  0  0  0  0  0
   -2.4140    8.2230   -1.8260 C   0  0  0  0  0  0  0  0  0  0  0  0
   -2.6230    9.6490   -1.3010 C   0  0  1  0  0  0  0  0  0  0  0  0
   -3.7970    9.6590   -0.2860 C   0  0  0  0  0  0  0  0  0  0  0  0
   -5.0740    9.0560   -0.8630 C   0  0  0  0  0  0  0  0  0  0  0  0
   -4.8400    7.6190   -1.3210 C   0  0  2  0  0  0  0  0  0  0  0  0
   -4.5750    6.8070   -0.1730 O   0  0  0  0  0  0  0  0  0  0  0  0
   -3.6740    7.4830   -2.3390 C   0  0  0  0  0  0  0  0  0  0  0  0
   -4.0890    8.1090   -3.6930 C   0  0  0  0  0  0  0  0  0  0  0  0
   -3.4520    5.9700   -2.6110 C   0  0  0  0  0  0  0  0  0  0  0  0
   -1.3270   10.3790   -0.7420 C   0  0  1  0  0  0  0  0  0  0  0  0
   -1.1220   10.0220    0.7620 C   0  0  0  0  0  0  0  0  0  0  0  0
   -1.5480   11.9370   -0.8030 C   0  0  0  0  0  0  0  0  0  0  0  0
   -1.1630   12.6420   -2.1170 C   0  0  0  0  0  0  0  0  0  0  0  0
    0.2420   12.2320   -2.5690 C   0  0  2  0  0  0  0  0  0  0  0  0
    1.2550   12.7070   -1.4720 C   0  0  0  0  0  0  0  0  0  0  0  0
    1.1759   14.2186   -1.8275 H   0  0  0  0  0  0  0  0  0  0  0  0
    1.5242   15.8199   -2.5631 H   0  0  0  0  0  0  0  0  0  0  0  0
   -0.1532   15.1772   -2.5631 H   0  0  0  0  0  0  0  0  0  0  0  0
    2.2522   14.2822   -4.1811 H   0  0  0  0  0  0  0  0  0  0  0  0
   -0.6112   14.7302   -5.1032 H   0  0  0  0  0  0  0  0  0  0  0  0
    0.6669   16.0359   -5.0282 H   0  0  0  0  0  0  0  0  0  0  0  0
    2.0607   14.3600   -6.4663 H   0  0  0  0  0  0  0  0  0  0  0  0
    0.4322   13.6697   -6.8636 H   0  0  0  0  0  0  0  0  0  0  0  0
    0.3630   16.3222   -6.7679 H   0  0  0  0  0  0  0  0  0  0  0  0
    3.3090   14.7350   -8.0081 H   0  0  0  0  0  0  0  0  0  0  0  0
    2.5881   14.1441   -9.5436 H   0  0  0  0  0  0  0  0  0  0  0  0
    3.6218   15.6131   -9.5436 H   0  0  0  0  0  0  0  0  0  0  0  0
    1.6611   18.0172   -8.5986 H   0  0  0  0  0  0  0  0  0  0  0  0
    2.5617   17.3512  -10.0029 H   0  0  0  0  0  0  0  0  0  0  0  0
    0.7655   17.3445  -10.0029 H   0  0  0  0  0  0  0  0  0  0  0  0
   -0.1240   12.8219   -4.6411 H   0  0  0  0  0  0  0  0  0  0  0  0
    1.7727   11.5309   -5.3956 H   0  0  0  0  0  0  0  0  0  0  0  0
    2.8405   12.2352   -4.1620 H   0  0  0  0  0  0  0  0  0  0  0  0
    1.7077    9.6130   -4.0768 H   0  0  0  0  0  0  0  0  0  0  0  0
    2.4376   10.4184   -2.6908 H   0  0  0  0  0  0  0  0  0  0  0  0
   -1.6399    9.7890   -3.5010 H   0  0  0  0  0  0  0  0  0  0  0  0
   -1.0167   11.0784   -4.5854 H   0  0  0  0  0  0  0  0  0  0  0  0
   -0.2473    9.4552   -4.5854 H   0  0  0  0  0  0  0  0  0  0  0  0
    0.8389   10.2520   -0.8783 H   0  0  0  0  0  0  0  0  0  0  0  0
    0.8248    8.1453   -2.3614 H   0  0  0  0  0  0  0  0  0  0  0  0
    0.3885    8.0558   -0.5752 H   0  0  0  0  0  0  0  0  0  0  0  0
   -1.1068    6.6355   -2.2138 H   0  0  0  0  0  0  0  0  0  0  0  0
   -2.8811   10.2616   -2.1774 H   0  0  0  0  0  0  0  0  0  0  0  0
   -3.5019    9.0781    0.6003 H   0  0  0  0  0  0  0  0  0  0  0  0
   -4.0087   10.7078   -0.0305 H   0  0  0  0  0  0  0  0  0  0  0  0
   -5.8572    9.0647   -0.0906 H   0  0  0  0  0  0  0  0  0  0  0  0
   -5.3840    9.6554   -1.7317 H   0  0  0  0  0  0  0  0  0  0  0  0
   -5.7501    7.2857   -1.8413 H   0  0  0  0  0  0  0  0  0  0  0  0
   -5.0240    5.9540   -0.3060 H   0  0  0  0  0  0  0  0  0  0  0  0
   -4.6884    9.0131   -3.5106 H   0  0  0  0  0  0  0  0  0  0  0  0
   -3.1881    8.3756   -4.2652 H   0  0  0  0  0  0  0  0  0  0  0  0
   -4.6853    7.3830   -4.2652 H   0  0  0  0  0  0  0  0  0  0  0  0
   -3.3732    5.4331   -1.6541 H   0  0  0  0  0  0  0  0  0  0  0  0
   -4.3014    5.5723   -3.1857 H   0  0  0  0  0  0  0  0  0  0  0  0
   -2.5241    5.8331   -3.1857 H   0  0  0  0  0  0  0  0  0  0  0  0
   -1.5719   10.8055    1.3895 H   0  0  0  0  0  0  0  0  0  0  0  0
   -1.6036    9.0571    0.9788 H   0  0  0  0  0  0  0  0  0  0  0  0
   -0.0459    9.9516    0.9788 H   0  0  0  0  0  0  0  0  0  0  0  0
   -2.6161   12.1289   -0.6229 H   0  0  0  0  0  0  0  0  0  0  0  0
   -0.8703   12.3538   -0.0434 H   0  0  0  0  0  0  0  0  0  0  0  0
   -1.8868   12.3668   -2.8983 H   0  0  0  0  0  0  0  0  0  0  0  0
   -1.1733   13.7288   -1.9475 H   0  0  0  0  0  0  0  0  0  0  0  0
    0.8347   12.5099   -0.4748 H   0  0  0  0  0  0  0  0  0  0  0  0
    2.2021   12.1591   -1.5856 H   0  0  0  0  0  0  0  0  0  0  0  0
    1.4394   13.7855   -1.5856 H   0  0  0  0  0  0  0  0  0  0  0  0
  1  2  1  0
  2  3  1  0
  3  4  1  0
  4  5  1  0
  5  6  1  0
  6  7  1  0
  7  8  1  0
  7  9  1  0
  2 10  1  0
 10 11  1  0
 11 12  1  0
 12 13  1  0
 13 14  1  6
 13 15  1  0
 15 16  1  0
 16 17  1  0
 17 18  2  0
 18 19  1  0
 19 20  1  0
 20 21  1  0
 21 22  1  0
 22 23  1  0
 22 24  1  0
 24 25  1  0
 24 26  1  0
 19 27  1  0
 27 28  1  1
 27 29  1  0
 29 30  1  0
 30 31  1  0
 31 32  1  1
  7  5  1  0
 31 10  1  0
 31 13  1  0
 27 15  1  0
 24 18  1  0
  1 33  1  0
  1 34  1  0
  1 35  1  0
  2 36  1  6
  3 37  1  0
  3 38  1  0
  4 39  1  0
  4 40  1  0
  5 41  1  1
  8 42  1  0
  8 43  1  0
  8 44  1  0
  9 45  1  0
  9 46  1  0
  9 47  1  0
 10 48  1  6
 11 49  1  0
 11 50  1  0
 12 51  1  0
 12 52  1  0
 14 53  1  0
 14 54  1  0
 14 55  1  0
 15 56  1  1
 16 57  1  0
 16 58  1  0
 17 59  1  0
 19 60  1  6
 20 61  1  0
 20 62  1  0
 21 63  1  0
 21 64  1  0
 22 65  1  6
 23 66  1  0
 25 67  1  0
 25 68  1  0
 25 69  1  0
 26 70  1  0
 26 71  1  0
 26 72  1  0
 28 73  1  0
 28 74  1  0
 28 75  1  0
 29 76  1  0
 29 77  1  0
 30 78  1  0
 30 79  1  0
 32 80  1  0
 32 81  1  0
 32 82  1  0
M  END
>  <meeko>  (18) 
{"is_sidechain": [false], "intermolecular_energy": 2.731, "internal_energy": -0.839}

$$$$
EPH_relaxed_0001_pdb2pqr_Repair_69_r2_0001_out
     RDKit          3D

 82 86  0  0  0  0  0  0  0  0999 V2000
    0.1350   17.6080   -2.4290 C   0  0  0  0  0  0  0  0  0  0  0  0
   -0.1020   16.7620   -1.1750 C   0  0  2  0  0  0  0  0  0  0  0  0
   -0.0570   17.6070    0.1140 C   0  0  0  0  0  0  0  0  0  0  0  0
    0.8360   18.8460    0.0060 C   0  0  0  0  0  0  0  0  0  0  0  0
    2.2900   18.4850    0.0290 C   0  0  2  0  0  0  0  0  0  0  0  0
    2.7180   17.7990    1.2130 O   0  0  0  0  0  0  0  0  0  0  0  0
    3.2890   19.0990    0.9930 C   0  0  0  0  0  0  0  0  0  0  0  0
    2.8730   20.1240    2.0000 C   0  0  0  0  0  0  0  0  0  0  0  0
    4.7420   19.0660    0.6340 C   0  0  0  0  0  0  0  0  0  0  0  0
    0.9310   15.6430   -1.1010 C   0  0  1  0  0  0  0  0  0  0  0  0
    0.9760   14.9630    0.2930 C   0  0  0  0  0  0  0  0  0  0  0  0
    1.2850   13.4630    0.0500 C   0  0  0  0  0  0  0  0  0  0  0  0
    1.7330   13.3930   -1.4290 C   0  0  1  0  0  0  0  0  0  0  0  0
    3.2310   13.8290   -1.4150 C   0  0  0  0  0  0  0  0  0  0  0  0
    1.5390   12.0160   -2.1450 C   0  0  2  0  0  0  0  0  0  0  0  0
    2.3420   10.8500   -1.5440 C   0  0  0  0  0  0  0  0  0  0  0  0
    3.7010   10.6440   -2.1280 C   0  0  0  0  0  0  0  0  0  0  0  0
    4.1460   11.1770   -3.2810 C   0  0  0  0  0  0  0  0  0  0  0  0
    3.2150   12.0040   -4.1770 C   0  0  1  0  0  0  0  0  0  0  0  0
    3.3710   11.5430   -5.6500 C   0  0  0  0  0  0  0  0  0  0  0  0
    4.8200   11.5790   -6.1240 C   0  0  0  0  0  0  0  0  0  0  0  0
    5.7040   10.7000   -5.2430 C   0  0  2  0  0  0  0  0  0  0  0  0
    5.3250    9.3320   -5.4290 O   0  0  0  0  0  0  0  0  0  0  0  0
    5.6220   11.0640   -3.7350 C   0  0  0  0  0  0  0  0  0  0  0  0
    6.3110   12.4300   -3.4910 C   0  0  0  0  0  0  0  0  0  0  0  0
    6.4480   10.0140   -2.9440 C   0  0  0  0  0  0  0  0  0  0  0  0
    1.6950   12.0760   -3.7180 C   0  0  1  0  0  0  0  0  0  0  0  0
    0.9070   10.8580   -4.2910 C   0  0  0  0  0  0  0  0  0  0  0  0
    1.0320   13.3640   -4.3370 C   0  0  0  0  0  0  0  0  0  0  0  0
    1.1550   14.6670   -3.5240 C   0  0  0  0  0  0  0  0  0  0  0  0
    0.7510   14.4430   -2.0640 C   0  0  2  0  0  0  0  0  0  0  0  0
   -0.7590   14.0250   -2.0450 C   0  0  0  0  0  0  0  0  0  0  0  0
    0.4209   18.6285   -2.1342 H   0  0  0  0  0  0  0  0  0  0  0  0
    0.9420   17.1594   -3.0268 H   0  0  0  0  0  0  0  0  0  0  0  0
   -0.7877   17.6439   -3.0268 H   0  0  0  0  0  0  0  0  0  0  0  0
   -1.1117   16.3323   -1.2518 H   0  0  0  0  0  0  0  0  0  0  0  0
   -1.0799   17.9355    0.3499 H   0  0  0  0  0  0  0  0  0  0  0  0
    0.3709   16.9696    0.9018 H   0  0  0  0  0  0  0  0  0  0  0  0
    0.6125   19.3653   -0.9376 H   0  0  0  0  0  0  0  0  0  0  0  0
    0.6298   19.4937    0.8709 H   0  0  0  0  0  0  0  0  0  0  0  0
    2.3004   18.3588   -1.0637 H   0  0  0  0  0  0  0  0  0  0  0  0
    3.0336   19.7283    3.0137 H   0  0  0  0  0  0  0  0  0  0  0  0
    3.4720   21.0364    1.8634 H   0  0  0  0  0  0  0  0  0  0  0  0
    1.8075   20.3609    1.8634 H   0  0  0  0  0  0  0  0  0  0  0  0
    5.3465   19.0523    1.5529 H   0  0  0  0  0  0  0  0  0  0  0  0
    4.9532   18.1628    0.0427 H   0  0  0  0  0  0  0  0  0  0  0  0
    4.9940   19.9587    0.0427 H   0  0  0  0  0  0  0  0  0  0  0  0
    1.8348   16.2091   -1.3707 H   0  0  0  0  0  0  0  0  0  0  0  0
    1.7650   15.4170    0.9105 H   0  0  0  0  0  0  0  0  0  0  0  0
    0.0210   15.0882    0.8243 H   0  0  0  0  0  0  0  0  0  0  0  0
    2.0897   13.1191    0.7165 H   0  0  0  0  0  0  0  0  0  0  0  0
    0.4168   12.8192    0.2544 H   0  0  0  0  0  0  0  0  0  0  0  0
    3.5741   13.9289   -0.3747 H   0  0  0  0  0  0  0  0  0  0  0  0
    3.8385   13.0704   -1.9302 H   0  0  0  0  0  0  0  0  0  0  0  0
    3.3365   14.7951   -1.9302 H   0  0  0  0  0  0  0  0  0  0  0  0
    0.4828   11.7888   -1.9381 H   0  0  0  0  0  0  0  0  0  0  0  0
    2.4599   11.0380   -0.4666 H   0  0  0  0  0  0  0  0  0  0  0  0
    1.7712    9.9377   -1.7719 H   0  0  0  0  0  0  0  0  0  0  0  0
    4.3974   10.0022   -1.5684 H   0  0  0  0  0  0  0  0  0  0  0  0
    3.5438   13.0488   -4.0757 H   0  0  0  0  0  0  0  0  0  0  0  0
    2.9966   10.5124   -5.7384 H   0  0  0  0  0  0  0  0  0  0  0  0
    2.7964   12.2381   -6.2799 H   0  0  0  0  0  0  0  0  0  0  0  0
    4.8689   11.2144   -7.1607 H   0  0  0  0  0  0  0  0  0  0  0  0
    5.1837   12.6154   -6.0634 H   0  0  0  0  0  0  0  0  0  0  0  0
    6.7468   10.8691   -5.5497 H   0  0  0  0  0  0  0  0  0  0  0  0
    4.9460    9.0160   -4.5920 H   0  0  0  0  0  0  0  0  0  0  0  0
    6.4005   12.6075   -2.4091 H   0  0  0  0  0  0  0  0  0  0  0  0
    7.3128   12.4217   -3.9453 H   0  0  0  0  0  0  0  0  0  0  0  0
    5.7089   13.2307   -3.9453 H   0  0  0  0  0  0  0  0  0  0  0  0
    6.3164   10.1813   -1.8648 H   0  0  0  0  0  0  0  0  0  0  0  0
    6.1005    9.0031   -3.2034 H   0  0  0  0  0  0  0  0  0  0  0  0
    7.5123   10.1137   -3.2034 H   0  0  0  0  0  0  0  0  0  0  0  0
    0.5148   10.2518   -3.4611 H   0  0  0  0  0  0  0  0  0  0  0  0
    0.0711   11.2195   -4.9080 H   0  0  0  0  0  0  0  0  0  0  0  0
    1.5793   10.2437   -4.9080 H   0  0  0  0  0  0  0  0  0  0  0  0
    1.4970   13.5388   -5.3184 H   0  0  0  0  0  0  0  0  0  0  0  0
   -0.0456   13.1457   -4.3701 H   0  0  0  0  0  0  0  0  0  0  0  0
    2.1976   15.0160   -3.5593 H   0  0  0  0  0  0  0  0  0  0  0  0
    0.4821   15.4186   -3.9625 H   0  0  0  0  0  0  0  0  0  0  0  0
   -1.1002   13.9305   -1.0035 H   0  0  0  0  0  0  0  0  0  0  0  0
   -1.3580   14.7911   -2.5591 H   0  0  0  0  0  0  0  0  0  0  0  0
   -0.8788   13.0599   -2.5591 H   0  0  0  0  0  0  0  0  0  0  0  0
  1  2  1  0
  2  3  1  0
  3  4  1  0
  4  5  1  0
  5  6  1  0
  6  7  1  0
  7  8  1  0
  7  9  1  0
  2 10  1  0
 10 11  1  0
 11 12  1  0
 12 13  1  0
 13 14  1  1
 13 15  1  0
 15 16  1  0
 16 17  1  0
 17 18  2  0
 18 19  1  0
 19 20  1  0
 20 21  1  0
 21 22  1  0
 22 23  1  0
 22 24  1  0
 24 25  1  0
 24 26  1  0
 19 27  1  0
 27 28  1  6
 27 29  1  0
 29 30  1  0
 30 31  1  0
 31 32  1  6
  7  5  1  0
 31 10  1  0
 31 13  1  0
 27 15  1  0
 24 18  1  0
  1 33  1  0
  1 34  1  0
  1 35  1  0
  2 36  1  6
  3 37  1  0
  3 38  1  0
  4 39  1  0
  4 40  1  0
  5 41  1  6
  8 42  1  0
  8 43  1  0
  8 44  1  0
  9 45  1  0
  9 46  1  0
  9 47  1  0
 10 48  1  6
 11 49  1  0
 11 50  1  0
 12 51  1  0
 12 52  1  0
 14 53  1  0
 14 54  1  0
 14 55  1  0
 15 56  1  6
 16 57  1  0
 16 58  1  0
 17 59  1  0
 19 60  1  6
 20 61  1  0
 20 62  1  0
 21 63  1  0
 21 64  1  0
 22 65  1  6
 23 66  1  0
 25 67  1  0
 25 68  1  0
 25 69  1  0
 26 70  1  0
 26 71  1  0
 26 72  1  0
 28 73  1  0
 28 74  1  0
 28 75  1  0
 29 76  1  0
 29 77  1  0
 30 78  1  0
 30 79  1  0
 32 80  1  0
 32 81  1  0
 32 82  1  0
M  END
>  <meeko>  (19) 
{"is_sidechain": [false], "intermolecular_energy": 2.731, "internal_energy": -0.839}

$$$$
