EPH_relaxed_0001_pdb2pqr_Repair_409_r2_0001_out
     RDKit          3D

 82 86  0  0  0  0  0  0  0  0999 V2000
   -1.6990    8.5640   -1.8670 C   0  0  0  0  0  0  0  0  0  0  0  0
   -2.0830    9.0860   -0.4800 C   0  0  2  0  0  0  0  0  0  0  0  0
   -3.5770    9.4570   -0.3920 C   0  0  0  0  0  0  0  0  0  0  0  0
   -4.5040    8.2460   -0.2530 C   0  0  0  0  0  0  0  0  0  0  0  0
   -5.2010    7.9300   -1.5420 C   0  0  2  0  0  0  0  0  0  0  0  0
   -6.3450    8.7480   -1.8200 O   0  0  0  0  0  0  0  0  0  0  0  0
   -6.6000    7.3490   -1.6150 C   0  0  0  0  0  0  0  0  0  0  0  0
   -7.3870    7.0480   -0.3780 C   0  0  0  0  0  0  0  0  0  0  0  0
   -7.0090    6.6220   -2.8590 C   0  0  0  0  0  0  0  0  0  0  0  0
   -1.2250   10.2950   -0.1240 C   0  0  1  0  0  0  0  0  0  0  0  0
   -0.2040    9.9910    1.0050 C   0  0  0  0  0  0  0  0  0  0  0  0
    1.0700   10.8160    0.6900 C   0  0  0  0  0  0  0  0  0  0  0  0
    0.6290   11.8110   -0.4090 C   0  0  1  0  0  0  0  0  0  0  0  0
   -0.0830   12.9680    0.3590 C   0  0  0  0  0  0  0  0  0  0  0  0
    1.7580   12.3490   -1.3470 C   0  0  2  0  0  0  0  0  0  0  0  0
    2.8560   13.1660   -0.6440 C   0  0  0  0  0  0  0  0  0  0  0  0
    2.6070   14.6360   -0.5660 C   0  0  0  0  0  0  0  0  0  0  0  0
    1.6920   15.3130   -1.2840 C   0  0  0  0  0  0  0  0  0  0  0  0
    0.8550   14.6080   -2.3600 C   0  0  1  0  0  0  0  0  0  0  0  0
    0.8410   15.4670   -3.6510 C   0  0  0  0  0  0  0  0  0  0  0  0
    0.3770   16.8980   -3.3970 C   0  0  0  0  0  0  0  0  0  0  0  0
    1.2690   17.5850   -2.3650 C   0  0  2  0  0  0  0  0  0  0  0  0
    2.5760   17.7510   -2.9230 O   0  0  0  0  0  0  0  0  0  0  0  0
    1.3670   16.8050   -1.0240 C   0  0  0  0  0  0  0  0  0  0  0  0
    0.0150   16.8850   -0.2750 C   0  0  0  0  0  0  0  0  0  0  0  0
    2.4050   17.5300   -0.1250 C   0  0  0  0  0  0  0  0  0  0  0  0
    1.2270   13.0880   -2.6420 C   0  0  1  0  0  0  0  0  0  0  0  0
    2.3700   13.0080   -3.7000 C   0  0  0  0  0  0  0  0  0  0  0  0
   -0.0180   12.3640   -3.2770 C   0  0  0  0  0  0  0  0  0  0  0  0
   -1.0370   11.7480   -2.2990 C   0  0  0  0  0  0  0  0  0  0  0  0
   -0.3340   10.8890   -1.2430 C   0  0  2  0  0  0  0  0  0  0  0  0
    0.3730    9.7030   -1.9850 C   0  0  0  0  0  0  0  0  0  0  0  0
   -1.0503    7.6821   -1.7602 H   0  0  0  0  0  0  0  0  0  0  0  0
   -2.6089    8.2852   -2.4187 H   0  0  0  0  0  0  0  0  0  0  0  0
   -1.1619    9.3496   -2.4187 H   0  0  0  0  0  0  0  0  0  0  0  0
   -1.9011    8.2750    0.2406 H   0  0  0  0  0  0  0  0  0  0  0  0
   -3.7224   10.1080    0.4827 H   0  0  0  0  0  0  0  0  0  0  0  0
   -3.8405    9.9574   -1.3355 H   0  0  0  0  0  0  0  0  0  0  0  0
   -3.9075    7.3738    0.0528 H   0  0  0  0  0  0  0  0  0  0  0  0
   -5.2689    8.4846    0.5007 H   0  0  0  0  0  0  0  0  0  0  0  0
   -4.2517    7.6288   -2.0091 H   0  0  0  0  0  0  0  0  0  0  0  0
   -6.7792    7.2805    0.5089 H   0  0  0  0  0  0  0  0  0  0  0  0
   -8.3009    7.6600   -0.3669 H   0  0  0  0  0  0  0  0  0  0  0  0
   -7.6592    5.9823   -0.3669 H   0  0  0  0  0  0  0  0  0  0  0  0
   -7.5315    5.6933   -2.5860 H   0  0  0  0  0  0  0  0  0  0  0  0
   -7.6807    7.2598   -3.4523 H   0  0  0  0  0  0  0  0  0  0  0  0
   -6.1152    6.3790   -3.4523 H   0  0  0  0  0  0  0  0  0  0  0  0
   -2.0164   11.0097    0.1460 H   0  0  0  0  0  0  0  0  0  0  0  0
   -0.6172   10.2895    1.9798 H   0  0  0  0  0  0  0  0  0  0  0  0
    0.0235    8.9158    1.0527 H   0  0  0  0  0  0  0  0  0  0  0  0
    1.4153   11.3541    1.5851 H   0  0  0  0  0  0  0  0  0  0  0  0
    1.9082   10.1816    0.3662 H   0  0  0  0  0  0  0  0  0  0  0  0
    0.0172   12.8052    1.4423 H   0  0  0  0  0  0  0  0  0  0  0  0
    0.3809   13.9279    0.0880 H   0  0  0  0  0  0  0  0  0  0  0  0
   -1.1489   12.9865    0.0880 H   0  0  0  0  0  0  0  0  0  0  0  0
    2.2455   11.4227   -1.6852 H   0  0  0  0  0  0  0  0  0  0  0  0
    2.9592   12.7840    0.3824 H   0  0  0  0  0  0  0  0  0  0  0  0
    3.7634   13.0434   -1.2535 H   0  0  0  0  0  0  0  0  0  0  0  0
    3.2235   15.2145    0.1377 H   0  0  0  0  0  0  0  0  0  0  0  0
   -0.1636   14.5321   -1.9517 H   0  0  0  0  0  0  0  0  0  0  0  0
    1.8590   15.4950   -4.0669 H   0  0  0  0  0  0  0  0  0  0  0  0
    0.1299   15.0050   -4.3516 H   0  0  0  0  0  0  0  0  0  0  0  0
    0.4170   17.4624   -4.3403 H   0  0  0  0  0  0  0  0  0  0  0  0
   -0.6520   16.8703   -3.0093 H   0  0  0  0  0  0  0  0  0  0  0  0
    0.8122   18.5574   -2.1288 H   0  0  0  0  0  0  0  0  0  0  0  0
    2.5180   17.5530   -3.8730 H   0  0  0  0  0  0  0  0  0  0  0  0
    0.1957   16.8743    0.8100 H   0  0  0  0  0  0  0  0  0  0  0  0
   -0.5028   17.8154   -0.5513 H   0  0  0  0  0  0  0  0  0  0  0  0
   -0.6089   16.0222   -0.5513 H   0  0  0  0  0  0  0  0  0  0  0  0
    2.1579   17.3574    0.9329 H   0  0  0  0  0  0  0  0  0  0  0  0
    3.4105   17.1368   -0.3355 H   0  0  0  0  0  0  0  0  0  0  0  0
    2.3819   18.6094   -0.3355 H   0  0  0  0  0  0  0  0  0  0  0  0
    3.3406   12.9401   -3.1868 H   0  0  0  0  0  0  0  0  0  0  0  0
    2.2251   12.1178   -4.3297 H   0  0  0  0  0  0  0  0  0  0  0  0
    2.3505   13.9097   -4.3297 H   0  0  0  0  0  0  0  0  0  0  0  0
   -0.5527   13.1012   -3.8940 H   0  0  0  0  0  0  0  0  0  0  0  0
    0.3980   11.5115   -3.8340 H   0  0  0  0  0  0  0  0  0  0  0  0
   -1.5876   12.5568   -1.7964 H   0  0  0  0  0  0  0  0  0  0  0  0
   -1.7271   11.1082   -2.8686 H   0  0  0  0  0  0  0  0  0  0  0  0
    0.7898    9.0039   -1.2450 H   0  0  0  0  0  0  0  0  0  0  0  0
   -0.3588    9.1765   -2.6153 H   0  0  0  0  0  0  0  0  0  0  0  0
    1.1842   10.0963   -2.6153 H   0  0  0  0  0  0  0  0  0  0  0  0
  1  2  1  0
  2  3  1  0
  3  4  1  0
  4  5  1  0
  5  6  1  0
  6  7  1  0
  7  8  1  0
  7  9  1  0
  2 10  1  0
 10 11  1  0
 11 12  1  0
 12 13  1  0
 13 14  1  1
 13 15  1  0
 15 16  1  0
 16 17  1  0
 17 18  2  0
 18 19  1  0
 19 20  1  0
 20 21  1  0
 21 22  1  0
 22 23  1  0
 22 24  1  0
 24 25  1  0
 24 26  1  0
 19 27  1  0
 27 28  1  6
 27 29  1  0
 29 30  1  0
 30 31  1  0
 31 32  1  6
  7  5  1  0
 31 10  1  0
 31 13  1  0
 27 15  1  0
 24 18  1  0
  1 33  1  0
  1 34  1  0
  1 35  1  0
  2 36  1  1
  3 37  1  0
  3 38  1  0
  4 39  1  0
  4 40  1  0
  5 41  1  6
  8 42  1  0
  8 43  1  0
  8 44  1  0
  9 45  1  0
  9 46  1  0
  9 47  1  0
 10 48  1  1
 11 49  1  0
 11 50  1  0
 12 51  1  0
 12 52  1  0
 14 53  1  0
 14 54  1  0
 14 55  1  0
 15 56  1  6
 16 57  1  0
 16 58  1  0
 17 59  1  0
 19 60  1  1
 20 61  1  0
 20 62  1  0
 21 63  1  0
 21 64  1  0
 22 65  1  1
 23 66  1  0
 25 67  1  0
 25 68  1  0
 25 69  1  0
 26 70  1  0
 26 71  1  0
 26 72  1  0
 28 73  1  0
 28 74  1  0
 28 75  1  0
 29 76  1  0
 29 77  1  0
 30 78  1  0
 30 79  1  0
 32 80  1  0
 32 81  1  0
 32 82  1  0
M  END
>  <meeko>  (1) 
{"is_sidechain": [false], "intermolecular_energy": 2.731, "internal_energy": -0.839}

$$$$
EPH_relaxed_0001_pdb2pqr_Repair_409_r2_0001_out
     RDKit          3D

 82 86  0  0  0  0  0  0  0  0999 V2000
    1.9920   19.5790   -0.6240 C   0  0  0  0  0  0  0  0  0  0  0  0
    2.4270   18.3590    0.1930 C   0  0  2  0  0  0  0  0  0  0  0  0
    3.8610   17.9110   -0.1530 C   0  0  0  0  0  0  0  0  0  0  0  0
    4.9020   18.3160    0.8950 C   0  0  0  0  0  0  0  0  0  0  0  0
    4.2580   18.7700    2.1700 C   0  0  2  0  0  0  0  0  0  0  0  0
    4.6000   20.1030    2.5720 O   0  0  0  0  0  0  0  0  0  0  0  0
    5.0310   19.0470    3.4450 C   0  0  0  0  0  0  0  0  0  0  0  0
    6.5170   18.8780    3.5090 C   0  0  0  0  0  0  0  0  0  0  0  0
    4.2980   19.0060    4.7500 C   0  0  0  0  0  0  0  0  0  0  0  0
    1.4530   17.2090   -0.0320 C   0  0  1  0  0  0  0  0  0  0  0  0
    0.1400   17.6640   -0.7240 C   0  0  0  0  0  0  0  0  0  0  0  0
   -0.3040   16.5030   -1.6490 C   0  0  0  0  0  0  0  0  0  0  0  0
    0.5700   15.3020   -1.2160 C   0  0  1  0  0  0  0  0  0  0  0  0
   -0.1370   14.7290    0.0530 C   0  0  0  0  0  0  0  0  0  0  0  0
    0.8070   14.1950   -2.2940 C   0  0  2  0  0  0  0  0  0  0  0  0
   -0.4620   13.4690   -2.7740 C   0  0  0  0  0  0  0  0  0  0  0  0
   -0.8270   12.2440   -2.0020 C   0  0  0  0  0  0  0  0  0  0  0  0
   -0.0170   11.5860   -1.1520 C   0  0  0  0  0  0  0  0  0  0  0  0
    1.4470   12.0090   -0.9710 C   0  0  1  0  0  0  0  0  0  0  0  0
    2.3580   10.7540   -1.0210 C   0  0  0  0  0  0  0  0  0  0  0  0
    1.9330    9.6820   -0.0210 C   0  0  0  0  0  0  0  0  0  0  0  0
    0.4910    9.2460   -0.2700 C   0  0  2  0  0  0  0  0  0  0  0  0
    0.4240    8.5740   -1.5310 O   0  0  0  0  0  0  0  0  0  0  0  0
   -0.5180   10.4290   -0.2530 C   0  0  0  0  0  0  0  0  0  0  0  0
   -0.6670   10.9650    1.1920 C   0  0  0  0  0  0  0  0  0  0  0  0
   -1.9110    9.8730   -0.6560 C   0  0  0  0  0  0  0  0  0  0  0  0
    1.9560   13.1710   -1.9290 C   0  0  1  0  0  0  0  0  0  0  0  0
    2.4600   12.5680   -3.2760 C   0  0  0  0  0  0  0  0  0  0  0  0
    3.1980   13.8760   -1.2660 C   0  0  0  0  0  0  0  0  0  0  0  0
    2.9030   15.0400   -0.3020 C   0  0  0  0  0  0  0  0  0  0  0  0
    1.9280   16.0400   -0.9320 C   0  0  2  0  0  0  0  0  0  0  0  0
    2.6210   16.6500   -2.1980 C   0  0  0  0  0  0  0  0  0  0  0  0
    1.7020   20.3923    0.0576 H   0  0  0  0  0  0  0  0  0  0  0  0
    2.8267   19.9122   -1.2582 H   0  0  0  0  0  0  0  0  0  0  0  0
    1.1348   19.3089   -1.2582 H   0  0  0  0  0  0  0  0  0  0  0  0
    2.4189   18.6502    1.2537 H   0  0  0  0  0  0  0  0  0  0  0  0
    3.8696   16.8149   -0.2456 H   0  0  0  0  0  0  0  0  0  0  0  0
    4.1373   18.4136   -1.0917 H   0  0  0  0  0  0  0  0  0  0  0  0
    5.5468   17.4510    1.1097 H   0  0  0  0  0  0  0  0  0  0  0  0
    5.4882   19.1540    0.4898 H   0  0  0  0  0  0  0  0  0  0  0  0
    3.3673   18.1578    1.9655 H   0  0  0  0  0  0  0  0  0  0  0  0
    6.8369   18.8416    4.5608 H   0  0  0  0  0  0  0  0  0  0  0  0
    6.8015   17.9417    3.0066 H   0  0  0  0  0  0  0  0  0  0  0  0
    7.0045   19.7265    3.0066 H   0  0  0  0  0  0  0  0  0  0  0  0
    5.0210   19.0464    5.5781 H   0  0  0  0  0  0  0  0  0  0  0  0
    3.6171   19.8675    4.8153 H   0  0  0  0  0  0  0  0  0  0  0  0
    3.7174   18.0740    4.8153 H   0  0  0  0  0  0  0  0  0  0  0  0
    1.3351   16.8625    1.0053 H   0  0  0  0  0  0  0  0  0  0  0  0
   -0.6353   17.8652    0.0299 H   0  0  0  0  0  0  0  0  0  0  0  0
    0.2967   18.5888   -1.2987 H   0  0  0  0  0  0  0  0  0  0  0  0
   -1.3712   16.2784   -1.5051 H   0  0  0  0  0  0  0  0  0  0  0  0
   -0.1785   16.7473   -2.7142 H   0  0  0  0  0  0  0  0  0  0  0  0
    0.3517   15.1251    0.9553 H   0  0  0  0  0  0  0  0  0  0  0  0
   -1.1959   15.0269    0.0488 H   0  0  0  0  0  0  0  0  0  0  0  0
   -0.0649   13.6314    0.0488 H   0  0  0  0  0  0  0  0  0  0  0  0
    1.1614   14.7779   -3.1569 H   0  0  0  0  0  0  0  0  0  0  0  0
   -1.3029   14.1751   -2.7084 H   0  0  0  0  0  0  0  0  0  0  0  0
   -0.2496   13.1306   -3.7989 H   0  0  0  0  0  0  0  0  0  0  0  0
   -1.8432   11.8460   -2.1395 H   0  0  0  0  0  0  0  0  0  0  0  0
    1.5086   12.4758    0.0231 H   0  0  0  0  0  0  0  0  0  0  0  0
    2.3157   10.3277   -2.0342 H   0  0  0  0  0  0  0  0  0  0  0  0
    3.3778   11.0710   -0.7574 H   0  0  0  0  0  0  0  0  0  0  0  0
    2.5958    8.8102   -0.1241 H   0  0  0  0  0  0  0  0  0  0  0  0
    2.0036   10.1002    0.9939 H   0  0  0  0  0  0  0  0  0  0  0  0
    0.2019    8.5756    0.5527 H   0  0  0  0  0  0  0  0  0  0  0  0
    0.7070    9.2040   -2.2160 H   0  0  0  0  0  0  0  0  0  0  0  0
   -0.4431   10.1594    1.9068 H   0  0  0  0  0  0  0  0  0  0  0  0
    0.0334   11.7987    1.3479 H   0  0  0  0  0  0  0  0  0  0  0  0
   -1.6972   11.3176    1.3479 H   0  0  0  0  0  0  0  0  0  0  0  0
   -2.4898    9.6420    0.2504 H   0  0  0  0  0  0  0  0  0  0  0  0
   -2.4479   10.6258   -1.2519 H   0  0  0  0  0  0  0  0  0  0  0  0
   -1.7820    8.9575   -1.2519 H   0  0  0  0  0  0  0  0  0  0  0  0
    3.1530   11.7389   -3.0701 H   0  0  0  0  0  0  0  0  0  0  0  0
    1.6021   12.1939   -3.8540 H   0  0  0  0  0  0  0  0  0  0  0  0
    2.9804   13.3459   -3.8540 H   0  0  0  0  0  0  0  0  0  0  0  0
    3.7539   13.1112   -0.7039 H   0  0  0  0  0  0  0  0  0  0  0  0
    3.7524   14.3279   -2.1017 H   0  0  0  0  0  0  0  0  0  0  0  0
    2.4603   14.6389    0.6217 H   0  0  0  0  0  0  0  0  0  0  0  0
    3.8465   15.5610   -0.0820 H   0  0  0  0  0  0  0  0  0  0  0  0
    3.4122   17.3464   -1.8832 H   0  0  0  0  0  0  0  0  0  0  0  0
    3.0621   15.8417   -2.7998 H   0  0  0  0  0  0  0  0  0  0  0  0
    1.8753   17.1901   -2.7998 H   0  0  0  0  0  0  0  0  0  0  0  0
  1  2  1  0
  2  3  1  0
  3  4  1  0
  4  5  1  0
  5  6  1  0
  6  7  1  0
  7  8  1  0
  7  9  1  0
  2 10  1  0
 10 11  1  0
 11 12  1  0
 12 13  1  0
 13 14  1  1
 13 15  1  0
 15 16  1  0
 16 17  1  0
 17 18  2  0
 18 19  1  0
 19 20  1  0
 20 21  1  0
 21 22  1  0
 22 23  1  0
 22 24  1  0
 24 25  1  0
 24 26  1  0
 19 27  1  0
 27 28  1  6
 27 29  1  0
 29 30  1  0
 30 31  1  0
 31 32  1  6
  7  5  1  0
 31 10  1  0
 31 13  1  0
 27 15  1  0
 24 18  1  0
  1 33  1  0
  1 34  1  0
  1 35  1  0
  2 36  1  1
  3 37  1  0
  3 38  1  0
  4 39  1  0
  4 40  1  0
  5 41  1  1
  8 42  1  0
  8 43  1  0
  8 44  1  0
  9 45  1  0
  9 46  1  0
  9 47  1  0
 10 48  1  1
 11 49  1  0
 11 50  1  0
 12 51  1  0
 12 52  1  0
 14 53  1  0
 14 54  1  0
 14 55  1  0
 15 56  1  6
 16 57  1  0
 16 58  1  0
 17 59  1  0
 19 60  1  1
 20 61  1  0
 20 62  1  0
 21 63  1  0
 21 64  1  0
 22 65  1  1
 23 66  1  0
 25 67  1  0
 25 68  1  0
 25 69  1  0
 26 70  1  0
 26 71  1  0
 26 72  1  0
 28 73  1  0
 28 74  1  0
 28 75  1  0
 29 76  1  0
 29 77  1  0
 30 78  1  0
 30 79  1  0
 32 80  1  0
 32 81  1  0
 32 82  1  0
M  END
>  <meeko>  (2) 
{"is_sidechain": [false], "intermolecular_energy": 2.731, "internal_energy": -0.839}

$$$$
EPH_relaxed_0001_pdb2pqr_Repair_409_r2_0001_out
     RDKit          3D

 82 86  0  0  0  0  0  0  0  0999 V2000
    0.4180   18.4230   -0.0730 C   0  0  0  0  0  0  0  0  0  0  0  0
    1.4970   17.3540   -0.2640 C   0  0  2  0  0  0  0  0  0  0  0  0
    2.7240   17.8970   -1.0250 C   0  0  0  0  0  0  0  0  0  0  0  0
    3.9570   18.1000   -0.1390 C   0  0  0  0  0  0  0  0  0  0  0  0
    3.5810   18.5680    1.2340 C   0  0  2  0  0  0  0  0  0  0  0  0
    3.8060   19.9640    1.4730 O   0  0  0  0  0  0  0  0  0  0  0  0
    4.5910   19.0520    2.2580 C   0  0  0  0  0  0  0  0  0  0  0  0
    6.0560   19.0910    1.9510 C   0  0  0  0  0  0  0  0  0  0  0  0
    4.2130   19.0230    3.7060 C   0  0  0  0  0  0  0  0  0  0  0  0
    0.9150   16.1540   -1.0030 C   0  0  1  0  0  0  0  0  0  0  0  0
    0.7690   16.4050   -2.5270 C   0  0  0  0  0  0  0  0  0  0  0  0
    1.0510   15.0530   -3.2320 C   0  0  0  0  0  0  0  0  0  0  0  0
    1.0220   14.0060   -2.0930 C   0  0  1  0  0  0  0  0  0  0  0  0
   -0.4930   13.7120   -1.8580 C   0  0  0  0  0  0  0  0  0  0  0  0
    1.8330   12.6930   -2.3410 C   0  0  2  0  0  0  0  0  0  0  0  0
    1.3500   11.8410   -3.5270 C   0  0  0  0  0  0  0  0  0  0  0  0
    0.3220   10.8100   -3.1960 C   0  0  0  0  0  0  0  0  0  0  0  0
    0.0140   10.3830   -1.9570 C   0  0  0  0  0  0  0  0  0  0  0  0
    0.7990   10.8780   -0.7350 C   0  0  1  0  0  0  0  0  0  0  0  0
    1.1650    9.6710    0.1680 C   0  0  0  0  0  0  0  0  0  0  0  0
   -0.0530    8.8390    0.5550 C   0  0  0  0  0  0  0  0  0  0  0  0
   -0.7730    8.3170   -0.6850 C   0  0  2  0  0  0  0  0  0  0  0  0
    0.0770    7.3770   -1.3500 O   0  0  0  0  0  0  0  0  0  0  0  0
   -1.1830    9.4420   -1.6750 C   0  0  0  0  0  0  0  0  0  0  0  0
   -2.3280   10.2840   -1.0610 C   0  0  0  0  0  0  0  0  0  0  0  0
   -1.7720    8.7700   -2.9450 C   0  0  0  0  0  0  0  0  0  0  0  0
    2.0480   11.8100   -1.0450 C   0  0  1  0  0  0  0  0  0  0  0  0
    3.3130   10.9360   -1.3070 C   0  0  0  0  0  0  0  0  0  0  0  0
    2.3670   12.6820    0.2270 C   0  0  0  0  0  0  0  0  0  0  0  0
    1.6210   14.0240    0.3540 C   0  0  0  0  0  0  0  0  0  0  0  0
    1.7150   14.8280   -0.9460 C   0  0  2  0  0  0  0  0  0  0  0  0
    3.2250   15.1590   -1.1970 C   0  0  0  0  0  0  0  0  0  0  0  0
    0.2515   18.5880    1.0017 H   0  0  0  0  0  0  0  0  0  0  0  0
    0.7457   19.3626   -0.5417 H   0  0  0  0  0  0  0  0  0  0  0  0
   -0.5185   18.0865   -0.5417 H   0  0  0  0  0  0  0  0  0  0  0  0
    1.8380   17.0456    0.7353 H   0  0  0  0  0  0  0  0  0  0  0  0
    2.9823   17.1838   -1.8216 H   0  0  0  0  0  0  0  0  0  0  0  0
    2.4459   18.8850   -1.4206 H   0  0  0  0  0  0  0  0  0  0  0  0
    4.4968   17.1453   -0.0550 H   0  0  0  0  0  0  0  0  0  0  0  0
    4.5899   18.8708   -0.6030 H   0  0  0  0  0  0  0  0  0  0  0  0
    2.7698   17.8273    1.2905 H   0  0  0  0  0  0  0  0  0  0  0  0
    6.6273   19.1062    2.8909 H   0  0  0  0  0  0  0  0  0  0  0  0
    6.3324   18.1999    1.3683 H   0  0  0  0  0  0  0  0  0  0  0  0
    6.2846   19.9955    1.3683 H   0  0  0  0  0  0  0  0  0  0  0  0
    5.1207   19.0926    4.3234 H   0  0  0  0  0  0  0  0  0  0  0  0
    3.5515   19.8730    3.9294 H   0  0  0  0  0  0  0  0  0  0  0  0
    3.6889   18.0820    3.9294 H   0  0  0  0  0  0  0  0  0  0  0  0
   -0.0345   16.0440   -0.4586 H   0  0  0  0  0  0  0  0  0  0  0  0
   -0.2503   16.7476   -2.7585 H   0  0  0  0  0  0  0  0  0  0  0  0
    1.4690   17.1819   -2.8682 H   0  0  0  0  0  0  0  0  0  0  0  0
    0.2740   14.8353   -3.9796 H   0  0  0  0  0  0  0  0  0  0  0  0
    2.0093   15.0558   -3.7720 H   0  0  0  0  0  0  0  0  0  0  0  0
   -0.6956   13.6727   -0.7775 H   0  0  0  0  0  0  0  0  0  0  0  0
   -1.0966   14.5098   -2.3154 H   0  0  0  0  0  0  0  0  0  0  0  0
   -0.7544   12.7464   -2.3154 H   0  0  0  0  0  0  0  0  0  0  0  0
    2.8210   13.0782   -2.6335 H   0  0  0  0  0  0  0  0  0  0  0  0
    0.9212   12.5188   -4.2799 H   0  0  0  0  0  0  0  0  0  0  0  0
    2.2317   11.2878   -3.8827 H   0  0  0  0  0  0  0  0  0  0  0  0
   -0.2301   10.3616   -4.0351 H   0  0  0  0  0  0  0  0  0  0  0  0
    0.1243   11.5577   -0.1939 H   0  0  0  0  0  0  0  0  0  0  0  0
    1.8738    9.0275   -0.3738 H   0  0  0  0  0  0  0  0  0  0  0  0
    1.6054   10.0687    1.0942 H   0  0  0  0  0  0  0  0  0  0  0  0
    0.2737    7.9857    1.1675 H   0  0  0  0  0  0  0  0  0  0  0  0
   -0.7476    9.4760    1.1223 H   0  0  0  0  0  0  0  0  0  0  0  0
   -1.7057    7.8408   -0.3485 H   0  0  0  0  0  0  0  0  0  0  0  0
    0.1520    7.6540   -2.2790 H   0  0  0  0  0  0  0  0  0  0  0  0
   -2.2678   10.2397    0.0365 H   0  0  0  0  0  0  0  0  0  0  0  0
   -2.2328   11.3288   -1.3916 H   0  0  0  0  0  0  0  0  0  0  0  0
   -3.2969    9.8817   -1.3916 H   0  0  0  0  0  0  0  0  0  0  0  0
   -2.4701    7.9735   -2.6481 H   0  0  0  0  0  0  0  0  0  0  0  0
   -2.3070    9.5223   -3.5433 H   0  0  0  0  0  0  0  0  0  0  0  0
   -0.9561    8.3382   -3.5433 H   0  0  0  0  0  0  0  0  0  0  0  0
    3.7537   10.6315   -0.3462 H   0  0  0  0  0  0  0  0  0  0  0  0
    3.0282   10.0411   -1.8798 H   0  0  0  0  0  0  0  0  0  0  0  0
    4.0493   11.5190   -1.8798 H   0  0  0  0  0  0  0  0  0  0  0  0
    2.1212   12.0794    1.1138 H   0  0  0  0  0  0  0  0  0  0  0  0
    3.4294   12.9510    0.1326 H   0  0  0  0  0  0  0  0  0  0  0  0
    0.5625   13.8274    0.5799 H   0  0  0  0  0  0  0  0  0  0  0  0
    2.0849   14.6083    1.1623 H   0  0  0  0  0  0  0  0  0  0  0  0
    3.7409   15.2721   -0.2321 H   0  0  0  0  0  0  0  0  0  0  0  0
    3.6897   14.3414   -1.7676 H   0  0  0  0  0  0  0  0  0  0  0  0
    3.3050   16.0960   -1.7676 H   0  0  0  0  0  0  0  0  0  0  0  0
  1  2  1  0
  2  3  1  0
  3  4  1  0
  4  5  1  0
  5  6  1  0
  6  7  1  0
  7  8  1  0
  7  9  1  0
  2 10  1  0
 10 11  1  0
 11 12  1  0
 12 13  1  0
 13 14  1  1
 13 15  1  0
 15 16  1  0
 16 17  1  0
 17 18  2  0
 18 19  1  0
 19 20  1  0
 20 21  1  0
 21 22  1  0
 22 23  1  0
 22 24  1  0
 24 25  1  0
 24 26  1  0
 19 27  1  0
 27 28  1  6
 27 29  1  0
 29 30  1  0
 30 31  1  0
 31 32  1  6
  7  5  1  0
 31 10  1  0
 31 13  1  0
 27 15  1  0
 24 18  1  0
  1 33  1  0
  1 34  1  0
  1 35  1  0
  2 36  1  1
  3 37  1  0
  3 38  1  0
  4 39  1  0
  4 40  1  0
  5 41  1  1
  8 42  1  0
  8 43  1  0
  8 44  1  0
  9 45  1  0
  9 46  1  0
  9 47  1  0
 10 48  1  1
 11 49  1  0
 11 50  1  0
 12 51  1  0
 12 52  1  0
 14 53  1  0
 14 54  1  0
 14 55  1  0
 15 56  1  6
 16 57  1  0
 16 58  1  0
 17 59  1  0
 19 60  1  1
 20 61  1  0
 20 62  1  0
 21 63  1  0
 21 64  1  0
 22 65  1  1
 23 66  1  0
 25 67  1  0
 25 68  1  0
 25 69  1  0
 26 70  1  0
 26 71  1  0
 26 72  1  0
 28 73  1  0
 28 74  1  0
 28 75  1  0
 29 76  1  0
 29 77  1  0
 30 78  1  0
 30 79  1  0
 32 80  1  0
 32 81  1  0
 32 82  1  0
M  END
>  <meeko>  (3) 
{"is_sidechain": [false], "intermolecular_energy": 2.731, "internal_energy": -0.839}

$$$$
EPH_relaxed_0001_pdb2pqr_Repair_409_r2_0001_out
     RDKit          3D

 82 86  0  0  0  0  0  0  0  0999 V2000
   -3.4220    9.3090    0.5170 C   0  0  0  0  0  0  0  0  0  0  0  0
   -2.5910    9.6740   -0.7160 C   0  0  2  0  0  0  0  0  0  0  0  0
   -1.9210    8.4400   -1.3520 C   0  0  0  0  0  0  0  0  0  0  0  0
   -2.8380    7.6620   -2.3000 C   0  0  0  0  0  0  0  0  0  0  0  0
   -4.2750    7.7550   -1.8820 C   0  0  2  0  0  0  0  0  0  0  0  0
   -4.8150    6.5510   -1.3230 O   0  0  0  0  0  0  0  0  0  0  0  0
   -5.3950    6.9910   -2.5620 C   0  0  0  0  0  0  0  0  0  0  0  0
   -5.1280    6.0780   -3.7170 C   0  0  0  0  0  0  0  0  0  0  0  0
   -6.7960    7.5010   -2.4250 C   0  0  0  0  0  0  0  0  0  0  0  0
   -1.5330   10.7060   -0.3420 C   0  0  1  0  0  0  0  0  0  0  0  0
   -0.4420   10.1290    0.5990 C   0  0  0  0  0  0  0  0  0  0  0  0
    0.8920   10.8190    0.2130 C   0  0  0  0  0  0  0  0  0  0  0  0
    0.4720   11.9970   -0.6970 C   0  0  1  0  0  0  0  0  0  0  0  0
    0.0280   13.1250    0.2860 C   0  0  0  0  0  0  0  0  0  0  0  0
    1.5500   12.5060   -1.7100 C   0  0  2  0  0  0  0  0  0  0  0  0
    2.8280   13.0760   -1.0710 C   0  0  0  0  0  0  0  0  0  0  0  0
    2.8030   14.5430   -0.7930 C   0  0  0  0  0  0  0  0  0  0  0  0
    1.9160   15.4190   -1.3000 C   0  0  0  0  0  0  0  0  0  0  0  0
    0.8680   14.9740   -2.3280 C   0  0  1  0  0  0  0  0  0  0  0  0
    0.8260   15.9910   -3.4990 C   0  0  0  0  0  0  0  0  0  0  0  0
    0.6050   17.4230   -3.0230 C   0  0  0  0  0  0  0  0  0  0  0  0
    1.7000   17.8490   -2.0480 C   0  0  2  0  0  0  0  0  0  0  0  0
    2.9430   17.9180   -2.7530 O   0  0  0  0  0  0  0  0  0  0  0  0
    1.8420   16.8930   -0.8310 C   0  0  0  0  0  0  0  0  0  0  0  0
    0.6110   17.0460    0.0970 C   0  0  0  0  0  0  0  0  0  0  0  0
    3.0700   17.3550   -0.0020 C   0  0  0  0  0  0  0  0  0  0  0  0
    0.9830   13.4700   -2.8290 C   0  0  1  0  0  0  0  0  0  0  0  0
    1.9710   13.3840   -4.0330 C   0  0  0  0  0  0  0  0  0  0  0  0
   -0.4190   13.0000   -3.3710 C   0  0  0  0  0  0  0  0  0  0  0  0
   -1.3940   12.3960   -2.3420 C   0  0  0  0  0  0  0  0  0  0  0  0
   -0.7030   11.3240   -1.4950 C   0  0  2  0  0  0  0  0  0  0  0  0
   -0.2650   10.1650   -2.4550 C   0  0  0  0  0  0  0  0  0  0  0  0
   -2.8563    9.5575    1.4271 H   0  0  0  0  0  0  0  0  0  0  0  0
   -4.3646    9.8760    0.5049 H   0  0  0  0  0  0  0  0  0  0  0  0
   -3.6422    8.2313    0.5049 H   0  0  0  0  0  0  0  0  0  0  0  0
   -3.2774   10.0982   -1.4636 H   0  0  0  0  0  0  0  0  0  0  0  0
   -1.0404    8.7764   -1.9189 H   0  0  0  0  0  0  0  0  0  0  0  0
   -1.6558    7.7587   -0.5301 H   0  0  0  0  0  0  0  0  0  0  0  0
   -2.7344    8.0744   -3.3145 H   0  0  0  0  0  0  0  0  0  0  0  0
   -2.5407    6.6033   -2.2726 H   0  0  0  0  0  0  0  0  0  0  0  0
   -4.1563    8.8184   -1.6271 H   0  0  0  0  0  0  0  0  0  0  0  0
   -4.8379    5.0859   -3.3407 H   0  0  0  0  0  0  0  0  0  0  0  0
   -6.0370    5.9863   -4.3297 H   0  0  0  0  0  0  0  0  0  0  0  0
   -4.3129    6.4905   -4.3297 H   0  0  0  0  0  0  0  0  0  0  0  0
   -7.0499    7.5934   -1.3587 H   0  0  0  0  0  0  0  0  0  0  0  0
   -6.8765    8.4861   -2.9078 H   0  0  0  0  0  0  0  0  0  0  0  0
   -7.4909    6.7982   -2.9078 H   0  0  0  0  0  0  0  0  0  0  0  0
   -2.1770   11.4742    0.1110 H   0  0  0  0  0  0  0  0  0  0  0  0
   -0.6920   10.3476    1.6477 H   0  0  0  0  0  0  0  0  0  0  0  0
   -0.3667    9.0367    0.4935 H   0  0  0  0  0  0  0  0  0  0  0  0
    1.4126   11.1870    1.1094 H   0  0  0  0  0  0  0  0  0  0  0  0
    1.5878   10.1309   -0.2894 H   0  0  0  0  0  0  0  0  0  0  0  0
    0.1629   12.7822    1.3225 H   0  0  0  0  0  0  0  0  0  0  0  0
    0.6398   14.0229    0.1142 H   0  0  0  0  0  0  0  0  0  0  0  0
   -1.0317   13.3650    0.1142 H   0  0  0  0  0  0  0  0  0  0  0  0
    1.8573   11.5779   -2.2143 H   0  0  0  0  0  0  0  0  0  0  0  0
    2.9941   12.5523   -0.1180 H   0  0  0  0  0  0  0  0  0  0  0  0
    3.6314   12.9194   -1.8059 H   0  0  0  0  0  0  0  0  0  0  0  0
    3.5743   14.9410   -0.1171 H   0  0  0  0  0  0  0  0  0  0  0  0
   -0.0963   14.9749   -1.7988 H   0  0  0  0  0  0  0  0  0  0  0  0
    1.7816   15.9434   -4.0417 H   0  0  0  0  0  0  0  0  0  0  0  0
   -0.0213   15.7200   -4.1461 H   0  0  0  0  0  0  0  0  0  0  0  0
    0.6149   18.0969   -3.8923 H   0  0  0  0  0  0  0  0  0  0  0  0
   -0.3648   17.4756   -2.5066 H   0  0  0  0  0  0  0  0  0  0  0  0
    1.4176   18.8321   -1.6433 H   0  0  0  0  0  0  0  0  0  0  0  0
    3.0160   18.8100   -3.1350 H   0  0  0  0  0  0  0  0  0  0  0  0
    0.9361   17.0056    1.1471 H   0  0  0  0  0  0  0  0  0  0  0  0
    0.1222   18.0118   -0.0986 H   0  0  0  0  0  0  0  0  0  0  0  0
   -0.0994   16.2292   -0.0986 H   0  0  0  0  0  0  0  0  0  0  0  0
    2.8416   17.2691    1.0706 H   0  0  0  0  0  0  0  0  0  0  0  0
    3.9356   16.7211   -0.2445 H   0  0  0  0  0  0  0  0  0  0  0  0
    3.3031   18.4023   -0.2445 H   0  0  0  0  0  0  0  0  0  0  0  0
    3.0007   13.2944   -3.6566 H   0  0  0  0  0  0  0  0  0  0  0  0
    1.7266   12.5037   -4.6457 H   0  0  0  0  0  0  0  0  0  0  0  0
    1.8824   14.2933   -4.6457 H   0  0  0  0  0  0  0  0  0  0  0  0
   -0.9112   13.8738   -3.8229 H   0  0  0  0  0  0  0  0  0  0  0  0
   -0.1973   12.1822   -4.0725 H   0  0  0  0  0  0  0  0  0  0  0  0
   -1.7605   13.1955   -1.6813 H   0  0  0  0  0  0  0  0  0  0  0  0
   -2.2304   11.9297   -2.8834 H   0  0  0  0  0  0  0  0  0  0  0  0
    0.0620    9.2997   -1.8598 H   0  0  0  0  0  0  0  0  0  0  0  0
   -1.1150    9.8735   -3.0895 H   0  0  0  0  0  0  0  0  0  0  0  0
    0.5653   10.5085   -3.0895 H   0  0  0  0  0  0  0  0  0  0  0  0
  1  2  1  0
  2  3  1  0
  3  4  1  0
  4  5  1  0
  5  6  1  0
  6  7  1  0
  7  8  1  0
  7  9  1  0
  2 10  1  0
 10 11  1  0
 11 12  1  0
 12 13  1  0
 13 14  1  1
 13 15  1  0
 15 16  1  0
 16 17  1  0
 17 18  2  0
 18 19  1  0
 19 20  1  0
 20 21  1  0
 21 22  1  0
 22 23  1  0
 22 24  1  0
 24 25  1  0
 24 26  1  0
 19 27  1  0
 27 28  1  6
 27 29  1  0
 29 30  1  0
 30 31  1  0
 31 32  1  6
  7  5  1  0
 31 10  1  0
 31 13  1  0
 27 15  1  0
 24 18  1  0
  1 33  1  0
  1 34  1  0
  1 35  1  0
  2 36  1  6
  3 37  1  0
  3 38  1  0
  4 39  1  0
  4 40  1  0
  5 41  1  1
  8 42  1  0
  8 43  1  0
  8 44  1  0
  9 45  1  0
  9 46  1  0
  9 47  1  0
 10 48  1  1
 11 49  1  0
 11 50  1  0
 12 51  1  0
 12 52  1  0
 14 53  1  0
 14 54  1  0
 14 55  1  0
 15 56  1  6
 16 57  1  0
 16 58  1  0
 17 59  1  0
 19 60  1  1
 20 61  1  0
 20 62  1  0
 21 63  1  0
 21 64  1  0
 22 65  1  1
 23 66  1  0
 25 67  1  0
 25 68  1  0
 25 69  1  0
 26 70  1  0
 26 71  1  0
 26 72  1  0
 28 73  1  0
 28 74  1  0
 28 75  1  0
 29 76  1  0
 29 77  1  0
 30 78  1  0
 30 79  1  0
 32 80  1  0
 32 81  1  0
 32 82  1  0
M  END
>  <meeko>  (4) 
{"is_sidechain": [false], "intermolecular_energy": 2.731, "internal_energy": -0.839}

$$$$
EPH_relaxed_0001_pdb2pqr_Repair_409_r2_0001_out
     RDKit          3D

 82 86  0  0  0  0  0  0  0  0999 V2000
    3.6900   18.2120    0.7070 C   0  0  0  0  0  0  0  0  0  0  0  0
    2.6740   18.6270   -0.3610 C   0  0  2  0  0  0  0  0  0  0  0  0
    1.8950   19.8960    0.0410 C   0  0  0  0  0  0  0  0  0  0  0  0
    0.7370   19.6270    1.0050 C   0  0  0  0  0  0  0  0  0  0  0  0
   -0.5550   20.1860    0.4890 C   0  0  2  0  0  0  0  0  0  0  0  0
   -1.6270   20.1940    1.4410 O   0  0  0  0  0  0  0  0  0  0  0  0
   -1.8070   19.3520    0.2910 C   0  0  0  0  0  0  0  0  0  0  0  0
   -1.8290   17.8890    0.6060 C   0  0  0  0  0  0  0  0  0  0  0  0
   -2.8530   19.8460   -0.6590 C   0  0  0  0  0  0  0  0  0  0  0  0
    1.7040   17.4830   -0.6280 C   0  0  1  0  0  0  0  0  0  0  0  0
    0.5910   17.8670   -1.6390 C   0  0  0  0  0  0  0  0  0  0  0  0
    0.2820   16.5940   -2.4680 C   0  0  0  0  0  0  0  0  0  0  0  0
    0.9770   15.4480   -1.6970 C   0  0  1  0  0  0  0  0  0  0  0  0
   -0.0090   15.0860   -0.5420 C   0  0  0  0  0  0  0  0  0  0  0  0
    1.3680   14.1880   -2.5370 C   0  0  2  0  0  0  0  0  0  0  0  0
    0.1870   13.4340   -3.1720 C   0  0  0  0  0  0  0  0  0  0  0  0
   -0.3990   12.3460   -2.3340 C   0  0  0  0  0  0  0  0  0  0  0  0
    0.1780   11.7980   -1.2480 C   0  0  0  0  0  0  0  0  0  0  0  0
    1.5940   12.2030   -0.8200 C   0  0  1  0  0  0  0  0  0  0  0  0
    2.4230   10.9310   -0.5010 C   0  0  0  0  0  0  0  0  0  0  0  0
    1.7390   10.0290    0.5230 C   0  0  0  0  0  0  0  0  0  0  0  0
    0.3570    9.6000    0.0350 C   0  0  2  0  0  0  0  0  0  0  0  0
    0.5140    8.7520   -1.1060 O   0  0  0  0  0  0  0  0  0  0  0  0
   -0.5640   10.7990   -0.3270 C   0  0  0  0  0  0  0  0  0  0  0  0
   -0.9780   11.5450    0.9650 C   0  0  0  0  0  0  0  0  0  0  0  0
   -1.8720   10.2280   -0.9370 C   0  0  0  0  0  0  0  0  0  0  0  0
    2.3560   13.1980   -1.7980 C   0  0  1  0  0  0  0  0  0  0  0  0
    3.0930   12.3900   -2.9100 C   0  0  0  0  0  0  0  0  0  0  0  0
    3.4720   13.9590   -0.9890 C   0  0  0  0  0  0  0  0  0  0  0  0
    3.0510   15.2600   -0.2800 C   0  0  0  0  0  0  0  0  0  0  0  0
    2.2870   16.1820   -1.2350 C   0  0  2  0  0  0  0  0  0  0  0  0
    3.2600   16.5810   -2.3960 C   0  0  0  0  0  0  0  0  0  0  0  0
    3.2637   18.3861    1.7060 H   0  0  0  0  0  0  0  0  0  0  0  0
    3.9284   17.1444    0.5911 H   0  0  0  0  0  0  0  0  0  0  0  0
    4.6077   18.8073    0.5911 H   0  0  0  0  0  0  0  0  0  0  0  0
    3.2345   18.8604   -1.2783 H   0  0  0  0  0  0  0  0  0  0  0  0
    2.5942   20.5943    0.5242 H   0  0  0  0  0  0  0  0  0  0  0  0
    1.4577   20.3101   -0.8795 H   0  0  0  0  0  0  0  0  0  0  0  0
    0.6279   18.5404    1.1369 H   0  0  0  0  0  0  0  0  0  0  0  0
    0.9658   20.1191    1.9618 H   0  0  0  0  0  0  0  0  0  0  0  0
   -0.0173   20.8792   -0.1746 H   0  0  0  0  0  0  0  0  0  0  0  0
   -1.8311   17.7488    1.6970 H   0  0  0  0  0  0  0  0  0  0  0  0
   -2.7341   17.4350    0.1762 H   0  0  0  0  0  0  0  0  0  0  0  0
   -0.9380   17.4080    0.1762 H   0  0  0  0  0  0  0  0  0  0  0  0
   -3.7044   20.2481   -0.0902 H   0  0  0  0  0  0  0  0  0  0  0  0
   -2.4281   20.6386   -1.2924 H   0  0  0  0  0  0  0  0  0  0  0  0
   -3.1952   19.0143   -1.2924 H   0  0  0  0  0  0  0  0  0  0  0  0
    1.3544   17.2954    0.3979 H   0  0  0  0  0  0  0  0  0  0  0  0
   -0.3105   18.1978   -1.1025 H   0  0  0  0  0  0  0  0  0  0  0  0
    0.9155   18.6929   -2.2891 H   0  0  0  0  0  0  0  0  0  0  0  0
   -0.8029   16.4216   -2.5250 H   0  0  0  0  0  0  0  0  0  0  0  0
    0.6387   16.6751   -3.5054 H   0  0  0  0  0  0  0  0  0  0  0  0
    0.4797   15.2654    0.4270 H   0  0  0  0  0  0  0  0  0  0  0  0
   -0.9103   15.7119   -0.6196 H   0  0  0  0  0  0  0  0  0  0  0  0
   -0.2912   14.0256   -0.6196 H   0  0  0  0  0  0  0  0  0  0  0  0
    1.9260   14.6285   -3.3764 H   0  0  0  0  0  0  0  0  0  0  0  0
   -0.6075   14.1643   -3.3852 H   0  0  0  0  0  0  0  0  0  0  0  0
    0.5871   12.9435   -4.0716 H   0  0  0  0  0  0  0  0  0  0  0  0
   -1.3857   11.9594   -2.6289 H   0  0  0  0  0  0  0  0  0  0  0  0
    1.4745   12.8086    0.0905 H   0  0  0  0  0  0  0  0  0  0  0  0
    2.5680   10.3620   -1.4312 H   0  0  0  0  0  0  0  0  0  0  0  0
    3.3823   11.2561   -0.0720 H   0  0  0  0  0  0  0  0  0  0  0  0
    2.3577    9.1339    0.6846 H   0  0  0  0  0  0  0  0  0  0  0  0
    1.6215   10.5897    1.4620 H   0  0  0  0  0  0  0  0  0  0  0  0
   -0.1341    9.0660    0.8618 H   0  0  0  0  0  0  0  0  0  0  0  0
    0.6890    9.3220   -1.8740 H   0  0  0  0  0  0  0  0  0  0  0  0
   -0.6561   10.9650    1.8425 H   0  0  0  0  0  0  0  0  0  0  0  0
   -0.5007   12.5358    0.9852 H   0  0  0  0  0  0  0  0  0  0  0  0
   -2.0713   11.6642    0.9852 H   0  0  0  0  0  0  0  0  0  0  0  0
   -2.5545    9.9300   -0.1275 H   0  0  0  0  0  0  0  0  0  0  0  0
   -2.3536   10.9978   -1.5579 H   0  0  0  0  0  0  0  0  0  0  0  0
   -1.6349    9.3515   -1.5579 H   0  0  0  0  0  0  0  0  0  0  0  0
    3.7646   11.6538   -2.4442 H   0  0  0  0  0  0  0  0  0  0  0  0
    2.3535   11.8679   -3.5350 H   0  0  0  0  0  0  0  0  0  0  0  0
    3.6807   13.0785   -3.5350 H   0  0  0  0  0  0  0  0  0  0  0  0
    3.8544   13.2704   -0.2212 H   0  0  0  0  0  0  0  0  0  0  0  0
    4.2126   14.2680   -1.7413 H   0  0  0  0  0  0  0  0  0  0  0  0
    2.4043   15.0112    0.5743 H   0  0  0  0  0  0  0  0  0  0  0  0
    3.9568   15.7821    0.0620 H   0  0  0  0  0  0  0  0  0  0  0  0
    4.1989   16.9660   -1.9715 H   0  0  0  0  0  0  0  0  0  0  0  0
    3.4729   15.6976   -3.0159 H   0  0  0  0  0  0  0  0  0  0  0  0
    2.7914   17.3596   -3.0159 H   0  0  0  0  0  0  0  0  0  0  0  0
  1  2  1  0
  2  3  1  0
  3  4  1  0
  4  5  1  0
  5  6  1  0
  6  7  1  0
  7  8  1  0
  7  9  1  0
  2 10  1  0
 10 11  1  0
 11 12  1  0
 12 13  1  0
 13 14  1  1
 13 15  1  0
 15 16  1  0
 16 17  1  0
 17 18  2  0
 18 19  1  0
 19 20  1  0
 20 21  1  0
 21 22  1  0
 22 23  1  0
 22 24  1  0
 24 25  1  0
 24 26  1  0
 19 27  1  0
 27 28  1  6
 27 29  1  0
 29 30  1  0
 30 31  1  0
 31 32  1  6
  7  5  1  0
 31 10  1  0
 31 13  1  0
 27 15  1  0
 24 18  1  0
  1 33  1  0
  1 34  1  0
  1 35  1  0
  2 36  1  6
  3 37  1  0
  3 38  1  0
  4 39  1  0
  4 40  1  0
  5 41  1  6
  8 42  1  0
  8 43  1  0
  8 44  1  0
  9 45  1  0
  9 46  1  0
  9 47  1  0
 10 48  1  1
 11 49  1  0
 11 50  1  0
 12 51  1  0
 12 52  1  0
 14 53  1  0
 14 54  1  0
 14 55  1  0
 15 56  1  6
 16 57  1  0
 16 58  1  0
 17 59  1  0
 19 60  1  1
 20 61  1  0
 20 62  1  0
 21 63  1  0
 21 64  1  0
 22 65  1  1
 23 66  1  0
 25 67  1  0
 25 68  1  0
 25 69  1  0
 26 70  1  0
 26 71  1  0
 26 72  1  0
 28 73  1  0
 28 74  1  0
 28 75  1  0
 29 76  1  0
 29 77  1  0
 30 78  1  0
 30 79  1  0
 32 80  1  0
 32 81  1  0
 32 82  1  0
M  END
>  <meeko>  (5) 
{"is_sidechain": [false], "intermolecular_energy": 2.731, "internal_energy": -0.839}

$$$$
EPH_relaxed_0001_pdb2pqr_Repair_409_r2_0001_out
     RDKit          3D

 82 86  0  0  0  0  0  0  0  0999 V2000
    2.3310   18.0270   -2.5830 C   0  0  0  0  0  0  0  0  0  0  0  0
    1.0510   17.6100   -1.8530 C   0  0  2  0  0  0  0  0  0  0  0  0
    1.2180   17.6440   -0.3210 C   0  0  0  0  0  0  0  0  0  0  0  0
    0.9020   19.0070    0.3030 C   0  0  0  0  0  0  0  0  0  0  0  0
   -0.5560   19.1460    0.6210 C   0  0  2  0  0  0  0  0  0  0  0  0
   -1.4120   18.2320   -0.0780 O   0  0  0  0  0  0  0  0  0  0  0  0
   -1.5900   19.6250   -0.3810 C   0  0  0  0  0  0  0  0  0  0  0  0
   -1.2070   19.9980   -1.7780 C   0  0  0  0  0  0  0  0  0  0  0  0
   -2.8750   20.1950    0.1340 C   0  0  0  0  0  0  0  0  0  0  0  0
    0.6280   16.2160   -2.3000 C   0  0  1  0  0  0  0  0  0  0  0  0
    0.7670   16.0120   -3.8320 C   0  0  0  0  0  0  0  0  0  0  0  0
    1.1880   14.5360   -4.0510 C   0  0  0  0  0  0  0  0  0  0  0  0
    0.9570   13.8570   -2.6810 C   0  0  1  0  0  0  0  0  0  0  0  0
   -0.5720   13.5460   -2.6400 C   0  0  0  0  0  0  0  0  0  0  0  0
    1.8140   12.5820   -2.3880 C   0  0  2  0  0  0  0  0  0  0  0  0
    1.5690   11.3990   -3.3400 C   0  0  0  0  0  0  0  0  0  0  0  0
    0.5080   10.4420   -2.9090 C   0  0  0  0  0  0  0  0  0  0  0  0
   -0.0220   10.3660   -1.6740 C   0  0  0  0  0  0  0  0  0  0  0  0
    0.5160   11.2370   -0.5310 C   0  0  1  0  0  0  0  0  0  0  0  0
    0.7190   10.3640    0.7350 C   0  0  0  0  0  0  0  0  0  0  0  0
   -0.5420    9.6000    1.1270 C   0  0  0  0  0  0  0  0  0  0  0  0
   -1.0130    8.7020   -0.0130 C   0  0  2  0  0  0  0  0  0  0  0  0
   -0.0450    7.6680   -0.2150 O   0  0  0  0  0  0  0  0  0  0  0  0
   -1.2420    9.4700   -1.3450 C   0  0  0  0  0  0  0  0  0  0  0  0
   -2.4900   10.3780   -1.2140 C   0  0  0  0  0  0  0  0  0  0  0  0
   -1.5760    8.4290   -2.4460 C   0  0  0  0  0  0  0  0  0  0  0  0
    1.7920   12.1200   -0.8740 C   0  0  1  0  0  0  0  0  0  0  0  0
    3.0910   11.2900   -0.6430 C   0  0  0  0  0  0  0  0  0  0  0  0
    1.8590   13.3360    0.1240 C   0  0  0  0  0  0  0  0  0  0  0  0
    1.0890   14.6090   -0.2790 C   0  0  0  0  0  0  0  0  0  0  0  0
    1.4160   15.0140   -1.7200 C   0  0  2  0  0  0  0  0  0  0  0  0
    2.9440   15.3550   -1.7870 C   0  0  0  0  0  0  0  0  0  0  0  0
    3.1075   18.2800   -1.8461 H   0  0  0  0  0  0  0  0  0  0  0  0
    2.6807   17.1963   -3.2136 H   0  0  0  0  0  0  0  0  0  0  0  0
    2.1242   18.9042   -3.2136 H   0  0  0  0  0  0  0  0  0  0  0  0
    0.2691   18.3378   -2.1156 H   0  0  0  0  0  0  0  0  0  0  0  0
    0.5421   16.8957    0.1187 H   0  0  0  0  0  0  0  0  0  0  0  0
    2.2759   17.4306   -0.1082 H   0  0  0  0  0  0  0  0  0  0  0  0
    1.4815   19.1171    1.2315 H   0  0  0  0  0  0  0  0  0  0  0  0
    1.1705   19.7877   -0.4239 H   0  0  0  0  0  0  0  0  0  0  0  0
   -0.3249   19.4595    1.6497 H   0  0  0  0  0  0  0  0  0  0  0  0
   -0.4192   20.7652   -1.7498 H   0  0  0  0  0  0  0  0  0  0  0  0
   -0.8334   19.1081   -2.3058 H   0  0  0  0  0  0  0  0  0  0  0  0
   -2.0867   20.3950   -2.3058 H   0  0  0  0  0  0  0  0  0  0  0  0
   -2.8636   20.1899    1.2339 H   0  0  0  0  0  0  0  0  0  0  0  0
   -2.9886   21.2279   -0.2268 H   0  0  0  0  0  0  0  0  0  0  0  0
   -3.7170   19.5859   -0.2268 H   0  0  0  0  0  0  0  0  0  0  0  0
   -0.4052   16.2068   -1.9227 H   0  0  0  0  0  0  0  0  0  0  0  0
   -0.1942   16.2093   -4.3291 H   0  0  0  0  0  0  0  0  0  0  0  0
    1.5115   16.7019   -4.2561 H   0  0  0  0  0  0  0  0  0  0  0  0
    0.5662   14.0659   -4.8271 H   0  0  0  0  0  0  0  0  0  0  0  0
    2.2303   14.4456   -4.3909 H   0  0  0  0  0  0  0  0  0  0  0  0
   -0.9045   13.4784   -1.5936 H   0  0  0  0  0  0  0  0  0  0  0  0
   -1.1236   14.3503   -3.1487 H   0  0  0  0  0  0  0  0  0  0  0  0
   -0.7655   12.5901   -3.1487 H   0  0  0  0  0  0  0  0  0  0  0  0
    2.8356   12.9301   -2.6006 H   0  0  0  0  0  0  0  0  0  0  0  0
    1.2814   11.8060   -4.3206 H   0  0  0  0  0  0  0  0  0  0  0  0
    2.5070   10.8247   -3.3587 H   0  0  0  0  0  0  0  0  0  0  0  0
    0.1268    9.7392   -3.6645 H   0  0  0  0  0  0  0  0  0  0  0  0
   -0.2555   11.9974   -0.3398 H   0  0  0  0  0  0  0  0  0  0  0  0
    1.5234    9.6398    0.5387 H   0  0  0  0  0  0  0  0  0  0  0  0
    0.9741   11.0367    1.5671 H   0  0  0  0  0  0  0  0  0  0  0  0
   -0.3268    8.9789    2.0090 H   0  0  0  0  0  0  0  0  0  0  0  0
   -1.3365   10.3266    1.3523 H   0  0  0  0  0  0  0  0  0  0  0  0
   -1.9875    8.2834    0.2787 H   0  0  0  0  0  0  0  0  0  0  0  0
    0.0880    7.5720   -1.1740 H   0  0  0  0  0  0  0  0  0  0  0  0
   -2.7145   10.5413   -0.1496 H   0  0  0  0  0  0  0  0  0  0  0  0
   -2.2925   11.3450   -1.6997 H   0  0  0  0  0  0  0  0  0  0  0  0
   -3.3493    9.8925   -1.6997 H   0  0  0  0  0  0  0  0  0  0  0  0
   -1.8798    7.4823   -1.9754 H   0  0  0  0  0  0  0  0  0  0  0  0
   -2.3977    8.8077   -3.0716 H   0  0  0  0  0  0  0  0  0  0  0  0
   -0.6873    8.2590   -3.0716 H   0  0  0  0  0  0  0  0  0  0  0  0
    3.2671   11.1775    0.4370 H   0  0  0  0  0  0  0  0  0  0  0  0
    2.9777   10.2965   -1.1015 H   0  0  0  0  0  0  0  0  0  0  0  0
    3.9449   11.8102   -1.1015 H   0  0  0  0  0  0  0  0  0  0  0  0
    1.4576   12.9961    1.0901 H   0  0  0  0  0  0  0  0  0  0  0  0
    2.9177   13.6341    0.1439 H   0  0  0  0  0  0  0  0  0  0  0  0
    0.0089   14.4181   -0.1950 H   0  0  0  0  0  0  0  0  0  0  0  0
    1.3884   15.4275    0.3921 H   0  0  0  0  0  0  0  0  0  0  0  0
    3.3448   15.4444   -0.7665 H   0  0  0  0  0  0  0  0  0  0  0  0
    3.4755   14.5534   -2.3207 H   0  0  0  0  0  0  0  0  0  0  0  0
    3.0843   16.3065   -2.3207 H   0  0  0  0  0  0  0  0  0  0  0  0
  1  2  1  0
  2  3  1  0
  3  4  1  0
  4  5  1  0
  5  6  1  0
  6  7  1  0
  7  8  1  0
  7  9  1  0
  2 10  1  0
 10 11  1  0
 11 12  1  0
 12 13  1  0
 13 14  1  1
 13 15  1  0
 15 16  1  0
 16 17  1  0
 17 18  2  0
 18 19  1  0
 19 20  1  0
 20 21  1  0
 21 22  1  0
 22 23  1  0
 22 24  1  0
 24 25  1  0
 24 26  1  0
 19 27  1  0
 27 28  1  6
 27 29  1  0
 29 30  1  0
 30 31  1  0
 31 32  1  1
  7  5  1  0
 31 10  1  0
 31 13  1  0
 27 15  1  0
 24 18  1  0
  1 33  1  0
  1 34  1  0
  1 35  1  0
  2 36  1  1
  3 37  1  0
  3 38  1  0
  4 39  1  0
  4 40  1  0
  5 41  1  1
  8 42  1  0
  8 43  1  0
  8 44  1  0
  9 45  1  0
  9 46  1  0
  9 47  1  0
 10 48  1  6
 11 49  1  0
 11 50  1  0
 12 51  1  0
 12 52  1  0
 14 53  1  0
 14 54  1  0
 14 55  1  0
 15 56  1  6
 16 57  1  0
 16 58  1  0
 17 59  1  0
 19 60  1  1
 20 61  1  0
 20 62  1  0
 21 63  1  0
 21 64  1  0
 22 65  1  1
 23 66  1  0
 25 67  1  0
 25 68  1  0
 25 69  1  0
 26 70  1  0
 26 71  1  0
 26 72  1  0
 28 73  1  0
 28 74  1  0
 28 75  1  0
 29 76  1  0
 29 77  1  0
 30 78  1  0
 30 79  1  0
 32 80  1  0
 32 81  1  0
 32 82  1  0
M  END
>  <meeko>  (6) 
{"is_sidechain": [false], "intermolecular_energy": 2.731, "internal_energy": -0.839}

$$$$
EPH_relaxed_0001_pdb2pqr_Repair_409_r2_0001_out
     RDKit          3D

 82 86  0  0  0  0  0  0  0  0999 V2000
   -5.1180    5.9100   -1.8550 C   0  0  0  0  0  0  0  0  0  0  0  0
   -5.4540    7.4040   -1.8410 C   0  0  2  0  0  0  0  0  0  0  0  0
   -5.2440    8.0330   -0.4490 C   0  0  0  0  0  0  0  0  0  0  0  0
   -4.1830    9.1370   -0.4260 C   0  0  0  0  0  0  0  0  0  0  0  0
   -2.8210    8.6050   -0.7550 C   0  0  2  0  0  0  0  0  0  0  0  0
   -1.8050    8.9290    0.2030 O   0  0  0  0  0  0  0  0  0  0  0  0
   -1.6410    9.4890   -1.1110 C   0  0  0  0  0  0  0  0  0  0  0  0
   -1.7690   10.9790   -1.1570 C   0  0  0  0  0  0  0  0  0  0  0  0
   -0.5070    8.8910   -1.8830 C   0  0  0  0  0  0  0  0  0  0  0  0
   -6.8920    7.6180   -2.2970 C   0  0  1  0  0  0  0  0  0  0  0  0
   -7.2010    6.9160   -3.6470 C   0  0  0  0  0  0  0  0  0  0  0  0
   -8.6720    6.4310   -3.5730 C   0  0  0  0  0  0  0  0  0  0  0  0
   -9.2580    7.1510   -2.3350 C   0  0  1  0  0  0  0  0  0  0  0  0
   -9.6230    8.5820   -2.8400 C   0  0  0  0  0  0  0  0  0  0  0  0
  -10.4750    6.4550   -1.6430 C   0  0  2  0  0  0  0  0  0  0  0  0
  -11.7320    6.3170   -2.5190 C   0  0  0  0  0  0  0  0  0  0  0  0
  -12.6950    7.4550   -2.4350 C   0  0  0  0  0  0  0  0  0  0  0  0
  -12.7010    8.4060   -1.4830 C   0  0  0  0  0  0  0  0  0  0  0  0
  -11.7300    8.3400   -0.2970 C   0  0  1  0  0  0  0  0  0  0  0  0
  -12.5010    8.6160    1.0200 C   0  0  0  0  0  0  0  0  0  0  0  0
  -13.2820    9.9260    0.9770 C   0  0  0  0  0  0  0  0  0  0  0  0
  -14.2780    9.9310   -0.1790 C   0  0  2  0  0  0  0  0  0  0  0  0
  -15.2860    8.9480    0.0770 O   0  0  0  0  0  0  0  0  0  0  0  0
  -13.6170    9.6530   -1.5580 C   0  0  0  0  0  0  0  0  0  0  0  0
  -12.7500   10.8680   -1.9740 C   0  0  0  0  0  0  0  0  0  0  0  0
  -14.7470    9.5440   -2.6170 C   0  0  0  0  0  0  0  0  0  0  0  0
  -10.8260    7.0350   -0.2140 C   0  0  1  0  0  0  0  0  0  0  0  0
  -11.5880    5.9090    0.5490 C   0  0  0  0  0  0  0  0  0  0  0  0
   -9.5400    7.3550    0.6350 C   0  0  0  0  0  0  0  0  0  0  0  0
   -8.3300    7.9290   -0.1260 C   0  0  0  0  0  0  0  0  0  0  0  0
   -8.0180    7.0930   -1.3710 C   0  0  2  0  0  0  0  0  0  0  0  0
   -7.6250    5.6530   -0.8940 C   0  0  0  0  0  0  0  0  0  0  0  0
   -5.0355    5.5430   -0.8213 H   0  0  0  0  0  0  0  0  0  0  0  0
   -5.9148    5.3598   -2.3769 H   0  0  0  0  0  0  0  0  0  0  0  0
   -4.1623    5.7540   -2.3769 H   0  0  0  0  0  0  0  0  0  0  0  0
   -4.7650    7.9044   -2.5373 H   0  0  0  0  0  0  0  0  0  0  0  0
   -6.1997    8.4628   -0.1144 H   0  0  0  0  0  0  0  0  0  0  0  0
   -4.8886    7.2317    0.2155 H   0  0  0  0  0  0  0  0  0  0  0  0
   -4.4531    9.9062   -1.1645 H   0  0  0  0  0  0  0  0  0  0  0  0
   -4.1498    9.5591    0.5893 H   0  0  0  0  0  0  0  0  0  0  0  0
   -3.2582    7.7247   -1.2490 H   0  0  0  0  0  0  0  0  0  0  0  0
   -1.8031   11.3759   -0.1317 H   0  0  0  0  0  0  0  0  0  0  0  0
   -0.9042   11.4051   -1.6866 H   0  0  0  0  0  0  0  0  0  0  0  0
   -2.6939   11.2514   -1.6866 H   0  0  0  0  0  0  0  0  0  0  0  0
    0.2441    8.4949   -1.1837 H   0  0  0  0  0  0  0  0  0  0  0  0
   -0.8847    8.0748   -2.5164 H   0  0  0  0  0  0  0  0  0  0  0  0
   -0.0468    9.6637   -2.5164 H   0  0  0  0  0  0  0  0  0  0  0  0
   -6.9133    8.7173   -2.3294 H   0  0  0  0  0  0  0  0  0  0  0  0
   -7.0772    7.6244   -4.4793 H   0  0  0  0  0  0  0  0  0  0  0  0
   -6.5156    6.0732   -3.8197 H   0  0  0  0  0  0  0  0  0  0  0  0
   -9.2207    6.7146   -4.4832 H   0  0  0  0  0  0  0  0  0  0  0  0
   -8.7471    5.3364   -3.4936 H   0  0  0  0  0  0  0  0  0  0  0  0
   -9.7917    9.2433   -1.9773 H   0  0  0  0  0  0  0  0  0  0  0  0
   -8.7970    8.9776   -3.4493 H   0  0  0  0  0  0  0  0  0  0  0  0
  -10.5376    8.5336   -3.4493 H   0  0  0  0  0  0  0  0  0  0  0  0
  -10.1053    5.4305   -1.4890 H   0  0  0  0  0  0  0  0  0  0  0  0
  -11.4081    6.2222   -3.5660 H   0  0  0  0  0  0  0  0  0  0  0  0
  -12.2700    5.4342   -2.1431 H   0  0  0  0  0  0  0  0  0  0  0  0
  -13.4649    7.5216   -3.2178 H   0  0  0  0  0  0  0  0  0  0  0  0
  -10.9874    9.1336   -0.4668 H   0  0  0  0  0  0  0  0  0  0  0  0
  -13.2065    7.7904    1.1953 H   0  0  0  0  0  0  0  0  0  0  0  0
  -11.7609    8.6948    1.8300 H   0  0  0  0  0  0  0  0  0  0  0  0
  -13.8287   10.0501    1.9234 H   0  0  0  0  0  0  0  0  0  0  0  0
  -12.5715   10.7530    0.8311 H   0  0  0  0  0  0  0  0  0  0  0  0
  -14.7119   10.9402   -0.2362 H   0  0  0  0  0  0  0  0  0  0  0  0
  -15.4170    8.4410   -0.7420 H   0  0  0  0  0  0  0  0  0  0  0  0
  -12.3831   11.3822   -1.0734 H   0  0  0  0  0  0  0  0  0  0  0  0
  -11.8946   10.5205   -2.5719 H   0  0  0  0  0  0  0  0  0  0  0  0
  -13.3568   11.5639   -2.5719 H   0  0  0  0  0  0  0  0  0  0  0  0
  -15.7180    9.4503   -2.1088 H   0  0  0  0  0  0  0  0  0  0  0  0
  -14.7480   10.4462   -3.2463 H   0  0  0  0  0  0  0  0  0  0  0  0
  -14.5756    8.6582   -3.2463 H   0  0  0  0  0  0  0  0  0  0  0  0
  -11.4827    6.0645    1.6329 H   0  0  0  0  0  0  0  0  0  0  0  0
  -12.6533    5.9374    0.2762 H   0  0  0  0  0  0  0  0  0  0  0  0
  -11.1656    4.9306    0.2762 H   0  0  0  0  0  0  0  0  0  0  0  0
   -9.8243    8.0851    1.4071 H   0  0  0  0  0  0  0  0  0  0  0  0
   -9.2015    6.3826    1.0220 H   0  0  0  0  0  0  0  0  0  0  0  0
   -8.5546    8.9612   -0.4328 H   0  0  0  0  0  0  0  0  0  0  0  0
   -7.4545    7.9068    0.5396 H   0  0  0  0  0  0  0  0  0  0  0  0
   -7.6162    5.6206    0.2055 H   0  0  0  0  0  0  0  0  0  0  0  0
   -8.3579    4.9273   -1.2763 H   0  0  0  0  0  0  0  0  0  0  0  0
   -6.6250    5.4002   -1.2763 H   0  0  0  0  0  0  0  0  0  0  0  0
  1  2  1  0
  2  3  1  0
  3  4  1  0
  4  5  1  0
  5  6  1  0
  6  7  1  0
  7  8  1  0
  7  9  1  0
  2 10  1  0
 10 11  1  0
 11 12  1  0
 12 13  1  0
 13 14  1  6
 13 15  1  0
 15 16  1  0
 16 17  1  0
 17 18  2  0
 18 19  1  0
 19 20  1  0
 20 21  1  0
 21 22  1  0
 22 23  1  0
 22 24  1  0
 24 25  1  0
 24 26  1  0
 19 27  1  0
 27 28  1  1
 27 29  1  0
 29 30  1  0
 30 31  1  0
 31 32  1  1
  7  5  1  0
 31 10  1  0
 31 13  1  0
 27 15  1  0
 24 18  1  0
  1 33  1  0
  1 34  1  0
  1 35  1  0
  2 36  1  6
  3 37  1  0
  3 38  1  0
  4 39  1  0
  4 40  1  0
  5 41  1  6
  8 42  1  0
  8 43  1  0
  8 44  1  0
  9 45  1  0
  9 46  1  0
  9 47  1  0
 10 48  1  6
 11 49  1  0
 11 50  1  0
 12 51  1  0
 12 52  1  0
 14 53  1  0
 14 54  1  0
 14 55  1  0
 15 56  1  1
 16 57  1  0
 16 58  1  0
 17 59  1  0
 19 60  1  6
 20 61  1  0
 20 62  1  0
 21 63  1  0
 21 64  1  0
 22 65  1  6
 23 66  1  0
 25 67  1  0
 25 68  1  0
 25 69  1  0
 26 70  1  0
 26 71  1  0
 26 72  1  0
 28 73  1  0
 28 74  1  0
 28 75  1  0
 29 76  1  0
 29 77  1  0
 30 78  1  0
 30 79  1  0
 32 80  1  0
 32 81  1  0
 32 82  1  0
M  END
>  <meeko>  (7) 
{"is_sidechain": [false], "intermolecular_energy": 2.731, "internal_energy": -0.839}

$$$$
EPH_relaxed_0001_pdb2pqr_Repair_409_r2_0001_out
     RDKit          3D

 82 86  0  0  0  0  0  0  0  0999 V2000
    0.4500    8.8030   -2.3670 C   0  0  0  0  0  0  0  0  0  0  0  0
    1.1910    9.9460   -3.0670 C   0  0  2  0  0  0  0  0  0  0  0  0
    2.6910    9.9680   -2.7140 C   0  0  0  0  0  0  0  0  0  0  0  0
    3.5720   10.5750   -3.8090 C   0  0  0  0  0  0  0  0  0  0  0  0
    4.9690   10.8200   -3.3250 C   0  0  2  0  0  0  0  0  0  0  0  0
    5.5630   12.0360   -3.8000 O   0  0  0  0  0  0  0  0  0  0  0  0
    6.1830   10.8150   -4.2350 C   0  0  0  0  0  0  0  0  0  0  0  0
    6.0560   10.5580   -5.7040 C   0  0  0  0  0  0  0  0  0  0  0  0
    7.5310   10.5750   -3.6290 C   0  0  0  0  0  0  0  0  0  0  0  0
    0.5500   11.2800   -2.7010 C   0  0  1  0  0  0  0  0  0  0  0  0
   -0.8290   11.1110   -2.0090 C   0  0  0  0  0  0  0  0  0  0  0  0
   -0.9470   12.2510   -0.9650 C   0  0  0  0  0  0  0  0  0  0  0  0
    0.2030   13.2240   -1.3160 C   0  0  1  0  0  0  0  0  0  0  0  0
   -0.3440   14.0810   -2.5010 C   0  0  0  0  0  0  0  0  0  0  0  0
    0.7300   14.1210   -0.1500 C   0  0  2  0  0  0  0  0  0  0  0  0
   -0.3030   15.0980    0.4400 C   0  0  0  0  0  0  0  0  0  0  0  0
   -0.3450   16.4450   -0.2020 C   0  0  0  0  0  0  0  0  0  0  0  0
    0.5980   16.9540   -1.0150 C   0  0  0  0  0  0  0  0  0  0  0  0
    1.9010   16.1890   -1.2860 C   0  0  1  0  0  0  0  0  0  0  0  0
    3.1060   17.1570   -1.1530 C   0  0  0  0  0  0  0  0  0  0  0  0
    2.9620   18.3950   -2.0340 C   0  0  0  0  0  0  0  0  0  0  0  0
    1.6850   19.1600   -1.6950 C   0  0  2  0  0  0  0  0  0  0  0  0
    1.8070   19.6990   -0.3750 O   0  0  0  0  0  0  0  0  0  0  0  0
    0.4040   18.2840   -1.7850 C   0  0  0  0  0  0  0  0  0  0  0  0
    0.1060   17.9490   -3.2670 C   0  0  0  0  0  0  0  0  0  0  0  0
   -0.7930   19.1360   -1.2830 C   0  0  0  0  0  0  0  0  0  0  0  0
    2.1010   14.8470   -0.4590 C   0  0  1  0  0  0  0  0  0  0  0  0
    2.7580   15.1650    0.9190 C   0  0  0  0  0  0  0  0  0  0  0  0
    3.1110   13.9160   -1.2280 C   0  0  0  0  0  0  0  0  0  0  0  0
    2.5150   12.9670   -2.2850 C   0  0  0  0  0  0  0  0  0  0  0  0
    1.3210   12.1930   -1.7150 C   0  0  2  0  0  0  0  0  0  0  0  0
    1.8450   11.3050   -0.5360 C   0  0  0  0  0  0  0  0  0  0  0  0
    0.5305    8.9271   -1.2770 H   0  0  0  0  0  0  0  0  0  0  0  0
   -0.6100    8.8190   -2.6606 H   0  0  0  0  0  0  0  0  0  0  0  0
    0.8973    7.8419   -2.6606 H   0  0  0  0  0  0  0  0  0  0  0  0
    1.1102    9.7787   -4.1512 H   0  0  0  0  0  0  0  0  0  0  0  0
    2.8229   10.5582   -1.7952 H   0  0  0  0  0  0  0  0  0  0  0  0
    3.0074    8.9218   -2.5899 H   0  0  0  0  0  0  0  0  0  0  0  0
    3.6070    9.8825   -4.6629 H   0  0  0  0  0  0  0  0  0  0  0  0
    3.1366   11.5416   -4.1025 H   0  0  0  0  0  0  0  0  0  0  0  0
    4.7557   10.3050   -2.3767 H   0  0  0  0  0  0  0  0  0  0  0  0
    5.5739    9.5825   -5.8652 H   0  0  0  0  0  0  0  0  0  0  0  0
    5.4452   11.3492   -6.1632 H   0  0  0  0  0  0  0  0  0  0  0  0
    7.0556   10.5534   -6.1632 H   0  0  0  0  0  0  0  0  0  0  0  0
    7.4479   10.5898   -2.5322 H   0  0  0  0  0  0  0  0  0  0  0  0
    7.9103    9.5952   -3.9548 H   0  0  0  0  0  0  0  0  0  0  0  0
    8.2252   11.3637   -3.9548 H   0  0  0  0  0  0  0  0  0  0  0  0
    0.5150   11.7464   -3.6966 H   0  0  0  0  0  0  0  0  0  0  0  0
   -1.6375   11.1910   -2.7506 H   0  0  0  0  0  0  0  0  0  0  0  0
   -0.9122   10.1249   -1.5287 H   0  0  0  0  0  0  0  0  0  0  0  0
   -1.9211   12.7550   -1.0492 H   0  0  0  0  0  0  0  0  0  0  0  0
   -0.8773   11.8789    0.0678 H   0  0  0  0  0  0  0  0  0  0  0  0
   -0.8959   14.9457   -2.1040 H   0  0  0  0  0  0  0  0  0  0  0  0
    0.4964   14.4337   -3.1169 H   0  0  0  0  0  0  0  0  0  0  0  0
   -1.0178   13.4673   -3.1169 H   0  0  0  0  0  0  0  0  0  0  0  0
    0.9308   13.3841    0.6417 H   0  0  0  0  0  0  0  0  0  0  0  0
   -1.2989   14.6419    0.3388 H   0  0  0  0  0  0  0  0  0  0  0  0
   -0.0004   15.2674    1.4839 H   0  0  0  0  0  0  0  0  0  0  0  0
   -1.2219   17.0751    0.0077 H   0  0  0  0  0  0  0  0  0  0  0  0
    1.8299   15.8219   -2.3205 H   0  0  0  0  0  0  0  0  0  0  0  0
    3.1863   17.4781   -0.1040 H   0  0  0  0  0  0  0  0  0  0  0  0
    4.0063   16.6166   -1.4809 H   0  0  0  0  0  0  0  0  0  0  0  0
    3.8289   19.0531   -1.8748 H   0  0  0  0  0  0  0  0  0  0  0  0
    2.9107   18.0742   -3.0849 H   0  0  0  0  0  0  0  0  0  0  0  0
    1.5715   19.9596   -2.4418 H   0  0  0  0  0  0  0  0  0  0  0  0
    1.9510   18.9560    0.2350 H   0  0  0  0  0  0  0  0  0  0  0  0
   -0.6243   17.1280   -3.3176 H   0  0  0  0  0  0  0  0  0  0  0  0
   -0.3058   18.8374   -3.7681 H   0  0  0  0  0  0  0  0  0  0  0  0
    1.0364   17.6436   -3.7681 H   0  0  0  0  0  0  0  0  0  0  0  0
   -0.8025   19.1428   -0.1831 H   0  0  0  0  0  0  0  0  0  0  0  0
   -0.6914   20.1661   -1.6551 H   0  0  0  0  0  0  0  0  0  0  0  0
   -1.7331   18.7027   -1.6551 H   0  0  0  0  0  0  0  0  0  0  0  0
    2.0876   14.8405    1.7285 H   0  0  0  0  0  0  0  0  0  0  0  0
    3.7162   14.6310    1.0003 H   0  0  0  0  0  0  0  0  0  0  0  0
    2.9336   16.2478    1.0003 H   0  0  0  0  0  0  0  0  0  0  0  0
    3.8400   14.5642   -1.7363 H   0  0  0  0  0  0  0  0  0  0  0  0
    3.5380   13.2568   -0.4578 H   0  0  0  0  0  0  0  0  0  0  0  0
    2.1812   13.5571   -3.1512 H   0  0  0  0  0  0  0  0  0  0  0  0
    3.2893   12.2461   -2.5862 H   0  0  0  0  0  0  0  0  0  0  0  0
    1.5709   11.7695    0.4227 H   0  0  0  0  0  0  0  0  0  0  0  0
    1.3925   10.3045   -0.6014 H   0  0  0  0  0  0  0  0  0  0  0  0
    2.9396   11.2174   -0.6014 H   0  0  0  0  0  0  0  0  0  0  0  0
  1  2  1  0
  2  3  1  0
  3  4  1  0
  4  5  1  0
  5  6  1  0
  6  7  1  0
  7  8  1  0
  7  9  1  0
  2 10  1  0
 10 11  1  0
 11 12  1  0
 12 13  1  0
 13 14  1  6
 13 15  1  0
 15 16  1  0
 16 17  1  0
 17 18  2  0
 18 19  1  0
 19 20  1  0
 20 21  1  0
 21 22  1  0
 22 23  1  0
 22 24  1  0
 24 25  1  0
 24 26  1  0
 19 27  1  0
 27 28  1  1
 27 29  1  0
 29 30  1  0
 30 31  1  0
 31 32  1  1
  7  5  1  0
 31 10  1  0
 31 13  1  0
 27 15  1  0
 24 18  1  0
  1 33  1  0
  1 34  1  0
  1 35  1  0
  2 36  1  6
  3 37  1  0
  3 38  1  0
  4 39  1  0
  4 40  1  0
  5 41  1  1
  8 42  1  0
  8 43  1  0
  8 44  1  0
  9 45  1  0
  9 46  1  0
  9 47  1  0
 10 48  1  6
 11 49  1  0
 11 50  1  0
 12 51  1  0
 12 52  1  0
 14 53  1  0
 14 54  1  0
 14 55  1  0
 15 56  1  1
 16 57  1  0
 16 58  1  0
 17 59  1  0
 19 60  1  6
 20 61  1  0
 20 62  1  0
 21 63  1  0
 21 64  1  0
 22 65  1  6
 23 66  1  0
 25 67  1  0
 25 68  1  0
 25 69  1  0
 26 70  1  0
 26 71  1  0
 26 72  1  0
 28 73  1  0
 28 74  1  0
 28 75  1  0
 29 76  1  0
 29 77  1  0
 30 78  1  0
 30 79  1  0
 32 80  1  0
 32 81  1  0
 32 82  1  0
M  END
>  <meeko>  (8) 
{"is_sidechain": [false], "intermolecular_energy": 2.731, "internal_energy": -0.839}

$$$$
EPH_relaxed_0001_pdb2pqr_Repair_409_r2_0001_out
     RDKit          3D

 82 86  0  0  0  0  0  0  0  0999 V2000
    3.8430   18.2500   -0.6590 C   0  0  0  0  0  0  0  0  0  0  0  0
    2.3900   18.6450   -0.3830 C   0  0  2  0  0  0  0  0  0  0  0  0
    2.2640   19.5880    0.8300 C   0  0  0  0  0  0  0  0  0  0  0  0
    2.6870   18.9470    2.1540 C   0  0  0  0  0  0  0  0  0  0  0  0
    4.1510   18.6240    2.1710 C   0  0  2  0  0  0  0  0  0  0  0  0
    4.5900   17.9000    3.3280 O   0  0  0  0  0  0  0  0  0  0  0  0
    5.1280   19.2230    3.1660 C   0  0  0  0  0  0  0  0  0  0  0  0
    4.6800   20.1940    4.2120 C   0  0  0  0  0  0  0  0  0  0  0  0
    6.5830   19.2430    2.8150 C   0  0  0  0  0  0  0  0  0  0  0  0
    1.5450   17.3960   -0.1620 C   0  0  1  0  0  0  0  0  0  0  0  0
    0.0240   17.7040   -0.1150 C   0  0  0  0  0  0  0  0  0  0  0  0
   -0.6980   16.4940   -0.7610 C   0  0  0  0  0  0  0  0  0  0  0  0
    0.3880   15.3970   -0.8550 C   0  0  1  0  0  0  0  0  0  0  0  0
    0.4430   14.7630    0.5710 C   0  0  0  0  0  0  0  0  0  0  0  0
    0.1810   14.3110   -1.9610 C   0  0  2  0  0  0  0  0  0  0  0  0
   -1.0850   13.4510   -1.8020 C   0  0  0  0  0  0  0  0  0  0  0  0
   -0.9100   12.2010   -1.0040 C   0  0  0  0  0  0  0  0  0  0  0  0
    0.2690   11.6400   -0.6780 C   0  0  0  0  0  0  0  0  0  0  0  0
    1.5880   12.2160   -1.2070 C   0  0  1  0  0  0  0  0  0  0  0  0
    2.4790   11.0650   -1.7440 C   0  0  0  0  0  0  0  0  0  0  0  0
    2.6950    9.9630   -0.7110 C   0  0  0  0  0  0  0  0  0  0  0  0
    1.3630    9.3750   -0.2530 C   0  0  2  0  0  0  0  0  0  0  0  0
    0.7600    8.6880   -1.3540 O   0  0  0  0  0  0  0  0  0  0  0  0
    0.3790   10.4440    0.2990 C   0  0  0  0  0  0  0  0  0  0  0  0
    0.8960   10.9740    1.6590 C   0  0  0  0  0  0  0  0  0  0  0  0
   -0.9740    9.7410    0.5930 C   0  0  0  0  0  0  0  0  0  0  0  0
    1.4560   13.4170   -2.2400 C   0  0  1  0  0  0  0  0  0  0  0  0
    1.3010   12.8590   -3.6870 C   0  0  0  0  0  0  0  0  0  0  0  0
    2.7890   14.2550   -2.2270 C   0  0  0  0  0  0  0  0  0  0  0  0
    2.8860   15.3910   -1.1900 C   0  0  0  0  0  0  0  0  0  0  0  0
    1.6370   16.2760   -1.2290 C   0  0  2  0  0  0  0  0  0  0  0  0
    1.5680   16.9450   -2.6440 C   0  0  0  0  0  0  0  0  0  0  0  0
    4.3715   18.1063    0.2950 H   0  0  0  0  0  0  0  0  0  0  0  0
    3.8652   17.3132   -1.2352 H   0  0  0  0  0  0  0  0  0  0  0  0
    4.3364   19.0466   -1.2352 H   0  0  0  0  0  0  0  0  0  0  0  0
    2.0229   19.1913   -1.2644 H   0  0  0  0  0  0  0  0  0  0  0  0
    2.8983   20.4690    0.6524 H   0  0  0  0  0  0  0  0  0  0  0  0
    1.1997   19.8494    0.9249 H   0  0  0  0  0  0  0  0  0  0  0  0
    2.4665   19.6454    2.9747 H   0  0  0  0  0  0  0  0  0  0  0  0
    2.1272   18.0078    2.2745 H   0  0  0  0  0  0  0  0  0  0  0  0
    4.1710   18.5445    1.0741 H   0  0  0  0  0  0  0  0  0  0  0  0
    4.8740   19.7735    5.2098 H   0  0  0  0  0  0  0  0  0  0  0  0
    5.2338   21.1375    4.0977 H   0  0  0  0  0  0  0  0  0  0  0  0
    3.6028   20.3850    4.0977 H   0  0  0  0  0  0  0  0  0  0  0  0
    7.1826   19.2512    3.7372 H   0  0  0  0  0  0  0  0  0  0  0  0
    6.8302   18.3482    2.2249 H   0  0  0  0  0  0  0  0  0  0  0  0
    6.8055   20.1443    2.2249 H   0  0  0  0  0  0  0  0  0  0  0  0
    1.9774   17.0472    0.7874 H   0  0  0  0  0  0  0  0  0  0  0  0
   -0.3050   17.8291    0.9272 H   0  0  0  0  0  0  0  0  0  0  0  0
   -0.2071   18.6350   -0.6534 H   0  0  0  0  0  0  0  0  0  0  0  0
   -1.5348   16.1591   -0.1304 H   0  0  0  0  0  0  0  0  0  0  0  0
   -1.1284   16.7404   -1.7429 H   0  0  0  0  0  0  0  0  0  0  0  0
    0.3741   15.5577    1.3285 H   0  0  0  0  0  0  0  0  0  0  0  0
   -0.3979   14.0647    0.6945 H   0  0  0  0  0  0  0  0  0  0  0  0
    1.3916   14.2200    0.6945 H   0  0  0  0  0  0  0  0  0  0  0  0
    0.0169   14.9210   -2.8616 H   0  0  0  0  0  0  0  0  0  0  0  0
   -1.8532   14.0646   -1.3087 H   0  0  0  0  0  0  0  0  0  0  0  0
   -1.3636   13.1285   -2.8161 H   0  0  0  0  0  0  0  0  0  0  0  0
   -1.8220   11.6960   -0.6529 H   0  0  0  0  0  0  0  0  0  0  0  0
    2.0762   12.6950   -0.3455 H   0  0  0  0  0  0  0  0  0  0  0  0
    1.9950   10.6281   -2.6300 H   0  0  0  0  0  0  0  0  0  0  0  0
    3.4631   11.4907   -1.9895 H   0  0  0  0  0  0  0  0  0  0  0  0
    3.3058    9.1650   -1.1584 H   0  0  0  0  0  0  0  0  0  0  0  0
    3.2061   10.3956    0.1617 H   0  0  0  0  0  0  0  0  0  0  0  0
    1.5744    8.6855    0.5776 H   0  0  0  0  0  0  0  0  0  0  0  0
   -0.1420    8.4420   -1.0880 H   0  0  0  0  0  0  0  0  0  0  0  0
    0.3824   10.4475    2.4769 H   0  0  0  0  0  0  0  0  0  0  0  0
    1.9794   10.7984    1.7331 H   0  0  0  0  0  0  0  0  0  0  0  0
    0.6935   12.0527    1.7331 H   0  0  0  0  0  0  0  0  0  0  0  0
   -1.1192    9.6655    1.6808 H   0  0  0  0  0  0  0  0  0  0  0  0
   -1.7947   10.3267    0.1533 H   0  0  0  0  0  0  0  0  0  0  0  0
   -0.9665    8.7327    0.1533 H   0  0  0  0  0  0  0  0  0  0  0  0
    1.0068   11.8000   -3.6421 H   0  0  0  0  0  0  0  0  0  0  0  0
    0.5280   13.4320   -4.2201 H   0  0  0  0  0  0  0  0  0  0  0  0
    2.2588   12.9512   -4.2201 H   0  0  0  0  0  0  0  0  0  0  0  0
    3.6183   13.5581   -2.0356 H   0  0  0  0  0  0  0  0  0  0  0  0
    2.8238   14.7554   -3.2060 H   0  0  0  0  0  0  0  0  0  0  0  0
    2.9862   14.9539   -0.1856 H   0  0  0  0  0  0  0  0  0  0  0  0
    3.7628   16.0106   -1.4292 H   0  0  0  0  0  0  0  0  0  0  0  0
    1.4558   18.0333   -2.5300 H   0  0  0  0  0  0  0  0  0  0  0  0
    2.4933   16.7279   -3.1978 H   0  0  0  0  0  0  0  0  0  0  0  0
    0.7065   16.5436   -3.1978 H   0  0  0  0  0  0  0  0  0  0  0  0
  1  2  1  0
  2  3  1  0
  3  4  1  0
  4  5  1  0
  5  6  1  0
  6  7  1  0
  7  8  1  0
  7  9  1  0
  2 10  1  0
 10 11  1  0
 11 12  1  0
 12 13  1  0
 13 14  1  1
 13 15  1  0
 15 16  1  0
 16 17  1  0
 17 18  2  0
 18 19  1  0
 19 20  1  0
 20 21  1  0
 21 22  1  0
 22 23  1  0
 22 24  1  0
 24 25  1  0
 24 26  1  0
 19 27  1  0
 27 28  1  6
 27 29  1  0
 29 30  1  0
 30 31  1  0
 31 32  1  6
  7  5  1  0
 31 10  1  0
 31 13  1  0
 27 15  1  0
 24 18  1  0
  1 33  1  0
  1 34  1  0
  1 35  1  0
  2 36  1  6
  3 37  1  0
  3 38  1  0
  4 39  1  0
  4 40  1  0
  5 41  1  6
  8 42  1  0
  8 43  1  0
  8 44  1  0
  9 45  1  0
  9 46  1  0
  9 47  1  0
 10 48  1  1
 11 49  1  0
 11 50  1  0
 12 51  1  0
 12 52  1  0
 14 53  1  0
 14 54  1  0
 14 55  1  0
 15 56  1  6
 16 57  1  0
 16 58  1  0
 17 59  1  0
 19 60  1  1
 20 61  1  0
 20 62  1  0
 21 63  1  0
 21 64  1  0
 22 65  1  1
 23 66  1  0
 25 67  1  0
 25 68  1  0
 25 69  1  0
 26 70  1  0
 26 71  1  0
 26 72  1  0
 28 73  1  0
 28 74  1  0
 28 75  1  0
 29 76  1  0
 29 77  1  0
 30 78  1  0
 30 79  1  0
 32 80  1  0
 32 81  1  0
 32 82  1  0
M  END
>  <meeko>  (9) 
{"is_sidechain": [false], "intermolecular_energy": 2.731, "internal_energy": -0.839}

$$$$
EPH_relaxed_0001_pdb2pqr_Repair_409_r2_0001_out
     RDKit          3D

 82 86  0  0  0  0  0  0  0  0999 V2000
   -1.1510   16.3500   -5.7030 C   0  0  0  0  0  0  0  0  0  0  0  0
    0.0120   15.6190   -6.3800 C   0  0  2  0  0  0  0  0  0  0  0  0
   -0.3020   15.2610   -7.8460 C   0  0  0  0  0  0  0  0  0  0  0  0
    0.2340   16.2790   -8.8570 C   0  0  0  0  0  0  0  0  0  0  0  0
    1.6710   16.0200   -9.1950 C   0  0  2  0  0  0  0  0  0  0  0  0
    2.1540   16.7310  -10.3420 O   0  0  0  0  0  0  0  0  0  0  0  0
    2.1190   15.2990  -10.4530 C   0  0  0  0  0  0  0  0  0  0  0  0
    1.1290   14.7910  -11.4540 C   0  0  0  0  0  0  0  0  0  0  0  0
    3.4730   14.6620  -10.4690 C   0  0  0  0  0  0  0  0  0  0  0  0
    0.3590   14.3580   -5.5980 C   0  0  1  0  0  0  0  0  0  0  0  0
    1.3780   13.4540   -6.3420 C   0  0  0  0  0  0  0  0  0  0  0  0
    2.2760   12.8050   -5.2580 C   0  0  0  0  0  0  0  0  0  0  0  0
    1.5440   13.0880   -3.9250 C   0  0  1  0  0  0  0  0  0  0  0  0
    0.4330   11.9950   -3.8380 C   0  0  0  0  0  0  0  0  0  0  0  0
    2.4340   13.1100   -2.6400 C   0  0  2  0  0  0  0  0  0  0  0  0
    3.1340   11.7800   -2.3080 C   0  0  0  0  0  0  0  0  0  0  0  0
    2.3640   10.8590   -1.4190 C   0  0  0  0  0  0  0  0  0  0  0  0
    1.2930   11.2000   -0.6800 C   0  0  0  0  0  0  0  0  0  0  0  0
    0.8100   12.6540   -0.6160 C   0  0  1  0  0  0  0  0  0  0  0  0
    0.5310   13.0430    0.8600 C   0  0  0  0  0  0  0  0  0  0  0  0
   -0.4300   12.0780    1.5480 C   0  0  0  0  0  0  0  0  0  0  0  0
    0.1130   10.6520    1.5150 C   0  0  2  0  0  0  0  0  0  0  0  0
    1.2900   10.5870    2.3260 O   0  0  0  0  0  0  0  0  0  0  0  0
    0.4390   10.1540    0.0790 C   0  0  0  0  0  0  0  0  0  0  0  0
   -0.8760    9.9360   -0.7080 C   0  0  0  0  0  0  0  0  0  0  0  0
    1.1090    8.7580    0.1990 C   0  0  0  0  0  0  0  0  0  0  0  0
    1.7180   13.7200   -1.3670 C   0  0  1  0  0  0  0  0  0  0  0  0
    2.8500   14.2190   -0.4160 C   0  0  0  0  0  0  0  0  0  0  0  0
    0.8460   14.9830   -1.7190 C   0  0  0  0  0  0  0  0  0  0  0  0
    0.0850   14.9500   -3.0580 C   0  0  0  0  0  0  0  0  0  0  0  0
    1.0130   14.5410   -4.2060 C   0  0  2  0  0  0  0  0  0  0  0  0
    2.1290   15.6330   -4.3320 C   0  0  0  0  0  0  0  0  0  0  0  0
   -1.0413   16.2810   -4.6107 H   0  0  0  0  0  0  0  0  0  0  0  0
   -1.1456   17.4074   -6.0060 H   0  0  0  0  0  0  0  0  0  0  0  0
   -2.1015   15.8866   -6.0060 H   0  0  0  0  0  0  0  0  0  0  0  0
    0.8743   16.3019   -6.3849 H   0  0  0  0  0  0  0  0  0  0  0  0
    0.1469   14.2817   -8.0681 H   0  0  0  0  0  0  0  0  0  0  0  0
   -1.3973   15.2535   -7.9474 H   0  0  0  0  0  0  0  0  0  0  0  0
   -0.3655   16.2172   -9.7772 H   0  0  0  0  0  0  0  0  0  0  0  0
    0.1625   17.2801   -8.4067 H   0  0  0  0  0  0  0  0  0  0  0  0
    1.9181   15.8734   -8.1332 H   0  0  0  0  0  0  0  0  0  0  0  0
    0.2694   14.3499  -10.9282 H   0  0  0  0  0  0  0  0  0  0  0  0
    0.7850   15.6240  -12.0847 H   0  0  0  0  0  0  0  0  0  0  0  0
    1.6051   14.0258  -12.0847 H   0  0  0  0  0  0  0  0  0  0  0  0
    3.8148   14.5012   -9.4359 H   0  0  0  0  0  0  0  0  0  0  0  0
    3.4174   13.6956  -10.9914 H   0  0  0  0  0  0  0  0  0  0  0  0
    4.1821   15.3210  -10.9914 H   0  0  0  0  0  0  0  0  0  0  0  0
   -0.6475   13.9284   -5.4871 H   0  0  0  0  0  0  0  0  0  0  0  0
    0.8487   12.6755   -6.9111 H   0  0  0  0  0  0  0  0  0  0  0  0
    1.9788   14.0393   -7.0536 H   0  0  0  0  0  0  0  0  0  0  0  0
    2.3689   11.7222   -5.4278 H   0  0  0  0  0  0  0  0  0  0  0  0
    3.2989   13.2094   -5.2665 H   0  0  0  0  0  0  0  0  0  0  0  0
    0.2132   11.7788   -2.7821 H   0  0  0  0  0  0  0  0  0  0  0  0
   -0.4785   12.3582   -4.3353 H   0  0  0  0  0  0  0  0  0  0  0  0
    0.7813   11.0777   -4.3353 H   0  0  0  0  0  0  0  0  0  0  0  0
    3.2368   13.8078   -2.9203 H   0  0  0  0  0  0  0  0  0  0  0  0
    3.3308   11.2540   -3.2538 H   0  0  0  0  0  0  0  0  0  0  0  0
    4.0464   12.0459   -1.7541 H   0  0  0  0  0  0  0  0  0  0  0  0
    2.7014    9.8135   -1.3640 H   0  0  0  0  0  0  0  0  0  0  0  0
   -0.1252   12.6892   -1.1941 H   0  0  0  0  0  0  0  0  0  0  0  0
    1.4834   13.0443    1.4103 H   0  0  0  0  0  0  0  0  0  0  0  0
    0.0619   14.0380    0.8600 H   0  0  0  0  0  0  0  0  0  0  0  0
   -0.5638   12.3882    2.5948 H   0  0  0  0  0  0  0  0  0  0  0  0
   -1.3918   12.1001    1.0146 H   0  0  0  0  0  0  0  0  0  0  0  0
   -0.6743    9.9904    1.9053 H   0  0  0  0  0  0  0  0  0  0  0  0
    2.0400   10.8750    1.7790 H   0  0  0  0  0  0  0  0  0  0  0  0
   -1.7077    9.7981   -0.0014 H   0  0  0  0  0  0  0  0  0  0  0  0
   -1.0743   10.8135   -1.3409 H   0  0  0  0  0  0  0  0  0  0  0  0
   -0.7805    9.0414   -1.3409 H   0  0  0  0  0  0  0  0  0  0  0  0
    1.2325    8.5007    1.2613 H   0  0  0  0  0  0  0  0  0  0  0  0
    0.4748    8.0037   -0.2897 H   0  0  0  0  0  0  0  0  0  0  0  0
    2.0942    8.7809   -0.2897 H   0  0  0  0  0  0  0  0  0  0  0  0
    2.5376   14.0813    0.6297 H   0  0  0  0  0  0  0  0  0  0  0  0
    3.7675   13.6419   -0.6036 H   0  0  0  0  0  0  0  0  0  0  0  0
    3.0429   15.2856   -0.6036 H   0  0  0  0  0  0  0  0  0  0  0  0
    0.1035   15.1088   -0.9172 H   0  0  0  0  0  0  0  0  0  0  0  0
    1.5640   15.8107   -1.8162 H   0  0  0  0  0  0  0  0  0  0  0  0
   -0.7391   14.2250   -2.9858 H   0  0  0  0  0  0  0  0  0  0  0  0
   -0.3054   15.9574   -3.2645 H   0  0  0  0  0  0  0  0  0  0  0  0
    2.4498   15.9469   -3.3278 H   0  0  0  0  0  0  0  0  0  0  0  0
    2.9886   15.2175   -4.8784 H   0  0  0  0  0  0  0  0  0  0  0  0
    1.7323   16.5014   -4.8784 H   0  0  0  0  0  0  0  0  0  0  0  0
  1  2  1  0
  2  3  1  0
  3  4  1  0
  4  5  1  0
  5  6  1  0
  6  7  1  0
  7  8  1  0
  7  9  1  0
  2 10  1  0
 10 11  1  0
 11 12  1  0
 12 13  1  0
 13 14  1  1
 13 15  1  0
 15 16  1  0
 16 17  1  0
 17 18  2  0
 18 19  1  0
 19 20  1  0
 20 21  1  0
 21 22  1  0
 22 23  1  0
 22 24  1  0
 24 25  1  0
 24 26  1  0
 19 27  1  0
 27 28  1  1
 27 29  1  0
 29 30  1  0
 30 31  1  0
 31 32  1  6
  7  5  1  0
 31 10  1  0
 31 13  1  0
 27 15  1  0
 24 18  1  0
  1 33  1  0
  1 34  1  0
  1 35  1  0
  2 36  1  6
  3 37  1  0
  3 38  1  0
  4 39  1  0
  4 40  1  0
  5 41  1  1
  8 42  1  0
  8 43  1  0
  8 44  1  0
  9 45  1  0
  9 46  1  0
  9 47  1  0
 10 48  1  1
 11 49  1  0
 11 50  1  0
 12 51  1  0
 12 52  1  0
 14 53  1  0
 14 54  1  0
 14 55  1  0
 15 56  1  6
 16 57  1  0
 16 58  1  0
 17 59  1  0
 19 60  1  6
 20 61  1  0
 20 62  1  0
 21 63  1  0
 21 64  1  0
 22 65  1  1
 23 66  1  0
 25 67  1  0
 25 68  1  0
 25 69  1  0
 26 70  1  0
 26 71  1  0
 26 72  1  0
 28 73  1  0
 28 74  1  0
 28 75  1  0
 29 76  1  0
 29 77  1  0
 30 78  1  0
 30 79  1  0
 32 80  1  0
 32 81  1  0
 32 82  1  0
M  END
>  <meeko>  (10) 
{"is_sidechain": [false], "intermolecular_energy": 2.731, "internal_energy": -0.839}

$$$$
EPH_relaxed_0001_pdb2pqr_Repair_409_r2_0001_out
     RDKit          3D

 82 86  0  0  0  0  0  0  0  0999 V2000
   -3.6840    7.2160   -3.4310 C   0  0  0  0  0  0  0  0  0  0  0  0
   -3.7070    7.2960   -1.9020 C   0  0  2  0  0  0  0  0  0  0  0  0
   -5.1200    7.0640   -1.3290 C   0  0  0  0  0  0  0  0  0  0  0  0
   -6.2400    7.2720   -2.3520 C   0  0  0  0  0  0  0  0  0  0  0  0
   -7.5670    7.4770   -1.6860 C   0  0  2  0  0  0  0  0  0  0  0  0
   -8.1430    6.2920   -1.1210 O   0  0  0  0  0  0  0  0  0  0  0  0
   -8.8650    6.8910   -2.2090 C   0  0  0  0  0  0  0  0  0  0  0  0
   -8.8990    6.0540   -3.4500 C   0  0  0  0  0  0  0  0  0  0  0  0
  -10.1550    7.5290   -1.7980 C   0  0  0  0  0  0  0  0  0  0  0  0
   -3.1750    8.6490   -1.4440 C   0  0  1  0  0  0  0  0  0  0  0  0
   -3.8410    9.1390   -0.1310 C   0  0  0  0  0  0  0  0  0  0  0  0
   -2.7520    9.9040    0.6640 C   0  0  0  0  0  0  0  0  0  0  0  0
   -1.6040   10.1150   -0.3500 C   0  0  1  0  0  0  0  0  0  0  0  0
   -2.0370   11.3550   -1.1940 C   0  0  0  0  0  0  0  0  0  0  0  0
   -0.1730   10.2980    0.2530 C   0  0  2  0  0  0  0  0  0  0  0  0
    0.0030   11.5370    1.1490 C   0  0  0  0  0  0  0  0  0  0  0  0
    0.4470   12.7760    0.4440 C   0  0  0  0  0  0  0  0  0  0  0  0
    0.9680   12.8260   -0.7960 C   0  0  0  0  0  0  0  0  0  0  0  0
    1.2450   11.5410   -1.5860 C   0  0  1  0  0  0  0  0  0  0  0  0
    2.6610   11.6170   -2.2170 C   0  0  0  0  0  0  0  0  0  0  0  0
    2.8600   12.8740   -3.0580 C   0  0  0  0  0  0  0  0  0  0  0  0
    2.6320   14.1310   -2.2230 C   0  0  2  0  0  0  0  0  0  0  0  0
    3.6640   14.2210   -1.2350 O   0  0  0  0  0  0  0  0  0  0  0  0
    1.2410   14.1620   -1.5300 C   0  0  0  0  0  0  0  0  0  0  0  0
    0.1340   14.3680   -2.5940 C   0  0  0  0  0  0  0  0  0  0  0  0
    1.1950   15.4110   -0.6080 C   0  0  0  0  0  0  0  0  0  0  0  0
    0.9970   10.1790   -0.8050 C   0  0  1  0  0  0  0  0  0  0  0  0
    2.2780    9.7810   -0.0100 C   0  0  0  0  0  0  0  0  0  0  0  0
    0.7460    9.0270   -1.8480 C   0  0  0  0  0  0  0  0  0  0  0  0
   -0.7070    8.8180   -2.3160 C   0  0  0  0  0  0  0  0  0  0  0  0
   -1.6630    8.7460   -1.1210 C   0  0  2  0  0  0  0  0  0  0  0  0
   -1.2660    7.4950   -0.2650 C   0  0  0  0  0  0  0  0  0  0  0  0
   -3.3924    6.2016   -3.7407 H   0  0  0  0  0  0  0  0  0  0  0  0
   -4.6847    7.4463   -3.8253 H   0  0  0  0  0  0  0  0  0  0  0  0
   -2.9584    7.9426   -3.8253 H   0  0  0  0  0  0  0  0  0  0  0  0
   -3.0598    6.4931   -1.5192 H   0  0  0  0  0  0  0  0  0  0  0  0
   -5.1781    6.0310   -0.9554 H   0  0  0  0  0  0  0  0  0  0  0  0
   -5.2701    7.8072   -0.5320 H   0  0  0  0  0  0  0  0  0  0  0  0
   -6.0063    8.1574   -2.9616 H   0  0  0  0  0  0  0  0  0  0  0  0
   -6.3056    6.3695   -2.9774 H   0  0  0  0  0  0  0  0  0  0  0  0
   -7.2857    8.4976   -1.3873 H   0  0  0  0  0  0  0  0  0  0  0  0
   -8.9422    4.9902   -3.1737 H   0  0  0  0  0  0  0  0  0  0  0  0
   -9.7873    6.3149   -4.0440 H   0  0  0  0  0  0  0  0  0  0  0  0
   -7.9925    6.2420   -4.0440 H   0  0  0  0  0  0  0  0  0  0  0  0
  -10.2158    7.5590   -0.7001 H   0  0  0  0  0  0  0  0  0  0  0  0
  -10.2005    8.5535   -2.1959 H   0  0  0  0  0  0  0  0  0  0  0  0
  -10.9968    6.9434   -2.1959 H   0  0  0  0  0  0  0  0  0  0  0  0
   -3.4086    9.2505   -2.3349 H   0  0  0  0  0  0  0  0  0  0  0  0
   -4.6832    9.8084   -0.3603 H   0  0  0  0  0  0  0  0  0  0  0  0
   -4.2348    8.2933    0.4518 H   0  0  0  0  0  0  0  0  0  0  0  0
   -3.1382   10.8705    1.0199 H   0  0  0  0  0  0  0  0  0  0  0  0
   -2.4232    9.3526    1.5572 H   0  0  0  0  0  0  0  0  0  0  0  0
   -2.3235   12.1755   -0.5197 H   0  0  0  0  0  0  0  0  0  0  0  0
   -1.1983   11.6777   -1.8285 H   0  0  0  0  0  0  0  0  0  0  0  0
   -2.8942   11.0855   -1.8285 H   0  0  0  0  0  0  0  0  0  0  0  0
   -0.0862    9.4295    0.9225 H   0  0  0  0  0  0  0  0  0  0  0  0
   -0.9630   11.7479    1.6310 H   0  0  0  0  0  0  0  0  0  0  0  0
    0.8047   11.2873    1.8596 H   0  0  0  0  0  0  0  0  0  0  0  0
    0.3392   13.7285    0.9836 H   0  0  0  0  0  0  0  0  0  0  0  0
    0.4839   11.5014   -2.3792 H   0  0  0  0  0  0  0  0  0  0  0  0
    3.4077   11.6113   -1.4093 H   0  0  0  0  0  0  0  0  0  0  0  0
    2.7772   10.7485   -2.8820 H   0  0  0  0  0  0  0  0  0  0  0  0
    3.8871   12.8848   -3.4517 H   0  0  0  0  0  0  0  0  0  0  0  0
    2.1320   12.8635   -3.8825 H   0  0  0  0  0  0  0  0  0  0  0  0
    2.6606   14.9918   -2.9073 H   0  0  0  0  0  0  0  0  0  0  0  0
    3.3100   14.7290   -0.4860 H   0  0  0  0  0  0  0  0  0  0  0  0
   -0.8283   14.5471   -2.0920 H   0  0  0  0  0  0  0  0  0  0  0  0
    0.3864   15.2346   -3.2227 H   0  0  0  0  0  0  0  0  0  0  0  0
    0.0578   13.4686   -3.2227 H   0  0  0  0  0  0  0  0  0  0  0  0
    1.2068   15.0906    0.4442 H   0  0  0  0  0  0  0  0  0  0  0  0
    2.0703   16.0465   -0.8076 H   0  0  0  0  0  0  0  0  0  0  0  0
    0.2753   15.9804   -0.8076 H   0  0  0  0  0  0  0  0  0  0  0  0
    2.0743    9.8443    1.0691 H   0  0  0  0  0  0  0  0  0  0  0  0
    2.5652    8.7513   -0.2691 H   0  0  0  0  0  0  0  0  0  0  0  0
    3.0982   10.4667   -0.2691 H   0  0  0  0  0  0  0  0  0  0  0  0
    1.3541    9.2457   -2.7381 H   0  0  0  0  0  0  0  0  0  0  0  0
    1.0154    8.0991   -1.3223 H   0  0  0  0  0  0  0  0  0  0  0  0
   -1.0013    9.6582   -2.9622 H   0  0  0  0  0  0  0  0  0  0  0  0
   -0.7643    7.8687   -2.8687 H   0  0  0  0  0  0  0  0  0  0  0  0
   -1.3445    7.7423    0.8040 H   0  0  0  0  0  0  0  0  0  0  0  0
   -1.9435    6.6606   -0.4990 H   0  0  0  0  0  0  0  0  0  0  0  0
   -0.2313    7.2039   -0.4990 H   0  0  0  0  0  0  0  0  0  0  0  0
  1  2  1  0
  2  3  1  0
  3  4  1  0
  4  5  1  0
  5  6  1  0
  6  7  1  0
  7  8  1  0
  7  9  1  0
  2 10  1  0
 10 11  1  0
 11 12  1  0
 12 13  1  0
 13 14  1  6
 13 15  1  0
 15 16  1  0
 16 17  1  0
 17 18  2  0
 18 19  1  0
 19 20  1  0
 20 21  1  0
 21 22  1  0
 22 23  1  0
 22 24  1  0
 24 25  1  0
 24 26  1  0
 19 27  1  0
 27 28  1  1
 27 29  1  0
 29 30  1  0
 30 31  1  0
 31 32  1  1
  7  5  1  0
 31 10  1  0
 31 13  1  0
 27 15  1  0
 24 18  1  0
  1 33  1  0
  1 34  1  0
  1 35  1  0
  2 36  1  1
  3 37  1  0
  3 38  1  0
  4 39  1  0
  4 40  1  0
  5 41  1  1
  8 42  1  0
  8 43  1  0
  8 44  1  0
  9 45  1  0
  9 46  1  0
  9 47  1  0
 10 48  1  6
 11 49  1  0
 11 50  1  0
 12 51  1  0
 12 52  1  0
 14 53  1  0
 14 54  1  0
 14 55  1  0
 15 56  1  1
 16 57  1  0
 16 58  1  0
 17 59  1  0
 19 60  1  6
 20 61  1  0
 20 62  1  0
 21 63  1  0
 21 64  1  0
 22 65  1  6
 23 66  1  0
 25 67  1  0
 25 68  1  0
 25 69  1  0
 26 70  1  0
 26 71  1  0
 26 72  1  0
 28 73  1  0
 28 74  1  0
 28 75  1  0
 29 76  1  0
 29 77  1  0
 30 78  1  0
 30 79  1  0
 32 80  1  0
 32 81  1  0
 32 82  1  0
M  END
>  <meeko>  (11) 
{"is_sidechain": [false], "intermolecular_energy": 2.731, "internal_energy": -0.839}

$$$$
EPH_relaxed_0001_pdb2pqr_Repair_409_r2_0001_out
     RDKit          3D

 82 86  0  0  0  0  0  0  0  0999 V2000
   -0.2880   15.1010   -7.6120 C   0  0  0  0  0  0  0  0  0  0  0  0
    1.0790   15.0770   -6.9220 C   0  0  2  0  0  0  0  0  0  0  0  0
    2.2410   15.1820   -7.9300 C   0  0  0  0  0  0  0  0  0  0  0  0
    2.2450   16.4870   -8.7310 C   0  0  0  0  0  0  0  0  0  0  0  0
    1.8220   16.2670  -10.1510 C   0  0  2  0  0  0  0  0  0  0  0  0
    1.1890   15.0040  -10.3990 O   0  0  0  0  0  0  0  0  0  0  0  0
    2.4470   15.2240  -11.0590 C   0  0  0  0  0  0  0  0  0  0  0  0
    3.5490   14.3330  -10.5790 C   0  0  0  0  0  0  0  0  0  0  0  0
    2.3280   15.4000  -12.5400 C   0  0  0  0  0  0  0  0  0  0  0  0
    1.2210   13.8060   -6.0940 C   0  0  1  0  0  0  0  0  0  0  0  0
    2.6480   13.2010   -6.1680 C   0  0  0  0  0  0  0  0  0  0  0  0
    2.9450   12.5840   -4.7770 C   0  0  0  0  0  0  0  0  0  0  0  0
    1.5750   12.5580   -4.0610 C   0  0  1  0  0  0  0  0  0  0  0  0
    0.8590   11.2850   -4.6120 C   0  0  0  0  0  0  0  0  0  0  0  0
    1.6110   12.5680   -2.4980 C   0  0  2  0  0  0  0  0  0  0  0  0
    2.2960   11.3510   -1.8530 C   0  0  0  0  0  0  0  0  0  0  0  0
    1.3950   10.2010   -1.5440 C   0  0  0  0  0  0  0  0  0  0  0  0
    0.0510   10.2490   -1.5100 C   0  0  0  0  0  0  0  0  0  0  0  0
   -0.6960   11.5750   -1.7040 C   0  0  1  0  0  0  0  0  0  0  0  0
   -1.7960   11.7130   -0.6180 C   0  0  0  0  0  0  0  0  0  0  0  0
   -2.7370   10.5130   -0.5830 C   0  0  0  0  0  0  0  0  0  0  0  0
   -1.9640    9.2210   -0.3310 C   0  0  2  0  0  0  0  0  0  0  0  0
   -1.4210    9.2590    0.9930 O   0  0  0  0  0  0  0  0  0  0  0  0
   -0.8230    8.9790   -1.3570 C   0  0  0  0  0  0  0  0  0  0  0  0
   -1.4300    8.6380   -2.7400 C   0  0  0  0  0  0  0  0  0  0  0  0
   -0.0340    7.7200   -0.9070 C   0  0  0  0  0  0  0  0  0  0  0  0
    0.2140   12.8720   -1.8190 C   0  0  1  0  0  0  0  0  0  0  0  0
    0.5230   13.4340   -0.3980 C   0  0  0  0  0  0  0  0  0  0  0  0
   -0.5870   13.9960   -2.5760 C   0  0  0  0  0  0  0  0  0  0  0  0
   -0.4870   14.0050   -4.1140 C   0  0  0  0  0  0  0  0  0  0  0  0
    0.9730   13.9180   -4.5690 C   0  0  2  0  0  0  0  0  0  0  0  0
    1.7130   15.1970   -4.0480 C   0  0  0  0  0  0  0  0  0  0  0  0
   -1.0825   15.1149   -6.8513 H   0  0  0  0  0  0  0  0  0  0  0  0
   -0.3659   16.0007   -8.2401 H   0  0  0  0  0  0  0  0  0  0  0  0
   -0.3975   14.2046   -8.2401 H   0  0  0  0  0  0  0  0  0  0  0  0
    1.1327   15.9571   -6.2643 H   0  0  0  0  0  0  0  0  0  0  0  0
    3.1887   15.1117   -7.3760 H   0  0  0  0  0  0  0  0  0  0  0  0
    2.1151   14.3619   -8.6522 H   0  0  0  0  0  0  0  0  0  0  0  0
    1.5509   17.1975   -8.2583 H   0  0  0  0  0  0  0  0  0  0  0  0
    3.2713   16.8828   -8.7364 H   0  0  0  0  0  0  0  0  0  0  0  0
    1.6307   17.3419  -10.2847 H   0  0  0  0  0  0  0  0  0  0  0  0
    3.5603   14.3238   -9.4791 H   0  0  0  0  0  0  0  0  0  0  0  0
    3.3837   13.3116  -10.9525 H   0  0  0  0  0  0  0  0  0  0  0  0
    4.5131   14.7085  -10.9525 H   0  0  0  0  0  0  0  0  0  0  0  0
    1.7238   16.2936  -12.7557 H   0  0  0  0  0  0  0  0  0  0  0  0
    3.3304   15.5210  -12.9766 H   0  0  0  0  0  0  0  0  0  0  0  0
    1.8423   14.5148  -12.9766 H   0  0  0  0  0  0  0  0  0  0  0  0
    0.4332   13.1952   -6.5590 H   0  0  0  0  0  0  0  0  0  0  0  0
    2.6897   12.4228   -6.9443 H   0  0  0  0  0  0  0  0  0  0  0  0
    3.3905   13.9708   -6.4253 H   0  0  0  0  0  0  0  0  0  0  0  0
    3.3477   11.5657   -4.8819 H   0  0  0  0  0  0  0  0  0  0  0  0
    3.6971   13.1595   -4.2175 H   0  0  0  0  0  0  0  0  0  0  0  0
    0.5114   10.6669   -3.7711 H   0  0  0  0  0  0  0  0  0  0  0  0
   -0.0023   11.5858   -5.2266 H   0  0  0  0  0  0  0  0  0  0  0  0
    1.5634   10.7052   -5.2266 H   0  0  0  0  0  0  0  0  0  0  0  0
    2.2640   13.4268   -2.2832 H   0  0  0  0  0  0  0  0  0  0  0  0
    3.0765   10.9957   -2.5419 H   0  0  0  0  0  0  0  0  0  0  0  0
    2.6872   11.6994   -0.8857 H   0  0  0  0  0  0  0  0  0  0  0  0
    1.8702    9.2332   -1.3258 H   0  0  0  0  0  0  0  0  0  0  0  0
   -1.1597   11.5207   -2.7000 H   0  0  0  0  0  0  0  0  0  0  0  0
   -1.3112   11.8098    0.3647 H   0  0  0  0  0  0  0  0  0  0  0  0
   -2.3968   12.6015   -0.8622 H   0  0  0  0  0  0  0  0  0  0  0  0
   -3.4724   10.6555    0.2225 H   0  0  0  0  0  0  0  0  0  0  0  0
   -3.2432   10.4352   -1.5565 H   0  0  0  0  0  0  0  0  0  0  0  0
   -2.6710    8.3863   -0.4466 H   0  0  0  0  0  0  0  0  0  0  0  0
   -0.4580    9.1450    0.9190 H   0  0  0  0  0  0  0  0  0  0  0  0
   -2.3814    8.1035   -2.6012 H   0  0  0  0  0  0  0  0  0  0  0  0
   -1.6098    9.5671   -3.3007 H   0  0  0  0  0  0  0  0  0  0  0  0
   -0.7300    8.0011   -3.3007 H   0  0  0  0  0  0  0  0  0  0  0  0
   -0.0073    7.6774    0.1918 H   0  0  0  0  0  0  0  0  0  0  0  0
   -0.5289    6.8183   -1.2970 H   0  0  0  0  0  0  0  0  0  0  0  0
    0.9932    7.7722   -1.2970 H   0  0  0  0  0  0  0  0  0  0  0  0
    0.1402   12.7378    0.3628 H   0  0  0  0  0  0  0  0  0  0  0  0
    1.6104   13.5476   -0.2771 H   0  0  0  0  0  0  0  0  0  0  0  0
    0.0364   14.4131   -0.2771 H   0  0  0  0  0  0  0  0  0  0  0  0
   -1.6489   13.8829   -2.3123 H   0  0  0  0  0  0  0  0  0  0  0  0
   -0.1298   14.9427   -2.2524 H   0  0  0  0  0  0  0  0  0  0  0  0
   -1.0410   13.1438   -4.5157 H   0  0  0  0  0  0  0  0  0  0  0  0
   -0.9154   14.9467   -4.4878 H   0  0  0  0  0  0  0  0  0  0  0  0
    1.7135   15.1978   -2.9480 H   0  0  0  0  0  0  0  0  0  0  0  0
    2.7499   15.1958   -4.4151 H   0  0  0  0  0  0  0  0  0  0  0  0
    1.1951   16.0954   -4.4151 H   0  0  0  0  0  0  0  0  0  0  0  0
  1  2  1  0
  2  3  1  0
  3  4  1  0
  4  5  1  0
  5  6  1  0
  6  7  1  0
  7  8  1  0
  7  9  1  0
  2 10  1  0
 10 11  1  0
 11 12  1  0
 12 13  1  0
 13 14  1  1
 13 15  1  0
 15 16  1  0
 16 17  1  0
 17 18  2  0
 18 19  1  0
 19 20  1  0
 20 21  1  0
 21 22  1  0
 22 23  1  0
 22 24  1  0
 24 25  1  0
 24 26  1  0
 19 27  1  0
 27 28  1  1
 27 29  1  0
 29 30  1  0
 30 31  1  0
 31 32  1  1
  7  5  1  0
 31 10  1  0
 31 13  1  0
 27 15  1  0
 24 18  1  0
  1 33  1  0
  1 34  1  0
  1 35  1  0
  2 36  1  1
  3 37  1  0
  3 38  1  0
  4 39  1  0
  4 40  1  0
  5 41  1  6
  8 42  1  0
  8 43  1  0
  8 44  1  0
  9 45  1  0
  9 46  1  0
  9 47  1  0
 10 48  1  6
 11 49  1  0
 11 50  1  0
 12 51  1  0
 12 52  1  0
 14 53  1  0
 14 54  1  0
 14 55  1  0
 15 56  1  6
 16 57  1  0
 16 58  1  0
 17 59  1  0
 19 60  1  6
 20 61  1  0
 20 62  1  0
 21 63  1  0
 21 64  1  0
 22 65  1  1
 23 66  1  0
 25 67  1  0
 25 68  1  0
 25 69  1  0
 26 70  1  0
 26 71  1  0
 26 72  1  0
 28 73  1  0
 28 74  1  0
 28 75  1  0
 29 76  1  0
 29 77  1  0
 30 78  1  0
 30 79  1  0
 32 80  1  0
 32 81  1  0
 32 82  1  0
M  END
>  <meeko>  (12) 
{"is_sidechain": [false], "intermolecular_energy": 2.731, "internal_energy": -0.839}

$$$$
EPH_relaxed_0001_pdb2pqr_Repair_409_r2_0001_out
     RDKit          3D

 82 86  0  0  0  0  0  0  0  0999 V2000
    3.0790   14.5190   -7.2960 C   0  0  0  0  0  0  0  0  0  0  0  0
    1.5690   14.7180   -7.1380 C   0  0  2  0  0  0  0  0  0  0  0  0
    1.0880   16.0400   -7.7680 C   0  0  0  0  0  0  0  0  0  0  0  0
    2.0550   16.6140   -8.8070 C   0  0  0  0  0  0  0  0  0  0  0  0
    1.6190   16.2960  -10.2060 C   0  0  2  0  0  0  0  0  0  0  0  0
    0.9960   15.0140  -10.3620 O   0  0  0  0  0  0  0  0  0  0  0  0
    2.2450   15.2000  -11.0480 C   0  0  0  0  0  0  0  0  0  0  0  0
    3.3600   14.3520  -10.5220 C   0  0  0  0  0  0  0  0  0  0  0  0
    2.1090   15.2760  -12.5370 C   0  0  0  0  0  0  0  0  0  0  0  0
    1.1910   14.6770   -5.6620 C   0  0  1  0  0  0  0  0  0  0  0  0
   -0.0750   15.5160   -5.3450 C   0  0  0  0  0  0  0  0  0  0  0  0
   -0.8380   14.7690   -4.2210 C   0  0  0  0  0  0  0  0  0  0  0  0
    0.1690   13.7160   -3.7000 C   0  0  1  0  0  0  0  0  0  0  0  0
    1.0990   14.5000   -2.7220 C   0  0  0  0  0  0  0  0  0  0  0  0
   -0.4460   12.4490   -3.0210 C   0  0  2  0  0  0  0  0  0  0  0  0
   -1.2620   12.7230   -1.7460 C   0  0  0  0  0  0  0  0  0  0  0  0
   -0.4850   12.6840   -0.4720 C   0  0  0  0  0  0  0  0  0  0  0  0
    0.7470   12.1630   -0.3220 C   0  0  0  0  0  0  0  0  0  0  0  0
    1.4470   11.4490   -1.4850 C   0  0  1  0  0  0  0  0  0  0  0  0
    2.0560   10.1140   -0.9820 C   0  0  0  0  0  0  0  0  0  0  0  0
    2.9740   10.3070    0.2210 C   0  0  0  0  0  0  0  0  0  0  0  0
    2.2270   10.9660    1.3770 C   0  0  2  0  0  0  0  0  0  0  0  0
    1.2300   10.0600    1.8580 O   0  0  0  0  0  0  0  0  0  0  0  0
    1.5610   12.3160    0.9860 C   0  0  0  0  0  0  0  0  0  0  0  0
    2.6550   13.3880    0.7550 C   0  0  0  0  0  0  0  0  0  0  0  0
    0.7240   12.8040    2.1990 C   0  0  0  0  0  0  0  0  0  0  0  0
    0.5830   11.2660   -2.8070 C   0  0  1  0  0  0  0  0  0  0  0  0
   -0.2590    9.9560   -2.7150 C   0  0  0  0  0  0  0  0  0  0  0  0
    1.5520   11.0860   -4.0340 C   0  0  0  0  0  0  0  0  0  0  0  0
    2.0300   12.3710   -4.7370 C   0  0  0  0  0  0  0  0  0  0  0  0
    0.8490   13.2940   -5.0530 C   0  0  2  0  0  0  0  0  0  0  0  0
   -0.0930   12.5400   -6.0530 C   0  0  0  0  0  0  0  0  0  0  0  0
    3.5467   14.4574   -6.3023 H   0  0  0  0  0  0  0  0  0  0  0  0
    3.2702   13.5879   -7.8496 H   0  0  0  0  0  0  0  0  0  0  0  0
    3.5049   15.3688   -7.8496 H   0  0  0  0  0  0  0  0  0  0  0  0
    1.0697   13.8967   -7.6730 H   0  0  0  0  0  0  0  0  0  0  0  0
    0.1195   15.8594   -8.2573 H   0  0  0  0  0  0  0  0  0  0  0  0
    1.0160   16.7766   -6.9542 H   0  0  0  0  0  0  0  0  0  0  0  0
    2.0996   17.7065   -8.6872 H   0  0  0  0  0  0  0  0  0  0  0  0
    3.0431   16.1588   -8.6440 H   0  0  0  0  0  0  0  0  0  0  0  0
    1.4157   17.3577  -10.4096 H   0  0  0  0  0  0  0  0  0  0  0  0
    3.3430   14.3649   -9.4222 H   0  0  0  0  0  0  0  0  0  0  0  0
    3.2346   13.3190  -10.8786 H   0  0  0  0  0  0  0  0  0  0  0  0
    4.3220   14.7487  -10.8786 H   0  0  0  0  0  0  0  0  0  0  0  0
    1.1753   15.7978  -12.7937 H   0  0  0  0  0  0  0  0  0  0  0  0
    2.9640   15.8271  -12.9556 H   0  0  0  0  0  0  0  0  0  0  0  0
    2.0878   14.2590  -12.9556 H   0  0  0  0  0  0  0  0  0  0  0  0
    2.1237   15.0613   -5.2233 H   0  0  0  0  0  0  0  0  0  0  0  0
    0.2127   16.5214   -5.0038 H   0  0  0  0  0  0  0  0  0  0  0  0
   -0.7050   15.6329   -6.2391 H   0  0  0  0  0  0  0  0  0  0  0  0
   -1.1240   15.4638   -3.4176 H   0  0  0  0  0  0  0  0  0  0  0  0
   -1.7708   14.3116   -4.5824 H   0  0  0  0  0  0  0  0  0  0  0  0
    0.8206   14.2653   -1.6840 H   0  0  0  0  0  0  0  0  0  0  0  0
    2.1448   14.2069   -2.8964 H   0  0  0  0  0  0  0  0  0  0  0  0
    0.9870   15.5803   -2.8964 H   0  0  0  0  0  0  0  0  0  0  0  0
   -1.1735   12.1075   -3.7720 H   0  0  0  0  0  0  0  0  0  0  0  0
   -1.7128   13.7221   -1.8389 H   0  0  0  0  0  0  0  0  0  0  0  0
   -2.0012   11.9113   -1.6770 H   0  0  0  0  0  0  0  0  0  0  0  0
   -0.9597   13.1181    0.4203 H   0  0  0  0  0  0  0  0  0  0  0  0
    2.2499   12.1236   -1.8169 H   0  0  0  0  0  0  0  0  0  0  0  0
    1.2366    9.4383   -0.6956 H   0  0  0  0  0  0  0  0  0  0  0  0
    2.6602    9.6934   -1.7993 H   0  0  0  0  0  0  0  0  0  0  0  0
    3.3500    9.3263    0.5479 H   0  0  0  0  0  0  0  0  0  0  0  0
    3.8084   10.9597   -0.0753 H   0  0  0  0  0  0  0  0  0  0  0  0
    2.9659   11.1952    2.1589 H   0  0  0  0  0  0  0  0  0  0  0  0
    1.2850   10.0500    2.8290 H   0  0  0  0  0  0  0  0  0  0  0  0
    3.0244   13.7500    1.7258 H   0  0  0  0  0  0  0  0  0  0  0  0
    3.4873   12.9461    0.1876 H   0  0  0  0  0  0  0  0  0  0  0  0
    2.2301   14.2291    0.1876 H   0  0  0  0  0  0  0  0  0  0  0  0
    1.2264   12.5111    3.1327 H   0  0  0  0  0  0  0  0  0  0  0  0
    0.6287   13.8992    2.1619 H   0  0  0  0  0  0  0  0  0  0  0  0
   -0.2761   12.3474    2.1619 H   0  0  0  0  0  0  0  0  0  0  0  0
   -0.4238    9.6995   -1.6581 H   0  0  0  0  0  0  0  0  0  0  0  0
   -1.2290   10.1080   -3.2110 H   0  0  0  0  0  0  0  0  0  0  0  0
    0.2821    9.1367   -3.2110 H   0  0  0  0  0  0  0  0  0  0  0  0
    2.4442   10.5503   -3.6775 H   0  0  0  0  0  0  0  0  0  0  0  0
    0.9617   10.5473   -4.7899 H   0  0  0  0  0  0  0  0  0  0  0  0
    2.7347   12.9005   -4.0789 H   0  0  0  0  0  0  0  0  0  0  0  0
    2.5206   12.0928   -5.6814 H   0  0  0  0  0  0  0  0  0  0  0  0
   -0.8301   11.9500   -5.4885 H   0  0  0  0  0  0  0  0  0  0  0  0
   -0.6163   13.2715   -6.6862 H   0  0  0  0  0  0  0  0  0  0  0  0
    0.5062   11.8692   -6.6862 H   0  0  0  0  0  0  0  0  0  0  0  0
  1  2  1  0
  2  3  1  0
  3  4  1  0
  4  5  1  0
  5  6  1  0
  6  7  1  0
  7  8  1  0
  7  9  1  0
  2 10  1  0
 10 11  1  0
 11 12  1  0
 12 13  1  0
 13 14  1  1
 13 15  1  0
 15 16  1  0
 16 17  1  0
 17 18  2  0
 18 19  1  0
 19 20  1  0
 20 21  1  0
 21 22  1  0
 22 23  1  0
 22 24  1  0
 24 25  1  0
 24 26  1  0
 19 27  1  0
 27 28  1  1
 27 29  1  0
 29 30  1  0
 30 31  1  0
 31 32  1  6
  7  5  1  0
 31 10  1  0
 31 13  1  0
 27 15  1  0
 24 18  1  0
  1 33  1  0
  1 34  1  0
  1 35  1  0
  2 36  1  6
  3 37  1  0
  3 38  1  0
  4 39  1  0
  4 40  1  0
  5 41  1  6
  8 42  1  0
  8 43  1  0
  8 44  1  0
  9 45  1  0
  9 46  1  0
  9 47  1  0
 10 48  1  1
 11 49  1  0
 11 50  1  0
 12 51  1  0
 12 52  1  0
 14 53  1  0
 14 54  1  0
 14 55  1  0
 15 56  1  6
 16 57  1  0
 16 58  1  0
 17 59  1  0
 19 60  1  6
 20 61  1  0
 20 62  1  0
 21 63  1  0
 21 64  1  0
 22 65  1  1
 23 66  1  0
 25 67  1  0
 25 68  1  0
 25 69  1  0
 26 70  1  0
 26 71  1  0
 26 72  1  0
 28 73  1  0
 28 74  1  0
 28 75  1  0
 29 76  1  0
 29 77  1  0
 30 78  1  0
 30 79  1  0
 32 80  1  0
 32 81  1  0
 32 82  1  0
M  END
>  <meeko>  (13) 
{"is_sidechain": [false], "intermolecular_energy": 2.731, "internal_energy": -0.839}

$$$$
EPH_relaxed_0001_pdb2pqr_Repair_409_r2_0001_out
     RDKit          3D

 82 86  0  0  0  0  0  0  0  0999 V2000
    0.1670    9.3630   -2.4740 C   0  0  0  0  0  0  0  0  0  0  0  0
    1.2000   10.4040   -2.9140 C   0  0  2  0  0  0  0  0  0  0  0  0
    2.6170    9.8060   -3.0230 C   0  0  0  0  0  0  0  0  0  0  0  0
    3.5440   10.5840   -3.9600 C   0  0  0  0  0  0  0  0  0  0  0  0
    4.9250   10.7150   -3.3920 C   0  0  2  0  0  0  0  0  0  0  0  0
    5.6030   11.9290   -3.7380 O   0  0  0  0  0  0  0  0  0  0  0  0
    6.1820   10.7140   -4.2410 C   0  0  0  0  0  0  0  0  0  0  0  0
    6.1180   10.5800   -5.7300 C   0  0  0  0  0  0  0  0  0  0  0  0
    7.4830   10.3540   -3.5930 C   0  0  0  0  0  0  0  0  0  0  0  0
    1.2030   11.5770   -1.9410 C   0  0  1  0  0  0  0  0  0  0  0  0
    2.2700   11.4240   -0.8240 C   0  0  0  0  0  0  0  0  0  0  0  0
    2.7960   12.8490   -0.5100 C   0  0  0  0  0  0  0  0  0  0  0  0
    1.7930   13.7970   -1.2070 C   0  0  1  0  0  0  0  0  0  0  0  0
    0.5820   13.8920   -0.2260 C   0  0  0  0  0  0  0  0  0  0  0  0
    2.3340   15.2120   -1.5940 C   0  0  2  0  0  0  0  0  0  0  0  0
    2.7810   16.0860   -0.4090 C   0  0  0  0  0  0  0  0  0  0  0  0
    1.7210   16.9600    0.1750 C   0  0  0  0  0  0  0  0  0  0  0  0
    0.5430   17.2550   -0.4070 C   0  0  0  0  0  0  0  0  0  0  0  0
    0.2210   16.7680   -1.8250 C   0  0  1  0  0  0  0  0  0  0  0  0
   -0.3700   17.9400   -2.6530 C   0  0  0  0  0  0  0  0  0  0  0  0
   -1.5700   18.5900   -1.9730 C   0  0  0  0  0  0  0  0  0  0  0  0
   -1.1950   19.1140   -0.5890 C   0  0  2  0  0  0  0  0  0  0  0  0
   -0.2690   20.1940   -0.7400 O   0  0  0  0  0  0  0  0  0  0  0  0
   -0.5800   18.0230    0.3330 C   0  0  0  0  0  0  0  0  0  0  0  0
   -1.6760   17.0080    0.7410 C   0  0  0  0  0  0  0  0  0  0  0  0
   -0.1170   18.7130    1.6440 C   0  0  0  0  0  0  0  0  0  0  0  0
    1.3970   16.0160   -2.5840 C   0  0  1  0  0  0  0  0  0  0  0  0
    2.3060   17.0520   -3.3150 C   0  0  0  0  0  0  0  0  0  0  0  0
    0.7820   15.0970   -3.7040 C   0  0  0  0  0  0  0  0  0  0  0  0
    0.3770   13.6700   -3.2880 C   0  0  0  0  0  0  0  0  0  0  0  0
    1.5100   12.9810   -2.5210 C   0  0  2  0  0  0  0  0  0  0  0  0
    2.7340   12.8520   -3.4890 C   0  0  0  0  0  0  0  0  0  0  0  0
    0.1295    9.3253   -1.3753 H   0  0  0  0  0  0  0  0  0  0  0  0
   -0.8229    9.6406   -2.8653 H   0  0  0  0  0  0  0  0  0  0  0  0
    0.4522    8.3753   -2.8653 H   0  0  0  0  0  0  0  0  0  0  0  0
    0.9113   10.7534   -3.9163 H   0  0  0  0  0  0  0  0  0  0  0  0
    3.0673    9.7953   -2.0195 H   0  0  0  0  0  0  0  0  0  0  0  0
    2.5076    8.7962   -3.4454 H   0  0  0  0  0  0  0  0  0  0  0  0
    3.6033   10.0550   -4.9226 H   0  0  0  0  0  0  0  0  0  0  0  0
    3.1298   11.5947   -4.0900 H   0  0  0  0  0  0  0  0  0  0  0  0
    4.6371   10.1406   -2.4992 H   0  0  0  0  0  0  0  0  0  0  0  0
    5.6576    9.6160   -5.9919 H   0  0  0  0  0  0  0  0  0  0  0  0
    5.5142   11.3999   -6.1463 H   0  0  0  0  0  0  0  0  0  0  0  0
    7.1351   10.6257   -6.1463 H   0  0  0  0  0  0  0  0  0  0  0  0
    7.3690   10.3855   -2.4994 H   0  0  0  0  0  0  0  0  0  0  0  0
    7.7783    9.3404   -3.9018 H   0  0  0  0  0  0  0  0  0  0  0  0
    8.2574   11.0716   -3.9018 H   0  0  0  0  0  0  0  0  0  0  0  0
    0.1598   11.5325   -1.5949 H   0  0  0  0  0  0  0  0  0  0  0  0
    1.8166   10.9809    0.0749 H   0  0  0  0  0  0  0  0  0  0  0  0
    3.0879   10.7631   -1.1468 H   0  0  0  0  0  0  0  0  0  0  0  0
    2.8094   13.0277    0.5753 H   0  0  0  0  0  0  0  0  0  0  0  0
    3.8270   13.0003   -0.8623 H   0  0  0  0  0  0  0  0  0  0  0  0
    0.9472   13.8633    0.8112 H   0  0  0  0  0  0  0  0  0  0  0  0
    0.0431   14.8352   -0.3990 H   0  0  0  0  0  0  0  0  0  0  0  0
   -0.0974   13.0444   -0.3990 H   0  0  0  0  0  0  0  0  0  0  0  0
    3.2519   14.9696   -2.1496 H   0  0  0  0  0  0  0  0  0  0  0  0
    3.1477   15.4195    0.3855 H   0  0  0  0  0  0  0  0  0  0  0  0
    3.5506   16.7648   -0.8051 H   0  0  0  0  0  0  0  0  0  0  0  0
    1.9188   17.3999    1.1636 H   0  0  0  0  0  0  0  0  0  0  0  0
   -0.5324   15.9747   -1.7105 H   0  0  0  0  0  0  0  0  0  0  0  0
    0.4111   18.7017   -2.7931 H   0  0  0  0  0  0  0  0  0  0  0  0
   -0.7129   17.5298   -3.6143 H   0  0  0  0  0  0  0  0  0  0  0  0
   -1.9240   19.4280   -2.5915 H   0  0  0  0  0  0  0  0  0  0  0  0
   -2.3613   17.8344   -1.8598 H   0  0  0  0  0  0  0  0  0  0  0  0
   -2.1217   19.4510   -0.1016 H   0  0  0  0  0  0  0  0  0  0  0  0
    0.1060   20.1370   -1.6350 H   0  0  0  0  0  0  0  0  0  0  0  0
   -1.7350   16.9533    1.8381 H   0  0  0  0  0  0  0  0  0  0  0  0
   -2.6460   17.3338    0.3374 H   0  0  0  0  0  0  0  0  0  0  0  0
   -1.4255   16.0159    0.3374 H   0  0  0  0  0  0  0  0  0  0  0  0
   -0.4957   18.1486    2.5089 H   0  0  0  0  0  0  0  0  0  0  0  0
    0.9822   18.7392    1.6761 H   0  0  0  0  0  0  0  0  0  0  0  0
   -0.5094   19.7401    1.6761 H   0  0  0  0  0  0  0  0  0  0  0  0
    2.8401   17.6608   -2.5706 H   0  0  0  0  0  0  0  0  0  0  0  0
    3.0345   16.5205   -3.9449 H   0  0  0  0  0  0  0  0  0  0  0  0
    1.6843   17.7052   -3.9449 H   0  0  0  0  0  0  0  0  0  0  0  0
   -0.1177   15.5991   -4.0894 H   0  0  0  0  0  0  0  0  0  0  0  0
    1.5876   14.9638   -4.4411 H   0  0  0  0  0  0  0  0  0  0  0  0
   -0.5138   13.7217   -2.6447 H   0  0  0  0  0  0  0  0  0  0  0  0
    0.1625   13.0872   -4.1959 H   0  0  0  0  0  0  0  0  0  0  0  0
    3.6582   12.7546   -2.9005 H   0  0  0  0  0  0  0  0  0  0  0  0
    2.6077   11.9622   -4.1233 H   0  0  0  0  0  0  0  0  0  0  0  0
    2.7960   13.7486   -4.1233 H   0  0  0  0  0  0  0  0  0  0  0  0
  1  2  1  0
  2  3  1  0
  3  4  1  0
  4  5  1  0
  5  6  1  0
  6  7  1  0
  7  8  1  0
  7  9  1  0
  2 10  1  0
 10 11  1  0
 11 12  1  0
 12 13  1  0
 13 14  1  1
 13 15  1  0
 15 16  1  0
 16 17  1  0
 17 18  2  0
 18 19  1  0
 19 20  1  0
 20 21  1  0
 21 22  1  0
 22 23  1  0
 22 24  1  0
 24 25  1  0
 24 26  1  0
 19 27  1  0
 27 28  1  6
 27 29  1  0
 29 30  1  0
 30 31  1  0
 31 32  1  6
  7  5  1  0
 31 10  1  0
 31 13  1  0
 27 15  1  0
 24 18  1  0
  1 33  1  0
  1 34  1  0
  1 35  1  0
  2 36  1  6
  3 37  1  0
  3 38  1  0
  4 39  1  0
  4 40  1  0
  5 41  1  1
  8 42  1  0
  8 43  1  0
  8 44  1  0
  9 45  1  0
  9 46  1  0
  9 47  1  0
 10 48  1  1
 11 49  1  0
 11 50  1  0
 12 51  1  0
 12 52  1  0
 14 53  1  0
 14 54  1  0
 14 55  1  0
 15 56  1  6
 16 57  1  0
 16 58  1  0
 17 59  1  0
 19 60  1  1
 20 61  1  0
 20 62  1  0
 21 63  1  0
 21 64  1  0
 22 65  1  1
 23 66  1  0
 25 67  1  0
 25 68  1  0
 25 69  1  0
 26 70  1  0
 26 71  1  0
 26 72  1  0
 28 73  1  0
 28 74  1  0
 28 75  1  0
 29 76  1  0
 29 77  1  0
 30 78  1  0
 30 79  1  0
 32 80  1  0
 32 81  1  0
 32 82  1  0
M  END
>  <meeko>  (14) 
{"is_sidechain": [false], "intermolecular_energy": 2.731, "internal_energy": -0.839}

$$$$
EPH_relaxed_0001_pdb2pqr_Repair_409_r2_0001_out
     RDKit          3D

 82 86  0  0  0  0  0  0  0  0999 V2000
   -2.1190    7.8280   -1.9800 C   0  0  0  0  0  0  0  0  0  0  0  0
   -2.2410    8.5220   -0.6200 C   0  0  2  0  0  0  0  0  0  0  0  0
   -3.6980    8.5650   -0.1190 C   0  0  0  0  0  0  0  0  0  0  0  0
   -4.7320    8.2500   -1.2040 C   0  0  0  0  0  0  0  0  0  0  0  0
   -5.7830    7.3040   -0.7100 C   0  0  2  0  0  0  0  0  0  0  0  0
   -6.1210    6.2530   -1.6240 O   0  0  0  0  0  0  0  0  0  0  0  0
   -7.1650    7.1930   -1.3260 C   0  0  0  0  0  0  0  0  0  0  0  0
   -7.5710    8.0420   -2.4900 C   0  0  0  0  0  0  0  0  0  0  0  0
   -8.2740    6.6200   -0.4990 C   0  0  0  0  0  0  0  0  0  0  0  0
   -1.6770    9.9360   -0.7060 C   0  0  1  0  0  0  0  0  0  0  0  0
   -1.1720   10.4620    0.6640 C   0  0  0  0  0  0  0  0  0  0  0  0
    0.0650   11.3500    0.3730 C   0  0  0  0  0  0  0  0  0  0  0  0
    0.0320   11.5760   -1.1570 C   0  0  1  0  0  0  0  0  0  0  0  0
   -1.0020   12.7260   -1.3700 C   0  0  0  0  0  0  0  0  0  0  0  0
    1.4020   11.8980   -1.8370 C   0  0  2  0  0  0  0  0  0  0  0  0
    2.0740   13.2010   -1.3680 C   0  0  0  0  0  0  0  0  0  0  0  0
    1.7170   14.4200   -2.1520 C   0  0  0  0  0  0  0  0  0  0  0  0
    1.1200   14.4270   -3.3580 C   0  0  0  0  0  0  0  0  0  0  0  0
    0.8290   13.1170   -4.1010 C   0  0  1  0  0  0  0  0  0  0  0  0
    1.2720   13.2510   -5.5820 C   0  0  0  0  0  0  0  0  0  0  0  0
    0.6510   14.4630   -6.2710 C   0  0  0  0  0  0  0  0  0  0  0  0
    1.0110   15.7520   -5.5360 C   0  0  2  0  0  0  0  0  0  0  0  0
    2.4180   15.9780   -5.6650 O   0  0  0  0  0  0  0  0  0  0  0  0
    0.6210   15.7290   -4.0320 C   0  0  0  0  0  0  0  0  0  0  0  0
   -0.9210   15.7880   -3.8930 C   0  0  0  0  0  0  0  0  0  0  0  0
    1.1650   17.0280   -3.3780 C   0  0  0  0  0  0  0  0  0  0  0  0
    1.3820   11.7940   -3.4160 C   0  0  1  0  0  0  0  0  0  0  0  0
    2.8540   11.5380   -3.8640 C   0  0  0  0  0  0  0  0  0  0  0  0
    0.5430   10.5620   -3.9240 C   0  0  0  0  0  0  0  0  0  0  0  0
   -0.7370   10.2220   -3.1370 C   0  0  0  0  0  0  0  0  0  0  0  0
   -0.4560   10.1600   -1.6330 C   0  0  2  0  0  0  0  0  0  0  0  0
    0.5640    8.9970   -1.3850 C   0  0  0  0  0  0  0  0  0  0  0  0
   -1.9304    6.7549   -1.8285 H   0  0  0  0  0  0  0  0  0  0  0  0
   -3.0541    7.9598   -2.5441 H   0  0  0  0  0  0  0  0  0  0  0  0
   -1.2849    8.2708   -2.5441 H   0  0  0  0  0  0  0  0  0  0  0  0
   -1.6602    7.9336    0.1056 H   0  0  0  0  0  0  0  0  0  0  0  0
   -3.8087    7.8284    0.6905 H   0  0  0  0  0  0  0  0  0  0  0  0
   -3.8910    9.5935    0.2199 H   0  0  0  0  0  0  0  0  0  0  0  0
   -5.2151    9.1868   -1.5187 H   0  0  0  0  0  0  0  0  0  0  0  0
   -4.2102    7.7730   -2.0467 H   0  0  0  0  0  0  0  0  0  0  0  0
   -5.4464    7.4363    0.3288 H   0  0  0  0  0  0  0  0  0  0  0  0
   -8.0184    8.9775   -2.1231 H   0  0  0  0  0  0  0  0  0  0  0  0
   -6.6862    8.2737   -3.1012 H   0  0  0  0  0  0  0  0  0  0  0  0
   -8.3068    7.4987   -3.1012 H   0  0  0  0  0  0  0  0  0  0  0  0
   -8.0367    6.7426    0.5681 H   0  0  0  0  0  0  0  0  0  0  0  0
   -9.2123    7.1462   -0.7288 H   0  0  0  0  0  0  0  0  0  0  0  0
   -8.3877    5.5503   -0.7288 H   0  0  0  0  0  0  0  0  0  0  0  0
   -2.5559   10.4606   -1.1088 H   0  0  0  0  0  0  0  0  0  0  0  0
   -1.9574   11.0554    1.1549 H   0  0  0  0  0  0  0  0  0  0  0  0
   -0.9123    9.6302    1.3353 H   0  0  0  0  0  0  0  0  0  0  0  0
   -0.0099   12.3078    0.9087 H   0  0  0  0  0  0  0  0  0  0  0  0
    1.0028   10.8807    0.7052 H   0  0  0  0  0  0  0  0  0  0  0  0
   -1.3395   13.1013   -0.3926 H   0  0  0  0  0  0  0  0  0  0  0  0
   -0.5297   13.5440   -1.9337 H   0  0  0  0  0  0  0  0  0  0  0  0
   -1.8654   12.3430   -1.9337 H   0  0  0  0  0  0  0  0  0  0  0  0
    2.0438   11.0830   -1.4711 H   0  0  0  0  0  0  0  0  0  0  0  0
    1.7861   13.3741   -0.3205 H   0  0  0  0  0  0  0  0  0  0  0  0
    3.1550   13.0540   -1.5090 H   0  0  0  0  0  0  0  0  0  0  0  0
    1.9627   15.3951   -1.7062 H   0  0  0  0  0  0  0  0  0  0  0  0
   -0.2605   12.9742   -4.0493 H   0  0  0  0  0  0  0  0  0  0  0  0
    2.3671   13.3493   -5.6150 H   0  0  0  0  0  0  0  0  0  0  0  0
    0.9300   12.3519   -6.1156 H   0  0  0  0  0  0  0  0  0  0  0  0
    1.0251   14.5209   -7.3038 H   0  0  0  0  0  0  0  0  0  0  0  0
   -0.4430   14.3486   -6.2642 H   0  0  0  0  0  0  0  0  0  0  0  0
    0.4337   16.5671   -5.9968 H   0  0  0  0  0  0  0  0  0  0  0  0
    2.6670   15.7720   -6.5820 H   0  0  0  0  0  0  0  0  0  0  0  0
   -1.1929   15.7984   -2.8272 H   0  0  0  0  0  0  0  0  0  0  0  0
   -1.2981   16.7012   -4.3766 H   0  0  0  0  0  0  0  0  0  0  0  0
   -1.3667   14.9063   -4.3766 H   0  0  0  0  0  0  0  0  0  0  0  0
    1.1247   16.9318   -2.2830 H   0  0  0  0  0  0  0  0  0  0  0  0
    2.2063   17.1893   -3.6939 H   0  0  0  0  0  0  0  0  0  0  0  0
    0.5494   17.8831   -3.6939 H   0  0  0  0  0  0  0  0  0  0  0  0
    3.4935   11.4268   -2.9759 H   0  0  0  0  0  0  0  0  0  0  0  0
    2.8994   10.6185   -4.4660 H   0  0  0  0  0  0  0  0  0  0  0  0
    3.2072   12.3882   -4.4660 H   0  0  0  0  0  0  0  0  0  0  0  0
    0.2499   10.7652   -4.9646 H   0  0  0  0  0  0  0  0  0  0  0  0
    1.2018    9.6910   -3.7927 H   0  0  0  0  0  0  0  0  0  0  0  0
   -1.4942   10.9962   -3.3299 H   0  0  0  0  0  0  0  0  0  0  0  0
   -1.1001    9.2374   -3.4667 H   0  0  0  0  0  0  0  0  0  0  0  0
    0.6945    8.8482   -0.3029 H   0  0  0  0  0  0  0  0  0  0  0  0
    0.1816    8.0709   -1.8390 H   0  0  0  0  0  0  0  0  0  0  0  0
    1.5321    9.2553   -1.8390 H   0  0  0  0  0  0  0  0  0  0  0  0
  1  2  1  0
  2  3  1  0
  3  4  1  0
  4  5  1  0
  5  6  1  0
  6  7  1  0
  7  8  1  0
  7  9  1  0
  2 10  1  0
 10 11  1  0
 11 12  1  0
 12 13  1  0
 13 14  1  1
 13 15  1  0
 15 16  1  0
 16 17  1  0
 17 18  2  0
 18 19  1  0
 19 20  1  0
 20 21  1  0
 21 22  1  0
 22 23  1  0
 22 24  1  0
 24 25  1  0
 24 26  1  0
 19 27  1  0
 27 28  1  6
 27 29  1  0
 29 30  1  0
 30 31  1  0
 31 32  1  6
  7  5  1  0
 31 10  1  0
 31 13  1  0
 27 15  1  0
 24 18  1  0
  1 33  1  0
  1 34  1  0
  1 35  1  0
  2 36  1  1
  3 37  1  0
  3 38  1  0
  4 39  1  0
  4 40  1  0
  5 41  1  1
  8 42  1  0
  8 43  1  0
  8 44  1  0
  9 45  1  0
  9 46  1  0
  9 47  1  0
 10 48  1  6
 11 49  1  0
 11 50  1  0
 12 51  1  0
 12 52  1  0
 14 53  1  0
 14 54  1  0
 14 55  1  0
 15 56  1  1
 16 57  1  0
 16 58  1  0
 17 59  1  0
 19 60  1  6
 20 61  1  0
 20 62  1  0
 21 63  1  0
 21 64  1  0
 22 65  1  6
 23 66  1  0
 25 67  1  0
 25 68  1  0
 25 69  1  0
 26 70  1  0
 26 71  1  0
 26 72  1  0
 28 73  1  0
 28 74  1  0
 28 75  1  0
 29 76  1  0
 29 77  1  0
 30 78  1  0
 30 79  1  0
 32 80  1  0
 32 81  1  0
 32 82  1  0
M  END
>  <meeko>  (15) 
{"is_sidechain": [false], "intermolecular_energy": 2.731, "internal_energy": -0.839}

$$$$
EPH_relaxed_0001_pdb2pqr_Repair_409_r2_0001_out
     RDKit          3D

 82 86  0  0  0  0  0  0  0  0999 V2000
    2.7600   12.4070   -5.0280 C   0  0  0  0  0  0  0  0  0  0  0  0
    1.3120   12.9070   -5.0050 C   0  0  2  0  0  0  0  0  0  0  0  0
    1.1630   14.2860   -5.6770 C   0  0  0  0  0  0  0  0  0  0  0  0
    1.4960   14.2810   -7.1720 C   0  0  0  0  0  0  0  0  0  0  0  0
    1.1990   15.6040   -7.8100 C   0  0  2  0  0  0  0  0  0  0  0  0
    0.3890   15.5320   -8.9910 O   0  0  0  0  0  0  0  0  0  0  0  0
    1.7310   16.0140   -9.1710 C   0  0  0  0  0  0  0  0  0  0  0  0
    2.6030   15.1020   -9.9760 C   0  0  0  0  0  0  0  0  0  0  0  0
    1.8070   17.4730   -9.4990 C   0  0  0  0  0  0  0  0  0  0  0  0
    0.8070   12.9700   -3.5680 C   0  0  1  0  0  0  0  0  0  0  0  0
   -0.7080   13.2920   -3.4810 C   0  0  0  0  0  0  0  0  0  0  0  0
   -1.2630   12.5080   -2.2650 C   0  0  0  0  0  0  0  0  0  0  0  0
   -0.0050   12.0320   -1.5010 C   0  0  1  0  0  0  0  0  0  0  0  0
    0.4440   13.2670   -0.6590 C   0  0  0  0  0  0  0  0  0  0  0  0
   -0.1780   10.7590   -0.6100 C   0  0  2  0  0  0  0  0  0  0  0  0
   -1.1810   10.9040    0.5480 C   0  0  0  0  0  0  0  0  0  0  0  0
   -0.6010   11.3830    1.8370 C   0  0  0  0  0  0  0  0  0  0  0  0
    0.7100   11.4140    2.1420 C   0  0  0  0  0  0  0  0  0  0  0  0
    1.7570   10.8440    1.1760 C   0  0  1  0  0  0  0  0  0  0  0  0
    2.7570    9.9550    1.9610 C   0  0  0  0  0  0  0  0  0  0  0  0
    3.3890   10.6880    3.1410 C   0  0  0  0  0  0  0  0  0  0  0  0
    2.3200   11.1890    4.1080 C   0  0  2  0  0  0  0  0  0  0  0  0
    1.6840   10.0610    4.7170 O   0  0  0  0  0  0  0  0  0  0  0  0
    1.2500   12.0880    3.4270 C   0  0  0  0  0  0  0  0  0  0  0  0
    1.8840   13.4460    3.0350 C   0  0  0  0  0  0  0  0  0  0  0  0
    0.1560   12.4090    4.4800 C   0  0  0  0  0  0  0  0  0  0  0  0
    1.1840   10.1210   -0.1190 C   0  0  1  0  0  0  0  0  0  0  0  0
    0.8870    8.6230    0.1960 C   0  0  0  0  0  0  0  0  0  0  0  0
    2.2880   10.1290   -1.2420 C   0  0  0  0  0  0  0  0  0  0  0  0
    2.3310   11.3610   -2.1660 C   0  0  0  0  0  0  0  0  0  0  0  0
    0.9370   11.6860   -2.7110 C   0  0  2  0  0  0  0  0  0  0  0  0
    0.4670   10.4700   -3.5810 C   0  0  0  0  0  0  0  0  0  0  0  0
    3.1213   12.2823   -3.9965 H   0  0  0  0  0  0  0  0  0  0  0  0
    2.8060   11.4409   -5.5520 H   0  0  0  0  0  0  0  0  0  0  0  0
    3.3923   13.1388   -5.5520 H   0  0  0  0  0  0  0  0  0  0  0  0
    0.7059   12.1924   -5.5812 H   0  0  0  0  0  0  0  0  0  0  0  0
    0.1228   14.6218   -5.5539 H   0  0  0  0  0  0  0  0  0  0  0  0
    1.8820   14.9608   -5.1895 H   0  0  0  0  0  0  0  0  0  0  0  0
    2.5654   14.0563   -7.2984 H   0  0  0  0  0  0  0  0  0  0  0  0
    0.8726   13.5172   -7.6598 H   0  0  0  0  0  0  0  0  0  0  0  0
    1.2112   16.1053   -6.8310 H   0  0  0  0  0  0  0  0  0  0  0  0
    3.2021   14.4754   -9.2989 H   0  0  0  0  0  0  0  0  0  0  0  0
    1.9747   14.4595  -10.6104 H   0  0  0  0  0  0  0  0  0  0  0  0
    3.2730   15.7008  -10.6104 H   0  0  0  0  0  0  0  0  0  0  0  0
    1.8374   18.0571   -8.5674 H   0  0  0  0  0  0  0  0  0  0  0  0
    2.7166   17.6701  -10.0853 H   0  0  0  0  0  0  0  0  0  0  0  0
    0.9228   17.7636  -10.0853 H   0  0  0  0  0  0  0  0  0  0  0  0
    1.4709   13.7535   -3.1738 H   0  0  0  0  0  0  0  0  0  0  0  0
   -0.8579   14.3720   -3.3357 H   0  0  0  0  0  0  0  0  0  0  0  0
   -1.2268   13.0033   -4.4070 H   0  0  0  0  0  0  0  0  0  0  0  0
   -1.8790   13.1615   -1.6299 H   0  0  0  0  0  0  0  0  0  0  0  0
   -1.9090   11.6708   -2.5678 H   0  0  0  0  0  0  0  0  0  0  0  0
    0.3583   13.0313    0.4120 H   0  0  0  0  0  0  0  0  0  0  0  0
    1.4892   13.5132   -0.8978 H   0  0  0  0  0  0  0  0  0  0  0  0
   -0.1990   14.1269   -0.8978 H   0  0  0  0  0  0  0  0  0  0  0  0
   -0.6319   10.0418   -1.3098 H   0  0  0  0  0  0  0  0  0  0  0  0
   -1.9572   11.6191    0.2379 H   0  0  0  0  0  0  0  0  0  0  0  0
   -1.5670    9.8929    0.7449 H   0  0  0  0  0  0  0  0  0  0  0  0
   -1.3045   11.7412    2.6030 H   0  0  0  0  0  0  0  0  0  0  0  0
    2.2833   11.7116    0.7515 H   0  0  0  0  0  0  0  0  0  0  0  0
    2.2217    9.0720    2.3400 H   0  0  0  0  0  0  0  0  0  0  0  0
    3.5658    9.6724    1.2711 H   0  0  0  0  0  0  0  0  0  0  0  0
    4.0621    9.9999    3.6735 H   0  0  0  0  0  0  0  0  0  0  0  0
    3.9488   11.5537    2.7574 H   0  0  0  0  0  0  0  0  0  0  0  0
    2.8228   11.8152    4.8597 H   0  0  0  0  0  0  0  0  0  0  0  0
    0.9640   10.3970    5.2770 H   0  0  0  0  0  0  0  0  0  0  0  0
    2.1451   14.0052    3.9456 H   0  0  0  0  0  0  0  0  0  0  0  0
    2.7924   13.2686    2.4405 H   0  0  0  0  0  0  0  0  0  0  0  0
    1.1647   14.0285    2.4405 H   0  0  0  0  0  0  0  0  0  0  0  0
    0.5727   12.2867    5.4906 H   0  0  0  0  0  0  0  0  0  0  0  0
   -0.1872   13.4457    4.3478 H   0  0  0  0  0  0  0  0  0  0  0  0
   -0.6929   11.7221    4.3478 H   0  0  0  0  0  0  0  0  0  0  0  0
    0.8579    8.4763    1.2858 H   0  0  0  0  0  0  0  0  0  0  0  0
   -0.0842    8.3427   -0.2378 H   0  0  0  0  0  0  0  0  0  0  0  0
    1.6778    7.9933   -0.2378 H   0  0  0  0  0  0  0  0  0  0  0  0
    3.2670   10.0504   -0.7466 H   0  0  0  0  0  0  0  0  0  0  0  0
    2.0348    9.2847   -1.9001 H   0  0  0  0  0  0  0  0  0  0  0  0
    2.7053   12.2248   -1.5970 H   0  0  0  0  0  0  0  0  0  0  0  0
    2.9966   11.1408   -3.0136 H   0  0  0  0  0  0  0  0  0  0  0  0
    0.1495    9.6486   -2.9219 H   0  0  0  0  0  0  0  0  0  0  0  0
   -0.3769   10.7778   -4.2159 H   0  0  0  0  0  0  0  0  0  0  0  0
    1.2986   10.1302   -4.2159 H   0  0  0  0  0  0  0  0  0  0  0  0
  1  2  1  0
  2  3  1  0
  3  4  1  0
  4  5  1  0
  5  6  1  0
  6  7  1  0
  7  8  1  0
  7  9  1  0
  2 10  1  0
 10 11  1  0
 11 12  1  0
 12 13  1  0
 13 14  1  1
 13 15  1  0
 15 16  1  0
 16 17  1  0
 17 18  2  0
 18 19  1  0
 19 20  1  0
 20 21  1  0
 21 22  1  0
 22 23  1  0
 22 24  1  0
 24 25  1  0
 24 26  1  0
 19 27  1  0
 27 28  1  1
 27 29  1  0
 29 30  1  0
 30 31  1  0
 31 32  1  6
  7  5  1  0
 31 10  1  0
 31 13  1  0
 27 15  1  0
 24 18  1  0
  1 33  1  0
  1 34  1  0
  1 35  1  0
  2 36  1  6
  3 37  1  0
  3 38  1  0
  4 39  1  0
  4 40  1  0
  5 41  1  1
  8 42  1  0
  8 43  1  0
  8 44  1  0
  9 45  1  0
  9 46  1  0
  9 47  1  0
 10 48  1  1
 11 49  1  0
 11 50  1  0
 12 51  1  0
 12 52  1  0
 14 53  1  0
 14 54  1  0
 14 55  1  0
 15 56  1  6
 16 57  1  0
 16 58  1  0
 17 59  1  0
 19 60  1  6
 20 61  1  0
 20 62  1  0
 21 63  1  0
 21 64  1  0
 22 65  1  1
 23 66  1  0
 25 67  1  0
 25 68  1  0
 25 69  1  0
 26 70  1  0
 26 71  1  0
 26 72  1  0
 28 73  1  0
 28 74  1  0
 28 75  1  0
 29 76  1  0
 29 77  1  0
 30 78  1  0
 30 79  1  0
 32 80  1  0
 32 81  1  0
 32 82  1  0
M  END
>  <meeko>  (16) 
{"is_sidechain": [false], "intermolecular_energy": 2.731, "internal_energy": -0.839}

$$$$
EPH_relaxed_0001_pdb2pqr_Repair_409_r2_0001_out
     RDKit          3D

 82 86  0  0  0  0  0  0  0  0999 V2000
    2.1510   17.7940   -3.7600 C   0  0  0  0  0  0  0  0  0  0  0  0
    1.8050   17.7760   -2.2690 C   0  0  2  0  0  0  0  0  0  0  0  0
    2.5510   18.8740   -1.4850 C   0  0  0  0  0  0  0  0  0  0  0  0
    1.7450   20.1640   -1.3130 C   0  0  0  0  0  0  0  0  0  0  0  0
    0.6530   20.0040   -0.2990 C   0  0  2  0  0  0  0  0  0  0  0  0
    0.0060   18.7250   -0.3120 O   0  0  0  0  0  0  0  0  0  0  0  0
   -0.8120   19.8530   -0.6630 C   0  0  0  0  0  0  0  0  0  0  0  0
   -1.2660   19.8550   -2.0890 C   0  0  0  0  0  0  0  0  0  0  0  0
   -1.8440   20.1920    0.3670 C   0  0  0  0  0  0  0  0  0  0  0  0
    2.1230   16.4070   -1.6790 C   0  0  1  0  0  0  0  0  0  0  0  0
    2.8550   16.5010   -0.3140 C   0  0  0  0  0  0  0  0  0  0  0  0
    2.3570   15.3090    0.5440 C   0  0  0  0  0  0  0  0  0  0  0  0
    1.6170   14.3910   -0.4560 C   0  0  1  0  0  0  0  0  0  0  0  0
    2.7460   13.5740   -1.1600 C   0  0  0  0  0  0  0  0  0  0  0  0
    0.5180   13.4560    0.1460 C   0  0  2  0  0  0  0  0  0  0  0  0
    1.0280   12.4210    1.1640 C   0  0  0  0  0  0  0  0  0  0  0  0
    1.4340   11.1050    0.5880 C   0  0  0  0  0  0  0  0  0  0  0  0
    1.1280   10.6640   -0.6470 C   0  0  0  0  0  0  0  0  0  0  0  0
    0.2140   11.4800   -1.5700 C   0  0  1  0  0  0  0  0  0  0  0  0
   -0.8480   10.5450   -2.2060 C   0  0  0  0  0  0  0  0  0  0  0  0
   -0.2230    9.3460   -2.9140 C   0  0  0  0  0  0  0  0  0  0  0  0
    0.6310    8.5280   -1.9490 C   0  0  2  0  0  0  0  0  0  0  0  0
   -0.2250    7.9300   -0.9700 O   0  0  0  0  0  0  0  0  0  0  0  0
    1.7300    9.3670   -1.2400 C   0  0  0  0  0  0  0  0  0  0  0  0
    2.8240    9.7620   -2.2630 C   0  0  0  0  0  0  0  0  0  0  0  0
    2.4250    8.4560   -0.1920 C   0  0  0  0  0  0  0  0  0  0  0  0
   -0.4270   12.7870   -0.9330 C   0  0  1  0  0  0  0  0  0  0  0  0
   -1.7540   12.4250   -0.1990 C   0  0  0  0  0  0  0  0  0  0  0  0
   -0.8160   13.7850   -2.0880 C   0  0  0  0  0  0  0  0  0  0  0  0
    0.2770   14.7640   -2.5570 C   0  0  0  0  0  0  0  0  0  0  0  0
    0.9270   15.4720   -1.3650 C   0  0  2  0  0  0  0  0  0  0  0  0
   -0.1790   16.3200   -0.6500 C   0  0  0  0  0  0  0  0  0  0  0  0
    3.2427   17.8508   -3.8824 H   0  0  0  0  0  0  0  0  0  0  0  0
    1.7761   16.8751   -4.2345 H   0  0  0  0  0  0  0  0  0  0  0  0
    1.6828   18.6690   -4.2345 H   0  0  0  0  0  0  0  0  0  0  0  0
    0.7280   17.9802   -2.1770 H   0  0  0  0  0  0  0  0  0  0  0  0
    2.7961   18.4821   -0.4868 H   0  0  0  0  0  0  0  0  0  0  0  0
    3.4481   19.1311   -2.0673 H   0  0  0  0  0  0  0  0  0  0  0  0
    2.4220   20.9663   -0.9843 H   0  0  0  0  0  0  0  0  0  0  0  0
    1.2819   20.4106   -2.2798 H   0  0  0  0  0  0  0  0  0  0  0  0
    1.1738   20.6736    0.4012 H   0  0  0  0  0  0  0  0  0  0  0  0
   -2.3654   19.8598   -2.1238 H   0  0  0  0  0  0  0  0  0  0  0  0
   -0.8792   20.7515   -2.5957 H   0  0  0  0  0  0  0  0  0  0  0  0
   -0.8871   18.9552   -2.5957 H   0  0  0  0  0  0  0  0  0  0  0  0
   -1.4188   20.0523    1.3719 H   0  0  0  0  0  0  0  0  0  0  0  0
   -2.1555   21.2397    0.2430 H   0  0  0  0  0  0  0  0  0  0  0  0
   -2.7161   19.5331    0.2430 H   0  0  0  0  0  0  0  0  0  0  0  0
    2.7232   15.9872   -2.4997 H   0  0  0  0  0  0  0  0  0  0  0  0
    3.9428   16.4327   -0.4621 H   0  0  0  0  0  0  0  0  0  0  0  0
    2.6440   17.4599    0.1820 H   0  0  0  0  0  0  0  0  0  0  0  0
    3.2051   14.7796    1.0027 H   0  0  0  0  0  0  0  0  0  0  0  0
    1.7086   15.6328    1.3715 H   0  0  0  0  0  0  0  0  0  0  0  0
    3.3900   13.1080   -0.3996 H   0  0  0  0  0  0  0  0  0  0  0  0
    2.2952   12.7916   -1.7882 H   0  0  0  0  0  0  0  0  0  0  0  0
    3.3483   14.2468   -1.7882 H   0  0  0  0  0  0  0  0  0  0  0  0
   -0.1016   14.1606    0.7201 H   0  0  0  0  0  0  0  0  0  0  0  0
    1.9008   12.8509    1.6773 H   0  0  0  0  0  0  0  0  0  0  0  0
    0.1813   12.2111    1.8341 H   0  0  0  0  0  0  0  0  0  0  0  0
    2.0337   10.4394    1.2262 H   0  0  0  0  0  0  0  0  0  0  0  0
    0.8654   11.8931   -2.3543 H   0  0  0  0  0  0  0  0  0  0  0  0
   -1.5150   10.1775   -1.4122 H   0  0  0  0  0  0  0  0  0  0  0  0
   -1.3982   11.1281   -2.9592 H   0  0  0  0  0  0  0  0  0  0  0  0
   -1.0235    8.7077   -3.3162 H   0  0  0  0  0  0  0  0  0  0  0  0
    0.4201    9.7140   -3.7271 H   0  0  0  0  0  0  0  0  0  0  0  0
    1.1549    7.7623   -2.5401 H   0  0  0  0  0  0  0  0  0  0  0  0
   -0.4470    8.6150   -0.3160 H   0  0  0  0  0  0  0  0  0  0  0  0
    3.7272   10.0881   -1.7264 H   0  0  0  0  0  0  0  0  0  0  0  0
    3.0659    8.8944   -2.8945 H   0  0  0  0  0  0  0  0  0  0  0  0
    2.4558   10.5840   -2.8945 H   0  0  0  0  0  0  0  0  0  0  0  0
    2.1646    8.7974    0.8207 H   0  0  0  0  0  0  0  0  0  0  0  0
    2.0873    7.4179   -0.3272 H   0  0  0  0  0  0  0  0  0  0  0  0
    3.5155    8.5074   -0.3272 H   0  0  0  0  0  0  0  0  0  0  0  0
   -1.5950   12.4684    0.8886 H   0  0  0  0  0  0  0  0  0  0  0  0
   -2.5380   13.1421   -0.4839 H   0  0  0  0  0  0  0  0  0  0  0  0
   -2.0652   11.4091   -0.4839 H   0  0  0  0  0  0  0  0  0  0  0  0
   -1.1208   13.1848   -2.9580 H   0  0  0  0  0  0  0  0  0  0  0  0
   -1.6089   14.4196   -1.6654 H   0  0  0  0  0  0  0  0  0  0  0  0
    1.0480   14.2054   -3.1079 H   0  0  0  0  0  0  0  0  0  0  0  0
   -0.1862   15.5224   -3.2053 H   0  0  0  0  0  0  0  0  0  0  0  0
   -0.0622   16.2305    0.4401 H   0  0  0  0  0  0  0  0  0  0  0  0
   -0.0793   17.3753   -0.9440 H   0  0  0  0  0  0  0  0  0  0  0  0
   -1.1722   15.9498   -0.9440 H   0  0  0  0  0  0  0  0  0  0  0  0
  1  2  1  0
  2  3  1  0
  3  4  1  0
  4  5  1  0
  5  6  1  0
  6  7  1  0
  7  8  1  0
  7  9  1  0
  2 10  1  0
 10 11  1  0
 11 12  1  0
 12 13  1  0
 13 14  1  6
 13 15  1  0
 15 16  1  0
 16 17  1  0
 17 18  2  0
 18 19  1  0
 19 20  1  0
 20 21  1  0
 21 22  1  0
 22 23  1  0
 22 24  1  0
 24 25  1  0
 24 26  1  0
 19 27  1  0
 27 28  1  1
 27 29  1  0
 29 30  1  0
 30 31  1  0
 31 32  1  1
  7  5  1  0
 31 10  1  0
 31 13  1  0
 27 15  1  0
 24 18  1  0
  1 33  1  0
  1 34  1  0
  1 35  1  0
  2 36  1  6
  3 37  1  0
  3 38  1  0
  4 39  1  0
  4 40  1  0
  5 41  1  1
  8 42  1  0
  8 43  1  0
  8 44  1  0
  9 45  1  0
  9 46  1  0
  9 47  1  0
 10 48  1  6
 11 49  1  0
 11 50  1  0
 12 51  1  0
 12 52  1  0
 14 53  1  0
 14 54  1  0
 14 55  1  0
 15 56  1  1
 16 57  1  0
 16 58  1  0
 17 59  1  0
 19 60  1  6
 20 61  1  0
 20 62  1  0
 21 63  1  0
 21 64  1  0
 22 65  1  6
 23 66  1  0
 25 67  1  0
 25 68  1  0
 25 69  1  0
 26 70  1  0
 26 71  1  0
 26 72  1  0
 28 73  1  0
 28 74  1  0
 28 75  1  0
 29 76  1  0
 29 77  1  0
 30 78  1  0
 30 79  1  0
 32 80  1  0
 32 81  1  0
 32 82  1  0
M  END
>  <meeko>  (17) 
{"is_sidechain": [false], "intermolecular_energy": 2.731, "internal_energy": -0.839}

$$$$
EPH_relaxed_0001_pdb2pqr_Repair_409_r2_0001_out
     RDKit          3D

 82 86  0  0  0  0  0  0  0  0999 V2000
    2.0750   10.9050   -5.2150 C   0  0  0  0  0  0  0  0  0  0  0  0
    1.4310   10.8020   -3.8300 C   0  0  2  0  0  0  0  0  0  0  0  0
    0.2810    9.7750   -3.7990 C   0  0  0  0  0  0  0  0  0  0  0  0
    0.1460    9.0430   -2.4610 C   0  0  0  0  0  0  0  0  0  0  0  0
   -1.2830    8.9610   -2.0160 C   0  0  2  0  0  0  0  0  0  0  0  0
   -1.9150   10.2290   -1.7990 O   0  0  0  0  0  0  0  0  0  0  0  0
   -1.7560    9.3940   -0.6410 C   0  0  0  0  0  0  0  0  0  0  0  0
   -0.8040    9.9400    0.3760 C   0  0  0  0  0  0  0  0  0  0  0  0
   -3.0440    8.8360   -0.1190 C   0  0  0  0  0  0  0  0  0  0  0  0
    0.9190   12.1690   -3.3920 C   0  0  1  0  0  0  0  0  0  0  0  0
   -0.6080   12.1760   -3.1170 C   0  0  0  0  0  0  0  0  0  0  0  0
   -0.8470   13.1560   -1.9400 C   0  0  0  0  0  0  0  0  0  0  0  0
    0.4880   13.9250   -1.7960 C   0  0  1  0  0  0  0  0  0  0  0  0
    0.4330   15.0320   -2.8940 C   0  0  0  0  0  0  0  0  0  0  0  0
    0.7900   14.5260   -0.3850 C   0  0  2  0  0  0  0  0  0  0  0  0
   -0.2100   15.5910    0.0990 C   0  0  0  0  0  0  0  0  0  0  0  0
    0.1330   16.9980   -0.2640 C   0  0  0  0  0  0  0  0  0  0  0  0
    1.3330   17.4230   -0.6990 C   0  0  0  0  0  0  0  0  0  0  0  0
    2.5300   16.4660   -0.7710 C   0  0  1  0  0  0  0  0  0  0  0  0
    3.7780   17.1500   -0.1540 C   0  0  0  0  0  0  0  0  0  0  0  0
    4.0760   18.5050   -0.7890 C   0  0  0  0  0  0  0  0  0  0  0  0
    2.8850   19.4480   -0.6460 C   0  0  2  0  0  0  0  0  0  0  0  0
    2.7070   19.7590    0.7390 O   0  0  0  0  0  0  0  0  0  0  0  0
    1.5660   18.8620   -1.2240 C   0  0  0  0  0  0  0  0  0  0  0  0
    1.6540   18.8070   -2.7690 C   0  0  0  0  0  0  0  0  0  0  0  0
    0.4170   19.8500   -0.8890 C   0  0  0  0  0  0  0  0  0  0  0  0
    2.2850   15.0060   -0.1920 C   0  0  1  0  0  0  0  0  0  0  0  0
    2.5640   14.9890    1.3430 C   0  0  0  0  0  0  0  0  0  0  0  0
    3.3210   14.0150   -0.8420 C   0  0  0  0  0  0  0  0  0  0  0  0
    2.9140   13.3620   -2.1770 C   0  0  0  0  0  0  0  0  0  0  0  0
    1.5070   12.7630   -2.0870 C   0  0  2  0  0  0  0  0  0  0  0  0
    1.5360   11.6300   -1.0050 C   0  0  0  0  0  0  0  0  0  0  0  0
    3.1557   11.0779   -5.1049 H   0  0  0  0  0  0  0  0  0  0  0  0
    1.9078    9.9687   -5.7676 H   0  0  0  0  0  0  0  0  0  0  0  0
    1.6242   11.7425   -5.7676 H   0  0  0  0  0  0  0  0  0  0  0  0
    2.2050   10.4527   -3.1307 H   0  0  0  0  0  0  0  0  0  0  0  0
   -0.6621   10.3033   -4.0026 H   0  0  0  0  0  0  0  0  0  0  0  0
    0.5085    9.0143   -4.5603 H   0  0  0  0  0  0  0  0  0  0  0  0
    0.5444    8.0235   -2.5705 H   0  0  0  0  0  0  0  0  0  0  0  0
    0.7095    9.6069   -1.7031 H   0  0  0  0  0  0  0  0  0  0  0  0
   -1.4346    8.0355   -2.5909 H   0  0  0  0  0  0  0  0  0  0  0  0
   -1.1822    9.7231    1.3859 H   0  0  0  0  0  0  0  0  0  0  0  0
    0.1819    9.4701    0.2449 H   0  0  0  0  0  0  0  0  0  0  0  0
   -0.7118   11.0283    0.2449 H   0  0  0  0  0  0  0  0  0  0  0  0
   -3.0276    8.8431    0.9809 H   0  0  0  0  0  0  0  0  0  0  0  0
   -3.8822    9.4517   -0.4772 H   0  0  0  0  0  0  0  0  0  0  0  0
   -3.1682    7.8034   -0.4772 H   0  0  0  0  0  0  0  0  0  0  0  0
    1.2365   12.7704   -4.2566 H   0  0  0  0  0  0  0  0  0  0  0  0
   -1.1520   12.5171   -4.0101 H   0  0  0  0  0  0  0  0  0  0  0  0
   -0.9690   11.1668   -2.8696 H   0  0  0  0  0  0  0  0  0  0  0  0
   -1.6706   13.8475   -2.1714 H   0  0  0  0  0  0  0  0  0  0  0  0
   -1.1304   12.6347   -1.0138 H   0  0  0  0  0  0  0  0  0  0  0  0
    0.3839   16.0211   -2.4153 H   0  0  0  0  0  0  0  0  0  0  0  0
    1.3352   14.9722   -3.5204 H   0  0  0  0  0  0  0  0  0  0  0  0
   -0.4589   14.8831   -3.5204 H   0  0  0  0  0  0  0  0  0  0  0  0
    0.6452   13.6591    0.2765 H   0  0  0  0  0  0  0  0  0  0  0  0
   -1.1929   15.3574   -0.3362 H   0  0  0  0  0  0  0  0  0  0  0  0
   -0.1939   15.5472    1.1980 H   0  0  0  0  0  0  0  0  0  0  0  0
   -0.6630   17.7510   -0.1676 H   0  0  0  0  0  0  0  0  0  0  0  0
    2.7015   16.2727   -1.8402 H   0  0  0  0  0  0  0  0  0  0  0  0
    3.6044   17.2955    0.9224 H   0  0  0  0  0  0  0  0  0  0  0  0
    4.6432   16.4965   -0.3397 H   0  0  0  0  0  0  0  0  0  0  0  0
    4.9501   18.9511   -0.2920 H   0  0  0  0  0  0  0  0  0  0  0  0
    4.2778   18.3542   -1.8598 H   0  0  0  0  0  0  0  0  0  0  0  0
    3.1086   20.3525   -1.2307 H   0  0  0  0  0  0  0  0  0  0  0  0
    3.0970   19.0340    1.2560 H   0  0  0  0  0  0  0  0  0  0  0  0
    2.5523   18.2456   -3.0653 H   0  0  0  0  0  0  0  0  0  0  0  0
    0.7601   18.3066   -3.1696 H   0  0  0  0  0  0  0  0  0  0  0  0
    1.7121   19.8298   -3.1696 H   0  0  0  0  0  0  0  0  0  0  0  0
    0.3153   19.9375    0.2028 H   0  0  0  0  0  0  0  0  0  0  0  0
    0.6462   20.8374   -1.3162 H   0  0  0  0  0  0  0  0  0  0  0  0
   -0.5249   19.4754   -1.3162 H   0  0  0  0  0  0  0  0  0  0  0  0
    1.6111   15.0471    1.8895 H   0  0  0  0  0  0  0  0  0  0  0  0
    3.0842   14.0575    1.6108 H   0  0  0  0  0  0  0  0  0  0  0  0
    3.1934   15.8505    1.6108 H   0  0  0  0  0  0  0  0  0  0  0  0
    4.2526   14.5738   -1.0152 H   0  0  0  0  0  0  0  0  0  0  0  0
    3.4090   13.1820   -0.1290 H   0  0  0  0  0  0  0  0  0  0  0  0
    2.9308   14.1239   -2.9703 H   0  0  0  0  0  0  0  0  0  0  0  0
    3.6255   12.5544   -2.4041 H   0  0  0  0  0  0  0  0  0  0  0  0
    1.5245   12.0808   -0.0017 H   0  0  0  0  0  0  0  0  0  0  0  0
    0.6541   10.9839   -1.1269 H   0  0  0  0  0  0  0  0  0  0  0  0
    2.4498   11.0299   -1.1269 H   0  0  0  0  0  0  0  0  0  0  0  0
  1  2  1  0
  2  3  1  0
  3  4  1  0
  4  5  1  0
  5  6  1  0
  6  7  1  0
  7  8  1  0
  7  9  1  0
  2 10  1  0
 10 11  1  0
 11 12  1  0
 12 13  1  0
 13 14  1  6
 13 15  1  0
 15 16  1  0
 16 17  1  0
 17 18  2  0
 18 19  1  0
 19 20  1  0
 20 21  1  0
 21 22  1  0
 22 23  1  0
 22 24  1  0
 24 25  1  0
 24 26  1  0
 19 27  1  0
 27 28  1  1
 27 29  1  0
 29 30  1  0
 30 31  1  0
 31 32  1  1
  7  5  1  0
 31 10  1  0
 31 13  1  0
 27 15  1  0
 24 18  1  0
  1 33  1  0
  1 34  1  0
  1 35  1  0
  2 36  1  1
  3 37  1  0
  3 38  1  0
  4 39  1  0
  4 40  1  0
  5 41  1  6
  8 42  1  0
  8 43  1  0
  8 44  1  0
  9 45  1  0
  9 46  1  0
  9 47  1  0
 10 48  1  6
 11 49  1  0
 11 50  1  0
 12 51  1  0
 12 52  1  0
 14 53  1  0
 14 54  1  0
 14 55  1  0
 15 56  1  1
 16 57  1  0
 16 58  1  0
 17 59  1  0
 19 60  1  6
 20 61  1  0
 20 62  1  0
 21 63  1  0
 21 64  1  0
 22 65  1  6
 23 66  1  0
 25 67  1  0
 25 68  1  0
 25 69  1  0
 26 70  1  0
 26 71  1  0
 26 72  1  0
 28 73  1  0
 28 74  1  0
 28 75  1  0
 29 76  1  0
 29 77  1  0
 30 78  1  0
 30 79  1  0
 32 80  1  0
 32 81  1  0
 32 82  1  0
M  END
>  <meeko>  (18) 
{"is_sidechain": [false], "intermolecular_energy": 2.731, "internal_energy": -0.839}

$$$$
EPH_relaxed_0001_pdb2pqr_Repair_409_r2_0001_out
     RDKit          3D

 82 86  0  0  0  0  0  0  0  0999 V2000
    0.4210    8.6300   -1.7100 C   0  0  0  0  0  0  0  0  0  0  0  0
    1.4270    9.2110   -0.7120 C   0  0  2  0  0  0  0  0  0  0  0  0
    0.8220    9.3670    0.6980 C   0  0  0  0  0  0  0  0  0  0  0  0
    1.6370   10.2780    1.6200 C   0  0  0  0  0  0  0  0  0  0  0  0
    0.7940   11.3710    2.2050 C   0  0  2  0  0  0  0  0  0  0  0  0
    1.4360   12.6500    2.2750 O   0  0  0  0  0  0  0  0  0  0  0  0
    1.0960   12.0420    3.5320 C   0  0  0  0  0  0  0  0  0  0  0  0
    2.2800   11.6430    4.3550 C   0  0  0  0  0  0  0  0  0  0  0  0
   -0.0180   12.7330    4.2540 C   0  0  0  0  0  0  0  0  0  0  0  0
    1.9360   10.5580   -1.2110 C   0  0  1  0  0  0  0  0  0  0  0  0
    2.8190   10.4290   -2.4810 C   0  0  0  0  0  0  0  0  0  0  0  0
    2.5380   11.6810   -3.3510 C   0  0  0  0  0  0  0  0  0  0  0  0
    1.7660   12.6410   -2.4150 C   0  0  1  0  0  0  0  0  0  0  0  0
    2.8680   13.3330   -1.5520 C   0  0  0  0  0  0  0  0  0  0  0  0
    0.8380   13.6880   -3.1120 C   0  0  2  0  0  0  0  0  0  0  0  0
    1.5590   14.6940   -4.0250 C   0  0  0  0  0  0  0  0  0  0  0  0
    2.0060   15.9530   -3.3590 C   0  0  0  0  0  0  0  0  0  0  0  0
    1.5910   16.3910   -2.1560 C   0  0  0  0  0  0  0  0  0  0  0  0
    0.5020   15.6420   -1.3780 C   0  0  1  0  0  0  0  0  0  0  0  0
   -0.5420   16.6560   -0.8420 C   0  0  0  0  0  0  0  0  0  0  0  0
    0.0950   17.7750   -0.0230 C   0  0  0  0  0  0  0  0  0  0  0  0
    1.1300   18.5330   -0.8500 C   0  0  2  0  0  0  0  0  0  0  0  0
    0.4580   19.2300   -1.9030 O   0  0  0  0  0  0  0  0  0  0  0  0
    2.2290   17.6130   -1.4490 C   0  0  0  0  0  0  0  0  0  0  0  0
    3.1490   17.0930   -0.3170 C   0  0  0  0  0  0  0  0  0  0  0  0
    3.1260   18.4800   -2.3740 C   0  0  0  0  0  0  0  0  0  0  0  0
   -0.1700   14.4150   -2.1320 C   0  0  1  0  0  0  0  0  0  0  0  0
   -1.3590   14.9160   -3.0080 C   0  0  0  0  0  0  0  0  0  0  0  0
   -0.7850   13.4310   -1.0680 C   0  0  0  0  0  0  0  0  0  0  0  0
    0.1500   12.3440   -0.5050 C   0  0  0  0  0  0  0  0  0  0  0  0
    0.8760   11.6070   -1.6340 C   0  0  2  0  0  0  0  0  0  0  0  0
   -0.2050   10.8830   -2.5060 C   0  0  0  0  0  0  0  0  0  0  0  0
   -0.4051    8.1529   -1.1623 H   0  0  0  0  0  0  0  0  0  0  0  0
    0.0236    9.4376   -2.3423 H   0  0  0  0  0  0  0  0  0  0  0  0
    0.9219    7.8821   -2.3423 H   0  0  0  0  0  0  0  0  0  0  0  0
    2.2644    8.5018   -0.6361 H   0  0  0  0  0  0  0  0  0  0  0  0
   -0.1887    9.7893    0.5975 H   0  0  0  0  0  0  0  0  0  0  0  0
    0.8155    8.3676    1.1574 H   0  0  0  0  0  0  0  0  0  0  0  0
    2.0561    9.6741    2.4384 H   0  0  0  0  0  0  0  0  0  0  0  0
    2.4363   10.7427    1.0241 H   0  0  0  0  0  0  0  0  0  0  0  0
   -0.1210   10.9127    1.8016 H   0  0  0  0  0  0  0  0  0  0  0  0
    2.0295   11.7274    5.4228 H   0  0  0  0  0  0  0  0  0  0  0  0
    2.5537   10.6030    4.1237 H   0  0  0  0  0  0  0  0  0  0  0  0
    3.1273   12.3052    4.1237 H   0  0  0  0  0  0  0  0  0  0  0  0
    0.1342   12.6386    5.3393 H   0  0  0  0  0  0  0  0  0  0  0  0
   -0.0301   13.7974    3.9767 H   0  0  0  0  0  0  0  0  0  0  0  0
   -0.9769   12.2709    3.9767 H   0  0  0  0  0  0  0  0  0  0  0  0
    2.4657   10.9005   -0.3099 H   0  0  0  0  0  0  0  0  0  0  0  0
    3.8822   10.3933   -2.2010 H   0  0  0  0  0  0  0  0  0  0  0  0
    2.5862    9.5055   -3.0314 H   0  0  0  0  0  0  0  0  0  0  0  0
    3.4796   12.1398   -3.6869 H   0  0  0  0  0  0  0  0  0  0  0  0
    1.9692   11.4380   -4.2606 H   0  0  0  0  0  0  0  0  0  0  0  0
    2.6413   13.1907   -0.4851 H   0  0  0  0  0  0  0  0  0  0  0  0
    3.8471   12.8873   -1.7815 H   0  0  0  0  0  0  0  0  0  0  0  0
    2.8919   14.4085   -1.7815 H   0  0  0  0  0  0  0  0  0  0  0  0
    0.2337   13.0582   -3.7814 H   0  0  0  0  0  0  0  0  0  0  0  0
    2.4467   14.1974   -4.4438 H   0  0  0  0  0  0  0  0  0  0  0  0
    0.8236   14.9964   -4.7851 H   0  0  0  0  0  0  0  0  0  0  0  0
    2.7363   16.5753   -3.8970 H   0  0  0  0  0  0  0  0  0  0  0  0
    1.0129   15.1521   -0.5360 H   0  0  0  0  0  0  0  0  0  0  0  0
   -1.0711   17.1022   -1.6969 H   0  0  0  0  0  0  0  0  0  0  0  0
   -1.2297   16.1086   -0.1807 H   0  0  0  0  0  0  0  0  0  0  0  0
   -0.6890   18.4747    0.3020 H   0  0  0  0  0  0  0  0  0  0  0  0
    0.5981   17.3305    0.8484 H   0  0  0  0  0  0  0  0  0  0  0  0
    1.6429   19.2336   -0.1746 H   0  0  0  0  0  0  0  0  0  0  0  0
    0.8340   20.1260   -1.9500 H   0  0  0  0  0  0  0  0  0  0  0  0
    2.7069   17.3429    0.6587 H   0  0  0  0  0  0  0  0  0  0  0  0
    3.2549   16.0015   -0.4028 H   0  0  0  0  0  0  0  0  0  0  0  0
    4.1387   17.5653   -0.4028 H   0  0  0  0  0  0  0  0  0  0  0  0
    3.7819   19.1140   -1.7593 H   0  0  0  0  0  0  0  0  0  0  0  0
    3.7399   17.8243   -3.0089 H   0  0  0  0  0  0  0  0  0  0  0  0
    2.4915   19.1158   -3.0089 H   0  0  0  0  0  0  0  0  0  0  0  0
   -2.1754   15.2600   -2.3559 H   0  0  0  0  0  0  0  0  0  0  0  0
   -1.0214   15.7484   -3.6430 H   0  0  0  0  0  0  0  0  0  0  0  0
   -1.7189   14.0930   -3.6430 H   0  0  0  0  0  0  0  0  0  0  0  0
   -1.1396   14.0364   -0.2208 H   0  0  0  0  0  0  0  0  0  0  0  0
   -1.5732   12.8828   -1.6048 H   0  0  0  0  0  0  0  0  0  0  0  0
    0.8941   12.8154    0.1538 H   0  0  0  0  0  0  0  0  0  0  0  0
   -0.4554   11.6169    0.0561 H   0  0  0  0  0  0  0  0  0  0  0  0
   -0.9378   10.3922   -1.8486 H   0  0  0  0  0  0  0  0  0  0  0  0
   -0.7180   11.6204   -3.1409 H   0  0  0  0  0  0  0  0  0  0  0  0
    0.2816   10.1279   -3.1409 H   0  0  0  0  0  0  0  0  0  0  0  0
  1  2  1  0
  2  3  1  0
  3  4  1  0
  4  5  1  0
  5  6  1  0
  6  7  1  0
  7  8  1  0
  7  9  1  0
  2 10  1  0
 10 11  1  0
 11 12  1  0
 12 13  1  0
 13 14  1  1
 13 15  1  0
 15 16  1  0
 16 17  1  0
 17 18  2  0
 18 19  1  0
 19 20  1  0
 20 21  1  0
 21 22  1  0
 22 23  1  0
 22 24  1  0
 24 25  1  0
 24 26  1  0
 19 27  1  0
 27 28  1  6
 27 29  1  0
 29 30  1  0
 30 31  1  0
 31 32  1  6
  7  5  1  0
 31 10  1  0
 31 13  1  0
 27 15  1  0
 24 18  1  0
  1 33  1  0
  1 34  1  0
  1 35  1  0
  2 36  1  1
  3 37  1  0
  3 38  1  0
  4 39  1  0
  4 40  1  0
  5 41  1  6
  8 42  1  0
  8 43  1  0
  8 44  1  0
  9 45  1  0
  9 46  1  0
  9 47  1  0
 10 48  1  1
 11 49  1  0
 11 50  1  0
 12 51  1  0
 12 52  1  0
 14 53  1  0
 14 54  1  0
 14 55  1  0
 15 56  1  6
 16 57  1  0
 16 58  1  0
 17 59  1  0
 19 60  1  1
 20 61  1  0
 20 62  1  0
 21 63  1  0
 21 64  1  0
 22 65  1  1
 23 66  1  0
 25 67  1  0
 25 68  1  0
 25 69  1  0
 26 70  1  0
 26 71  1  0
 26 72  1  0
 28 73  1  0
 28 74  1  0
 28 75  1  0
 29 76  1  0
 29 77  1  0
 30 78  1  0
 30 79  1  0
 32 80  1  0
 32 81  1  0
 32 82  1  0
M  END
>  <meeko>  (19) 
{"is_sidechain": [false], "intermolecular_energy": 2.731, "internal_energy": -0.839}

$$$$
EPH_relaxed_0001_pdb2pqr_Repair_409_r2_0001_out
     RDKit          3D

 82 86  0  0  0  0  0  0  0  0999 V2000
    0.8660   14.9050   -2.6070 C   0  0  0  0  0  0  0  0  0  0  0  0
    1.1580   14.2300   -3.9500 C   0  0  2  0  0  0  0  0  0  0  0  0
    0.4760   14.9580   -5.1260 C   0  0  0  0  0  0  0  0  0  0  0  0
    1.0890   14.6310   -6.4910 C   0  0  0  0  0  0  0  0  0  0  0  0
    0.8520   15.7290   -7.4820 C   0  0  2  0  0  0  0  0  0  0  0  0
    0.3760   15.2890   -8.7610 O   0  0  0  0  0  0  0  0  0  0  0  0
    1.6730   15.9070   -8.7460 C   0  0  0  0  0  0  0  0  0  0  0  0
    2.7940   14.9750   -9.0850 C   0  0  0  0  0  0  0  0  0  0  0  0
    1.7060   17.2560   -9.3940 C   0  0  0  0  0  0  0  0  0  0  0  0
    0.7100   12.7740   -3.9080 C   0  0  1  0  0  0  0  0  0  0  0  0
    1.8420   11.7890   -4.3010 C   0  0  0  0  0  0  0  0  0  0  0  0
    1.6470   10.5150   -3.4380 C   0  0  0  0  0  0  0  0  0  0  0  0
    0.2340   10.6710   -2.8280 C   0  0  1  0  0  0  0  0  0  0  0  0
   -0.7430   10.2110   -3.9540 C   0  0  0  0  0  0  0  0  0  0  0  0
   -0.0280    9.9080   -1.4890 C   0  0  2  0  0  0  0  0  0  0  0  0
    0.0790    8.3760   -1.5790 C   0  0  0  0  0  0  0  0  0  0  0  0
   -1.1930    7.6660   -1.9070 C   0  0  0  0  0  0  0  0  0  0  0  0
   -2.4270    8.2010   -1.8400 C   0  0  0  0  0  0  0  0  0  0  0  0
   -2.6410    9.6230   -1.3060 C   0  0  1  0  0  0  0  0  0  0  0  0
   -3.8190    9.6250   -0.2970 C   0  0  0  0  0  0  0  0  0  0  0  0
   -5.0920    9.0240   -0.8830 C   0  0  0  0  0  0  0  0  0  0  0  0
   -4.8550    7.5900   -1.3490 C   0  0  2  0  0  0  0  0  0  0  0  0
   -4.5930    6.7710   -0.2050 O   0  0  0  0  0  0  0  0  0  0  0  0
   -3.6830    7.4620   -2.3620 C   0  0  0  0  0  0  0  0  0  0  0  0
   -4.0930    8.0960   -3.7140 C   0  0  0  0  0  0  0  0  0  0  0  0
   -3.4580    5.9510   -2.6420 C   0  0  0  0  0  0  0  0  0  0  0  0
   -1.3480   10.3520   -0.7370 C   0  0  1  0  0  0  0  0  0  0  0  0
   -1.1490    9.9860    0.7660 C   0  0  0  0  0  0  0  0  0  0  0  0
   -1.5710   11.9090   -0.7890 C   0  0  0  0  0  0  0  0  0  0  0  0
   -1.1810   12.6240   -2.0970 C   0  0  0  0  0  0  0  0  0  0  0  0
    0.2260   12.2180   -2.5450 C   0  0  2  0  0  0  0  0  0  0  0  0
    1.2340   12.6880   -1.4410 C   0  0  0  0  0  0  0  0  0  0  0  0
    1.1572   14.2318   -1.7873 H   0  0  0  0  0  0  0  0  0  0  0  0
    1.4398   15.8407   -2.5345 H   0  0  0  0  0  0  0  0  0  0  0  0
   -0.2088   15.1275   -2.5345 H   0  0  0  0  0  0  0  0  0  0  0  0
    2.2442   14.2798   -4.1165 H   0  0  0  0  0  0  0  0  0  0  0  0
   -0.5855   14.6701   -5.1440 H   0  0  0  0  0  0  0  0  0  0  0  0
    0.6155   16.0366   -4.9609 H   0  0  0  0  0  0  0  0  0  0  0  0
    2.1729   14.4878   -6.3700 H   0  0  0  0  0  0  0  0  0  0  0  0
    0.6107   13.7164   -6.8715 H   0  0  0  0  0  0  0  0  0  0  0  0
    0.5744   16.4266   -6.6781 H   0  0  0  0  0  0  0  0  0  0  0  0
    3.2492   14.5965   -8.1579 H   0  0  0  0  0  0  0  0  0  0  0  0
    2.4041   14.1311   -9.6731 H   0  0  0  0  0  0  0  0  0  0  0  0
    3.5525   15.5124   -9.6731 H   0  0  0  0  0  0  0  0  0  0  0  0
    1.7251   18.0352   -8.6178 H   0  0  0  0  0  0  0  0  0  0  0  0
    2.6065   17.3401  -10.0202 H   0  0  0  0  0  0  0  0  0  0  0  0
    0.8107   17.3840  -10.0202 H   0  0  0  0  0  0  0  0  0  0  0  0
   -0.1309   12.8194   -4.6157 H   0  0  0  0  0  0  0  0  0  0  0  0
    1.7709   11.5372   -5.3694 H   0  0  0  0  0  0  0  0  0  0  0  0
    2.8320   12.2358   -4.1272 H   0  0  0  0  0  0  0  0  0  0  0  0
    1.7032    9.6108   -4.0618 H   0  0  0  0  0  0  0  0  0  0  0  0
    2.4251   10.4092   -2.6677 H   0  0  0  0  0  0  0  0  0  0  0  0
   -1.6498    9.7840   -3.5008 H   0  0  0  0  0  0  0  0  0  0  0  0
   -1.0166   11.0749   -4.5776 H   0  0  0  0  0  0  0  0  0  0  0  0
   -0.2514    9.4497   -4.5776 H   0  0  0  0  0  0  0  0  0  0  0  0
    0.8186   10.2303   -0.8650 H   0  0  0  0  0  0  0  0  0  0  0  0
    0.8153    8.1319   -2.3589 H   0  0  0  0  0  0  0  0  0  0  0  0
    0.3696    8.0318   -0.5755 H   0  0  0  0  0  0  0  0  0  0  0  0
   -1.1155    6.6175   -2.2306 H   0  0  0  0  0  0  0  0  0  0  0  0
   -2.8968   10.2409   -2.1794 H   0  0  0  0  0  0  0  0  0  0  0  0
   -3.5270    9.0392    0.5870 H   0  0  0  0  0  0  0  0  0  0  0  0
   -4.0334   10.6719   -0.0362 H   0  0  0  0  0  0  0  0  0  0  0  0
   -5.8785    9.0271   -0.1139 H   0  0  0  0  0  0  0  0  0  0  0  0
   -5.3984    9.6282   -1.7496 H   0  0  0  0  0  0  0  0  0  0  0  0
   -5.7627    7.2592   -1.8749 H   0  0  0  0  0  0  0  0  0  0  0  0
   -5.0470    7.1730    0.5550 H   0  0  0  0  0  0  0  0  0  0  0  0
   -4.6818    9.0065   -3.5285 H   0  0  0  0  0  0  0  0  0  0  0  0
   -3.1900    8.3537   -4.2870 H   0  0  0  0  0  0  0  0  0  0  0  0
   -4.6984    7.3782   -4.2870 H   0  0  0  0  0  0  0  0  0  0  0  0
   -3.3773    5.4093   -1.6880 H   0  0  0  0  0  0  0  0  0  0  0  0
   -4.3070    5.5545   -3.2182 H   0  0  0  0  0  0  0  0  0  0  0  0
   -2.5303    5.8190   -3.2182 H   0  0  0  0  0  0  0  0  0  0  0  0
   -1.5796   10.7780    1.3964 H   0  0  0  0  0  0  0  0  0  0  0  0
   -1.6526    9.0319    0.9808 H   0  0  0  0  0  0  0  0  0  0  0  0
   -0.0745    9.8900    0.9808 H   0  0  0  0  0  0  0  0  0  0  0  0
   -2.6402   12.0980   -0.6126 H   0  0  0  0  0  0  0  0  0  0  0  0
   -0.8972   12.3217   -0.0237 H   0  0  0  0  0  0  0  0  0  0  0  0
   -1.9011   12.3537   -2.8834 H   0  0  0  0  0  0  0  0  0  0  0  0
   -1.1933   13.7097   -1.9204 H   0  0  0  0  0  0  0  0  0  0  0  0
    0.8077   12.4892   -0.4467 H   0  0  0  0  0  0  0  0  0  0  0  0
    2.1805   12.1383   -1.5507 H   0  0  0  0  0  0  0  0  0  0  0  0
    1.4214   13.7664   -1.5507 H   0  0  0  0  0  0  0  0  0  0  0  0
  1  2  1  0
  2  3  1  0
  3  4  1  0
  4  5  1  0
  5  6  1  0
  6  7  1  0
  7  8  1  0
  7  9  1  0
  2 10  1  0
 10 11  1  0
 11 12  1  0
 12 13  1  0
 13 14  1  6
 13 15  1  0
 15 16  1  0
 16 17  1  0
 17 18  2  0
 18 19  1  0
 19 20  1  0
 20 21  1  0
 21 22  1  0
 22 23  1  0
 22 24  1  0
 24 25  1  0
 24 26  1  0
 19 27  1  0
 27 28  1  1
 27 29  1  0
 29 30  1  0
 30 31  1  0
 31 32  1  1
  7  5  1  0
 31 10  1  0
 31 13  1  0
 27 15  1  0
 24 18  1  0
  1 33  1  0
  1 34  1  0
  1 35  1  0
  2 36  1  6
  3 37  1  0
  3 38  1  0
  4 39  1  0
  4 40  1  0
  5 41  1  1
  8 42  1  0
  8 43  1  0
  8 44  1  0
  9 45  1  0
  9 46  1  0
  9 47  1  0
 10 48  1  6
 11 49  1  0
 11 50  1  0
 12 51  1  0
 12 52  1  0
 14 53  1  0
 14 54  1  0
 14 55  1  0
 15 56  1  1
 16 57  1  0
 16 58  1  0
 17 59  1  0
 19 60  1  6
 20 61  1  0
 20 62  1  0
 21 63  1  0
 21 64  1  0
 22 65  1  6
 23 66  1  0
 25 67  1  0
 25 68  1  0
 25 69  1  0
 26 70  1  0
 26 71  1  0
 26 72  1  0
 28 73  1  0
 28 74  1  0
 28 75  1  0
 29 76  1  0
 29 77  1  0
 30 78  1  0
 30 79  1  0
 32 80  1  0
 32 81  1  0
 32 82  1  0
M  END
>  <meeko>  (20) 
{"is_sidechain": [false], "intermolecular_energy": 2.731, "internal_energy": -0.839}

$$$$
