EPH_relaxed_0001_pdb2pqr_Repair_75_r2_0001_out
     RDKit          3D

 82 86  0  0  0  0  0  0  0  0999 V2000
    2.0860   19.8380   -0.7740 C   0  0  0  0  0  0  0  0  0  0  0  0
    2.0370   18.7880    0.3400 C   0  0  2  0  0  0  0  0  0  0  0  0
    3.4450   18.3170    0.7560 C   0  0  0  0  0  0  0  0  0  0  0  0
    4.1430   19.2590    1.7410 C   0  0  0  0  0  0  0  0  0  0  0  0
    4.7660   18.5080    2.8790 C   0  0  2  0  0  0  0  0  0  0  0  0
    4.7350   19.1950    4.1370 O   0  0  0  0  0  0  0  0  0  0  0  0
    6.0370   18.9530    3.5780 C   0  0  0  0  0  0  0  0  0  0  0  0
    6.7620   20.1940    3.1630 C   0  0  0  0  0  0  0  0  0  0  0  0
    6.8350   17.9330    4.3290 C   0  0  0  0  0  0  0  0  0  0  0  0
    1.1990   17.5950   -0.1070 C   0  0  1  0  0  0  0  0  0  0  0  0
    0.0640   17.9960   -1.0870 C   0  0  0  0  0  0  0  0  0  0  0  0
   -0.0950   16.8240   -2.0900 C   0  0  0  0  0  0  0  0  0  0  0  0
    0.7100   15.6620   -1.4630 C   0  0  1  0  0  0  0  0  0  0  0  0
   -0.2450   15.0430   -0.3940 C   0  0  0  0  0  0  0  0  0  0  0  0
    1.2460   14.5790   -2.4540 C   0  0  2  0  0  0  0  0  0  0  0  0
    0.1610   13.7990   -3.2170 C   0  0  0  0  0  0  0  0  0  0  0  0
   -0.3140   12.5500   -2.5510 C   0  0  0  0  0  0  0  0  0  0  0  0
    0.3050   11.9220   -1.5350 C   0  0  0  0  0  0  0  0  0  0  0  0
    1.6640   12.4110   -1.0170 C   0  0  1  0  0  0  0  0  0  0  0  0
    2.6210   11.2010   -0.8510 C   0  0  0  0  0  0  0  0  0  0  0  0
    2.0260   10.1000    0.0220 C   0  0  0  0  0  0  0  0  0  0  0  0
    0.7050    9.6000   -0.5570 C   0  0  2  0  0  0  0  0  0  0  0  0
    0.9670    8.9380   -1.7980 O   0  0  0  0  0  0  0  0  0  0  0  0
   -0.3360   10.7330   -0.7780 C   0  0  0  0  0  0  0  0  0  0  0  0
   -0.8450   11.2460    0.5920 C   0  0  0  0  0  0  0  0  0  0  0  0
   -1.5670   10.1160   -1.4950 C   0  0  0  0  0  0  0  0  0  0  0  0
    2.3260   13.6050   -1.8300 C   0  0  1  0  0  0  0  0  0  0  0  0
    3.1590   13.0410   -3.0210 C   0  0  0  0  0  0  0  0  0  0  0  0
    3.3430   14.3610   -0.8950 C   0  0  0  0  0  0  0  0  0  0  0  0
    2.7750   15.5010   -0.0270 C   0  0  0  0  0  0  0  0  0  0  0  0
    1.9280   16.4600   -0.8690 C   0  0  2  0  0  0  0  0  0  0  0  0
    2.8670   17.1150   -1.9380 C   0  0  0  0  0  0  0  0  0  0  0  0
    2.1329   20.8428   -0.3289 H   0  0  0  0  0  0  0  0  0  0  0  0
    2.9773   19.6708   -1.3966 H   0  0  0  0  0  0  0  0  0  0  0  0
    1.1830   19.7545   -1.3966 H   0  0  0  0  0  0  0  0  0  0  0  0
    1.5736   19.2592    1.2193 H   0  0  0  0  0  0  0  0  0  0  0  0
    3.3550   17.3269    1.2267 H   0  0  0  0  0  0  0  0  0  0  0  0
    4.0589   18.2936   -0.1565 H   0  0  0  0  0  0  0  0  0  0  0  0
    4.9286   19.8142    1.2076 H   0  0  0  0  0  0  0  0  0  0  0  0
    3.3880   19.9439    2.1544 H   0  0  0  0  0  0  0  0  0  0  0  0
    4.4633   17.5453    2.4413 H   0  0  0  0  0  0  0  0  0  0  0  0
    7.0848   20.7466    4.0577 H   0  0  0  0  0  0  0  0  0  0  0  0
    7.6426   19.9209    2.5631 H   0  0  0  0  0  0  0  0  0  0  0  0
    6.0916   20.8270    2.5631 H   0  0  0  0  0  0  0  0  0  0  0  0
    6.7099   18.0929    5.4101 H   0  0  0  0  0  0  0  0  0  0  0  0
    6.4834   16.9249    4.0644 H   0  0  0  0  0  0  0  0  0  0  0  0
    7.8981   18.0317    4.0644 H   0  0  0  0  0  0  0  0  0  0  0  0
    0.8578   17.2311    0.8734 H   0  0  0  0  0  0  0  0  0  0  0  0
   -0.8748   18.1529   -0.5356 H   0  0  0  0  0  0  0  0  0  0  0  0
    0.3058   18.9333   -1.6095 H   0  0  0  0  0  0  0  0  0  0  0  0
   -1.1541   16.5478   -2.1998 H   0  0  0  0  0  0  0  0  0  0  0  0
    0.2640   17.0847   -3.0965 H   0  0  0  0  0  0  0  0  0  0  0  0
    0.1266   15.2838    0.6129 H   0  0  0  0  0  0  0  0  0  0  0  0
   -1.2557   15.4582   -0.5209 H   0  0  0  0  0  0  0  0  0  0  0  0
   -0.2787   13.9509   -0.5209 H   0  0  0  0  0  0  0  0  0  0  0  0
    1.7645   15.1879   -3.2092 H   0  0  0  0  0  0  0  0  0  0  0  0
   -0.7053   14.4637   -3.3502 H   0  0  0  0  0  0  0  0  0  0  0  0
    0.6229   13.4822   -4.1637 H   0  0  0  0  0  0  0  0  0  0  0  0
   -1.2492   12.1057   -2.9225 H   0  0  0  0  0  0  0  0  0  0  0  0
    1.4689   12.8696   -0.0364 H   0  0  0  0  0  0  0  0  0  0  0  0
    2.8379   10.7839   -1.8455 H   0  0  0  0  0  0  0  0  0  0  0  0
    3.5341   11.5629   -0.3559 H   0  0  0  0  0  0  0  0  0  0  0  0
    2.7355    9.2612    0.0772 H   0  0  0  0  0  0  0  0  0  0  0  0
    1.8373   10.5102    1.0251 H   0  0  0  0  0  0  0  0  0  0  0  0
    0.2641    8.9090    0.1766 H   0  0  0  0  0  0  0  0  0  0  0  0
    1.0720    7.9900   -1.6100 H   0  0  0  0  0  0  0  0  0  0  0  0
   -0.3194   10.7163    1.4002 H   0  0  0  0  0  0  0  0  0  0  0  0
   -0.6510   12.3256    0.6744 H   0  0  0  0  0  0  0  0  0  0  0  0
   -1.9261   11.0604    0.6744 H   0  0  0  0  0  0  0  0  0  0  0  0
   -2.2859    9.7557   -0.7445 H   0  0  0  0  0  0  0  0  0  0  0  0
   -2.0461   10.8805   -2.1243 H   0  0  0  0  0  0  0  0  0  0  0  0
   -1.2412    9.2747   -2.1243 H   0  0  0  0  0  0  0  0  0  0  0  0
    4.0110   12.4642   -2.6319 H   0  0  0  0  0  0  0  0  0  0  0  0
    2.5233   12.3867   -3.6357 H   0  0  0  0  0  0  0  0  0  0  0  0
    3.5304   13.8742   -3.6357 H   0  0  0  0  0  0  0  0  0  0  0  0
    3.7881   13.6173   -0.2176 H   0  0  0  0  0  0  0  0  0  0  0  0
    4.0548   14.8473   -1.5783 H   0  0  0  0  0  0  0  0  0  0  0  0
    2.1483   15.0703    0.7678 H   0  0  0  0  0  0  0  0  0  0  0  0
    3.6147   16.0633    0.4075 H   0  0  0  0  0  0  0  0  0  0  0  0
    3.6673   17.6733   -1.4302 H   0  0  0  0  0  0  0  0  0  0  0  0
    3.3104   16.3292   -2.5673 H   0  0  0  0  0  0  0  0  0  0  0  0
    2.2827   17.8025   -2.5673 H   0  0  0  0  0  0  0  0  0  0  0  0
  1  2  1  0
  2  3  1  0
  3  4  1  0
  4  5  1  0
  5  6  1  0
  6  7  1  0
  7  8  1  0
  7  9  1  0
  2 10  1  0
 10 11  1  0
 11 12  1  0
 12 13  1  0
 13 14  1  1
 13 15  1  0
 15 16  1  0
 16 17  1  0
 17 18  2  0
 18 19  1  0
 19 20  1  0
 20 21  1  0
 21 22  1  0
 22 23  1  0
 22 24  1  0
 24 25  1  0
 24 26  1  0
 19 27  1  0
 27 28  1  6
 27 29  1  0
 29 30  1  0
 30 31  1  0
 31 32  1  6
  7  5  1  0
 31 10  1  0
 31 13  1  0
 27 15  1  0
 24 18  1  0
  1 33  1  0
  1 34  1  0
  1 35  1  0
  2 36  1  1
  3 37  1  0
  3 38  1  0
  4 39  1  0
  4 40  1  0
  5 41  1  1
  8 42  1  0
  8 43  1  0
  8 44  1  0
  9 45  1  0
  9 46  1  0
  9 47  1  0
 10 48  1  1
 11 49  1  0
 11 50  1  0
 12 51  1  0
 12 52  1  0
 14 53  1  0
 14 54  1  0
 14 55  1  0
 15 56  1  6
 16 57  1  0
 16 58  1  0
 17 59  1  0
 19 60  1  1
 20 61  1  0
 20 62  1  0
 21 63  1  0
 21 64  1  0
 22 65  1  1
 23 66  1  0
 25 67  1  0
 25 68  1  0
 25 69  1  0
 26 70  1  0
 26 71  1  0
 26 72  1  0
 28 73  1  0
 28 74  1  0
 28 75  1  0
 29 76  1  0
 29 77  1  0
 30 78  1  0
 30 79  1  0
 32 80  1  0
 32 81  1  0
 32 82  1  0
M  END
>  <meeko>  (1) 
{"is_sidechain": [false], "intermolecular_energy": 2.731, "internal_energy": -0.839}

$$$$
EPH_relaxed_0001_pdb2pqr_Repair_75_r2_0001_out
     RDKit          3D

 82 86  0  0  0  0  0  0  0  0999 V2000
    3.5280   18.3060    0.9850 C   0  0  0  0  0  0  0  0  0  0  0  0
    2.5940   18.7460   -0.1460 C   0  0  2  0  0  0  0  0  0  0  0  0
    1.7770   19.9980    0.2300 C   0  0  0  0  0  0  0  0  0  0  0  0
    0.5770   19.7010    1.1330 C   0  0  0  0  0  0  0  0  0  0  0  0
   -0.7060   20.1890    0.5300 C   0  0  2  0  0  0  0  0  0  0  0  0
   -1.8250   20.1930    1.4250 O   0  0  0  0  0  0  0  0  0  0  0  0
   -1.9140   19.3010    0.3020 C   0  0  0  0  0  0  0  0  0  0  0  0
   -1.8990   17.8520    0.6730 C   0  0  0  0  0  0  0  0  0  0  0  0
   -2.9260   19.7180   -0.7200 C   0  0  0  0  0  0  0  0  0  0  0  0
    1.6560   17.6040   -0.5190 C   0  0  1  0  0  0  0  0  0  0  0  0
    0.5640   18.0350   -1.5330 C   0  0  0  0  0  0  0  0  0  0  0  0
    0.3060   16.8170   -2.4570 C   0  0  0  0  0  0  0  0  0  0  0  0
    1.0030   15.6340   -1.7470 C   0  0  1  0  0  0  0  0  0  0  0  0
   -0.0060   15.1740   -0.6480 C   0  0  0  0  0  0  0  0  0  0  0  0
    1.4450   14.4430   -2.6590 C   0  0  2  0  0  0  0  0  0  0  0  0
    0.2980   13.7120   -3.3780 C   0  0  0  0  0  0  0  0  0  0  0  0
   -0.2870   12.5570   -2.6340 C   0  0  0  0  0  0  0  0  0  0  0  0
    0.2710   11.9470   -1.5730 C   0  0  0  0  0  0  0  0  0  0  0  0
    1.6660   12.3490   -1.0760 C   0  0  1  0  0  0  0  0  0  0  0  0
    2.5120   11.0740   -0.8210 C   0  0  0  0  0  0  0  0  0  0  0  0
    1.8200   10.0910    0.1180 C   0  0  0  0  0  0  0  0  0  0  0  0
    0.4620    9.6700   -0.4380 C   0  0  2  0  0  0  0  0  0  0  0  0
    0.6690    8.9060   -1.6300 O   0  0  0  0  0  0  0  0  0  0  0  0
   -0.4740   10.8720   -0.7430 C   0  0  0  0  0  0  0  0  0  0  0  0
   -0.9400   11.5190    0.5840 C   0  0  0  0  0  0  0  0  0  0  0  0
   -1.7530   10.3190   -1.4290 C   0  0  0  0  0  0  0  0  0  0  0  0
    2.4330   13.4240   -1.9610 C   0  0  1  0  0  0  0  0  0  0  0  0
    3.2170   12.7100   -3.1040 C   0  0  0  0  0  0  0  0  0  0  0  0
    3.5100   14.1490   -1.0700 C   0  0  0  0  0  0  0  0  0  0  0  0
    3.0410   15.3890   -0.2850 C   0  0  0  0  0  0  0  0  0  0  0  0
    2.2840   16.3600   -1.1970 C   0  0  2  0  0  0  0  0  0  0  0  0
    3.2810   16.8570   -2.2990 C   0  0  0  0  0  0  0  0  0  0  0  0
    3.0587   18.5271    1.9550 H   0  0  0  0  0  0  0  0  0  0  0  0
    3.7153   17.2249    0.9062 H   0  0  0  0  0  0  0  0  0  0  0  0
    4.4809   18.8499    0.9062 H   0  0  0  0  0  0  0  0  0  0  0  0
    3.2214   19.0089   -1.0104 H   0  0  0  0  0  0  0  0  0  0  0  0
    2.4407   20.7013    0.7544 H   0  0  0  0  0  0  0  0  0  0  0  0
    1.3791   20.4157   -0.7066 H   0  0  0  0  0  0  0  0  0  0  0  0
    0.5075   18.6141    1.2872 H   0  0  0  0  0  0  0  0  0  0  0  0
    0.7284   20.2262    2.0876 H   0  0  0  0  0  0  0  0  0  0  0  0
   -0.1600   20.8761   -0.1331 H   0  0  0  0  0  0  0  0  0  0  0  0
   -1.8980   17.7540    1.7686 H   0  0  0  0  0  0  0  0  0  0  0  0
   -2.7921   17.3589    0.2616 H   0  0  0  0  0  0  0  0  0  0  0  0
   -0.9959   17.3775    0.2616 H   0  0  0  0  0  0  0  0  0  0  0  0
   -3.8282   20.0898   -0.2122 H   0  0  0  0  0  0  0  0  0  0  0  0
   -2.5044   20.5157   -1.3493 H   0  0  0  0  0  0  0  0  0  0  0  0
   -3.1888   18.8549   -1.3493 H   0  0  0  0  0  0  0  0  0  0  0  0
    1.2819   17.3390    0.4809 H   0  0  0  0  0  0  0  0  0  0  0  0
   -0.3592   18.3096   -1.0016 H   0  0  0  0  0  0  0  0  0  0  0  0
    0.8885   18.9104   -2.1147 H   0  0  0  0  0  0  0  0  0  0  0  0
   -0.7729   16.6280   -2.5581 H   0  0  0  0  0  0  0  0  0  0  0  0
    0.6902   16.9772   -3.4752 H   0  0  0  0  0  0  0  0  0  0  0  0
    0.4213   15.3688    0.3467 H   0  0  0  0  0  0  0  0  0  0  0  0
   -0.9477   15.7318   -0.7582 H   0  0  0  0  0  0  0  0  0  0  0  0
   -0.2025   14.0973   -0.7582 H   0  0  0  0  0  0  0  0  0  0  0  0
    2.0174   14.9506   -3.4494 H   0  0  0  0  0  0  0  0  0  0  0  0
   -0.5059   14.4397   -3.5629 H   0  0  0  0  0  0  0  0  0  0  0  0
    0.7328   13.2932   -4.2976 H   0  0  0  0  0  0  0  0  0  0  0  0
   -1.2566   12.1724   -2.9833 H   0  0  0  0  0  0  0  0  0  0  0  0
    1.5091   12.8876   -0.1298 H   0  0  0  0  0  0  0  0  0  0  0  0
    2.6943   10.5735   -1.7834 H   0  0  0  0  0  0  0  0  0  0  0  0
    3.4520   11.3870   -0.3430 H   0  0  0  0  0  0  0  0  0  0  0  0
    2.4530    9.1992    0.2358 H   0  0  0  0  0  0  0  0  0  0  0  0
    1.6646   10.5832    1.0894 H   0  0  0  0  0  0  0  0  0  0  0  0
   -0.0402    9.0705    0.3356 H   0  0  0  0  0  0  0  0  0  0  0  0
   -0.2050    8.7090   -2.0090 H   0  0  0  0  0  0  0  0  0  0  0  0
   -0.5308   10.9509    1.4324 H   0  0  0  0  0  0  0  0  0  0  0  0
   -0.5814   12.5578    0.6312 H   0  0  0  0  0  0  0  0  0  0  0  0
   -2.0389   11.5080    0.6312 H   0  0  0  0  0  0  0  0  0  0  0  0
   -2.4754   10.0067   -0.6605 H   0  0  0  0  0  0  0  0  0  0  0  0
   -2.2012   11.1037   -2.0562 H   0  0  0  0  0  0  0  0  0  0  0  0
   -1.4883    9.4550   -2.0562 H   0  0  0  0  0  0  0  0  0  0  0  0
    3.9635   12.0302   -2.6675 H   0  0  0  0  0  0  0  0  0  0  0  0
    2.5156   12.1340   -3.7255 H   0  0  0  0  0  0  0  0  0  0  0  0
    3.7251   13.4621   -3.7255 H   0  0  0  0  0  0  0  0  0  0  0  0
    3.8867   13.4164   -0.3410 H   0  0  0  0  0  0  0  0  0  0  0  0
    4.2639   14.5243   -1.7777 H   0  0  0  0  0  0  0  0  0  0  0  0
    2.3761   15.0686    0.5306 H   0  0  0  0  0  0  0  0  0  0  0  0
    3.9250   15.9038    0.1194 H   0  0  0  0  0  0  0  0  0  0  0  0
    4.1670   17.2987   -1.8196 H   0  0  0  0  0  0  0  0  0  0  0  0
    3.5886   16.0068   -2.9255 H   0  0  0  0  0  0  0  0  0  0  0  0
    2.7872   17.6144   -2.9255 H   0  0  0  0  0  0  0  0  0  0  0  0
  1  2  1  0
  2  3  1  0
  3  4  1  0
  4  5  1  0
  5  6  1  0
  6  7  1  0
  7  8  1  0
  7  9  1  0
  2 10  1  0
 10 11  1  0
 11 12  1  0
 12 13  1  0
 13 14  1  1
 13 15  1  0
 15 16  1  0
 16 17  1  0
 17 18  2  0
 18 19  1  0
 19 20  1  0
 20 21  1  0
 21 22  1  0
 22 23  1  0
 22 24  1  0
 24 25  1  0
 24 26  1  0
 19 27  1  0
 27 28  1  6
 27 29  1  0
 29 30  1  0
 30 31  1  0
 31 32  1  6
  7  5  1  0
 31 10  1  0
 31 13  1  0
 27 15  1  0
 24 18  1  0
  1 33  1  0
  1 34  1  0
  1 35  1  0
  2 36  1  6
  3 37  1  0
  3 38  1  0
  4 39  1  0
  4 40  1  0
  5 41  1  6
  8 42  1  0
  8 43  1  0
  8 44  1  0
  9 45  1  0
  9 46  1  0
  9 47  1  0
 10 48  1  1
 11 49  1  0
 11 50  1  0
 12 51  1  0
 12 52  1  0
 14 53  1  0
 14 54  1  0
 14 55  1  0
 15 56  1  6
 16 57  1  0
 16 58  1  0
 17 59  1  0
 19 60  1  1
 20 61  1  0
 20 62  1  0
 21 63  1  0
 21 64  1  0
 22 65  1  1
 23 66  1  0
 25 67  1  0
 25 68  1  0
 25 69  1  0
 26 70  1  0
 26 71  1  0
 26 72  1  0
 28 73  1  0
 28 74  1  0
 28 75  1  0
 29 76  1  0
 29 77  1  0
 30 78  1  0
 30 79  1  0
 32 80  1  0
 32 81  1  0
 32 82  1  0
M  END
>  <meeko>  (2) 
{"is_sidechain": [false], "intermolecular_energy": 2.731, "internal_energy": -0.839}

$$$$
EPH_relaxed_0001_pdb2pqr_Repair_75_r2_0001_out
     RDKit          3D

 82 86  0  0  0  0  0  0  0  0999 V2000
    1.4050   19.7280   -1.8070 C   0  0  0  0  0  0  0  0  0  0  0  0
    0.7650   18.8020   -0.7690 C   0  0  2  0  0  0  0  0  0  0  0  0
    1.7000   18.5370    0.4280 C   0  0  0  0  0  0  0  0  0  0  0  0
    2.4380   19.7850    0.9200 C   0  0  0  0  0  0  0  0  0  0  0  0
    3.8760   19.4940    1.2260 C   0  0  2  0  0  0  0  0  0  0  0  0
    4.0890   18.3600    2.0780 O   0  0  0  0  0  0  0  0  0  0  0  0
    4.4820   19.6360    2.6100 C   0  0  0  0  0  0  0  0  0  0  0  0
    3.6620   20.0860    3.7790 C   0  0  0  0  0  0  0  0  0  0  0  0
    5.9640   19.8090    2.7280 C   0  0  0  0  0  0  0  0  0  0  0  0
    0.3690   17.4830   -1.4230 C   0  0  1  0  0  0  0  0  0  0  0  0
   -0.0350   17.6520   -2.9120 C   0  0  0  0  0  0  0  0  0  0  0  0
    0.4420   16.3760   -3.6520 C   0  0  0  0  0  0  0  0  0  0  0  0
    0.8010   15.3810   -2.5230 C   0  0  1  0  0  0  0  0  0  0  0  0
   -0.5640   14.7670   -2.0810 C   0  0  0  0  0  0  0  0  0  0  0  0
    1.8430   14.2730   -2.8840 C   0  0  2  0  0  0  0  0  0  0  0  0
    1.4050   13.3020   -3.9950 C   0  0  0  0  0  0  0  0  0  0  0  0
    0.6870   12.0800   -3.5270 C   0  0  0  0  0  0  0  0  0  0  0  0
    0.6530   11.6300   -2.2580 C   0  0  0  0  0  0  0  0  0  0  0  0
    1.4660   12.3200   -1.1560 C   0  0  1  0  0  0  0  0  0  0  0  0
    2.2110   11.2500   -0.3150 C   0  0  0  0  0  0  0  0  0  0  0  0
    1.2720   10.1810    0.2350 C   0  0  0  0  0  0  0  0  0  0  0  0
    0.5250    9.4780   -0.8950 C   0  0  2  0  0  0  0  0  0  0  0  0
    1.4640    8.7300   -1.6740 O   0  0  0  0  0  0  0  0  0  0  0  0
   -0.2560   10.4570   -1.8150 C   0  0  0  0  0  0  0  0  0  0  0  0
   -1.4650   11.0430   -1.0460 C   0  0  0  0  0  0  0  0  0  0  0  0
   -0.8470    9.6360   -2.9930 C   0  0  0  0  0  0  0  0  0  0  0  0
    2.4230   13.4960   -1.6330 C   0  0  1  0  0  0  0  0  0  0  0  0
    3.8030   12.9150   -2.0710 C   0  0  0  0  0  0  0  0  0  0  0  0
    2.7100   14.4520   -0.4160 C   0  0  0  0  0  0  0  0  0  0  0  0
    1.7090   15.6000   -0.1830 C   0  0  0  0  0  0  0  0  0  0  0  0
    1.4430   16.3680   -1.4810 C   0  0  2  0  0  0  0  0  0  0  0  0
    2.7950   17.0160   -1.9390 C   0  0  0  0  0  0  0  0  0  0  0  0
    1.9580   20.5281   -1.2931 H   0  0  0  0  0  0  0  0  0  0  0  0
    2.0972   19.1499   -2.4368 H   0  0  0  0  0  0  0  0  0  0  0  0
    0.6195   20.1712   -2.4368 H   0  0  0  0  0  0  0  0  0  0  0  0
   -0.1312   19.3087   -0.3816 H   0  0  0  0  0  0  0  0  0  0  0  0
    1.0974   18.1399    1.2582 H   0  0  0  0  0  0  0  0  0  0  0  0
    2.4653   17.8243    0.0868 H   0  0  0  0  0  0  0  0  0  0  0  0
    2.3891   20.5589    0.1398 H   0  0  0  0  0  0  0  0  0  0  0  0
    1.9529   20.1276    1.8459 H   0  0  0  0  0  0  0  0  0  0  0  0
    4.1872   19.8742    0.2418 H   0  0  0  0  0  0  0  0  0  0  0  0
    4.1711   19.8066    4.7132 H   0  0  0  0  0  0  0  0  0  0  0  0
    3.5383   21.1784    3.7413 H   0  0  0  0  0  0  0  0  0  0  0  0
    2.6741   19.6036    3.7413 H   0  0  0  0  0  0  0  0  0  0  0  0
    6.2458   19.8419    3.7908 H   0  0  0  0  0  0  0  0  0  0  0  0
    6.4718   18.9640    2.2400 H   0  0  0  0  0  0  0  0  0  0  0  0
    6.2635   20.7482    2.2400 H   0  0  0  0  0  0  0  0  0  0  0  0
   -0.4494   17.1825   -0.7522 H   0  0  0  0  0  0  0  0  0  0  0  0
   -1.1267   17.7547   -2.9990 H   0  0  0  0  0  0  0  0  0  0  0  0
    0.4216   18.5541   -3.3454 H   0  0  0  0  0  0  0  0  0  0  0  0
   -0.3612   15.9713   -4.2853 H   0  0  0  0  0  0  0  0  0  0  0  0
    1.2937   16.5746   -4.3192 H   0  0  0  0  0  0  0  0  0  0  0  0
   -0.6168   14.7432   -0.9825 H   0  0  0  0  0  0  0  0  0  0  0  0
   -1.3871   15.3816   -2.4745 H   0  0  0  0  0  0  0  0  0  0  0  0
   -0.6502   13.7434   -2.4745 H   0  0  0  0  0  0  0  0  0  0  0  0
    2.6718   14.8585   -3.3086 H   0  0  0  0  0  0  0  0  0  0  0  0
    0.7381   13.8470   -4.6793 H   0  0  0  0  0  0  0  0  0  0  0  0
    2.3308   12.9473   -4.4716 H   0  0  0  0  0  0  0  0  0  0  0  0
    0.1392   11.4976   -4.2825 H   0  0  0  0  0  0  0  0  0  0  0  0
    0.7359   12.8486   -0.5256 H   0  0  0  0  0  0  0  0  0  0  0  0
    2.9651   10.7636   -0.9512 H   0  0  0  0  0  0  0  0  0  0  0  0
    2.6737   11.7613    0.5420 H   0  0  0  0  0  0  0  0  0  0  0  0
    1.8600    9.4385    0.7945 H   0  0  0  0  0  0  0  0  0  0  0  0
    0.5366   10.6650    0.8944 H   0  0  0  0  0  0  0  0  0  0  0  0
   -0.2236    8.8168   -0.4341 H   0  0  0  0  0  0  0  0  0  0  0  0
    1.1340    7.8180   -1.7360 H   0  0  0  0  0  0  0  0  0  0  0  0
   -1.2878   10.9571    0.0362 H   0  0  0  0  0  0  0  0  0  0  0  0
   -1.5914   12.1024   -1.3139 H   0  0  0  0  0  0  0  0  0  0  0  0
   -2.3749   10.4859   -1.3139 H   0  0  0  0  0  0  0  0  0  0  0  0
   -1.4462    8.8036   -2.5955 H   0  0  0  0  0  0  0  0  0  0  0  0
   -1.4857   10.2861   -3.6090 H   0  0  0  0  0  0  0  0  0  0  0  0
   -0.0278    9.2367   -3.6090 H   0  0  0  0  0  0  0  0  0  0  0  0
    4.3957   12.6655   -1.1786 H   0  0  0  0  0  0  0  0  0  0  0  0
    3.6447   12.0072   -2.6716 H   0  0  0  0  0  0  0  0  0  0  0  0
    4.3417   13.6627   -2.6716 H   0  0  0  0  0  0  0  0  0  0  0  0
    2.7270   13.8353    0.4947 H   0  0  0  0  0  0  0  0  0  0  0  0
    3.6631   14.9457   -0.6564 H   0  0  0  0  0  0  0  0  0  0  0  0
    0.7617   15.1816    0.1880 H   0  0  0  0  0  0  0  0  0  0  0  0
    2.1380   16.2950    0.5538 H   0  0  0  0  0  0  0  0  0  0  0  0
    3.3844   17.2985   -1.0543 H   0  0  0  0  0  0  0  0  0  0  0  0
    3.3628   16.2922   -2.5420 H   0  0  0  0  0  0  0  0  0  0  0  0
    2.5864   17.9120   -2.5420 H   0  0  0  0  0  0  0  0  0  0  0  0
  1  2  1  0
  2  3  1  0
  3  4  1  0
  4  5  1  0
  5  6  1  0
  6  7  1  0
  7  8  1  0
  7  9  1  0
  2 10  1  0
 10 11  1  0
 11 12  1  0
 12 13  1  0
 13 14  1  1
 13 15  1  0
 15 16  1  0
 16 17  1  0
 17 18  2  0
 18 19  1  0
 19 20  1  0
 20 21  1  0
 21 22  1  0
 22 23  1  0
 22 24  1  0
 24 25  1  0
 24 26  1  0
 19 27  1  0
 27 28  1  6
 27 29  1  0
 29 30  1  0
 30 31  1  0
 31 32  1  6
  7  5  1  0
 31 10  1  0
 31 13  1  0
 27 15  1  0
 24 18  1  0
  1 33  1  0
  1 34  1  0
  1 35  1  0
  2 36  1  1
  3 37  1  0
  3 38  1  0
  4 39  1  0
  4 40  1  0
  5 41  1  6
  8 42  1  0
  8 43  1  0
  8 44  1  0
  9 45  1  0
  9 46  1  0
  9 47  1  0
 10 48  1  1
 11 49  1  0
 11 50  1  0
 12 51  1  0
 12 52  1  0
 14 53  1  0
 14 54  1  0
 14 55  1  0
 15 56  1  6
 16 57  1  0
 16 58  1  0
 17 59  1  0
 19 60  1  1
 20 61  1  0
 20 62  1  0
 21 63  1  0
 21 64  1  0
 22 65  1  1
 23 66  1  0
 25 67  1  0
 25 68  1  0
 25 69  1  0
 26 70  1  0
 26 71  1  0
 26 72  1  0
 28 73  1  0
 28 74  1  0
 28 75  1  0
 29 76  1  0
 29 77  1  0
 30 78  1  0
 30 79  1  0
 32 80  1  0
 32 81  1  0
 32 82  1  0
M  END
>  <meeko>  (3) 
{"is_sidechain": [false], "intermolecular_energy": 2.731, "internal_energy": -0.839}

$$$$
EPH_relaxed_0001_pdb2pqr_Repair_75_r2_0001_out
     RDKit          3D

 82 86  0  0  0  0  0  0  0  0999 V2000
    0.4220    8.7920   -2.3770 C   0  0  0  0  0  0  0  0  0  0  0  0
    1.1650    9.9380   -3.0700 C   0  0  2  0  0  0  0  0  0  0  0  0
    2.6660    9.9520   -2.7190 C   0  0  0  0  0  0  0  0  0  0  0  0
    3.5450   10.5880   -3.8000 C   0  0  0  0  0  0  0  0  0  0  0  0
    4.9500   10.7950   -3.3210 C   0  0  2  0  0  0  0  0  0  0  0  0
    5.5690   12.0010   -3.7860 O   0  0  0  0  0  0  0  0  0  0  0  0
    6.1590   10.7710   -4.2380 C   0  0  0  0  0  0  0  0  0  0  0  0
    6.0170   10.5340   -5.7090 C   0  0  0  0  0  0  0  0  0  0  0  0
    7.5030   10.4920   -3.6430 C   0  0  0  0  0  0  0  0  0  0  0  0
    0.5290   11.2710   -2.6960 C   0  0  1  0  0  0  0  0  0  0  0  0
   -0.8460   11.1020   -1.9960 C   0  0  0  0  0  0  0  0  0  0  0  0
   -0.9560   12.2380   -0.9470 C   0  0  0  0  0  0  0  0  0  0  0  0
    0.1940   13.2100   -1.3010 C   0  0  1  0  0  0  0  0  0  0  0  0
   -0.3580   14.0730   -2.4790 C   0  0  0  0  0  0  0  0  0  0  0  0
    0.7300   14.1010   -0.1340 C   0  0  2  0  0  0  0  0  0  0  0  0
   -0.2970   15.0770    0.4660 C   0  0  0  0  0  0  0  0  0  0  0  0
   -0.3410   16.4270   -0.1700 C   0  0  0  0  0  0  0  0  0  0  0  0
    0.5990   16.9380   -0.9870 C   0  0  0  0  0  0  0  0  0  0  0  0
    1.8980   16.1720   -1.2680 C   0  0  1  0  0  0  0  0  0  0  0  0
    3.1070   17.1360   -1.1390 C   0  0  0  0  0  0  0  0  0  0  0  0
    2.9600   18.3780   -2.0130 C   0  0  0  0  0  0  0  0  0  0  0  0
    1.6870   19.1440   -1.6630 C   0  0  2  0  0  0  0  0  0  0  0  0
    1.8180   19.6780   -0.3420 O   0  0  0  0  0  0  0  0  0  0  0  0
    0.4040   18.2710   -1.7500 C   0  0  0  0  0  0  0  0  0  0  0  0
    0.0960   17.9430   -3.2320 C   0  0  0  0  0  0  0  0  0  0  0  0
   -0.7880   19.1230   -1.2380 C   0  0  0  0  0  0  0  0  0  0  0  0
    2.1010   14.8260   -0.4480 C   0  0  1  0  0  0  0  0  0  0  0  0
    2.7660   15.1360    0.9280 C   0  0  0  0  0  0  0  0  0  0  0  0
    3.1050   13.8950   -1.2260 C   0  0  0  0  0  0  0  0  0  0  0  0
    2.5000   12.9520   -2.2840 C   0  0  0  0  0  0  0  0  0  0  0  0
    1.3080   12.1790   -1.7110 C   0  0  2  0  0  0  0  0  0  0  0  0
    1.8370   11.2840   -0.5380 C   0  0  0  0  0  0  0  0  0  0  0  0
    0.4994    8.9114   -1.2862 H   0  0  0  0  0  0  0  0  0  0  0  0
   -0.6371    8.8094   -2.6735 H   0  0  0  0  0  0  0  0  0  0  0  0
    0.8701    7.8322   -2.6735 H   0  0  0  0  0  0  0  0  0  0  0  0
    1.0816    9.7789   -4.1552 H   0  0  0  0  0  0  0  0  0  0  0  0
    2.7991   10.5184   -1.7855 H   0  0  0  0  0  0  0  0  0  0  0  0
    2.9834    8.9032   -2.6224 H   0  0  0  0  0  0  0  0  0  0  0  0
    3.5619    9.9279   -4.6797 H   0  0  0  0  0  0  0  0  0  0  0  0
    3.1205   11.5708   -4.0528 H   0  0  0  0  0  0  0  0  0  0  0  0
    4.7298   10.2750   -2.3770 H   0  0  0  0  0  0  0  0  0  0  0  0
    5.4583    9.6016   -5.8779 H   0  0  0  0  0  0  0  0  0  0  0  0
    5.4737   11.3747   -6.1651 H   0  0  0  0  0  0  0  0  0  0  0  0
    7.0146   10.4515   -6.1651 H   0  0  0  0  0  0  0  0  0  0  0  0
    7.4285   10.5075   -2.5456 H   0  0  0  0  0  0  0  0  0  0  0  0
    7.8518    9.5023   -3.9729 H   0  0  0  0  0  0  0  0  0  0  0  0
    8.2169   11.2611   -3.9729 H   0  0  0  0  0  0  0  0  0  0  0  0
    0.4885   11.7410   -3.6897 H   0  0  0  0  0  0  0  0  0  0  0  0
   -1.6589   11.1862   -2.7323 H   0  0  0  0  0  0  0  0  0  0  0  0
   -0.9277   10.1143   -1.5188 H   0  0  0  0  0  0  0  0  0  0  0  0
   -1.9296   12.7442   -1.0237 H   0  0  0  0  0  0  0  0  0  0  0  0
   -0.8813   11.8619    0.0840 H   0  0  0  0  0  0  0  0  0  0  0  0
   -0.9093   14.9349   -2.0751 H   0  0  0  0  0  0  0  0  0  0  0  0
    0.4798   14.4300   -3.0960 H   0  0  0  0  0  0  0  0  0  0  0  0
   -1.0334   13.4621   -3.0960 H   0  0  0  0  0  0  0  0  0  0  0  0
    0.9342   13.3602    0.6531 H   0  0  0  0  0  0  0  0  0  0  0  0
   -1.2942   14.6230    0.3692 H   0  0  0  0  0  0  0  0  0  0  0  0
    0.0127   15.2417    1.5086 H   0  0  0  0  0  0  0  0  0  0  0  0
   -1.2157   17.0576    0.0474 H   0  0  0  0  0  0  0  0  0  0  0  0
    1.8184   15.8098   -2.3036 H   0  0  0  0  0  0  0  0  0  0  0  0
    3.1957   17.4520   -0.0891 H   0  0  0  0  0  0  0  0  0  0  0  0
    4.0034   16.5947   -1.4757 H   0  0  0  0  0  0  0  0  0  0  0  0
    3.8292   19.0336   -1.8560 H   0  0  0  0  0  0  0  0  0  0  0  0
    2.9015   18.0620   -3.0650 H   0  0  0  0  0  0  0  0  0  0  0  0
    1.5705   19.9473   -2.4054 H   0  0  0  0  0  0  0  0  0  0  0  0
    1.2050   19.1900    0.2340 H   0  0  0  0  0  0  0  0  0  0  0  0
   -0.6562   17.1419   -3.2816 H   0  0  0  0  0  0  0  0  0  0  0  0
   -0.2920   18.8419   -3.7335 H   0  0  0  0  0  0  0  0  0  0  0  0
    1.0175   17.6122   -3.7335 H   0  0  0  0  0  0  0  0  0  0  0  0
   -0.7913   19.1253   -0.1380 H   0  0  0  0  0  0  0  0  0  0  0  0
   -0.6865   20.1544   -1.6066 H   0  0  0  0  0  0  0  0  0  0  0  0
   -1.7310   18.6931   -1.6066 H   0  0  0  0  0  0  0  0  0  0  0  0
    2.0929   14.8222    1.7395 H   0  0  0  0  0  0  0  0  0  0  0  0
    3.7166   14.5882    1.0076 H   0  0  0  0  0  0  0  0  0  0  0  0
    2.9576   16.2163    1.0076 H   0  0  0  0  0  0  0  0  0  0  0  0
    3.8334   14.5431   -1.7354 H   0  0  0  0  0  0  0  0  0  0  0  0
    3.5345   13.2316   -0.4608 H   0  0  0  0  0  0  0  0  0  0  0  0
    2.1627   13.5469   -3.1456 H   0  0  0  0  0  0  0  0  0  0  0  0
    3.2707   12.2304   -2.5928 H   0  0  0  0  0  0  0  0  0  0  0  0
    1.5658   11.7428    0.4243 H   0  0  0  0  0  0  0  0  0  0  0  0
    1.3850   10.2836   -0.6075 H   0  0  0  0  0  0  0  0  0  0  0  0
    2.9314   11.1976   -0.6075 H   0  0  0  0  0  0  0  0  0  0  0  0
  1  2  1  0
  2  3  1  0
  3  4  1  0
  4  5  1  0
  5  6  1  0
  6  7  1  0
  7  8  1  0
  7  9  1  0
  2 10  1  0
 10 11  1  0
 11 12  1  0
 12 13  1  0
 13 14  1  6
 13 15  1  0
 15 16  1  0
 16 17  1  0
 17 18  2  0
 18 19  1  0
 19 20  1  0
 20 21  1  0
 21 22  1  0
 22 23  1  0
 22 24  1  0
 24 25  1  0
 24 26  1  0
 19 27  1  0
 27 28  1  1
 27 29  1  0
 29 30  1  0
 30 31  1  0
 31 32  1  1
  7  5  1  0
 31 10  1  0
 31 13  1  0
 27 15  1  0
 24 18  1  0
  1 33  1  0
  1 34  1  0
  1 35  1  0
  2 36  1  6
  3 37  1  0
  3 38  1  0
  4 39  1  0
  4 40  1  0
  5 41  1  1
  8 42  1  0
  8 43  1  0
  8 44  1  0
  9 45  1  0
  9 46  1  0
  9 47  1  0
 10 48  1  6
 11 49  1  0
 11 50  1  0
 12 51  1  0
 12 52  1  0
 14 53  1  0
 14 54  1  0
 14 55  1  0
 15 56  1  1
 16 57  1  0
 16 58  1  0
 17 59  1  0
 19 60  1  6
 20 61  1  0
 20 62  1  0
 21 63  1  0
 21 64  1  0
 22 65  1  6
 23 66  1  0
 25 67  1  0
 25 68  1  0
 25 69  1  0
 26 70  1  0
 26 71  1  0
 26 72  1  0
 28 73  1  0
 28 74  1  0
 28 75  1  0
 29 76  1  0
 29 77  1  0
 30 78  1  0
 30 79  1  0
 32 80  1  0
 32 81  1  0
 32 82  1  0
M  END
>  <meeko>  (4) 
{"is_sidechain": [false], "intermolecular_energy": 2.731, "internal_energy": -0.839}

$$$$
EPH_relaxed_0001_pdb2pqr_Repair_75_r2_0001_out
     RDKit          3D

 82 86  0  0  0  0  0  0  0  0999 V2000
    2.6730   19.3480   -0.5560 C   0  0  0  0  0  0  0  0  0  0  0  0
    2.7430   18.4490   -1.7940 C   0  0  2  0  0  0  0  0  0  0  0  0
    1.4750   18.5590   -2.6640 C   0  0  0  0  0  0  0  0  0  0  0  0
    0.5400   19.6980   -2.2480 C   0  0  0  0  0  0  0  0  0  0  0  0
   -0.7520   19.1810   -1.6920 C   0  0  2  0  0  0  0  0  0  0  0  0
   -1.7060   20.1940   -1.3510 O   0  0  0  0  0  0  0  0  0  0  0  0
   -1.1980   19.4100   -0.2600 C   0  0  0  0  0  0  0  0  0  0  0  0
   -0.3560   20.1840    0.7050 C   0  0  0  0  0  0  0  0  0  0  0  0
   -2.2070   18.4770    0.3330 C   0  0  0  0  0  0  0  0  0  0  0  0
    2.9620   17.0010   -1.3740 C   0  0  1  0  0  0  0  0  0  0  0  0
    3.7080   16.8790   -0.0180 C   0  0  0  0  0  0  0  0  0  0  0  0
    3.1280   15.6340    0.7010 C   0  0  0  0  0  0  0  0  0  0  0  0
    2.3160   14.8970   -0.3890 C   0  0  1  0  0  0  0  0  0  0  0  0
    3.3760   14.0890   -1.2010 C   0  0  0  0  0  0  0  0  0  0  0  0
    1.1540   13.9800    0.1160 C   0  0  2  0  0  0  0  0  0  0  0  0
    1.5920   12.7980    0.9980 C   0  0  0  0  0  0  0  0  0  0  0  0
    1.8950   11.5330    0.2650 C   0  0  0  0  0  0  0  0  0  0  0  0
    1.5500   11.2650   -1.0080 C   0  0  0  0  0  0  0  0  0  0  0  0
    0.6940   12.2490   -1.8160 C   0  0  1  0  0  0  0  0  0  0  0  0
   -0.4390   11.4750   -2.5420 C   0  0  0  0  0  0  0  0  0  0  0  0
    0.0910   10.3260   -3.3940 C   0  0  0  0  0  0  0  0  0  0  0  0
    0.8870    9.3390   -2.5450 C   0  0  2  0  0  0  0  0  0  0  0  0
   -0.0040    8.6940   -1.6300 O   0  0  0  0  0  0  0  0  0  0  0  0
    2.0510   10.0060   -1.7590 C   0  0  0  0  0  0  0  0  0  0  0  0
    3.1640   10.4390   -2.7450 C   0  0  0  0  0  0  0  0  0  0  0  0
    2.6820    8.9290   -0.8360 C   0  0  0  0  0  0  0  0  0  0  0  0
    0.1560   13.5150   -1.0200 C   0  0  1  0  0  0  0  0  0  0  0  0
   -1.1910   13.1660   -0.3140 C   0  0  0  0  0  0  0  0  0  0  0  0
   -0.1650   14.6670   -2.0440 C   0  0  0  0  0  0  0  0  0  0  0  0
    0.9940   15.6130   -2.4110 C   0  0  0  0  0  0  0  0  0  0  0  0
    1.7030   16.1260   -1.1540 C   0  0  2  0  0  0  0  0  0  0  0  0
    0.6660   16.9610   -0.3280 C   0  0  0  0  0  0  0  0  0  0  0  0
    2.7213   18.7275    0.3510 H   0  0  0  0  0  0  0  0  0  0  0  0
    3.5191   20.0508   -0.5649 H   0  0  0  0  0  0  0  0  0  0  0  0
    1.7283   19.9114   -0.5649 H   0  0  0  0  0  0  0  0  0  0  0  0
    3.5924   18.7915   -2.4033 H   0  0  0  0  0  0  0  0  0  0  0  0
    1.7827   18.7256   -3.7068 H   0  0  0  0  0  0  0  0  0  0  0  0
    0.9152   17.6207   -2.5364 H   0  0  0  0  0  0  0  0  0  0  0  0
    1.0399   20.3069   -1.4803 H   0  0  0  0  0  0  0  0  0  0  0  0
    0.3126   20.2979   -3.1415 H   0  0  0  0  0  0  0  0  0  0  0  0
   -0.6781   18.2709   -2.3054 H   0  0  0  0  0  0  0  0  0  0  0  0
   -0.6421   19.9210    1.7341 H   0  0  0  0  0  0  0  0  0  0  0  0
    0.7043   19.9387    0.5451 H   0  0  0  0  0  0  0  0  0  0  0  0
   -0.5113   21.2612    0.5451 H   0  0  0  0  0  0  0  0  0  0  0  0
   -2.1525   18.5274    1.4305 H   0  0  0  0  0  0  0  0  0  0  0  0
   -3.2148   18.7684    0.0022 H   0  0  0  0  0  0  0  0  0  0  0  0
   -1.9953   17.4495    0.0022 H   0  0  0  0  0  0  0  0  0  0  0  0
    3.5240   16.6386   -2.2474 H   0  0  0  0  0  0  0  0  0  0  0  0
    4.7868   16.7491   -0.1895 H   0  0  0  0  0  0  0  0  0  0  0  0
    3.5724   17.7854    0.5904 H   0  0  0  0  0  0  0  0  0  0  0  0
    3.9371   14.9936    1.0821 H   0  0  0  0  0  0  0  0  0  0  0  0
    2.5103   15.9043    1.5701 H   0  0  0  0  0  0  0  0  0  0  0  0
    4.0541   13.5721   -0.5061 H   0  0  0  0  0  0  0  0  0  0  0  0
    2.8660   13.3484   -1.8346 H   0  0  0  0  0  0  0  0  0  0  0  0
    3.9550   14.7770   -1.8346 H   0  0  0  0  0  0  0  0  0  0  0  0
    0.5917   14.6543    0.7787 H   0  0  0  0  0  0  0  0  0  0  0  0
    2.4977   13.0993    1.5448 H   0  0  0  0  0  0  0  0  0  0  0  0
    0.7367   12.5732    1.6521 H   0  0  0  0  0  0  0  0  0  0  0  0
    2.4469   10.7542    0.8117 H   0  0  0  0  0  0  0  0  0  0  0  0
    1.3690   12.7031   -2.5564 H   0  0  0  0  0  0  0  0  0  0  0  0
   -1.1267   11.0662   -1.7871 H   0  0  0  0  0  0  0  0  0  0  0  0
   -0.9489   12.1813   -3.2136 H   0  0  0  0  0  0  0  0  0  0  0  0
   -0.7571    9.8003   -3.8569 H   0  0  0  0  0  0  0  0  0  0  0  0
    0.7555   10.7397   -4.1668 H   0  0  0  0  0  0  0  0  0  0  0  0
    1.3475    8.6118   -3.2299 H   0  0  0  0  0  0  0  0  0  0  0  0
   -0.9060    8.7960   -1.9770 H   0  0  0  0  0  0  0  0  0  0  0  0
    4.0429   10.7809   -2.1787 H   0  0  0  0  0  0  0  0  0  0  0  0
    3.4455    9.5848   -3.3783 H   0  0  0  0  0  0  0  0  0  0  0  0
    2.7942   11.2589   -3.3783 H   0  0  0  0  0  0  0  0  0  0  0  0
    2.5193    9.2066    0.2159 H   0  0  0  0  0  0  0  0  0  0  0  0
    2.2120    7.9546   -1.0349 H   0  0  0  0  0  0  0  0  0  0  0  0
    3.7618    8.8626   -1.0349 H   0  0  0  0  0  0  0  0  0  0  0  0
   -1.0533   13.2017    0.7768 H   0  0  0  0  0  0  0  0  0  0  0  0
   -1.9599   13.8946   -0.6105 H   0  0  0  0  0  0  0  0  0  0  0  0
   -1.5094   12.1557   -0.6105 H   0  0  0  0  0  0  0  0  0  0  0  0
   -0.5180   14.1970   -2.9737 H   0  0  0  0  0  0  0  0  0  0  0  0
   -0.9066   15.3030   -1.5385 H   0  0  0  0  0  0  0  0  0  0  0  0
    1.7180   15.0694   -3.0358 H   0  0  0  0  0  0  0  0  0  0  0  0
    0.5833   16.4745   -2.9579 H   0  0  0  0  0  0  0  0  0  0  0  0
    0.8492   16.8135    0.7466 H   0  0  0  0  0  0  0  0  0  0  0  0
    0.7737   18.0274   -0.5753 H   0  0  0  0  0  0  0  0  0  0  0  0
   -0.3529   16.6283   -0.5753 H   0  0  0  0  0  0  0  0  0  0  0  0
  1  2  1  0
  2  3  1  0
  3  4  1  0
  4  5  1  0
  5  6  1  0
  6  7  1  0
  7  8  1  0
  7  9  1  0
  2 10  1  0
 10 11  1  0
 11 12  1  0
 12 13  1  0
 13 14  1  6
 13 15  1  0
 15 16  1  0
 16 17  1  0
 17 18  2  0
 18 19  1  0
 19 20  1  0
 20 21  1  0
 21 22  1  0
 22 23  1  0
 22 24  1  0
 24 25  1  0
 24 26  1  0
 19 27  1  0
 27 28  1  1
 27 29  1  0
 29 30  1  0
 30 31  1  0
 31 32  1  1
  7  5  1  0
 31 10  1  0
 31 13  1  0
 27 15  1  0
 24 18  1  0
  1 33  1  0
  1 34  1  0
  1 35  1  0
  2 36  1  6
  3 37  1  0
  3 38  1  0
  4 39  1  0
  4 40  1  0
  5 41  1  6
  8 42  1  0
  8 43  1  0
  8 44  1  0
  9 45  1  0
  9 46  1  0
  9 47  1  0
 10 48  1  6
 11 49  1  0
 11 50  1  0
 12 51  1  0
 12 52  1  0
 14 53  1  0
 14 54  1  0
 14 55  1  0
 15 56  1  1
 16 57  1  0
 16 58  1  0
 17 59  1  0
 19 60  1  6
 20 61  1  0
 20 62  1  0
 21 63  1  0
 21 64  1  0
 22 65  1  6
 23 66  1  0
 25 67  1  0
 25 68  1  0
 25 69  1  0
 26 70  1  0
 26 71  1  0
 26 72  1  0
 28 73  1  0
 28 74  1  0
 28 75  1  0
 29 76  1  0
 29 77  1  0
 30 78  1  0
 30 79  1  0
 32 80  1  0
 32 81  1  0
 32 82  1  0
M  END
>  <meeko>  (5) 
{"is_sidechain": [false], "intermolecular_energy": 2.731, "internal_energy": -0.839}

$$$$
EPH_relaxed_0001_pdb2pqr_Repair_75_r2_0001_out
     RDKit          3D

 82 86  0  0  0  0  0  0  0  0999 V2000
    2.1180   19.3190   -2.1950 C   0  0  0  0  0  0  0  0  0  0  0  0
    1.6230   19.2140   -0.7500 C   0  0  2  0  0  0  0  0  0  0  0  0
    2.6590   19.7480    0.2600 C   0  0  0  0  0  0  0  0  0  0  0  0
    3.5200   18.6530    0.8950 C   0  0  0  0  0  0  0  0  0  0  0  0
    3.7320   18.8940    2.3590 C   0  0  2  0  0  0  0  0  0  0  0  0
    4.2440   20.1940    2.6840 O   0  0  0  0  0  0  0  0  0  0  0  0
    5.1010   19.0810    2.9860 C   0  0  0  0  0  0  0  0  0  0  0  0
    6.3500   19.0330    2.1630 C   0  0  0  0  0  0  0  0  0  0  0  0
    5.2580   18.8220    4.4530 C   0  0  0  0  0  0  0  0  0  0  0  0
    1.2760   17.7660   -0.4230 C   0  0  1  0  0  0  0  0  0  0  0  0
    0.0020   17.6400    0.4540 C   0  0  0  0  0  0  0  0  0  0  0  0
   -0.7250   16.3460    0.0040 C   0  0  0  0  0  0  0  0  0  0  0  0
    0.3100   15.6020   -0.8720 C   0  0  1  0  0  0  0  0  0  0  0  0
    1.2460   14.8740    0.1430 C   0  0  0  0  0  0  0  0  0  0  0  0
   -0.2690   14.6130   -1.9360 C   0  0  2  0  0  0  0  0  0  0  0  0
   -1.0640   13.4280   -1.3600 C   0  0  0  0  0  0  0  0  0  0  0  0
   -0.2610   12.2030   -1.0690 C   0  0  0  0  0  0  0  0  0  0  0  0
    0.9820   11.9570   -1.5220 C   0  0  0  0  0  0  0  0  0  0  0  0
    1.6710   12.9210   -2.4970 C   0  0  1  0  0  0  0  0  0  0  0  0
    2.3130   12.1140   -3.6560 C   0  0  0  0  0  0  0  0  0  0  0  0
    3.2520   11.0200   -3.1570 C   0  0  0  0  0  0  0  0  0  0  0  0
    2.5160   10.0490   -2.2370 C   0  0  2  0  0  0  0  0  0  0  0  0
    1.5450    9.3320   -3.0050 O   0  0  0  0  0  0  0  0  0  0  0  0
    1.8200   10.7490   -1.0370 C   0  0  0  0  0  0  0  0  0  0  0  0
    2.8910   11.2670   -0.0440 C   0  0  0  0  0  0  0  0  0  0  0  0
    0.9990    9.6780   -0.2700 C   0  0  0  0  0  0  0  0  0  0  0  0
    0.7830   14.1340   -3.0160 C   0  0  1  0  0  0  0  0  0  0  0  0
   -0.0330   13.6970   -4.2700 C   0  0  0  0  0  0  0  0  0  0  0  0
    1.7310   15.2990   -3.4870 C   0  0  0  0  0  0  0  0  0  0  0  0
    2.1720   16.3130   -2.4140 C   0  0  0  0  0  0  0  0  0  0  0  0
    0.9700   16.8220   -1.6130 C   0  0  2  0  0  0  0  0  0  0  0  0
    0.0210   17.5790   -2.6040 C   0  0  0  0  0  0  0  0  0  0  0  0
    3.1941   19.5473   -2.1983 H   0  0  0  0  0  0  0  0  0  0  0  0
    1.9442   18.3640   -2.7124 H   0  0  0  0  0  0  0  0  0  0  0  0
    1.5714   20.1212   -2.7124 H   0  0  0  0  0  0  0  0  0  0  0  0
    0.7235   19.8411   -0.6628 H   0  0  0  0  0  0  0  0  0  0  0  0
    3.3228   20.4523   -0.2629 H   0  0  0  0  0  0  0  0  0  0  0  0
    2.0964   20.2276    1.0745 H   0  0  0  0  0  0  0  0  0  0  0  0
    3.0183   17.6831    0.7623 H   0  0  0  0  0  0  0  0  0  0  0  0
    4.5026   18.6593    0.4005 H   0  0  0  0  0  0  0  0  0  0  0  0
    2.8871   18.2373    2.6138 H   0  0  0  0  0  0  0  0  0  0  0  0
    7.2259   18.9993    2.8275 H   0  0  0  0  0  0  0  0  0  0  0  0
    6.3366   18.1347    1.5283 H   0  0  0  0  0  0  0  0  0  0  0  0
    6.4056   19.9297    1.5283 H   0  0  0  0  0  0  0  0  0  0  0  0
    4.7699   19.6272    5.0218 H   0  0  0  0  0  0  0  0  0  0  0  0
    4.7916   17.8587    4.7073 H   0  0  0  0  0  0  0  0  0  0  0  0
    6.3277   18.7899    4.7073 H   0  0  0  0  0  0  0  0  0  0  0  0
    2.2103   17.4595    0.0701 H   0  0  0  0  0  0  0  0  0  0  0  0
    0.2789   17.5690    1.5162 H   0  0  0  0  0  0  0  0  0  0  0  0
   -0.6477   18.5196    0.3353 H   0  0  0  0  0  0  0  0  0  0  0  0
   -1.0068   15.7360    0.8749 H   0  0  0  0  0  0  0  0  0  0  0  0
   -1.6567   16.5587   -0.5407 H   0  0  0  0  0  0  0  0  0  0  0  0
    0.9335   15.1170    1.1693 H   0  0  0  0  0  0  0  0  0  0  0  0
    1.1806   13.7870   -0.0125 H   0  0  0  0  0  0  0  0  0  0  0  0
    2.2835   15.2049   -0.0125 H   0  0  0  0  0  0  0  0  0  0  0  0
   -1.0047   15.2377   -2.4637 H   0  0  0  0  0  0  0  0  0  0  0  0
   -1.5335   13.7577   -0.4214 H   0  0  0  0  0  0  0  0  0  0  0  0
   -1.7876   13.1403   -2.1369 H   0  0  0  0  0  0  0  0  0  0  0  0
   -0.7249   11.4369   -0.4303 H   0  0  0  0  0  0  0  0  0  0  0  0
    2.4553   13.4307   -1.9182 H   0  0  0  0  0  0  0  0  0  0  0  0
    1.5113   11.6478   -4.2475 H   0  0  0  0  0  0  0  0  0  0  0  0
    2.9077   12.8141   -4.2611 H   0  0  0  0  0  0  0  0  0  0  0  0
    3.6510   10.4665   -4.0198 H   0  0  0  0  0  0  0  0  0  0  0  0
    4.0697   11.4897   -2.5907 H   0  0  0  0  0  0  0  0  0  0  0  0
    3.2664    9.3676   -1.8096 H   0  0  0  0  0  0  0  0  0  0  0  0
    0.6990    9.8040   -2.9240 H   0  0  0  0  0  0  0  0  0  0  0  0
    2.5462   11.1002    0.9871 H   0  0  0  0  0  0  0  0  0  0  0  0
    3.8346   10.7257   -0.2071 H   0  0  0  0  0  0  0  0  0  0  0  0
    3.0525   12.3428   -0.2071 H   0  0  0  0  0  0  0  0  0  0  0  0
    1.1168    9.8317    0.8128 H   0  0  0  0  0  0  0  0  0  0  0  0
   -0.0636    9.7681   -0.5396 H   0  0  0  0  0  0  0  0  0  0  0  0
    1.3620    8.6752   -0.5396 H   0  0  0  0  0  0  0  0  0  0  0  0
   -0.9605   13.2003   -3.9491 H   0  0  0  0  0  0  0  0  0  0  0  0
   -0.2812   14.5829   -4.8730 H   0  0  0  0  0  0  0  0  0  0  0  0
    0.5668   12.9994   -4.8730 H   0  0  0  0  0  0  0  0  0  0  0  0
    2.6394   14.8405   -3.9048 H   0  0  0  0  0  0  0  0  0  0  0  0
    1.1359   15.8813   -4.2059 H   0  0  0  0  0  0  0  0  0  0  0  0
    2.8809   15.8258   -1.7284 H   0  0  0  0  0  0  0  0  0  0  0  0
    2.6472   17.1692   -2.9151 H   0  0  0  0  0  0  0  0  0  0  0  0
   -0.7138   18.1651   -2.0325 H   0  0  0  0  0  0  0  0  0  0  0  0
    0.6154   18.2538   -3.2376 H   0  0  0  0  0  0  0  0  0  0  0  0
   -0.5048   16.8495   -3.2376 H   0  0  0  0  0  0  0  0  0  0  0  0
  1  2  1  0
  2  3  1  0
  3  4  1  0
  4  5  1  0
  5  6  1  0
  6  7  1  0
  7  8  1  0
  7  9  1  0
  2 10  1  0
 10 11  1  0
 11 12  1  0
 12 13  1  0
 13 14  1  1
 13 15  1  0
 15 16  1  0
 16 17  1  0
 17 18  2  0
 18 19  1  0
 19 20  1  0
 20 21  1  0
 21 22  1  0
 22 23  1  0
 22 24  1  0
 24 25  1  0
 24 26  1  0
 19 27  1  0
 27 28  1  6
 27 29  1  0
 29 30  1  0
 30 31  1  0
 31 32  1  6
  7  5  1  0
 31 10  1  0
 31 13  1  0
 27 15  1  0
 24 18  1  0
  1 33  1  0
  1 34  1  0
  1 35  1  0
  2 36  1  6
  3 37  1  0
  3 38  1  0
  4 39  1  0
  4 40  1  0
  5 41  1  1
  8 42  1  0
  8 43  1  0
  8 44  1  0
  9 45  1  0
  9 46  1  0
  9 47  1  0
 10 48  1  1
 11 49  1  0
 11 50  1  0
 12 51  1  0
 12 52  1  0
 14 53  1  0
 14 54  1  0
 14 55  1  0
 15 56  1  6
 16 57  1  0
 16 58  1  0
 17 59  1  0
 19 60  1  1
 20 61  1  0
 20 62  1  0
 21 63  1  0
 21 64  1  0
 22 65  1  1
 23 66  1  0
 25 67  1  0
 25 68  1  0
 25 69  1  0
 26 70  1  0
 26 71  1  0
 26 72  1  0
 28 73  1  0
 28 74  1  0
 28 75  1  0
 29 76  1  0
 29 77  1  0
 30 78  1  0
 30 79  1  0
 32 80  1  0
 32 81  1  0
 32 82  1  0
M  END
>  <meeko>  (6) 
{"is_sidechain": [false], "intermolecular_energy": 2.731, "internal_energy": -0.839}

$$$$
EPH_relaxed_0001_pdb2pqr_Repair_75_r2_0001_out
     RDKit          3D

 82 86  0  0  0  0  0  0  0  0999 V2000
    1.8870   18.5420   -2.6750 C   0  0  0  0  0  0  0  0  0  0  0  0
    0.8310   17.9480   -1.7390 C   0  0  2  0  0  0  0  0  0  0  0  0
    1.3450   17.8180   -0.2910 C   0  0  0  0  0  0  0  0  0  0  0  0
    1.0710   19.0520    0.5720 C   0  0  0  0  0  0  0  0  0  0  0  0
   -0.1610   19.7790    0.1250 C   0  0  2  0  0  0  0  0  0  0  0  0
   -1.0320   20.1900    1.1870 O   0  0  0  0  0  0  0  0  0  0  0  0
   -1.5630   19.2180    0.2720 C   0  0  0  0  0  0  0  0  0  0  0  0
   -1.8050   17.8740    0.8850 C   0  0  0  0  0  0  0  0  0  0  0  0
   -2.6440   19.7520   -0.6140 C   0  0  0  0  0  0  0  0  0  0  0  0
    0.3840   16.5860   -2.2580 C   0  0  1  0  0  0  0  0  0  0  0  0
    0.1340   16.5820   -3.7890 C   0  0  0  0  0  0  0  0  0  0  0  0
    0.5640   15.1870   -4.3100 C   0  0  0  0  0  0  0  0  0  0  0  0
    0.7320   14.3290   -3.0340 C   0  0  1  0  0  0  0  0  0  0  0  0
   -0.7150   13.8810   -2.6590 C   0  0  0  0  0  0  0  0  0  0  0  0
    1.7030   13.1090   -3.1450 C   0  0  2  0  0  0  0  0  0  0  0  0
    1.2860   12.0330   -4.1620 C   0  0  0  0  0  0  0  0  0  0  0  0
    0.4260   10.9410   -3.6190 C   0  0  0  0  0  0  0  0  0  0  0  0
    0.2380   10.6690   -2.3140 C   0  0  0  0  0  0  0  0  0  0  0  0
    1.0040   11.4390   -1.2310 C   0  0  1  0  0  0  0  0  0  0  0  0
    1.5750   10.4400   -0.1900 C   0  0  0  0  0  0  0  0  0  0  0  0
    0.5010    9.5260    0.3930 C   0  0  0  0  0  0  0  0  0  0  0  0
   -0.1980    8.7340   -0.7090 C   0  0  2  0  0  0  0  0  0  0  0  0
    0.7400    7.8220   -1.2880 O   0  0  0  0  0  0  0  0  0  0  0  0
   -0.8050    9.6360   -1.8210 C   0  0  0  0  0  0  0  0  0  0  0  0
   -2.0240   10.4060   -1.2580 C   0  0  0  0  0  0  0  0  0  0  0  0
   -1.3550    8.7100   -2.9390 C   0  0  0  0  0  0  0  0  0  0  0  0
    2.0980   12.4670   -1.7530 C   0  0  1  0  0  0  0  0  0  0  0  0
    3.4570   11.7330   -1.9710 C   0  0  0  0  0  0  0  0  0  0  0  0
    2.3540   13.5540   -0.6440 C   0  0  0  0  0  0  0  0  0  0  0  0
    1.4380   14.7930   -0.6600 C   0  0  0  0  0  0  0  0  0  0  0  0
    1.3590   15.3970   -2.0660 C   0  0  2  0  0  0  0  0  0  0  0  0
    2.7970   15.8770   -2.4620 C   0  0  0  0  0  0  0  0  0  0  0  0
    2.6925   18.9951   -2.0784 H   0  0  0  0  0  0  0  0  0  0  0  0
    2.3039   17.7460   -3.3095 H   0  0  0  0  0  0  0  0  0  0  0  0
    1.4233   19.3116   -3.3095 H   0  0  0  0  0  0  0  0  0  0  0  0
   -0.0245   18.6393   -1.7241 H   0  0  0  0  0  0  0  0  0  0  0  0
    0.8533   16.9517    0.1756 H   0  0  0  0  0  0  0  0  0  0  0  0
    2.4373   17.7007   -0.3468 H   0  0  0  0  0  0  0  0  0  0  0  0
    0.9379   18.7340    1.6166 H   0  0  0  0  0  0  0  0  0  0  0  0
    1.9270   19.7358    0.4739 H   0  0  0  0  0  0  0  0  0  0  0  0
    0.3755   20.2086   -0.7339 H   0  0  0  0  0  0  0  0  0  0  0  0
   -1.7890   17.9628    1.9813 H   0  0  0  0  0  0  0  0  0  0  0  0
   -2.7858   17.4949    0.5621 H   0  0  0  0  0  0  0  0  0  0  0  0
   -1.0180   17.1766    0.5621 H   0  0  0  0  0  0  0  0  0  0  0  0
   -3.4595   20.1549    0.0046 H   0  0  0  0  0  0  0  0  0  0  0  0
   -2.2358   20.5521   -1.2490 H   0  0  0  0  0  0  0  0  0  0  0  0
   -3.0314   18.9416   -1.2490 H   0  0  0  0  0  0  0  0  0  0  0  0
   -0.5149   16.4402   -1.6409 H   0  0  0  0  0  0  0  0  0  0  0  0
   -0.9323   16.7524   -3.9989 H   0  0  0  0  0  0  0  0  0  0  0  0
    0.7052   17.3812   -4.2840 H   0  0  0  0  0  0  0  0  0  0  0  0
   -0.2105   14.7614   -4.9650 H   0  0  0  0  0  0  0  0  0  0  0  0
    1.4864   15.2309   -4.9077 H   0  0  0  0  0  0  0  0  0  0  0  0
   -0.8169   13.8494   -1.5642 H   0  0  0  0  0  0  0  0  0  0  0  0
   -1.4397   14.5968   -3.0742 H   0  0  0  0  0  0  0  0  0  0  0  0
   -0.9084   12.8809   -3.0742 H   0  0  0  0  0  0  0  0  0  0  0  0
    2.6141   13.5692   -3.5549 H   0  0  0  0  0  0  0  0  0  0  0  0
    0.7336   12.5287   -4.9738 H   0  0  0  0  0  0  0  0  0  0  0  0
    2.2174   11.5504   -4.4931 H   0  0  0  0  0  0  0  0  0  0  0  0
   -0.0987   10.3044   -4.3466 H   0  0  0  0  0  0  0  0  0  0  0  0
    0.2673   12.0992   -0.7499 H   0  0  0  0  0  0  0  0  0  0  0  0
    2.3392    9.8186   -0.6797 H   0  0  0  0  0  0  0  0  0  0  0  0
    2.0002   11.0265    0.6378 H   0  0  0  0  0  0  0  0  0  0  0  0
    0.9696    8.8244    1.0987 H   0  0  0  0  0  0  0  0  0  0  0  0
   -0.2470   10.1469    0.9077 H   0  0  0  0  0  0  0  0  0  0  0  0
   -1.0393    8.1973   -0.2462 H   0  0  0  0  0  0  0  0  0  0  0  0
    1.3510    7.5430   -0.5850 H   0  0  0  0  0  0  0  0  0  0  0  0
   -1.9938   10.3869   -0.1586 H   0  0  0  0  0  0  0  0  0  0  0  0
   -1.9926   11.4485   -1.6077 H   0  0  0  0  0  0  0  0  0  0  0  0
   -2.9519    9.9298   -1.6077 H   0  0  0  0  0  0  0  0  0  0  0  0
   -1.8663    7.8491   -2.4835 H   0  0  0  0  0  0  0  0  0  0  0  0
   -2.0664    9.2710   -3.5628 H   0  0  0  0  0  0  0  0  0  0  0  0
   -0.5220    8.3537   -3.5628 H   0  0  0  0  0  0  0  0  0  0  0  0
    3.9040   11.4916   -0.9953 H   0  0  0  0  0  0  0  0  0  0  0  0
    3.2859   10.8047   -2.5357 H   0  0  0  0  0  0  0  0  0  0  0  0
    4.1395   12.3851   -2.5357 H   0  0  0  0  0  0  0  0  0  0  0  0
    2.2355   13.0654    0.3344 H   0  0  0  0  0  0  0  0  0  0  0  0
    3.3636   13.9402   -0.8476 H   0  0  0  0  0  0  0  0  0  0  0  0
    0.4284   14.4986   -0.3373 H   0  0  0  0  0  0  0  0  0  0  0  0
    1.8553   15.5472    0.0234 H   0  0  0  0  0  0  0  0  0  0  0  0
    3.3821   16.0723   -1.5512 H   0  0  0  0  0  0  0  0  0  0  0  0
    3.2936   15.0959   -3.0564 H   0  0  0  0  0  0  0  0  0  0  0  0
    2.7248   16.7998   -3.0564 H   0  0  0  0  0  0  0  0  0  0  0  0
  1  2  1  0
  2  3  1  0
  3  4  1  0
  4  5  1  0
  5  6  1  0
  6  7  1  0
  7  8  1  0
  7  9  1  0
  2 10  1  0
 10 11  1  0
 11 12  1  0
 12 13  1  0
 13 14  1  1
 13 15  1  0
 15 16  1  0
 16 17  1  0
 17 18  2  0
 18 19  1  0
 19 20  1  0
 20 21  1  0
 21 22  1  0
 22 23  1  0
 22 24  1  0
 24 25  1  0
 24 26  1  0
 19 27  1  0
 27 28  1  6
 27 29  1  0
 29 30  1  0
 30 31  1  0
 31 32  1  6
  7  5  1  0
 31 10  1  0
 31 13  1  0
 27 15  1  0
 24 18  1  0
  1 33  1  0
  1 34  1  0
  1 35  1  0
  2 36  1  1
  3 37  1  0
  3 38  1  0
  4 39  1  0
  4 40  1  0
  5 41  1  6
  8 42  1  0
  8 43  1  0
  8 44  1  0
  9 45  1  0
  9 46  1  0
  9 47  1  0
 10 48  1  1
 11 49  1  0
 11 50  1  0
 12 51  1  0
 12 52  1  0
 14 53  1  0
 14 54  1  0
 14 55  1  0
 15 56  1  6
 16 57  1  0
 16 58  1  0
 17 59  1  0
 19 60  1  1
 20 61  1  0
 20 62  1  0
 21 63  1  0
 21 64  1  0
 22 65  1  1
 23 66  1  0
 25 67  1  0
 25 68  1  0
 25 69  1  0
 26 70  1  0
 26 71  1  0
 26 72  1  0
 28 73  1  0
 28 74  1  0
 28 75  1  0
 29 76  1  0
 29 77  1  0
 30 78  1  0
 30 79  1  0
 32 80  1  0
 32 81  1  0
 32 82  1  0
M  END
>  <meeko>  (7) 
{"is_sidechain": [false], "intermolecular_energy": 2.731, "internal_energy": -0.839}

$$$$
EPH_relaxed_0001_pdb2pqr_Repair_75_r2_0001_out
     RDKit          3D

 82 86  0  0  0  0  0  0  0  0999 V2000
   -0.0930    7.8120   -1.5200 C   0  0  0  0  0  0  0  0  0  0  0  0
   -1.1110    8.8430   -1.0260 C   0  0  2  0  0  0  0  0  0  0  0  0
   -2.1810    9.1590   -2.0910 C   0  0  0  0  0  0  0  0  0  0  0  0
   -3.5190    8.4550   -1.8470 C   0  0  0  0  0  0  0  0  0  0  0  0
   -3.6360    7.1940   -2.6480 C   0  0  2  0  0  0  0  0  0  0  0  0
   -4.2360    7.3590   -3.9400 O   0  0  0  0  0  0  0  0  0  0  0  0
   -4.9620    6.5480   -3.0020 C   0  0  0  0  0  0  0  0  0  0  0  0
   -6.2630    7.1430   -2.5620 C   0  0  0  0  0  0  0  0  0  0  0  0
   -4.9790    5.0920   -3.3510 C   0  0  0  0  0  0  0  0  0  0  0  0
   -0.3960   10.1230   -0.6110 C   0  0  1  0  0  0  0  0  0  0  0  0
    0.7690    9.8620    0.3810 C   0  0  0  0  0  0  0  0  0  0  0  0
    1.8780   10.8940    0.0510 C   0  0  0  0  0  0  0  0  0  0  0  0
    1.1920   11.9180   -0.8840 C   0  0  1  0  0  0  0  0  0  0  0  0
    0.4110   12.8740    0.0710 C   0  0  0  0  0  0  0  0  0  0  0  0
    2.1320   12.7100   -1.8500 C   0  0  2  0  0  0  0  0  0  0  0  0
    3.1750   13.6050   -1.1580 C   0  0  0  0  0  0  0  0  0  0  0  0
    2.7350   15.0060   -0.8910 C   0  0  0  0  0  0  0  0  0  0  0  0
    1.6650   15.6090   -1.4430 C   0  0  0  0  0  0  0  0  0  0  0  0
    0.8270   14.9000   -2.5140 C   0  0  1  0  0  0  0  0  0  0  0  0
    0.5600   15.8730   -3.6920 C   0  0  0  0  0  0  0  0  0  0  0  0
   -0.0670   17.1870   -3.2350 C   0  0  0  0  0  0  0  0  0  0  0  0
    0.8230   17.8900   -2.2140 C   0  0  2  0  0  0  0  0  0  0  0  0
    2.0300   18.3030   -2.8630 O   0  0  0  0  0  0  0  0  0  0  0  0
    1.1680   17.0030   -0.9860 C   0  0  0  0  0  0  0  0  0  0  0  0
   -0.0980   16.8050   -0.1150 C   0  0  0  0  0  0  0  0  0  0  0  0
    2.1830   17.7790   -0.1060 C   0  0  0  0  0  0  0  0  0  0  0  0
    1.3730   13.4890   -3.0000 C   0  0  1  0  0  0  0  0  0  0  0  0
    2.3990   13.6850   -4.1570 C   0  0  0  0  0  0  0  0  0  0  0  0
    0.1800   12.6550   -3.6010 C   0  0  0  0  0  0  0  0  0  0  0  0
   -0.6370   11.8000   -2.6140 C   0  0  0  0  0  0  0  0  0  0  0  0
    0.2840   10.9530   -1.7300 C   0  0  2  0  0  0  0  0  0  0  0  0
    1.0660    9.9660   -2.6620 C   0  0  0  0  0  0  0  0  0  0  0  0
    0.3860    7.3269   -0.6567 H   0  0  0  0  0  0  0  0  0  0  0  0
   -0.6058    7.0531   -2.1291 H   0  0  0  0  0  0  0  0  0  0  0  0
    0.6724    8.3152   -2.1291 H   0  0  0  0  0  0  0  0  0  0  0  0
   -1.6273    8.4077   -0.1577 H   0  0  0  0  0  0  0  0  0  0  0  0
   -2.3558   10.2450   -2.0961 H   0  0  0  0  0  0  0  0  0  0  0  0
   -1.7951    8.7915   -3.0533 H   0  0  0  0  0  0  0  0  0  0  0  0
   -3.6019    8.2075   -0.7784 H   0  0  0  0  0  0  0  0  0  0  0  0
   -4.3259    9.1349   -2.1580 H   0  0  0  0  0  0  0  0  0  0  0  0
   -2.7177    6.7927   -2.1945 H   0  0  0  0  0  0  0  0  0  0  0  0
   -6.3045    7.1620   -1.4629 H   0  0  0  0  0  0  0  0  0  0  0  0
   -6.3468    8.1689   -2.9498 H   0  0  0  0  0  0  0  0  0  0  0  0
   -7.0939    6.5354   -2.9498 H   0  0  0  0  0  0  0  0  0  0  0  0
   -4.9860    4.4938   -2.4279 H   0  0  0  0  0  0  0  0  0  0  0  0
   -5.8798    4.8668   -3.9407 H   0  0  0  0  0  0  0  0  0  0  0  0
   -4.0837    4.8458   -3.9407 H   0  0  0  0  0  0  0  0  0  0  0  0
   -1.2461   10.6813   -0.1918 H   0  0  0  0  0  0  0  0  0  0  0  0
    0.4223    9.9967    1.4162 H   0  0  0  0  0  0  0  0  0  0  0  0
    1.1461    8.8331    0.2851 H   0  0  0  0  0  0  0  0  0  0  0  0
    2.2371   11.3848    0.9676 H   0  0  0  0  0  0  0  0  0  0  0  0
    2.7575   10.4265   -0.4158 H   0  0  0  0  0  0  0  0  0  0  0  0
    0.6290   12.6072    1.1156 H   0  0  0  0  0  0  0  0  0  0  0  0
    0.7223   13.9125   -0.1148 H   0  0  0  0  0  0  0  0  0  0  0  0
   -0.6688   12.7761   -0.1148 H   0  0  0  0  0  0  0  0  0  0  0  0
    2.7041   11.9048   -2.3342 H   0  0  0  0  0  0  0  0  0  0  0  0
    3.4359   13.1412   -0.1953 H   0  0  0  0  0  0  0  0  0  0  0  0
    4.0229   13.6795   -1.8548 H   0  0  0  0  0  0  0  0  0  0  0  0
    3.3358   15.5960   -0.1832 H   0  0  0  0  0  0  0  0  0  0  0  0
   -0.1232   14.6330   -2.0283 H   0  0  0  0  0  0  0  0  0  0  0  0
    1.5152   16.0929   -4.1911 H   0  0  0  0  0  0  0  0  0  0  0  0
   -0.1503   15.3838   -4.3747 H   0  0  0  0  0  0  0  0  0  0  0  0
   -0.2025   17.8437   -4.1070 H   0  0  0  0  0  0  0  0  0  0  0  0
   -1.0366   16.9682   -2.7639 H   0  0  0  0  0  0  0  0  0  0  0  0
    0.2624   18.7540   -1.8278 H   0  0  0  0  0  0  0  0  0  0  0  0
    2.7130   17.6410   -2.6630 H   0  0  0  0  0  0  0  0  0  0  0  0
    0.1784   16.8482    0.9488 H   0  0  0  0  0  0  0  0  0  0  0  0
   -0.8244   17.6005   -0.3377 H   0  0  0  0  0  0  0  0  0  0  0  0
   -0.5468   15.8257   -0.3377 H   0  0  0  0  0  0  0  0  0  0  0  0
    1.9556   17.6051    0.9561 H   0  0  0  0  0  0  0  0  0  0  0  0
    3.2021   17.4275   -0.3251 H   0  0  0  0  0  0  0  0  0  0  0  0
    2.1111   18.8546   -0.3251 H   0  0  0  0  0  0  0  0  0  0  0  0
    3.3965   13.8755   -3.7342 H   0  0  0  0  0  0  0  0  0  0  0  0
    2.4308   12.7767   -4.7766 H   0  0  0  0  0  0  0  0  0  0  0  0
    2.0938   14.5411   -4.7766 H   0  0  0  0  0  0  0  0  0  0  0  0
   -0.5124   13.3627   -4.0803 H   0  0  0  0  0  0  0  0  0  0  0  0
    0.6497   11.9337   -4.2859 H   0  0  0  0  0  0  0  0  0  0  0  0
   -1.2384   12.4636   -1.9753 H   0  0  0  0  0  0  0  0  0  0  0  0
   -1.2882   11.1258   -3.1896 H   0  0  0  0  0  0  0  0  0  0  0  0
    1.6322    9.2514   -2.0465 H   0  0  0  0  0  0  0  0  0  0  0  0
    0.3535    9.4190   -3.2969 H   0  0  0  0  0  0  0  0  0  0  0  0
    1.7614   10.5345   -3.2969 H   0  0  0  0  0  0  0  0  0  0  0  0
  1  2  1  0
  2  3  1  0
  3  4  1  0
  4  5  1  0
  5  6  1  0
  6  7  1  0
  7  8  1  0
  7  9  1  0
  2 10  1  0
 10 11  1  0
 11 12  1  0
 12 13  1  0
 13 14  1  1
 13 15  1  0
 15 16  1  0
 16 17  1  0
 17 18  2  0
 18 19  1  0
 19 20  1  0
 20 21  1  0
 21 22  1  0
 22 23  1  0
 22 24  1  0
 24 25  1  0
 24 26  1  0
 19 27  1  0
 27 28  1  6
 27 29  1  0
 29 30  1  0
 30 31  1  0
 31 32  1  6
  7  5  1  0
 31 10  1  0
 31 13  1  0
 27 15  1  0
 24 18  1  0
  1 33  1  0
  1 34  1  0
  1 35  1  0
  2 36  1  1
  3 37  1  0
  3 38  1  0
  4 39  1  0
  4 40  1  0
  5 41  1  6
  8 42  1  0
  8 43  1  0
  8 44  1  0
  9 45  1  0
  9 46  1  0
  9 47  1  0
 10 48  1  1
 11 49  1  0
 11 50  1  0
 12 51  1  0
 12 52  1  0
 14 53  1  0
 14 54  1  0
 14 55  1  0
 15 56  1  6
 16 57  1  0
 16 58  1  0
 17 59  1  0
 19 60  1  1
 20 61  1  0
 20 62  1  0
 21 63  1  0
 21 64  1  0
 22 65  1  1
 23 66  1  0
 25 67  1  0
 25 68  1  0
 25 69  1  0
 26 70  1  0
 26 71  1  0
 26 72  1  0
 28 73  1  0
 28 74  1  0
 28 75  1  0
 29 76  1  0
 29 77  1  0
 30 78  1  0
 30 79  1  0
 32 80  1  0
 32 81  1  0
 32 82  1  0
M  END
>  <meeko>  (8) 
{"is_sidechain": [false], "intermolecular_energy": 2.731, "internal_energy": -0.839}

$$$$
EPH_relaxed_0001_pdb2pqr_Repair_75_r2_0001_out
     RDKit          3D

 82 86  0  0  0  0  0  0  0  0999 V2000
    0.1170    9.3940   -2.4870 C   0  0  0  0  0  0  0  0  0  0  0  0
    1.2200   10.3880   -2.8640 C   0  0  2  0  0  0  0  0  0  0  0  0
    2.6150    9.7310   -2.8760 C   0  0  0  0  0  0  0  0  0  0  0  0
    3.5820   10.3590   -3.8830 C   0  0  0  0  0  0  0  0  0  0  0  0
    4.9620   10.4960   -3.3150 C   0  0  2  0  0  0  0  0  0  0  0  0
    5.5370   11.8020   -3.4490 O   0  0  0  0  0  0  0  0  0  0  0  0
    6.1950   10.7430   -4.1630 C   0  0  0  0  0  0  0  0  0  0  0  0
    6.1060   10.8670   -5.6520 C   0  0  0  0  0  0  0  0  0  0  0  0
    7.5340   10.3790   -3.6020 C   0  0  0  0  0  0  0  0  0  0  0  0
    1.2080   11.5680   -1.8990 C   0  0  1  0  0  0  0  0  0  0  0  0
    2.2560   11.4220   -0.7640 C   0  0  0  0  0  0  0  0  0  0  0  0
    2.7780   12.8480   -0.4510 C   0  0  0  0  0  0  0  0  0  0  0  0
    1.7880   13.7920   -1.1710 C   0  0  1  0  0  0  0  0  0  0  0  0
    0.5610   13.8940   -0.2110 C   0  0  0  0  0  0  0  0  0  0  0  0
    2.3370   15.2040   -1.5580 C   0  0  2  0  0  0  0  0  0  0  0  0
    2.7650   16.0860   -0.3720 C   0  0  0  0  0  0  0  0  0  0  0  0
    1.6960   16.9650    0.1880 C   0  0  0  0  0  0  0  0  0  0  0  0
    0.5280   17.2570   -0.4140 C   0  0  0  0  0  0  0  0  0  0  0  0
    0.2290   16.7600   -1.8350 C   0  0  1  0  0  0  0  0  0  0  0  0
   -0.3460   17.9270   -2.6800 C   0  0  0  0  0  0  0  0  0  0  0  0
   -1.5570   18.5830   -2.0240 C   0  0  0  0  0  0  0  0  0  0  0  0
   -1.2050   19.1160   -0.6380 C   0  0  2  0  0  0  0  0  0  0  0  0
   -0.2750   20.1940   -0.7810 O   0  0  0  0  0  0  0  0  0  0  0  0
   -0.6060   18.0310    0.3010 C   0  0  0  0  0  0  0  0  0  0  0  0
   -1.7100   17.0200    0.6980 C   0  0  0  0  0  0  0  0  0  0  0  0
   -0.1640   18.7290    1.6150 C   0  0  0  0  0  0  0  0  0  0  0  0
    1.4170   16.0020   -2.5690 C   0  0  1  0  0  0  0  0  0  0  0  0
    2.3390   17.0320   -3.2920 C   0  0  0  0  0  0  0  0  0  0  0  0
    0.8190   15.0760   -3.6930 C   0  0  0  0  0  0  0  0  0  0  0  0
    0.4060   13.6520   -3.2730 C   0  0  0  0  0  0  0  0  0  0  0  0
    1.5250   12.9670   -2.4830 C   0  0  2  0  0  0  0  0  0  0  0  0
    2.7650   12.8300   -3.4300 C   0  0  0  0  0  0  0  0  0  0  0  0
    0.0426    9.3269   -1.3916 H   0  0  0  0  0  0  0  0  0  0  0  0
   -0.8431    9.7378   -2.8994 H   0  0  0  0  0  0  0  0  0  0  0  0
    0.3595    8.4035   -2.8994 H   0  0  0  0  0  0  0  0  0  0  0  0
    1.0128   10.7406   -3.8852 H   0  0  0  0  0  0  0  0  0  0  0  0
    3.0515    9.8243   -1.8706 H   0  0  0  0  0  0  0  0  0  0  0  0
    2.4740    8.6823   -3.1765 H   0  0  0  0  0  0  0  0  0  0  0  0
    3.6268    9.7223   -4.7789 H   0  0  0  0  0  0  0  0  0  0  0  0
    3.2123   11.3646   -4.1321 H   0  0  0  0  0  0  0  0  0  0  0  0
    4.7402    9.7529   -2.5349 H   0  0  0  0  0  0  0  0  0  0  0  0
    5.4826   11.7355   -5.9110 H   0  0  0  0  0  0  0  0  0  0  0  0
    7.1146   11.0020   -6.0696 H   0  0  0  0  0  0  0  0  0  0  0  0
    5.6553    9.9546   -6.0696 H   0  0  0  0  0  0  0  0  0  0  0  0
    7.4869   10.3918   -2.5031 H   0  0  0  0  0  0  0  0  0  0  0  0
    7.8140    9.3721   -3.9453 H   0  0  0  0  0  0  0  0  0  0  0  0
    8.2852   11.1055   -3.9453 H   0  0  0  0  0  0  0  0  0  0  0  0
    0.1592   11.5265   -1.5699 H   0  0  0  0  0  0  0  0  0  0  0  0
    1.7875   10.9854    0.1303 H   0  0  0  0  0  0  0  0  0  0  0  0
    3.0786   10.7584   -1.0689 H   0  0  0  0  0  0  0  0  0  0  0  0
    2.7734   13.0340    0.6331 H   0  0  0  0  0  0  0  0  0  0  0  0
    3.8149   12.9959   -0.7870 H   0  0  0  0  0  0  0  0  0  0  0  0
    0.9083   13.8651    0.8323 H   0  0  0  0  0  0  0  0  0  0  0  0
    0.0295   14.8394   -0.3945 H   0  0  0  0  0  0  0  0  0  0  0  0
   -0.1193   13.0493   -0.3945 H   0  0  0  0  0  0  0  0  0  0  0  0
    3.2642   14.9569   -2.0959 H   0  0  0  0  0  0  0  0  0  0  0  0
    3.1178   15.4248    0.4332 H   0  0  0  0  0  0  0  0  0  0  0  0
    3.5418   16.7613   -0.7600 H   0  0  0  0  0  0  0  0  0  0  0  0
    1.8783   17.4119    1.1764 H   0  0  0  0  0  0  0  0  0  0  0  0
   -0.5270   15.9681   -1.7282 H   0  0  0  0  0  0  0  0  0  0  0  0
    0.4384   18.6868   -2.8117 H   0  0  0  0  0  0  0  0  0  0  0  0
   -0.6731   17.5113   -3.6445 H   0  0  0  0  0  0  0  0  0  0  0  0
   -1.8999   19.4170   -2.6540 H   0  0  0  0  0  0  0  0  0  0  0  0
   -2.3507   17.8287   -1.9188 H   0  0  0  0  0  0  0  0  0  0  0  0
   -2.1395   19.4571   -0.1685 H   0  0  0  0  0  0  0  0  0  0  0  0
    0.4860   20.0050   -0.2060 H   0  0  0  0  0  0  0  0  0  0  0  0
   -1.7753   16.9602    1.7944 H   0  0  0  0  0  0  0  0  0  0  0  0
   -2.6760   17.3532    0.2908 H   0  0  0  0  0  0  0  0  0  0  0  0
   -1.4628   16.0285    0.2908 H   0  0  0  0  0  0  0  0  0  0  0  0
   -0.5293   18.1521    2.4774 H   0  0  0  0  0  0  0  0  0  0  0  0
    0.9341   18.7843    1.6494 H   0  0  0  0  0  0  0  0  0  0  0  0
   -0.5835   19.7453    1.6494 H   0  0  0  0  0  0  0  0  0  0  0  0
    2.8763   17.6322   -2.5429 H   0  0  0  0  0  0  0  0  0  0  0  0
    3.0646   16.4960   -3.9214 H   0  0  0  0  0  0  0  0  0  0  0  0
    1.7262   17.6941   -3.9214 H   0  0  0  0  0  0  0  0  0  0  0  0
   -0.0739   15.5762   -4.0962 H   0  0  0  0  0  0  0  0  0  0  0  0
    1.6358   14.9373   -4.4166 H   0  0  0  0  0  0  0  0  0  0  0  0
   -0.4950   13.7093   -2.6446 H   0  0  0  0  0  0  0  0  0  0  0  0
    0.2060   13.0630   -4.1802 H   0  0  0  0  0  0  0  0  0  0  0  0
    3.6785   12.7291   -2.8256 H   0  0  0  0  0  0  0  0  0  0  0  0
    2.6450   11.9396   -4.0647 H   0  0  0  0  0  0  0  0  0  0  0  0
    2.8423   13.7251   -4.0647 H   0  0  0  0  0  0  0  0  0  0  0  0
  1  2  1  0
  2  3  1  0
  3  4  1  0
  4  5  1  0
  5  6  1  0
  6  7  1  0
  7  8  1  0
  7  9  1  0
  2 10  1  0
 10 11  1  0
 11 12  1  0
 12 13  1  0
 13 14  1  1
 13 15  1  0
 15 16  1  0
 16 17  1  0
 17 18  2  0
 18 19  1  0
 19 20  1  0
 20 21  1  0
 21 22  1  0
 22 23  1  0
 22 24  1  0
 24 25  1  0
 24 26  1  0
 19 27  1  0
 27 28  1  6
 27 29  1  0
 29 30  1  0
 30 31  1  0
 31 32  1  6
  7  5  1  0
 31 10  1  0
 31 13  1  0
 27 15  1  0
 24 18  1  0
  1 33  1  0
  1 34  1  0
  1 35  1  0
  2 36  1  6
  3 37  1  0
  3 38  1  0
  4 39  1  0
  4 40  1  0
  5 41  1  1
  8 42  1  0
  8 43  1  0
  8 44  1  0
  9 45  1  0
  9 46  1  0
  9 47  1  0
 10 48  1  1
 11 49  1  0
 11 50  1  0
 12 51  1  0
 12 52  1  0
 14 53  1  0
 14 54  1  0
 14 55  1  0
 15 56  1  6
 16 57  1  0
 16 58  1  0
 17 59  1  0
 19 60  1  1
 20 61  1  0
 20 62  1  0
 21 63  1  0
 21 64  1  0
 22 65  1  1
 23 66  1  0
 25 67  1  0
 25 68  1  0
 25 69  1  0
 26 70  1  0
 26 71  1  0
 26 72  1  0
 28 73  1  0
 28 74  1  0
 28 75  1  0
 29 76  1  0
 29 77  1  0
 30 78  1  0
 30 79  1  0
 32 80  1  0
 32 81  1  0
 32 82  1  0
M  END
>  <meeko>  (9) 
{"is_sidechain": [false], "intermolecular_energy": 2.731, "internal_energy": -0.839}

$$$$
EPH_relaxed_0001_pdb2pqr_Repair_75_r2_0001_out
     RDKit          3D

 82 86  0  0  0  0  0  0  0  0999 V2000
    0.1660   10.6830   -4.2820 C   0  0  0  0  0  0  0  0  0  0  0  0
    1.1260   10.3850   -3.1280 C   0  0  2  0  0  0  0  0  0  0  0  0
    0.7790    9.0660   -2.4090 C   0  0  0  0  0  0  0  0  0  0  0  0
   -0.7220    8.7670   -2.3640 C   0  0  0  0  0  0  0  0  0  0  0  0
   -1.2920    8.9950   -0.9970 C   0  0  2  0  0  0  0  0  0  0  0  0
   -2.6960    9.2840   -0.9740 O   0  0  0  0  0  0  0  0  0  0  0  0
   -1.8250   10.3350   -0.5250 C   0  0  0  0  0  0  0  0  0  0  0  0
   -1.8120   11.5370   -1.4170 C   0  0  0  0  0  0  0  0  0  0  0  0
   -1.9040   10.5960    0.9460 C   0  0  0  0  0  0  0  0  0  0  0  0
    1.1170   11.5390   -2.1330 C   0  0  1  0  0  0  0  0  0  0  0  0
    2.0960   11.3170   -0.9500 C   0  0  0  0  0  0  0  0  0  0  0  0
    2.6640   12.7090   -0.5720 C   0  0  0  0  0  0  0  0  0  0  0  0
    1.7560   13.7160   -1.3150 C   0  0  1  0  0  0  0  0  0  0  0  0
    0.4860   13.8500   -0.4160 C   0  0  0  0  0  0  0  0  0  0  0  0
    2.3860   15.1110   -1.6340 C   0  0  2  0  0  0  0  0  0  0  0  0
    2.7910   15.9410   -0.4040 C   0  0  0  0  0  0  0  0  0  0  0  0
    1.7340   16.8540    0.1250 C   0  0  0  0  0  0  0  0  0  0  0  0
    0.6140   17.2140   -0.5280 C   0  0  0  0  0  0  0  0  0  0  0  0
    0.3670   16.7680   -1.9750 C   0  0  1  0  0  0  0  0  0  0  0  0
   -0.1100   17.9810   -2.8170 C   0  0  0  0  0  0  0  0  0  0  0  0
   -1.3240   18.6750   -2.2060 C   0  0  0  0  0  0  0  0  0  0  0  0
   -1.0210   19.1560   -0.7890 C   0  0  2  0  0  0  0  0  0  0  0  0
   -0.0380   20.1940   -0.8550 O   0  0  0  0  0  0  0  0  0  0  0  0
   -0.5210   18.0220    0.1490 C   0  0  0  0  0  0  0  0  0  0  0  0
   -1.6880   17.0520    0.4610 C   0  0  0  0  0  0  0  0  0  0  0  0
   -0.1170   18.6650    1.5030 C   0  0  0  0  0  0  0  0  0  0  0  0
    1.5580   15.9750   -2.6690 C   0  0  1  0  0  0  0  0  0  0  0  0
    2.5610   16.9790   -3.3150 C   0  0  0  0  0  0  0  0  0  0  0  0
    0.9790   15.1060   -3.8470 C   0  0  0  0  0  0  0  0  0  0  0  0
    0.4810   13.6930   -3.4880 C   0  0  0  0  0  0  0  0  0  0  0  0
    1.5260   12.9370   -2.6610 C   0  0  2  0  0  0  0  0  0  0  0  0
    2.8070   12.7680   -3.5470 C   0  0  0  0  0  0  0  0  0  0  0  0
   -0.8109   10.9862   -3.8773 H   0  0  0  0  0  0  0  0  0  0  0  0
    0.5757   11.4962   -4.8991 H   0  0  0  0  0  0  0  0  0  0  0  0
    0.0432    9.7807   -4.8991 H   0  0  0  0  0  0  0  0  0  0  0  0
    2.1328   10.2717   -3.5565 H   0  0  0  0  0  0  0  0  0  0  0  0
    1.2820    8.2410   -2.9347 H   0  0  0  0  0  0  0  0  0  0  0  0
    1.1182    9.1682   -1.3676 H   0  0  0  0  0  0  0  0  0  0  0  0
   -1.2380    9.4242   -3.0795 H   0  0  0  0  0  0  0  0  0  0  0  0
   -0.8686    7.7084   -2.6244 H   0  0  0  0  0  0  0  0  0  0  0  0
   -0.5733    8.2896   -0.5544 H   0  0  0  0  0  0  0  0  0  0  0  0
   -1.8021   12.4494   -0.8027 H   0  0  0  0  0  0  0  0  0  0  0  0
   -0.9141   11.5127   -2.0519 H   0  0  0  0  0  0  0  0  0  0  0  0
   -2.7102   11.5322   -2.0519 H   0  0  0  0  0  0  0  0  0  0  0  0
   -1.6279    9.6840    1.4956 H   0  0  0  0  0  0  0  0  0  0  0  0
   -1.2114   11.4082    1.2120 H   0  0  0  0  0  0  0  0  0  0  0  0
   -2.9307   10.8878    1.2120 H   0  0  0  0  0  0  0  0  0  0  0  0
    0.0516   11.5368   -1.8594 H   0  0  0  0  0  0  0  0  0  0  0  0
    1.5619   10.8805   -0.0932 H   0  0  0  0  0  0  0  0  0  0  0  0
    2.9030   10.6240   -1.2300 H   0  0  0  0  0  0  0  0  0  0  0  0
    2.6114   12.8676    0.5152 H   0  0  0  0  0  0  0  0  0  0  0  0
    3.7225   12.8173   -0.8510 H   0  0  0  0  0  0  0  0  0  0  0  0
    0.7815   13.8188    0.6431 H   0  0  0  0  0  0  0  0  0  0  0  0
   -0.0148   14.8060   -0.6289 H   0  0  0  0  0  0  0  0  0  0  0  0
   -0.2033   13.0196   -0.6289 H   0  0  0  0  0  0  0  0  0  0  0  0
    3.3281   14.8360   -2.1307 H   0  0  0  0  0  0  0  0  0  0  0  0
    3.0713   15.2438    0.3994 H   0  0  0  0  0  0  0  0  0  0  0  0
    3.6168   16.5892   -0.7324 H   0  0  0  0  0  0  0  0  0  0  0  0
    1.8838   17.2669    1.1335 H   0  0  0  0  0  0  0  0  0  0  0  0
   -0.4289   16.0101   -1.9276 H   0  0  0  0  0  0  0  0  0  0  0  0
    0.7132   18.7072   -2.8874 H   0  0  0  0  0  0  0  0  0  0  0  0
   -0.4035   17.6052   -3.8083 H   0  0  0  0  0  0  0  0  0  0  0  0
   -1.5961   19.5396   -2.8293 H   0  0  0  0  0  0  0  0  0  0  0  0
   -2.1551   17.9557   -2.1627 H   0  0  0  0  0  0  0  0  0  0  0  0
   -1.9626   19.5272   -0.3581 H   0  0  0  0  0  0  0  0  0  0  0  0
    0.2530   20.3820    0.0540 H   0  0  0  0  0  0  0  0  0  0  0  0
   -1.8036   16.9559    1.5507 H   0  0  0  0  0  0  0  0  0  0  0  0
   -2.6186   17.4464    0.0269 H   0  0  0  0  0  0  0  0  0  0  0  0
   -1.4704   16.0650    0.0269 H   0  0  0  0  0  0  0  0  0  0  0  0
   -0.5028   18.0510    2.3301 H   0  0  0  0  0  0  0  0  0  0  0  0
    0.9795   18.7220    1.5692 H   0  0  0  0  0  0  0  0  0  0  0  0
   -0.5415   19.6776    1.5692 H   0  0  0  0  0  0  0  0  0  0  0  0
    3.1005   17.5191   -2.5230 H   0  0  0  0  0  0  0  0  0  0  0  0
    3.2804   16.4283   -3.9389 H   0  0  0  0  0  0  0  0  0  0  0  0
    2.0096   17.6979   -3.9389 H   0  0  0  0  0  0  0  0  0  0  0  0
    0.1320   15.6569   -4.2818 H   0  0  0  0  0  0  0  0  0  0  0  0
    1.8258   14.9476   -4.5311 H   0  0  0  0  0  0  0  0  0  0  0  0
   -0.4480   13.7762   -2.9048 H   0  0  0  0  0  0  0  0  0  0  0  0
    0.3019   13.1369   -4.4200 H   0  0  0  0  0  0  0  0  0  0  0  0
    3.6883   12.6517   -2.8990 H   0  0  0  0  0  0  0  0  0  0  0  0
    2.6986   11.8764   -4.1820 H   0  0  0  0  0  0  0  0  0  0  0  0
    2.9335   13.6572   -4.1820 H   0  0  0  0  0  0  0  0  0  0  0  0
  1  2  1  0
  2  3  1  0
  3  4  1  0
  4  5  1  0
  5  6  1  0
  6  7  1  0
  7  8  1  0
  7  9  1  0
  2 10  1  0
 10 11  1  0
 11 12  1  0
 12 13  1  0
 13 14  1  1
 13 15  1  0
 15 16  1  0
 16 17  1  0
 17 18  2  0
 18 19  1  0
 19 20  1  0
 20 21  1  0
 21 22  1  0
 22 23  1  0
 22 24  1  0
 24 25  1  0
 24 26  1  0
 19 27  1  0
 27 28  1  6
 27 29  1  0
 29 30  1  0
 30 31  1  0
 31 32  1  6
  7  5  1  0
 31 10  1  0
 31 13  1  0
 27 15  1  0
 24 18  1  0
  1 33  1  0
  1 34  1  0
  1 35  1  0
  2 36  1  6
  3 37  1  0
  3 38  1  0
  4 39  1  0
  4 40  1  0
  5 41  1  1
  8 42  1  0
  8 43  1  0
  8 44  1  0
  9 45  1  0
  9 46  1  0
  9 47  1  0
 10 48  1  1
 11 49  1  0
 11 50  1  0
 12 51  1  0
 12 52  1  0
 14 53  1  0
 14 54  1  0
 14 55  1  0
 15 56  1  6
 16 57  1  0
 16 58  1  0
 17 59  1  0
 19 60  1  1
 20 61  1  0
 20 62  1  0
 21 63  1  0
 21 64  1  0
 22 65  1  1
 23 66  1  0
 25 67  1  0
 25 68  1  0
 25 69  1  0
 26 70  1  0
 26 71  1  0
 26 72  1  0
 28 73  1  0
 28 74  1  0
 28 75  1  0
 29 76  1  0
 29 77  1  0
 30 78  1  0
 30 79  1  0
 32 80  1  0
 32 81  1  0
 32 82  1  0
M  END
>  <meeko>  (10) 
{"is_sidechain": [false], "intermolecular_energy": 2.731, "internal_energy": -0.839}

$$$$
EPH_relaxed_0001_pdb2pqr_Repair_75_r2_0001_out
     RDKit          3D

 82 86  0  0  0  0  0  0  0  0999 V2000
   -0.6650   10.3760   -3.0600 C   0  0  0  0  0  0  0  0  0  0  0  0
   -0.2020   10.0990   -1.6270 C   0  0  2  0  0  0  0  0  0  0  0  0
   -1.2590    9.3240   -0.8150 C   0  0  0  0  0  0  0  0  0  0  0  0
   -2.5660    9.0850   -1.5770 C   0  0  0  0  0  0  0  0  0  0  0  0
   -2.6460    7.6890   -2.1160 C   0  0  2  0  0  0  0  0  0  0  0  0
   -2.9040    7.6050   -3.5240 O   0  0  0  0  0  0  0  0  0  0  0  0
   -3.9220    7.0740   -2.6600 C   0  0  0  0  0  0  0  0  0  0  0  0
   -5.2070    7.8410   -2.6890 C   0  0  0  0  0  0  0  0  0  0  0  0
   -4.0340    5.5820   -2.7060 C   0  0  0  0  0  0  0  0  0  0  0  0
    0.1340   11.4100   -0.9270 C   0  0  1  0  0  0  0  0  0  0  0  0
    1.2210   11.2410    0.1690 C   0  0  0  0  0  0  0  0  0  0  0  0
    2.0720   12.5360    0.1590 C   0  0  0  0  0  0  0  0  0  0  0  0
    1.2560   13.5330   -0.6980 C   0  0  1  0  0  0  0  0  0  0  0  0
    0.1730   14.1020    0.2720 C   0  0  0  0  0  0  0  0  0  0  0  0
    2.0680   14.6750   -1.3900 C   0  0  2  0  0  0  0  0  0  0  0  0
    2.7850   15.6400   -0.4310 C   0  0  0  0  0  0  0  0  0  0  0  0
    1.9920   16.8360   -0.0190 C   0  0  0  0  0  0  0  0  0  0  0  0
    0.8690   17.2750   -0.6180 C   0  0  0  0  0  0  0  0  0  0  0  0
    0.3420   16.6010   -1.8920 C   0  0  1  0  0  0  0  0  0  0  0  0
   -0.0330   17.6870   -2.9350 C   0  0  0  0  0  0  0  0  0  0  0  0
   -1.0050   18.7230   -2.3770 C   0  0  0  0  0  0  0  0  0  0  0  0
   -0.4200   19.4120   -1.1470 C   0  0  2  0  0  0  0  0  0  0  0  0
    0.7090   20.1940   -1.5480 O   0  0  0  0  0  0  0  0  0  0  0  0
    0.0030   18.4160   -0.0310 C   0  0  0  0  0  0  0  0  0  0  0  0
   -1.2570   17.7880    0.6130 C   0  0  0  0  0  0  0  0  0  0  0  0
    0.7050   19.2280    1.0920 C   0  0  0  0  0  0  0  0  0  0  0  0
    1.2620   15.4590   -2.5040 C   0  0  1  0  0  0  0  0  0  0  0  0
    2.3210   16.0860   -3.4620 C   0  0  0  0  0  0  0  0  0  0  0  0
    0.3760   14.5030   -3.3870 C   0  0  0  0  0  0  0  0  0  0  0  0
   -0.3040   13.3230   -2.6660 C   0  0  0  0  0  0  0  0  0  0  0  0
    0.7010   12.5580   -1.7990 C   0  0  2  0  0  0  0  0  0  0  0  0
    1.7910   11.9550   -2.7500 C   0  0  0  0  0  0  0  0  0  0  0  0
   -1.6088   10.9406   -3.0377 H   0  0  0  0  0  0  0  0  0  0  0  0
    0.1017   10.9639   -3.5859 H   0  0  0  0  0  0  0  0  0  0  0  0
   -0.8205    9.4224   -3.5859 H   0  0  0  0  0  0  0  0  0  0  0  0
    0.6971    9.4679   -1.6858 H   0  0  0  0  0  0  0  0  0  0  0  0
   -0.8358    8.3477   -0.5363 H   0  0  0  0  0  0  0  0  0  0  0  0
   -1.5060    9.9398    0.0624 H   0  0  0  0  0  0  0  0  0  0  0  0
   -3.4123    9.2527   -0.8946 H   0  0  0  0  0  0  0  0  0  0  0  0
   -2.6003    9.7830   -2.4264 H   0  0  0  0  0  0  0  0  0  0  0  0
   -1.9145    7.3354   -1.3745 H   0  0  0  0  0  0  0  0  0  0  0  0
   -5.5390    8.0392   -1.6592 H   0  0  0  0  0  0  0  0  0  0  0  0
   -5.0528    8.7950   -3.2146 H   0  0  0  0  0  0  0  0  0  0  0  0
   -5.9735    7.2525   -3.2146 H   0  0  0  0  0  0  0  0  0  0  0  0
   -4.0638    5.1848   -1.6807 H   0  0  0  0  0  0  0  0  0  0  0  0
   -4.9559    5.2997   -3.2356 H   0  0  0  0  0  0  0  0  0  0  0  0
   -3.1646    5.1652   -3.2356 H   0  0  0  0  0  0  0  0  0  0  0  0
   -0.8648   11.6795   -0.5531 H   0  0  0  0  0  0  0  0  0  0  0  0
    0.7486   11.1059    1.1532 H   0  0  0  0  0  0  0  0  0  0  0  0
    1.8453   10.3569   -0.0273 H   0  0  0  0  0  0  0  0  0  0  0  0
    2.2054   12.9209    1.1808 H   0  0  0  0  0  0  0  0  0  0  0  0
    3.0816   12.3685   -0.2442 H   0  0  0  0  0  0  0  0  0  0  0  0
    0.4891   13.9359    1.3124 H   0  0  0  0  0  0  0  0  0  0  0  0
    0.0512   15.1806    0.0935 H   0  0  0  0  0  0  0  0  0  0  0  0
   -0.7843   13.5904    0.0935 H   0  0  0  0  0  0  0  0  0  0  0  0
    2.8658   14.1190   -1.9042 H   0  0  0  0  0  0  0  0  0  0  0  0
    3.0526   15.0802    0.4773 H   0  0  0  0  0  0  0  0  0  0  0  0
    3.6547   16.0267   -0.9824 H   0  0  0  0  0  0  0  0  0  0  0  0
    2.3562   17.4071    0.8477 H   0  0  0  0  0  0  0  0  0  0  0  0
   -0.5583   16.0450   -1.5916 H   0  0  0  0  0  0  0  0  0  0  0  0
    0.8854   18.2012   -3.2545 H   0  0  0  0  0  0  0  0  0  0  0  0
   -0.5290   17.1835   -3.7779 H   0  0  0  0  0  0  0  0  0  0  0  0
   -1.2090   19.4785   -3.1501 H   0  0  0  0  0  0  0  0  0  0  0  0
   -1.9340   18.2116   -2.0848 H   0  0  0  0  0  0  0  0  0  0  0  0
   -1.2093   20.0471   -0.7184 H   0  0  0  0  0  0  0  0  0  0  0  0
    1.3170   20.2420   -0.7920 H   0  0  0  0  0  0  0  0  0  0  0  0
   -1.1693   17.8317    1.7086 H   0  0  0  0  0  0  0  0  0  0  0  0
   -2.1491   18.3469    0.2940 H   0  0  0  0  0  0  0  0  0  0  0  0
   -1.3478   16.7392    0.2940 H   0  0  0  0  0  0  0  0  0  0  0  0
    0.3804   18.8525    2.0736 H   0  0  0  0  0  0  0  0  0  0  0  0
    1.7953   19.1158    0.9988 H   0  0  0  0  0  0  0  0  0  0  0  0
    0.4364   20.2906    0.9988 H   0  0  0  0  0  0  0  0  0  0  0  0
    3.1181   16.5580   -2.8689 H   0  0  0  0  0  0  0  0  0  0  0  0
    2.7535   15.2983   -4.0964 H   0  0  0  0  0  0  0  0  0  0  0  0
    1.8383   16.8440   -4.0964 H   0  0  0  0  0  0  0  0  0  0  0  0
   -0.4157   15.1131   -3.8465 H   0  0  0  0  0  0  0  0  0  0  0  0
    1.0742   14.0407   -4.1002 H   0  0  0  0  0  0  0  0  0  0  0  0
   -1.1109   13.7091   -2.0259 H   0  0  0  0  0  0  0  0  0  0  0  0
   -0.7090   12.6355   -3.4232 H   0  0  0  0  0  0  0  0  0  0  0  0
    2.5967   11.5093   -2.1482 H   0  0  0  0  0  0  0  0  0  0  0  0
    1.3359   11.1803   -3.3847 H   0  0  0  0  0  0  0  0  0  0  0  0
    2.2055   12.7521   -3.3847 H   0  0  0  0  0  0  0  0  0  0  0  0
  1  2  1  0
  2  3  1  0
  3  4  1  0
  4  5  1  0
  5  6  1  0
  6  7  1  0
  7  8  1  0
  7  9  1  0
  2 10  1  0
 10 11  1  0
 11 12  1  0
 12 13  1  0
 13 14  1  1
 13 15  1  0
 15 16  1  0
 16 17  1  0
 17 18  2  0
 18 19  1  0
 19 20  1  0
 20 21  1  0
 21 22  1  0
 22 23  1  0
 22 24  1  0
 24 25  1  0
 24 26  1  0
 19 27  1  0
 27 28  1  6
 27 29  1  0
 29 30  1  0
 30 31  1  0
 31 32  1  6
  7  5  1  0
 31 10  1  0
 31 13  1  0
 27 15  1  0
 24 18  1  0
  1 33  1  0
  1 34  1  0
  1 35  1  0
  2 36  1  6
  3 37  1  0
  3 38  1  0
  4 39  1  0
  4 40  1  0
  5 41  1  6
  8 42  1  0
  8 43  1  0
  8 44  1  0
  9 45  1  0
  9 46  1  0
  9 47  1  0
 10 48  1  1
 11 49  1  0
 11 50  1  0
 12 51  1  0
 12 52  1  0
 14 53  1  0
 14 54  1  0
 14 55  1  0
 15 56  1  6
 16 57  1  0
 16 58  1  0
 17 59  1  0
 19 60  1  1
 20 61  1  0
 20 62  1  0
 21 63  1  0
 21 64  1  0
 22 65  1  1
 23 66  1  0
 25 67  1  0
 25 68  1  0
 25 69  1  0
 26 70  1  0
 26 71  1  0
 26 72  1  0
 28 73  1  0
 28 74  1  0
 28 75  1  0
 29 76  1  0
 29 77  1  0
 30 78  1  0
 30 79  1  0
 32 80  1  0
 32 81  1  0
 32 82  1  0
M  END
>  <meeko>  (11) 
{"is_sidechain": [false], "intermolecular_energy": 2.731, "internal_energy": -0.839}

$$$$
EPH_relaxed_0001_pdb2pqr_Repair_75_r2_0001_out
     RDKit          3D

 82 86  0  0  0  0  0  0  0  0999 V2000
   -0.8470   18.9110   -1.8160 C   0  0  0  0  0  0  0  0  0  0  0  0
    0.2560   18.4250   -0.8710 C   0  0  2  0  0  0  0  0  0  0  0  0
    1.3770   19.4700   -0.7020 C   0  0  0  0  0  0  0  0  0  0  0  0
    1.7820   19.7080    0.7550 C   0  0  0  0  0  0  0  0  0  0  0  0
    3.2710   19.7050    0.9250 C   0  0  2  0  0  0  0  0  0  0  0  0
    3.8050   18.5060    1.5030 O   0  0  0  0  0  0  0  0  0  0  0  0
    3.9590   19.7070    2.2770 C   0  0  0  0  0  0  0  0  0  0  0  0
    3.1740   19.7140    3.5510 C   0  0  0  0  0  0  0  0  0  0  0  0
    5.3720   20.1930    2.3600 C   0  0  0  0  0  0  0  0  0  0  0  0
    0.8390   17.1130   -1.3830 C   0  0  1  0  0  0  0  0  0  0  0  0
    2.3570   17.2130   -1.6870 C   0  0  0  0  0  0  0  0  0  0  0  0
    2.9770   15.8390   -1.3250 C   0  0  0  0  0  0  0  0  0  0  0  0
    1.7620   14.8990   -1.1430 C   0  0  1  0  0  0  0  0  0  0  0  0
    1.3610   14.4770   -2.5910 C   0  0  0  0  0  0  0  0  0  0  0  0
    1.9820   13.6560   -0.2200 C   0  0  2  0  0  0  0  0  0  0  0  0
    3.0460   12.6590   -0.7100 C   0  0  0  0  0  0  0  0  0  0  0  0
    2.5380   11.5650   -1.5890 C   0  0  0  0  0  0  0  0  0  0  0  0
    1.2460   11.2190   -1.7410 C   0  0  0  0  0  0  0  0  0  0  0  0
    0.1470   11.8960   -0.9110 C   0  0  1  0  0  0  0  0  0  0  0  0
   -0.8090   10.8160   -0.3410 C   0  0  0  0  0  0  0  0  0  0  0  0
   -1.3750    9.9040   -1.4250 C   0  0  0  0  0  0  0  0  0  0  0  0
   -0.2540    9.2050   -2.1900 C   0  0  2  0  0  0  0  0  0  0  0  0
    0.4130    8.3000   -1.3050 O   0  0  0  0  0  0  0  0  0  0  0  0
    0.7780   10.1930   -2.8020 C   0  0  0  0  0  0  0  0  0  0  0  0
    0.1250   10.9680   -3.9730 C   0  0  0  0  0  0  0  0  0  0  0  0
    1.9290    9.3570   -3.4230 C   0  0  0  0  0  0  0  0  0  0  0  0
    0.6470   12.9160    0.2000 C   0  0  1  0  0  0  0  0  0  0  0  0
    0.9590   12.1520    1.5230 C   0  0  0  0  0  0  0  0  0  0  0  0
   -0.5160   13.9240    0.5330 C   0  0  0  0  0  0  0  0  0  0  0  0
   -0.6080   15.1920   -0.3390 C   0  0  0  0  0  0  0  0  0  0  0  0
    0.7550   15.8830   -0.4450 C   0  0  2  0  0  0  0  0  0  0  0  0
    1.1740   16.3390    0.9940 C   0  0  0  0  0  0  0  0  0  0  0  0
   -1.6966   19.2854   -1.2261 H   0  0  0  0  0  0  0  0  0  0  0  0
   -0.4561   19.7202   -2.4503 H   0  0  0  0  0  0  0  0  0  0  0  0
   -1.1804   18.0764   -2.4503 H   0  0  0  0  0  0  0  0  0  0  0  0
   -0.2004   18.2675    0.1174 H   0  0  0  0  0  0  0  0  0  0  0  0
    2.2616   19.1230   -1.2561 H   0  0  0  0  0  0  0  0  0  0  0  0
    0.9879   20.4240   -1.0874 H   0  0  0  0  0  0  0  0  0  0  0  0
    1.3883   20.6825    1.0796 H   0  0  0  0  0  0  0  0  0  0  0  0
    1.3661   18.8916    1.3638 H   0  0  0  0  0  0  0  0  0  0  0  0
    3.3978   20.3347    0.0320 H   0  0  0  0  0  0  0  0  0  0  0  0
    3.8646   19.7078    4.4072 H   0  0  0  0  0  0  0  0  0  0  0  0
    2.5482   20.6178    3.5911 H   0  0  0  0  0  0  0  0  0  0  0  0
    2.5322   18.8215    3.5911 H   0  0  0  0  0  0  0  0  0  0  0  0
    5.6638   20.2934    3.4158 H   0  0  0  0  0  0  0  0  0  0  0  0
    6.0375   19.4721    1.8626 H   0  0  0  0  0  0  0  0  0  0  0  0
    5.4533   21.1707    1.8626 H   0  0  0  0  0  0  0  0  0  0  0  0
    0.1987   16.9579   -2.2639 H   0  0  0  0  0  0  0  0  0  0  0  0
    2.5162   17.4313   -2.7533 H   0  0  0  0  0  0  0  0  0  0  0  0
    2.8237   18.0223   -1.1062 H   0  0  0  0  0  0  0  0  0  0  0  0
    3.6274   15.4804   -2.1365 H   0  0  0  0  0  0  0  0  0  0  0  0
    3.6048   15.8890   -0.4231 H   0  0  0  0  0  0  0  0  0  0  0  0
    0.6040   13.6803   -2.5444 H   0  0  0  0  0  0  0  0  0  0  0  0
    0.9471   15.3453   -3.1246 H   0  0  0  0  0  0  0  0  0  0  0  0
    2.2493   14.1079   -3.1246 H   0  0  0  0  0  0  0  0  0  0  0  0
    2.3962   14.1105    0.6920 H   0  0  0  0  0  0  0  0  0  0  0  0
    3.8057   13.2217   -1.2724 H   0  0  0  0  0  0  0  0  0  0  0  0
    3.4398   12.1668    0.1915 H   0  0  0  0  0  0  0  0  0  0  0  0
    3.2828   10.9927   -2.1614 H   0  0  0  0  0  0  0  0  0  0  0  0
   -0.4002   12.5504   -1.6054 H   0  0  0  0  0  0  0  0  0  0  0  0
   -0.2544   10.2009    0.3829 H   0  0  0  0  0  0  0  0  0  0  0  0
   -1.6548   11.3357    0.1329 H   0  0  0  0  0  0  0  0  0  0  0  0
   -2.0190    9.1450   -0.9568 H   0  0  0  0  0  0  0  0  0  0  0  0
   -1.9538   10.5164   -2.1321 H   0  0  0  0  0  0  0  0  0  0  0  0
   -0.7140    8.6693   -3.0335 H   0  0  0  0  0  0  0  0  0  0  0  0
    1.1170    7.8590   -1.8110 H   0  0  0  0  0  0  0  0  0  0  0  0
   -0.5349   11.7512   -3.5716 H   0  0  0  0  0  0  0  0  0  0  0  0
    0.9099   11.4304   -4.5896 H   0  0  0  0  0  0  0  0  0  0  0  0
   -0.4638   10.2729   -4.5896 H   0  0  0  0  0  0  0  0  0  0  0  0
    2.5366    8.9157   -2.6192 H   0  0  0  0  0  0  0  0  0  0  0  0
    1.5052    8.5547   -4.0449 H   0  0  0  0  0  0  0  0  0  0  0  0
    2.5609   10.0081   -4.0449 H   0  0  0  0  0  0  0  0  0  0  0  0
    0.6997   12.7870    2.3830 H   0  0  0  0  0  0  0  0  0  0  0  0
    0.3672   11.2255    1.5597 H   0  0  0  0  0  0  0  0  0  0  0  0
    2.0302   11.9046    1.5597 H   0  0  0  0  0  0  0  0  0  0  0  0
   -1.4668   13.3804    0.4311 H   0  0  0  0  0  0  0  0  0  0  0  0
   -0.2995   14.2880    1.5482 H   0  0  0  0  0  0  0  0  0  0  0  0
   -0.9491   14.9121   -1.3466 H   0  0  0  0  0  0  0  0  0  0  0  0
   -1.3197   15.8887    0.1281 H   0  0  0  0  0  0  0  0  0  0  0  0
    0.6275   15.7443    1.7408 H   0  0  0  0  0  0  0  0  0  0  0  0
    2.2557   16.1888    1.1258 H   0  0  0  0  0  0  0  0  0  0  0  0
    0.9330   17.4041    1.1258 H   0  0  0  0  0  0  0  0  0  0  0  0
  1  2  1  0
  2  3  1  0
  3  4  1  0
  4  5  1  0
  5  6  1  0
  6  7  1  0
  7  8  1  0
  7  9  1  0
  2 10  1  0
 10 11  1  0
 11 12  1  0
 12 13  1  0
 13 14  1  6
 13 15  1  0
 15 16  1  0
 16 17  1  0
 17 18  2  0
 18 19  1  0
 19 20  1  0
 20 21  1  0
 21 22  1  0
 22 23  1  0
 22 24  1  0
 24 25  1  0
 24 26  1  0
 19 27  1  0
 27 28  1  1
 27 29  1  0
 29 30  1  0
 30 31  1  0
 31 32  1  1
  7  5  1  0
 31 10  1  0
 31 13  1  0
 27 15  1  0
 24 18  1  0
  1 33  1  0
  1 34  1  0
  1 35  1  0
  2 36  1  1
  3 37  1  0
  3 38  1  0
  4 39  1  0
  4 40  1  0
  5 41  1  6
  8 42  1  0
  8 43  1  0
  8 44  1  0
  9 45  1  0
  9 46  1  0
  9 47  1  0
 10 48  1  6
 11 49  1  0
 11 50  1  0
 12 51  1  0
 12 52  1  0
 14 53  1  0
 14 54  1  0
 14 55  1  0
 15 56  1  1
 16 57  1  0
 16 58  1  0
 17 59  1  0
 19 60  1  6
 20 61  1  0
 20 62  1  0
 21 63  1  0
 21 64  1  0
 22 65  1  6
 23 66  1  0
 25 67  1  0
 25 68  1  0
 25 69  1  0
 26 70  1  0
 26 71  1  0
 26 72  1  0
 28 73  1  0
 28 74  1  0
 28 75  1  0
 29 76  1  0
 29 77  1  0
 30 78  1  0
 30 79  1  0
 32 80  1  0
 32 81  1  0
 32 82  1  0
M  END
>  <meeko>  (12) 
{"is_sidechain": [false], "intermolecular_energy": 2.731, "internal_energy": -0.839}

$$$$
EPH_relaxed_0001_pdb2pqr_Repair_75_r2_0001_out
     RDKit          3D

 82 86  0  0  0  0  0  0  0  0999 V2000
   -1.8810    9.5180   -0.3100 C   0  0  0  0  0  0  0  0  0  0  0  0
   -1.5000   10.5230   -1.4010 C   0  0  2  0  0  0  0  0  0  0  0  0
   -0.5820    9.8980   -2.4710 C   0  0  0  0  0  0  0  0  0  0  0  0
    0.7850    9.4660   -1.9320 C   0  0  0  0  0  0  0  0  0  0  0  0
    1.9040    9.9630   -2.7980 C   0  0  2  0  0  0  0  0  0  0  0  0
    3.0850    9.1500   -2.7750 O   0  0  0  0  0  0  0  0  0  0  0  0
    3.2200   10.4800   -2.2490 C   0  0  0  0  0  0  0  0  0  0  0  0
    3.4860   10.5280   -0.7770 C   0  0  0  0  0  0  0  0  0  0  0  0
    4.0460   11.3870   -3.1070 C   0  0  0  0  0  0  0  0  0  0  0  0
   -0.8210   11.7360   -0.7760 C   0  0  1  0  0  0  0  0  0  0  0  0
    0.3180   11.3440    0.2030 C   0  0  0  0  0  0  0  0  0  0  0  0
    1.4170   12.4300    0.0680 C   0  0  0  0  0  0  0  0  0  0  0  0
    0.7400   13.5730   -0.7250 C   0  0  1  0  0  0  0  0  0  0  0  0
   -0.0860   14.3630    0.3380 C   0  0  0  0  0  0  0  0  0  0  0  0
    1.6940   14.5140   -1.5300 C   0  0  2  0  0  0  0  0  0  0  0  0
    2.6990   15.3090   -0.6780 C   0  0  0  0  0  0  0  0  0  0  0  0
    2.2250   16.6480   -0.2180 C   0  0  0  0  0  0  0  0  0  0  0  0
    1.1610   17.3120   -0.7080 C   0  0  0  0  0  0  0  0  0  0  0  0
    0.3690   16.7600   -1.9000 C   0  0  1  0  0  0  0  0  0  0  0  0
    0.1200   17.8960   -2.9260 C   0  0  0  0  0  0  0  0  0  0  0  0
   -0.5460   19.1170   -2.2980 C   0  0  0  0  0  0  0  0  0  0  0  0
    0.3010   19.6720   -1.1550 C   0  0  2  0  0  0  0  0  0  0  0  0
    1.5180   20.1940   -1.6950 O   0  0  0  0  0  0  0  0  0  0  0  0
    0.6240   18.6140   -0.0630 C   0  0  0  0  0  0  0  0  0  0  0  0
   -0.6630   18.2700    0.7260 C   0  0  0  0  0  0  0  0  0  0  0  0
    1.5990   19.2630    0.9560 C   0  0  0  0  0  0  0  0  0  0  0  0
    0.9560   15.4460   -2.5740 C   0  0  1  0  0  0  0  0  0  0  0  0
    2.0120   15.8290   -3.6550 C   0  0  0  0  0  0  0  0  0  0  0  0
   -0.2030   14.6960   -3.3310 C   0  0  0  0  0  0  0  0  0  0  0  0
   -1.0330   13.6910   -2.5110 C   0  0  0  0  0  0  0  0  0  0  0  0
   -0.1230   12.7330   -1.7350 C   0  0  2  0  0  0  0  0  0  0  0  0
    0.7050   11.9090   -2.7780 C   0  0  0  0  0  0  0  0  0  0  0  0
   -1.7103    9.9682    0.6790 H   0  0  0  0  0  0  0  0  0  0  0  0
   -2.9430    9.2504   -0.4127 H   0  0  0  0  0  0  0  0  0  0  0  0
   -1.2633    8.6136   -0.4127 H   0  0  0  0  0  0  0  0  0  0  0  0
   -2.4279   10.8342   -1.9032 H   0  0  0  0  0  0  0  0  0  0  0  0
   -1.0863    9.0138   -2.8879 H   0  0  0  0  0  0  0  0  0  0  0  0
   -0.3985   10.6728   -3.2300 H   0  0  0  0  0  0  0  0  0  0  0  0
    0.9125    9.8710   -0.9172 H   0  0  0  0  0  0  0  0  0  0  0  0
    0.8192    8.3666   -1.9243 H   0  0  0  0  0  0  0  0  0  0  0  0
    1.1895   10.3845   -3.5204 H   0  0  0  0  0  0  0  0  0  0  0  0
    2.5473   10.3586   -0.2291 H   0  0  0  0  0  0  0  0  0  0  0  0
    4.2126    9.7465   -0.5100 H   0  0  0  0  0  0  0  0  0  0  0  0
    3.8936   11.5142   -0.5100 H   0  0  0  0  0  0  0  0  0  0  0  0
    4.6485   12.0486   -2.4673 H   0  0  0  0  0  0  0  0  0  0  0  0
    4.7122   10.7847   -3.7421 H   0  0  0  0  0  0  0  0  0  0  0  0
    3.3842   11.9942   -3.7421 H   0  0  0  0  0  0  0  0  0  0  0  0
   -1.6931   12.2140   -0.3059 H   0  0  0  0  0  0  0  0  0  0  0  0
   -0.0622   11.3160    1.2348 H   0  0  0  0  0  0  0  0  0  0  0  0
    0.7169   10.3466   -0.0339 H   0  0  0  0  0  0  0  0  0  0  0  0
    1.7387   12.7824    1.0591 H   0  0  0  0  0  0  0  0  0  0  0  0
    2.3191   12.0508   -0.4344 H   0  0  0  0  0  0  0  0  0  0  0  0
    0.2304   14.0604    1.3471 H   0  0  0  0  0  0  0  0  0  0  0  0
    0.0855   15.4417    0.2080 H   0  0  0  0  0  0  0  0  0  0  0  0
   -1.1560   14.1436    0.2080 H   0  0  0  0  0  0  0  0  0  0  0  0
    2.2954   13.7988   -2.1103 H   0  0  0  0  0  0  0  0  0  0  0  0
    2.9396   14.7092    0.2121 H   0  0  0  0  0  0  0  0  0  0  0  0
    3.5659   15.4994   -1.3278 H   0  0  0  0  0  0  0  0  0  0  0  0
    2.7930   17.1331    0.5895 H   0  0  0  0  0  0  0  0  0  0  0  0
   -0.5902   16.4088   -1.4918 H   0  0  0  0  0  0  0  0  0  0  0  0
    1.0859   18.2024   -3.3540 H   0  0  0  0  0  0  0  0  0  0  0  0
   -0.5595   17.5054   -3.6978 H   0  0  0  0  0  0  0  0  0  0  0  0
   -0.6690   19.8950   -3.0658 H   0  0  0  0  0  0  0  0  0  0  0  0
   -1.5247   18.8158   -1.8961 H   0  0  0  0  0  0  0  0  0  0  0  0
   -0.2853   20.4617   -0.6624 H   0  0  0  0  0  0  0  0  0  0  0  0
    2.2430   19.6160   -1.4010 H   0  0  0  0  0  0  0  0  0  0  0  0
   -0.4572   18.3250    1.8052 H   0  0  0  0  0  0  0  0  0  0  0  0
   -1.4550   18.9880    0.4667 H   0  0  0  0  0  0  0  0  0  0  0  0
   -0.9912   17.2526    0.4667 H   0  0  0  0  0  0  0  0  0  0  0  0
    1.2626   19.0391    1.9791 H   0  0  0  0  0  0  0  0  0  0  0  0
    2.6103   18.8572    0.8055 H   0  0  0  0  0  0  0  0  0  0  0  0
    1.6149   20.3525    0.8055 H   0  0  0  0  0  0  0  0  0  0  0  0
    2.9364   16.1643   -3.1620 H   0  0  0  0  0  0  0  0  0  0  0  0
    2.2286   14.9522   -4.2829 H   0  0  0  0  0  0  0  0  0  0  0  0
    1.6161   16.6408   -4.2829 H   0  0  0  0  0  0  0  0  0  0  0  0
   -0.8938   15.4584   -3.7203 H   0  0  0  0  0  0  0  0  0  0  0  0
    0.3001   14.0926   -4.1009 H   0  0  0  0  0  0  0  0  0  0  0  0
   -1.6654   14.2423   -1.7996 H   0  0  0  0  0  0  0  0  0  0  0  0
   -1.6542   13.1024   -3.2021 H   0  0  0  0  0  0  0  0  0  0  0  0
    1.3885   11.2288   -2.2486 H   0  0  0  0  0  0  0  0  0  0  0  0
    0.0205   11.3231   -3.4090 H   0  0  0  0  0  0  0  0  0  0  0  0
    1.2876   12.5963   -3.4090 H   0  0  0  0  0  0  0  0  0  0  0  0
  1  2  1  0
  2  3  1  0
  3  4  1  0
  4  5  1  0
  5  6  1  0
  6  7  1  0
  7  8  1  0
  7  9  1  0
  2 10  1  0
 10 11  1  0
 11 12  1  0
 12 13  1  0
 13 14  1  1
 13 15  1  0
 15 16  1  0
 16 17  1  0
 17 18  2  0
 18 19  1  0
 19 20  1  0
 20 21  1  0
 21 22  1  0
 22 23  1  0
 22 24  1  0
 24 25  1  0
 24 26  1  0
 19 27  1  0
 27 28  1  6
 27 29  1  0
 29 30  1  0
 30 31  1  0
 31 32  1  6
  7  5  1  0
 31 10  1  0
 31 13  1  0
 27 15  1  0
 24 18  1  0
  1 33  1  0
  1 34  1  0
  1 35  1  0
  2 36  1  6
  3 37  1  0
  3 38  1  0
  4 39  1  0
  4 40  1  0
  5 41  1  6
  8 42  1  0
  8 43  1  0
  8 44  1  0
  9 45  1  0
  9 46  1  0
  9 47  1  0
 10 48  1  1
 11 49  1  0
 11 50  1  0
 12 51  1  0
 12 52  1  0
 14 53  1  0
 14 54  1  0
 14 55  1  0
 15 56  1  6
 16 57  1  0
 16 58  1  0
 17 59  1  0
 19 60  1  1
 20 61  1  0
 20 62  1  0
 21 63  1  0
 21 64  1  0
 22 65  1  1
 23 66  1  0
 25 67  1  0
 25 68  1  0
 25 69  1  0
 26 70  1  0
 26 71  1  0
 26 72  1  0
 28 73  1  0
 28 74  1  0
 28 75  1  0
 29 76  1  0
 29 77  1  0
 30 78  1  0
 30 79  1  0
 32 80  1  0
 32 81  1  0
 32 82  1  0
M  END
>  <meeko>  (13) 
{"is_sidechain": [false], "intermolecular_energy": 2.731, "internal_energy": -0.839}

$$$$
EPH_relaxed_0001_pdb2pqr_Repair_75_r2_0001_out
     RDKit          3D

 82 86  0  0  0  0  0  0  0  0999 V2000
    1.1230   20.0560   -2.5710 C   0  0  0  0  0  0  0  0  0  0  0  0
    0.8150   19.0220   -1.4840 C   0  0  2  0  0  0  0  0  0  0  0  0
    1.4380   19.4050   -0.1260 C   0  0  0  0  0  0  0  0  0  0  0  0
    0.4140   19.5390    1.0040 C   0  0  0  0  0  0  0  0  0  0  0  0
   -0.8520   20.1880    0.5310 C   0  0  2  0  0  0  0  0  0  0  0  0
   -1.9200   20.1860    1.4880 O   0  0  0  0  0  0  0  0  0  0  0  0
   -2.1420   19.4270    0.2890 C   0  0  0  0  0  0  0  0  0  0  0  0
   -2.2300   17.9490    0.5110 C   0  0  0  0  0  0  0  0  0  0  0  0
   -3.1660   20.0270   -0.6230 C   0  0  0  0  0  0  0  0  0  0  0  0
    1.3140   17.6490   -1.9170 C   0  0  1  0  0  0  0  0  0  0  0  0
    2.8330   17.6370   -2.2330 C   0  0  0  0  0  0  0  0  0  0  0  0
    3.3720   16.2530   -1.7890 C   0  0  0  0  0  0  0  0  0  0  0  0
    2.1040   15.4010   -1.5440 C   0  0  1  0  0  0  0  0  0  0  0  0
    1.6670   14.9160   -2.9620 C   0  0  0  0  0  0  0  0  0  0  0  0
    2.2560   14.2060   -0.5480 C   0  0  2  0  0  0  0  0  0  0  0  0
    3.2550   13.1180   -0.9800 C   0  0  0  0  0  0  0  0  0  0  0  0
    2.6750   12.0050   -1.7880 C   0  0  0  0  0  0  0  0  0  0  0  0
    1.3630   11.7300   -1.9120 C   0  0  0  0  0  0  0  0  0  0  0  0
    0.3140   12.5210   -1.1200 C   0  0  1  0  0  0  0  0  0  0  0  0
   -0.7010   11.5380   -0.4800 C   0  0  0  0  0  0  0  0  0  0  0  0
   -1.3300   10.5980   -1.5030 C   0  0  0  0  0  0  0  0  0  0  0  0
   -0.2590    9.7870   -2.2290 C   0  0  2  0  0  0  0  0  0  0  0  0
    0.3590    8.8980   -1.2930 O   0  0  0  0  0  0  0  0  0  0  0  0
    0.8250   10.6710   -2.9060 C   0  0  0  0  0  0  0  0  0  0  0  0
    0.2110   11.4110   -4.1190 C   0  0  0  0  0  0  0  0  0  0  0  0
    1.9190    9.7300   -3.4790 C   0  0  0  0  0  0  0  0  0  0  0  0
    0.8830   13.5760   -0.0770 C   0  0  1  0  0  0  0  0  0  0  0  0
    1.1590   12.8770    1.2900 C   0  0  0  0  0  0  0  0  0  0  0  0
   -0.2140   14.6710    0.1980 C   0  0  0  0  0  0  0  0  0  0  0  0
   -0.2370   15.8860   -0.7490 C   0  0  0  0  0  0  0  0  0  0  0  0
    1.1640   16.4860   -0.9040 C   0  0  2  0  0  0  0  0  0  0  0  0
    1.6220   17.0020    0.5030 C   0  0  0  0  0  0  0  0  0  0  0  0
    1.4069   21.0090   -2.1007 H   0  0  0  0  0  0  0  0  0  0  0  0
    1.9524   19.6944   -3.1965 H   0  0  0  0  0  0  0  0  0  0  0  0
    0.2309   20.2072   -3.1965 H   0  0  0  0  0  0  0  0  0  0  0  0
   -0.2766   18.9958   -1.3512 H   0  0  0  0  0  0  0  0  0  0  0  0
    2.1649   18.6284    0.1542 H   0  0  0  0  0  0  0  0  0  0  0  0
    1.9070   20.3917   -0.2540 H   0  0  0  0  0  0  0  0  0  0  0  0
    0.1777   18.5370    1.3916 H   0  0  0  0  0  0  0  0  0  0  0  0
    0.8513   20.1726    1.7897 H   0  0  0  0  0  0  0  0  0  0  0  0
   -0.2846   20.8955   -0.0914 H   0  0  0  0  0  0  0  0  0  0  0  0
   -2.2424   17.7405    1.5910 H   0  0  0  0  0  0  0  0  0  0  0  0
   -3.1527   17.5637    0.0526 H   0  0  0  0  0  0  0  0  0  0  0  0
   -1.3596   17.4569    0.0526 H   0  0  0  0  0  0  0  0  0  0  0  0
   -3.9621   20.4934   -0.0241 H   0  0  0  0  0  0  0  0  0  0  0  0
   -2.6902   20.7892   -1.2576 H   0  0  0  0  0  0  0  0  0  0  0  0
   -3.5983   19.2393   -1.2576 H   0  0  0  0  0  0  0  0  0  0  0  0
    0.6588   17.4803   -2.7843 H   0  0  0  0  0  0  0  0  0  0  0  0
    2.9966   17.7788   -3.3115 H   0  0  0  0  0  0  0  0  0  0  0  0
    3.3523   18.4506   -1.7054 H   0  0  0  0  0  0  0  0  0  0  0  0
    3.9933   15.8064   -2.5793 H   0  0  0  0  0  0  0  0  0  0  0  0
    4.0086   16.3205   -0.8945 H   0  0  0  0  0  0  0  0  0  0  0  0
    0.9338   14.1022   -2.8613 H   0  0  0  0  0  0  0  0  0  0  0  0
    1.2124   15.7532   -3.5119 H   0  0  0  0  0  0  0  0  0  0  0  0
    2.5469   14.5508   -3.5119 H   0  0  0  0  0  0  0  0  0  0  0  0
    2.7043   14.6895    0.3325 H   0  0  0  0  0  0  0  0  0  0  0  0
    4.0428   13.5983   -1.5790 H   0  0  0  0  0  0  0  0  0  0  0  0
    3.6258   12.6591   -0.0516 H   0  0  0  0  0  0  0  0  0  0  0  0
    3.3790   11.3546   -2.3277 H   0  0  0  0  0  0  0  0  0  0  0  0
   -0.1987   13.1631   -1.8513 H   0  0  0  0  0  0  0  0  0  0  0  0
   -0.1786   10.9357    0.2778 H   0  0  0  0  0  0  0  0  0  0  0  0
   -1.5097   12.1362   -0.0349 H   0  0  0  0  0  0  0  0  0  0  0  0
   -2.0145    9.9093   -0.9861 H   0  0  0  0  0  0  0  0  0  0  0  0
   -1.8771   11.2000   -2.2435 H   0  0  0  0  0  0  0  0  0  0  0  0
   -0.7570    9.2299   -3.0362 H   0  0  0  0  0  0  0  0  0  0  0  0
    0.6560    9.4300   -0.5350 H   0  0  0  0  0  0  0  0  0  0  0  0
   -0.4534   12.2117   -3.7621 H   0  0  0  0  0  0  0  0  0  0  0  0
    1.0162   11.8471   -4.7285 H   0  0  0  0  0  0  0  0  0  0  0  0
   -0.3662   10.7001   -4.7285 H   0  0  0  0  0  0  0  0  0  0  0  0
    2.4675    9.2582   -2.6504 H   0  0  0  0  0  0  0  0  0  0  0  0
    1.4466    8.9517   -4.0963 H   0  0  0  0  0  0  0  0  0  0  0  0
    2.6180   10.3135   -4.0963 H   0  0  0  0  0  0  0  0  0  0  0  0
    0.8901   13.5580    2.1109 H   0  0  0  0  0  0  0  0  0  0  0  0
    0.5554   11.9602    1.3615 H   0  0  0  0  0  0  0  0  0  0  0  0
    2.2261   12.6199    1.3615 H   0  0  0  0  0  0  0  0  0  0  0  0
   -1.1966   14.1808    0.1339 H   0  0  0  0  0  0  0  0  0  0  0  0
    0.0328   15.0827    1.1877 H   0  0  0  0  0  0  0  0  0  0  0  0
   -0.6029   15.5663   -1.7359 H   0  0  0  0  0  0  0  0  0  0  0  0
   -0.9015   16.6515   -0.3218 H   0  0  0  0  0  0  0  0  0  0  0  0
    1.1110   16.4263    1.2888 H   0  0  0  0  0  0  0  0  0  0  0  0
    2.7099   16.8747    0.6039 H   0  0  0  0  0  0  0  0  0  0  0  0
    1.3665   18.0672    0.6039 H   0  0  0  0  0  0  0  0  0  0  0  0
  1  2  1  0
  2  3  1  0
  3  4  1  0
  4  5  1  0
  5  6  1  0
  6  7  1  0
  7  8  1  0
  7  9  1  0
  2 10  1  0
 10 11  1  0
 11 12  1  0
 12 13  1  0
 13 14  1  6
 13 15  1  0
 15 16  1  0
 16 17  1  0
 17 18  2  0
 18 19  1  0
 19 20  1  0
 20 21  1  0
 21 22  1  0
 22 23  1  0
 22 24  1  0
 24 25  1  0
 24 26  1  0
 19 27  1  0
 27 28  1  1
 27 29  1  0
 29 30  1  0
 30 31  1  0
 31 32  1  1
  7  5  1  0
 31 10  1  0
 31 13  1  0
 27 15  1  0
 24 18  1  0
  1 33  1  0
  1 34  1  0
  1 35  1  0
  2 36  1  1
  3 37  1  0
  3 38  1  0
  4 39  1  0
  4 40  1  0
  5 41  1  6
  8 42  1  0
  8 43  1  0
  8 44  1  0
  9 45  1  0
  9 46  1  0
  9 47  1  0
 10 48  1  6
 11 49  1  0
 11 50  1  0
 12 51  1  0
 12 52  1  0
 14 53  1  0
 14 54  1  0
 14 55  1  0
 15 56  1  1
 16 57  1  0
 16 58  1  0
 17 59  1  0
 19 60  1  6
 20 61  1  0
 20 62  1  0
 21 63  1  0
 21 64  1  0
 22 65  1  6
 23 66  1  0
 25 67  1  0
 25 68  1  0
 25 69  1  0
 26 70  1  0
 26 71  1  0
 26 72  1  0
 28 73  1  0
 28 74  1  0
 28 75  1  0
 29 76  1  0
 29 77  1  0
 30 78  1  0
 30 79  1  0
 32 80  1  0
 32 81  1  0
 32 82  1  0
M  END
>  <meeko>  (14) 
{"is_sidechain": [false], "intermolecular_energy": 2.731, "internal_energy": -0.839}

$$$$
EPH_relaxed_0001_pdb2pqr_Repair_75_r2_0001_out
     RDKit          3D

 82 86  0  0  0  0  0  0  0  0999 V2000
   -1.7370   14.7990    0.5700 C   0  0  0  0  0  0  0  0  0  0  0  0
   -0.4030   15.5030    0.3060 C   0  0  2  0  0  0  0  0  0  0  0  0
   -0.4930   16.4950   -0.8710 C   0  0  0  0  0  0  0  0  0  0  0  0
   -0.0690   17.9210   -0.5080 C   0  0  0  0  0  0  0  0  0  0  0  0
    1.3560   17.9760   -0.0490 C   0  0  2  0  0  0  0  0  0  0  0  0
    2.0420   19.1940   -0.3690 O   0  0  0  0  0  0  0  0  0  0  0  0
    2.5400   18.0020   -0.9970 C   0  0  0  0  0  0  0  0  0  0  0  0
    2.3520   17.9720   -2.4810 C   0  0  0  0  0  0  0  0  0  0  0  0
    3.8770   17.5640   -0.4840 C   0  0  0  0  0  0  0  0  0  0  0  0
    0.6850   14.4710    0.0360 C   0  0  1  0  0  0  0  0  0  0  0  0
    0.8120   13.4250    1.1760 C   0  0  0  0  0  0  0  0  0  0  0  0
    1.1850   12.0770    0.5060 C   0  0  0  0  0  0  0  0  0  0  0  0
    1.5830   12.4570   -0.9390 C   0  0  1  0  0  0  0  0  0  0  0  0
    3.0580   12.9550   -0.8320 C   0  0  0  0  0  0  0  0  0  0  0  0
    1.4310   11.3330   -2.0150 C   0  0  2  0  0  0  0  0  0  0  0  0
    2.3110   10.0910   -1.7910 C   0  0  0  0  0  0  0  0  0  0  0  0
    3.6560   10.1370   -2.4360 C   0  0  0  0  0  0  0  0  0  0  0  0
    4.0330   11.0020   -3.3970 C   0  0  0  0  0  0  0  0  0  0  0  0
    3.0320   11.9950   -4.0000 C   0  0  1  0  0  0  0  0  0  0  0  0
    3.1570   11.9830   -5.5460 C   0  0  0  0  0  0  0  0  0  0  0  0
    4.5860   12.2350   -6.0190 C   0  0  0  0  0  0  0  0  0  0  0  0
    5.5420   11.1930   -5.4450 C   0  0  2  0  0  0  0  0  0  0  0  0
    5.2230    9.9160   -6.0070 O   0  0  0  0  0  0  0  0  0  0  0  0
    5.4960   11.1070   -3.8940 C   0  0  0  0  0  0  0  0  0  0  0  0
    6.1260   12.3830   -3.2830 C   0  0  0  0  0  0  0  0  0  0  0  0
    6.4000    9.9240   -3.4540 C   0  0  0  0  0  0  0  0  0  0  0  0
    1.5270   11.8470   -3.5090 C   0  0  1  0  0  0  0  0  0  0  0  0
    0.7800   10.8000   -4.3900 C   0  0  0  0  0  0  0  0  0  0  0  0
    0.7810   13.2180   -3.7190 C   0  0  0  0  0  0  0  0  0  0  0  0
    0.8700   14.2400   -2.5700 C   0  0  0  0  0  0  0  0  0  0  0  0
    0.5290   13.5870   -1.2270 C   0  0  2  0  0  0  0  0  0  0  0  0
   -0.9570   13.0950   -1.2970 C   0  0  0  0  0  0  0  0  0  0  0  0
   -1.8983   14.7139    1.6548 H   0  0  0  0  0  0  0  0  0  0  0  0
   -2.5547   15.3830    0.1224 H   0  0  0  0  0  0  0  0  0  0  0  0
   -1.7163   13.7944    0.1224 H   0  0  0  0  0  0  0  0  0  0  0  0
   -0.1504   16.0818    1.2066 H   0  0  0  0  0  0  0  0  0  0  0  0
    0.1591   16.1341   -1.6800 H   0  0  0  0  0  0  0  0  0  0  0  0
   -1.5498   16.5408   -1.1727 H   0  0  0  0  0  0  0  0  0  0  0  0
   -0.1831   18.5631   -1.3938 H   0  0  0  0  0  0  0  0  0  0  0  0
   -0.7083   18.2692    0.3166 H   0  0  0  0  0  0  0  0  0  0  0  0
    1.1233   17.3485    0.8240 H   0  0  0  0  0  0  0  0  0  0  0  0
    1.2901   17.8025   -2.7127 H   0  0  0  0  0  0  0  0  0  0  0  0
    2.6723   18.9326   -2.9107 H   0  0  0  0  0  0  0  0  0  0  0  0
    2.9554   17.1588   -2.9107 H   0  0  0  0  0  0  0  0  0  0  0  0
    3.8667   17.5674    0.6159 H   0  0  0  0  0  0  0  0  0  0  0  0
    4.0936   16.5479   -0.8456 H   0  0  0  0  0  0  0  0  0  0  0  0
    4.6528   18.2550   -0.8456 H   0  0  0  0  0  0  0  0  0  0  0  0
    1.5504   15.1405   -0.0779 H   0  0  0  0  0  0  0  0  0  0  0  0
    1.5992   13.7278    1.8821 H   0  0  0  0  0  0  0  0  0  0  0  0
   -0.1284   13.3391    1.7401 H   0  0  0  0  0  0  0  0  0  0  0  0
    2.0287   11.6035    1.0294 H   0  0  0  0  0  0  0  0  0  0  0  0
    0.3567   11.3537    0.5342 H   0  0  0  0  0  0  0  0  0  0  0  0
    3.3372   13.0493    0.2278 H   0  0  0  0  0  0  0  0  0  0  0  0
    3.7256   12.2324   -1.3242 H   0  0  0  0  0  0  0  0  0  0  0  0
    3.1510   13.9343   -1.3242 H   0  0  0  0  0  0  0  0  0  0  0  0
    0.3951   10.9975   -1.8588 H   0  0  0  0  0  0  0  0  0  0  0  0
    2.4577    9.9695   -0.7076 H   0  0  0  0  0  0  0  0  0  0  0  0
    1.7773    9.2516   -2.2606 H   0  0  0  0  0  0  0  0  0  0  0  0
    4.4021    9.4027   -2.0981 H   0  0  0  0  0  0  0  0  0  0  0  0
    3.3139   12.9843   -3.6104 H   0  0  0  0  0  0  0  0  0  0  0  0
    2.8301   11.0010   -5.9187 H   0  0  0  0  0  0  0  0  0  0  0  0
    2.5271   12.7949   -5.9385 H   0  0  0  0  0  0  0  0  0  0  0  0
    4.6158   12.1846   -7.1174 H   0  0  0  0  0  0  0  0  0  0  0  0
    4.9008   13.2299   -5.6710 H   0  0  0  0  0  0  0  0  0  0  0  0
    6.5638   11.5009   -5.7115 H   0  0  0  0  0  0  0  0  0  0  0  0
    5.0200    9.3130   -5.2720 H   0  0  0  0  0  0  0  0  0  0  0  0
    6.0940   12.3182   -2.1854 H   0  0  0  0  0  0  0  0  0  0  0  0
    7.1711   12.4709   -3.6148 H   0  0  0  0  0  0  0  0  0  0  0  0
    5.5604   13.2662   -3.6148 H   0  0  0  0  0  0  0  0  0  0  0  0
    6.4350    9.8781   -2.3555 H   0  0  0  0  0  0  0  0  0  0  0  0
    5.9891    8.9825   -3.8474 H   0  0  0  0  0  0  0  0  0  0  0  0
    7.4164   10.0732   -3.8474 H   0  0  0  0  0  0  0  0  0  0  0  0
    0.2639   10.0767   -3.7416 H   0  0  0  0  0  0  0  0  0  0  0  0
    0.0434   11.3139   -5.0250 H   0  0  0  0  0  0  0  0  0  0  0  0
    1.5056   10.2707   -5.0250 H   0  0  0  0  0  0  0  0  0  0  0  0
    1.2014   13.6912   -4.6186 H   0  0  0  0  0  0  0  0  0  0  0  0
   -0.2853   12.9575   -3.7907 H   0  0  0  0  0  0  0  0  0  0  0  0
    1.8927   14.6425   -2.5249 H   0  0  0  0  0  0  0  0  0  0  0  0
    0.1467   15.0464   -2.7613 H   0  0  0  0  0  0  0  0  0  0  0  0
   -1.3487   12.9653   -0.2773 H   0  0  0  0  0  0  0  0  0  0  0  0
   -1.5650   13.8398   -1.8314 H   0  0  0  0  0  0  0  0  0  0  0  0
   -1.0005   12.1345   -1.8314 H   0  0  0  0  0  0  0  0  0  0  0  0
  1  2  1  0
  2  3  1  0
  3  4  1  0
  4  5  1  0
  5  6  1  0
  6  7  1  0
  7  8  1  0
  7  9  1  0
  2 10  1  0
 10 11  1  0
 11 12  1  0
 12 13  1  0
 13 14  1  1
 13 15  1  0
 15 16  1  0
 16 17  1  0
 17 18  2  0
 18 19  1  0
 19 20  1  0
 20 21  1  0
 21 22  1  0
 22 23  1  0
 22 24  1  0
 24 25  1  0
 24 26  1  0
 19 27  1  0
 27 28  1  6
 27 29  1  0
 29 30  1  0
 30 31  1  0
 31 32  1  6
  7  5  1  0
 31 10  1  0
 31 13  1  0
 27 15  1  0
 24 18  1  0
  1 33  1  0
  1 34  1  0
  1 35  1  0
  2 36  1  1
  3 37  1  0
  3 38  1  0
  4 39  1  0
  4 40  1  0
  5 41  1  1
  8 42  1  0
  8 43  1  0
  8 44  1  0
  9 45  1  0
  9 46  1  0
  9 47  1  0
 10 48  1  6
 11 49  1  0
 11 50  1  0
 12 51  1  0
 12 52  1  0
 14 53  1  0
 14 54  1  0
 14 55  1  0
 15 56  1  6
 16 57  1  0
 16 58  1  0
 17 59  1  0
 19 60  1  1
 20 61  1  0
 20 62  1  0
 21 63  1  0
 21 64  1  0
 22 65  1  1
 23 66  1  0
 25 67  1  0
 25 68  1  0
 25 69  1  0
 26 70  1  0
 26 71  1  0
 26 72  1  0
 28 73  1  0
 28 74  1  0
 28 75  1  0
 29 76  1  0
 29 77  1  0
 30 78  1  0
 30 79  1  0
 32 80  1  0
 32 81  1  0
 32 82  1  0
M  END
>  <meeko>  (15) 
{"is_sidechain": [false], "intermolecular_energy": 2.731, "internal_energy": -0.839}

$$$$
EPH_relaxed_0001_pdb2pqr_Repair_75_r2_0001_out
     RDKit          3D

 82 86  0  0  0  0  0  0  0  0999 V2000
   -1.4420   16.6290   -6.3250 C   0  0  0  0  0  0  0  0  0  0  0  0
   -0.1690   16.0160   -6.9170 C   0  0  2  0  0  0  0  0  0  0  0  0
   -0.3330   15.6650   -8.4100 C   0  0  0  0  0  0  0  0  0  0  0  0
    0.4060   16.6200   -9.3510 C   0  0  0  0  0  0  0  0  0  0  0  0
    1.8160   16.1760   -9.5960 C   0  0  2  0  0  0  0  0  0  0  0  0
    2.3970   16.6680  -10.8100 O   0  0  0  0  0  0  0  0  0  0  0  0
    2.2160   15.2450  -10.7260 C   0  0  0  0  0  0  0  0  0  0  0  0
    1.2030   14.7030  -11.6850 C   0  0  0  0  0  0  0  0  0  0  0  0
    3.4970   14.4810  -10.6040 C   0  0  0  0  0  0  0  0  0  0  0  0
    0.2220   14.7710   -6.1300 C   0  0  1  0  0  0  0  0  0  0  0  0
    1.2770   13.9040   -6.8680 C   0  0  0  0  0  0  0  0  0  0  0  0
    2.1960   13.2930   -5.7790 C   0  0  0  0  0  0  0  0  0  0  0  0
    1.4490   13.5520   -4.4490 C   0  0  1  0  0  0  0  0  0  0  0  0
    0.3800   12.4190   -4.3620 C   0  0  0  0  0  0  0  0  0  0  0  0
    2.3330   13.6120   -3.1610 C   0  0  2  0  0  0  0  0  0  0  0  0
    3.0820   12.3110   -2.8220 C   0  0  0  0  0  0  0  0  0  0  0  0
    2.3450   11.3650   -1.9330 C   0  0  0  0  0  0  0  0  0  0  0  0
    1.2590   11.6670   -1.1980 C   0  0  0  0  0  0  0  0  0  0  0  0
    0.7210   13.1020   -1.1410 C   0  0  1  0  0  0  0  0  0  0  0  0
    0.4230   13.4850    0.3330 C   0  0  0  0  0  0  0  0  0  0  0  0
   -0.5030   12.4870    1.0210 C   0  0  0  0  0  0  0  0  0  0  0  0
    0.0930   11.0820    0.9950 C   0  0  2  0  0  0  0  0  0  0  0  0
    1.2690   11.0650    1.8100 O   0  0  0  0  0  0  0  0  0  0  0  0
    0.4430   10.5920   -0.4380 C   0  0  0  0  0  0  0  0  0  0  0  0
   -0.8610   10.3220   -1.2290 C   0  0  0  0  0  0  0  0  0  0  0  0
    1.1650    9.2230   -0.3120 C   0  0  0  0  0  0  0  0  0  0  0  0
    1.5910   14.1990   -1.8920 C   0  0  1  0  0  0  0  0  0  0  0  0
    2.6990   14.7430   -0.9400 C   0  0  0  0  0  0  0  0  0  0  0  0
    0.6720   15.4270   -2.2510 C   0  0  0  0  0  0  0  0  0  0  0  0
   -0.0820   15.3610   -3.5930 C   0  0  0  0  0  0  0  0  0  0  0  0
    0.8650   14.9830   -4.7360 C   0  0  2  0  0  0  0  0  0  0  0  0
    1.9390   16.1170   -4.8620 C   0  0  0  0  0  0  0  0  0  0  0  0
   -1.3856   16.6018   -5.2268 H   0  0  0  0  0  0  0  0  0  0  0  0
   -1.5376   17.6719   -6.6616 H   0  0  0  0  0  0  0  0  0  0  0  0
   -2.3169   16.0535   -6.6616 H   0  0  0  0  0  0  0  0  0  0  0  0
    0.6279   16.7704   -6.8408 H   0  0  0  0  0  0  0  0  0  0  0  0
    0.0544   14.6484   -8.5724 H   0  0  0  0  0  0  0  0  0  0  0  0
   -1.4046   15.7479   -8.6441 H   0  0  0  0  0  0  0  0  0  0  0  0
   -0.1279   16.6577  -10.3120 H   0  0  0  0  0  0  0  0  0  0  0  0
    0.4364   17.6125   -8.8777 H   0  0  0  0  0  0  0  0  0  0  0  0
    2.0218   16.1561   -8.5156 H   0  0  0  0  0  0  0  0  0  0  0  0
    0.3688   14.2567  -11.1238 H   0  0  0  0  0  0  0  0  0  0  0  0
    0.8241   15.5189  -12.3181 H   0  0  0  0  0  0  0  0  0  0  0  0
    1.6715   13.9350  -12.3181 H   0  0  0  0  0  0  0  0  0  0  0  0
    3.7382   14.3371   -9.5405 H   0  0  0  0  0  0  0  0  0  0  0  0
    3.3871   13.5008  -11.0909 H   0  0  0  0  0  0  0  0  0  0  0  0
    4.3072   15.0435  -11.0909 H   0  0  0  0  0  0  0  0  0  0  0  0
   -0.7680   14.3041   -6.0209 H   0  0  0  0  0  0  0  0  0  0  0  0
    0.7794   13.1041   -7.4360 H   0  0  0  0  0  0  0  0  0  0  0  0
    1.8573   14.5095   -7.5798 H   0  0  0  0  0  0  0  0  0  0  0  0
    2.3308   12.2140   -5.9451 H   0  0  0  0  0  0  0  0  0  0  0  0
    3.2028   13.7361   -5.7856 H   0  0  0  0  0  0  0  0  0  0  0  0
    0.1685   12.1948   -3.3061 H   0  0  0  0  0  0  0  0  0  0  0  0
   -0.5444   12.7481   -4.8593 H   0  0  0  0  0  0  0  0  0  0  0  0
    0.7622   11.5153   -4.8593 H   0  0  0  0  0  0  0  0  0  0  0  0
    3.1092   14.3391   -3.4418 H   0  0  0  0  0  0  0  0  0  0  0  0
    3.3021   11.7897   -3.7653 H   0  0  0  0  0  0  0  0  0  0  0  0
    3.9816   12.6134   -2.2660 H   0  0  0  0  0  0  0  0  0  0  0  0
    2.7217   10.3332   -1.8737 H   0  0  0  0  0  0  0  0  0  0  0  0
   -0.2127   13.0999   -1.7226 H   0  0  0  0  0  0  0  0  0  0  0  0
    1.3730   13.5238    0.8862 H   0  0  0  0  0  0  0  0  0  0  0  0
   -0.0831   14.4617    0.3284 H   0  0  0  0  0  0  0  0  0  0  0  0
   -0.6519   12.7956    2.0663 H   0  0  0  0  0  0  0  0  0  0  0  0
   -1.4629   12.4711    0.4841 H   0  0  0  0  0  0  0  0  0  0  0  0
   -0.6702   10.3923    1.3848 H   0  0  0  0  0  0  0  0  0  0  0  0
    1.3650   10.1670    2.1700 H   0  0  0  0  0  0  0  0  0  0  0  0
   -1.6883   10.1507   -0.5246 H   0  0  0  0  0  0  0  0  0  0  0  0
   -1.0925   11.1913   -1.8621 H   0  0  0  0  0  0  0  0  0  0  0  0
   -0.7283    9.4323   -1.8621 H   0  0  0  0  0  0  0  0  0  0  0  0
    1.2962    8.9742    0.7514 H   0  0  0  0  0  0  0  0  0  0  0  0
    0.5607    8.4435   -0.7991 H   0  0  0  0  0  0  0  0  0  0  0  0
    2.1495    9.2815   -0.7991 H   0  0  0  0  0  0  0  0  0  0  0  0
    2.3911   14.5918    0.1051 H   0  0  0  0  0  0  0  0  0  0  0  0
    3.6397   14.2043   -1.1267 H   0  0  0  0  0  0  0  0  0  0  0  0
    2.8481   15.8167   -1.1267 H   0  0  0  0  0  0  0  0  0  0  0  0
   -0.0779   15.5262   -1.4524 H   0  0  0  0  0  0  0  0  0  0  0  0
    1.3579   16.2815   -2.3477 H   0  0  0  0  0  0  0  0  0  0  0  0
   -0.8788   14.6060   -3.5213 H   0  0  0  0  0  0  0  0  0  0  0  0
   -0.5088   16.3525   -3.8046 H   0  0  0  0  0  0  0  0  0  0  0  0
    2.2477   16.4429   -3.8578 H   0  0  0  0  0  0  0  0  0  0  0  0
    2.8137   15.7345   -5.4084 H   0  0  0  0  0  0  0  0  0  0  0  0
    1.5095   16.9697   -5.4084 H   0  0  0  0  0  0  0  0  0  0  0  0
  1  2  1  0
  2  3  1  0
  3  4  1  0
  4  5  1  0
  5  6  1  0
  6  7  1  0
  7  8  1  0
  7  9  1  0
  2 10  1  0
 10 11  1  0
 11 12  1  0
 12 13  1  0
 13 14  1  1
 13 15  1  0
 15 16  1  0
 16 17  1  0
 17 18  2  0
 18 19  1  0
 19 20  1  0
 20 21  1  0
 21 22  1  0
 22 23  1  0
 22 24  1  0
 24 25  1  0
 24 26  1  0
 19 27  1  0
 27 28  1  1
 27 29  1  0
 29 30  1  0
 30 31  1  0
 31 32  1  6
  7  5  1  0
 31 10  1  0
 31 13  1  0
 27 15  1  0
 24 18  1  0
  1 33  1  0
  1 34  1  0
  1 35  1  0
  2 36  1  6
  3 37  1  0
  3 38  1  0
  4 39  1  0
  4 40  1  0
  5 41  1  1
  8 42  1  0
  8 43  1  0
  8 44  1  0
  9 45  1  0
  9 46  1  0
  9 47  1  0
 10 48  1  1
 11 49  1  0
 11 50  1  0
 12 51  1  0
 12 52  1  0
 14 53  1  0
 14 54  1  0
 14 55  1  0
 15 56  1  6
 16 57  1  0
 16 58  1  0
 17 59  1  0
 19 60  1  6
 20 61  1  0
 20 62  1  0
 21 63  1  0
 21 64  1  0
 22 65  1  1
 23 66  1  0
 25 67  1  0
 25 68  1  0
 25 69  1  0
 26 70  1  0
 26 71  1  0
 26 72  1  0
 28 73  1  0
 28 74  1  0
 28 75  1  0
 29 76  1  0
 29 77  1  0
 30 78  1  0
 30 79  1  0
 32 80  1  0
 32 81  1  0
 32 82  1  0
M  END
>  <meeko>  (16) 
{"is_sidechain": [false], "intermolecular_energy": 2.731, "internal_energy": -0.839}

$$$$
EPH_relaxed_0001_pdb2pqr_Repair_75_r2_0001_out
     RDKit          3D

 82 86  0  0  0  0  0  0  0  0999 V2000
   -0.2980   15.3610   -7.7510 C   0  0  0  0  0  0  0  0  0  0  0  0
    1.0640   15.3180   -7.0530 C   0  0  2  0  0  0  0  0  0  0  0  0
    2.2310   15.4710   -8.0490 C   0  0  0  0  0  0  0  0  0  0  0  0
    2.1360   16.7250   -8.9220 C   0  0  0  0  0  0  0  0  0  0  0  0
    1.7800   16.3890  -10.3380 C   0  0  2  0  0  0  0  0  0  0  0  0
    1.1500   15.1130  -10.5110 O   0  0  0  0  0  0  0  0  0  0  0  0
    2.4400   15.2700  -11.1240 C   0  0  0  0  0  0  0  0  0  0  0  0
    3.5090   14.4170  -10.5180 C   0  0  0  0  0  0  0  0  0  0  0  0
    2.3940   15.3230  -12.6190 C   0  0  0  0  0  0  0  0  0  0  0  0
    1.2090   14.0150   -6.2760 C   0  0  1  0  0  0  0  0  0  0  0  0
    2.6240   13.3920   -6.4130 C   0  0  0  0  0  0  0  0  0  0  0  0
    2.9500   12.7210   -5.0540 C   0  0  0  0  0  0  0  0  0  0  0  0
    1.6000   12.6890   -4.3000 C   0  0  1  0  0  0  0  0  0  0  0  0
    0.8490   11.4470   -4.8760 C   0  0  0  0  0  0  0  0  0  0  0  0
    1.6800   12.6420   -2.7400 C   0  0  2  0  0  0  0  0  0  0  0  0
    2.3640   11.3920   -2.1590 C   0  0  0  0  0  0  0  0  0  0  0  0
    1.4540   10.2450   -1.8660 C   0  0  0  0  0  0  0  0  0  0  0  0
    0.1120   10.3110   -1.7920 C   0  0  0  0  0  0  0  0  0  0  0  0
   -0.6190   11.6540   -1.9160 C   0  0  1  0  0  0  0  0  0  0  0  0
   -1.6850   11.7690   -0.7950 C   0  0  0  0  0  0  0  0  0  0  0  0
   -2.6440   10.5820   -0.7760 C   0  0  0  0  0  0  0  0  0  0  0  0
   -1.8850    9.2700   -0.5930 C   0  0  2  0  0  0  0  0  0  0  0  0
   -1.3050    9.2530    0.7150 O   0  0  0  0  0  0  0  0  0  0  0  0
   -0.7770    9.0500   -1.6600 C   0  0  0  0  0  0  0  0  0  0  0  0
   -1.4280    8.7680   -3.0370 C   0  0  0  0  0  0  0  0  0  0  0  0
    0.0040    7.7630   -1.2780 C   0  0  0  0  0  0  0  0  0  0  0  0
    0.3080   12.9420   -2.0110 C   0  0  1  0  0  0  0  0  0  0  0  0
    0.6650   13.4460   -0.5790 C   0  0  0  0  0  0  0  0  0  0  0  0
   -0.4960   14.1040   -2.7040 C   0  0  0  0  0  0  0  0  0  0  0  0
   -0.4390   14.1680   -4.2420 C   0  0  0  0  0  0  0  0  0  0  0  0
    1.0060   14.0760   -4.7410 C   0  0  2  0  0  0  0  0  0  0  0  0
    1.7800   15.3240   -4.1960 C   0  0  0  0  0  0  0  0  0  0  0  0
   -1.0968   15.3862   -6.9951 H   0  0  0  0  0  0  0  0  0  0  0  0
   -0.3596   16.2615   -8.3797 H   0  0  0  0  0  0  0  0  0  0  0  0
   -0.4162   14.4661   -8.3797 H   0  0  0  0  0  0  0  0  0  0  0  0
    1.1080   16.1706   -6.3593 H   0  0  0  0  0  0  0  0  0  0  0  0
    3.1705   15.5155   -7.4786 H   0  0  0  0  0  0  0  0  0  0  0  0
    2.1909   14.6049   -8.7259 H   0  0  0  0  0  0  0  0  0  0  0  0
    1.3633   17.3896   -8.5083 H   0  0  0  0  0  0  0  0  0  0  0  0
    3.1198   17.2171   -8.9234 H   0  0  0  0  0  0  0  0  0  0  0  0
    1.6040   17.4498  -10.5700 H   0  0  0  0  0  0  0  0  0  0  0  0
    3.4426   14.4700   -9.4213 H   0  0  0  0  0  0  0  0  0  0  0  0
    3.3751   13.3748  -10.8435 H   0  0  0  0  0  0  0  0  0  0  0  0
    4.4954   14.7789  -10.8435 H   0  0  0  0  0  0  0  0  0  0  0  0
    1.7037   16.1184  -12.9366 H   0  0  0  0  0  0  0  0  0  0  0  0
    3.4005   15.5335  -13.0096 H   0  0  0  0  0  0  0  0  0  0  0  0
    2.0440   14.3561  -13.0096 H   0  0  0  0  0  0  0  0  0  0  0  0
    0.3992   13.4326   -6.7397 H   0  0  0  0  0  0  0  0  0  0  0  0
    2.6314   12.6418   -7.2174 H   0  0  0  0  0  0  0  0  0  0  0  0
    3.3711   14.1593   -6.6642 H   0  0  0  0  0  0  0  0  0  0  0  0
    3.3337   11.7014   -5.2066 H   0  0  0  0  0  0  0  0  0  0  0  0
    3.7263   13.2651   -4.4960 H   0  0  0  0  0  0  0  0  0  0  0  0
    0.4747   10.8280   -4.0473 H   0  0  0  0  0  0  0  0  0  0  0  0
    0.0031   11.7838   -5.4932 H   0  0  0  0  0  0  0  0  0  0  0  0
    1.5402   10.8543   -5.4932 H   0  0  0  0  0  0  0  0  0  0  0  0
    2.3521   13.4827   -2.5131 H   0  0  0  0  0  0  0  0  0  0  0  0
    3.1191   11.0506   -2.8823 H   0  0  0  0  0  0  0  0  0  0  0  0
    2.7878   11.6990   -1.1915 H   0  0  0  0  0  0  0  0  0  0  0  0
    1.9200    9.2631   -1.6963 H   0  0  0  0  0  0  0  0  0  0  0  0
   -1.1115   11.6423   -2.8995 H   0  0  0  0  0  0  0  0  0  0  0  0
   -1.1712   11.8229    0.1761 H   0  0  0  0  0  0  0  0  0  0  0  0
   -2.2782   12.6747   -0.9897 H   0  0  0  0  0  0  0  0  0  0  0  0
   -3.3539   10.7061    0.0550 H   0  0  0  0  0  0  0  0  0  0  0  0
   -3.1786   10.5472   -1.7367 H   0  0  0  0  0  0  0  0  0  0  0  0
   -2.6070    8.4496   -0.7180 H   0  0  0  0  0  0  0  0  0  0  0  0
   -0.9650   10.1450    0.8980 H   0  0  0  0  0  0  0  0  0  0  0  0
   -2.4281    8.3348   -2.8880 H   0  0  0  0  0  0  0  0  0  0  0  0
   -1.5161    9.7086   -3.6004 H   0  0  0  0  0  0  0  0  0  0  0  0
   -0.8021    8.0603   -3.6004 H   0  0  0  0  0  0  0  0  0  0  0  0
    0.0560    7.6772   -0.1826 H   0  0  0  0  0  0  0  0  0  0  0  0
   -0.5133    6.8842   -1.6904 H   0  0  0  0  0  0  0  0  0  0  0  0
    1.0224    7.8161   -1.6904 H   0  0  0  0  0  0  0  0  0  0  0  0
    0.1985   12.7874    0.1684 H   0  0  0  0  0  0  0  0  0  0  0  0
    1.7571   13.4339   -0.4477 H   0  0  0  0  0  0  0  0  0  0  0  0
    0.2912   14.4722   -0.4477 H   0  0  0  0  0  0  0  0  0  0  0  0
   -1.5518   13.9967   -2.4145 H   0  0  0  0  0  0  0  0  0  0  0  0
   -0.0151   15.0314   -2.3597 H   0  0  0  0  0  0  0  0  0  0  0  0
   -1.0177   13.3305   -4.6588 H   0  0  0  0  0  0  0  0  0  0  0  0
   -0.8626   15.1290   -4.5691 H   0  0  0  0  0  0  0  0  0  0  0  0
    1.7710   15.3095   -3.0961 H   0  0  0  0  0  0  0  0  0  0  0  0
    2.8195   15.2961   -4.5546 H   0  0  0  0  0  0  0  0  0  0  0  0
    1.2930   16.2428   -4.5546 H   0  0  0  0  0  0  0  0  0  0  0  0
  1  2  1  0
  2  3  1  0
  3  4  1  0
  4  5  1  0
  5  6  1  0
  6  7  1  0
  7  8  1  0
  7  9  1  0
  2 10  1  0
 10 11  1  0
 11 12  1  0
 12 13  1  0
 13 14  1  6
 13 15  1  0
 15 16  1  0
 16 17  1  0
 17 18  2  0
 18 19  1  0
 19 20  1  0
 20 21  1  0
 21 22  1  0
 22 23  1  0
 22 24  1  0
 24 25  1  0
 24 26  1  0
 19 27  1  0
 27 28  1  1
 27 29  1  0
 29 30  1  0
 30 31  1  0
 31 32  1  1
  7  5  1  0
 31 10  1  0
 31 13  1  0
 27 15  1  0
 24 18  1  0
  1 33  1  0
  1 34  1  0
  1 35  1  0
  2 36  1  1
  3 37  1  0
  3 38  1  0
  4 39  1  0
  4 40  1  0
  5 41  1  6
  8 42  1  0
  8 43  1  0
  8 44  1  0
  9 45  1  0
  9 46  1  0
  9 47  1  0
 10 48  1  6
 11 49  1  0
 11 50  1  0
 12 51  1  0
 12 52  1  0
 14 53  1  0
 14 54  1  0
 14 55  1  0
 15 56  1  1
 16 57  1  0
 16 58  1  0
 17 59  1  0
 19 60  1  6
 20 61  1  0
 20 62  1  0
 21 63  1  0
 21 64  1  0
 22 65  1  1
 23 66  1  0
 25 67  1  0
 25 68  1  0
 25 69  1  0
 26 70  1  0
 26 71  1  0
 26 72  1  0
 28 73  1  0
 28 74  1  0
 28 75  1  0
 29 76  1  0
 29 77  1  0
 30 78  1  0
 30 79  1  0
 32 80  1  0
 32 81  1  0
 32 82  1  0
M  END
>  <meeko>  (17) 
{"is_sidechain": [false], "intermolecular_energy": 2.731, "internal_energy": -0.839}

$$$$
EPH_relaxed_0001_pdb2pqr_Repair_75_r2_0001_out
     RDKit          3D

 82 86  0  0  0  0  0  0  0  0999 V2000
    2.6860   11.4250   -5.4500 C   0  0  0  0  0  0  0  0  0  0  0  0
    1.7750   11.1530   -4.2500 C   0  0  2  0  0  0  0  0  0  0  0  0
    0.6340   10.1750   -4.5960 C   0  0  0  0  0  0  0  0  0  0  0  0
    0.4090    9.0920   -3.5380 C   0  0  0  0  0  0  0  0  0  0  0  0
   -0.0440    9.6770   -2.2340 C   0  0  2  0  0  0  0  0  0  0  0  0
   -0.0000    8.7700   -1.1240 O   0  0  0  0  0  0  0  0  0  0  0  0
   -1.3040    9.2350   -1.5130 C   0  0  0  0  0  0  0  0  0  0  0  0
   -2.1890    8.1660   -2.0720 C   0  0  0  0  0  0  0  0  0  0  0  0
   -1.9280   10.1710   -0.5260 C   0  0  0  0  0  0  0  0  0  0  0  0
    1.1970   12.4640   -3.7290 C   0  0  1  0  0  0  0  0  0  0  0  0
   -0.3450   12.4130   -3.5620 C   0  0  0  0  0  0  0  0  0  0  0  0
   -0.6890   13.2770   -2.3220 C   0  0  0  0  0  0  0  0  0  0  0  0
    0.6100   14.0590   -2.0180 C   0  0  1  0  0  0  0  0  0  0  0  0
    0.5990   15.2600   -3.0160 C   0  0  0  0  0  0  0  0  0  0  0  0
    0.8000   14.5370   -0.5420 C   0  0  2  0  0  0  0  0  0  0  0  0
   -0.2590   15.5320   -0.0370 C   0  0  0  0  0  0  0  0  0  0  0  0
    0.0670   16.9730   -0.2490 C   0  0  0  0  0  0  0  0  0  0  0  0
    1.2820   17.4620   -0.5600 C   0  0  0  0  0  0  0  0  0  0  0  0
    2.5070   16.5420   -0.6330 C   0  0  1  0  0  0  0  0  0  0  0  0
    3.6910   17.1950    0.1260 C   0  0  0  0  0  0  0  0  0  0  0  0
    3.9930   18.6070   -0.3640 C   0  0  0  0  0  0  0  0  0  0  0  0
    2.7690   19.5070   -0.2220 C   0  0  2  0  0  0  0  0  0  0  0  0
    2.4900   19.6890    1.1700 O   0  0  0  0  0  0  0  0  0  0  0  0
    1.5090   18.9470   -0.9390 C   0  0  0  0  0  0  0  0  0  0  0  0
    1.7020   19.0330   -2.4730 C   0  0  0  0  0  0  0  0  0  0  0  0
    0.3130   19.8760   -0.5990 C   0  0  0  0  0  0  0  0  0  0  0  0
    2.2650   15.0310   -0.2030 C   0  0  1  0  0  0  0  0  0  0  0  0
    2.4400   14.8820    1.3390 C   0  0  0  0  0  0  0  0  0  0  0  0
    3.3690   14.1250   -0.8650 C   0  0  0  0  0  0  0  0  0  0  0  0
    3.0710   13.5850   -2.2770 C   0  0  0  0  0  0  0  0  0  0  0  0
    1.6790   12.9510   -2.3390 C   0  0  2  0  0  0  0  0  0  0  0  0
    1.6670   11.7260   -1.3620 C   0  0  0  0  0  0  0  0  0  0  0  0
    3.6831   11.7227   -5.0934 H   0  0  0  0  0  0  0  0  0  0  0  0
    2.7717   10.5133   -6.0594 H   0  0  0  0  0  0  0  0  0  0  0  0
    2.2578   12.2345   -6.0594 H   0  0  0  0  0  0  0  0  0  0  0  0
    2.3889   10.6804   -3.4692 H   0  0  0  0  0  0  0  0  0  0  0  0
   -0.2962   10.7517   -4.7057 H   0  0  0  0  0  0  0  0  0  0  0  0
    0.9219    9.6614   -5.5252 H   0  0  0  0  0  0  0  0  0  0  0  0
   -0.3587    8.3929   -3.9010 H   0  0  0  0  0  0  0  0  0  0  0  0
    1.3646    8.5743   -3.3683 H   0  0  0  0  0  0  0  0  0  0  0  0
    0.3320   10.6702   -2.5208 H   0  0  0  0  0  0  0  0  0  0  0  0
   -2.6530    7.6055   -1.2470 H   0  0  0  0  0  0  0  0  0  0  0  0
   -2.9742    8.6260   -2.6900 H   0  0  0  0  0  0  0  0  0  0  0  0
   -1.5905    7.4805   -2.6900 H   0  0  0  0  0  0  0  0  0  0  0  0
   -1.7015    9.8312    0.4954 H   0  0  0  0  0  0  0  0  0  0  0  0
   -1.5233   11.1831   -0.6740 H   0  0  0  0  0  0  0  0  0  0  0  0
   -3.0179   10.1867   -0.6740 H   0  0  0  0  0  0  0  0  0  0  0  0
    1.5557   13.1478   -4.5124 H   0  0  0  0  0  0  0  0  0  0  0  0
   -0.8367   12.8220   -4.4569 H   0  0  0  0  0  0  0  0  0  0  0  0
   -0.6943   11.3781   -3.4316 H   0  0  0  0  0  0  0  0  0  0  0  0
   -1.5145   13.9682   -2.5474 H   0  0  0  0  0  0  0  0  0  0  0  0
   -1.0183   12.6675   -1.4676 H   0  0  0  0  0  0  0  0  0  0  0  0
    0.5903   16.2048   -2.4527 H   0  0  0  0  0  0  0  0  0  0  0  0
    1.4976   15.2188   -3.6492 H   0  0  0  0  0  0  0  0  0  0  0  0
   -0.2987   15.2024   -3.6492 H   0  0  0  0  0  0  0  0  0  0  0  0
    0.6360   13.6106    0.0280 H   0  0  0  0  0  0  0  0  0  0  0  0
   -1.2033   15.3170   -0.5585 H   0  0  0  0  0  0  0  0  0  0  0  0
   -0.3147   15.3899    1.0524 H   0  0  0  0  0  0  0  0  0  0  0  0
   -0.7548   17.6963   -0.1421 H   0  0  0  0  0  0  0  0  0  0  0  0
    2.7547   16.4490   -1.7007 H   0  0  0  0  0  0  0  0  0  0  0  0
    3.4420   17.2391    1.1965 H   0  0  0  0  0  0  0  0  0  0  0  0
    4.5845   16.5801   -0.0572 H   0  0  0  0  0  0  0  0  0  0  0  0
    4.8185   19.0255    0.2305 H   0  0  0  0  0  0  0  0  0  0  0  0
    4.2711   18.5577   -1.4271 H   0  0  0  0  0  0  0  0  0  0  0  0
    3.0058   20.4647   -0.7086 H   0  0  0  0  0  0  0  0  0  0  0  0
    2.9500   18.9840    1.6570 H   0  0  0  0  0  0  0  0  0  0  0  0
    2.6861   19.4715   -2.6947 H   0  0  0  0  0  0  0  0  0  0  0  0
    1.6440   18.0239   -2.9070 H   0  0  0  0  0  0  0  0  0  0  0  0
    0.9129   19.6647   -2.9070 H   0  0  0  0  0  0  0  0  0  0  0  0
    0.2099   19.9561    0.4932 H   0  0  0  0  0  0  0  0  0  0  0  0
    0.4917   20.8744   -1.0246 H   0  0  0  0  0  0  0  0  0  0  0  0
   -0.6102   19.4558   -1.0246 H   0  0  0  0  0  0  0  0  0  0  0  0
    1.7001   15.5119    1.8545 H   0  0  0  0  0  0  0  0  0  0  0  0
    2.2894   13.8306    1.6252 H   0  0  0  0  0  0  0  0  0  0  0  0
    3.4539   15.1983    1.6252 H   0  0  0  0  0  0  0  0  0  0  0  0
    4.2941   14.7173   -0.9238 H   0  0  0  0  0  0  0  0  0  0  0  0
    3.4318   13.2335   -0.2237 H   0  0  0  0  0  0  0  0  0  0  0  0
    3.1208   14.4147   -2.9975 H   0  0  0  0  0  0  0  0  0  0  0  0
    3.8179   12.8158   -2.5231 H   0  0  0  0  0  0  0  0  0  0  0  0
    1.6705   12.0860   -0.3226 H   0  0  0  0  0  0  0  0  0  0  0  0
    0.7629   11.1248   -1.5388 H   0  0  0  0  0  0  0  0  0  0  0  0
    2.5591   11.1072   -1.5388 H   0  0  0  0  0  0  0  0  0  0  0  0
  1  2  1  0
  2  3  1  0
  3  4  1  0
  4  5  1  0
  5  6  1  0
  6  7  1  0
  7  8  1  0
  7  9  1  0
  2 10  1  0
 10 11  1  0
 11 12  1  0
 12 13  1  0
 13 14  1  6
 13 15  1  0
 15 16  1  0
 16 17  1  0
 17 18  2  0
 18 19  1  0
 19 20  1  0
 20 21  1  0
 21 22  1  0
 22 23  1  0
 22 24  1  0
 24 25  1  0
 24 26  1  0
 19 27  1  0
 27 28  1  1
 27 29  1  0
 29 30  1  0
 30 31  1  0
 31 32  1  1
  7  5  1  0
 31 10  1  0
 31 13  1  0
 27 15  1  0
 24 18  1  0
  1 33  1  0
  1 34  1  0
  1 35  1  0
  2 36  1  1
  3 37  1  0
  3 38  1  0
  4 39  1  0
  4 40  1  0
  5 41  1  1
  8 42  1  0
  8 43  1  0
  8 44  1  0
  9 45  1  0
  9 46  1  0
  9 47  1  0
 10 48  1  6
 11 49  1  0
 11 50  1  0
 12 51  1  0
 12 52  1  0
 14 53  1  0
 14 54  1  0
 14 55  1  0
 15 56  1  1
 16 57  1  0
 16 58  1  0
 17 59  1  0
 19 60  1  6
 20 61  1  0
 20 62  1  0
 21 63  1  0
 21 64  1  0
 22 65  1  6
 23 66  1  0
 25 67  1  0
 25 68  1  0
 25 69  1  0
 26 70  1  0
 26 71  1  0
 26 72  1  0
 28 73  1  0
 28 74  1  0
 28 75  1  0
 29 76  1  0
 29 77  1  0
 30 78  1  0
 30 79  1  0
 32 80  1  0
 32 81  1  0
 32 82  1  0
M  END
>  <meeko>  (18) 
{"is_sidechain": [false], "intermolecular_energy": 2.731, "internal_energy": -0.839}

$$$$
EPH_relaxed_0001_pdb2pqr_Repair_75_r2_0001_out
     RDKit          3D

 82 86  0  0  0  0  0  0  0  0999 V2000
    0.0500    9.3430   -4.1490 C   0  0  0  0  0  0  0  0  0  0  0  0
    0.0350    9.5080   -2.6270 C   0  0  2  0  0  0  0  0  0  0  0  0
   -0.8950    8.4870   -1.9420 C   0  0  0  0  0  0  0  0  0  0  0  0
   -2.2260    8.2810   -2.6700 C   0  0  0  0  0  0  0  0  0  0  0  0
   -2.8240    6.9410   -2.3640 C   0  0  2  0  0  0  0  0  0  0  0  0
   -2.8080    6.0140   -3.4580 O   0  0  0  0  0  0  0  0  0  0  0  0
   -4.1040    6.4320   -3.0000 C   0  0  0  0  0  0  0  0  0  0  0  0
   -4.8640    7.2550   -3.9920 C   0  0  0  0  0  0  0  0  0  0  0  0
   -4.8720    5.3540   -2.2990 C   0  0  0  0  0  0  0  0  0  0  0  0
   -0.3900   10.9260   -2.2620 C   0  0  1  0  0  0  0  0  0  0  0  0
   -1.6100   10.9560   -1.3040 C   0  0  0  0  0  0  0  0  0  0  0  0
   -1.4080   12.1690   -0.3600 C   0  0  0  0  0  0  0  0  0  0  0  0
   -0.2650   12.9830   -1.0100 C   0  0  1  0  0  0  0  0  0  0  0  0
   -0.9550   13.8150   -2.1360 C   0  0  0  0  0  0  0  0  0  0  0  0
    0.5690   13.8920   -0.0490 C   0  0  2  0  0  0  0  0  0  0  0  0
   -0.2260   15.0130    0.6420 C   0  0  0  0  0  0  0  0  0  0  0  0
   -0.2690   16.3120   -0.0940 C   0  0  0  0  0  0  0  0  0  0  0  0
    0.5360   16.6580   -1.1160 C   0  0  0  0  0  0  0  0  0  0  0  0
    1.6780   15.7390   -1.5660 C   0  0  1  0  0  0  0  0  0  0  0  0
    2.9720   16.5740   -1.7530 C   0  0  0  0  0  0  0  0  0  0  0  0
    2.7720   17.7590   -2.6930 C   0  0  0  0  0  0  0  0  0  0  0  0
    1.6680   18.6810   -2.1810 C   0  0  2  0  0  0  0  0  0  0  0  0
    2.1040   19.2900   -0.9620 O   0  0  0  0  0  0  0  0  0  0  0  0
    0.3180   17.9480   -1.9460 C   0  0  0  0  0  0  0  0  0  0  0  0
   -0.3030   17.5500   -3.3080 C   0  0  0  0  0  0  0  0  0  0  0  0
   -0.6670   18.9580   -1.2980 C   0  0  0  0  0  0  0  0  0  0  0  0
    1.9130   14.4410   -0.6800 C   0  0  1  0  0  0  0  0  0  0  0  0
    2.8610   14.7740    0.5130 C   0  0  0  0  0  0  0  0  0  0  0  0
    2.6540   13.3540   -1.5460 C   0  0  0  0  0  0  0  0  0  0  0  0
    1.7700   12.4090   -2.3810 C   0  0  0  0  0  0  0  0  0  0  0  0
    0.6470   11.8120   -1.5270 C   0  0  2  0  0  0  0  0  0  0  0  0
    1.3110   10.9510   -0.3980 C   0  0  0  0  0  0  0  0  0  0  0  0
    0.1469    8.2767   -4.4013 H   0  0  0  0  0  0  0  0  0  0  0  0
   -0.8875    9.7356   -4.5696 H   0  0  0  0  0  0  0  0  0  0  0  0
    0.9014    9.8982   -4.5696 H   0  0  0  0  0  0  0  0  0  0  0  0
    1.0562    9.3207   -2.2636 H   0  0  0  0  0  0  0  0  0  0  0  0
   -0.3728    7.5201   -1.8929 H   0  0  0  0  0  0  0  0  0  0  0  0
   -1.1326    8.8871   -0.9452 H   0  0  0  0  0  0  0  0  0  0  0  0
   -2.9297    9.0656   -2.3551 H   0  0  0  0  0  0  0  0  0  0  0  0
   -2.0363    8.3326   -3.7523 H   0  0  0  0  0  0  0  0  0  0  0  0
   -2.4963    7.0075   -1.3161 H   0  0  0  0  0  0  0  0  0  0  0  0
   -5.5167    7.9618   -3.4587 H   0  0  0  0  0  0  0  0  0  0  0  0
   -4.1572    7.8134   -4.6233 H   0  0  0  0  0  0  0  0  0  0  0  0
   -5.4768    6.5948   -4.6233 H   0  0  0  0  0  0  0  0  0  0  0  0
   -4.7784    5.4854   -1.2109 H   0  0  0  0  0  0  0  0  0  0  0  0
   -5.9323    5.4136   -2.5856 H   0  0  0  0  0  0  0  0  0  0  0  0
   -4.4693    4.3713   -2.5856 H   0  0  0  0  0  0  0  0  0  0  0  0
   -0.5810   11.3262   -3.2687 H   0  0  0  0  0  0  0  0  0  0  0  0
   -2.5403   11.0743   -1.8790 H   0  0  0  0  0  0  0  0  0  0  0  0
   -1.6863   10.0193   -0.7324 H   0  0  0  0  0  0  0  0  0  0  0  0
   -2.3269   12.7705   -0.2986 H   0  0  0  0  0  0  0  0  0  0  0  0
   -1.1686   11.8617    0.6687 H   0  0  0  0  0  0  0  0  0  0  0  0
   -1.5947   14.5863   -1.6823 H   0  0  0  0  0  0  0  0  0  0  0  0
   -0.1870   14.2958   -2.7596 H   0  0  0  0  0  0  0  0  0  0  0  0
   -1.5696   13.1492   -2.7596 H   0  0  0  0  0  0  0  0  0  0  0  0
    0.8540   13.1917    0.7500 H   0  0  0  0  0  0  0  0  0  0  0  0
   -1.2605   14.6635    0.7753 H   0  0  0  0  0  0  0  0  0  0  0  0
    0.2958   15.2169    1.5887 H   0  0  0  0  0  0  0  0  0  0  0  0
   -1.0216   17.0477    0.2259 H   0  0  0  0  0  0  0  0  0  0  0  0
    1.3645   15.3151   -2.5314 H   0  0  0  0  0  0  0  0  0  0  0  0
    3.2924   16.9527   -0.7712 H   0  0  0  0  0  0  0  0  0  0  0  0
    3.7320   15.9168   -2.2007 H   0  0  0  0  0  0  0  0  0  0  0  0
    3.7118   18.3264   -2.7620 H   0  0  0  0  0  0  0  0  0  0  0  0
    2.4799   17.3771   -3.6824 H   0  0  0  0  0  0  0  0  0  0  0  0
    1.4828   19.4372   -2.9581 H   0  0  0  0  0  0  0  0  0  0  0  0
    1.3200   19.6550   -0.5190 H   0  0  0  0  0  0  0  0  0  0  0  0
   -1.2178   16.9637   -3.1366 H   0  0  0  0  0  0  0  0  0  0  0  0
   -0.5507   18.4580   -3.8774 H   0  0  0  0  0  0  0  0  0  0  0  0
    0.4185   16.9457   -3.8774 H   0  0  0  0  0  0  0  0  0  0  0  0
   -0.5974   18.8866   -0.2025 H   0  0  0  0  0  0  0  0  0  0  0  0
   -0.4078   19.9786   -1.6162 H   0  0  0  0  0  0  0  0  0  0  0  0
   -1.6937   18.7244   -1.6162 H   0  0  0  0  0  0  0  0  0  0  0  0
    2.3354   14.5894    1.4615 H   0  0  0  0  0  0  0  0  0  0  0  0
    3.7557   14.1363    0.4594 H   0  0  0  0  0  0  0  0  0  0  0  0
    3.1604   15.8311    0.4594 H   0  0  0  0  0  0  0  0  0  0  0  0
    3.3244   13.8821   -2.2400 H   0  0  0  0  0  0  0  0  0  0  0  0
    3.1619   12.7041   -0.8182 H   0  0  0  0  0  0  0  0  0  0  0  0
    1.3269   12.9735   -3.2146 H   0  0  0  0  0  0  0  0  0  0  0  0
    2.3956   11.5882   -2.7616 H   0  0  0  0  0  0  0  0  0  0  0  0
    1.0101   11.3411    0.5855 H   0  0  0  0  0  0  0  0  0  0  0  0
    0.9832    9.9053   -0.4936 H   0  0  0  0  0  0  0  0  0  0  0  0
    2.4056   11.0023   -0.4936 H   0  0  0  0  0  0  0  0  0  0  0  0
  1  2  1  0
  2  3  1  0
  3  4  1  0
  4  5  1  0
  5  6  1  0
  6  7  1  0
  7  8  1  0
  7  9  1  0
  2 10  1  0
 10 11  1  0
 11 12  1  0
 12 13  1  0
 13 14  1  6
 13 15  1  0
 15 16  1  0
 16 17  1  0
 17 18  2  0
 18 19  1  0
 19 20  1  0
 20 21  1  0
 21 22  1  0
 22 23  1  0
 22 24  1  0
 24 25  1  0
 24 26  1  0
 19 27  1  0
 27 28  1  1
 27 29  1  0
 29 30  1  0
 30 31  1  0
 31 32  1  1
  7  5  1  0
 31 10  1  0
 31 13  1  0
 27 15  1  0
 24 18  1  0
  1 33  1  0
  1 34  1  0
  1 35  1  0
  2 36  1  1
  3 37  1  0
  3 38  1  0
  4 39  1  0
  4 40  1  0
  5 41  1  1
  8 42  1  0
  8 43  1  0
  8 44  1  0
  9 45  1  0
  9 46  1  0
  9 47  1  0
 10 48  1  6
 11 49  1  0
 11 50  1  0
 12 51  1  0
 12 52  1  0
 14 53  1  0
 14 54  1  0
 14 55  1  0
 15 56  1  1
 16 57  1  0
 16 58  1  0
 17 59  1  0
 19 60  1  6
 20 61  1  0
 20 62  1  0
 21 63  1  0
 21 64  1  0
 22 65  1  6
 23 66  1  0
 25 67  1  0
 25 68  1  0
 25 69  1  0
 26 70  1  0
 26 71  1  0
 26 72  1  0
 28 73  1  0
 28 74  1  0
 28 75  1  0
 29 76  1  0
 29 77  1  0
 30 78  1  0
 30 79  1  0
 32 80  1  0
 32 81  1  0
 32 82  1  0
M  END
>  <meeko>  (19) 
{"is_sidechain": [false], "intermolecular_energy": 2.731, "internal_energy": -0.839}

$$$$
