EPH_relaxed_0001_pdb2pqr_Repair_306_r2_0001_out
     RDKit          3D

 82 86  0  0  0  0  0  0  0  0999 V2000
    4.1870   18.2390   -0.1190 C   0  0  0  0  0  0  0  0  0  0  0  0
    3.0460   18.6930   -1.0340 C   0  0  2  0  0  0  0  0  0  0  0  0
    2.3030   19.9200   -0.4690 C   0  0  0  0  0  0  0  0  0  0  0  0
    1.2800   19.5730    0.6170 C   0  0  0  0  0  0  0  0  0  0  0  0
   -0.0590   20.1830    0.3320 C   0  0  2  0  0  0  0  0  0  0  0  0
   -0.9610   20.1940    1.4470 O   0  0  0  0  0  0  0  0  0  0  0  0
   -1.3530   19.3920    0.3220 C   0  0  0  0  0  0  0  0  0  0  0  0
   -1.3710   17.9210    0.6000 C   0  0  0  0  0  0  0  0  0  0  0  0
   -2.5230   19.9430   -0.4330 C   0  0  0  0  0  0  0  0  0  0  0  0
    2.0670   17.5460   -1.2530 C   0  0  1  0  0  0  0  0  0  0  0  0
    0.8320   17.9670   -2.0930 C   0  0  0  0  0  0  0  0  0  0  0  0
    0.4410   16.7410   -2.9590 C   0  0  0  0  0  0  0  0  0  0  0  0
    1.2440   15.5650   -2.3550 C   0  0  1  0  0  0  0  0  0  0  0  0
    0.4150   15.1100   -1.1120 C   0  0  0  0  0  0  0  0  0  0  0  0
    1.5470   14.3700   -3.3160 C   0  0  2  0  0  0  0  0  0  0  0  0
    0.3070   13.6300   -3.8470 C   0  0  0  0  0  0  0  0  0  0  0  0
   -0.1540   12.4780   -3.0160 C   0  0  0  0  0  0  0  0  0  0  0  0
    0.5620   11.8770   -2.0470 C   0  0  0  0  0  0  0  0  0  0  0  0
    2.0140   12.2870   -1.7710 C   0  0  1  0  0  0  0  0  0  0  0  0
    2.8950   11.0170   -1.6390 C   0  0  0  0  0  0  0  0  0  0  0  0
    2.3570   10.0380   -0.5990 C   0  0  0  0  0  0  0  0  0  0  0  0
    0.9320    9.6090   -0.9400 C   0  0  2  0  0  0  0  0  0  0  0  0
    0.9590    8.8370   -2.1440 O   0  0  0  0  0  0  0  0  0  0  0  0
   -0.0450   10.8060   -1.1080 C   0  0  0  0  0  0  0  0  0  0  0  0
   -0.3070   11.4610    0.2710 C   0  0  0  0  0  0  0  0  0  0  0  0
   -1.4100   10.2440   -1.5880 C   0  0  0  0  0  0  0  0  0  0  0  0
    2.6340   13.3580   -2.7690 C   0  0  1  0  0  0  0  0  0  0  0  0
    3.2380   12.6390   -4.0130 C   0  0  0  0  0  0  0  0  0  0  0  0
    3.8300   14.0930   -2.0560 C   0  0  0  0  0  0  0  0  0  0  0  0
    3.4810   15.3370   -1.2180 C   0  0  0  0  0  0  0  0  0  0  0  0
    2.5910   16.3000   -2.0100 C   0  0  2  0  0  0  0  0  0  0  0  0
    3.4060   16.7910   -3.2540 C   0  0  0  0  0  0  0  0  0  0  0  0
    3.8844   18.3594    0.9317 H   0  0  0  0  0  0  0  0  0  0  0  0
    4.4160   17.1812   -0.3157 H   0  0  0  0  0  0  0  0  0  0  0  0
    5.0801   18.8503   -0.3157 H   0  0  0  0  0  0  0  0  0  0  0  0
    3.4906   18.9899   -1.9954 H   0  0  0  0  0  0  0  0  0  0  0  0
    3.0456   20.6085   -0.0395 H   0  0  0  0  0  0  0  0  0  0  0  0
    1.7461   20.3714   -1.3033 H   0  0  0  0  0  0  0  0  0  0  0  0
    1.1703   18.4796    0.6672 H   0  0  0  0  0  0  0  0  0  0  0  0
    1.6444   19.9768    1.5731 H   0  0  0  0  0  0  0  0  0  0  0  0
    0.3860   20.8790   -0.3943 H   0  0  0  0  0  0  0  0  0  0  0  0
   -1.3731   17.7533    1.6871 H   0  0  0  0  0  0  0  0  0  0  0  0
   -2.2747   17.4754    0.1586 H   0  0  0  0  0  0  0  0  0  0  0  0
   -0.4785   17.4535    0.1586 H   0  0  0  0  0  0  0  0  0  0  0  0
   -3.2825   20.3007    0.2778 H   0  0  0  0  0  0  0  0  0  0  0  0
   -2.1903   20.7791   -1.0657 H   0  0  0  0  0  0  0  0  0  0  0  0
   -2.9556   19.1540   -1.0657 H   0  0  0  0  0  0  0  0  0  0  0  0
    1.8487   17.2865   -0.2066 H   0  0  0  0  0  0  0  0  0  0  0  0
   -0.0009   18.2434   -1.4298 H   0  0  0  0  0  0  0  0  0  0  0  0
    1.0616   18.8388   -2.7233 H   0  0  0  0  0  0  0  0  0  0  0  0
   -0.6399   16.5477   -2.8930 H   0  0  0  0  0  0  0  0  0  0  0  0
    0.6644   16.8948   -4.0250 H   0  0  0  0  0  0  0  0  0  0  0  0
    0.9439   15.4003   -0.1923 H   0  0  0  0  0  0  0  0  0  0  0  0
   -0.5735   15.5920   -1.1342 H   0  0  0  0  0  0  0  0  0  0  0  0
    0.2907   14.0173   -1.1342 H   0  0  0  0  0  0  0  0  0  0  0  0
    1.9903   14.8741   -4.1874 H   0  0  0  0  0  0  0  0  0  0  0  0
   -0.5187   14.3539   -3.9120 H   0  0  0  0  0  0  0  0  0  0  0  0
    0.5993   13.2059   -4.8189 H   0  0  0  0  0  0  0  0  0  0  0  0
   -1.1635   12.0876   -3.2121 H   0  0  0  0  0  0  0  0  0  0  0  0
    1.9991   12.8321   -0.8157 H   0  0  0  0  0  0  0  0  0  0  0  0
    2.9319   10.5103   -2.6146 H   0  0  0  0  0  0  0  0  0  0  0  0
    3.8952   11.3366   -1.3112 H   0  0  0  0  0  0  0  0  0  0  0  0
    3.0042    9.1489   -0.5727 H   0  0  0  0  0  0  0  0  0  0  0  0
    2.3487   10.5365    0.3815 H   0  0  0  0  0  0  0  0  0  0  0  0
    0.5555    9.0139   -0.0949 H   0  0  0  0  0  0  0  0  0  0  0  0
    1.5760    8.0990   -2.0070 H   0  0  0  0  0  0  0  0  0  0  0  0
   -0.0261   10.7588    1.0698 H   0  0  0  0  0  0  0  0  0  0  0  0
    0.2934   12.3782    0.3613 H   0  0  0  0  0  0  0  0  0  0  0  0
   -1.3744   11.7111    0.3613 H   0  0  0  0  0  0  0  0  0  0  0  0
   -2.0290    9.9892   -0.7151 H   0  0  0  0  0  0  0  0  0  0  0  0
   -1.9261   11.0028   -2.1945 H   0  0  0  0  0  0  0  0  0  0  0  0
   -1.2422    9.3418   -2.1945 H   0  0  0  0  0  0  0  0  0  0  0  0
    3.9125   11.8361   -3.6808 H   0  0  0  0  0  0  0  0  0  0  0  0
    2.4262   12.2090   -4.6181 H   0  0  0  0  0  0  0  0  0  0  0  0
    3.8016   13.3645   -4.6181 H   0  0  0  0  0  0  0  0  0  0  0  0
    4.3154   13.3669   -1.3873 H   0  0  0  0  0  0  0  0  0  0  0  0
    4.4662   14.4655   -2.8724 H   0  0  0  0  0  0  0  0  0  0  0  0
    2.9488   15.0206   -0.3088 H   0  0  0  0  0  0  0  0  0  0  0  0
    4.4145   15.8569   -0.9567 H   0  0  0  0  0  0  0  0  0  0  0  0
    4.3024   17.3310   -2.9152 H   0  0  0  0  0  0  0  0  0  0  0  0
    3.7075   15.9241   -3.8603 H   0  0  0  0  0  0  0  0  0  0  0  0
    2.7805   17.4627   -3.8603 H   0  0  0  0  0  0  0  0  0  0  0  0
  1  2  1  0
  2  3  1  0
  3  4  1  0
  4  5  1  0
  5  6  1  0
  6  7  1  0
  7  8  1  0
  7  9  1  0
  2 10  1  0
 10 11  1  0
 11 12  1  0
 12 13  1  0
 13 14  1  1
 13 15  1  0
 15 16  1  0
 16 17  1  0
 17 18  2  0
 18 19  1  0
 19 20  1  0
 20 21  1  0
 21 22  1  0
 22 23  1  0
 22 24  1  0
 24 25  1  0
 24 26  1  0
 19 27  1  0
 27 28  1  6
 27 29  1  0
 29 30  1  0
 30 31  1  0
 31 32  1  6
  7  5  1  0
 31 10  1  0
 31 13  1  0
 27 15  1  0
 24 18  1  0
  1 33  1  0
  1 34  1  0
  1 35  1  0
  2 36  1  6
  3 37  1  0
  3 38  1  0
  4 39  1  0
  4 40  1  0
  5 41  1  6
  8 42  1  0
  8 43  1  0
  8 44  1  0
  9 45  1  0
  9 46  1  0
  9 47  1  0
 10 48  1  1
 11 49  1  0
 11 50  1  0
 12 51  1  0
 12 52  1  0
 14 53  1  0
 14 54  1  0
 14 55  1  0
 15 56  1  6
 16 57  1  0
 16 58  1  0
 17 59  1  0
 19 60  1  1
 20 61  1  0
 20 62  1  0
 21 63  1  0
 21 64  1  0
 22 65  1  1
 23 66  1  0
 25 67  1  0
 25 68  1  0
 25 69  1  0
 26 70  1  0
 26 71  1  0
 26 72  1  0
 28 73  1  0
 28 74  1  0
 28 75  1  0
 29 76  1  0
 29 77  1  0
 30 78  1  0
 30 79  1  0
 32 80  1  0
 32 81  1  0
 32 82  1  0
M  END
>  <meeko>  (1) 
{"is_sidechain": [false], "intermolecular_energy": 2.731, "internal_energy": -0.839}

$$$$
EPH_relaxed_0001_pdb2pqr_Repair_306_r2_0001_out
     RDKit          3D

 82 86  0  0  0  0  0  0  0  0999 V2000
    4.8400   17.4860   -1.4620 C   0  0  0  0  0  0  0  0  0  0  0  0
    3.4780   18.1660   -1.2970 C   0  0  2  0  0  0  0  0  0  0  0  0
    3.4130   19.0350   -0.0250 C   0  0  0  0  0  0  0  0  0  0  0  0
    3.9410   18.3320    1.2280 C   0  0  0  0  0  0  0  0  0  0  0  0
    3.8010   19.1930    2.4470 C   0  0  2  0  0  0  0  0  0  0  0  0
    4.8190   20.1930    2.5930 O   0  0  0  0  0  0  0  0  0  0  0  0
    4.7840   19.1710    3.6030 C   0  0  0  0  0  0  0  0  0  0  0  0
    5.9770   18.2680    3.5960 C   0  0  0  0  0  0  0  0  0  0  0  0
    4.3250   19.6620    4.9410 C   0  0  0  0  0  0  0  0  0  0  0  0
    2.3730   17.1170   -1.2680 C   0  0  1  0  0  0  0  0  0  0  0  0
    1.0050   17.6760   -1.7440 C   0  0  0  0  0  0  0  0  0  0  0  0
    0.2890   16.5250   -2.4960 C   0  0  0  0  0  0  0  0  0  0  0  0
    1.1070   15.2610   -2.1450 C   0  0  1  0  0  0  0  0  0  0  0  0
    0.5940   14.8290   -0.7350 C   0  0  0  0  0  0  0  0  0  0  0  0
    1.0350   14.0830   -3.1710 C   0  0  2  0  0  0  0  0  0  0  0  0
   -0.3640   13.4750   -3.3680 C   0  0  0  0  0  0  0  0  0  0  0  0
   -0.6970   12.3350   -2.4630 C   0  0  0  0  0  0  0  0  0  0  0  0
    0.1870   11.6360   -1.7280 C   0  0  0  0  0  0  0  0  0  0  0  0
    1.6930   11.9080   -1.8390 C   0  0  1  0  0  0  0  0  0  0  0  0
    2.4550   10.5620   -1.9650 C   0  0  0  0  0  0  0  0  0  0  0  0
    2.1190    9.5920   -0.8360 C   0  0  0  0  0  0  0  0  0  0  0  0
    0.6210    9.3010   -0.7950 C   0  0  2  0  0  0  0  0  0  0  0  0
    0.2580    8.5790   -1.9760 O   0  0  0  0  0  0  0  0  0  0  0  0
   -0.2500   10.5840   -0.6790 C   0  0  0  0  0  0  0  0  0  0  0  0
   -0.0790   11.2030    0.7300 C   0  0  0  0  0  0  0  0  0  0  0  0
   -1.7400   10.1620   -0.7900 C   0  0  0  0  0  0  0  0  0  0  0  0
    2.1270   12.9600   -2.9480 C   0  0  1  0  0  0  0  0  0  0  0  0
    2.3150   12.2430   -4.3190 C   0  0  0  0  0  0  0  0  0  0  0  0
    3.5320   13.5600   -2.5650 C   0  0  0  0  0  0  0  0  0  0  0  0
    3.5330   14.7950   -1.6440 C   0  0  0  0  0  0  0  0  0  0  0  0
    2.5600   15.8620   -2.1570 C   0  0  2  0  0  0  0  0  0  0  0  0
    3.0640   16.3310   -3.5640 C   0  0  0  0  0  0  0  0  0  0  0  0
    5.2661   17.2733   -0.4705 H   0  0  0  0  0  0  0  0  0  0  0  0
    4.7150   16.5446   -2.0170 H   0  0  0  0  0  0  0  0  0  0  0  0
    5.5173   18.1517   -2.0170 H   0  0  0  0  0  0  0  0  0  0  0  0
    3.3347   18.8328   -2.1600 H   0  0  0  0  0  0  0  0  0  0  0  0
    4.0124   19.9419   -0.1930 H   0  0  0  0  0  0  0  0  0  0  0  0
    2.3518   19.2609    0.1562 H   0  0  0  0  0  0  0  0  0  0  0  0
    3.3734   17.4023    1.3811 H   0  0  0  0  0  0  0  0  0  0  0  0
    5.0101   18.1209    1.0781 H   0  0  0  0  0  0  0  0  0  0  0  0
    2.7047   19.1112    2.4090 H   0  0  0  0  0  0  0  0  0  0  0  0
    6.2732   18.0438    4.6314 H   0  0  0  0  0  0  0  0  0  0  0  0
    5.7254   17.3320    3.0757 H   0  0  0  0  0  0  0  0  0  0  0  0
    6.8095   18.7643    3.0757 H   0  0  0  0  0  0  0  0  0  0  0  0
    4.8455   19.1052    5.7342 H   0  0  0  0  0  0  0  0  0  0  0  0
    4.5523   20.7341    5.0359 H   0  0  0  0  0  0  0  0  0  0  0  0
    3.2401   19.5074    5.0359 H   0  0  0  0  0  0  0  0  0  0  0  0
    2.4147   16.8354   -0.2055 H   0  0  0  0  0  0  0  0  0  0  0  0
    0.4045   17.9948   -0.8793 H   0  0  0  0  0  0  0  0  0  0  0  0
    1.1413   18.5502   -2.3976 H   0  0  0  0  0  0  0  0  0  0  0  0
   -0.7504   16.4231   -2.1507 H   0  0  0  0  0  0  0  0  0  0  0  0
    0.2403   16.7023   -3.5805 H   0  0  0  0  0  0  0  0  0  0  0  0
    1.1899   15.3308    0.0416 H   0  0  0  0  0  0  0  0  0  0  0  0
   -0.4632   15.1129   -0.6266 H   0  0  0  0  0  0  0  0  0  0  0  0
    0.6939   13.7389   -0.6266 H   0  0  0  0  0  0  0  0  0  0  0  0
    1.2809   14.5820   -4.1199 H   0  0  0  0  0  0  0  0  0  0  0  0
   -1.1064   14.2694   -3.2014 H   0  0  0  0  0  0  0  0  0  0  0  0
   -0.3774   13.0668   -4.3894 H   0  0  0  0  0  0  0  0  0  0  0  0
   -1.7548   12.0418   -2.3911 H   0  0  0  0  0  0  0  0  0  0  0  0
    1.9802   12.4135   -0.9052 H   0  0  0  0  0  0  0  0  0  0  0  0
    2.1875   10.0937   -2.9237 H   0  0  0  0  0  0  0  0  0  0  0  0
    3.5315   10.7809   -1.9081 H   0  0  0  0  0  0  0  0  0  0  0  0
    2.6645    8.6503   -0.9961 H   0  0  0  0  0  0  0  0  0  0  0  0
    2.4142   10.0496    0.1198 H   0  0  0  0  0  0  0  0  0  0  0  0
    0.4261    8.7063    0.1096 H   0  0  0  0  0  0  0  0  0  0  0  0
    0.7260    8.9870   -2.7250 H   0  0  0  0  0  0  0  0  0  0  0  0
   -0.2898   10.4400    1.4938 H   0  0  0  0  0  0  0  0  0  0  0  0
    0.9529   11.5652    0.8486 H   0  0  0  0  0  0  0  0  0  0  0  0
   -0.7786   12.0435    0.8486 H   0  0  0  0  0  0  0  0  0  0  0  0
   -2.1632   10.0421    0.2182 H   0  0  0  0  0  0  0  0  0  0  0  0
   -2.3010   10.9366   -1.3334 H   0  0  0  0  0  0  0  0  0  0  0  0
   -1.8115    9.2083   -1.3334 H   0  0  0  0  0  0  0  0  0  0  0  0
    2.5906   11.1919   -4.1483 H   0  0  0  0  0  0  0  0  0  0  0  0
    1.3748   12.2878   -4.8882 H   0  0  0  0  0  0  0  0  0  0  0  0
    3.1123   12.7433   -4.8882 H   0  0  0  0  0  0  0  0  0  0  0  0
    4.1054   12.7684   -2.0605 H   0  0  0  0  0  0  0  0  0  0  0  0
    3.9641   13.9090   -3.5145 H   0  0  0  0  0  0  0  0  0  0  0  0
    3.2307   14.4892   -0.6315 H   0  0  0  0  0  0  0  0  0  0  0  0
    4.5467   15.2219   -1.6305 H   0  0  0  0  0  0  0  0  0  0  0  0
    3.8639   17.0754   -3.4375 H   0  0  0  0  0  0  0  0  0  0  0  0
    3.4528   15.4660   -4.1213 H   0  0  0  0  0  0  0  0  0  0  0  0
    2.2292   16.7810   -4.1213 H   0  0  0  0  0  0  0  0  0  0  0  0
  1  2  1  0
  2  3  1  0
  3  4  1  0
  4  5  1  0
  5  6  1  0
  6  7  1  0
  7  8  1  0
  7  9  1  0
  2 10  1  0
 10 11  1  0
 11 12  1  0
 12 13  1  0
 13 14  1  1
 13 15  1  0
 15 16  1  0
 16 17  1  0
 17 18  2  0
 18 19  1  0
 19 20  1  0
 20 21  1  0
 21 22  1  0
 22 23  1  0
 22 24  1  0
 24 25  1  0
 24 26  1  0
 19 27  1  0
 27 28  1  6
 27 29  1  0
 29 30  1  0
 30 31  1  0
 31 32  1  6
  7  5  1  0
 31 10  1  0
 31 13  1  0
 27 15  1  0
 24 18  1  0
  1 33  1  0
  1 34  1  0
  1 35  1  0
  2 36  1  6
  3 37  1  0
  3 38  1  0
  4 39  1  0
  4 40  1  0
  5 41  1  1
  8 42  1  0
  8 43  1  0
  8 44  1  0
  9 45  1  0
  9 46  1  0
  9 47  1  0
 10 48  1  1
 11 49  1  0
 11 50  1  0
 12 51  1  0
 12 52  1  0
 14 53  1  0
 14 54  1  0
 14 55  1  0
 15 56  1  6
 16 57  1  0
 16 58  1  0
 17 59  1  0
 19 60  1  1
 20 61  1  0
 20 62  1  0
 21 63  1  0
 21 64  1  0
 22 65  1  1
 23 66  1  0
 25 67  1  0
 25 68  1  0
 25 69  1  0
 26 70  1  0
 26 71  1  0
 26 72  1  0
 28 73  1  0
 28 74  1  0
 28 75  1  0
 29 76  1  0
 29 77  1  0
 30 78  1  0
 30 79  1  0
 32 80  1  0
 32 81  1  0
 32 82  1  0
M  END
>  <meeko>  (2) 
{"is_sidechain": [false], "intermolecular_energy": 2.731, "internal_energy": -0.839}

$$$$
EPH_relaxed_0001_pdb2pqr_Repair_306_r2_0001_out
     RDKit          3D

 82 86  0  0  0  0  0  0  0  0999 V2000
    3.7960   17.4920   -3.5760 C   0  0  0  0  0  0  0  0  0  0  0  0
    2.5050   17.4260   -2.7550 C   0  0  2  0  0  0  0  0  0  0  0  0
    2.7710   17.5650   -1.2420 C   0  0  0  0  0  0  0  0  0  0  0  0
    2.2120   18.8540   -0.6350 C   0  0  0  0  0  0  0  0  0  0  0  0
    0.9430   18.6050    0.1220 C   0  0  2  0  0  0  0  0  0  0  0  0
    0.2040   17.4550   -0.3090 O   0  0  0  0  0  0  0  0  0  0  0  0
   -0.4370   18.7280   -0.4950 C   0  0  0  0  0  0  0  0  0  0  0  0
   -0.6190   19.1140   -1.9290 C   0  0  0  0  0  0  0  0  0  0  0  0
   -1.6090   18.9500    0.4100 C   0  0  0  0  0  0  0  0  0  0  0  0
    1.7760   16.1170   -3.0370 C   0  0  1  0  0  0  0  0  0  0  0  0
    1.6600   15.8140   -4.5550 C   0  0  0  0  0  0  0  0  0  0  0  0
    1.7690   14.2750   -4.7130 C   0  0  0  0  0  0  0  0  0  0  0  0
    1.6110   13.7230   -3.2770 C   0  0  1  0  0  0  0  0  0  0  0  0
    0.0720   13.7140   -3.0180 C   0  0  0  0  0  0  0  0  0  0  0  0
    2.2510   12.3240   -3.0000 C   0  0  2  0  0  0  0  0  0  0  0  0
    1.6630   11.1630   -3.8210 C   0  0  0  0  0  0  0  0  0  0  0  0
    0.5150   10.4510   -3.1860 C   0  0  0  0  0  0  0  0  0  0  0  0
    0.1590   10.5400   -1.8920 C   0  0  0  0  0  0  0  0  0  0  0  0
    1.0010   11.3480   -0.8960 C   0  0  1  0  0  0  0  0  0  0  0  0
    1.2160   10.5170    0.3960 C   0  0  0  0  0  0  0  0  0  0  0  0
   -0.0970   10.0300    1.0020 C   0  0  0  0  0  0  0  0  0  0  0  0
   -0.8790    9.1820    0.0030 C   0  0  2  0  0  0  0  0  0  0  0  0
   -0.1540    7.9730   -0.2420 O   0  0  0  0  0  0  0  0  0  0  0  0
   -1.1470    9.9130   -1.3430 C   0  0  0  0  0  0  0  0  0  0  0  0
   -2.1760   11.0480   -1.1230 C   0  0  0  0  0  0  0  0  0  0  0  0
   -1.8170    8.9000   -2.3110 C   0  0  0  0  0  0  0  0  0  0  0  0
    2.3570   11.9520   -1.4660 C   0  0  1  0  0  0  0  0  0  0  0  0
    3.5020   10.9000   -1.3400 C   0  0  0  0  0  0  0  0  0  0  0  0
    2.7840   13.1810   -0.5800 C   0  0  0  0  0  0  0  0  0  0  0  0
    2.2130   14.5560   -0.9760 C   0  0  0  0  0  0  0  0  0  0  0  0
    2.4030   14.8170   -2.4730 C   0  0  2  0  0  0  0  0  0  0  0  0
    3.9430   14.8550   -2.7600 C   0  0  0  0  0  0  0  0  0  0  0  0
    4.6604   17.5362   -2.8971 H   0  0  0  0  0  0  0  0  0  0  0  0
    3.8733   16.5966   -4.2103 H   0  0  0  0  0  0  0  0  0  0  0  0
    3.7816   18.3906   -4.2103 H   0  0  0  0  0  0  0  0  0  0  0  0
    1.8758   18.2754   -3.0592 H   0  0  0  0  0  0  0  0  0  0  0  0
    2.3080   16.7098   -0.7280 H   0  0  0  0  0  0  0  0  0  0  0  0
    3.8625   17.5939   -1.1088 H   0  0  0  0  0  0  0  0  0  0  0  0
    2.9594   19.2781    0.0517 H   0  0  0  0  0  0  0  0  0  0  0  0
    1.9904   19.5518   -1.4560 H   0  0  0  0  0  0  0  0  0  0  0  0
    1.3808   19.0250    1.0396 H   0  0  0  0  0  0  0  0  0  0  0  0
   -1.0875   20.1077   -1.9846 H   0  0  0  0  0  0  0  0  0  0  0  0
    0.3607   19.1421   -2.4283 H   0  0  0  0  0  0  0  0  0  0  0  0
   -1.2640   18.3760   -2.4283 H   0  0  0  0  0  0  0  0  0  0  0  0
   -1.2801   18.8877    1.4578 H   0  0  0  0  0  0  0  0  0  0  0  0
   -2.0368   19.9452    0.2185 H   0  0  0  0  0  0  0  0  0  0  0  0
   -2.3711   18.1802    0.2185 H   0  0  0  0  0  0  0  0  0  0  0  0
    0.8218   16.3243   -2.5304 H   0  0  0  0  0  0  0  0  0  0  0  0
    0.6913   16.1666   -4.9388 H   0  0  0  0  0  0  0  0  0  0  0  0
    2.4512   16.3265   -5.1219 H   0  0  0  0  0  0  0  0  0  0  0  0
    0.9696   13.8941   -5.3656 H   0  0  0  0  0  0  0  0  0  0  0  0
    2.7193   13.9695   -5.1750 H   0  0  0  0  0  0  0  0  0  0  0  0
   -0.1175   13.7129   -1.9344 H   0  0  0  0  0  0  0  0  0  0  0  0
   -0.3809   14.6095   -3.4685 H   0  0  0  0  0  0  0  0  0  0  0  0
   -0.3704   12.8133   -3.4685 H   0  0  0  0  0  0  0  0  0  0  0  0
    3.2791   12.4584   -3.3674 H   0  0  0  0  0  0  0  0  0  0  0  0
    1.3210   11.5674   -4.7851 H   0  0  0  0  0  0  0  0  0  0  0  0
    2.4677   10.4191   -3.9161 H   0  0  0  0  0  0  0  0  0  0  0  0
   -0.0913    9.7981   -3.8311 H   0  0  0  0  0  0  0  0  0  0  0  0
    0.4159   12.2504   -0.6650 H   0  0  0  0  0  0  0  0  0  0  0  0
    1.8385    9.6430    0.1539 H   0  0  0  0  0  0  0  0  0  0  0  0
    1.7044   11.1687    1.1355 H   0  0  0  0  0  0  0  0  0  0  0  0
    0.1212    9.4249    1.8943 H   0  0  0  0  0  0  0  0  0  0  0  0
   -0.7056   10.9062    1.2700 H   0  0  0  0  0  0  0  0  0  0  0  0
   -1.8631    8.9718    0.4472 H   0  0  0  0  0  0  0  0  0  0  0  0
   -0.7880    7.2370   -0.2000 H   0  0  0  0  0  0  0  0  0  0  0  0
   -2.3208   11.2077   -0.0443 H   0  0  0  0  0  0  0  0  0  0  0  0
   -1.8039   11.9747   -1.5842 H   0  0  0  0  0  0  0  0  0  0  0  0
   -3.1347   10.7682   -1.5842 H   0  0  0  0  0  0  0  0  0  0  0  0
   -2.3318    8.1217   -1.7285 H   0  0  0  0  0  0  0  0  0  0  0  0
   -2.5460    9.4259   -2.9450 H   0  0  0  0  0  0  0  0  0  0  0  0
   -1.0478    8.4349   -2.9450 H   0  0  0  0  0  0  0  0  0  0  0  0
    3.7094   10.7094   -0.2767 H   0  0  0  0  0  0  0  0  0  0  0  0
    3.1943    9.9630   -1.8272 H   0  0  0  0  0  0  0  0  0  0  0  0
    4.4096   11.2858   -1.8272 H   0  0  0  0  0  0  0  0  0  0  0  0
    2.4655   12.9734    0.4522 H   0  0  0  0  0  0  0  0  0  0  0  0
    3.8716   13.2709   -0.7183 H   0  0  0  0  0  0  0  0  0  0  0  0
    1.1390   14.5814   -0.7396 H   0  0  0  0  0  0  0  0  0  0  0  0
    2.7493   15.3342   -0.4131 H   0  0  0  0  0  0  0  0  0  0  0  0
    4.4932   14.8686   -1.8076 H   0  0  0  0  0  0  0  0  0  0  0  0
    4.2306   13.9637   -3.3369 H   0  0  0  0  0  0  0  0  0  0  0  0
    4.1863   15.7594   -3.3369 H   0  0  0  0  0  0  0  0  0  0  0  0
  1  2  1  0
  2  3  1  0
  3  4  1  0
  4  5  1  0
  5  6  1  0
  6  7  1  0
  7  8  1  0
  7  9  1  0
  2 10  1  0
 10 11  1  0
 11 12  1  0
 12 13  1  0
 13 14  1  1
 13 15  1  0
 15 16  1  0
 16 17  1  0
 17 18  2  0
 18 19  1  0
 19 20  1  0
 20 21  1  0
 21 22  1  0
 22 23  1  0
 22 24  1  0
 24 25  1  0
 24 26  1  0
 19 27  1  0
 27 28  1  6
 27 29  1  0
 29 30  1  0
 30 31  1  0
 31 32  1  1
  7  5  1  0
 31 10  1  0
 31 13  1  0
 27 15  1  0
 24 18  1  0
  1 33  1  0
  1 34  1  0
  1 35  1  0
  2 36  1  6
  3 37  1  0
  3 38  1  0
  4 39  1  0
  4 40  1  0
  5 41  1  1
  8 42  1  0
  8 43  1  0
  8 44  1  0
  9 45  1  0
  9 46  1  0
  9 47  1  0
 10 48  1  1
 11 49  1  0
 11 50  1  0
 12 51  1  0
 12 52  1  0
 14 53  1  0
 14 54  1  0
 14 55  1  0
 15 56  1  6
 16 57  1  0
 16 58  1  0
 17 59  1  0
 19 60  1  1
 20 61  1  0
 20 62  1  0
 21 63  1  0
 21 64  1  0
 22 65  1  1
 23 66  1  0
 25 67  1  0
 25 68  1  0
 25 69  1  0
 26 70  1  0
 26 71  1  0
 26 72  1  0
 28 73  1  0
 28 74  1  0
 28 75  1  0
 29 76  1  0
 29 77  1  0
 30 78  1  0
 30 79  1  0
 32 80  1  0
 32 81  1  0
 32 82  1  0
M  END
>  <meeko>  (3) 
{"is_sidechain": [false], "intermolecular_energy": 2.731, "internal_energy": -0.839}

$$$$
EPH_relaxed_0001_pdb2pqr_Repair_306_r2_0001_out
     RDKit          3D

 82 86  0  0  0  0  0  0  0  0999 V2000
    3.2770   17.0690   -2.5420 C   0  0  0  0  0  0  0  0  0  0  0  0
    1.8970   17.3070   -3.1610 C   0  0  2  0  0  0  0  0  0  0  0  0
    1.0400   18.2690   -2.3150 C   0  0  0  0  0  0  0  0  0  0  0  0
    0.9820   17.8990   -0.8300 C   0  0  0  0  0  0  0  0  0  0  0  0
    1.2390   19.0860    0.0480 C   0  0  2  0  0  0  0  0  0  0  0  0
    2.2730   19.9630   -0.4170 O   0  0  0  0  0  0  0  0  0  0  0  0
    2.5250   19.2890    0.8270 C   0  0  0  0  0  0  0  0  0  0  0  0
    3.6400   18.2930    0.7640 C   0  0  0  0  0  0  0  0  0  0  0  0
    2.5050   20.1940    2.0180 C   0  0  0  0  0  0  0  0  0  0  0  0
    1.1700   15.9790   -3.3370 C   0  0  1  0  0  0  0  0  0  0  0  0
    0.7660   15.7100   -4.8110 C   0  0  0  0  0  0  0  0  0  0  0  0
    0.8920   14.1820   -5.0380 C   0  0  0  0  0  0  0  0  0  0  0  0
    1.0390   13.5880   -3.6170 C   0  0  1  0  0  0  0  0  0  0  0  0
   -0.4180   13.5130   -3.0610 C   0  0  0  0  0  0  0  0  0  0  0  0
    1.7660   12.2080   -3.5170 C   0  0  2  0  0  0  0  0  0  0  0  0
    1.0660   11.0460   -4.2440 C   0  0  0  0  0  0  0  0  0  0  0  0
    0.0900   10.2740   -3.4200 C   0  0  0  0  0  0  0  0  0  0  0  0
   -0.0070   10.3170   -2.0780 C   0  0  0  0  0  0  0  0  0  0  0  0
    0.9890   11.1310   -1.2420 C   0  0  1  0  0  0  0  0  0  0  0  0
    1.4810   10.2760   -0.0450 C   0  0  0  0  0  0  0  0  0  0  0  0
    0.3310    9.7240    0.7920 C   0  0  0  0  0  0  0  0  0  0  0  0
   -0.6050    8.8730   -0.0620 C   0  0  2  0  0  0  0  0  0  0  0  0
    0.0960    7.6990   -0.4840 O   0  0  0  0  0  0  0  0  0  0  0  0
   -1.1570    9.6260   -1.3040 C   0  0  0  0  0  0  0  0  0  0  0  0
   -2.1600   10.7160   -0.8490 C   0  0  0  0  0  0  0  0  0  0  0  0
   -1.9720    8.6140   -2.1540 C   0  0  0  0  0  0  0  0  0  0  0  0
    2.1850   11.8010   -2.0470 C   0  0  1  0  0  0  0  0  0  0  0  0
    3.3650   10.7910   -2.1830 C   0  0  0  0  0  0  0  0  0  0  0  0
    2.7390   13.0220   -1.2220 C   0  0  0  0  0  0  0  0  0  0  0  0
    2.0560   14.3840   -1.4540 C   0  0  0  0  0  0  0  0  0  0  0  0
    1.9380   14.6910   -2.9500 C   0  0  2  0  0  0  0  0  0  0  0  0
    3.3890   14.7950   -3.5320 C   0  0  0  0  0  0  0  0  0  0  0  0
    3.1943   17.0833   -1.4452 H   0  0  0  0  0  0  0  0  0  0  0  0
    3.6614   16.0913   -2.8680 H   0  0  0  0  0  0  0  0  0  0  0  0
    3.9667   17.8615   -2.8680 H   0  0  0  0  0  0  0  0  0  0  0  0
    2.0513   17.7788   -4.1426 H   0  0  0  0  0  0  0  0  0  0  0  0
    1.4629   19.2805   -2.4045 H   0  0  0  0  0  0  0  0  0  0  0  0
    0.0120   18.2077   -2.7016 H   0  0  0  0  0  0  0  0  0  0  0  0
   -0.0159   17.4963   -0.6018 H   0  0  0  0  0  0  0  0  0  0  0  0
    1.7639   17.1510   -0.6325 H   0  0  0  0  0  0  0  0  0  0  0  0
    0.1814   19.1211    0.3483 H   0  0  0  0  0  0  0  0  0  0  0  0
    3.9458   18.0199    1.7847 H   0  0  0  0  0  0  0  0  0  0  0  0
    3.2986   17.3937    0.2305 H   0  0  0  0  0  0  0  0  0  0  0  0
    4.4953   18.7333    0.2305 H   0  0  0  0  0  0  0  0  0  0  0  0
    2.5183   19.5903    2.9375 H   0  0  0  0  0  0  0  0  0  0  0  0
    3.3889   20.8484    1.9961 H   0  0  0  0  0  0  0  0  0  0  0  0
    1.5931   20.8087    1.9961 H   0  0  0  0  0  0  0  0  0  0  0  0
    0.3283   16.1369   -2.6466 H   0  0  0  0  0  0  0  0  0  0  0  0
   -0.2706   16.0345   -4.9848 H   0  0  0  0  0  0  0  0  0  0  0  0
    1.4123   16.2669   -5.5054 H   0  0  0  0  0  0  0  0  0  0  0  0
   -0.0076   13.7873   -5.5329 H   0  0  0  0  0  0  0  0  0  0  0  0
    1.7416   13.9251   -5.6878 H   0  0  0  0  0  0  0  0  0  0  0  0
   -0.3913   13.5144   -1.9613 H   0  0  0  0  0  0  0  0  0  0  0  0
   -0.9908   14.3828   -3.4150 H   0  0  0  0  0  0  0  0  0  0  0  0
   -0.8984   12.5889   -3.4150 H   0  0  0  0  0  0  0  0  0  0  0  0
    2.6960   12.3917   -4.0749 H   0  0  0  0  0  0  0  0  0  0  0  0
    0.5274   11.4612   -5.1086 H   0  0  0  0  0  0  0  0  0  0  0  0
    1.8603   10.3365   -4.5190 H   0  0  0  0  0  0  0  0  0  0  0  0
   -0.6092    9.6141   -3.9545 H   0  0  0  0  0  0  0  0  0  0  0  0
    0.4328   12.0049   -0.8720 H   0  0  0  0  0  0  0  0  0  0  0  0
    2.0711    9.4327   -0.4331 H   0  0  0  0  0  0  0  0  0  0  0  0
    2.0841   10.9273    0.6048 H   0  0  0  0  0  0  0  0  0  0  0  0
    0.7411    9.1046    1.6033 H   0  0  0  0  0  0  0  0  0  0  0  0
   -0.2404   10.5686    1.2045 H   0  0  0  0  0  0  0  0  0  0  0  0
   -1.4749    8.6151    0.5599 H   0  0  0  0  0  0  0  0  0  0  0  0
    1.0170    7.9530   -0.6600 H   0  0  0  0  0  0  0  0  0  0  0  0
   -2.1911   10.7498    0.2500 H   0  0  0  0  0  0  0  0  0  0  0  0
   -1.8395   11.6941   -1.2370 H   0  0  0  0  0  0  0  0  0  0  0  0
   -3.1614   10.4778   -1.2370 H   0  0  0  0  0  0  0  0  0  0  0  0
   -2.5206    7.9328   -1.4868 H   0  0  0  0  0  0  0  0  0  0  0  0
   -2.6859    9.1594   -2.7887 H   0  0  0  0  0  0  0  0  0  0  0  0
   -1.2869    8.0328   -2.7887 H   0  0  0  0  0  0  0  0  0  0  0  0
    3.7112   10.4947   -1.1818 H   0  0  0  0  0  0  0  0  0  0  0  0
    3.0241    9.9006   -2.7316 H   0  0  0  0  0  0  0  0  0  0  0  0
    4.1922   11.2652   -2.7316 H   0  0  0  0  0  0  0  0  0  0  0  0
    2.6373   12.7761   -0.1547 H   0  0  0  0  0  0  0  0  0  0  0  0
    3.7747   13.1566   -1.5671 H   0  0  0  0  0  0  0  0  0  0  0  0
    1.0495   14.3618   -1.0108 H   0  0  0  0  0  0  0  0  0  0  0  0
    2.6674   15.1675   -0.9826 H   0  0  0  0  0  0  0  0  0  0  0  0
    4.1128   14.8469   -2.7053 H   0  0  0  0  0  0  0  0  0  0  0  0
    3.6007   13.9097   -4.1496 H   0  0  0  0  0  0  0  0  0  0  0  0
    3.4722   15.7014   -4.1496 H   0  0  0  0  0  0  0  0  0  0  0  0
  1  2  1  0
  2  3  1  0
  3  4  1  0
  4  5  1  0
  5  6  1  0
  6  7  1  0
  7  8  1  0
  7  9  1  0
  2 10  1  0
 10 11  1  0
 11 12  1  0
 12 13  1  0
 13 14  1  1
 13 15  1  0
 15 16  1  0
 16 17  1  0
 17 18  2  0
 18 19  1  0
 19 20  1  0
 20 21  1  0
 21 22  1  0
 22 23  1  0
 22 24  1  0
 24 25  1  0
 24 26  1  0
 19 27  1  0
 27 28  1  6
 27 29  1  0
 29 30  1  0
 30 31  1  0
 31 32  1  6
  7  5  1  0
 31 10  1  0
 31 13  1  0
 27 15  1  0
 24 18  1  0
  1 33  1  0
  1 34  1  0
  1 35  1  0
  2 36  1  6
  3 37  1  0
  3 38  1  0
  4 39  1  0
  4 40  1  0
  5 41  1  1
  8 42  1  0
  8 43  1  0
  8 44  1  0
  9 45  1  0
  9 46  1  0
  9 47  1  0
 10 48  1  1
 11 49  1  0
 11 50  1  0
 12 51  1  0
 12 52  1  0
 14 53  1  0
 14 54  1  0
 14 55  1  0
 15 56  1  6
 16 57  1  0
 16 58  1  0
 17 59  1  0
 19 60  1  1
 20 61  1  0
 20 62  1  0
 21 63  1  0
 21 64  1  0
 22 65  1  1
 23 66  1  0
 25 67  1  0
 25 68  1  0
 25 69  1  0
 26 70  1  0
 26 71  1  0
 26 72  1  0
 28 73  1  0
 28 74  1  0
 28 75  1  0
 29 76  1  0
 29 77  1  0
 30 78  1  0
 30 79  1  0
 32 80  1  0
 32 81  1  0
 32 82  1  0
M  END
>  <meeko>  (4) 
{"is_sidechain": [false], "intermolecular_energy": 2.731, "internal_energy": -0.839}

$$$$
EPH_relaxed_0001_pdb2pqr_Repair_306_r2_0001_out
     RDKit          3D

 82 86  0  0  0  0  0  0  0  0999 V2000
   -0.8930    8.2210   -1.6350 C   0  0  0  0  0  0  0  0  0  0  0  0
   -0.9610    9.2220   -0.4780 C   0  0  2  0  0  0  0  0  0  0  0  0
   -2.3020    9.9820   -0.4460 C   0  0  0  0  0  0  0  0  0  0  0  0
   -3.4960    9.1080   -0.0530 C   0  0  0  0  0  0  0  0  0  0  0  0
   -4.3250    8.7330   -1.2440 C   0  0  2  0  0  0  0  0  0  0  0  0
   -5.7380    8.9020   -1.0680 O   0  0  0  0  0  0  0  0  0  0  0  0
   -5.2800    7.5540   -1.2610 C   0  0  0  0  0  0  0  0  0  0  0  0
   -5.4550    6.6740   -0.0620 C   0  0  0  0  0  0  0  0  0  0  0  0
   -5.6700    6.9680   -2.5820 C   0  0  0  0  0  0  0  0  0  0  0  0
    0.1950   10.2100   -0.5780 C   0  0  1  0  0  0  0  0  0  0  0  0
    1.5800    9.5100   -0.5750 C   0  0  0  0  0  0  0  0  0  0  0  0
    2.5020   10.3400   -1.5060 C   0  0  0  0  0  0  0  0  0  0  0  0
    1.7290   11.6580   -1.7460 C   0  0  1  0  0  0  0  0  0  0  0  0
    2.0140   12.5270   -0.4810 C   0  0  0  0  0  0  0  0  0  0  0  0
    2.0700   12.4280   -3.0640 C   0  0  2  0  0  0  0  0  0  0  0  0
    3.5230   12.9220   -3.1740 C   0  0  0  0  0  0  0  0  0  0  0  0
    3.7720   14.2940   -2.6400 C   0  0  0  0  0  0  0  0  0  0  0  0
    2.8240   15.2060   -2.3550 C   0  0  0  0  0  0  0  0  0  0  0  0
    1.3470   14.9290   -2.6600 C   0  0  1  0  0  0  0  0  0  0  0  0
    0.7210   16.1650   -3.3580 C   0  0  0  0  0  0  0  0  0  0  0  0
    0.9210   17.4500   -2.5610 C   0  0  0  0  0  0  0  0  0  0  0  0
    2.4050   17.7220   -2.3280 C   0  0  2  0  0  0  0  0  0  0  0  0
    3.0240   18.0090   -3.5860 O   0  0  0  0  0  0  0  0  0  0  0  0
    3.1440   16.5420   -1.6390 C   0  0  0  0  0  0  0  0  0  0  0  0
    2.6800   16.4260   -0.1660 C   0  0  0  0  0  0  0  0  0  0  0  0
    4.6570   16.8870   -1.5910 C   0  0  0  0  0  0  0  0  0  0  0  0
    1.0410   13.5730   -3.4300 C   0  0  1  0  0  0  0  0  0  0  0  0
    1.1540   13.7980   -4.9690 C   0  0  0  0  0  0  0  0  0  0  0  0
   -0.4500   13.1490   -3.1520 C   0  0  0  0  0  0  0  0  0  0  0  0
   -0.7050   12.2880   -1.9000 C   0  0  0  0  0  0  0  0  0  0  0  0
    0.2620   11.1020   -1.8430 C   0  0  2  0  0  0  0  0  0  0  0  0
   -0.0160   10.1980   -3.0920 C   0  0  0  0  0  0  0  0  0  0  0  0
   -0.8236    7.1996   -1.2326 H   0  0  0  0  0  0  0  0  0  0  0  0
   -1.7994    8.3113   -2.2517 H   0  0  0  0  0  0  0  0  0  0  0  0
   -0.0072    8.4331   -2.2517 H   0  0  0  0  0  0  0  0  0  0  0  0
   -0.8827    8.6511    0.4590 H   0  0  0  0  0  0  0  0  0  0  0  0
   -2.2185   10.8031    0.2812 H   0  0  0  0  0  0  0  0  0  0  0  0
   -2.4909   10.3435   -1.4676 H   0  0  0  0  0  0  0  0  0  0  0  0
   -3.1236    8.1901    0.4253 H   0  0  0  0  0  0  0  0  0  0  0  0
   -4.1294    9.6837    0.6378 H   0  0  0  0  0  0  0  0  0  0  0  0
   -3.5221    9.0423   -1.9293 H   0  0  0  0  0  0  0  0  0  0  0  0
   -5.3359    7.2729    0.8529 H   0  0  0  0  0  0  0  0  0  0  0  0
   -6.4597    6.2265   -0.0791 H   0  0  0  0  0  0  0  0  0  0  0  0
   -4.6979    5.8762   -0.0791 H   0  0  0  0  0  0  0  0  0  0  0  0
   -6.2726    6.0625   -2.4179 H   0  0  0  0  0  0  0  0  0  0  0  0
   -6.2597    7.7030   -3.1494 H   0  0  0  0  0  0  0  0  0  0  0  0
   -4.7643    6.7078   -3.1494 H   0  0  0  0  0  0  0  0  0  0  0  0
   -0.0144   10.8288    0.3070 H   0  0  0  0  0  0  0  0  0  0  0  0
    1.9916    9.4887    0.4449 H   0  0  0  0  0  0  0  0  0  0  0  0
    1.4981    8.4702   -0.9245 H   0  0  0  0  0  0  0  0  0  0  0  0
    3.4678   10.5394   -1.0188 H   0  0  0  0  0  0  0  0  0  0  0  0
    2.7304    9.8134   -2.4444 H   0  0  0  0  0  0  0  0  0  0  0  0
    1.8190   11.9325    0.4238 H   0  0  0  0  0  0  0  0  0  0  0  0
    3.0653   12.8505   -0.4877 H   0  0  0  0  0  0  0  0  0  0  0  0
    1.3585   13.4103   -0.4877 H   0  0  0  0  0  0  0  0  0  0  0  0
    1.9622   11.6451   -3.8292 H   0  0  0  0  0  0  0  0  0  0  0  0
    4.1636   12.2201   -2.6199 H   0  0  0  0  0  0  0  0  0  0  0  0
    3.7482   12.9685   -4.2497 H   0  0  0  0  0  0  0  0  0  0  0  0
    4.8185   14.5839   -2.4647 H   0  0  0  0  0  0  0  0  0  0  0  0
    0.8612   14.7649   -1.6868 H   0  0  0  0  0  0  0  0  0  0  0  0
    1.1887   16.2865   -4.3462 H   0  0  0  0  0  0  0  0  0  0  0  0
   -0.3616   15.9888   -3.4416 H   0  0  0  0  0  0  0  0  0  0  0  0
    0.4840   18.2913   -3.1189 H   0  0  0  0  0  0  0  0  0  0  0  0
    0.4270   17.3381   -1.5846 H   0  0  0  0  0  0  0  0  0  0  0  0
    2.4793   18.5799   -1.6436 H   0  0  0  0  0  0  0  0  0  0  0  0
    3.6240   17.2720   -3.7930 H   0  0  0  0  0  0  0  0  0  0  0  0
    3.5271   16.6378    0.5030 H   0  0  0  0  0  0  0  0  0  0  0  0
    1.8738   17.1502    0.0226 H   0  0  0  0  0  0  0  0  0  0  0  0
    2.3095   15.4076    0.0226 H   0  0  0  0  0  0  0  0  0  0  0  0
    4.9831   16.9613   -0.5431 H   0  0  0  0  0  0  0  0  0  0  0  0
    5.2296   16.0964   -2.0980 H   0  0  0  0  0  0  0  0  0  0  0  0
    4.8303   17.8477   -2.0980 H   0  0  0  0  0  0  0  0  0  0  0  0
    1.6399   14.7655   -5.1634 H   0  0  0  0  0  0  0  0  0  0  0  0
    1.7535   12.9905   -5.4146 H   0  0  0  0  0  0  0  0  0  0  0  0
    0.1483   13.7967   -5.4146 H   0  0  0  0  0  0  0  0  0  0  0  0
   -1.0442   14.0691   -3.0499 H   0  0  0  0  0  0  0  0  0  0  0  0
   -0.7314   12.5108   -4.0026 H   0  0  0  0  0  0  0  0  0  0  0  0
   -0.5664   12.9086   -1.0024 H   0  0  0  0  0  0  0  0  0  0  0  0
   -1.7332   11.8998   -1.9453 H   0  0  0  0  0  0  0  0  0  0  0  0
   -0.3241    9.1962   -2.7582 H   0  0  0  0  0  0  0  0  0  0  0  0
   -0.8180   10.6456   -3.6974 H   0  0  0  0  0  0  0  0  0  0  0  0
    0.8989   10.1176   -3.6974 H   0  0  0  0  0  0  0  0  0  0  0  0
  1  2  1  0
  2  3  1  0
  3  4  1  0
  4  5  1  0
  5  6  1  0
  6  7  1  0
  7  8  1  0
  7  9  1  0
  2 10  1  0
 10 11  1  0
 11 12  1  0
 12 13  1  0
 13 14  1  1
 13 15  1  0
 15 16  1  0
 16 17  1  0
 17 18  2  0
 18 19  1  0
 19 20  1  0
 20 21  1  0
 21 22  1  0
 22 23  1  0
 22 24  1  0
 24 25  1  0
 24 26  1  0
 19 27  1  0
 27 28  1  6
 27 29  1  0
 29 30  1  0
 30 31  1  0
 31 32  1  6
  7  5  1  0
 31 10  1  0
 31 13  1  0
 27 15  1  0
 24 18  1  0
  1 33  1  0
  1 34  1  0
  1 35  1  0
  2 36  1  1
  3 37  1  0
  3 38  1  0
  4 39  1  0
  4 40  1  0
  5 41  1  6
  8 42  1  0
  8 43  1  0
  8 44  1  0
  9 45  1  0
  9 46  1  0
  9 47  1  0
 10 48  1  1
 11 49  1  0
 11 50  1  0
 12 51  1  0
 12 52  1  0
 14 53  1  0
 14 54  1  0
 14 55  1  0
 15 56  1  6
 16 57  1  0
 16 58  1  0
 17 59  1  0
 19 60  1  1
 20 61  1  0
 20 62  1  0
 21 63  1  0
 21 64  1  0
 22 65  1  1
 23 66  1  0
 25 67  1  0
 25 68  1  0
 25 69  1  0
 26 70  1  0
 26 71  1  0
 26 72  1  0
 28 73  1  0
 28 74  1  0
 28 75  1  0
 29 76  1  0
 29 77  1  0
 30 78  1  0
 30 79  1  0
 32 80  1  0
 32 81  1  0
 32 82  1  0
M  END
>  <meeko>  (5) 
{"is_sidechain": [false], "intermolecular_energy": 2.731, "internal_energy": -0.839}

$$$$
EPH_relaxed_0001_pdb2pqr_Repair_306_r2_0001_out
     RDKit          3D

 82 86  0  0  0  0  0  0  0  0999 V2000
   -0.8140    8.8830   -2.0380 C   0  0  0  0  0  0  0  0  0  0  0  0
   -1.2500    9.2600   -0.6190 C   0  0  2  0  0  0  0  0  0  0  0  0
   -2.7820    9.3830   -0.4960 C   0  0  0  0  0  0  0  0  0  0  0  0
   -3.5510    8.3190   -1.2840 C   0  0  0  0  0  0  0  0  0  0  0  0
   -4.9680    8.1970   -0.8130 C   0  0  2  0  0  0  0  0  0  0  0  0
   -5.3490    6.8790   -0.3970 O   0  0  0  0  0  0  0  0  0  0  0  0
   -6.0290    7.4010   -1.5500 C   0  0  0  0  0  0  0  0  0  0  0  0
   -5.7170    6.6750   -2.8210 C   0  0  0  0  0  0  0  0  0  0  0  0
   -7.4690    7.7280   -1.3050 C   0  0  0  0  0  0  0  0  0  0  0  0
   -0.5870   10.5680   -0.2020 C   0  0  1  0  0  0  0  0  0  0  0  0
    0.4230   10.3810    0.9620 C   0  0  0  0  0  0  0  0  0  0  0  0
    1.5780   11.3860    0.7180 C   0  0  0  0  0  0  0  0  0  0  0  0
    1.0410   12.3370   -0.3780 C   0  0  1  0  0  0  0  0  0  0  0  0
    0.1430   13.3610    0.3850 C   0  0  0  0  0  0  0  0  0  0  0  0
    2.1170   13.0560   -1.2560 C   0  0  2  0  0  0  0  0  0  0  0  0
    3.0600   14.0000   -0.4910 C   0  0  0  0  0  0  0  0  0  0  0  0
    2.6020   15.4170   -0.3920 C   0  0  0  0  0  0  0  0  0  0  0  0
    1.6270   15.9770   -1.1330 C   0  0  0  0  0  0  0  0  0  0  0  0
    0.9410   15.1900   -2.2570 C   0  0  1  0  0  0  0  0  0  0  0  0
    0.8540   16.0740   -3.5290 C   0  0  0  0  0  0  0  0  0  0  0  0
    0.1820   17.4170   -3.2630 C   0  0  0  0  0  0  0  0  0  0  0  0
    0.9260   18.1950   -2.1810 C   0  0  2  0  0  0  0  0  0  0  0  0
    2.2170   18.5590   -2.6800 O   0  0  0  0  0  0  0  0  0  0  0  0
    1.0840   17.4010   -0.8540 C   0  0  0  0  0  0  0  0  0  0  0  0
   -0.2940   17.2680   -0.1600 C   0  0  0  0  0  0  0  0  0  0  0  0
    1.9730   18.2400    0.1020 C   0  0  0  0  0  0  0  0  0  0  0  0
    1.5360   13.7470   -2.5560 C   0  0  1  0  0  0  0  0  0  0  0  0
    2.7180   13.8580   -3.5670 C   0  0  0  0  0  0  0  0  0  0  0  0
    0.4320   12.8710   -3.2570 C   0  0  0  0  0  0  0  0  0  0  0  0
   -0.5250   12.0910   -2.3360 C   0  0  0  0  0  0  0  0  0  0  0  0
    0.2520   11.3120   -1.2700 C   0  0  2  0  0  0  0  0  0  0  0  0
    1.1480   10.2590   -2.0070 C   0  0  0  0  0  0  0  0  0  0  0  0
    0.0172    8.1643   -1.9874 H   0  0  0  0  0  0  0  0  0  0  0  0
   -1.6605    8.4276   -2.5729 H   0  0  0  0  0  0  0  0  0  0  0  0
   -0.4856    9.7864   -2.5729 H   0  0  0  0  0  0  0  0  0  0  0  0
   -0.9290    8.4499    0.0524 H   0  0  0  0  0  0  0  0  0  0  0  0
   -3.0534    9.2920    0.5661 H   0  0  0  0  0  0  0  0  0  0  0  0
   -3.0607   10.3595   -0.9187 H   0  0  0  0  0  0  0  0  0  0  0  0
   -3.5518    8.5951   -2.3488 H   0  0  0  0  0  0  0  0  0  0  0  0
   -3.0533    7.3505   -1.1283 H   0  0  0  0  0  0  0  0  0  0  0  0
   -4.9535    9.2271   -0.4275 H   0  0  0  0  0  0  0  0  0  0  0  0
   -5.2928    5.6879   -2.5848 H   0  0  0  0  0  0  0  0  0  0  0  0
   -6.6396    6.5471   -3.4062 H   0  0  0  0  0  0  0  0  0  0  0  0
   -4.9893    7.2563   -3.4062 H   0  0  0  0  0  0  0  0  0  0  0  0
   -7.6562    7.7705   -0.2219 H   0  0  0  0  0  0  0  0  0  0  0  0
   -7.7056    8.7027   -1.7565 H   0  0  0  0  0  0  0  0  0  0  0  0
   -8.1034    6.9511   -1.7565 H   0  0  0  0  0  0  0  0  0  0  0  0
   -1.4817   11.1562    0.0500 H   0  0  0  0  0  0  0  0  0  0  0  0
   -0.0654   10.5918    1.9248 H   0  0  0  0  0  0  0  0  0  0  0  0
    0.7991    9.3479    0.9963 H   0  0  0  0  0  0  0  0  0  0  0  0
    1.8085   11.9438    1.6376 H   0  0  0  0  0  0  0  0  0  0  0  0
    2.5103   10.8858    0.4169 H   0  0  0  0  0  0  0  0  0  0  0  0
    0.2663   13.2204    1.4690 H   0  0  0  0  0  0  0  0  0  0  0  0
    0.4403   14.3842    0.1118 H   0  0  0  0  0  0  0  0  0  0  0  0
   -0.9103   13.1999    0.1118 H   0  0  0  0  0  0  0  0  0  0  0  0
    2.7444   12.2177   -1.5930 H   0  0  0  0  0  0  0  0  0  0  0  0
    3.1773   13.6087    0.5303 H   0  0  0  0  0  0  0  0  0  0  0  0
    3.9982   14.0231   -1.0648 H   0  0  0  0  0  0  0  0  0  0  0  0
    3.1030   16.0578    0.3485 H   0  0  0  0  0  0  0  0  0  0  0  0
   -0.0710   14.9589   -1.8930 H   0  0  0  0  0  0  0  0  0  0  0  0
    1.8727   16.2571   -3.9015 H   0  0  0  0  0  0  0  0  0  0  0  0
    0.2431   15.5357   -4.2686 H   0  0  0  0  0  0  0  0  0  0  0  0
    0.1769   18.0070   -4.1914 H   0  0  0  0  0  0  0  0  0  0  0  0
   -0.8462   17.2327   -2.9184 H   0  0  0  0  0  0  0  0  0  0  0  0
    0.3258   19.0858   -1.9439 H   0  0  0  0  0  0  0  0  0  0  0  0
    2.4080   19.4610   -2.3720 H   0  0  0  0  0  0  0  0  0  0  0  0
   -0.1577   17.2812    0.9314 H   0  0  0  0  0  0  0  0  0  0  0  0
   -0.9379   18.1082   -0.4592 H   0  0  0  0  0  0  0  0  0  0  0  0
   -0.7653   16.3202   -0.4592 H   0  0  0  0  0  0  0  0  0  0  0  0
    1.7184   17.9997    1.1448 H   0  0  0  0  0  0  0  0  0  0  0  0
    3.0318   18.0043   -0.0806 H   0  0  0  0  0  0  0  0  0  0  0  0
    1.7989   19.3107   -0.0806 H   0  0  0  0  0  0  0  0  0  0  0  0
    3.6654   13.9470   -3.0151 H   0  0  0  0  0  0  0  0  0  0  0  0
    2.7452   12.9585   -4.1995 H   0  0  0  0  0  0  0  0  0  0  0  0
    2.5772   14.7469   -4.1995 H   0  0  0  0  0  0  0  0  0  0  0  0
   -0.1785   13.5412   -3.8800 H   0  0  0  0  0  0  0  0  0  0  0  0
    0.9864   12.1012   -3.8138 H   0  0  0  0  0  0  0  0  0  0  0  0
   -1.2042   12.7999   -1.8398 H   0  0  0  0  0  0  0  0  0  0  0  0
   -1.0943   11.3755   -2.9475 H   0  0  0  0  0  0  0  0  0  0  0  0
    1.6738    9.6410   -1.2643 H   0  0  0  0  0  0  0  0  0  0  0  0
    0.5156    9.6163   -2.6371 H   0  0  0  0  0  0  0  0  0  0  0  0
    1.8836   10.7804   -2.6371 H   0  0  0  0  0  0  0  0  0  0  0  0
  1  2  1  0
  2  3  1  0
  3  4  1  0
  4  5  1  0
  5  6  1  0
  6  7  1  0
  7  8  1  0
  7  9  1  0
  2 10  1  0
 10 11  1  0
 11 12  1  0
 12 13  1  0
 13 14  1  1
 13 15  1  0
 15 16  1  0
 16 17  1  0
 17 18  2  0
 18 19  1  0
 19 20  1  0
 20 21  1  0
 21 22  1  0
 22 23  1  0
 22 24  1  0
 24 25  1  0
 24 26  1  0
 19 27  1  0
 27 28  1  6
 27 29  1  0
 29 30  1  0
 30 31  1  0
 31 32  1  6
  7  5  1  0
 31 10  1  0
 31 13  1  0
 27 15  1  0
 24 18  1  0
  1 33  1  0
  1 34  1  0
  1 35  1  0
  2 36  1  1
  3 37  1  0
  3 38  1  0
  4 39  1  0
  4 40  1  0
  5 41  1  1
  8 42  1  0
  8 43  1  0
  8 44  1  0
  9 45  1  0
  9 46  1  0
  9 47  1  0
 10 48  1  1
 11 49  1  0
 11 50  1  0
 12 51  1  0
 12 52  1  0
 14 53  1  0
 14 54  1  0
 14 55  1  0
 15 56  1  6
 16 57  1  0
 16 58  1  0
 17 59  1  0
 19 60  1  1
 20 61  1  0
 20 62  1  0
 21 63  1  0
 21 64  1  0
 22 65  1  1
 23 66  1  0
 25 67  1  0
 25 68  1  0
 25 69  1  0
 26 70  1  0
 26 71  1  0
 26 72  1  0
 28 73  1  0
 28 74  1  0
 28 75  1  0
 29 76  1  0
 29 77  1  0
 30 78  1  0
 30 79  1  0
 32 80  1  0
 32 81  1  0
 32 82  1  0
M  END
>  <meeko>  (6) 
{"is_sidechain": [false], "intermolecular_energy": 2.731, "internal_energy": -0.839}

$$$$
EPH_relaxed_0001_pdb2pqr_Repair_306_r2_0001_out
     RDKit          3D

 82 86  0  0  0  0  0  0  0  0999 V2000
   -0.8930    9.3500   -2.7890 C   0  0  0  0  0  0  0  0  0  0  0  0
    0.2690    9.0540   -1.8370 C   0  0  2  0  0  0  0  0  0  0  0  0
   -0.2110    8.8110   -0.3920 C   0  0  0  0  0  0  0  0  0  0  0  0
   -0.6990   10.0780    0.3160 C   0  0  0  0  0  0  0  0  0  0  0  0
    0.3410   10.6320    1.2410 C   0  0  2  0  0  0  0  0  0  0  0  0
   -0.1710   11.4760    2.2810 O   0  0  0  0  0  0  0  0  0  0  0  0
    0.6910   12.1060    1.3200 C   0  0  0  0  0  0  0  0  0  0  0  0
    0.0040   13.1180    0.4570 C   0  0  0  0  0  0  0  0  0  0  0  0
    2.0270   12.4960    1.8720 C   0  0  0  0  0  0  0  0  0  0  0  0
    1.2700   10.2040   -1.8670 C   0  0  1  0  0  0  0  0  0  0  0  0
    2.6990    9.7410   -2.2560 C   0  0  0  0  0  0  0  0  0  0  0  0
    3.3320   10.8900   -3.0820 C   0  0  0  0  0  0  0  0  0  0  0  0
    2.3870   12.0940   -2.8630 C   0  0  1  0  0  0  0  0  0  0  0  0
    2.8080   12.6870   -1.4810 C   0  0  0  0  0  0  0  0  0  0  0  0
    2.3860   13.1850   -3.9830 C   0  0  2  0  0  0  0  0  0  0  0  0
    3.7280   13.9070   -4.1920 C   0  0  0  0  0  0  0  0  0  0  0  0
    3.9210   15.1440   -3.3790 C   0  0  0  0  0  0  0  0  0  0  0  0
    2.9500   15.8130   -2.7300 C   0  0  0  0  0  0  0  0  0  0  0  0
    1.4810   15.3900   -2.8590 C   0  0  1  0  0  0  0  0  0  0  0  0
    0.6020   16.6410   -3.1200 C   0  0  0  0  0  0  0  0  0  0  0  0
    0.8060   17.7280   -2.0690 C   0  0  0  0  0  0  0  0  0  0  0  0
    2.2680   18.1640   -2.0110 C   0  0  2  0  0  0  0  0  0  0  0  0
    2.6030   18.8180   -3.2390 O   0  0  0  0  0  0  0  0  0  0  0  0
    3.2500   16.9840   -1.7630 C   0  0  0  0  0  0  0  0  0  0  0  0
    3.0870   16.4690   -0.3110 C   0  0  0  0  0  0  0  0  0  0  0  0
    4.6970   17.5370   -1.8680 C   0  0  0  0  0  0  0  0  0  0  0  0
    1.1860   14.2130   -3.8860 C   0  0  1  0  0  0  0  0  0  0  0  0
    0.9810   14.7940   -5.3180 C   0  0  0  0  0  0  0  0  0  0  0  0
   -0.1690   13.5150   -3.4920 C   0  0  0  0  0  0  0  0  0  0  0  0
   -0.0870   12.3650   -2.4700 C   0  0  0  0  0  0  0  0  0  0  0  0
    0.9980   11.3580   -2.8630 C   0  0  2  0  0  0  0  0  0  0  0  0
    0.5910   10.7280   -4.2390 C   0  0  0  0  0  0  0  0  0  0  0  0
   -1.7962    9.5801   -2.2048 H   0  0  0  0  0  0  0  0  0  0  0  0
   -0.6371   10.2116   -3.4231 H   0  0  0  0  0  0  0  0  0  0  0  0
   -1.0805    8.4709   -3.4231 H   0  0  0  0  0  0  0  0  0  0  0  0
    0.7535    8.1292   -2.1832 H   0  0  0  0  0  0  0  0  0  0  0  0
   -1.0388    8.0871   -0.4182 H   0  0  0  0  0  0  0  0  0  0  0  0
    0.6544    8.4387    0.1758 H   0  0  0  0  0  0  0  0  0  0  0  0
   -0.9436   10.8376   -0.4411 H   0  0  0  0  0  0  0  0  0  0  0  0
   -1.5849    9.8170    0.9135 H   0  0  0  0  0  0  0  0  0  0  0  0
    0.9615    9.7318    1.1201 H   0  0  0  0  0  0  0  0  0  0  0  0
   -0.5001   13.8605    1.0930 H   0  0  0  0  0  0  0  0  0  0  0  0
    0.7467   13.6230   -0.1781 H   0  0  0  0  0  0  0  0  0  0  0  0
   -0.7395   12.6141   -0.1781 H   0  0  0  0  0  0  0  0  0  0  0  0
    1.9871   12.4844    2.9712 H   0  0  0  0  0  0  0  0  0  0  0  0
    2.7894   11.7829    1.5252 H   0  0  0  0  0  0  0  0  0  0  0  0
    2.2860   13.5072    1.5252 H   0  0  0  0  0  0  0  0  0  0  0  0
    1.1650   10.5671   -0.8340 H   0  0  0  0  0  0  0  0  0  0  0  0
    3.2953    9.5518   -1.3512 H   0  0  0  0  0  0  0  0  0  0  0  0
    2.6673    8.8077   -2.8373 H   0  0  0  0  0  0  0  0  0  0  0  0
    4.3440   11.1191   -2.7167 H   0  0  0  0  0  0  0  0  0  0  0  0
    3.4372   10.6303   -4.1457 H   0  0  0  0  0  0  0  0  0  0  0  0
    2.3756   12.0779   -0.6736 H   0  0  0  0  0  0  0  0  0  0  0  0
    3.9048   12.6805   -1.3980 H   0  0  0  0  0  0  0  0  0  0  0  0
    2.4401   13.7203   -1.3980 H   0  0  0  0  0  0  0  0  0  0  0  0
    2.2229   12.5883   -4.8926 H   0  0  0  0  0  0  0  0  0  0  0  0
    4.5351   13.2041   -3.9379 H   0  0  0  0  0  0  0  0  0  0  0  0
    3.7389   14.2297   -5.2435 H   0  0  0  0  0  0  0  0  0  0  0  0
    4.9435   15.5426   -3.3040 H   0  0  0  0  0  0  0  0  0  0  0  0
    1.2096   14.9380   -1.8936 H   0  0  0  0  0  0  0  0  0  0  0  0
    0.8583   17.0525   -4.1074 H   0  0  0  0  0  0  0  0  0  0  0  0
   -0.4507   16.3253   -3.0743 H   0  0  0  0  0  0  0  0  0  0  0  0
    0.1812   18.5967   -2.3237 H   0  0  0  0  0  0  0  0  0  0  0  0
    0.5211   17.3239   -1.0864 H   0  0  0  0  0  0  0  0  0  0  0  0
    2.3749   18.8466   -1.1550 H   0  0  0  0  0  0  0  0  0  0  0  0
    2.7250   19.7630   -3.0450 H   0  0  0  0  0  0  0  0  0  0  0  0
    3.3417   17.2738    0.3943 H   0  0  0  0  0  0  0  0  0  0  0  0
    2.0455   16.1548   -0.1481 H   0  0  0  0  0  0  0  0  0  0  0  0
    3.7580   15.6127   -0.1481 H   0  0  0  0  0  0  0  0  0  0  0  0
    5.1042   17.6926   -0.8581 H   0  0  0  0  0  0  0  0  0  0  0  0
    5.3266   16.8161   -2.4102 H   0  0  0  0  0  0  0  0  0  0  0  0
    4.6853   18.4940   -2.4102 H   0  0  0  0  0  0  0  0  0  0  0  0
    0.6158   15.8290   -5.2449 H   0  0  0  0  0  0  0  0  0  0  0  0
    1.9382   14.7803   -5.8598 H   0  0  0  0  0  0  0  0  0  0  0  0
    0.2443   14.1826   -5.8598 H   0  0  0  0  0  0  0  0  0  0  0  0
   -0.8310   14.2867   -3.0721 H   0  0  0  0  0  0  0  0  0  0  0  0
   -0.5334   13.0498   -4.4198 H   0  0  0  0  0  0  0  0  0  0  0  0
    0.1495   12.7804   -1.4793 H   0  0  0  0  0  0  0  0  0  0  0  0
   -1.0563   11.8454   -2.4485 H   0  0  0  0  0  0  0  0  0  0  0  0
    0.0016    9.8157   -4.0646 H   0  0  0  0  0  0  0  0  0  0  0  0
   -0.0116   11.4504   -4.8091 H   0  0  0  0  0  0  0  0  0  0  0  0
    1.4972   10.4757   -4.8091 H   0  0  0  0  0  0  0  0  0  0  0  0
  1  2  1  0
  2  3  1  0
  3  4  1  0
  4  5  1  0
  5  6  1  0
  6  7  1  0
  7  8  1  0
  7  9  1  0
  2 10  1  0
 10 11  1  0
 11 12  1  0
 12 13  1  0
 13 14  1  1
 13 15  1  0
 15 16  1  0
 16 17  1  0
 17 18  2  0
 18 19  1  0
 19 20  1  0
 20 21  1  0
 21 22  1  0
 22 23  1  0
 22 24  1  0
 24 25  1  0
 24 26  1  0
 19 27  1  0
 27 28  1  6
 27 29  1  0
 29 30  1  0
 30 31  1  0
 31 32  1  6
  7  5  1  0
 31 10  1  0
 31 13  1  0
 27 15  1  0
 24 18  1  0
  1 33  1  0
  1 34  1  0
  1 35  1  0
  2 36  1  6
  3 37  1  0
  3 38  1  0
  4 39  1  0
  4 40  1  0
  5 41  1  1
  8 42  1  0
  8 43  1  0
  8 44  1  0
  9 45  1  0
  9 46  1  0
  9 47  1  0
 10 48  1  1
 11 49  1  0
 11 50  1  0
 12 51  1  0
 12 52  1  0
 14 53  1  0
 14 54  1  0
 14 55  1  0
 15 56  1  6
 16 57  1  0
 16 58  1  0
 17 59  1  0
 19 60  1  1
 20 61  1  0
 20 62  1  0
 21 63  1  0
 21 64  1  0
 22 65  1  1
 23 66  1  0
 25 67  1  0
 25 68  1  0
 25 69  1  0
 26 70  1  0
 26 71  1  0
 26 72  1  0
 28 73  1  0
 28 74  1  0
 28 75  1  0
 29 76  1  0
 29 77  1  0
 30 78  1  0
 30 79  1  0
 32 80  1  0
 32 81  1  0
 32 82  1  0
M  END
>  <meeko>  (7) 
{"is_sidechain": [false], "intermolecular_energy": 2.731, "internal_energy": -0.839}

$$$$
EPH_relaxed_0001_pdb2pqr_Repair_306_r2_0001_out
     RDKit          3D

 82 86  0  0  0  0  0  0  0  0999 V2000
    2.6930   17.9470   -2.6350 C   0  0  0  0  0  0  0  0  0  0  0  0
    1.8950   17.3300   -1.4830 C   0  0  2  0  0  0  0  0  0  0  0  0
    2.7910   16.9770   -0.2790 C   0  0  0  0  0  0  0  0  0  0  0  0
    3.7980   18.0730    0.0800 C   0  0  0  0  0  0  0  0  0  0  0  0
    3.4430   18.7520    1.3680 C   0  0  2  0  0  0  0  0  0  0  0  0
    3.8380   20.1280    1.4480 O   0  0  0  0  0  0  0  0  0  0  0  0
    4.4730   19.2310    2.3730 C   0  0  0  0  0  0  0  0  0  0  0  0
    5.9400   19.0490    2.1350 C   0  0  0  0  0  0  0  0  0  0  0  0
    4.0480   19.4300    3.7950 C   0  0  0  0  0  0  0  0  0  0  0  0
    1.1600   16.0860   -1.9680 C   0  0  1  0  0  0  0  0  0  0  0  0
    0.7400   16.1830   -3.4590 C   0  0  0  0  0  0  0  0  0  0  0  0
    0.8570   14.7550   -4.0510 C   0  0  0  0  0  0  0  0  0  0  0  0
    1.0160   13.8340   -2.8190 C   0  0  1  0  0  0  0  0  0  0  0  0
   -0.4350   13.6280   -2.2820 C   0  0  0  0  0  0  0  0  0  0  0  0
    1.7390   12.4690   -3.0640 C   0  0  2  0  0  0  0  0  0  0  0  0
    1.0270   11.5200   -4.0430 C   0  0  0  0  0  0  0  0  0  0  0  0
    0.0550   10.5730   -3.4200 C   0  0  0  0  0  0  0  0  0  0  0  0
   -0.0280   10.2890   -2.1070 C   0  0  0  0  0  0  0  0  0  0  0  0
    0.9800   10.8750   -1.1100 C   0  0  1  0  0  0  0  0  0  0  0  0
    1.4800    9.7540   -0.1610 C   0  0  0  0  0  0  0  0  0  0  0  0
    0.3360    9.0170    0.5290 C   0  0  0  0  0  0  0  0  0  0  0  0
   -0.6120    8.4000   -0.4960 C   0  0  2  0  0  0  0  0  0  0  0  0
    0.0800    7.3620   -1.1970 O   0  0  0  0  0  0  0  0  0  0  0  0
   -1.1730    9.4330   -1.5120 C   0  0  0  0  0  0  0  0  0  0  0  0
   -2.1660   10.3810   -0.7960 C   0  0  0  0  0  0  0  0  0  0  0  0
   -2.0000    8.6590   -2.5730 C   0  0  0  0  0  0  0  0  0  0  0  0
    2.1710   11.7170   -1.7410 C   0  0  1  0  0  0  0  0  0  0  0  0
    3.3450   10.7690   -2.1300 C   0  0  0  0  0  0  0  0  0  0  0  0
    2.7380   12.7020   -0.6510 C   0  0  0  0  0  0  0  0  0  0  0  0
    2.0580   14.0800   -0.5380 C   0  0  0  0  0  0  0  0  0  0  0  0
    1.9270   14.7410   -1.9130 C   0  0  2  0  0  0  0  0  0  0  0  0
    3.3720   14.9800   -2.4690 C   0  0  0  0  0  0  0  0  0  0  0  0
    3.5014   18.5720   -2.2277 H   0  0  0  0  0  0  0  0  0  0  0  0
    3.1248   17.1456   -3.2525 H   0  0  0  0  0  0  0  0  0  0  0  0
    2.0261   18.5667   -3.2525 H   0  0  0  0  0  0  0  0  0  0  0  0
    1.1682   18.0827   -1.1435 H   0  0  0  0  0  0  0  0  0  0  0  0
    2.1457   16.7986    0.5938 H   0  0  0  0  0  0  0  0  0  0  0  0
    3.3716   16.0860   -0.5602 H   0  0  0  0  0  0  0  0  0  0  0  0
    4.7962   17.6215    0.1784 H   0  0  0  0  0  0  0  0  0  0  0  0
    3.7836   18.8273   -0.7205 H   0  0  0  0  0  0  0  0  0  0  0  0
    2.5420   18.1301    1.4746 H   0  0  0  0  0  0  0  0  0  0  0  0
    6.4628   18.9841    3.1006 H   0  0  0  0  0  0  0  0  0  0  0  0
    6.1069   18.1233    1.5648 H   0  0  0  0  0  0  0  0  0  0  0  0
    6.3280   19.9059    1.5648 H   0  0  0  0  0  0  0  0  0  0  0  0
    4.8358   19.0611    4.4682 H   0  0  0  0  0  0  0  0  0  0  0  0
    3.8788   20.5009    3.9807 H   0  0  0  0  0  0  0  0  0  0  0  0
    3.1171   18.8741    3.9807 H   0  0  0  0  0  0  0  0  0  0  0  0
    0.3256   16.0735   -1.2514 H   0  0  0  0  0  0  0  0  0  0  0  0
   -0.2968   16.5418   -3.5378 H   0  0  0  0  0  0  0  0  0  0  0  0
    1.3818   16.8903   -4.0047 H   0  0  0  0  0  0  0  0  0  0  0  0
   -0.0494   14.4937   -4.6168 H   0  0  0  0  0  0  0  0  0  0  0  0
    1.6989   14.6620   -4.7529 H   0  0  0  0  0  0  0  0  0  0  0  0
   -0.4226   13.6298   -1.1821 H   0  0  0  0  0  0  0  0  0  0  0  0
   -1.0787   14.4438   -2.6427 H   0  0  0  0  0  0  0  0  0  0  0  0
   -0.8263   12.6653   -2.6427 H   0  0  0  0  0  0  0  0  0  0  0  0
    2.6646   12.7807   -3.5701 H   0  0  0  0  0  0  0  0  0  0  0  0
    0.4820   12.1336   -4.7754 H   0  0  0  0  0  0  0  0  0  0  0  0
    1.8153   10.8966   -4.4902 H   0  0  0  0  0  0  0  0  0  0  0  0
   -0.6531   10.0645   -4.0909 H   0  0  0  0  0  0  0  0  0  0  0  0
    0.4316   11.6351   -0.5343 H   0  0  0  0  0  0  0  0  0  0  0  0
    2.0629    9.0291   -0.7481 H   0  0  0  0  0  0  0  0  0  0  0  0
    2.0917   10.2273    0.6212 H   0  0  0  0  0  0  0  0  0  0  0  0
    0.7516    8.2186    1.1614 H   0  0  0  0  0  0  0  0  0  0  0  0
   -0.2279    9.7372    1.1400 H   0  0  0  0  0  0  0  0  0  0  0  0
   -1.4770    8.0002    0.0534 H   0  0  0  0  0  0  0  0  0  0  0  0
    0.5920    6.8560   -0.5430 H   0  0  0  0  0  0  0  0  0  0  0  0
   -2.0543   10.2743    0.2931 H   0  0  0  0  0  0  0  0  0  0  0  0
   -1.9544   11.4207   -1.0862 H   0  0  0  0  0  0  0  0  0  0  0  0
   -3.1948   10.1214   -1.0862 H   0  0  0  0  0  0  0  0  0  0  0  0
   -2.7130    7.9917   -2.0668 H   0  0  0  0  0  0  0  0  0  0  0  0
   -2.5503    9.3741   -3.2021 H   0  0  0  0  0  0  0  0  0  0  0  0
   -1.3228    8.0626   -3.2021 H   0  0  0  0  0  0  0  0  0  0  0  0
    3.8227   10.3833   -1.2173 H   0  0  0  0  0  0  0  0  0  0  0  0
    2.9563    9.9285   -2.7237 H   0  0  0  0  0  0  0  0  0  0  0  0
    4.0848   11.3260   -2.7237 H   0  0  0  0  0  0  0  0  0  0  0  0
    2.6470   12.2050    0.3261 H   0  0  0  0  0  0  0  0  0  0  0  0
    3.7702   12.9156   -0.9655 H   0  0  0  0  0  0  0  0  0  0  0  0
    1.0557   13.9521   -0.1033 H   0  0  0  0  0  0  0  0  0  0  0  0
    2.6766   14.7248    0.1036 H   0  0  0  0  0  0  0  0  0  0  0  0
    4.0733   15.0960   -1.6296 H   0  0  0  0  0  0  0  0  0  0  0  0
    3.6752   14.1198   -3.0839 H   0  0  0  0  0  0  0  0  0  0  0  0
    3.3821   15.8920   -3.0839 H   0  0  0  0  0  0  0  0  0  0  0  0
  1  2  1  0
  2  3  1  0
  3  4  1  0
  4  5  1  0
  5  6  1  0
  6  7  1  0
  7  8  1  0
  7  9  1  0
  2 10  1  0
 10 11  1  0
 11 12  1  0
 12 13  1  0
 13 14  1  1
 13 15  1  0
 15 16  1  0
 16 17  1  0
 17 18  2  0
 18 19  1  0
 19 20  1  0
 20 21  1  0
 21 22  1  0
 22 23  1  0
 22 24  1  0
 24 25  1  0
 24 26  1  0
 19 27  1  0
 27 28  1  6
 27 29  1  0
 29 30  1  0
 30 31  1  0
 31 32  1  6
  7  5  1  0
 31 10  1  0
 31 13  1  0
 27 15  1  0
 24 18  1  0
  1 33  1  0
  1 34  1  0
  1 35  1  0
  2 36  1  1
  3 37  1  0
  3 38  1  0
  4 39  1  0
  4 40  1  0
  5 41  1  1
  8 42  1  0
  8 43  1  0
  8 44  1  0
  9 45  1  0
  9 46  1  0
  9 47  1  0
 10 48  1  1
 11 49  1  0
 11 50  1  0
 12 51  1  0
 12 52  1  0
 14 53  1  0
 14 54  1  0
 14 55  1  0
 15 56  1  6
 16 57  1  0
 16 58  1  0
 17 59  1  0
 19 60  1  1
 20 61  1  0
 20 62  1  0
 21 63  1  0
 21 64  1  0
 22 65  1  1
 23 66  1  0
 25 67  1  0
 25 68  1  0
 25 69  1  0
 26 70  1  0
 26 71  1  0
 26 72  1  0
 28 73  1  0
 28 74  1  0
 28 75  1  0
 29 76  1  0
 29 77  1  0
 30 78  1  0
 30 79  1  0
 32 80  1  0
 32 81  1  0
 32 82  1  0
M  END
>  <meeko>  (8) 
{"is_sidechain": [false], "intermolecular_energy": 2.731, "internal_energy": -0.839}

$$$$
EPH_relaxed_0001_pdb2pqr_Repair_306_r2_0001_out
     RDKit          3D

 82 86  0  0  0  0  0  0  0  0999 V2000
    4.7120   17.3910   -3.5620 C   0  0  0  0  0  0  0  0  0  0  0  0
    3.2410   17.0210   -3.3550 C   0  0  2  0  0  0  0  0  0  0  0  0
    2.6580   17.6510   -2.0750 C   0  0  0  0  0  0  0  0  0  0  0  0
    1.6160   18.7400   -2.3440 C   0  0  0  0  0  0  0  0  0  0  0  0
    0.2780   18.3790   -1.7740 C   0  0  2  0  0  0  0  0  0  0  0  0
   -0.6150   19.4870   -1.5940 O   0  0  0  0  0  0  0  0  0  0  0  0
   -0.1910   18.8130   -0.3980 C   0  0  0  0  0  0  0  0  0  0  0  0
    0.6760   19.6450    0.4950 C   0  0  0  0  0  0  0  0  0  0  0  0
   -1.2770   18.0280    0.2690 C   0  0  0  0  0  0  0  0  0  0  0  0
    3.0880   15.5050   -3.3060 C   0  0  1  0  0  0  0  0  0  0  0  0
    4.4360   14.7620   -3.5050 C   0  0  0  0  0  0  0  0  0  0  0  0
    4.3800   13.4910   -2.6180 C   0  0  0  0  0  0  0  0  0  0  0  0
    2.8960   13.3700   -2.2030 C   0  0  1  0  0  0  0  0  0  0  0  0
    2.1910   12.7010   -3.4240 C   0  0  0  0  0  0  0  0  0  0  0  0
    2.6110   12.5940   -0.8760 C   0  0  2  0  0  0  0  0  0  0  0  0
    3.0300   11.1130   -0.8830 C   0  0  0  0  0  0  0  0  0  0  0  0
    1.9790   10.1550   -1.3390 C   0  0  0  0  0  0  0  0  0  0  0  0
    0.6670   10.4310   -1.4560 C   0  0  0  0  0  0  0  0  0  0  0  0
    0.1060   11.7900   -1.0190 C   0  0  1  0  0  0  0  0  0  0  0  0
   -1.1750   11.5730   -0.1720 C   0  0  0  0  0  0  0  0  0  0  0  0
   -2.2140   10.7160   -0.8900 C   0  0  0  0  0  0  0  0  0  0  0  0
   -1.6360    9.3520   -1.2560 C   0  0  2  0  0  0  0  0  0  0  0  0
   -1.3750    8.6230   -0.0530 O   0  0  0  0  0  0  0  0  0  0  0  0
   -0.3360    9.4440   -2.1030 C   0  0  0  0  0  0  0  0  0  0  0  0
   -0.6760    9.9580   -3.5240 C   0  0  0  0  0  0  0  0  0  0  0  0
    0.2190    8.0060   -2.2840 C   0  0  0  0  0  0  0  0  0  0  0  0
    1.1390   12.7750   -0.3220 C   0  0  1  0  0  0  0  0  0  0  0  0
    1.2010   12.4850    1.2090 C   0  0  0  0  0  0  0  0  0  0  0  0
    0.6220   14.2550   -0.4720 C   0  0  0  0  0  0  0  0  0  0  0  0
    1.0360   15.0090   -1.7500 C   0  0  0  0  0  0  0  0  0  0  0  0
    2.5440   14.8880   -1.9940 C   0  0  2  0  0  0  0  0  0  0  0  0
    3.2790   15.5720   -0.7910 C   0  0  0  0  0  0  0  0  0  0  0  0
    5.2003   17.5138   -2.5840 H   0  0  0  0  0  0  0  0  0  0  0  0
    5.2154   16.5915   -4.1254 H   0  0  0  0  0  0  0  0  0  0  0  0
    4.7772   18.3335   -4.1254 H   0  0  0  0  0  0  0  0  0  0  0  0
    2.6755   17.4243   -4.2080 H   0  0  0  0  0  0  0  0  0  0  0  0
    2.1836   16.8555   -1.4815 H   0  0  0  0  0  0  0  0  0  0  0  0
    3.4935   18.1300   -1.5435 H   0  0  0  0  0  0  0  0  0  0  0  0
    1.9567   19.6804   -1.8862 H   0  0  0  0  0  0  0  0  0  0  0  0
    1.5069   18.8490   -3.4331 H   0  0  0  0  0  0  0  0  0  0  0  0
    0.3073   17.3962   -2.2672 H   0  0  0  0  0  0  0  0  0  0  0  0
    0.4420   19.4205    1.5461 H   0  0  0  0  0  0  0  0  0  0  0  0
    1.7334   19.4149    0.2975 H   0  0  0  0  0  0  0  0  0  0  0  0
    0.4896   20.7110    0.2975 H   0  0  0  0  0  0  0  0  0  0  0  0
   -1.1685   18.1064    1.3608 H   0  0  0  0  0  0  0  0  0  0  0  0
   -2.2564   18.4282   -0.0318 H   0  0  0  0  0  0  0  0  0  0  0  0
   -1.2041   16.9724   -0.0318 H   0  0  0  0  0  0  0  0  0  0  0  0
    2.3584   15.3665   -4.1175 H   0  0  0  0  0  0  0  0  0  0  0  0
    4.5620   14.4818   -4.5612 H   0  0  0  0  0  0  0  0  0  0  0  0
    5.2856   15.4023   -3.2253 H   0  0  0  0  0  0  0  0  0  0  0  0
    4.6972   12.6054   -3.1881 H   0  0  0  0  0  0  0  0  0  0  0  0
    5.0518   13.5585   -1.7496 H   0  0  0  0  0  0  0  0  0  0  0  0
    1.4368   11.9853   -3.0650 H   0  0  0  0  0  0  0  0  0  0  0  0
    1.7014   13.4746   -4.0338 H   0  0  0  0  0  0  0  0  0  0  0  0
    2.9379   12.1716   -4.0338 H   0  0  0  0  0  0  0  0  0  0  0  0
    3.2843   13.0921   -0.1628 H   0  0  0  0  0  0  0  0  0  0  0  0
    3.8980   11.0085   -1.5506 H   0  0  0  0  0  0  0  0  0  0  0  0
    3.2456   10.8527    0.1638 H   0  0  0  0  0  0  0  0  0  0  0  0
    2.3048    9.1377   -1.6015 H   0  0  0  0  0  0  0  0  0  0  0  0
   -0.1456   12.3271   -1.9454 H   0  0  0  0  0  0  0  0  0  0  0  0
   -0.8958   11.0747    0.7681 H   0  0  0  0  0  0  0  0  0  0  0  0
   -1.6252   12.5599    0.0107 H   0  0  0  0  0  0  0  0  0  0  0  0
   -3.0821   10.5738   -0.2296 H   0  0  0  0  0  0  0  0  0  0  0  0
   -2.5149   11.2298   -1.8149 H   0  0  0  0  0  0  0  0  0  0  0  0
   -2.3809    8.8359   -1.8795 H   0  0  0  0  0  0  0  0  0  0  0  0
   -1.6580    7.7050   -0.1980 H   0  0  0  0  0  0  0  0  0  0  0  0
   -1.2814   10.8732   -3.4477 H   0  0  0  0  0  0  0  0  0  0  0  0
    0.2551   10.1784   -4.0667 H   0  0  0  0  0  0  0  0  0  0  0  0
   -1.2431    9.1874   -4.0667 H   0  0  0  0  0  0  0  0  0  0  0  0
    0.3937    7.5534   -1.2967 H   0  0  0  0  0  0  0  0  0  0  0  0
   -0.5096    7.3993   -2.8418 H   0  0  0  0  0  0  0  0  0  0  0  0
    1.1663    8.0461   -2.8418 H   0  0  0  0  0  0  0  0  0  0  0  0
    1.0027   13.4125    1.7662 H   0  0  0  0  0  0  0  0  0  0  0  0
    0.4437   11.7312    1.4704 H   0  0  0  0  0  0  0  0  0  0  0  0
    2.2003   12.1068    1.4704 H   0  0  0  0  0  0  0  0  0  0  0  0
   -0.4773   14.2281   -0.4428 H   0  0  0  0  0  0  0  0  0  0  0  0
    1.0916   14.8091    0.3541 H   0  0  0  0  0  0  0  0  0  0  0  0
    0.4971   14.5835   -2.6094 H   0  0  0  0  0  0  0  0  0  0  0  0
    0.7849   16.0728   -1.6265 H   0  0  0  0  0  0  0  0  0  0  0  0
    2.8681   15.1896    0.1550 H   0  0  0  0  0  0  0  0  0  0  0  0
    4.3543   15.3458   -0.8418 H   0  0  0  0  0  0  0  0  0  0  0  0
    3.1306   16.6608   -0.8418 H   0  0  0  0  0  0  0  0  0  0  0  0
  1  2  1  0
  2  3  1  0
  3  4  1  0
  4  5  1  0
  5  6  1  0
  6  7  1  0
  7  8  1  0
  7  9  1  0
  2 10  1  0
 10 11  1  0
 11 12  1  0
 12 13  1  0
 13 14  1  6
 13 15  1  0
 15 16  1  0
 16 17  1  0
 17 18  2  0
 18 19  1  0
 19 20  1  0
 20 21  1  0
 21 22  1  0
 22 23  1  0
 22 24  1  0
 24 25  1  0
 24 26  1  0
 19 27  1  0
 27 28  1  1
 27 29  1  0
 29 30  1  0
 30 31  1  0
 31 32  1  1
  7  5  1  0
 31 10  1  0
 31 13  1  0
 27 15  1  0
 24 18  1  0
  1 33  1  0
  1 34  1  0
  1 35  1  0
  2 36  1  6
  3 37  1  0
  3 38  1  0
  4 39  1  0
  4 40  1  0
  5 41  1  6
  8 42  1  0
  8 43  1  0
  8 44  1  0
  9 45  1  0
  9 46  1  0
  9 47  1  0
 10 48  1  6
 11 49  1  0
 11 50  1  0
 12 51  1  0
 12 52  1  0
 14 53  1  0
 14 54  1  0
 14 55  1  0
 15 56  1  1
 16 57  1  0
 16 58  1  0
 17 59  1  0
 19 60  1  6
 20 61  1  0
 20 62  1  0
 21 63  1  0
 21 64  1  0
 22 65  1  6
 23 66  1  0
 25 67  1  0
 25 68  1  0
 25 69  1  0
 26 70  1  0
 26 71  1  0
 26 72  1  0
 28 73  1  0
 28 74  1  0
 28 75  1  0
 29 76  1  0
 29 77  1  0
 30 78  1  0
 30 79  1  0
 32 80  1  0
 32 81  1  0
 32 82  1  0
M  END
>  <meeko>  (9) 
{"is_sidechain": [false], "intermolecular_energy": 2.731, "internal_energy": -0.839}

$$$$
EPH_relaxed_0001_pdb2pqr_Repair_306_r2_0001_out
     RDKit          3D

 82 86  0  0  0  0  0  0  0  0999 V2000
    0.1080   10.3420   -3.7590 C   0  0  0  0  0  0  0  0  0  0  0  0
    1.1820   10.1390   -2.6870 C   0  0  2  0  0  0  0  0  0  0  0  0
    0.9030    8.8990   -1.8130 C   0  0  0  0  0  0  0  0  0  0  0  0
    0.2510    9.2290   -0.4680 C   0  0  0  0  0  0  0  0  0  0  0  0
   -1.1740    8.7660   -0.4140 C   0  0  2  0  0  0  0  0  0  0  0  0
   -1.8630    8.8050   -1.6700 O   0  0  0  0  0  0  0  0  0  0  0  0
   -2.3600    9.6830   -0.6470 C   0  0  0  0  0  0  0  0  0  0  0  0
   -2.1750   11.1370   -0.9500 C   0  0  0  0  0  0  0  0  0  0  0  0
   -3.6940    9.2790   -0.1010 C   0  0  0  0  0  0  0  0  0  0  0  0
    1.2820   11.3820   -1.8100 C   0  0  1  0  0  0  0  0  0  0  0  0
    2.2130   11.1750   -0.5860 C   0  0  0  0  0  0  0  0  0  0  0  0
    2.9240   12.5300   -0.3310 C   0  0  0  0  0  0  0  0  0  0  0  0
    2.1420   13.5480   -1.1930 C   0  0  1  0  0  0  0  0  0  0  0  0
    0.8810   13.9070   -0.3460 C   0  0  0  0  0  0  0  0  0  0  0  0
    2.9270   14.8280   -1.6310 C   0  0  2  0  0  0  0  0  0  0  0  0
    3.4000   15.7300   -0.4770 C   0  0  0  0  0  0  0  0  0  0  0  0
    2.4410   16.7990   -0.0690 C   0  0  0  0  0  0  0  0  0  0  0  0
    1.3770   17.2100   -0.7840 C   0  0  0  0  0  0  0  0  0  0  0  0
    1.1060   16.6500   -2.1860 C   0  0  1  0  0  0  0  0  0  0  0  0
    0.7770   17.8160   -3.1540 C   0  0  0  0  0  0  0  0  0  0  0  0
   -0.3630   18.6940   -2.6470 C   0  0  0  0  0  0  0  0  0  0  0  0
   -0.0310   19.2790   -1.2760 C   0  0  2  0  0  0  0  0  0  0  0  0
    1.0600   20.1940   -1.4170 O   0  0  0  0  0  0  0  0  0  0  0  0
    0.3270   18.1980   -0.2190 C   0  0  0  0  0  0  0  0  0  0  0  0
   -0.9430   17.3950    0.1560 C   0  0  0  0  0  0  0  0  0  0  0  0
    0.7770   18.9270    1.0760 C   0  0  0  0  0  0  0  0  0  0  0  0
    2.2130   15.6690   -2.7660 C   0  0  1  0  0  0  0  0  0  0  0  0
    3.3300   16.4890   -3.4810 C   0  0  0  0  0  0  0  0  0  0  0  0
    1.5620   14.7530   -3.8690 C   0  0  0  0  0  0  0  0  0  0  0  0
    0.9070   13.4440   -3.3860 C   0  0  0  0  0  0  0  0  0  0  0  0
    1.8500   12.6680   -2.4620 C   0  0  2  0  0  0  0  0  0  0  0  0
    3.1190   12.2740   -3.2930 C   0  0  0  0  0  0  0  0  0  0  0  0
   -0.8628   10.5255   -3.2753 H   0  0  0  0  0  0  0  0  0  0  0  0
    0.3744   11.2057   -4.3860 H   0  0  0  0  0  0  0  0  0  0  0  0
    0.0407    9.4407   -4.3860 H   0  0  0  0  0  0  0  0  0  0  0  0
    2.1382    9.9704   -3.2040 H   0  0  0  0  0  0  0  0  0  0  0  0
    0.2327    8.2263   -2.3682 H   0  0  0  0  0  0  0  0  0  0  0  0
    1.8757    8.4345   -1.5936 H   0  0  0  0  0  0  0  0  0  0  0  0
    0.8175    8.7332    0.3340 H   0  0  0  0  0  0  0  0  0  0  0  0
    0.2616   10.3216   -0.3407 H   0  0  0  0  0  0  0  0  0  0  0  0
   -0.9381    8.0552    0.3917 H   0  0  0  0  0  0  0  0  0  0  0  0
   -2.1032   11.7015   -0.0086 H   0  0  0  0  0  0  0  0  0  0  0  0
   -1.2520   11.2757   -1.5320 H   0  0  0  0  0  0  0  0  0  0  0  0
   -3.0339   11.5024   -1.5320 H   0  0  0  0  0  0  0  0  0  0  0  0
   -3.6587    9.2897    0.9984 H   0  0  0  0  0  0  0  0  0  0  0  0
   -4.4621    9.9848   -0.4501 H   0  0  0  0  0  0  0  0  0  0  0  0
   -3.9414    8.2656   -0.4501 H   0  0  0  0  0  0  0  0  0  0  0  0
    0.2187   11.5223   -1.5655 H   0  0  0  0  0  0  0  0  0  0  0  0
    1.6216   10.8857    0.2952 H   0  0  0  0  0  0  0  0  0  0  0  0
    2.9436   10.3749   -0.7760 H   0  0  0  0  0  0  0  0  0  0  0  0
    2.8722   12.8016    0.7337 H   0  0  0  0  0  0  0  0  0  0  0  0
    3.9923   12.4964   -0.5909 H   0  0  0  0  0  0  0  0  0  0  0  0
    1.1260   13.8372    0.7241 H   0  0  0  0  0  0  0  0  0  0  0  0
    0.5601   14.9322   -0.5826 H   0  0  0  0  0  0  0  0  0  0  0  0
    0.0682   13.2046   -0.5826 H   0  0  0  0  0  0  0  0  0  0  0  0
    3.8408   14.4048   -2.0736 H   0  0  0  0  0  0  0  0  0  0  0  0
    3.5893   15.0911    0.3982 H   0  0  0  0  0  0  0  0  0  0  0  0
    4.2968   16.2499   -0.8451 H   0  0  0  0  0  0  0  0  0  0  0  0
    2.6189   17.2926    0.8978 H   0  0  0  0  0  0  0  0  0  0  0  0
    0.2319   15.9897   -2.0866 H   0  0  0  0  0  0  0  0  0  0  0  0
    1.6756   18.4392   -3.2735 H   0  0  0  0  0  0  0  0  0  0  0  0
    0.4591   17.3758   -4.1107 H   0  0  0  0  0  0  0  0  0  0  0  0
   -0.5287   19.5160   -3.3589 H   0  0  0  0  0  0  0  0  0  0  0  0
   -1.2688   18.0766   -2.5560 H   0  0  0  0  0  0  0  0  0  0  0  0
   -0.9331   19.7901   -0.9084 H   0  0  0  0  0  0  0  0  0  0  0  0
    1.8370   19.7930   -0.9930 H   0  0  0  0  0  0  0  0  0  0  0  0
   -1.0314   17.3391    1.2510 H   0  0  0  0  0  0  0  0  0  0  0  0
   -1.8298   17.8969   -0.2583 H   0  0  0  0  0  0  0  0  0  0  0  0
   -0.8698   16.3786   -0.2583 H   0  0  0  0  0  0  0  0  0  0  0  0
    0.4289   18.3631    1.9540 H   0  0  0  0  0  0  0  0  0  0  0  0
    1.8747   18.9954    1.0957 H   0  0  0  0  0  0  0  0  0  0  0  0
    0.3462   19.9389    1.0957 H   0  0  0  0  0  0  0  0  0  0  0  0
    3.9760   16.9632   -2.7275 H   0  0  0  0  0  0  0  0  0  0  0  0
    3.9325   15.8171   -4.1100 H   0  0  0  0  0  0  0  0  0  0  0  0
    2.8695   17.2651   -4.1100 H   0  0  0  0  0  0  0  0  0  0  0  0
    0.7873   15.3447   -4.3785 H   0  0  0  0  0  0  0  0  0  0  0  0
    2.3972   14.4375   -4.5115 H   0  0  0  0  0  0  0  0  0  0  0  0
   -0.0163   13.6843   -2.8384 H   0  0  0  0  0  0  0  0  0  0  0  0
    0.6828   12.8194   -4.2632 H   0  0  0  0  0  0  0  0  0  0  0  0
    3.9411   12.0188   -2.6081 H   0  0  0  0  0  0  0  0  0  0  0  0
    2.8870   11.4056   -3.9271 H   0  0  0  0  0  0  0  0  0  0  0  0
    3.4196   13.1211   -3.9271 H   0  0  0  0  0  0  0  0  0  0  0  0
  1  2  1  0
  2  3  1  0
  3  4  1  0
  4  5  1  0
  5  6  1  0
  6  7  1  0
  7  8  1  0
  7  9  1  0
  2 10  1  0
 10 11  1  0
 11 12  1  0
 12 13  1  0
 13 14  1  1
 13 15  1  0
 15 16  1  0
 16 17  1  0
 17 18  2  0
 18 19  1  0
 19 20  1  0
 20 21  1  0
 21 22  1  0
 22 23  1  0
 22 24  1  0
 24 25  1  0
 24 26  1  0
 19 27  1  0
 27 28  1  6
 27 29  1  0
 29 30  1  0
 30 31  1  0
 31 32  1  6
  7  5  1  0
 31 10  1  0
 31 13  1  0
 27 15  1  0
 24 18  1  0
  1 33  1  0
  1 34  1  0
  1 35  1  0
  2 36  1  6
  3 37  1  0
  3 38  1  0
  4 39  1  0
  4 40  1  0
  5 41  1  1
  8 42  1  0
  8 43  1  0
  8 44  1  0
  9 45  1  0
  9 46  1  0
  9 47  1  0
 10 48  1  1
 11 49  1  0
 11 50  1  0
 12 51  1  0
 12 52  1  0
 14 53  1  0
 14 54  1  0
 14 55  1  0
 15 56  1  6
 16 57  1  0
 16 58  1  0
 17 59  1  0
 19 60  1  1
 20 61  1  0
 20 62  1  0
 21 63  1  0
 21 64  1  0
 22 65  1  1
 23 66  1  0
 25 67  1  0
 25 68  1  0
 25 69  1  0
 26 70  1  0
 26 71  1  0
 26 72  1  0
 28 73  1  0
 28 74  1  0
 28 75  1  0
 29 76  1  0
 29 77  1  0
 30 78  1  0
 30 79  1  0
 32 80  1  0
 32 81  1  0
 32 82  1  0
M  END
>  <meeko>  (10) 
{"is_sidechain": [false], "intermolecular_energy": 2.731, "internal_energy": -0.839}

$$$$
EPH_relaxed_0001_pdb2pqr_Repair_306_r2_0001_out
     RDKit          3D

 82 86  0  0  0  0  0  0  0  0999 V2000
   -2.6610    7.7310   -2.6230 C   0  0  0  0  0  0  0  0  0  0  0  0
   -2.8630    8.2210   -1.1870 C   0  0  2  0  0  0  0  0  0  0  0  0
   -4.3550    8.3490   -0.8210 C   0  0  0  0  0  0  0  0  0  0  0  0
   -5.1480    7.0530   -1.0100 C   0  0  0  0  0  0  0  0  0  0  0  0
   -6.1230    7.1600   -2.1440 C   0  0  2  0  0  0  0  0  0  0  0  0
   -6.8840    8.3740   -2.1660 O   0  0  0  0  0  0  0  0  0  0  0  0
   -7.6290    7.1640   -1.9550 C   0  0  0  0  0  0  0  0  0  0  0  0
   -8.2450    7.0570   -0.5950 C   0  0  0  0  0  0  0  0  0  0  0  0
   -8.4960    6.7790   -3.1130 C   0  0  0  0  0  0  0  0  0  0  0  0
   -2.1630    9.5610   -0.9920 C   0  0  1  0  0  0  0  0  0  0  0  0
   -2.3550   10.1330    0.4380 C   0  0  0  0  0  0  0  0  0  0  0  0
   -1.0410   10.8690    0.8050 C   0  0  0  0  0  0  0  0  0  0  0  0
   -0.2710   10.9830   -0.5310 C   0  0  1  0  0  0  0  0  0  0  0  0
   -0.9040   12.2120   -1.2550 C   0  0  0  0  0  0  0  0  0  0  0  0
    1.2840   11.1140   -0.4240 C   0  0  2  0  0  0  0  0  0  0  0  0
    1.7830   12.3740    0.3050 C   0  0  0  0  0  0  0  0  0  0  0  0
    2.0240   13.5620   -0.5670 C   0  0  0  0  0  0  0  0  0  0  0  0
    2.1220   13.5400   -1.9090 C   0  0  0  0  0  0  0  0  0  0  0  0
    2.0840   12.2140   -2.6800 C   0  0  1  0  0  0  0  0  0  0  0  0
    3.2260   12.1930   -3.7300 C   0  0  0  0  0  0  0  0  0  0  0  0
    3.1920   13.4070   -4.6550 C   0  0  0  0  0  0  0  0  0  0  0  0
    3.2900   14.7030   -3.8560 C   0  0  2  0  0  0  0  0  0  0  0  0
    4.5860   14.7770   -3.2530 O   0  0  0  0  0  0  0  0  0  0  0  0
    2.1960   14.8320   -2.7590 C   0  0  0  0  0  0  0  0  0  0  0  0
    0.8160   15.0550   -3.4250 C   0  0  0  0  0  0  0  0  0  0  0  0
    2.4940   16.1140   -1.9360 C   0  0  0  0  0  0  0  0  0  0  0  0
    2.0490   10.8960   -1.7920 C   0  0  1  0  0  0  0  0  0  0  0  0
    3.5010   10.4620   -1.4260 C   0  0  0  0  0  0  0  0  0  0  0  0
    1.4340    9.7210   -2.6400 C   0  0  0  0  0  0  0  0  0  0  0  0
   -0.0990    9.5700   -2.6100 C   0  0  0  0  0  0  0  0  0  0  0  0
   -0.6240    9.5910   -1.1710 C   0  0  2  0  0  0  0  0  0  0  0  0
   -0.0210    8.3530   -0.4240 C   0  0  0  0  0  0  0  0  0  0  0  0
   -2.2418    6.7141   -2.6079 H   0  0  0  0  0  0  0  0  0  0  0  0
   -3.6284    7.7211   -3.1465 H   0  0  0  0  0  0  0  0  0  0  0  0
   -1.9677    8.4057   -3.1465 H   0  0  0  0  0  0  0  0  0  0  0  0
   -2.4218    7.4691   -0.5161 H   0  0  0  0  0  0  0  0  0  0  0  0
   -4.4292    8.6509    0.2342 H   0  0  0  0  0  0  0  0  0  0  0  0
   -4.7905    9.0948   -1.5023 H   0  0  0  0  0  0  0  0  0  0  0  0
   -4.4458    6.2327   -1.2198 H   0  0  0  0  0  0  0  0  0  0  0  0
   -5.7149    6.8602   -0.0873 H   0  0  0  0  0  0  0  0  0  0  0  0
   -5.4630    6.5715   -2.7983 H   0  0  0  0  0  0  0  0  0  0  0  0
   -7.4675    7.1921    0.1713 H   0  0  0  0  0  0  0  0  0  0  0  0
   -9.0138    7.8351   -0.4784 H   0  0  0  0  0  0  0  0  0  0  0  0
   -8.7064    6.0653   -0.4784 H   0  0  0  0  0  0  0  0  0  0  0  0
   -9.4416    6.3591   -2.7394 H   0  0  0  0  0  0  0  0  0  0  0  0
   -8.7063    7.6683   -3.7253 H   0  0  0  0  0  0  0  0  0  0  0  0
   -7.9772    6.0266   -3.7253 H   0  0  0  0  0  0  0  0  0  0  0  0
   -2.6470   10.1406   -1.7919 H   0  0  0  0  0  0  0  0  0  0  0  0
   -3.2005   10.8364    0.4543 H   0  0  0  0  0  0  0  0  0  0  0  0
   -2.5730    9.3309    1.1584 H   0  0  0  0  0  0  0  0  0  0  0  0
   -1.2564   11.8666    1.2153 H   0  0  0  0  0  0  0  0  0  0  0  0
   -0.4645   10.3343    1.5742 H   0  0  0  0  0  0  0  0  0  0  0  0
   -1.2730   12.9285   -0.5064 H   0  0  0  0  0  0  0  0  0  0  0  0
   -0.1441   12.6981   -1.8845 H   0  0  0  0  0  0  0  0  0  0  0  0
   -1.7410   11.8756   -1.8845 H   0  0  0  0  0  0  0  0  0  0  0  0
    1.5483   10.2674    0.2268 H   0  0  0  0  0  0  0  0  0  0  0  0
    1.0303   12.6518    1.0575 H   0  0  0  0  0  0  0  0  0  0  0  0
    2.7600   12.1095    0.7358 H   0  0  0  0  0  0  0  0  0  0  0  0
    2.1304   14.5377   -0.0704 H   0  0  0  0  0  0  0  0  0  0  0  0
    1.1085   12.1855   -3.1875 H   0  0  0  0  0  0  0  0  0  0  0  0
    4.1907   12.1789   -3.2017 H   0  0  0  0  0  0  0  0  0  0  0  0
    3.0921   11.2953   -4.3515 H   0  0  0  0  0  0  0  0  0  0  0  0
    4.0388   13.3504   -5.3548 H   0  0  0  0  0  0  0  0  0  0  0  0
    2.2389   13.4039   -5.2042 H   0  0  0  0  0  0  0  0  0  0  0  0
    3.1300   15.5347   -4.5579 H   0  0  0  0  0  0  0  0  0  0  0  0
    4.4680   14.7070   -2.2910 H   0  0  0  0  0  0  0  0  0  0  0  0
    0.0489   15.1790   -2.6464 H   0  0  0  0  0  0  0  0  0  0  0  0
    0.8527   15.9589   -4.0508 H   0  0  0  0  0  0  0  0  0  0  0  0
    0.5661   14.1856   -4.0508 H   0  0  0  0  0  0  0  0  0  0  0  0
    2.4399   15.8813   -0.8623 H   0  0  0  0  0  0  0  0  0  0  0  0
    3.5015   16.4813   -2.1813 H   0  0  0  0  0  0  0  0  0  0  0  0
    1.7518   16.8880   -2.1813 H   0  0  0  0  0  0  0  0  0  0  0  0
    3.6092   10.4297   -0.3318 H   0  0  0  0  0  0  0  0  0  0  0  0
    3.7019    9.4645   -1.8440 H   0  0  0  0  0  0  0  0  0  0  0  0
    4.2163   11.1856   -1.8440 H   0  0  0  0  0  0  0  0  0  0  0  0
    1.7326    9.8750   -3.6874 H   0  0  0  0  0  0  0  0  0  0  0  0
    1.8226    8.8005   -2.1800 H   0  0  0  0  0  0  0  0  0  0  0  0
   -0.5534   10.4000   -3.1710 H   0  0  0  0  0  0  0  0  0  0  0  0
   -0.3654    8.6053   -3.0665 H   0  0  0  0  0  0  0  0  0  0  0  0
   -0.0964    8.5078    0.6624 H   0  0  0  0  0  0  0  0  0  0  0  0
   -0.5791    7.4477   -0.7050 H   0  0  0  0  0  0  0  0  0  0  0  0
    1.0359    8.2342   -0.7050 H   0  0  0  0  0  0  0  0  0  0  0  0
  1  2  1  0
  2  3  1  0
  3  4  1  0
  4  5  1  0
  5  6  1  0
  6  7  1  0
  7  8  1  0
  7  9  1  0
  2 10  1  0
 10 11  1  0
 11 12  1  0
 12 13  1  0
 13 14  1  6
 13 15  1  0
 15 16  1  0
 16 17  1  0
 17 18  2  0
 18 19  1  0
 19 20  1  0
 20 21  1  0
 21 22  1  0
 22 23  1  0
 22 24  1  0
 24 25  1  0
 24 26  1  0
 19 27  1  0
 27 28  1  1
 27 29  1  0
 29 30  1  0
 30 31  1  0
 31 32  1  1
  7  5  1  0
 31 10  1  0
 31 13  1  0
 27 15  1  0
 24 18  1  0
  1 33  1  0
  1 34  1  0
  1 35  1  0
  2 36  1  1
  3 37  1  0
  3 38  1  0
  4 39  1  0
  4 40  1  0
  5 41  1  6
  8 42  1  0
  8 43  1  0
  8 44  1  0
  9 45  1  0
  9 46  1  0
  9 47  1  0
 10 48  1  6
 11 49  1  0
 11 50  1  0
 12 51  1  0
 12 52  1  0
 14 53  1  0
 14 54  1  0
 14 55  1  0
 15 56  1  1
 16 57  1  0
 16 58  1  0
 17 59  1  0
 19 60  1  6
 20 61  1  0
 20 62  1  0
 21 63  1  0
 21 64  1  0
 22 65  1  6
 23 66  1  0
 25 67  1  0
 25 68  1  0
 25 69  1  0
 26 70  1  0
 26 71  1  0
 26 72  1  0
 28 73  1  0
 28 74  1  0
 28 75  1  0
 29 76  1  0
 29 77  1  0
 30 78  1  0
 30 79  1  0
 32 80  1  0
 32 81  1  0
 32 82  1  0
M  END
>  <meeko>  (11) 
{"is_sidechain": [false], "intermolecular_energy": 2.731, "internal_energy": -0.839}

$$$$
EPH_relaxed_0001_pdb2pqr_Repair_306_r2_0001_out
     RDKit          3D

 82 86  0  0  0  0  0  0  0  0999 V2000
   -0.3980    9.9800    1.0930 C   0  0  0  0  0  0  0  0  0  0  0  0
   -1.0780   10.2720   -0.2480 C   0  0  2  0  0  0  0  0  0  0  0  0
   -1.8090    9.0370   -0.8100 C   0  0  0  0  0  0  0  0  0  0  0  0
   -3.3300    9.0920   -0.6400 C   0  0  0  0  0  0  0  0  0  0  0  0
   -3.9630    7.7560   -0.8840 C   0  0  2  0  0  0  0  0  0  0  0  0
   -4.3510    7.5160   -2.2430 O   0  0  0  0  0  0  0  0  0  0  0  0
   -5.4170    7.5790   -1.2820 C   0  0  0  0  0  0  0  0  0  0  0  0
   -6.3260    8.7550   -1.4580 C   0  0  0  0  0  0  0  0  0  0  0  0
   -6.0740    6.2590   -1.0240 C   0  0  0  0  0  0  0  0  0  0  0  0
   -0.0470   10.7700   -1.2550 C   0  0  1  0  0  0  0  0  0  0  0  0
   -0.1840   10.0830   -2.6400 C   0  0  0  0  0  0  0  0  0  0  0  0
    0.1790   11.1480   -3.7060 C   0  0  0  0  0  0  0  0  0  0  0  0
    0.8270   12.3000   -2.9020 C   0  0  1  0  0  0  0  0  0  0  0  0
    2.3030   11.8460   -2.6700 C   0  0  0  0  0  0  0  0  0  0  0  0
    0.7550   13.7210   -3.5490 C   0  0  2  0  0  0  0  0  0  0  0  0
    1.4870   13.8620   -4.8960 C   0  0  0  0  0  0  0  0  0  0  0  0
    2.9160   14.2840   -4.8040 C   0  0  0  0  0  0  0  0  0  0  0  0
    3.5070   14.8130   -3.7160 C   0  0  0  0  0  0  0  0  0  0  0  0
    2.6950   15.1260   -2.4520 C   0  0  1  0  0  0  0  0  0  0  0  0
    3.0600   16.5440   -1.9410 C   0  0  0  0  0  0  0  0  0  0  0  0
    4.5600   16.7220   -1.7300 C   0  0  0  0  0  0  0  0  0  0  0  0
    5.3280   16.4590   -3.0220 C   0  0  2  0  0  0  0  0  0  0  0  0
    5.0000   17.4810   -3.9690 O   0  0  0  0  0  0  0  0  0  0  0  0
    5.0330   15.0630   -3.6370 C   0  0  0  0  0  0  0  0  0  0  0  0
    5.6610   13.9600   -2.7480 C   0  0  0  0  0  0  0  0  0  0  0  0
    5.7590   14.9810   -5.0070 C   0  0  0  0  0  0  0  0  0  0  0  0
    1.1260   14.9020   -2.5630 C   0  0  1  0  0  0  0  0  0  0  0  0
    0.4440   16.1850   -3.1300 C   0  0  0  0  0  0  0  0  0  0  0  0
    0.5340   14.6850   -1.1210 C   0  0  0  0  0  0  0  0  0  0  0  0
    0.5240   13.2400   -0.5840 C   0  0  0  0  0  0  0  0  0  0  0  0
   -0.0740   12.2770   -1.6140 C   0  0  2  0  0  0  0  0  0  0  0  0
   -1.5660   12.6950   -1.8510 C   0  0  0  0  0  0  0  0  0  0  0  0
   -1.0695   10.2684    1.9151 H   0  0  0  0  0  0  0  0  0  0  0  0
   -0.1724    8.9057    1.1635 H   0  0  0  0  0  0  0  0  0  0  0  0
    0.5363   10.5562    1.1635 H   0  0  0  0  0  0  0  0  0  0  0  0
   -1.8344   11.0512   -0.0729 H   0  0  0  0  0  0  0  0  0  0  0  0
   -1.5821    8.9577   -1.8834 H   0  0  0  0  0  0  0  0  0  0  0  0
   -1.4531    8.1658   -0.2405 H   0  0  0  0  0  0  0  0  0  0  0  0
   -3.5628    9.4149    0.3854 H   0  0  0  0  0  0  0  0  0  0  0  0
   -3.7323    9.8021   -1.3775 H   0  0  0  0  0  0  0  0  0  0  0  0
   -3.3534    7.2965   -0.0920 H   0  0  0  0  0  0  0  0  0  0  0  0
   -6.6233    9.1396   -0.4712 H   0  0  0  0  0  0  0  0  0  0  0  0
   -5.8008    9.5441   -2.0161 H   0  0  0  0  0  0  0  0  0  0  0  0
   -7.2220    8.4456   -2.0161 H   0  0  0  0  0  0  0  0  0  0  0  0
   -6.1553    6.0957    0.0608 H   0  0  0  0  0  0  0  0  0  0  0  0
   -7.0788    6.2558   -1.4716 H   0  0  0  0  0  0  0  0  0  0  0  0
   -5.4707    5.4554   -1.4716 H   0  0  0  0  0  0  0  0  0  0  0  0
    0.8763   10.5298   -0.7075 H   0  0  0  0  0  0  0  0  0  0  0  0
    0.5051    9.2283   -2.7086 H   0  0  0  0  0  0  0  0  0  0  0  0
   -1.2050    9.7034   -2.7930 H   0  0  0  0  0  0  0  0  0  0  0  0
    0.8899   10.7378   -4.4384 H   0  0  0  0  0  0  0  0  0  0  0  0
   -0.6992   11.4813   -4.2785 H   0  0  0  0  0  0  0  0  0  0  0  0
    2.5023   11.7847   -1.5899 H   0  0  0  0  0  0  0  0  0  0  0  0
    2.4592   10.8583   -3.1283 H   0  0  0  0  0  0  0  0  0  0  0  0
    2.9873   12.5752   -3.1283 H   0  0  0  0  0  0  0  0  0  0  0  0
   -0.3160   13.8220   -3.7785 H   0  0  0  0  0  0  0  0  0  0  0  0
    1.4524   12.8876   -5.4053 H   0  0  0  0  0  0  0  0  0  0  0  0
    0.9676   14.6632   -5.4422 H   0  0  0  0  0  0  0  0  0  0  0  0
    3.5388   14.1516   -5.7010 H   0  0  0  0  0  0  0  0  0  0  0  0
    2.9899   14.3731   -1.7062 H   0  0  0  0  0  0  0  0  0  0  0  0
    2.7177   17.2838   -2.6796 H   0  0  0  0  0  0  0  0  0  0  0  0
    2.5671   16.6851   -0.9678 H   0  0  0  0  0  0  0  0  0  0  0  0
    4.7570   17.7519   -1.3975 H   0  0  0  0  0  0  0  0  0  0  0  0
    4.8953   16.0013   -0.9696 H   0  0  0  0  0  0  0  0  0  0  0  0
    6.4003   16.4731   -2.7771 H   0  0  0  0  0  0  0  0  0  0  0  0
    4.5140   18.1770   -3.4950 H   0  0  0  0  0  0  0  0  0  0  0  0
    5.5152   14.2161   -1.6882 H   0  0  0  0  0  0  0  0  0  0  0  0
    5.1763   12.9961   -2.9624 H   0  0  0  0  0  0  0  0  0  0  0  0
    6.7373   13.8849   -2.9624 H   0  0  0  0  0  0  0  0  0  0  0  0
    6.8398   14.8589   -4.8425 H   0  0  0  0  0  0  0  0  0  0  0  0
    5.3750   14.1205   -5.5745 H   0  0  0  0  0  0  0  0  0  0  0  0
    5.5766   15.9055   -5.5745 H   0  0  0  0  0  0  0  0  0  0  0  0
    0.1067   16.8195   -2.2972 H   0  0  0  0  0  0  0  0  0  0  0  0
    1.1652   16.7417   -3.7464 H   0  0  0  0  0  0  0  0  0  0  0  0
   -0.4209   15.8986   -3.7464 H   0  0  0  0  0  0  0  0  0  0  0  0
    1.1258   15.2953   -0.4230 H   0  0  0  0  0  0  0  0  0  0  0  0
   -0.5254   14.9705   -1.1988 H   0  0  0  0  0  0  0  0  0  0  0  0
    1.5560   12.9321   -0.3601 H   0  0  0  0  0  0  0  0  0  0  0  0
   -0.0931   13.2081    0.3260 H   0  0  0  0  0  0  0  0  0  0  0  0
   -2.0660   12.8351   -0.8813 H   0  0  0  0  0  0  0  0  0  0  0  0
   -1.5972   13.6365   -2.4190 H   0  0  0  0  0  0  0  0  0  0  0  0
   -2.0818   11.9068   -2.4190 H   0  0  0  0  0  0  0  0  0  0  0  0
  1  2  1  0
  2  3  1  0
  3  4  1  0
  4  5  1  0
  5  6  1  0
  6  7  1  0
  7  8  1  0
  7  9  1  0
  2 10  1  0
 10 11  1  0
 11 12  1  0
 12 13  1  0
 13 14  1  1
 13 15  1  0
 15 16  1  0
 16 17  1  0
 17 18  2  0
 18 19  1  0
 19 20  1  0
 20 21  1  0
 21 22  1  0
 22 23  1  0
 22 24  1  0
 24 25  1  0
 24 26  1  0
 19 27  1  0
 27 28  1  6
 27 29  1  0
 29 30  1  0
 30 31  1  0
 31 32  1  6
  7  5  1  0
 31 10  1  0
 31 13  1  0
 27 15  1  0
 24 18  1  0
  1 33  1  0
  1 34  1  0
  1 35  1  0
  2 36  1  1
  3 37  1  0
  3 38  1  0
  4 39  1  0
  4 40  1  0
  5 41  1  1
  8 42  1  0
  8 43  1  0
  8 44  1  0
  9 45  1  0
  9 46  1  0
  9 47  1  0
 10 48  1  1
 11 49  1  0
 11 50  1  0
 12 51  1  0
 12 52  1  0
 14 53  1  0
 14 54  1  0
 14 55  1  0
 15 56  1  6
 16 57  1  0
 16 58  1  0
 17 59  1  0
 19 60  1  1
 20 61  1  0
 20 62  1  0
 21 63  1  0
 21 64  1  0
 22 65  1  1
 23 66  1  0
 25 67  1  0
 25 68  1  0
 25 69  1  0
 26 70  1  0
 26 71  1  0
 26 72  1  0
 28 73  1  0
 28 74  1  0
 28 75  1  0
 29 76  1  0
 29 77  1  0
 30 78  1  0
 30 79  1  0
 32 80  1  0
 32 81  1  0
 32 82  1  0
M  END
>  <meeko>  (12) 
{"is_sidechain": [false], "intermolecular_energy": 2.731, "internal_energy": -0.839}

$$$$
EPH_relaxed_0001_pdb2pqr_Repair_306_r2_0001_out
     RDKit          3D

 82 86  0  0  0  0  0  0  0  0999 V2000
    0.6200   18.3780   -1.6300 C   0  0  0  0  0  0  0  0  0  0  0  0
    1.6230   17.2210   -1.6680 C   0  0  2  0  0  0  0  0  0  0  0  0
    2.8250   17.5250   -2.5850 C   0  0  0  0  0  0  0  0  0  0  0  0
    4.1830   17.3130   -1.9090 C   0  0  0  0  0  0  0  0  0  0  0  0
    5.3160   17.7140   -2.8040 C   0  0  2  0  0  0  0  0  0  0  0  0
    5.0350   17.6130   -4.2070 O   0  0  0  0  0  0  0  0  0  0  0  0
    6.0590   16.7400   -3.7000 C   0  0  0  0  0  0  0  0  0  0  0  0
    5.6970   15.2890   -3.7440 C   0  0  0  0  0  0  0  0  0  0  0  0
    7.4380   17.0990   -4.1590 C   0  0  0  0  0  0  0  0  0  0  0  0
    0.9270   15.9450   -2.1270 C   0  0  1  0  0  0  0  0  0  0  0  0
    0.5290   15.9880   -3.6270 C   0  0  0  0  0  0  0  0  0  0  0  0
    0.6910   14.5460   -4.1740 C   0  0  0  0  0  0  0  0  0  0  0  0
    0.8520   13.6660   -2.9120 C   0  0  1  0  0  0  0  0  0  0  0  0
   -0.6020   13.4410   -2.3920 C   0  0  0  0  0  0  0  0  0  0  0  0
    1.6120   12.3140   -3.1050 C   0  0  2  0  0  0  0  0  0  0  0  0
    0.9400   11.3190   -4.0660 C   0  0  0  0  0  0  0  0  0  0  0  0
   -0.0180   10.3660   -3.4300 C   0  0  0  0  0  0  0  0  0  0  0  0
   -0.1160   10.1190   -2.1110 C   0  0  0  0  0  0  0  0  0  0  0  0
    0.8610   10.7590   -1.1150 C   0  0  1  0  0  0  0  0  0  0  0  0
    1.3730    9.6800   -0.1260 C   0  0  0  0  0  0  0  0  0  0  0  0
    0.2360    8.9360    0.5680 C   0  0  0  0  0  0  0  0  0  0  0  0
   -0.6800    8.2650   -0.4520 C   0  0  2  0  0  0  0  0  0  0  0  0
    0.0490    7.2240   -1.1110 O   0  0  0  0  0  0  0  0  0  0  0  0
   -1.2490    9.2530   -1.5080 C   0  0  0  0  0  0  0  0  0  0  0  0
   -2.2770   10.1970   -0.8360 C   0  0  0  0  0  0  0  0  0  0  0  0
   -2.0400    8.4270   -2.5580 C   0  0  0  0  0  0  0  0  0  0  0  0
    2.0400   11.6120   -1.7530 C   0  0  1  0  0  0  0  0  0  0  0  0
    3.2440   10.6820   -2.0950 C   0  0  0  0  0  0  0  0  0  0  0  0
    2.5650   12.6420   -0.6840 C   0  0  0  0  0  0  0  0  0  0  0  0
    1.8500   14.0060   -0.6230 C   0  0  0  0  0  0  0  0  0  0  0  0
    1.7260   14.6220   -2.0200 C   0  0  2  0  0  0  0  0  0  0  0  0
    3.1730   14.8810   -2.5590 C   0  0  0  0  0  0  0  0  0  0  0  0
    0.3968   18.6355   -0.5841 H   0  0  0  0  0  0  0  0  0  0  0  0
    1.0501   19.2530   -2.1393 H   0  0  0  0  0  0  0  0  0  0  0  0
   -0.3072   18.0764   -2.1393 H   0  0  0  0  0  0  0  0  0  0  0  0
    2.0118   17.0859   -0.6479 H   0  0  0  0  0  0  0  0  0  0  0  0
    2.7674   16.8655   -3.4635 H   0  0  0  0  0  0  0  0  0  0  0  0
    2.7626   18.5895   -2.8552 H   0  0  0  0  0  0  0  0  0  0  0  0
    4.2226   17.9178   -0.9910 H   0  0  0  0  0  0  0  0  0  0  0  0
    4.2889   16.2422   -1.6804 H   0  0  0  0  0  0  0  0  0  0  0  0
    5.6656   18.4547   -2.0698 H   0  0  0  0  0  0  0  0  0  0  0  0
    5.6009   14.9038   -2.7181 H   0  0  0  0  0  0  0  0  0  0  0  0
    4.7405   15.1656   -4.2731 H   0  0  0  0  0  0  0  0  0  0  0  0
    6.4834   14.7308   -4.2731 H   0  0  0  0  0  0  0  0  0  0  0  0
    8.0835   17.2670   -3.2843 H   0  0  0  0  0  0  0  0  0  0  0  0
    7.8482   16.2777   -4.7650 H   0  0  0  0  0  0  0  0  0  0  0  0
    7.3956   18.0160   -4.7650 H   0  0  0  0  0  0  0  0  0  0  0  0
    0.0816   15.9322   -1.4233 H   0  0  0  0  0  0  0  0  0  0  0  0
   -0.5149   16.3182   -3.7327 H   0  0  0  0  0  0  0  0  0  0  0  0
    1.1617   16.6951   -4.1835 H   0  0  0  0  0  0  0  0  0  0  0  0
   -0.1991   14.2454   -4.7461 H   0  0  0  0  0  0  0  0  0  0  0  0
    1.5465   14.4533   -4.8592 H   0  0  0  0  0  0  0  0  0  0  0  0
   -0.6021   13.4410   -1.2920 H   0  0  0  0  0  0  0  0  0  0  0  0
   -1.2518   14.2493   -2.7587 H   0  0  0  0  0  0  0  0  0  0  0  0
   -0.9771   12.4741   -2.7587 H   0  0  0  0  0  0  0  0  0  0  0  0
    2.5377   12.6339   -3.6057 H   0  0  0  0  0  0  0  0  0  0  0  0
    0.3916   11.8967   -4.8246 H   0  0  0  0  0  0  0  0  0  0  0  0
    1.7508   10.7031   -4.4824 H   0  0  0  0  0  0  0  0  0  0  0  0
   -0.7015    9.8196   -4.0965 H   0  0  0  0  0  0  0  0  0  0  0  0
    0.2848   11.5207   -0.5693 H   0  0  0  0  0  0  0  0  0  0  0  0
    1.9826    8.9527   -0.6822 H   0  0  0  0  0  0  0  0  0  0  0  0
    1.9609   10.1910    0.6507 H   0  0  0  0  0  0  0  0  0  0  0  0
    0.6604    8.1676    1.2309 H   0  0  0  0  0  0  0  0  0  0  0  0
   -0.3552    9.6603    1.1475 H   0  0  0  0  0  0  0  0  0  0  0  0
   -1.5437    7.8604    0.0960 H   0  0  0  0  0  0  0  0  0  0  0  0
    0.9600    7.2430   -0.7730 H   0  0  0  0  0  0  0  0  0  0  0  0
   -2.1889   10.1161    0.2575 H   0  0  0  0  0  0  0  0  0  0  0  0
   -2.0785   11.2341   -1.1441 H   0  0  0  0  0  0  0  0  0  0  0  0
   -3.2935    9.9111   -1.1441 H   0  0  0  0  0  0  0  0  0  0  0  0
   -2.7119    7.7254   -2.0420 H   0  0  0  0  0  0  0  0  0  0  0  0
   -2.6329    9.1064   -3.1880 H   0  0  0  0  0  0  0  0  0  0  0  0
   -1.3356    7.8640   -3.1880 H   0  0  0  0  0  0  0  0  0  0  0  0
    3.7071   10.3243   -1.1636 H   0  0  0  0  0  0  0  0  0  0  0  0
    2.8881    9.8220   -2.6813 H   0  0  0  0  0  0  0  0  0  0  0  0
    3.9861   11.2436   -2.6813 H   0  0  0  0  0  0  0  0  0  0  0  0
    2.4697   12.1718    0.3059 H   0  0  0  0  0  0  0  0  0  0  0  0
    3.5969   12.8715   -0.9882 H   0  0  0  0  0  0  0  0  0  0  0  0
    0.8440   13.8666   -0.2005 H   0  0  0  0  0  0  0  0  0  0  0  0
    2.4418   14.6847    0.0087 H   0  0  0  0  0  0  0  0  0  0  0  0
    3.8633   15.0046   -1.7115 H   0  0  0  0  0  0  0  0  0  0  0  0
    3.4944   14.0261   -3.1721 H   0  0  0  0  0  0  0  0  0  0  0  0
    3.1779   15.7943   -3.1721 H   0  0  0  0  0  0  0  0  0  0  0  0
  1  2  1  0
  2  3  1  0
  3  4  1  0
  4  5  1  0
  5  6  1  0
  6  7  1  0
  7  8  1  0
  7  9  1  0
  2 10  1  0
 10 11  1  0
 11 12  1  0
 12 13  1  0
 13 14  1  1
 13 15  1  0
 15 16  1  0
 16 17  1  0
 17 18  2  0
 18 19  1  0
 19 20  1  0
 20 21  1  0
 21 22  1  0
 22 23  1  0
 22 24  1  0
 24 25  1  0
 24 26  1  0
 19 27  1  0
 27 28  1  6
 27 29  1  0
 29 30  1  0
 30 31  1  0
 31 32  1  6
  7  5  1  0
 31 10  1  0
 31 13  1  0
 27 15  1  0
 24 18  1  0
  1 33  1  0
  1 34  1  0
  1 35  1  0
  2 36  1  1
  3 37  1  0
  3 38  1  0
  4 39  1  0
  4 40  1  0
  5 41  1  6
  8 42  1  0
  8 43  1  0
  8 44  1  0
  9 45  1  0
  9 46  1  0
  9 47  1  0
 10 48  1  1
 11 49  1  0
 11 50  1  0
 12 51  1  0
 12 52  1  0
 14 53  1  0
 14 54  1  0
 14 55  1  0
 15 56  1  6
 16 57  1  0
 16 58  1  0
 17 59  1  0
 19 60  1  1
 20 61  1  0
 20 62  1  0
 21 63  1  0
 21 64  1  0
 22 65  1  1
 23 66  1  0
 25 67  1  0
 25 68  1  0
 25 69  1  0
 26 70  1  0
 26 71  1  0
 26 72  1  0
 28 73  1  0
 28 74  1  0
 28 75  1  0
 29 76  1  0
 29 77  1  0
 30 78  1  0
 30 79  1  0
 32 80  1  0
 32 81  1  0
 32 82  1  0
M  END
>  <meeko>  (13) 
{"is_sidechain": [false], "intermolecular_energy": 2.731, "internal_energy": -0.839}

$$$$
EPH_relaxed_0001_pdb2pqr_Repair_306_r2_0001_out
     RDKit          3D

 82 86  0  0  0  0  0  0  0  0999 V2000
   -0.9680    7.9460   -2.2830 C   0  0  0  0  0  0  0  0  0  0  0  0
   -1.3790    8.8680   -1.1310 C   0  0  2  0  0  0  0  0  0  0  0  0
   -2.8440    8.6480   -0.7040 C   0  0  0  0  0  0  0  0  0  0  0  0
   -3.6570    7.8170   -1.7000 C   0  0  0  0  0  0  0  0  0  0  0  0
   -5.1150    7.8090   -1.3550 C   0  0  2  0  0  0  0  0  0  0  0  0
   -5.6320    6.5280   -0.9710 O   0  0  0  0  0  0  0  0  0  0  0  0
   -6.1660    7.0910   -2.1810 C   0  0  0  0  0  0  0  0  0  0  0  0
   -5.8020    6.3310   -3.4180 C   0  0  0  0  0  0  0  0  0  0  0  0
   -7.5920    7.5310   -2.0630 C   0  0  0  0  0  0  0  0  0  0  0  0
   -1.1660   10.3240   -1.5300 C   0  0  1  0  0  0  0  0  0  0  0  0
   -2.3920   11.2180   -1.2040 C   0  0  0  0  0  0  0  0  0  0  0  0
   -1.8370   12.6070   -0.7970 C   0  0  0  0  0  0  0  0  0  0  0  0
   -0.3490   12.5710   -1.2170 C   0  0  1  0  0  0  0  0  0  0  0  0
   -0.3560   12.8830   -2.7460 C   0  0  0  0  0  0  0  0  0  0  0  0
    0.6120   13.5270   -0.4380 C   0  0  2  0  0  0  0  0  0  0  0  0
    0.3050   15.0270   -0.5910 C   0  0  0  0  0  0  0  0  0  0  0  0
    1.0010   15.7080   -1.7230 C   0  0  0  0  0  0  0  0  0  0  0  0
    2.0510   15.2140   -2.4060 C   0  0  0  0  0  0  0  0  0  0  0  0
    2.7070   13.8900   -1.9940 C   0  0  1  0  0  0  0  0  0  0  0  0
    4.2480   14.0590   -1.9750 C   0  0  0  0  0  0  0  0  0  0  0  0
    4.7950   14.5950   -3.2950 C   0  0  0  0  0  0  0  0  0  0  0  0
    4.1620   15.9400   -3.6410 C   0  0  2  0  0  0  0  0  0  0  0  0
    4.5910   16.9120   -2.6820 O   0  0  0  0  0  0  0  0  0  0  0  0
    2.6090   15.8950   -3.6800 C   0  0  0  0  0  0  0  0  0  0  0  0
    2.1430   15.0780   -4.9110 C   0  0  0  0  0  0  0  0  0  0  0  0
    2.0950   17.3430   -3.9000 C   0  0  0  0  0  0  0  0  0  0  0  0
    2.1490   13.2250   -0.6620 C   0  0  1  0  0  0  0  0  0  0  0  0
    2.9010   13.8020    0.5760 C   0  0  0  0  0  0  0  0  0  0  0  0
    2.4580   11.6820   -0.6900 C   0  0  0  0  0  0  0  0  0  0  0  0
    1.4120   10.7760   -1.3690 C   0  0  0  0  0  0  0  0  0  0  0  0
    0.0030   11.0830   -0.8530 C   0  0  2  0  0  0  0  0  0  0  0  0
   -0.0270   10.7580    0.6790 C   0  0  0  0  0  0  0  0  0  0  0  0
   -0.5520    7.0129   -1.8753 H   0  0  0  0  0  0  0  0  0  0  0  0
   -1.8487    7.7158   -2.9005 H   0  0  0  0  0  0  0  0  0  0  0  0
   -0.2081    8.4472   -2.9005 H   0  0  0  0  0  0  0  0  0  0  0  0
   -0.7436    8.6215   -0.2675 H   0  0  0  0  0  0  0  0  0  0  0  0
   -2.8489    8.1297    0.2662 H   0  0  0  0  0  0  0  0  0  0  0  0
   -3.3162    9.6401   -0.6521 H   0  0  0  0  0  0  0  0  0  0  0  0
   -3.5311    8.2432   -2.7062 H   0  0  0  0  0  0  0  0  0  0  0  0
   -3.2900    6.7807   -1.6620 H   0  0  0  0  0  0  0  0  0  0  0  0
   -5.0544    8.8383   -0.9718 H   0  0  0  0  0  0  0  0  0  0  0  0
   -5.3426    5.3718   -3.1371 H   0  0  0  0  0  0  0  0  0  0  0  0
   -6.7080    6.1434   -4.0130 H   0  0  0  0  0  0  0  0  0  0  0  0
   -5.0879    6.9193   -4.0130 H   0  0  0  0  0  0  0  0  0  0  0  0
   -7.8632    7.6147   -1.0002 H   0  0  0  0  0  0  0  0  0  0  0  0
   -7.7155    8.5090   -2.5510 H   0  0  0  0  0  0  0  0  0  0  0  0
   -8.2451    6.7926   -2.5510 H   0  0  0  0  0  0  0  0  0  0  0  0
   -0.9592   10.1931   -2.6024 H   0  0  0  0  0  0  0  0  0  0  0  0
   -3.0379   11.3127   -2.0894 H   0  0  0  0  0  0  0  0  0  0  0  0
   -2.9953   10.7811   -0.3946 H   0  0  0  0  0  0  0  0  0  0  0  0
   -2.3709   13.4092   -1.3275 H   0  0  0  0  0  0  0  0  0  0  0  0
   -1.9625   12.8079    0.2772 H   0  0  0  0  0  0  0  0  0  0  0  0
   -0.3804   13.9722   -2.8979 H   0  0  0  0  0  0  0  0  0  0  0  0
    0.5517   12.4685   -3.2090 H   0  0  0  0  0  0  0  0  0  0  0  0
   -1.2442   12.4282   -3.2090 H   0  0  0  0  0  0  0  0  0  0  0  0
    0.3890   13.2822    0.6110 H   0  0  0  0  0  0  0  0  0  0  0  0
   -0.7789   15.1385   -0.7419 H   0  0  0  0  0  0  0  0  0  0  0  0
    0.6737   15.5084    0.3268 H   0  0  0  0  0  0  0  0  0  0  0  0
    0.6242   16.6965   -2.0243 H   0  0  0  0  0  0  0  0  0  0  0  0
    2.4221   13.1572   -2.7633 H   0  0  0  0  0  0  0  0  0  0  0  0
    4.5157   14.7610   -1.1715 H   0  0  0  0  0  0  0  0  0  0  0  0
    4.6905   13.0656   -1.8094 H   0  0  0  0  0  0  0  0  0  0  0  0
    5.8843   14.7212   -3.2087 H   0  0  0  0  0  0  0  0  0  0  0  0
    4.5533   13.8773   -4.0928 H   0  0  0  0  0  0  0  0  0  0  0  0
    4.4933   16.2088   -4.6549 H   0  0  0  0  0  0  0  0  0  0  0  0
    4.3000   16.6080   -1.8060 H   0  0  0  0  0  0  0  0  0  0  0  0
    1.6244   14.1688   -4.5727 H   0  0  0  0  0  0  0  0  0  0  0  0
    1.4567   15.6875   -5.5172 H   0  0  0  0  0  0  0  0  0  0  0  0
    3.0170   14.7976   -5.5172 H   0  0  0  0  0  0  0  0  0  0  0  0
    1.9244   17.8236   -2.9253 H   0  0  0  0  0  0  0  0  0  0  0  0
    2.8446   17.9162   -4.4653 H   0  0  0  0  0  0  0  0  0  0  0  0
    1.1518   17.3153   -4.4653 H   0  0  0  0  0  0  0  0  0  0  0  0
    2.4245   13.4364    1.4976 H   0  0  0  0  0  0  0  0  0  0  0  0
    3.9512   13.4758    0.5519 H   0  0  0  0  0  0  0  0  0  0  0  0
    2.8578   14.9009    0.5519 H   0  0  0  0  0  0  0  0  0  0  0  0
    3.4122   11.5432   -1.2194 H   0  0  0  0  0  0  0  0  0  0  0  0
    2.4667   11.3710    0.3651 H   0  0  0  0  0  0  0  0  0  0  0  0
    1.4417   10.9439   -2.4557 H   0  0  0  0  0  0  0  0  0  0  0  0
    1.6507    9.7281   -1.1346 H   0  0  0  0  0  0  0  0  0  0  0  0
    0.0592   11.6920    1.2537 H   0  0  0  0  0  0  0  0  0  0  0  0
   -0.9750   10.2595    0.9296 H   0  0  0  0  0  0  0  0  0  0  0  0
    0.8137   10.0944    0.9296 H   0  0  0  0  0  0  0  0  0  0  0  0
  1  2  1  0
  2  3  1  0
  3  4  1  0
  4  5  1  0
  5  6  1  0
  6  7  1  0
  7  8  1  0
  7  9  1  0
  2 10  1  0
 10 11  1  0
 11 12  1  0
 12 13  1  0
 13 14  1  6
 13 15  1  0
 15 16  1  0
 16 17  1  0
 17 18  2  0
 18 19  1  0
 19 20  1  0
 20 21  1  0
 21 22  1  0
 22 23  1  0
 22 24  1  0
 24 25  1  0
 24 26  1  0
 19 27  1  0
 27 28  1  1
 27 29  1  0
 29 30  1  0
 30 31  1  0
 31 32  1  1
  7  5  1  0
 31 10  1  0
 31 13  1  0
 27 15  1  0
 24 18  1  0
  1 33  1  0
  1 34  1  0
  1 35  1  0
  2 36  1  1
  3 37  1  0
  3 38  1  0
  4 39  1  0
  4 40  1  0
  5 41  1  1
  8 42  1  0
  8 43  1  0
  8 44  1  0
  9 45  1  0
  9 46  1  0
  9 47  1  0
 10 48  1  6
 11 49  1  0
 11 50  1  0
 12 51  1  0
 12 52  1  0
 14 53  1  0
 14 54  1  0
 14 55  1  0
 15 56  1  1
 16 57  1  0
 16 58  1  0
 17 59  1  0
 19 60  1  6
 20 61  1  0
 20 62  1  0
 21 63  1  0
 21 64  1  0
 22 65  1  6
 23 66  1  0
 25 67  1  0
 25 68  1  0
 25 69  1  0
 26 70  1  0
 26 71  1  0
 26 72  1  0
 28 73  1  0
 28 74  1  0
 28 75  1  0
 29 76  1  0
 29 77  1  0
 30 78  1  0
 30 79  1  0
 32 80  1  0
 32 81  1  0
 32 82  1  0
M  END
>  <meeko>  (14) 
{"is_sidechain": [false], "intermolecular_energy": 2.731, "internal_energy": -0.839}

$$$$
EPH_relaxed_0001_pdb2pqr_Repair_306_r2_0001_out
     RDKit          3D

 82 86  0  0  0  0  0  0  0  0999 V2000
    0.7120   10.4290   -3.5470 C   0  0  0  0  0  0  0  0  0  0  0  0
    2.0190   10.2670   -2.7660 C   0  0  2  0  0  0  0  0  0  0  0  0
    1.8100    9.5300   -1.4290 C   0  0  0  0  0  0  0  0  0  0  0  0
    0.8420   10.2400   -0.4790 C   0  0  0  0  0  0  0  0  0  0  0  0
   -0.4190    9.4530   -0.2820 C   0  0  2  0  0  0  0  0  0  0  0  0
   -1.0850    9.0750   -1.4930 O   0  0  0  0  0  0  0  0  0  0  0  0
   -1.7970    9.9790   -0.6340 C   0  0  0  0  0  0  0  0  0  0  0  0
   -1.9870   11.3470   -1.2120 C   0  0  0  0  0  0  0  0  0  0  0  0
   -2.9890    9.3650    0.0320 C   0  0  0  0  0  0  0  0  0  0  0  0
    2.6470   11.6330   -2.5150 C   0  0  1  0  0  0  0  0  0  0  0  0
    4.0100   11.8070   -3.2380 C   0  0  0  0  0  0  0  0  0  0  0  0
    4.1010   13.2920   -3.6710 C   0  0  0  0  0  0  0  0  0  0  0  0
    2.9560   13.9930   -2.9020 C   0  0  1  0  0  0  0  0  0  0  0  0
    3.5280   14.2440   -1.4720 C   0  0  0  0  0  0  0  0  0  0  0  0
    2.3990   15.3080   -3.5400 C   0  0  2  0  0  0  0  0  0  0  0  0
    3.4140   16.4580   -3.6560 C   0  0  0  0  0  0  0  0  0  0  0  0
    3.4680   17.3820   -2.4850 C   0  0  0  0  0  0  0  0  0  0  0  0
    2.5420   17.4650   -1.5120 C   0  0  0  0  0  0  0  0  0  0  0  0
    1.2490   16.6430   -1.5820 C   0  0  1  0  0  0  0  0  0  0  0  0
    0.0370   17.5540   -1.2490 C   0  0  0  0  0  0  0  0  0  0  0  0
    0.1980   18.2750    0.0860 C   0  0  0  0  0  0  0  0  0  0  0  0
    1.4640   19.1280    0.0960 C   0  0  2  0  0  0  0  0  0  0  0  0
    1.3100   20.1940   -0.8450 O   0  0  0  0  0  0  0  0  0  0  0  0
    2.7500   18.3190   -0.2370 C   0  0  0  0  0  0  0  0  0  0  0  0
    3.0830   17.3660    0.9380 C   0  0  0  0  0  0  0  0  0  0  0  0
    3.9320   19.3210   -0.3320 C   0  0  0  0  0  0  0  0  0  0  0  0
    1.0330   15.8040   -2.9140 C   0  0  1  0  0  0  0  0  0  0  0  0
    0.3430   16.6900   -3.9960 C   0  0  0  0  0  0  0  0  0  0  0  0
    0.0440   14.6150   -2.6180 C   0  0  0  0  0  0  0  0  0  0  0  0
    0.6680   13.3040   -2.1030 C   0  0  0  0  0  0  0  0  0  0  0  0
    1.8500   12.8780   -2.9790 C   0  0  2  0  0  0  0  0  0  0  0  0
    1.3020   12.5970   -4.4200 C   0  0  0  0  0  0  0  0  0  0  0  0
   -0.1260   10.5329   -2.8420 H   0  0  0  0  0  0  0  0  0  0  0  0
    0.7720   11.3266   -4.1800 H   0  0  0  0  0  0  0  0  0  0  0  0
    0.5510    9.5439   -4.1800 H   0  0  0  0  0  0  0  0  0  0  0  0
    2.6958    9.6530   -3.3783 H   0  0  0  0  0  0  0  0  0  0  0  0
    1.4125    8.5271   -1.6439 H   0  0  0  0  0  0  0  0  0  0  0  0
    2.7872    9.4955   -0.9251 H   0  0  0  0  0  0  0  0  0  0  0  0
    1.3338   10.3751    0.4956 H   0  0  0  0  0  0  0  0  0  0  0  0
    0.5749   11.2100   -0.9236 H   0  0  0  0  0  0  0  0  0  0  0  0
   -0.0161    8.9931    0.6324 H   0  0  0  0  0  0  0  0  0  0  0  0
   -2.0886   12.0786   -0.3969 H   0  0  0  0  0  0  0  0  0  0  0  0
   -1.1164   11.6073   -1.8319 H   0  0  0  0  0  0  0  0  0  0  0  0
   -2.8956   11.3602   -1.8319 H   0  0  0  0  0  0  0  0  0  0  0  0
   -2.8708    9.4259    1.1239 H   0  0  0  0  0  0  0  0  0  0  0  0
   -3.8973    9.9074   -0.2693 H   0  0  0  0  0  0  0  0  0  0  0  0
   -3.0747    8.3105   -0.2693 H   0  0  0  0  0  0  0  0  0  0  0  0
    2.7044   11.6100   -1.4167 H   0  0  0  0  0  0  0  0  0  0  0  0
    4.8356   11.5607   -2.5540 H   0  0  0  0  0  0  0  0  0  0  0  0
    4.0838   11.1372   -4.1074 H   0  0  0  0  0  0  0  0  0  0  0  0
    5.0753   13.7192   -3.3912 H   0  0  0  0  0  0  0  0  0  0  0  0
    4.0091   13.4156   -4.7602 H   0  0  0  0  0  0  0  0  0  0  0  0
    2.7921   13.9211   -0.7209 H   0  0  0  0  0  0  0  0  0  0  0  0
    4.4584   13.6715   -1.3436 H   0  0  0  0  0  0  0  0  0  0  0  0
    3.7366   15.3164   -1.3436 H   0  0  0  0  0  0  0  0  0  0  0  0
    2.1825   14.9956   -4.5723 H   0  0  0  0  0  0  0  0  0  0  0  0
    4.4132   16.0173   -3.7874 H   0  0  0  0  0  0  0  0  0  0  0  0
    3.0856   17.0684   -4.5101 H   0  0  0  0  0  0  0  0  0  0  0  0
    4.3378   18.0514   -2.4111 H   0  0  0  0  0  0  0  0  0  0  0  0
    1.3463   15.8573   -0.8183 H   0  0  0  0  0  0  0  0  0  0  0  0
   -0.0689   18.3054   -2.0453 H   0  0  0  0  0  0  0  0  0  0  0  0
   -0.8538   16.9126   -1.1774 H   0  0  0  0  0  0  0  0  0  0  0  0
   -0.6746   18.9238    0.2523 H   0  0  0  0  0  0  0  0  0  0  0  0
    0.2753   17.5224    0.8845 H   0  0  0  0  0  0  0  0  0  0  0  0
    1.5921   19.5158    1.1174 H   0  0  0  0  0  0  0  0  0  0  0  0
    0.4540   20.6210   -0.6680 H   0  0  0  0  0  0  0  0  0  0  0  0
    2.9023   17.8830    1.8920 H   0  0  0  0  0  0  0  0  0  0  0  0
    2.4437   16.4729    0.8782 H   0  0  0  0  0  0  0  0  0  0  0  0
    4.1394   17.0654    0.8782 H   0  0  0  0  0  0  0  0  0  0  0  0
    4.2596   19.5987    0.6807 H   0  0  0  0  0  0  0  0  0  0  0  0
    4.7677   18.8520   -0.8720 H   0  0  0  0  0  0  0  0  0  0  0  0
    3.6062   20.2222   -0.8720 H   0  0  0  0  0  0  0  0  0  0  0  0
   -0.2614   17.4660   -3.5036 H   0  0  0  0  0  0  0  0  0  0  0  0
    1.1104   17.1663   -4.6238 H   0  0  0  0  0  0  0  0  0  0  0  0
   -0.3068   16.0626   -4.6238 H   0  0  0  0  0  0  0  0  0  0  0  0
   -0.6752   14.9610   -1.8610 H   0  0  0  0  0  0  0  0  0  0  0  0
   -0.3988   14.3597   -3.5921 H   0  0  0  0  0  0  0  0  0  0  0  0
    1.0201   13.4539   -1.0717 H   0  0  0  0  0  0  0  0  0  0  0  0
   -0.0969   12.5142   -2.1379 H   0  0  0  0  0  0  0  0  0  0  0  0
    0.3252   12.0961   -4.3496 H   0  0  0  0  0  0  0  0  0  0  0  0
    1.1883   13.5480   -4.9610 H   0  0  0  0  0  0  0  0  0  0  0  0
    2.0079   11.9496   -4.9610 H   0  0  0  0  0  0  0  0  0  0  0  0
  1  2  1  0
  2  3  1  0
  3  4  1  0
  4  5  1  0
  5  6  1  0
  6  7  1  0
  7  8  1  0
  7  9  1  0
  2 10  1  0
 10 11  1  0
 11 12  1  0
 12 13  1  0
 13 14  1  1
 13 15  1  0
 15 16  1  0
 16 17  1  0
 17 18  2  0
 18 19  1  0
 19 20  1  0
 20 21  1  0
 21 22  1  0
 22 23  1  0
 22 24  1  0
 24 25  1  0
 24 26  1  0
 19 27  1  0
 27 28  1  6
 27 29  1  0
 29 30  1  0
 30 31  1  0
 31 32  1  6
  7  5  1  0
 31 10  1  0
 31 13  1  0
 27 15  1  0
 24 18  1  0
  1 33  1  0
  1 34  1  0
  1 35  1  0
  2 36  1  6
  3 37  1  0
  3 38  1  0
  4 39  1  0
  4 40  1  0
  5 41  1  1
  8 42  1  0
  8 43  1  0
  8 44  1  0
  9 45  1  0
  9 46  1  0
  9 47  1  0
 10 48  1  1
 11 49  1  0
 11 50  1  0
 12 51  1  0
 12 52  1  0
 14 53  1  0
 14 54  1  0
 14 55  1  0
 15 56  1  6
 16 57  1  0
 16 58  1  0
 17 59  1  0
 19 60  1  1
 20 61  1  0
 20 62  1  0
 21 63  1  0
 21 64  1  0
 22 65  1  1
 23 66  1  0
 25 67  1  0
 25 68  1  0
 25 69  1  0
 26 70  1  0
 26 71  1  0
 26 72  1  0
 28 73  1  0
 28 74  1  0
 28 75  1  0
 29 76  1  0
 29 77  1  0
 30 78  1  0
 30 79  1  0
 32 80  1  0
 32 81  1  0
 32 82  1  0
M  END
>  <meeko>  (15) 
{"is_sidechain": [false], "intermolecular_energy": 2.731, "internal_energy": -0.839}

$$$$
EPH_relaxed_0001_pdb2pqr_Repair_306_r2_0001_out
     RDKit          3D

 82 86  0  0  0  0  0  0  0  0999 V2000
   -0.3920    9.2570   -3.2360 C   0  0  0  0  0  0  0  0  0  0  0  0
    0.4800    9.1820   -1.9800 C   0  0  2  0  0  0  0  0  0  0  0  0
   -0.3640    9.1070   -0.6910 C   0  0  0  0  0  0  0  0  0  0  0  0
   -1.6980    8.3780   -0.8710 C   0  0  0  0  0  0  0  0  0  0  0  0
   -2.8630    9.2830   -0.6050 C   0  0  2  0  0  0  0  0  0  0  0  0
   -3.5340    9.0450    0.6400 O   0  0  0  0  0  0  0  0  0  0  0  0
   -4.3010    8.8000   -0.5500 C   0  0  0  0  0  0  0  0  0  0  0  0
   -4.6500    7.3610   -0.7640 C   0  0  0  0  0  0  0  0  0  0  0  0
   -5.3980    9.7940   -0.7740 C   0  0  0  0  0  0  0  0  0  0  0  0
    1.4130   10.3860   -1.9220 C   0  0  1  0  0  0  0  0  0  0  0  0
    2.8760   10.0260   -2.2940 C   0  0  0  0  0  0  0  0  0  0  0  0
    3.4620   11.2520   -3.0420 C   0  0  0  0  0  0  0  0  0  0  0  0
    2.4430   12.3870   -2.7870 C   0  0  1  0  0  0  0  0  0  0  0  0
    2.7930   12.9290   -1.3660 C   0  0  0  0  0  0  0  0  0  0  0  0
    2.4070   13.5340   -3.8490 C   0  0  2  0  0  0  0  0  0  0  0  0
    3.7100   14.3410   -3.9830 C   0  0  0  0  0  0  0  0  0  0  0  0
    3.8100   15.5420   -3.1020 C   0  0  0  0  0  0  0  0  0  0  0  0
    2.7850   16.1190   -2.4480 C   0  0  0  0  0  0  0  0  0  0  0  0
    1.3470   15.6210   -2.6400 C   0  0  1  0  0  0  0  0  0  0  0  0
    0.4040   16.8330   -2.8610 C   0  0  0  0  0  0  0  0  0  0  0  0
    0.5180   17.8730   -1.7500 C   0  0  0  0  0  0  0  0  0  0  0  0
    1.9500   18.3860   -1.6290 C   0  0  2  0  0  0  0  0  0  0  0  0
    2.2780   19.1230   -2.8110 O   0  0  0  0  0  0  0  0  0  0  0  0
    2.9920   17.2530   -1.4130 C   0  0  0  0  0  0  0  0  0  0  0  0
    2.8230   16.6540    0.0050 C   0  0  0  0  0  0  0  0  0  0  0  0
    4.4060   17.8920   -1.4490 C   0  0  0  0  0  0  0  0  0  0  0  0
    1.1480   14.4850   -3.7340 C   0  0  1  0  0  0  0  0  0  0  0  0
    0.9460   15.1300   -5.1390 C   0  0  0  0  0  0  0  0  0  0  0  0
   -0.1740   13.6920   -3.4150 C   0  0  0  0  0  0  0  0  0  0  0  0
   -0.0520   12.4960   -2.4520 C   0  0  0  0  0  0  0  0  0  0  0  0
    1.1000   11.5740   -2.8650 C   0  0  2  0  0  0  0  0  0  0  0  0
    0.7650   10.9960   -4.2830 C   0  0  0  0  0  0  0  0  0  0  0  0
   -1.4486    9.3479   -2.9439 H   0  0  0  0  0  0  0  0  0  0  0  0
   -0.1000   10.1333   -3.8333 H   0  0  0  0  0  0  0  0  0  0  0  0
   -0.2539    8.3437   -3.8333 H   0  0  0  0  0  0  0  0  0  0  0  0
    1.0711    8.2564   -2.0423 H   0  0  0  0  0  0  0  0  0  0  0  0
    0.2202    8.5780    0.0764 H   0  0  0  0  0  0  0  0  0  0  0  0
   -0.5994   10.1414   -0.4000 H   0  0  0  0  0  0  0  0  0  0  0  0
   -1.7643    8.0053   -1.9038 H   0  0  0  0  0  0  0  0  0  0  0  0
   -1.7360    7.5481   -0.1500 H   0  0  0  0  0  0  0  0  0  0  0  0
   -2.3809   10.1051   -1.1543 H   0  0  0  0  0  0  0  0  0  0  0  0
   -4.7705    6.8642    0.2100 H   0  0  0  0  0  0  0  0  0  0  0  0
   -5.5909    7.2921   -1.3297 H   0  0  0  0  0  0  0  0  0  0  0  0
   -3.8452    6.8687   -1.3297 H   0  0  0  0  0  0  0  0  0  0  0  0
   -5.7816   10.1416    0.1966 H   0  0  0  0  0  0  0  0  0  0  0  0
   -5.0061   10.6509   -1.3416 H   0  0  0  0  0  0  0  0  0  0  0  0
   -6.2122    9.3198   -1.3416 H   0  0  0  0  0  0  0  0  0  0  0  0
    1.2612   10.6869   -0.8749 H   0  0  0  0  0  0  0  0  0  0  0  0
    3.4594    9.8232   -1.3838 H   0  0  0  0  0  0  0  0  0  0  0  0
    2.9132    9.1245   -2.9233 H   0  0  0  0  0  0  0  0  0  0  0  0
    4.4496   11.5184   -2.6373 H   0  0  0  0  0  0  0  0  0  0  0  0
    3.6088   11.0558   -4.1144 H   0  0  0  0  0  0  0  0  0  0  0  0
    2.3630   12.2631   -0.6034 H   0  0  0  0  0  0  0  0  0  0  0  0
    3.8859   12.9658   -1.2465 H   0  0  0  0  0  0  0  0  0  0  0  0
    2.3769   13.9402   -1.2465 H   0  0  0  0  0  0  0  0  0  0  0  0
    2.3019   12.9777   -4.7921 H   0  0  0  0  0  0  0  0  0  0  0  0
    4.5500   13.6725   -3.7429 H   0  0  0  0  0  0  0  0  0  0  0  0
    3.7288   14.7190   -5.0158 H   0  0  0  0  0  0  0  0  0  0  0  0
    4.8053   15.9934   -2.9768 H   0  0  0  0  0  0  0  0  0  0  0  0
    1.0767   15.1039   -1.7075 H   0  0  0  0  0  0  0  0  0  0  0  0
    0.6611   17.3100   -3.8183 H   0  0  0  0  0  0  0  0  0  0  0  0
   -0.6295   16.4564   -2.8612 H   0  0  0  0  0  0  0  0  0  0  0  0
   -0.1491   18.7176   -1.9775 H   0  0  0  0  0  0  0  0  0  0  0  0
    0.2316   17.4027   -0.7977 H   0  0  0  0  0  0  0  0  0  0  0  0
    1.9953   19.0269   -0.7362 H   0  0  0  0  0  0  0  0  0  0  0  0
    1.4730   19.5840   -3.1030 H   0  0  0  0  0  0  0  0  0  0  0  0
    3.0408   17.4261    0.7576 H   0  0  0  0  0  0  0  0  0  0  0  0
    1.7897   16.2991    0.1323 H   0  0  0  0  0  0  0  0  0  0  0  0
    3.5185   15.8113    0.1323 H   0  0  0  0  0  0  0  0  0  0  0  0
    4.7620   18.0529   -0.4207 H   0  0  0  0  0  0  0  0  0  0  0  0
    5.0990   17.2196   -1.9759 H   0  0  0  0  0  0  0  0  0  0  0  0
    4.3592   18.8565   -1.9759 H   0  0  0  0  0  0  0  0  0  0  0  0
    0.6192   16.1735   -5.0198 H   0  0  0  0  0  0  0  0  0  0  0  0
    1.8952   15.1042   -5.6942 H   0  0  0  0  0  0  0  0  0  0  0  0
    0.1811   14.5673   -5.6942 H   0  0  0  0  0  0  0  0  0  0  0  0
   -0.8897   14.4019   -2.9748 H   0  0  0  0  0  0  0  0  0  0  0  0
   -0.4872   13.2570   -4.3755 H   0  0  0  0  0  0  0  0  0  0  0  0
    0.1342   12.8708   -1.4347 H   0  0  0  0  0  0  0  0  0  0  0  0
   -0.9897   11.9219   -2.4855 H   0  0  0  0  0  0  0  0  0  0  0  0
    0.2162   10.0491   -4.1727 H   0  0  0  0  0  0  0  0  0  0  0  0
    0.1448   11.7170   -4.8357 H   0  0  0  0  0  0  0  0  0  0  0  0
    1.6989   10.8163   -4.8357 H   0  0  0  0  0  0  0  0  0  0  0  0
  1  2  1  0
  2  3  1  0
  3  4  1  0
  4  5  1  0
  5  6  1  0
  6  7  1  0
  7  8  1  0
  7  9  1  0
  2 10  1  0
 10 11  1  0
 11 12  1  0
 12 13  1  0
 13 14  1  1
 13 15  1  0
 15 16  1  0
 16 17  1  0
 17 18  2  0
 18 19  1  0
 19 20  1  0
 20 21  1  0
 21 22  1  0
 22 23  1  0
 22 24  1  0
 24 25  1  0
 24 26  1  0
 19 27  1  0
 27 28  1  6
 27 29  1  0
 29 30  1  0
 30 31  1  0
 31 32  1  6
  7  5  1  0
 31 10  1  0
 31 13  1  0
 27 15  1  0
 24 18  1  0
  1 33  1  0
  1 34  1  0
  1 35  1  0
  2 36  1  6
  3 37  1  0
  3 38  1  0
  4 39  1  0
  4 40  1  0
  5 41  1  1
  8 42  1  0
  8 43  1  0
  8 44  1  0
  9 45  1  0
  9 46  1  0
  9 47  1  0
 10 48  1  1
 11 49  1  0
 11 50  1  0
 12 51  1  0
 12 52  1  0
 14 53  1  0
 14 54  1  0
 14 55  1  0
 15 56  1  6
 16 57  1  0
 16 58  1  0
 17 59  1  0
 19 60  1  1
 20 61  1  0
 20 62  1  0
 21 63  1  0
 21 64  1  0
 22 65  1  1
 23 66  1  0
 25 67  1  0
 25 68  1  0
 25 69  1  0
 26 70  1  0
 26 71  1  0
 26 72  1  0
 28 73  1  0
 28 74  1  0
 28 75  1  0
 29 76  1  0
 29 77  1  0
 30 78  1  0
 30 79  1  0
 32 80  1  0
 32 81  1  0
 32 82  1  0
M  END
>  <meeko>  (16) 
{"is_sidechain": [false], "intermolecular_energy": 2.731, "internal_energy": -0.839}

$$$$
EPH_relaxed_0001_pdb2pqr_Repair_306_r2_0001_out
     RDKit          3D

 82 86  0  0  0  0  0  0  0  0999 V2000
   -1.8290   10.9430   -0.6180 C   0  0  0  0  0  0  0  0  0  0  0  0
   -0.6280   10.0070   -0.7730 C   0  0  2  0  0  0  0  0  0  0  0  0
    0.0140    9.6550    0.5840 C   0  0  0  0  0  0  0  0  0  0  0  0
    0.8290   10.7990    1.1940 C   0  0  0  0  0  0  0  0  0  0  0  0
   -0.0160   11.6790    2.0640 C   0  0  2  0  0  0  0  0  0  0  0  0
    0.3540   13.0640    2.0530 O   0  0  0  0  0  0  0  0  0  0  0  0
    0.5070   12.3780    3.3060 C   0  0  0  0  0  0  0  0  0  0  0  0
    1.9290   12.2250    3.7470 C   0  0  0  0  0  0  0  0  0  0  0  0
   -0.4740   12.8070    4.3520 C   0  0  0  0  0  0  0  0  0  0  0  0
    0.4100   10.6410   -1.6910 C   0  0  1  0  0  0  0  0  0  0  0  0
    0.4210   10.0080   -3.1080 C   0  0  0  0  0  0  0  0  0  0  0  0
    0.7470   11.1500   -4.1050 C   0  0  0  0  0  0  0  0  0  0  0  0
    1.2360   12.3160   -3.2160 C   0  0  1  0  0  0  0  0  0  0  0  0
    2.7310   11.9870   -2.9100 C   0  0  0  0  0  0  0  0  0  0  0  0
    1.0720   13.7540   -3.8090 C   0  0  2  0  0  0  0  0  0  0  0  0
    1.8670   14.0220   -5.0990 C   0  0  0  0  0  0  0  0  0  0  0  0
    3.2420   14.5660   -4.9000 C   0  0  0  0  0  0  0  0  0  0  0  0
    3.7160   15.0950   -3.7560 C   0  0  0  0  0  0  0  0  0  0  0  0
    2.8040   15.2760   -2.5350 C   0  0  1  0  0  0  0  0  0  0  0  0
    3.0050   16.6960   -1.9450 C   0  0  0  0  0  0  0  0  0  0  0  0
    4.4670   16.9980   -1.6320 C   0  0  0  0  0  0  0  0  0  0  0  0
    5.3320   16.8650   -2.8820 C   0  0  2  0  0  0  0  0  0  0  0  0
    4.9680   17.8950   -3.8060 O   0  0  0  0  0  0  0  0  0  0  0  0
    5.2050   15.4770   -3.5700 C   0  0  0  0  0  0  0  0  0  0  0  0
    5.8770   14.3960   -2.6880 C   0  0  0  0  0  0  0  0  0  0  0  0
    6.0160   15.5240   -4.8930 C   0  0  0  0  0  0  0  0  0  0  0  0
    1.2720   14.9170   -2.7550 C   0  0  1  0  0  0  0  0  0  0  0  0
    0.5090   16.1580   -3.3120 C   0  0  0  0  0  0  0  0  0  0  0  0
    0.6180   14.5810   -1.3630 C   0  0  0  0  0  0  0  0  0  0  0  0
    0.7090   13.1190   -0.8870 C   0  0  0  0  0  0  0  0  0  0  0  0
    0.2650   12.1540   -1.9900 C   0  0  2  0  0  0  0  0  0  0  0  0
   -1.2410   12.4470   -2.3050 C   0  0  0  0  0  0  0  0  0  0  0  0
   -2.0339   11.1027    0.4509 H   0  0  0  0  0  0  0  0  0  0  0  0
   -1.6060   11.9079   -1.0967 H   0  0  0  0  0  0  0  0  0  0  0  0
   -2.7102   10.4911   -1.0967 H   0  0  0  0  0  0  0  0  0  0  0  0
   -0.9948    9.0699   -1.2172 H   0  0  0  0  0  0  0  0  0  0  0  0
   -0.7872    9.3855    1.2879 H   0  0  0  0  0  0  0  0  0  0  0  0
    0.7113    8.8236    0.4040 H   0  0  0  0  0  0  0  0  0  0  0  0
    1.6423   10.3735    1.8003 H   0  0  0  0  0  0  0  0  0  0  0  0
    1.2287   11.4114    0.3723 H   0  0  0  0  0  0  0  0  0  0  0  0
   -0.8977   11.0446    1.8903 H   0  0  0  0  0  0  0  0  0  0  0  0
    1.9735   12.2202    4.8461 H   0  0  0  0  0  0  0  0  0  0  0  0
    2.3332   11.2782    3.3595 H   0  0  0  0  0  0  0  0  0  0  0  0
    2.5254   13.0642    3.3595 H   0  0  0  0  0  0  0  0  0  0  0  0
   -0.0503   12.6217    5.3501 H   0  0  0  0  0  0  0  0  0  0  0  0
   -0.6865   13.8802    4.2373 H   0  0  0  0  0  0  0  0  0  0  0  0
   -1.4062   12.2344    4.2373 H   0  0  0  0  0  0  0  0  0  0  0  0
    1.3173   10.4604   -1.0958 H   0  0  0  0  0  0  0  0  0  0  0  0
    1.1895    9.2232   -3.1664 H   0  0  0  0  0  0  0  0  0  0  0  0
   -0.5490    9.5446   -3.3413 H   0  0  0  0  0  0  0  0  0  0  0  0
    1.5352   10.8397   -4.8067 H   0  0  0  0  0  0  0  0  0  0  0  0
   -0.1225   11.4292   -4.7182 H   0  0  0  0  0  0  0  0  0  0  0  0
    2.8836   11.9534   -1.8212 H   0  0  0  0  0  0  0  0  0  0  0  0
    2.9884   11.0107   -3.3466 H   0  0  0  0  0  0  0  0  0  0  0  0
    3.3745   12.7650   -3.3466 H   0  0  0  0  0  0  0  0  0  0  0  0
    0.0119   13.7684   -4.1024 H   0  0  0  0  0  0  0  0  0  0  0  0
    1.9534   13.0728   -5.6482 H   0  0  0  0  0  0  0  0  0  0  0  0
    1.3092   14.7978   -5.6440 H   0  0  0  0  0  0  0  0  0  0  0  0
    3.9263   14.5321   -5.7605 H   0  0  0  0  0  0  0  0  0  0  0  0
    3.1221   14.5195   -1.8025 H   0  0  0  0  0  0  0  0  0  0  0  0
    2.6404   17.4353   -2.6734 H   0  0  0  0  0  0  0  0  0  0  0  0
    2.4439   16.7474   -1.0003 H   0  0  0  0  0  0  0  0  0  0  0  0
    4.5477   18.0250   -1.2462 H   0  0  0  0  0  0  0  0  0  0  0  0
    4.8214   16.2758   -0.8818 H   0  0  0  0  0  0  0  0  0  0  0  0
    6.3818   16.9649   -2.5690 H   0  0  0  0  0  0  0  0  0  0  0  0
    4.7100   18.6770   -3.2890 H   0  0  0  0  0  0  0  0  0  0  0  0
    5.7243   14.6417   -1.6267 H   0  0  0  0  0  0  0  0  0  0  0  0
    5.4293   13.4150   -2.9054 H   0  0  0  0  0  0  0  0  0  0  0  0
    6.9548   14.3634   -2.9054 H   0  0  0  0  0  0  0  0  0  0  0  0
    7.0898   15.5862   -4.6628 H   0  0  0  0  0  0  0  0  0  0  0  0
    5.8184   14.6129   -5.4768 H   0  0  0  0  0  0  0  0  0  0  0  0
    5.7144   16.4062   -5.4768 H   0  0  0  0  0  0  0  0  0  0  0  0
    0.1356   16.7653   -2.4742 H   0  0  0  0  0  0  0  0  0  0  0  0
    1.1917   16.7624   -3.9273 H   0  0  0  0  0  0  0  0  0  0  0  0
   -0.3385   15.8216   -3.9273 H   0  0  0  0  0  0  0  0  0  0  0  0
    1.1087   15.2089   -0.6047 H   0  0  0  0  0  0  0  0  0  0  0  0
   -0.4568   14.7736   -1.4963 H   0  0  0  0  0  0  0  0  0  0  0  0
    1.7498   12.8949   -0.6105 H   0  0  0  0  0  0  0  0  0  0  0  0
    0.0438   12.9906   -0.0204 H   0  0  0  0  0  0  0  0  0  0  0  0
   -1.7983   12.5554   -1.3628 H   0  0  0  0  0  0  0  0  0  0  0  0
   -1.3197   13.3773   -2.8867 H   0  0  0  0  0  0  0  0  0  0  0  0
   -1.6627   11.6141   -2.8867 H   0  0  0  0  0  0  0  0  0  0  0  0
  1  2  1  0
  2  3  1  0
  3  4  1  0
  4  5  1  0
  5  6  1  0
  6  7  1  0
  7  8  1  0
  7  9  1  0
  2 10  1  0
 10 11  1  0
 11 12  1  0
 12 13  1  0
 13 14  1  1
 13 15  1  0
 15 16  1  0
 16 17  1  0
 17 18  2  0
 18 19  1  0
 19 20  1  0
 20 21  1  0
 21 22  1  0
 22 23  1  0
 22 24  1  0
 24 25  1  0
 24 26  1  0
 19 27  1  0
 27 28  1  6
 27 29  1  0
 29 30  1  0
 30 31  1  0
 31 32  1  6
  7  5  1  0
 31 10  1  0
 31 13  1  0
 27 15  1  0
 24 18  1  0
  1 33  1  0
  1 34  1  0
  1 35  1  0
  2 36  1  6
  3 37  1  0
  3 38  1  0
  4 39  1  0
  4 40  1  0
  5 41  1  1
  8 42  1  0
  8 43  1  0
  8 44  1  0
  9 45  1  0
  9 46  1  0
  9 47  1  0
 10 48  1  1
 11 49  1  0
 11 50  1  0
 12 51  1  0
 12 52  1  0
 14 53  1  0
 14 54  1  0
 14 55  1  0
 15 56  1  6
 16 57  1  0
 16 58  1  0
 17 59  1  0
 19 60  1  1
 20 61  1  0
 20 62  1  0
 21 63  1  0
 21 64  1  0
 22 65  1  1
 23 66  1  0
 25 67  1  0
 25 68  1  0
 25 69  1  0
 26 70  1  0
 26 71  1  0
 26 72  1  0
 28 73  1  0
 28 74  1  0
 28 75  1  0
 29 76  1  0
 29 77  1  0
 30 78  1  0
 30 79  1  0
 32 80  1  0
 32 81  1  0
 32 82  1  0
M  END
>  <meeko>  (17) 
{"is_sidechain": [false], "intermolecular_energy": 2.731, "internal_energy": -0.839}

$$$$
EPH_relaxed_0001_pdb2pqr_Repair_306_r2_0001_out
     RDKit          3D

 82 86  0  0  0  0  0  0  0  0999 V2000
   -0.7510   16.4380   -5.9030 C   0  0  0  0  0  0  0  0  0  0  0  0
    0.3830   15.6650   -6.5820 C   0  0  2  0  0  0  0  0  0  0  0  0
    0.0290   15.2650   -8.0280 C   0  0  0  0  0  0  0  0  0  0  0  0
    0.4980   16.2760   -9.0780 C   0  0  0  0  0  0  0  0  0  0  0  0
    1.8900   15.9810   -9.5490 C   0  0  2  0  0  0  0  0  0  0  0  0
    2.2510   16.6120  -10.7840 O   0  0  0  0  0  0  0  0  0  0  0  0
    2.1990   15.1760  -10.7970 C   0  0  0  0  0  0  0  0  0  0  0  0
    1.1070   14.6150  -11.6530 C   0  0  0  0  0  0  0  0  0  0  0  0
    3.5410   14.5250  -10.9150 C   0  0  0  0  0  0  0  0  0  0  0  0
    0.7270   14.4230   -5.7670 C   0  0  1  0  0  0  0  0  0  0  0  0
    1.8250   13.5550   -6.4370 C   0  0  0  0  0  0  0  0  0  0  0  0
    2.6750   12.9480   -5.2910 C   0  0  0  0  0  0  0  0  0  0  0  0
    1.8500   13.2120   -4.0110 C   0  0  1  0  0  0  0  0  0  0  0  0
    0.7770   12.0780   -3.9840 C   0  0  0  0  0  0  0  0  0  0  0  0
    2.6530   13.2770   -2.6710 C   0  0  2  0  0  0  0  0  0  0  0  0
    3.3800   11.9780   -2.2830 C   0  0  0  0  0  0  0  0  0  0  0  0
    2.5920   11.0340   -1.4360 C   0  0  0  0  0  0  0  0  0  0  0  0
    1.4620   11.3390   -0.7700 C   0  0  0  0  0  0  0  0  0  0  0  0
    0.9220   12.7740   -0.7510 C   0  0  1  0  0  0  0  0  0  0  0  0
    0.5350   13.1620    0.7010 C   0  0  0  0  0  0  0  0  0  0  0  0
   -0.4310   12.1660    1.3350 C   0  0  0  0  0  0  0  0  0  0  0  0
    0.1660   10.7620    1.3500 C   0  0  2  0  0  0  0  0  0  0  0  0
    1.2900   10.7480    2.2350 O   0  0  0  0  0  0  0  0  0  0  0  0
    0.6020   10.2660   -0.0570 C   0  0  0  0  0  0  0  0  0  0  0  0
   -0.6510    9.9930   -0.9240 C   0  0  0  0  0  0  0  0  0  0  0  0
    1.3160    8.8980    0.1180 C   0  0  0  0  0  0  0  0  0  0  0  0
    1.8360   13.8690   -1.4520 C   0  0  1  0  0  0  0  0  0  0  0  0
    2.8840   14.4170   -0.4370 C   0  0  0  0  0  0  0  0  0  0  0  0
    0.9400   15.0940   -1.8710 C   0  0  0  0  0  0  0  0  0  0  0  0
    0.2690   15.0230   -3.2560 C   0  0  0  0  0  0  0  0  0  0  0  0
    1.2830   14.6410   -4.3380 C   0  0  2  0  0  0  0  0  0  0  0  0
    2.3630   15.7750   -4.4030 C   0  0  0  0  0  0  0  0  0  0  0  0
   -0.6425   16.3641   -4.8109 H   0  0  0  0  0  0  0  0  0  0  0  0
   -0.7067   17.4948   -6.2052 H   0  0  0  0  0  0  0  0  0  0  0  0
   -1.7184   16.0105   -6.2052 H   0  0  0  0  0  0  0  0  0  0  0  0
    1.2562   16.3324   -6.6288 H   0  0  0  0  0  0  0  0  0  0  0  0
    0.4998   14.2949   -8.2452 H   0  0  0  0  0  0  0  0  0  0  0  0
   -1.0684   15.2220   -8.0904 H   0  0  0  0  0  0  0  0  0  0  0  0
   -0.1852   16.2383   -9.9393 H   0  0  0  0  0  0  0  0  0  0  0  0
    0.4965   17.2747   -8.6170 H   0  0  0  0  0  0  0  0  0  0  0  0
    2.2480   15.9004   -8.5120 H   0  0  0  0  0  0  0  0  0  0  0  0
    0.3119   14.2065  -11.0120 H   0  0  0  0  0  0  0  0  0  0  0  0
    0.6929   15.4120  -12.2881 H   0  0  0  0  0  0  0  0  0  0  0  0
    1.5137   13.8142  -12.2881 H   0  0  0  0  0  0  0  0  0  0  0  0
    3.9435   14.3298   -9.9101 H   0  0  0  0  0  0  0  0  0  0  0  0
    3.4411   13.5752  -11.4608 H   0  0  0  0  0  0  0  0  0  0  0  0
    4.2251   15.1914  -11.4608 H   0  0  0  0  0  0  0  0  0  0  0  0
   -0.2671   13.9550   -5.7155 H   0  0  0  0  0  0  0  0  0  0  0  0
    1.3636   12.7532   -7.0322 H   0  0  0  0  0  0  0  0  0  0  0  0
    2.4475   14.1582   -7.1142 H   0  0  0  0  0  0  0  0  0  0  0  0
    2.8189   11.8683   -5.4443 H   0  0  0  0  0  0  0  0  0  0  0  0
    3.6804   13.3912   -5.2378 H   0  0  0  0  0  0  0  0  0  0  0  0
    0.5374   11.8247   -2.9407 H   0  0  0  0  0  0  0  0  0  0  0  0
   -0.1335   12.4225   -4.4961 H   0  0  0  0  0  0  0  0  0  0  0  0
    1.1713   11.1879   -4.4961 H   0  0  0  0  0  0  0  0  0  0  0  0
    3.4444   14.0039   -2.9061 H   0  0  0  0  0  0  0  0  0  0  0  0
    3.6563   11.4535   -3.2096 H   0  0  0  0  0  0  0  0  0  0  0  0
    4.2442   12.2833   -1.6748 H   0  0  0  0  0  0  0  0  0  0  0  0
    2.9658   10.0031   -1.3487 H   0  0  0  0  0  0  0  0  0  0  0  0
    0.0256   12.7698   -1.3885 H   0  0  0  0  0  0  0  0  0  0  0  0
    1.4497   13.2030    1.3107 H   0  0  0  0  0  0  0  0  0  0  0  0
    0.0300   14.1385    0.6623 H   0  0  0  0  0  0  0  0  0  0  0  0
   -0.6433   12.4781    2.3682 H   0  0  0  0  0  0  0  0  0  0  0  0
   -1.3567   12.1478    0.7411 H   0  0  0  0  0  0  0  0  0  0  0  0
   -0.6196   10.0737    1.6951 H   0  0  0  0  0  0  0  0  0  0  0  0
    1.5950    9.8280    2.3090 H   0  0  0  0  0  0  0  0  0  0  0  0
   -1.5153    9.8047   -0.2702 H   0  0  0  0  0  0  0  0  0  0  0  0
   -0.8552   10.8677   -1.5589 H   0  0  0  0  0  0  0  0  0  0  0  0
   -0.4728    9.1126   -1.5589 H   0  0  0  0  0  0  0  0  0  0  0  0
    1.4305    8.6786    1.1898 H   0  0  0  0  0  0  0  0  0  0  0  0
    0.7154    8.1076   -0.3559 H   0  0  0  0  0  0  0  0  0  0  0  0
    2.3078    8.9388   -0.3559 H   0  0  0  0  0  0  0  0  0  0  0  0
    2.5320   14.2329    0.5888 H   0  0  0  0  0  0  0  0  0  0  0  0
    3.8460   13.9065   -0.5917 H   0  0  0  0  0  0  0  0  0  0  0  0
    3.0137   15.4983   -0.5917 H   0  0  0  0  0  0  0  0  0  0  0  0
    0.1428   15.1954   -1.1199 H   0  0  0  0  0  0  0  0  0  0  0  0
    1.6302   15.9485   -1.9293 H   0  0  0  0  0  0  0  0  0  0  0  0
   -0.5308   14.2683   -3.2300 H   0  0  0  0  0  0  0  0  0  0  0  0
   -0.1438   16.0138   -3.4967 H   0  0  0  0  0  0  0  0  0  0  0  0
    2.6453   16.0714   -3.3820 H   0  0  0  0  0  0  0  0  0  0  0  0
    3.2512   15.4053   -4.9363 H   0  0  0  0  0  0  0  0  0  0  0  0
    1.9504   16.6441   -4.9363 H   0  0  0  0  0  0  0  0  0  0  0  0
  1  2  1  0
  2  3  1  0
  3  4  1  0
  4  5  1  0
  5  6  1  0
  6  7  1  0
  7  8  1  0
  7  9  1  0
  2 10  1  0
 10 11  1  0
 11 12  1  0
 12 13  1  0
 13 14  1  1
 13 15  1  0
 15 16  1  0
 16 17  1  0
 17 18  2  0
 18 19  1  0
 19 20  1  0
 20 21  1  0
 21 22  1  0
 22 23  1  0
 22 24  1  0
 24 25  1  0
 24 26  1  0
 19 27  1  0
 27 28  1  1
 27 29  1  0
 29 30  1  0
 30 31  1  0
 31 32  1  6
  7  5  1  0
 31 10  1  0
 31 13  1  0
 27 15  1  0
 24 18  1  0
  1 33  1  0
  1 34  1  0
  1 35  1  0
  2 36  1  6
  3 37  1  0
  3 38  1  0
  4 39  1  0
  4 40  1  0
  5 41  1  1
  8 42  1  0
  8 43  1  0
  8 44  1  0
  9 45  1  0
  9 46  1  0
  9 47  1  0
 10 48  1  1
 11 49  1  0
 11 50  1  0
 12 51  1  0
 12 52  1  0
 14 53  1  0
 14 54  1  0
 14 55  1  0
 15 56  1  6
 16 57  1  0
 16 58  1  0
 17 59  1  0
 19 60  1  6
 20 61  1  0
 20 62  1  0
 21 63  1  0
 21 64  1  0
 22 65  1  1
 23 66  1  0
 25 67  1  0
 25 68  1  0
 25 69  1  0
 26 70  1  0
 26 71  1  0
 26 72  1  0
 28 73  1  0
 28 74  1  0
 28 75  1  0
 29 76  1  0
 29 77  1  0
 30 78  1  0
 30 79  1  0
 32 80  1  0
 32 81  1  0
 32 82  1  0
M  END
>  <meeko>  (18) 
{"is_sidechain": [false], "intermolecular_energy": 2.731, "internal_energy": -0.839}

$$$$
