EPH_relaxed_0001_pdb2pqr_Repair_281_r2_0001_out
     RDKit          3D

 82 86  0  0  0  0  0  0  0  0999 V2000
   -1.7130    8.5810   -1.8590 C   0  0  0  0  0  0  0  0  0  0  0  0
   -2.1010    9.1070   -0.4740 C   0  0  2  0  0  0  0  0  0  0  0  0
   -3.5960    9.4770   -0.3910 C   0  0  0  0  0  0  0  0  0  0  0  0
   -4.5190    8.2680   -0.2170 C   0  0  0  0  0  0  0  0  0  0  0  0
   -5.2100    7.9080   -1.4970 C   0  0  2  0  0  0  0  0  0  0  0  0
   -6.3450    8.7240   -1.8150 O   0  0  0  0  0  0  0  0  0  0  0  0
   -6.6130    7.3350   -1.5590 C   0  0  0  0  0  0  0  0  0  0  0  0
   -7.4100    7.0880   -0.3170 C   0  0  0  0  0  0  0  0  0  0  0  0
   -7.0190    6.5650   -2.7770 C   0  0  0  0  0  0  0  0  0  0  0  0
   -1.2450   10.3170   -0.1200 C   0  0  1  0  0  0  0  0  0  0  0  0
   -0.2250   10.0160    1.0110 C   0  0  0  0  0  0  0  0  0  0  0  0
    1.0490   10.8420    0.6960 C   0  0  0  0  0  0  0  0  0  0  0  0
    0.6080   11.8350   -0.4050 C   0  0  1  0  0  0  0  0  0  0  0  0
   -0.1060   12.9920    0.3600 C   0  0  0  0  0  0  0  0  0  0  0  0
    1.7370   12.3730   -1.3430 C   0  0  2  0  0  0  0  0  0  0  0  0
    2.8330   13.1920   -0.6400 C   0  0  0  0  0  0  0  0  0  0  0  0
    2.5820   14.6620   -0.5650 C   0  0  0  0  0  0  0  0  0  0  0  0
    1.6670   15.3370   -1.2850 C   0  0  0  0  0  0  0  0  0  0  0  0
    0.8320   14.6290   -2.3600 C   0  0  1  0  0  0  0  0  0  0  0  0
    0.8190   15.4860   -3.6530 C   0  0  0  0  0  0  0  0  0  0  0  0
    0.3530   16.9170   -3.4010 C   0  0  0  0  0  0  0  0  0  0  0  0
    1.2420   17.6060   -2.3700 C   0  0  2  0  0  0  0  0  0  0  0  0
    2.5500   17.7730   -2.9260 O   0  0  0  0  0  0  0  0  0  0  0  0
    1.3410   16.8280   -1.0280 C   0  0  0  0  0  0  0  0  0  0  0  0
   -0.0130   16.9080   -0.2790 C   0  0  0  0  0  0  0  0  0  0  0  0
    2.3770   17.5560   -0.1290 C   0  0  0  0  0  0  0  0  0  0  0  0
    1.2070   13.1100   -2.6400 C   0  0  1  0  0  0  0  0  0  0  0  0
    2.3500   13.0290   -3.6970 C   0  0  0  0  0  0  0  0  0  0  0  0
   -0.0370   12.3820   -3.2750 C   0  0  0  0  0  0  0  0  0  0  0  0
   -1.0560   11.7670   -2.2970 C   0  0  0  0  0  0  0  0  0  0  0  0
   -0.3530   10.9100   -1.2390 C   0  0  2  0  0  0  0  0  0  0  0  0
    0.3560    9.7250   -1.9780 C   0  0  0  0  0  0  0  0  0  0  0  0
   -1.0634    7.7003   -1.7480 H   0  0  0  0  0  0  0  0  0  0  0  0
   -2.6213    8.2993   -2.4119 H   0  0  0  0  0  0  0  0  0  0  0  0
   -1.1757    9.3656   -2.4119 H   0  0  0  0  0  0  0  0  0  0  0  0
   -1.9204    8.2986    0.2498 H   0  0  0  0  0  0  0  0  0  0  0  0
   -3.7402   10.1506    0.4666 H   0  0  0  0  0  0  0  0  0  0  0  0
   -3.8638    9.9518   -1.3464 H   0  0  0  0  0  0  0  0  0  0  0  0
   -3.9205    7.4083    0.1188 H   0  0  0  0  0  0  0  0  0  0  0  0
   -5.2877    8.5281    0.5256 H   0  0  0  0  0  0  0  0  0  0  0  0
   -4.2598    7.5813   -1.9446 H   0  0  0  0  0  0  0  0  0  0  0  0
   -6.7830    7.2823    0.5657 H   0  0  0  0  0  0  0  0  0  0  0  0
   -8.2823    7.7579   -0.3018 H   0  0  0  0  0  0  0  0  0  0  0  0
   -7.7506    6.0422   -0.3018 H   0  0  0  0  0  0  0  0  0  0  0  0
   -7.5120    5.6301   -2.4723 H   0  0  0  0  0  0  0  0  0  0  0  0
   -7.7161    7.1685   -3.3768 H   0  0  0  0  0  0  0  0  0  0  0  0
   -6.1272    6.3307   -3.3768 H   0  0  0  0  0  0  0  0  0  0  0  0
   -2.0375   11.0315    0.1471 H   0  0  0  0  0  0  0  0  0  0  0  0
   -0.6397   10.3158    1.9847 H   0  0  0  0  0  0  0  0  0  0  0  0
    0.0035    8.9412    1.0610 H   0  0  0  0  0  0  0  0  0  0  0  0
    1.3929   11.3818    1.5906 H   0  0  0  0  0  0  0  0  0  0  0  0
    1.8882   10.2079    0.3740 H   0  0  0  0  0  0  0  0  0  0  0  0
   -0.0067   12.8311    1.4436 H   0  0  0  0  0  0  0  0  0  0  0  0
    0.3570   13.9520    0.0879 H   0  0  0  0  0  0  0  0  0  0  0  0
   -1.1717   13.0087    0.0879 H   0  0  0  0  0  0  0  0  0  0  0  0
    2.2251   11.4466   -1.6799 H   0  0  0  0  0  0  0  0  0  0  0  0
    2.9352   12.8119    0.3872 H   0  0  0  0  0  0  0  0  0  0  0  0
    3.7415   13.0692   -1.2478 H   0  0  0  0  0  0  0  0  0  0  0  0
    3.1971   15.2424    0.1384 H   0  0  0  0  0  0  0  0  0  0  0  0
   -0.1867   14.5522   -1.9521 H   0  0  0  0  0  0  0  0  0  0  0  0
    1.8375   15.5145   -4.0675 H   0  0  0  0  0  0  0  0  0  0  0  0
    0.1097   15.0222   -4.3543 H   0  0  0  0  0  0  0  0  0  0  0  0
    0.3932   17.4803   -4.3450 H   0  0  0  0  0  0  0  0  0  0  0  0
   -0.6763   16.8882   -3.0141 H   0  0  0  0  0  0  0  0  0  0  0  0
    0.7825   18.5777   -2.1363 H   0  0  0  0  0  0  0  0  0  0  0  0
    2.9050   18.6160   -2.5970 H   0  0  0  0  0  0  0  0  0  0  0  0
    0.1670   16.8974    0.8061 H   0  0  0  0  0  0  0  0  0  0  0  0
   -0.5307   17.8383   -0.5557 H   0  0  0  0  0  0  0  0  0  0  0  0
   -0.6366   16.0451   -0.5557 H   0  0  0  0  0  0  0  0  0  0  0  0
    2.1304   17.3827    0.9289 H   0  0  0  0  0  0  0  0  0  0  0  0
    3.3836   17.1656   -0.3395 H   0  0  0  0  0  0  0  0  0  0  0  0
    2.3509   18.6353   -0.3395 H   0  0  0  0  0  0  0  0  0  0  0  0
    3.3203   12.9602   -3.1833 H   0  0  0  0  0  0  0  0  0  0  0  0
    2.2046   12.1389   -4.3268 H   0  0  0  0  0  0  0  0  0  0  0  0
    2.3316   13.9307   -4.3268 H   0  0  0  0  0  0  0  0  0  0  0  0
   -0.5721   13.1168   -3.8945 H   0  0  0  0  0  0  0  0  0  0  0  0
    0.3810   11.5287   -3.8293 H   0  0  0  0  0  0  0  0  0  0  0  0
   -1.6075   12.5762   -1.7961 H   0  0  0  0  0  0  0  0  0  0  0  0
   -1.7453   11.1259   -2.8661 H   0  0  0  0  0  0  0  0  0  0  0  0
    0.7732    9.0277   -1.2366 H   0  0  0  0  0  0  0  0  0  0  0  0
   -0.3744    9.1964   -2.6082 H   0  0  0  0  0  0  0  0  0  0  0  0
    1.1671   10.1187   -2.6082 H   0  0  0  0  0  0  0  0  0  0  0  0
  1  2  1  0
  2  3  1  0
  3  4  1  0
  4  5  1  0
  5  6  1  0
  6  7  1  0
  7  8  1  0
  7  9  1  0
  2 10  1  0
 10 11  1  0
 11 12  1  0
 12 13  1  0
 13 14  1  1
 13 15  1  0
 15 16  1  0
 16 17  1  0
 17 18  2  0
 18 19  1  0
 19 20  1  0
 20 21  1  0
 21 22  1  0
 22 23  1  0
 22 24  1  0
 24 25  1  0
 24 26  1  0
 19 27  1  0
 27 28  1  6
 27 29  1  0
 29 30  1  0
 30 31  1  0
 31 32  1  6
  7  5  1  0
 31 10  1  0
 31 13  1  0
 27 15  1  0
 24 18  1  0
  1 33  1  0
  1 34  1  0
  1 35  1  0
  2 36  1  1
  3 37  1  0
  3 38  1  0
  4 39  1  0
  4 40  1  0
  5 41  1  6
  8 42  1  0
  8 43  1  0
  8 44  1  0
  9 45  1  0
  9 46  1  0
  9 47  1  0
 10 48  1  1
 11 49  1  0
 11 50  1  0
 12 51  1  0
 12 52  1  0
 14 53  1  0
 14 54  1  0
 14 55  1  0
 15 56  1  6
 16 57  1  0
 16 58  1  0
 17 59  1  0
 19 60  1  1
 20 61  1  0
 20 62  1  0
 21 63  1  0
 21 64  1  0
 22 65  1  1
 23 66  1  0
 25 67  1  0
 25 68  1  0
 25 69  1  0
 26 70  1  0
 26 71  1  0
 26 72  1  0
 28 73  1  0
 28 74  1  0
 28 75  1  0
 29 76  1  0
 29 77  1  0
 30 78  1  0
 30 79  1  0
 32 80  1  0
 32 81  1  0
 32 82  1  0
M  END
>  <meeko>  (1) 
{"is_sidechain": [false], "intermolecular_energy": 2.731, "internal_energy": -0.839}

$$$$
EPH_relaxed_0001_pdb2pqr_Repair_281_r2_0001_out
     RDKit          3D

 82 86  0  0  0  0  0  0  0  0999 V2000
    4.2150   17.4830   -0.5900 C   0  0  0  0  0  0  0  0  0  0  0  0
    2.8540   18.0660   -0.1990 C   0  0  2  0  0  0  0  0  0  0  0  0
    2.8940   18.7640    1.1750 C   0  0  0  0  0  0  0  0  0  0  0  0
    4.2650   18.7090    1.8540 C   0  0  0  0  0  0  0  0  0  0  0  0
    4.2230   19.2860    3.2360 C   0  0  2  0  0  0  0  0  0  0  0  0
    5.2900   20.1940    3.5380 O   0  0  0  0  0  0  0  0  0  0  0  0
    5.2570   18.9790    4.3030 C   0  0  0  0  0  0  0  0  0  0  0  0
    6.4060   18.0590    4.0340 C   0  0  0  0  0  0  0  0  0  0  0  0
    4.8850   19.1800    5.7390 C   0  0  0  0  0  0  0  0  0  0  0  0
    1.7990   16.9660   -0.1940 C   0  0  1  0  0  0  0  0  0  0  0  0
    0.3780   17.4980   -0.5190 C   0  0  0  0  0  0  0  0  0  0  0  0
   -0.3420   16.3870   -1.3250 C   0  0  0  0  0  0  0  0  0  0  0  0
    0.5530   15.1380   -1.1540 C   0  0  1  0  0  0  0  0  0  0  0  0
    0.1630   14.5540    0.2400 C   0  0  0  0  0  0  0  0  0  0  0  0
    0.4550   14.0580   -2.2800 C   0  0  2  0  0  0  0  0  0  0  0  0
   -0.9280   13.4020   -2.4370 C   0  0  0  0  0  0  0  0  0  0  0  0
   -1.1450   12.1690   -1.6240 C   0  0  0  0  0  0  0  0  0  0  0  0
   -0.1790   11.4490   -1.0220 C   0  0  0  0  0  0  0  0  0  0  0  0
    1.3010   11.8040   -1.2110 C   0  0  1  0  0  0  0  0  0  0  0  0
    2.1080   10.5140   -1.5170 C   0  0  0  0  0  0  0  0  0  0  0  0
    1.8970    9.4290   -0.4650 C   0  0  0  0  0  0  0  0  0  0  0  0
    0.4200    9.0630   -0.3480 C   0  0  2  0  0  0  0  0  0  0  0  0
    0.0030    8.4360   -1.5650 O   0  0  0  0  0  0  0  0  0  0  0  0
   -0.4930   10.2850   -0.0500 C   0  0  0  0  0  0  0  0  0  0  0  0
   -0.2450   10.7790    1.3970 C   0  0  0  0  0  0  0  0  0  0  0  0
   -1.9680    9.8020   -0.0970 C   0  0  0  0  0  0  0  0  0  0  0  0
    1.6080   12.9740   -2.2410 C   0  0  1  0  0  0  0  0  0  0  0  0
    1.7240   12.3960   -3.6840 C   0  0  0  0  0  0  0  0  0  0  0  0
    3.0100   13.6040   -1.9010 C   0  0  0  0  0  0  0  0  0  0  0  0
    3.0260   14.7480   -0.8690 C   0  0  0  0  0  0  0  0  0  0  0  0
    1.9740   15.8080   -1.2090 C   0  0  2  0  0  0  0  0  0  0  0  0
    2.3520   16.4300   -2.5970 C   0  0  0  0  0  0  0  0  0  0  0  0
    4.7843   17.2391    0.3191 H   0  0  0  0  0  0  0  0  0  0  0  0
    4.0655   16.5700   -1.1850 H   0  0  0  0  0  0  0  0  0  0  0  0
    4.7728   18.2211   -1.1850 H   0  0  0  0  0  0  0  0  0  0  0  0
    2.5931   18.8277   -0.9485 H   0  0  0  0  0  0  0  0  0  0  0  0
    2.6173   19.8196    1.0364 H   0  0  0  0  0  0  0  0  0  0  0  0
    2.1901   18.2277    1.8284 H   0  0  0  0  0  0  0  0  0  0  0  0
    4.5904   17.6600    1.9155 H   0  0  0  0  0  0  0  0  0  0  0  0
    4.9684   19.3057    1.2547 H   0  0  0  0  0  0  0  0  0  0  0  0
    3.1236   19.2512    3.2424 H   0  0  0  0  0  0  0  0  0  0  0  0
    6.8331   17.7170    4.9883 H   0  0  0  0  0  0  0  0  0  0  0  0
    6.0534   17.1907    3.4580 H   0  0  0  0  0  0  0  0  0  0  0  0
    7.1762   18.5929    3.4580 H   0  0  0  0  0  0  0  0  0  0  0  0
    5.6691   18.7563    6.3837 H   0  0  0  0  0  0  0  0  0  0  0  0
    4.7832   20.2559    5.9443 H   0  0  0  0  0  0  0  0  0  0  0  0
    3.9293   18.6755    5.9443 H   0  0  0  0  0  0  0  0  0  0  0  0
    1.9298   16.5908    0.8317 H   0  0  0  0  0  0  0  0  0  0  0  0
   -0.1703   17.7067    0.4115 H   0  0  0  0  0  0  0  0  0  0  0  0
    0.4288   18.4338   -1.0949 H   0  0  0  0  0  0  0  0  0  0  0  0
   -1.3476   16.2026   -0.9190 H   0  0  0  0  0  0  0  0  0  0  0  0
   -0.4786   16.6605   -2.3817 H   0  0  0  0  0  0  0  0  0  0  0  0
    0.5858   15.1871    1.0340 H   0  0  0  0  0  0  0  0  0  0  0  0
   -0.9327   14.5305    0.3342 H   0  0  0  0  0  0  0  0  0  0  0  0
    0.5611   13.5329    0.3342 H   0  0  0  0  0  0  0  0  0  0  0  0
    0.6078   14.6540   -3.1918 H   0  0  0  0  0  0  0  0  0  0  0  0
   -1.6894   14.1401   -2.1448 H   0  0  0  0  0  0  0  0  0  0  0  0
   -0.9986   13.0890   -3.4892 H   0  0  0  0  0  0  0  0  0  0  0  0
   -2.1812   11.8190   -1.5067 H   0  0  0  0  0  0  0  0  0  0  0  0
    1.6341   12.2355   -0.2556 H   0  0  0  0  0  0  0  0  0  0  0  0
    1.7909   10.1233   -2.4952 H   0  0  0  0  0  0  0  0  0  0  0  0
    3.1756   10.7792   -1.5140 H   0  0  0  0  0  0  0  0  0  0  0  0
    2.4682    8.5337   -0.7516 H   0  0  0  0  0  0  0  0  0  0  0  0
    2.2424    9.8105    0.5072 H   0  0  0  0  0  0  0  0  0  0  0  0
    0.3165    8.3791    0.5073 H   0  0  0  0  0  0  0  0  0  0  0  0
   -0.5560    7.6760   -1.3280 H   0  0  0  0  0  0  0  0  0  0  0  0
   -0.6210   10.0301    2.1096 H   0  0  0  0  0  0  0  0  0  0  0  0
    0.8337   10.9259    1.5545 H   0  0  0  0  0  0  0  0  0  0  0  0
   -0.7716   11.7318    1.5545 H   0  0  0  0  0  0  0  0  0  0  0  0
   -2.3461    9.6782    0.9285 H   0  0  0  0  0  0  0  0  0  0  0  0
   -2.5809   10.5464   -0.6264 H   0  0  0  0  0  0  0  0  0  0  0  0
   -2.0219    8.8393   -0.6264 H   0  0  0  0  0  0  0  0  0  0  0  0
    1.9402   11.3187   -3.6312 H   0  0  0  0  0  0  0  0  0  0  0  0
    0.7762   12.5540   -4.2195 H   0  0  0  0  0  0  0  0  0  0  0  0
    2.5374   12.9074   -4.2195 H   0  0  0  0  0  0  0  0  0  0  0  0
    3.6519   12.7985   -1.5148 H   0  0  0  0  0  0  0  0  0  0  0  0
    3.3563   14.0592   -2.8406 H   0  0  0  0  0  0  0  0  0  0  0  0
    2.8124   14.3359    0.1283 H   0  0  0  0  0  0  0  0  0  0  0  0
    4.0188   15.2213   -0.8855 H   0  0  0  0  0  0  0  0  0  0  0  0
    2.9174   17.3604   -2.4401 H   0  0  0  0  0  0  0  0  0  0  0  0
    2.9695   15.7166   -3.1625 H   0  0  0  0  0  0  0  0  0  0  0  0
    1.4344   16.6495   -3.1625 H   0  0  0  0  0  0  0  0  0  0  0  0
  1  2  1  0
  2  3  1  0
  3  4  1  0
  4  5  1  0
  5  6  1  0
  6  7  1  0
  7  8  1  0
  7  9  1  0
  2 10  1  0
 10 11  1  0
 11 12  1  0
 12 13  1  0
 13 14  1  1
 13 15  1  0
 15 16  1  0
 16 17  1  0
 17 18  2  0
 18 19  1  0
 19 20  1  0
 20 21  1  0
 21 22  1  0
 22 23  1  0
 22 24  1  0
 24 25  1  0
 24 26  1  0
 19 27  1  0
 27 28  1  6
 27 29  1  0
 29 30  1  0
 30 31  1  0
 31 32  1  6
  7  5  1  0
 31 10  1  0
 31 13  1  0
 27 15  1  0
 24 18  1  0
  1 33  1  0
  1 34  1  0
  1 35  1  0
  2 36  1  6
  3 37  1  0
  3 38  1  0
  4 39  1  0
  4 40  1  0
  5 41  1  1
  8 42  1  0
  8 43  1  0
  8 44  1  0
  9 45  1  0
  9 46  1  0
  9 47  1  0
 10 48  1  1
 11 49  1  0
 11 50  1  0
 12 51  1  0
 12 52  1  0
 14 53  1  0
 14 54  1  0
 14 55  1  0
 15 56  1  6
 16 57  1  0
 16 58  1  0
 17 59  1  0
 19 60  1  1
 20 61  1  0
 20 62  1  0
 21 63  1  0
 21 64  1  0
 22 65  1  1
 23 66  1  0
 25 67  1  0
 25 68  1  0
 25 69  1  0
 26 70  1  0
 26 71  1  0
 26 72  1  0
 28 73  1  0
 28 74  1  0
 28 75  1  0
 29 76  1  0
 29 77  1  0
 30 78  1  0
 30 79  1  0
 32 80  1  0
 32 81  1  0
 32 82  1  0
M  END
>  <meeko>  (2) 
{"is_sidechain": [false], "intermolecular_energy": 2.731, "internal_energy": -0.839}

$$$$
EPH_relaxed_0001_pdb2pqr_Repair_281_r2_0001_out
     RDKit          3D

 82 86  0  0  0  0  0  0  0  0999 V2000
    2.3420   17.9700   -2.6260 C   0  0  0  0  0  0  0  0  0  0  0  0
    1.0240   17.5970   -1.9420 C   0  0  2  0  0  0  0  0  0  0  0  0
    1.1310   17.6550   -0.4050 C   0  0  0  0  0  0  0  0  0  0  0  0
    0.8170   19.0330    0.1830 C   0  0  0  0  0  0  0  0  0  0  0  0
   -0.6260   19.1560    0.5680 C   0  0  2  0  0  0  0  0  0  0  0  0
   -1.5030   18.2360   -0.0940 O   0  0  0  0  0  0  0  0  0  0  0  0
   -1.7090   19.6280   -0.3850 C   0  0  0  0  0  0  0  0  0  0  0  0
   -1.3940   20.0070   -1.7980 C   0  0  0  0  0  0  0  0  0  0  0  0
   -2.9750   20.1830    0.1890 C   0  0  0  0  0  0  0  0  0  0  0  0
    0.5860   16.2050   -2.3820 C   0  0  1  0  0  0  0  0  0  0  0  0
    0.6820   16.0060   -3.9180 C   0  0  0  0  0  0  0  0  0  0  0  0
    1.0930   14.5300   -4.1530 C   0  0  0  0  0  0  0  0  0  0  0  0
    0.8970   13.8470   -2.7790 C   0  0  1  0  0  0  0  0  0  0  0  0
   -0.6310   13.5400   -2.6980 C   0  0  0  0  0  0  0  0  0  0  0  0
    1.7570   12.5690   -2.5130 C   0  0  2  0  0  0  0  0  0  0  0  0
    1.4830   11.3890   -3.4630 C   0  0  0  0  0  0  0  0  0  0  0  0
    0.4310   10.4340   -3.0060 C   0  0  0  0  0  0  0  0  0  0  0  0
   -0.0660   10.3550   -1.7570 C   0  0  0  0  0  0  0  0  0  0  0  0
    0.5050   11.2210   -0.6270 C   0  0  1  0  0  0  0  0  0  0  0  0
    0.7400   10.3430    0.6300 C   0  0  0  0  0  0  0  0  0  0  0  0
   -0.5130    9.5820    1.0540 C   0  0  0  0  0  0  0  0  0  0  0  0
   -1.0170    8.6880   -0.0770 C   0  0  2  0  0  0  0  0  0  0  0  0
   -0.0570    7.6520   -0.3080 O   0  0  0  0  0  0  0  0  0  0  0  0
   -1.2790    9.4620   -1.3990 C   0  0  0  0  0  0  0  0  0  0  0  0
   -2.5200   10.3730   -1.2320 C   0  0  0  0  0  0  0  0  0  0  0  0
   -1.6460    8.4250   -2.4950 C   0  0  0  0  0  0  0  0  0  0  0  0
    1.7740   12.1020   -1.0010 C   0  0  1  0  0  0  0  0  0  0  0  0
    3.0770   11.2670   -0.8080 C   0  0  0  0  0  0  0  0  0  0  0  0
    1.8720   13.3140   -0.0020 C   0  0  0  0  0  0  0  0  0  0  0  0
    1.0960   14.5900   -0.3800 C   0  0  0  0  0  0  0  0  0  0  0  0
    1.3850   14.9990   -1.8270 C   0  0  2  0  0  0  0  0  0  0  0  0
    2.9110   15.3360   -1.9340 C   0  0  0  0  0  0  0  0  0  0  0  0
    3.1035   18.1855   -1.8620 H   0  0  0  0  0  0  0  0  0  0  0  0
    2.6793   17.1320   -3.2537 H   0  0  0  0  0  0  0  0  0  0  0  0
    2.1902   18.8604   -3.2537 H   0  0  0  0  0  0  0  0  0  0  0  0
    0.2706   18.3377   -2.2484 H   0  0  0  0  0  0  0  0  0  0  0  0
    0.4242   16.9271    0.0199 H   0  0  0  0  0  0  0  0  0  0  0  0
    2.1756   17.4263   -0.1470 H   0  0  0  0  0  0  0  0  0  0  0  0
    1.4389   19.1893    1.0768 H   0  0  0  0  0  0  0  0  0  0  0  0
    1.0326   19.7905   -0.5849 H   0  0  0  0  0  0  0  0  0  0  0  0
   -0.3518   19.4684    1.5865 H   0  0  0  0  0  0  0  0  0  0  0  0
   -0.6909   20.8529   -1.8027 H   0  0  0  0  0  0  0  0  0  0  0  0
   -0.9391   19.1492   -2.3150 H   0  0  0  0  0  0  0  0  0  0  0  0
   -2.3205   20.2974   -2.3150 H   0  0  0  0  0  0  0  0  0  0  0  0
   -2.9209   20.1593    1.2874 H   0  0  0  0  0  0  0  0  0  0  0  0
   -3.1067   21.2214   -0.1493 H   0  0  0  0  0  0  0  0  0  0  0  0
   -3.8279   19.5762   -0.1493 H   0  0  0  0  0  0  0  0  0  0  0  0
   -0.4365   16.1971   -1.9766 H   0  0  0  0  0  0  0  0  0  0  0  0
   -0.2921   16.2073   -4.3876 H   0  0  0  0  0  0  0  0  0  0  0  0
    1.4160   16.6956   -4.3604 H   0  0  0  0  0  0  0  0  0  0  0  0
    0.4493   14.0640   -4.9136 H   0  0  0  0  0  0  0  0  0  0  0  0
    2.1255   14.4380   -4.5211 H   0  0  0  0  0  0  0  0  0  0  0  0
   -0.9372   13.4785   -1.6433 H   0  0  0  0  0  0  0  0  0  0  0  0
   -1.1933   14.3431   -3.1968 H   0  0  0  0  0  0  0  0  0  0  0  0
   -0.8395   12.5820   -3.1968 H   0  0  0  0  0  0  0  0  0  0  0  0
    2.7737   12.9148   -2.7513 H   0  0  0  0  0  0  0  0  0  0  0  0
    1.1703   11.8000   -4.4342 H   0  0  0  0  0  0  0  0  0  0  0  0
    2.4184   10.8121   -3.5095 H   0  0  0  0  0  0  0  0  0  0  0  0
    0.0272    9.7350   -3.7533 H   0  0  0  0  0  0  0  0  0  0  0  0
   -0.2589   11.9831   -0.4133 H   0  0  0  0  0  0  0  0  0  0  0  0
    1.5360    9.6167    0.4091 H   0  0  0  0  0  0  0  0  0  0  0  0
    1.0207   11.0117    1.4570 H   0  0  0  0  0  0  0  0  0  0  0  0
   -0.2766    8.9577    1.9283 H   0  0  0  0  0  0  0  0  0  0  0  0
   -1.2989   10.3103    1.3029 H   0  0  0  0  0  0  0  0  0  0  0  0
   -1.9844    8.2701    0.2386 H   0  0  0  0  0  0  0  0  0  0  0  0
   -0.2270    6.9450    0.3370 H   0  0  0  0  0  0  0  0  0  0  0  0
   -2.7237   10.5225   -0.1614 H   0  0  0  0  0  0  0  0  0  0  0  0
   -2.3274   11.3458   -1.7080 H   0  0  0  0  0  0  0  0  0  0  0  0
   -3.3904    9.8978   -1.7080 H   0  0  0  0  0  0  0  0  0  0  0  0
   -1.9769    7.4901   -2.0191 H   0  0  0  0  0  0  0  0  0  0  0  0
   -2.4572    8.8248   -3.1211 H   0  0  0  0  0  0  0  0  0  0  0  0
   -0.7639    8.2255   -3.1211 H   0  0  0  0  0  0  0  0  0  0  0  0
    3.2753   11.1399    0.2665 H   0  0  0  0  0  0  0  0  0  0  0  0
    2.9528   10.2799   -1.2772 H   0  0  0  0  0  0  0  0  0  0  0  0
    3.9220   11.7923   -1.2772 H   0  0  0  0  0  0  0  0  0  0  0  0
    1.4958   12.9724    0.9736 H   0  0  0  0  0  0  0  0  0  0  0  0
    2.9318   13.6086   -0.0098 H   0  0  0  0  0  0  0  0  0  0  0  0
    0.0180   14.4021   -0.2677 H   0  0  0  0  0  0  0  0  0  0  0  0
    1.4162   15.4052    0.2855 H   0  0  0  0  0  0  0  0  0  0  0  0
    3.3374   15.4302   -0.9244 H   0  0  0  0  0  0  0  0  0  0  0  0
    3.4273   14.5302   -2.4764 H   0  0  0  0  0  0  0  0  0  0  0  0
    3.0399   16.2843   -2.4764 H   0  0  0  0  0  0  0  0  0  0  0  0
  1  2  1  0
  2  3  1  0
  3  4  1  0
  4  5  1  0
  5  6  1  0
  6  7  1  0
  7  8  1  0
  7  9  1  0
  2 10  1  0
 10 11  1  0
 11 12  1  0
 12 13  1  0
 13 14  1  1
 13 15  1  0
 15 16  1  0
 16 17  1  0
 17 18  2  0
 18 19  1  0
 19 20  1  0
 20 21  1  0
 21 22  1  0
 22 23  1  0
 22 24  1  0
 24 25  1  0
 24 26  1  0
 19 27  1  0
 27 28  1  6
 27 29  1  0
 29 30  1  0
 30 31  1  0
 31 32  1  1
  7  5  1  0
 31 10  1  0
 31 13  1  0
 27 15  1  0
 24 18  1  0
  1 33  1  0
  1 34  1  0
  1 35  1  0
  2 36  1  6
  3 37  1  0
  3 38  1  0
  4 39  1  0
  4 40  1  0
  5 41  1  1
  8 42  1  0
  8 43  1  0
  8 44  1  0
  9 45  1  0
  9 46  1  0
  9 47  1  0
 10 48  1  1
 11 49  1  0
 11 50  1  0
 12 51  1  0
 12 52  1  0
 14 53  1  0
 14 54  1  0
 14 55  1  0
 15 56  1  6
 16 57  1  0
 16 58  1  0
 17 59  1  0
 19 60  1  1
 20 61  1  0
 20 62  1  0
 21 63  1  0
 21 64  1  0
 22 65  1  1
 23 66  1  0
 25 67  1  0
 25 68  1  0
 25 69  1  0
 26 70  1  0
 26 71  1  0
 26 72  1  0
 28 73  1  0
 28 74  1  0
 28 75  1  0
 29 76  1  0
 29 77  1  0
 30 78  1  0
 30 79  1  0
 32 80  1  0
 32 81  1  0
 32 82  1  0
M  END
>  <meeko>  (3) 
{"is_sidechain": [false], "intermolecular_energy": 2.731, "internal_energy": -0.839}

$$$$
EPH_relaxed_0001_pdb2pqr_Repair_281_r2_0001_out
     RDKit          3D

 82 86  0  0  0  0  0  0  0  0999 V2000
    0.3960   18.4170   -0.0620 C   0  0  0  0  0  0  0  0  0  0  0  0
    1.4830   17.3600   -0.2710 C   0  0  2  0  0  0  0  0  0  0  0  0
    2.6980   17.9200   -1.0380 C   0  0  0  0  0  0  0  0  0  0  0  0
    3.9240   18.1660   -0.1540 C   0  0  0  0  0  0  0  0  0  0  0  0
    3.5350   18.6400    1.2140 C   0  0  2  0  0  0  0  0  0  0  0  0
    3.7840   20.0310    1.4580 O   0  0  0  0  0  0  0  0  0  0  0  0
    4.5370   19.1030    2.2550 C   0  0  0  0  0  0  0  0  0  0  0  0
    6.0070   19.1120    1.9740 C   0  0  0  0  0  0  0  0  0  0  0  0
    4.1330   19.0790    3.6970 C   0  0  0  0  0  0  0  0  0  0  0  0
    0.9070   16.1610   -1.0140 C   0  0  1  0  0  0  0  0  0  0  0  0
    0.7750   16.4100   -2.5400 C   0  0  0  0  0  0  0  0  0  0  0  0
    1.0620   15.0570   -3.2400 C   0  0  0  0  0  0  0  0  0  0  0  0
    1.0200   14.0110   -2.1010 C   0  0  1  0  0  0  0  0  0  0  0  0
   -0.4980   13.7190   -1.8800 C   0  0  0  0  0  0  0  0  0  0  0  0
    1.8320   12.6970   -2.3390 C   0  0  2  0  0  0  0  0  0  0  0  0
    1.3590   11.8440   -3.5300 C   0  0  0  0  0  0  0  0  0  0  0  0
    0.3260   10.8150   -3.2070 C   0  0  0  0  0  0  0  0  0  0  0  0
    0.0060   10.3900   -1.9710 C   0  0  0  0  0  0  0  0  0  0  0  0
    0.7790   10.8850   -0.7420 C   0  0  1  0  0  0  0  0  0  0  0  0
    1.1350    9.6780    0.1660 C   0  0  0  0  0  0  0  0  0  0  0  0
   -0.0890    8.8490    0.5420 C   0  0  0  0  0  0  0  0  0  0  0  0
   -0.7980    8.3260   -0.7050 C   0  0  2  0  0  0  0  0  0  0  0  0
    0.0570    7.3840   -1.3600 O   0  0  0  0  0  0  0  0  0  0  0  0
   -1.1960    9.4510   -1.7000 C   0  0  0  0  0  0  0  0  0  0  0  0
   -2.3460   10.2960   -1.0980 C   0  0  0  0  0  0  0  0  0  0  0  0
   -1.7730    8.7790   -2.9750 C   0  0  0  0  0  0  0  0  0  0  0  0
    2.0330   11.8150   -1.0410 C   0  0  1  0  0  0  0  0  0  0  0  0
    3.2980   10.9380   -1.2900 C   0  0  0  0  0  0  0  0  0  0  0  0
    2.3410   12.6870    0.2330 C   0  0  0  0  0  0  0  0  0  0  0  0
    1.5960   14.0310    0.3520 C   0  0  0  0  0  0  0  0  0  0  0  0
    1.7030   14.8330   -0.9490 C   0  0  2  0  0  0  0  0  0  0  0  0
    3.2170   15.1610   -1.1850 C   0  0  0  0  0  0  0  0  0  0  0  0
    0.2371   18.5715    1.0154 H   0  0  0  0  0  0  0  0  0  0  0  0
    0.7110   19.3635   -0.5256 H   0  0  0  0  0  0  0  0  0  0  0  0
   -0.5413   18.0757   -0.5256 H   0  0  0  0  0  0  0  0  0  0  0  0
    1.8350   17.0474    0.7232 H   0  0  0  0  0  0  0  0  0  0  0  0
    2.9746   17.2009   -1.8231 H   0  0  0  0  0  0  0  0  0  0  0  0
    2.3972   18.8950   -1.4490 H   0  0  0  0  0  0  0  0  0  0  0  0
    4.4890   17.2270   -0.0587 H   0  0  0  0  0  0  0  0  0  0  0  0
    4.5362   18.9481   -0.6267 H   0  0  0  0  0  0  0  0  0  0  0  0
    2.7086   17.9153    1.2565 H   0  0  0  0  0  0  0  0  0  0  0  0
    6.5618   19.1154    2.9238 H   0  0  0  0  0  0  0  0  0  0  0  0
    6.2753   18.2155    1.3958 H   0  0  0  0  0  0  0  0  0  0  0  0
    6.2643   20.0117    1.3958 H   0  0  0  0  0  0  0  0  0  0  0  0
    5.0308   19.1323    4.3303 H   0  0  0  0  0  0  0  0  0  0  0  0
    3.4825   19.9401    3.9099 H   0  0  0  0  0  0  0  0  0  0  0  0
    3.5890   18.1470    3.9099 H   0  0  0  0  0  0  0  0  0  0  0  0
   -0.0472   16.0540   -0.4772 H   0  0  0  0  0  0  0  0  0  0  0  0
   -0.2418   16.7532   -2.7813 H   0  0  0  0  0  0  0  0  0  0  0  0
    1.4787   17.1858   -2.8761 H   0  0  0  0  0  0  0  0  0  0  0  0
    0.2923   14.8397   -3.9952 H   0  0  0  0  0  0  0  0  0  0  0  0
    2.0260   15.0579   -3.7698 H   0  0  0  0  0  0  0  0  0  0  0  0
   -0.7103   13.6782   -0.8015 H   0  0  0  0  0  0  0  0  0  0  0  0
   -1.0962   14.5185   -2.3414 H   0  0  0  0  0  0  0  0  0  0  0  0
   -0.7569   12.7546   -2.3414 H   0  0  0  0  0  0  0  0  0  0  0  0
    2.8236   13.0808   -2.6210 H   0  0  0  0  0  0  0  0  0  0  0  0
    0.9386   12.5216   -4.2877 H   0  0  0  0  0  0  0  0  0  0  0  0
    2.2431   11.2892   -3.8773 H   0  0  0  0  0  0  0  0  0  0  0  0
   -0.2193   10.3667   -4.0506 H   0  0  0  0  0  0  0  0  0  0  0  0
    0.0996   11.5658   -0.2082 H   0  0  0  0  0  0  0  0  0  0  0  0
    1.8476    9.0326   -0.3684 H   0  0  0  0  0  0  0  0  0  0  0  0
    1.5681   10.0754    1.0958 H   0  0  0  0  0  0  0  0  0  0  0  0
    0.2297    7.9961    1.1593 H   0  0  0  0  0  0  0  0  0  0  0  0
   -0.7879    9.4886    1.1010 H   0  0  0  0  0  0  0  0  0  0  0  0
   -1.7348    7.8513   -0.3778 H   0  0  0  0  0  0  0  0  0  0  0  0
    0.0860    6.5820   -0.8120 H   0  0  0  0  0  0  0  0  0  0  0  0
   -2.2934   10.2574    0.0001 H   0  0  0  0  0  0  0  0  0  0  0  0
   -2.2489   11.3392   -1.4333 H   0  0  0  0  0  0  0  0  0  0  0  0
   -3.3125    9.8916   -1.4333 H   0  0  0  0  0  0  0  0  0  0  0  0
   -2.4641    7.9741   -2.6844 H   0  0  0  0  0  0  0  0  0  0  0  0
   -2.3133    9.5285   -3.5720 H   0  0  0  0  0  0  0  0  0  0  0  0
   -0.9504    8.3583   -3.5720 H   0  0  0  0  0  0  0  0  0  0  0  0
    3.7316   10.6374   -0.3248 H   0  0  0  0  0  0  0  0  0  0  0  0
    3.0157   10.0408   -1.8604 H   0  0  0  0  0  0  0  0  0  0  0  0
    4.0391   11.5171   -1.8604 H   0  0  0  0  0  0  0  0  0  0  0  0
    2.0854   12.0854    1.1177 H   0  0  0  0  0  0  0  0  0  0  0  0
    3.4047   12.9541    0.1487 H   0  0  0  0  0  0  0  0  0  0  0  0
    0.5353   13.8367    0.5690 H   0  0  0  0  0  0  0  0  0  0  0  0
    2.0536   14.6156    1.1637 H   0  0  0  0  0  0  0  0  0  0  0  0
    3.7239   15.2708   -0.2150 H   0  0  0  0  0  0  0  0  0  0  0  0
    3.6851   14.3434   -1.7529 H   0  0  0  0  0  0  0  0  0  0  0  0
    3.3048   16.0990   -1.7529 H   0  0  0  0  0  0  0  0  0  0  0  0
  1  2  1  0
  2  3  1  0
  3  4  1  0
  4  5  1  0
  5  6  1  0
  6  7  1  0
  7  8  1  0
  7  9  1  0
  2 10  1  0
 10 11  1  0
 11 12  1  0
 12 13  1  0
 13 14  1  1
 13 15  1  0
 15 16  1  0
 16 17  1  0
 17 18  2  0
 18 19  1  0
 19 20  1  0
 20 21  1  0
 21 22  1  0
 22 23  1  0
 22 24  1  0
 24 25  1  0
 24 26  1  0
 19 27  1  0
 27 28  1  6
 27 29  1  0
 29 30  1  0
 30 31  1  0
 31 32  1  6
  7  5  1  0
 31 10  1  0
 31 13  1  0
 27 15  1  0
 24 18  1  0
  1 33  1  0
  1 34  1  0
  1 35  1  0
  2 36  1  1
  3 37  1  0
  3 38  1  0
  4 39  1  0
  4 40  1  0
  5 41  1  1
  8 42  1  0
  8 43  1  0
  8 44  1  0
  9 45  1  0
  9 46  1  0
  9 47  1  0
 10 48  1  1
 11 49  1  0
 11 50  1  0
 12 51  1  0
 12 52  1  0
 14 53  1  0
 14 54  1  0
 14 55  1  0
 15 56  1  6
 16 57  1  0
 16 58  1  0
 17 59  1  0
 19 60  1  1
 20 61  1  0
 20 62  1  0
 21 63  1  0
 21 64  1  0
 22 65  1  1
 23 66  1  0
 25 67  1  0
 25 68  1  0
 25 69  1  0
 26 70  1  0
 26 71  1  0
 26 72  1  0
 28 73  1  0
 28 74  1  0
 28 75  1  0
 29 76  1  0
 29 77  1  0
 30 78  1  0
 30 79  1  0
 32 80  1  0
 32 81  1  0
 32 82  1  0
M  END
>  <meeko>  (4) 
{"is_sidechain": [false], "intermolecular_energy": 2.731, "internal_energy": -0.839}

$$$$
EPH_relaxed_0001_pdb2pqr_Repair_281_r2_0001_out
     RDKit          3D

 82 86  0  0  0  0  0  0  0  0999 V2000
    2.2020   18.0780   -2.7480 C   0  0  0  0  0  0  0  0  0  0  0  0
    0.8920   17.6820   -2.0590 C   0  0  2  0  0  0  0  0  0  0  0  0
    0.9940   17.7710   -0.5230 C   0  0  0  0  0  0  0  0  0  0  0  0
    2.4020   18.0960   -0.0170 C   0  0  0  0  0  0  0  0  0  0  0  0
    2.3860   19.2030    0.9930 C   0  0  2  0  0  0  0  0  0  0  0  0
    3.4060   20.1940    0.8100 O   0  0  0  0  0  0  0  0  0  0  0  0
    3.4860   19.4170    2.0160 C   0  0  0  0  0  0  0  0  0  0  0  0
    4.6780   18.5150    2.0820 C   0  0  0  0  0  0  0  0  0  0  0  0
    3.1680   20.1940    3.2560 C   0  0  0  0  0  0  0  0  0  0  0  0
    0.4930   16.2710   -2.4740 C   0  0  1  0  0  0  0  0  0  0  0  0
    0.5850   16.0510   -4.0080 C   0  0  0  0  0  0  0  0  0  0  0  0
    1.0380   14.5840   -4.2220 C   0  0  0  0  0  0  0  0  0  0  0  0
    0.8710   13.9170   -2.8360 C   0  0  1  0  0  0  0  0  0  0  0  0
   -0.6470   13.5670   -2.7400 C   0  0  0  0  0  0  0  0  0  0  0  0
    1.7700   12.6690   -2.5570 C   0  0  2  0  0  0  0  0  0  0  0  0
    1.5250   11.4670   -3.4850 C   0  0  0  0  0  0  0  0  0  0  0  0
    0.5050   10.4890   -3.0060 C   0  0  0  0  0  0  0  0  0  0  0  0
    0.0190   10.4160   -1.7530 C   0  0  0  0  0  0  0  0  0  0  0  0
    0.5720   11.3160   -0.6400 C   0  0  1  0  0  0  0  0  0  0  0  0
    0.8410   10.4650    0.6290 C   0  0  0  0  0  0  0  0  0  0  0  0
   -0.3860    9.6740    1.0730 C   0  0  0  0  0  0  0  0  0  0  0  0
   -0.8710    8.7480   -0.0400 C   0  0  2  0  0  0  0  0  0  0  0  0
    0.1170    7.7370   -0.2610 O   0  0  0  0  0  0  0  0  0  0  0  0
   -1.1650    9.4930   -1.3720 C   0  0  0  0  0  0  0  0  0  0  0  0
   -2.4310   10.3690   -1.2100 C   0  0  0  0  0  0  0  0  0  0  0  0
   -1.5080    8.4280   -2.4480 C   0  0  0  0  0  0  0  0  0  0  0  0
    1.8120   12.2270   -1.0380 C   0  0  1  0  0  0  0  0  0  0  0  0
    3.1400   11.4340   -0.8410 C   0  0  0  0  0  0  0  0  0  0  0  0
    1.8800   13.4580   -0.0580 C   0  0  0  0  0  0  0  0  0  0  0  0
    1.0640   14.7040   -0.4500 C   0  0  0  0  0  0  0  0  0  0  0  0
    1.3310   15.0990   -1.9060 C   0  0  2  0  0  0  0  0  0  0  0  0
    2.8460   15.4780   -2.0290 C   0  0  0  0  0  0  0  0  0  0  0  0
    2.9619   18.3077   -1.9866 H   0  0  0  0  0  0  0  0  0  0  0  0
    2.5522   17.2456   -3.3760 H   0  0  0  0  0  0  0  0  0  0  0  0
    2.0324   18.9650   -3.3760 H   0  0  0  0  0  0  0  0  0  0  0  0
    0.1196   18.3963   -2.3802 H   0  0  0  0  0  0  0  0  0  0  0  0
    0.3095   18.5585   -0.1746 H   0  0  0  0  0  0  0  0  0  0  0  0
    0.7307   16.7797   -0.1256 H   0  0  0  0  0  0  0  0  0  0  0  0
    2.8305   17.1957    0.4476 H   0  0  0  0  0  0  0  0  0  0  0  0
    3.0078   18.4232   -0.8749 H   0  0  0  0  0  0  0  0  0  0  0  0
    1.2925   19.1324    1.0893 H   0  0  0  0  0  0  0  0  0  0  0  0
    4.9336   18.3216    3.1343 H   0  0  0  0  0  0  0  0  0  0  0  0
    4.4464   17.5640    1.5801 H   0  0  0  0  0  0  0  0  0  0  0  0
    5.5303   18.9964    1.5801 H   0  0  0  0  0  0  0  0  0  0  0  0
    3.4154   19.5895    4.1411 H   0  0  0  0  0  0  0  0  0  0  0  0
    3.7587   21.1218    3.2689 H   0  0  0  0  0  0  0  0  0  0  0  0
    2.0963   20.4415    3.2689 H   0  0  0  0  0  0  0  0  0  0  0  0
   -0.5262   16.2386   -2.0614 H   0  0  0  0  0  0  0  0  0  0  0  0
   -0.3976   16.2160   -4.4741 H   0  0  0  0  0  0  0  0  0  0  0  0
    1.2951   16.7549   -4.4665 H   0  0  0  0  0  0  0  0  0  0  0  0
    0.4037   14.0872   -4.9709 H   0  0  0  0  0  0  0  0  0  0  0  0
    2.0706   14.5168   -4.5952 H   0  0  0  0  0  0  0  0  0  0  0  0
   -0.9415   13.4991   -1.6823 H   0  0  0  0  0  0  0  0  0  0  0  0
   -1.2365   14.3528   -3.2350 H   0  0  0  0  0  0  0  0  0  0  0  0
   -0.8329   12.6024   -3.2350 H   0  0  0  0  0  0  0  0  0  0  0  0
    2.7739   13.0411   -2.8095 H   0  0  0  0  0  0  0  0  0  0  0  0
    1.1941   11.8528   -4.4605 H   0  0  0  0  0  0  0  0  0  0  0  0
    2.4768   10.9172   -3.5282 H   0  0  0  0  0  0  0  0  0  0  0  0
    0.1173    9.7663   -3.7391 H   0  0  0  0  0  0  0  0  0  0  0  0
   -0.2122   12.0587   -0.4314 H   0  0  0  0  0  0  0  0  0  0  0  0
    1.6569    9.7592    0.4140 H   0  0  0  0  0  0  0  0  0  0  0  0
    1.1069   11.1546    1.4437 H   0  0  0  0  0  0  0  0  0  0  0  0
   -0.1255    9.0707    1.9551 H   0  0  0  0  0  0  0  0  0  0  0  0
   -1.1915   10.3828    1.3157 H   0  0  0  0  0  0  0  0  0  0  0  0
   -1.8236    8.3070    0.2886 H   0  0  0  0  0  0  0  0  0  0  0  0
    0.9760    8.1820   -0.3590 H   0  0  0  0  0  0  0  0  0  0  0  0
   -2.6416   10.5147   -0.1402 H   0  0  0  0  0  0  0  0  0  0  0  0
   -2.2644   11.3459   -1.6873 H   0  0  0  0  0  0  0  0  0  0  0  0
   -3.2865    9.8688   -1.6873 H   0  0  0  0  0  0  0  0  0  0  0  0
   -1.8094    7.4922   -1.9546 H   0  0  0  0  0  0  0  0  0  0  0  0
   -2.3337    8.7939   -3.0759 H   0  0  0  0  0  0  0  0  0  0  0  0
   -0.6239    8.2432   -3.0759 H   0  0  0  0  0  0  0  0  0  0  0  0
    3.3398   11.3147    0.2341 H   0  0  0  0  0  0  0  0  0  0  0  0
    3.0481   10.4428   -1.3091 H   0  0  0  0  0  0  0  0  0  0  0  0
    3.9690   11.9851   -1.3091 H   0  0  0  0  0  0  0  0  0  0  0  0
    1.5205   13.1207    0.9253 H   0  0  0  0  0  0  0  0  0  0  0  0
    2.9304   13.7840   -0.0781 H   0  0  0  0  0  0  0  0  0  0  0  0
   -0.0071   14.4859   -0.3270 H   0  0  0  0  0  0  0  0  0  0  0  0
    1.3643   15.5387    0.2004 H   0  0  0  0  0  0  0  0  0  0  0  0
    3.2796   15.5865   -1.0239 H   0  0  0  0  0  0  0  0  0  0  0  0
    3.3791   14.6855   -2.5747 H   0  0  0  0  0  0  0  0  0  0  0  0
    2.9431   16.4281   -2.5747 H   0  0  0  0  0  0  0  0  0  0  0  0
  1  2  1  0
  2  3  1  0
  3  4  1  0
  4  5  1  0
  5  6  1  0
  6  7  1  0
  7  8  1  0
  7  9  1  0
  2 10  1  0
 10 11  1  0
 11 12  1  0
 12 13  1  0
 13 14  1  1
 13 15  1  0
 15 16  1  0
 16 17  1  0
 17 18  2  0
 18 19  1  0
 19 20  1  0
 20 21  1  0
 21 22  1  0
 22 23  1  0
 22 24  1  0
 24 25  1  0
 24 26  1  0
 19 27  1  0
 27 28  1  6
 27 29  1  0
 29 30  1  0
 30 31  1  0
 31 32  1  1
  7  5  1  0
 31 10  1  0
 31 13  1  0
 27 15  1  0
 24 18  1  0
  1 33  1  0
  1 34  1  0
  1 35  1  0
  2 36  1  6
  3 37  1  0
  3 38  1  0
  4 39  1  0
  4 40  1  0
  5 41  1  1
  8 42  1  0
  8 43  1  0
  8 44  1  0
  9 45  1  0
  9 46  1  0
  9 47  1  0
 10 48  1  1
 11 49  1  0
 11 50  1  0
 12 51  1  0
 12 52  1  0
 14 53  1  0
 14 54  1  0
 14 55  1  0
 15 56  1  6
 16 57  1  0
 16 58  1  0
 17 59  1  0
 19 60  1  1
 20 61  1  0
 20 62  1  0
 21 63  1  0
 21 64  1  0
 22 65  1  1
 23 66  1  0
 25 67  1  0
 25 68  1  0
 25 69  1  0
 26 70  1  0
 26 71  1  0
 26 72  1  0
 28 73  1  0
 28 74  1  0
 28 75  1  0
 29 76  1  0
 29 77  1  0
 30 78  1  0
 30 79  1  0
 32 80  1  0
 32 81  1  0
 32 82  1  0
M  END
>  <meeko>  (5) 
{"is_sidechain": [false], "intermolecular_energy": 2.731, "internal_energy": -0.839}

$$$$
EPH_relaxed_0001_pdb2pqr_Repair_281_r2_0001_out
     RDKit          3D

 82 86  0  0  0  0  0  0  0  0999 V2000
    3.9070   17.3580    0.3600 C   0  0  0  0  0  0  0  0  0  0  0  0
    2.8880   17.7090   -0.7280 C   0  0  2  0  0  0  0  0  0  0  0  0
    2.2850   19.1140   -0.5280 C   0  0  0  0  0  0  0  0  0  0  0  0
    1.3320   19.2100    0.6670 C   0  0  0  0  0  0  0  0  0  0  0  0
    0.0820   19.9610    0.3210 C   0  0  2  0  0  0  0  0  0  0  0  0
   -0.8010   20.1940    1.4250 O   0  0  0  0  0  0  0  0  0  0  0  0
   -1.3050   19.3490    0.3780 C   0  0  0  0  0  0  0  0  0  0  0  0
   -1.5130   17.9260    0.7930 C   0  0  0  0  0  0  0  0  0  0  0  0
   -2.3980   19.9750   -0.4300 C   0  0  0  0  0  0  0  0  0  0  0  0
    1.7780   16.6650   -0.7560 C   0  0  1  0  0  0  0  0  0  0  0  0
    0.4760   17.1940   -1.4150 C   0  0  0  0  0  0  0  0  0  0  0  0
   -0.1620   15.9980   -2.1670 C   0  0  0  0  0  0  0  0  0  0  0  0
    0.6030   14.7580   -1.6490 C   0  0  1  0  0  0  0  0  0  0  0  0
   -0.0670   14.4170   -0.2810 C   0  0  0  0  0  0  0  0  0  0  0  0
    0.6350   13.5180   -2.6010 C   0  0  2  0  0  0  0  0  0  0  0  0
   -0.7390   12.8990   -2.9130 C   0  0  0  0  0  0  0  0  0  0  0  0
   -1.1790   11.8190   -1.9810 C   0  0  0  0  0  0  0  0  0  0  0  0
   -0.3860   11.1670   -1.1100 C   0  0  0  0  0  0  0  0  0  0  0  0
    1.1250   11.4300   -1.0700 C   0  0  1  0  0  0  0  0  0  0  0  0
    1.8840   10.0790   -1.0260 C   0  0  0  0  0  0  0  0  0  0  0  0
    1.4180    9.1820    0.1170 C   0  0  0  0  0  0  0  0  0  0  0  0
   -0.0780    8.8960    0.0110 C   0  0  2  0  0  0  0  0  0  0  0  0
   -0.3130    8.1010   -1.1560 O   0  0  0  0  0  0  0  0  0  0  0  0
   -0.9450   10.1840   -0.0520 C   0  0  0  0  0  0  0  0  0  0  0  0
   -0.9260   10.8910    1.3260 C   0  0  0  0  0  0  0  0  0  0  0  0
   -2.4170    9.7570   -0.3000 C   0  0  0  0  0  0  0  0  0  0  0  0
    1.6870   12.4100   -2.1870 C   0  0  1  0  0  0  0  0  0  0  0  0
    2.0200   11.6070   -3.4820 C   0  0  0  0  0  0  0  0  0  0  0  0
    3.0460   13.0320   -1.6900 C   0  0  0  0  0  0  0  0  0  0  0  0
    2.9540   14.3230   -0.8540 C   0  0  0  0  0  0  0  0  0  0  0  0
    2.0530   15.3560   -1.5370 C   0  0  2  0  0  0  0  0  0  0  0  0
    2.7130   15.7350   -2.9070 C   0  0  0  0  0  0  0  0  0  0  0  0
    3.4543   17.5139    1.3504 H   0  0  0  0  0  0  0  0  0  0  0  0
    4.2068   16.3048    0.2556 H   0  0  0  0  0  0  0  0  0  0  0  0
    4.7918   18.0032    0.2556 H   0  0  0  0  0  0  0  0  0  0  0  0
    3.4199   17.7125   -1.6908 H   0  0  0  0  0  0  0  0  0  0  0  0
    3.1085   19.8267   -0.3737 H   0  0  0  0  0  0  0  0  0  0  0  0
    1.6959   19.3424   -1.4284 H   0  0  0  0  0  0  0  0  0  0  0  0
    1.0598   18.1938    0.9883 H   0  0  0  0  0  0  0  0  0  0  0  0
    1.8466   19.7540    1.4728 H   0  0  0  0  0  0  0  0  0  0  0  0
    0.6088   20.5221   -0.4649 H   0  0  0  0  0  0  0  0  0  0  0  0
   -1.5224   17.8619    1.8911 H   0  0  0  0  0  0  0  0  0  0  0  0
   -2.4734   17.5651    0.3964 H   0  0  0  0  0  0  0  0  0  0  0  0
   -0.6960   17.3053    0.3964 H   0  0  0  0  0  0  0  0  0  0  0  0
   -3.1517   20.4067    0.2449 H   0  0  0  0  0  0  0  0  0  0  0  0
   -1.9765   20.7686   -1.0644 H   0  0  0  0  0  0  0  0  0  0  0  0
   -2.8692   19.2099   -1.0644 H   0  0  0  0  0  0  0  0  0  0  0  0
    1.6987   16.4514    0.3202 H   0  0  0  0  0  0  0  0  0  0  0  0
   -0.2137   17.5683   -0.6442 H   0  0  0  0  0  0  0  0  0  0  0  0
    0.6909   18.0244   -2.1036 H   0  0  0  0  0  0  0  0  0  0  0  0
   -1.2338   15.9190   -1.9323 H   0  0  0  0  0  0  0  0  0  0  0  0
   -0.0901   16.1060   -3.2593 H   0  0  0  0  0  0  0  0  0  0  0  0
    0.5856   14.7492    0.5398 H   0  0  0  0  0  0  0  0  0  0  0  0
   -1.0368   14.9312   -0.2094 H   0  0  0  0  0  0  0  0  0  0  0  0
   -0.2220   13.3303   -0.2094 H   0  0  0  0  0  0  0  0  0  0  0  0
    0.9873   13.9559   -3.5466 H   0  0  0  0  0  0  0  0  0  0  0  0
   -1.4892   13.7028   -2.8799 H   0  0  0  0  0  0  0  0  0  0  0  0
   -0.6422   12.4266   -3.9017 H   0  0  0  0  0  0  0  0  0  0  0  0
   -2.2405   11.5317   -2.0082 H   0  0  0  0  0  0  0  0  0  0  0  0
    1.3120   11.9931   -0.1438 H   0  0  0  0  0  0  0  0  0  0  0  0
    1.7201    9.5515   -1.9773 H   0  0  0  0  0  0  0  0  0  0  0  0
    2.9492   10.3001   -0.8634 H   0  0  0  0  0  0  0  0  0  0  0  0
    1.9700    8.2314    0.0766 H   0  0  0  0  0  0  0  0  0  0  0  0
    1.6102    9.6982    1.0692 H   0  0  0  0  0  0  0  0  0  0  0  0
   -0.3773    8.3608    0.9242 H   0  0  0  0  0  0  0  0  0  0  0  0
   -0.4830    8.7080   -1.8960 H   0  0  0  0  0  0  0  0  0  0  0  0
   -0.9463   10.1360    2.1258 H   0  0  0  0  0  0  0  0  0  0  0  0
   -0.0113   11.4954    1.4154 H   0  0  0  0  0  0  0  0  0  0  0  0
   -1.8069   11.5437    1.4154 H   0  0  0  0  0  0  0  0  0  0  0  0
   -2.9237    9.6100    0.6652 H   0  0  0  0  0  0  0  0  0  0  0  0
   -2.9353   10.5418   -0.8705 H   0  0  0  0  0  0  0  0  0  0  0  0
   -2.4349    8.8166   -0.8705 H   0  0  0  0  0  0  0  0  0  0  0  0
    2.4281   10.6228   -3.2084 H   0  0  0  0  0  0  0  0  0  0  0  0
    1.1037   11.4719   -4.0754 H   0  0  0  0  0  0  0  0  0  0  0  0
    2.7630   12.1600   -4.0754 H   0  0  0  0  0  0  0  0  0  0  0  0
    3.5545   12.2737   -1.0765 H   0  0  0  0  0  0  0  0  0  0  0  0
    3.5832   13.3196   -2.6058 H   0  0  0  0  0  0  0  0  0  0  0  0
    2.5388   14.0819    0.1357 H   0  0  0  0  0  0  0  0  0  0  0  0
    3.9633   14.7491   -0.7550 H   0  0  0  0  0  0  0  0  0  0  0  0
    3.6536   16.2751   -2.7239 H   0  0  0  0  0  0  0  0  0  0  0  0
    2.9216   14.8191   -3.4793 H   0  0  0  0  0  0  0  0  0  0  0  0
    2.0271   16.3768   -3.4793 H   0  0  0  0  0  0  0  0  0  0  0  0
  1  2  1  0
  2  3  1  0
  3  4  1  0
  4  5  1  0
  5  6  1  0
  6  7  1  0
  7  8  1  0
  7  9  1  0
  2 10  1  0
 10 11  1  0
 11 12  1  0
 12 13  1  0
 13 14  1  1
 13 15  1  0
 15 16  1  0
 16 17  1  0
 17 18  2  0
 18 19  1  0
 19 20  1  0
 20 21  1  0
 21 22  1  0
 22 23  1  0
 22 24  1  0
 24 25  1  0
 24 26  1  0
 19 27  1  0
 27 28  1  6
 27 29  1  0
 29 30  1  0
 30 31  1  0
 31 32  1  6
  7  5  1  0
 31 10  1  0
 31 13  1  0
 27 15  1  0
 24 18  1  0
  1 33  1  0
  1 34  1  0
  1 35  1  0
  2 36  1  6
  3 37  1  0
  3 38  1  0
  4 39  1  0
  4 40  1  0
  5 41  1  6
  8 42  1  0
  8 43  1  0
  8 44  1  0
  9 45  1  0
  9 46  1  0
  9 47  1  0
 10 48  1  1
 11 49  1  0
 11 50  1  0
 12 51  1  0
 12 52  1  0
 14 53  1  0
 14 54  1  0
 14 55  1  0
 15 56  1  6
 16 57  1  0
 16 58  1  0
 17 59  1  0
 19 60  1  1
 20 61  1  0
 20 62  1  0
 21 63  1  0
 21 64  1  0
 22 65  1  1
 23 66  1  0
 25 67  1  0
 25 68  1  0
 25 69  1  0
 26 70  1  0
 26 71  1  0
 26 72  1  0
 28 73  1  0
 28 74  1  0
 28 75  1  0
 29 76  1  0
 29 77  1  0
 30 78  1  0
 30 79  1  0
 32 80  1  0
 32 81  1  0
 32 82  1  0
M  END
>  <meeko>  (6) 
{"is_sidechain": [false], "intermolecular_energy": 2.731, "internal_energy": -0.839}

$$$$
EPH_relaxed_0001_pdb2pqr_Repair_281_r2_0001_out
     RDKit          3D

 82 86  0  0  0  0  0  0  0  0999 V2000
   -5.1660    5.8020   -1.7930 C   0  0  0  0  0  0  0  0  0  0  0  0
   -5.4680    7.3030   -1.8230 C   0  0  2  0  0  0  0  0  0  0  0  0
   -5.2460    7.9680   -0.4490 C   0  0  0  0  0  0  0  0  0  0  0  0
   -4.2140    9.0980   -0.4730 C   0  0  0  0  0  0  0  0  0  0  0  0
   -2.8340    8.5840   -0.7560 C   0  0  2  0  0  0  0  0  0  0  0  0
   -1.8480    8.9500    0.2170 O   0  0  0  0  0  0  0  0  0  0  0  0
   -1.6620    9.4830   -1.1040 C   0  0  0  0  0  0  0  0  0  0  0  0
   -1.8160   10.9690   -1.1890 C   0  0  0  0  0  0  0  0  0  0  0  0
   -0.4980    8.8890   -1.8350 C   0  0  0  0  0  0  0  0  0  0  0  0
   -6.9010    7.5350   -2.2880 C   0  0  1  0  0  0  0  0  0  0  0  0
   -7.2130    6.8310   -3.6350 C   0  0  0  0  0  0  0  0  0  0  0  0
   -8.6910    6.3680   -3.5660 C   0  0  0  0  0  0  0  0  0  0  0  0
   -9.2730    7.1030   -2.3360 C   0  0  1  0  0  0  0  0  0  0  0  0
   -9.6140    8.5370   -2.8500 C   0  0  0  0  0  0  0  0  0  0  0  0
  -10.5030    6.4290   -1.6470 C   0  0  2  0  0  0  0  0  0  0  0  0
  -11.7580    6.3050   -2.5280 C   0  0  0  0  0  0  0  0  0  0  0  0
  -12.7050    7.4570   -2.4560 C   0  0  0  0  0  0  0  0  0  0  0  0
  -12.7020    8.4140   -1.5090 C   0  0  0  0  0  0  0  0  0  0  0  0
  -11.7380    8.3400   -0.3180 C   0  0  1  0  0  0  0  0  0  0  0  0
  -12.5120    8.6340    0.9940 C   0  0  0  0  0  0  0  0  0  0  0  0
  -13.2720    9.9550    0.9410 C   0  0  0  0  0  0  0  0  0  0  0  0
  -14.2620    9.9680   -0.2210 C   0  0  2  0  0  0  0  0  0  0  0  0
  -15.2860    9.0020    0.0350 O   0  0  0  0  0  0  0  0  0  0  0  0
  -13.5980    9.6740   -1.5950 C   0  0  0  0  0  0  0  0  0  0  0  0
  -12.7120   10.8730   -2.0130 C   0  0  0  0  0  0  0  0  0  0  0  0
  -14.7250    9.5760   -2.6590 C   0  0  0  0  0  0  0  0  0  0  0  0
  -10.8540    7.0220   -0.2220 C   0  0  1  0  0  0  0  0  0  0  0  0
  -11.6360    5.9110    0.5430 C   0  0  0  0  0  0  0  0  0  0  0  0
   -9.5670    7.3280    0.6320 C   0  0  0  0  0  0  0  0  0  0  0  0
   -8.3450    7.8800   -0.1260 C   0  0  0  0  0  0  0  0  0  0  0  0
   -8.0390    7.0320   -1.3650 C   0  0  2  0  0  0  0  0  0  0  0  0
   -7.6700    5.5890   -0.8780 C   0  0  0  0  0  0  0  0  0  0  0  0
   -5.0977    5.4625   -0.7489 H   0  0  0  0  0  0  0  0  0  0  0  0
   -5.9722    5.2555   -2.3043 H   0  0  0  0  0  0  0  0  0  0  0  0
   -4.2112    5.6098   -2.3043 H   0  0  0  0  0  0  0  0  0  0  0  0
   -4.7667    7.7677   -2.5317 H   0  0  0  0  0  0  0  0  0  0  0  0
   -6.2053    8.3809   -0.1037 H   0  0  0  0  0  0  0  0  0  0  0  0
   -4.8570    7.1911    0.2255 H   0  0  0  0  0  0  0  0  0  0  0  0
   -4.4931    9.8189   -1.2555 H   0  0  0  0  0  0  0  0  0  0  0  0
   -4.2053    9.5750    0.5181 H   0  0  0  0  0  0  0  0  0  0  0  0
   -3.2424    7.6839   -1.2387 H   0  0  0  0  0  0  0  0  0  0  0  0
   -1.8598   11.3917   -0.1744 H   0  0  0  0  0  0  0  0  0  0  0  0
   -0.9573   11.3964   -1.7275 H   0  0  0  0  0  0  0  0  0  0  0  0
   -2.7441   11.2112   -1.7275 H   0  0  0  0  0  0  0  0  0  0  0  0
    0.2380    8.5134   -1.1089 H   0  0  0  0  0  0  0  0  0  0  0  0
   -0.8467    8.0586   -2.4666 H   0  0  0  0  0  0  0  0  0  0  0  0
   -0.0302    9.6586   -2.4666 H   0  0  0  0  0  0  0  0  0  0  0  0
   -6.9062    8.6343   -2.3266 H   0  0  0  0  0  0  0  0  0  0  0  0
   -7.0746    7.5332   -4.4703 H   0  0  0  0  0  0  0  0  0  0  0  0
   -6.5391    5.9774   -3.7999 H   0  0  0  0  0  0  0  0  0  0  0  0
   -9.2307    6.6543   -4.4807 H   0  0  0  0  0  0  0  0  0  0  0  0
   -8.7822    5.2751   -3.4806 H   0  0  0  0  0  0  0  0  0  0  0  0
   -9.7731    9.2060   -1.9915 H   0  0  0  0  0  0  0  0  0  0  0  0
   -8.7808    8.9155   -3.4604 H   0  0  0  0  0  0  0  0  0  0  0  0
  -10.5284    8.4999   -3.4604 H   0  0  0  0  0  0  0  0  0  0  0  0
  -10.1479    5.4004   -1.4863 H   0  0  0  0  0  0  0  0  0  0  0  0
  -11.4306    6.1992   -3.5728 H   0  0  0  0  0  0  0  0  0  0  0  0
  -12.3108    5.4329   -2.1486 H   0  0  0  0  0  0  0  0  0  0  0  0
  -13.4698    7.5300   -3.2432 H   0  0  0  0  0  0  0  0  0  0  0  0
  -10.9830    9.1214   -0.4894 H   0  0  0  0  0  0  0  0  0  0  0  0
  -13.2311    7.8202    1.1691 H   0  0  0  0  0  0  0  0  0  0  0  0
  -11.7751    8.7051    1.8076 H   0  0  0  0  0  0  0  0  0  0  0  0
  -13.8216   10.0923    1.8839 H   0  0  0  0  0  0  0  0  0  0  0  0
  -12.5487   10.7709    0.7954 H   0  0  0  0  0  0  0  0  0  0  0  0
  -14.6808   10.9831   -0.2861 H   0  0  0  0  0  0  0  0  0  0  0  0
  -14.8580    8.1330    0.1120 H   0  0  0  0  0  0  0  0  0  0  0  0
  -12.3358   11.3821   -1.1134 H   0  0  0  0  0  0  0  0  0  0  0  0
  -11.8630   10.5106   -2.6113 H   0  0  0  0  0  0  0  0  0  0  0  0
  -13.3077   11.5781   -2.6113 H   0  0  0  0  0  0  0  0  0  0  0  0
  -15.6989    9.4913   -2.1548 H   0  0  0  0  0  0  0  0  0  0  0  0
  -14.7150   10.4784   -3.2879 H   0  0  0  0  0  0  0  0  0  0  0  0
  -14.5594    8.6889   -3.2879 H   0  0  0  0  0  0  0  0  0  0  0  0
  -11.5270    6.0658    1.6266 H   0  0  0  0  0  0  0  0  0  0  0  0
  -12.7008    5.9586    0.2711 H   0  0  0  0  0  0  0  0  0  0  0  0
  -11.2319    4.9247    0.2711 H   0  0  0  0  0  0  0  0  0  0  0  0
   -9.8443    8.0664    1.3987 H   0  0  0  0  0  0  0  0  0  0  0  0
   -9.2447    6.3529    1.0260 H   0  0  0  0  0  0  0  0  0  0  0  0
   -8.5530    8.9136   -0.4398 H   0  0  0  0  0  0  0  0  0  0  0  0
   -7.4733    7.8490    0.5442 H   0  0  0  0  0  0  0  0  0  0  0  0
   -7.6635    5.5636    0.2217 H   0  0  0  0  0  0  0  0  0  0  0  0
   -8.4139    4.8727   -1.2569 H   0  0  0  0  0  0  0  0  0  0  0  0
   -6.6736    5.3177   -1.2569 H   0  0  0  0  0  0  0  0  0  0  0  0
  1  2  1  0
  2  3  1  0
  3  4  1  0
  4  5  1  0
  5  6  1  0
  6  7  1  0
  7  8  1  0
  7  9  1  0
  2 10  1  0
 10 11  1  0
 11 12  1  0
 12 13  1  0
 13 14  1  6
 13 15  1  0
 15 16  1  0
 16 17  1  0
 17 18  2  0
 18 19  1  0
 19 20  1  0
 20 21  1  0
 21 22  1  0
 22 23  1  0
 22 24  1  0
 24 25  1  0
 24 26  1  0
 19 27  1  0
 27 28  1  1
 27 29  1  0
 29 30  1  0
 30 31  1  0
 31 32  1  1
  7  5  1  0
 31 10  1  0
 31 13  1  0
 27 15  1  0
 24 18  1  0
  1 33  1  0
  1 34  1  0
  1 35  1  0
  2 36  1  6
  3 37  1  0
  3 38  1  0
  4 39  1  0
  4 40  1  0
  5 41  1  6
  8 42  1  0
  8 43  1  0
  8 44  1  0
  9 45  1  0
  9 46  1  0
  9 47  1  0
 10 48  1  6
 11 49  1  0
 11 50  1  0
 12 51  1  0
 12 52  1  0
 14 53  1  0
 14 54  1  0
 14 55  1  0
 15 56  1  1
 16 57  1  0
 16 58  1  0
 17 59  1  0
 19 60  1  6
 20 61  1  0
 20 62  1  0
 21 63  1  0
 21 64  1  0
 22 65  1  6
 23 66  1  0
 25 67  1  0
 25 68  1  0
 25 69  1  0
 26 70  1  0
 26 71  1  0
 26 72  1  0
 28 73  1  0
 28 74  1  0
 28 75  1  0
 29 76  1  0
 29 77  1  0
 30 78  1  0
 30 79  1  0
 32 80  1  0
 32 81  1  0
 32 82  1  0
M  END
>  <meeko>  (7) 
{"is_sidechain": [false], "intermolecular_energy": 2.731, "internal_energy": -0.839}

$$$$
EPH_relaxed_0001_pdb2pqr_Repair_281_r2_0001_out
     RDKit          3D

 82 86  0  0  0  0  0  0  0  0999 V2000
    0.4360    8.8580   -2.4950 C   0  0  0  0  0  0  0  0  0  0  0  0
    1.1940   10.0120   -3.1570 C   0  0  2  0  0  0  0  0  0  0  0  0
    2.6890   10.0160   -2.7810 C   0  0  0  0  0  0  0  0  0  0  0  0
    3.5950   10.6050   -3.8660 C   0  0  0  0  0  0  0  0  0  0  0  0
    4.9860   10.8400   -3.3600 C   0  0  2  0  0  0  0  0  0  0  0  0
    5.5920   12.0570   -3.8150 O   0  0  0  0  0  0  0  0  0  0  0  0
    6.2130   10.8370   -4.2520 C   0  0  0  0  0  0  0  0  0  0  0  0
    6.1060   10.5930   -5.7250 C   0  0  0  0  0  0  0  0  0  0  0  0
    7.5500   10.5850   -3.6290 C   0  0  0  0  0  0  0  0  0  0  0  0
    0.5560   11.3420   -2.7720 C   0  0  1  0  0  0  0  0  0  0  0  0
   -0.8300   11.1660   -2.0970 C   0  0  0  0  0  0  0  0  0  0  0  0
   -0.9540   12.2850   -1.0310 C   0  0  0  0  0  0  0  0  0  0  0  0
    0.2050   13.2590   -1.3520 C   0  0  1  0  0  0  0  0  0  0  0  0
   -0.3260   14.1420   -2.5240 C   0  0  0  0  0  0  0  0  0  0  0  0
    0.7240   14.1300   -0.1620 C   0  0  2  0  0  0  0  0  0  0  0  0
   -0.3090   15.1000    0.4370 C   0  0  0  0  0  0  0  0  0  0  0  0
   -0.3390   16.4600   -0.1780 C   0  0  0  0  0  0  0  0  0  0  0  0
    0.6150   16.9800   -0.9720 C   0  0  0  0  0  0  0  0  0  0  0  0
    1.9170   16.2140   -1.2450 C   0  0  1  0  0  0  0  0  0  0  0  0
    3.1250   17.1730   -1.0810 C   0  0  0  0  0  0  0  0  0  0  0  0
    2.9970   18.4290   -1.9370 C   0  0  0  0  0  0  0  0  0  0  0  0
    1.7200   19.1930   -1.5960 C   0  0  2  0  0  0  0  0  0  0  0  0
    1.8320   19.7060   -0.2650 O   0  0  0  0  0  0  0  0  0  0  0  0
    0.4360   18.3260   -1.7160 C   0  0  0  0  0  0  0  0  0  0  0  0
    0.1510   18.0220   -3.2080 C   0  0  0  0  0  0  0  0  0  0  0  0
   -0.7620   19.1740   -1.2100 C   0  0  0  0  0  0  0  0  0  0  0  0
    2.1020   14.8550   -0.4430 C   0  0  1  0  0  0  0  0  0  0  0  0
    2.7460   15.1410    0.9480 C   0  0  0  0  0  0  0  0  0  0  0  0
    3.1150   13.9340   -1.2200 C   0  0  0  0  0  0  0  0  0  0  0  0
    2.5250   13.0090   -2.3010 C   0  0  0  0  0  0  0  0  0  0  0  0
    1.3220   12.2310   -1.7600 C   0  0  2  0  0  0  0  0  0  0  0  0
    1.8290   11.3160   -0.5940 C   0  0  0  0  0  0  0  0  0  0  0  0
    0.5007    8.9564   -1.4013 H   0  0  0  0  0  0  0  0  0  0  0  0
   -0.6193    8.8874   -2.8040 H   0  0  0  0  0  0  0  0  0  0  0  0
    0.8821    7.9012   -2.8040 H   0  0  0  0  0  0  0  0  0  0  0  0
    1.1280    9.8698   -4.2458 H   0  0  0  0  0  0  0  0  0  0  0  0
    2.8148   10.6097   -1.8635 H   0  0  0  0  0  0  0  0  0  0  0  0
    2.9894    8.9664   -2.6462 H   0  0  0  0  0  0  0  0  0  0  0  0
    3.6376    9.9050   -4.7135 H   0  0  0  0  0  0  0  0  0  0  0  0
    3.1746   11.5734   -4.1750 H   0  0  0  0  0  0  0  0  0  0  0  0
    4.7564   10.3178   -2.4195 H   0  0  0  0  0  0  0  0  0  0  0  0
    5.6699    9.5986   -5.9012 H   0  0  0  0  0  0  0  0  0  0  0  0
    5.4622   11.3612   -6.1781 H   0  0  0  0  0  0  0  0  0  0  0  0
    7.1072   10.6398   -6.1781 H   0  0  0  0  0  0  0  0  0  0  0  0
    7.4533   10.6032   -2.5334 H   0  0  0  0  0  0  0  0  0  0  0  0
    7.9234    9.6007   -3.9478 H   0  0  0  0  0  0  0  0  0  0  0  0
    8.2561   11.3659   -3.9478 H   0  0  0  0  0  0  0  0  0  0  0  0
    0.5329   11.8285   -3.7583 H   0  0  0  0  0  0  0  0  0  0  0  0
   -1.6307   11.2648   -2.8447 H   0  0  0  0  0  0  0  0  0  0  0  0
   -0.9218   10.1709   -1.6374 H   0  0  0  0  0  0  0  0  0  0  0  0
   -1.9248   12.7954   -1.1147 H   0  0  0  0  0  0  0  0  0  0  0  0
   -0.8973   11.8923   -0.0050 H   0  0  0  0  0  0  0  0  0  0  0  0
   -0.8522   15.0170   -2.1146 H   0  0  0  0  0  0  0  0  0  0  0  0
    0.5196   14.4786   -3.1418 H   0  0  0  0  0  0  0  0  0  0  0  0
   -1.0198   13.5529   -3.1418 H   0  0  0  0  0  0  0  0  0  0  0  0
    0.9119   13.3764    0.6169 H   0  0  0  0  0  0  0  0  0  0  0  0
   -1.3060   14.6510    0.3175 H   0  0  0  0  0  0  0  0  0  0  0  0
   -0.0148   15.2474    1.4866 H   0  0  0  0  0  0  0  0  0  0  0  0
   -1.2148   17.0902    0.0359 H   0  0  0  0  0  0  0  0  0  0  0  0
    1.8547   15.8677   -2.2872 H   0  0  0  0  0  0  0  0  0  0  0  0
    3.1965   17.4722   -0.0249 H   0  0  0  0  0  0  0  0  0  0  0  0
    4.0253   16.6345   -1.4119 H   0  0  0  0  0  0  0  0  0  0  0  0
    3.8653   19.0792   -1.7545 H   0  0  0  0  0  0  0  0  0  0  0  0
    2.9560   18.1306   -2.9949 H   0  0  0  0  0  0  0  0  0  0  0  0
    1.6171   20.0072   -2.3285 H   0  0  0  0  0  0  0  0  0  0  0  0
    0.9640   20.0670   -0.0150 H   0  0  0  0  0  0  0  0  0  0  0  0
   -0.5996   17.2213   -3.2822 H   0  0  0  0  0  0  0  0  0  0  0  0
   -0.2301   18.9287   -3.7006 H   0  0  0  0  0  0  0  0  0  0  0  0
    1.0804   17.7001   -3.7006 H   0  0  0  0  0  0  0  0  0  0  0  0
   -0.7690   19.1790   -0.1100 H   0  0  0  0  0  0  0  0  0  0  0  0
   -0.6640   20.2050   -1.5807 H   0  0  0  0  0  0  0  0  0  0  0  0
   -1.7018   18.7388   -1.5807 H   0  0  0  0  0  0  0  0  0  0  0  0
    2.0519   14.8328    1.7438 H   0  0  0  0  0  0  0  0  0  0  0  0
    3.6847   14.5752    1.0408 H   0  0  0  0  0  0  0  0  0  0  0  0
    2.9557   16.2168    1.0408 H   0  0  0  0  0  0  0  0  0  0  0  0
    3.8523   14.5882   -1.7083 H   0  0  0  0  0  0  0  0  0  0  0  0
    3.5310   13.2577   -0.4587 H   0  0  0  0  0  0  0  0  0  0  0  0
    2.2035   13.6177   -3.1590 H   0  0  0  0  0  0  0  0  0  0  0  0
    3.2988   12.2897   -2.6074 H   0  0  0  0  0  0  0  0  0  0  0  0
    1.5735   11.7771    0.3715 H   0  0  0  0  0  0  0  0  0  0  0  0
    1.3491   10.3289   -0.6674 H   0  0  0  0  0  0  0  0  0  0  0  0
    2.9204   11.1995   -0.6674 H   0  0  0  0  0  0  0  0  0  0  0  0
  1  2  1  0
  2  3  1  0
  3  4  1  0
  4  5  1  0
  5  6  1  0
  6  7  1  0
  7  8  1  0
  7  9  1  0
  2 10  1  0
 10 11  1  0
 11 12  1  0
 12 13  1  0
 13 14  1  6
 13 15  1  0
 15 16  1  0
 16 17  1  0
 17 18  2  0
 18 19  1  0
 19 20  1  0
 20 21  1  0
 21 22  1  0
 22 23  1  0
 22 24  1  0
 24 25  1  0
 24 26  1  0
 19 27  1  0
 27 28  1  1
 27 29  1  0
 29 30  1  0
 30 31  1  0
 31 32  1  1
  7  5  1  0
 31 10  1  0
 31 13  1  0
 27 15  1  0
 24 18  1  0
  1 33  1  0
  1 34  1  0
  1 35  1  0
  2 36  1  6
  3 37  1  0
  3 38  1  0
  4 39  1  0
  4 40  1  0
  5 41  1  1
  8 42  1  0
  8 43  1  0
  8 44  1  0
  9 45  1  0
  9 46  1  0
  9 47  1  0
 10 48  1  6
 11 49  1  0
 11 50  1  0
 12 51  1  0
 12 52  1  0
 14 53  1  0
 14 54  1  0
 14 55  1  0
 15 56  1  1
 16 57  1  0
 16 58  1  0
 17 59  1  0
 19 60  1  6
 20 61  1  0
 20 62  1  0
 21 63  1  0
 21 64  1  0
 22 65  1  6
 23 66  1  0
 25 67  1  0
 25 68  1  0
 25 69  1  0
 26 70  1  0
 26 71  1  0
 26 72  1  0
 28 73  1  0
 28 74  1  0
 28 75  1  0
 29 76  1  0
 29 77  1  0
 30 78  1  0
 30 79  1  0
 32 80  1  0
 32 81  1  0
 32 82  1  0
M  END
>  <meeko>  (8) 
{"is_sidechain": [false], "intermolecular_energy": 2.731, "internal_energy": -0.839}

$$$$
EPH_relaxed_0001_pdb2pqr_Repair_281_r2_0001_out
     RDKit          3D

 82 86  0  0  0  0  0  0  0  0999 V2000
   -0.5510   18.7520   -2.7100 C   0  0  0  0  0  0  0  0  0  0  0  0
    0.5190   18.3650   -1.6840 C   0  0  2  0  0  0  0  0  0  0  0  0
    1.7150   19.3370   -1.6970 C   0  0  0  0  0  0  0  0  0  0  0  0
    1.8300   20.1880   -0.4290 C   0  0  0  0  0  0  0  0  0  0  0  0
    3.1190   19.9340    0.2930 C   0  0  2  0  0  0  0  0  0  0  0  0
    3.1530   18.7160    1.0470 O   0  0  0  0  0  0  0  0  0  0  0  0
    3.2450   19.9340    1.8050 C   0  0  0  0  0  0  0  0  0  0  0  0
    2.0640   20.1920    2.6860 C   0  0  0  0  0  0  0  0  0  0  0  0
    4.5940   20.1670    2.4110 C   0  0  0  0  0  0  0  0  0  0  0  0
    1.0010   16.9430   -1.9480 C   0  0  1  0  0  0  0  0  0  0  0  0
    2.5240   16.8730   -2.2380 C   0  0  0  0  0  0  0  0  0  0  0  0
    3.0340   15.5410   -1.6290 C   0  0  0  0  0  0  0  0  0  0  0  0
    1.7490   14.7420   -1.3070 C   0  0  1  0  0  0  0  0  0  0  0  0
    1.3230   14.1030   -2.6660 C   0  0  0  0  0  0  0  0  0  0  0  0
    1.8680   13.6680   -0.1770 C   0  0  2  0  0  0  0  0  0  0  0  0
    2.8550   12.5230   -0.4660 C   0  0  0  0  0  0  0  0  0  0  0  0
    2.2670   11.3330   -1.1480 C   0  0  0  0  0  0  0  0  0  0  0  0
    0.9530   11.0640   -1.2600 C   0  0  0  0  0  0  0  0  0  0  0  0
   -0.0940   11.9570   -0.5810 C   0  0  1  0  0  0  0  0  0  0  0  0
   -1.1330   11.0700    0.1530 C   0  0  0  0  0  0  0  0  0  0  0  0
   -1.7630   10.0260   -0.7650 C   0  0  0  0  0  0  0  0  0  0  0  0
   -0.6960    9.1210   -1.3750 C   0  0  2  0  0  0  0  0  0  0  0  0
   -0.1050    8.3380   -0.3340 O   0  0  0  0  0  0  0  0  0  0  0  0
    0.4120    9.9050   -2.1330 C   0  0  0  0  0  0  0  0  0  0  0  0
   -0.1750   10.5090   -3.4330 C   0  0  0  0  0  0  0  0  0  0  0  0
    1.4970    8.8880   -2.5770 C   0  0  0  0  0  0  0  0  0  0  0  0
    0.4790   13.1170    0.3420 C   0  0  1  0  0  0  0  0  0  0  0  0
    0.7250   12.5770    1.7840 C   0  0  0  0  0  0  0  0  0  0  0  0
   -0.6040   14.2520    0.4730 C   0  0  0  0  0  0  0  0  0  0  0  0
   -0.5940   15.3500   -0.6090 C   0  0  0  0  0  0  0  0  0  0  0  0
    0.8180   15.9070   -0.8110 C   0  0  2  0  0  0  0  0  0  0  0  0
    1.2650   16.5760    0.5340 C   0  0  0  0  0  0  0  0  0  0  0  0
   -1.4602   19.0808   -2.1853 H   0  0  0  0  0  0  0  0  0  0  0  0
   -0.1750   19.5711   -3.3406 H   0  0  0  0  0  0  0  0  0  0  0  0
   -0.7860   17.8819   -3.3406 H   0  0  0  0  0  0  0  0  0  0  0  0
    0.0578   18.4230   -0.6870 H   0  0  0  0  0  0  0  0  0  0  0  0
    2.6387   18.7497   -1.8061 H   0  0  0  0  0  0  0  0  0  0  0  0
    1.5570   20.0302   -2.5363 H   0  0  0  0  0  0  0  0  0  0  0  0
    1.7805   21.2511   -0.7072 H   0  0  0  0  0  0  0  0  0  0  0  0
    1.0015   19.9177    0.2422 H   0  0  0  0  0  0  0  0  0  0  0  0
    3.6887   20.4489   -0.4946 H   0  0  0  0  0  0  0  0  0  0  0  0
    2.3713   20.1249    3.7401 H   0  0  0  0  0  0  0  0  0  0  0  0
    1.6678   21.1979    2.4829 H   0  0  0  0  0  0  0  0  0  0  0  0
    1.2844   19.4430    2.4829 H   0  0  0  0  0  0  0  0  0  0  0  0
    4.5107   20.1526    3.5077 H   0  0  0  0  0  0  0  0  0  0  0  0
    5.2841   19.3747    2.0853 H   0  0  0  0  0  0  0  0  0  0  0  0
    4.9784   21.1448    2.0853 H   0  0  0  0  0  0  0  0  0  0  0  0
    0.3544   16.6843   -2.7994 H   0  0  0  0  0  0  0  0  0  0  0  0
    2.7041   16.8870   -3.3231 H   0  0  0  0  0  0  0  0  0  0  0  0
    3.0497   17.7345   -1.8004 H   0  0  0  0  0  0  0  0  0  0  0  0
    3.6584   14.9969   -2.3529 H   0  0  0  0  0  0  0  0  0  0  0  0
    3.6594   15.7018   -0.7385 H   0  0  0  0  0  0  0  0  0  0  0  0
    0.7221   13.2016   -2.4750 H   0  0  0  0  0  0  0  0  0  0  0  0
    0.7261   14.8267   -3.2403 H   0  0  0  0  0  0  0  0  0  0  0  0
    2.2207   13.8303   -3.2403 H   0  0  0  0  0  0  0  0  0  0  0  0
    2.3118   14.2430    0.6491 H   0  0  0  0  0  0  0  0  0  0  0  0
    3.6578   12.9192   -1.1052 H   0  0  0  0  0  0  0  0  0  0  0  0
    3.2072   12.1694    0.5143 H   0  0  0  0  0  0  0  0  0  0  0  0
    2.9676   10.6140   -1.5977 H   0  0  0  0  0  0  0  0  0  0  0  0
   -0.5868   12.5174   -1.3892 H   0  0  0  0  0  0  0  0  0  0  0  0
   -0.6308   10.5523    0.9835 H   0  0  0  0  0  0  0  0  0  0  0  0
   -1.9380   11.7272    0.5136 H   0  0  0  0  0  0  0  0  0  0  0  0
   -2.4659    9.4120   -0.1828 H   0  0  0  0  0  0  0  0  0  0  0  0
   -2.2894   10.5461   -1.5789 H   0  0  0  0  0  0  0  0  0  0  0  0
   -1.1926    8.4813   -2.1194 H   0  0  0  0  0  0  0  0  0  0  0  0
    0.8590    8.3680   -0.4550 H   0  0  0  0  0  0  0  0  0  0  0  0
   -0.9206   11.2761   -3.1768 H   0  0  0  0  0  0  0  0  0  0  0  0
    0.6334   10.9658   -4.0227 H   0  0  0  0  0  0  0  0  0  0  0  0
   -0.6547    9.7139   -4.0227 H   0  0  0  0  0  0  0  0  0  0  0  0
    1.9698    8.4448   -1.6882 H   0  0  0  0  0  0  0  0  0  0  0  0
    1.0309    8.0939   -3.1788 H   0  0  0  0  0  0  0  0  0  0  0  0
    2.2593    9.4045   -3.1788 H   0  0  0  0  0  0  0  0  0  0  0  0
    0.3853   13.3228    2.5177 H   0  0  0  0  0  0  0  0  0  0  0  0
    0.1643   11.6413    1.9258 H   0  0  0  0  0  0  0  0  0  0  0  0
    1.7990   12.3860    1.9258 H   0  0  0  0  0  0  0  0  0  0  0  0
   -1.5935   13.7720    0.4510 H   0  0  0  0  0  0  0  0  0  0  0  0
   -0.3646   14.7714    1.4126 H   0  0  0  0  0  0  0  0  0  0  0  0
   -0.9519   14.9236   -1.5578 H   0  0  0  0  0  0  0  0  0  0  0  0
   -1.2513   16.1697   -0.2833 H   0  0  0  0  0  0  0  0  0  0  0  0
    0.8751   15.9925    1.3811 H   0  0  0  0  0  0  0  0  0  0  0  0
    2.3636   16.6035    0.5825 H   0  0  0  0  0  0  0  0  0  0  0  0
    0.8700   17.6015    0.5825 H   0  0  0  0  0  0  0  0  0  0  0  0
  1  2  1  0
  2  3  1  0
  3  4  1  0
  4  5  1  0
  5  6  1  0
  6  7  1  0
  7  8  1  0
  7  9  1  0
  2 10  1  0
 10 11  1  0
 11 12  1  0
 12 13  1  0
 13 14  1  6
 13 15  1  0
 15 16  1  0
 16 17  1  0
 17 18  2  0
 18 19  1  0
 19 20  1  0
 20 21  1  0
 21 22  1  0
 22 23  1  0
 22 24  1  0
 24 25  1  0
 24 26  1  0
 19 27  1  0
 27 28  1  1
 27 29  1  0
 29 30  1  0
 30 31  1  0
 31 32  1  1
  7  5  1  0
 31 10  1  0
 31 13  1  0
 27 15  1  0
 24 18  1  0
  1 33  1  0
  1 34  1  0
  1 35  1  0
  2 36  1  1
  3 37  1  0
  3 38  1  0
  4 39  1  0
  4 40  1  0
  5 41  1  6
  8 42  1  0
  8 43  1  0
  8 44  1  0
  9 45  1  0
  9 46  1  0
  9 47  1  0
 10 48  1  6
 11 49  1  0
 11 50  1  0
 12 51  1  0
 12 52  1  0
 14 53  1  0
 14 54  1  0
 14 55  1  0
 15 56  1  1
 16 57  1  0
 16 58  1  0
 17 59  1  0
 19 60  1  6
 20 61  1  0
 20 62  1  0
 21 63  1  0
 21 64  1  0
 22 65  1  6
 23 66  1  0
 25 67  1  0
 25 68  1  0
 25 69  1  0
 26 70  1  0
 26 71  1  0
 26 72  1  0
 28 73  1  0
 28 74  1  0
 28 75  1  0
 29 76  1  0
 29 77  1  0
 30 78  1  0
 30 79  1  0
 32 80  1  0
 32 81  1  0
 32 82  1  0
M  END
>  <meeko>  (9) 
{"is_sidechain": [false], "intermolecular_energy": 2.731, "internal_energy": -0.839}

$$$$
EPH_relaxed_0001_pdb2pqr_Repair_281_r2_0001_out
     RDKit          3D

 82 86  0  0  0  0  0  0  0  0999 V2000
   -3.7330    7.1870   -3.3790 C   0  0  0  0  0  0  0  0  0  0  0  0
   -3.7400    7.2750   -1.8500 C   0  0  2  0  0  0  0  0  0  0  0  0
   -5.1510    7.0690   -1.2630 C   0  0  0  0  0  0  0  0  0  0  0  0
   -6.2620    7.0700   -2.3170 C   0  0  0  0  0  0  0  0  0  0  0  0
   -7.5950    7.4000   -1.7160 C   0  0  2  0  0  0  0  0  0  0  0  0
   -8.2630    6.2930   -1.0970 O   0  0  0  0  0  0  0  0  0  0  0  0
   -8.9090    6.8590   -2.2480 C   0  0  0  0  0  0  0  0  0  0  0  0
   -8.9550    5.9440   -3.4320 C   0  0  0  0  0  0  0  0  0  0  0  0
  -10.1700    7.6010   -1.9290 C   0  0  0  0  0  0  0  0  0  0  0  0
   -3.1820    8.6210   -1.4040 C   0  0  1  0  0  0  0  0  0  0  0  0
   -3.8110    9.1180   -0.0750 C   0  0  0  0  0  0  0  0  0  0  0  0
   -2.6940    9.8690    0.6950 C   0  0  0  0  0  0  0  0  0  0  0  0
   -1.5690   10.0690   -0.3470 C   0  0  1  0  0  0  0  0  0  0  0  0
   -2.0080   11.3140   -1.1790 C   0  0  0  0  0  0  0  0  0  0  0  0
   -0.1220   10.2350    0.2220 C   0  0  2  0  0  0  0  0  0  0  0  0
    0.0900   11.4710    1.1150 C   0  0  0  0  0  0  0  0  0  0  0  0
    0.5310   12.7050    0.4000 C   0  0  0  0  0  0  0  0  0  0  0  0
    1.0210   12.7510   -0.8520 C   0  0  0  0  0  0  0  0  0  0  0  0
    1.2660   11.4640   -1.6500 C   0  0  1  0  0  0  0  0  0  0  0  0
    2.6660   11.5250   -2.3150 C   0  0  0  0  0  0  0  0  0  0  0  0
    2.8590   12.7810   -3.1590 C   0  0  0  0  0  0  0  0  0  0  0  0
    2.6650   14.0390   -2.3170 C   0  0  2  0  0  0  0  0  0  0  0  0
    3.7210   14.1170   -1.3550 O   0  0  0  0  0  0  0  0  0  0  0  0
    1.2920   14.0850   -1.5910 C   0  0  0  0  0  0  0  0  0  0  0  0
    0.1620   14.3050   -2.6270 C   0  0  0  0  0  0  0  0  0  0  0  0
    1.2820   15.3330   -0.6670 C   0  0  0  0  0  0  0  0  0  0  0  0
    1.0210   10.1040   -0.8650 C   0  0  1  0  0  0  0  0  0  0  0  0
    2.3160    9.6910   -0.1010 C   0  0  0  0  0  0  0  0  0  0  0  0
    0.7310    8.9560   -1.9020 C   0  0  0  0  0  0  0  0  0  0  0  0
   -0.7350    8.7640   -2.3350 C   0  0  0  0  0  0  0  0  0  0  0  0
   -1.6620    8.7010   -1.1170 C   0  0  2  0  0  0  0  0  0  0  0  0
   -1.2580    7.4450   -0.2730 C   0  0  0  0  0  0  0  0  0  0  0  0
   -3.6492    6.1338   -3.6853 H   0  0  0  0  0  0  0  0  0  0  0  0
   -4.6677    7.6108   -3.7749 H   0  0  0  0  0  0  0  0  0  0  0  0
   -2.8771    7.7532   -3.7749 H   0  0  0  0  0  0  0  0  0  0  0  0
   -3.1022    6.4637   -1.4691 H   0  0  0  0  0  0  0  0  0  0  0  0
   -5.1711    6.1026   -0.7380 H   0  0  0  0  0  0  0  0  0  0  0  0
   -5.3460    7.9165   -0.5894 H   0  0  0  0  0  0  0  0  0  0  0  0
   -6.0227    7.8185   -3.0867 H   0  0  0  0  0  0  0  0  0  0  0  0
   -6.3222    6.0620   -2.7532 H   0  0  0  0  0  0  0  0  0  0  0  0
   -7.2604    8.4196   -1.4743 H   0  0  0  0  0  0  0  0  0  0  0  0
   -9.0074    4.9007   -3.0873 H   0  0  0  0  0  0  0  0  0  0  0  0
   -9.8427    6.1746   -4.0393 H   0  0  0  0  0  0  0  0  0  0  0  0
   -8.0487    6.0844   -4.0393 H   0  0  0  0  0  0  0  0  0  0  0  0
  -10.2884    7.6706   -0.8376 H   0  0  0  0  0  0  0  0  0  0  0  0
  -10.1185    8.6128   -2.3575 H   0  0  0  0  0  0  0  0  0  0  0  0
  -11.0295    7.0646   -2.3575 H   0  0  0  0  0  0  0  0  0  0  0  0
   -3.4300    9.2254   -2.2890 H   0  0  0  0  0  0  0  0  0  0  0  0
   -4.6500    9.7980   -0.2840 H   0  0  0  0  0  0  0  0  0  0  0  0
   -4.2013    8.2766    0.5163 H   0  0  0  0  0  0  0  0  0  0  0  0
   -3.0602   10.8391    1.0622 H   0  0  0  0  0  0  0  0  0  0  0  0
   -2.3498    9.3122    1.5790 H   0  0  0  0  0  0  0  0  0  0  0  0
   -2.2950   12.1280   -0.4971 H   0  0  0  0  0  0  0  0  0  0  0  0
   -1.1722   11.6445   -1.8132 H   0  0  0  0  0  0  0  0  0  0  0  0
   -2.8662   11.0471   -1.8132 H   0  0  0  0  0  0  0  0  0  0  0  0
   -0.0292    9.3651    0.8888 H   0  0  0  0  0  0  0  0  0  0  0  0
   -0.8615   11.6926    1.6205 H   0  0  0  0  0  0  0  0  0  0  0  0
    0.9054   11.2114    1.8061 H   0  0  0  0  0  0  0  0  0  0  0  0
    0.4482   13.6579    0.9432 H   0  0  0  0  0  0  0  0  0  0  0  0
    0.4863   11.4341   -2.4253 H   0  0  0  0  0  0  0  0  0  0  0  0
    3.4321   11.5094   -1.5258 H   0  0  0  0  0  0  0  0  0  0  0  0
    2.7558   10.6564   -2.9839 H   0  0  0  0  0  0  0  0  0  0  0  0
    3.8765   12.7810   -3.5771 H   0  0  0  0  0  0  0  0  0  0  0  0
    2.1116   12.7800   -3.9661 H   0  0  0  0  0  0  0  0  0  0  0  0
    2.6864   14.9002   -3.0011 H   0  0  0  0  0  0  0  0  0  0  0  0
    3.9100   13.2130   -1.0510 H   0  0  0  0  0  0  0  0  0  0  0  0
   -0.7865   14.4897   -2.1014 H   0  0  0  0  0  0  0  0  0  0  0  0
    0.4066   15.1724   -3.2577 H   0  0  0  0  0  0  0  0  0  0  0  0
    0.0633   13.4092   -3.2577 H   0  0  0  0  0  0  0  0  0  0  0  0
    1.2846   15.0106    0.3847 H   0  0  0  0  0  0  0  0  0  0  0  0
    2.1753   15.9434   -0.8656 H   0  0  0  0  0  0  0  0  0  0  0  0
    0.3791   15.9290   -0.8656 H   0  0  0  0  0  0  0  0  0  0  0  0
    2.1364    9.7483    0.9827 H   0  0  0  0  0  0  0  0  0  0  0  0
    2.5897    8.6610   -0.3734 H   0  0  0  0  0  0  0  0  0  0  0  0
    3.1355   10.3724   -0.3734 H   0  0  0  0  0  0  0  0  0  0  0  0
    1.3199    9.1682   -2.8065 H   0  0  0  0  0  0  0  0  0  0  0  0
    1.0018    8.0247   -1.3830 H   0  0  0  0  0  0  0  0  0  0  0  0
   -1.0355    9.6084   -2.9728 H   0  0  0  0  0  0  0  0  0  0  0  0
   -0.8166    7.8164   -2.8876 H   0  0  0  0  0  0  0  0  0  0  0  0
   -1.3345    7.6830    0.7982 H   0  0  0  0  0  0  0  0  0  0  0  0
   -1.9329    6.6099   -0.5122 H   0  0  0  0  0  0  0  0  0  0  0  0
   -0.2229    7.1600   -0.5122 H   0  0  0  0  0  0  0  0  0  0  0  0
  1  2  1  0
  2  3  1  0
  3  4  1  0
  4  5  1  0
  5  6  1  0
  6  7  1  0
  7  8  1  0
  7  9  1  0
  2 10  1  0
 10 11  1  0
 11 12  1  0
 12 13  1  0
 13 14  1  6
 13 15  1  0
 15 16  1  0
 16 17  1  0
 17 18  2  0
 18 19  1  0
 19 20  1  0
 20 21  1  0
 21 22  1  0
 22 23  1  0
 22 24  1  0
 24 25  1  0
 24 26  1  0
 19 27  1  0
 27 28  1  1
 27 29  1  0
 29 30  1  0
 30 31  1  0
 31 32  1  1
  7  5  1  0
 31 10  1  0
 31 13  1  0
 27 15  1  0
 24 18  1  0
  1 33  1  0
  1 34  1  0
  1 35  1  0
  2 36  1  1
  3 37  1  0
  3 38  1  0
  4 39  1  0
  4 40  1  0
  5 41  1  1
  8 42  1  0
  8 43  1  0
  8 44  1  0
  9 45  1  0
  9 46  1  0
  9 47  1  0
 10 48  1  6
 11 49  1  0
 11 50  1  0
 12 51  1  0
 12 52  1  0
 14 53  1  0
 14 54  1  0
 14 55  1  0
 15 56  1  1
 16 57  1  0
 16 58  1  0
 17 59  1  0
 19 60  1  6
 20 61  1  0
 20 62  1  0
 21 63  1  0
 21 64  1  0
 22 65  1  6
 23 66  1  0
 25 67  1  0
 25 68  1  0
 25 69  1  0
 26 70  1  0
 26 71  1  0
 26 72  1  0
 28 73  1  0
 28 74  1  0
 28 75  1  0
 29 76  1  0
 29 77  1  0
 30 78  1  0
 30 79  1  0
 32 80  1  0
 32 81  1  0
 32 82  1  0
M  END
>  <meeko>  (10) 
{"is_sidechain": [false], "intermolecular_energy": 2.731, "internal_energy": -0.839}

$$$$
EPH_relaxed_0001_pdb2pqr_Repair_281_r2_0001_out
     RDKit          3D

 82 86  0  0  0  0  0  0  0  0999 V2000
   -0.8590   16.3340   -5.8500 C   0  0  0  0  0  0  0  0  0  0  0  0
    0.2380   15.6390   -6.6610 C   0  0  2  0  0  0  0  0  0  0  0  0
   -0.1580   15.4590   -8.1400 C   0  0  0  0  0  0  0  0  0  0  0  0
    0.4760   16.4910   -9.0760 C   0  0  0  0  0  0  0  0  0  0  0  0
    1.8760   16.1120   -9.4520 C   0  0  2  0  0  0  0  0  0  0  0  0
    2.3360   16.6690  -10.6910 O   0  0  0  0  0  0  0  0  0  0  0  0
    2.2150   15.2380  -10.6460 C   0  0  0  0  0  0  0  0  0  0  0  0
    1.1470   14.6890  -11.5390 C   0  0  0  0  0  0  0  0  0  0  0  0
    3.5290   14.5220  -10.6580 C   0  0  0  0  0  0  0  0  0  0  0  0
    0.5640   14.2850   -6.0410 C   0  0  1  0  0  0  0  0  0  0  0  0
    1.8360   13.6380   -6.6510 C   0  0  0  0  0  0  0  0  0  0  0  0
    2.5430   12.8730   -5.5030 C   0  0  0  0  0  0  0  0  0  0  0  0
    1.4970   12.8240   -4.3640 C   0  0  1  0  0  0  0  0  0  0  0  0
    0.5510   11.6410   -4.7400 C   0  0  0  0  0  0  0  0  0  0  0  0
    2.0610   12.6740   -2.9140 C   0  0  2  0  0  0  0  0  0  0  0  0
    2.8380   11.3730   -2.6470 C   0  0  0  0  0  0  0  0  0  0  0  0
    2.0180   10.2310   -2.1450 C   0  0  0  0  0  0  0  0  0  0  0  0
    0.7700   10.3240   -1.6470 C   0  0  0  0  0  0  0  0  0  0  0  0
    0.0960   11.6900   -1.4610 C   0  0  1  0  0  0  0  0  0  0  0  0
   -0.5590   11.7570   -0.0560 C   0  0  0  0  0  0  0  0  0  0  0  0
   -1.5130   10.5950    0.2000 C   0  0  0  0  0  0  0  0  0  0  0  0
   -0.7920    9.2560    0.0630 C   0  0  2  0  0  0  0  0  0  0  0  0
    0.1680    9.1400    1.1180 O   0  0  0  0  0  0  0  0  0  0  0  0
   -0.0860    9.0790   -1.3100 C   0  0  0  0  0  0  0  0  0  0  0  0
   -1.1480    8.9030   -2.4230 C   0  0  0  0  0  0  0  0  0  0  0  0
    0.7200    7.7520   -1.2640 C   0  0  0  0  0  0  0  0  0  0  0  0
    1.0010   12.9580   -1.7740 C   0  0  1  0  0  0  0  0  0  0  0  0
    1.8110   13.3600   -0.5030 C   0  0  0  0  0  0  0  0  0  0  0  0
    0.0710   14.1820   -2.1130 C   0  0  0  0  0  0  0  0  0  0  0  0
   -0.3550   14.3440   -3.5850 C   0  0  0  0  0  0  0  0  0  0  0  0
    0.8550   14.2500   -4.5190 C   0  0  2  0  0  0  0  0  0  0  0  0
    1.8150   15.4420   -4.1800 C   0  0  0  0  0  0  0  0  0  0  0  0
   -0.6577   16.2064   -4.7761 H   0  0  0  0  0  0  0  0  0  0  0  0
   -0.8731   17.4061   -6.0956 H   0  0  0  0  0  0  0  0  0  0  0  0
   -1.8344   15.8887   -6.0956 H   0  0  0  0  0  0  0  0  0  0  0  0
    1.1281   16.2847   -6.6341 H   0  0  0  0  0  0  0  0  0  0  0  0
    0.1568   14.4561   -8.4644 H   0  0  0  0  0  0  0  0  0  0  0  0
   -1.2477   15.5964   -8.2004 H   0  0  0  0  0  0  0  0  0  0  0  0
   -0.1314   16.5637   -9.9902 H   0  0  0  0  0  0  0  0  0  0  0  0
    0.5118   17.4557   -8.5488 H   0  0  0  0  0  0  0  0  0  0  0  0
    2.1712   16.0624   -8.3935 H   0  0  0  0  0  0  0  0  0  0  0  0
    0.3349   14.2716  -10.9256 H   0  0  0  0  0  0  0  0  0  0  0  0
    0.7499   15.4947  -12.1739 H   0  0  0  0  0  0  0  0  0  0  0  0
    1.5711   13.8972  -12.1739 H   0  0  0  0  0  0  0  0  0  0  0  0
    3.8583   14.3426   -9.6239 H   0  0  0  0  0  0  0  0  0  0  0  0
    3.4176   13.5599  -11.1795 H   0  0  0  0  0  0  0  0  0  0  0  0
    4.2771   15.1372  -11.1795 H   0  0  0  0  0  0  0  0  0  0  0  0
   -0.3749   13.7540   -6.2566 H   0  0  0  0  0  0  0  0  0  0  0  0
    1.5580   12.9413   -7.4556 H   0  0  0  0  0  0  0  0  0  0  0  0
    2.4989   14.4018   -7.0837 H   0  0  0  0  0  0  0  0  0  0  0  0
    2.8156   11.8567   -5.8238 H   0  0  0  0  0  0  0  0  0  0  0  0
    3.4777   13.3613   -5.1901 H   0  0  0  0  0  0  0  0  0  0  0  0
    0.1727   11.1679   -3.8218 H   0  0  0  0  0  0  0  0  0  0  0  0
   -0.2947   12.0216   -5.3316 H   0  0  0  0  0  0  0  0  0  0  0  0
    1.1082   10.8997   -5.3316 H   0  0  0  0  0  0  0  0  0  0  0  0
    2.8060   13.4818   -2.8662 H   0  0  0  0  0  0  0  0  0  0  0  0
    3.3133   11.0618   -3.5889 H   0  0  0  0  0  0  0  0  0  0  0  0
    3.5558   11.6065   -1.8469 H   0  0  0  0  0  0  0  0  0  0  0  0
    2.4711    9.2294   -2.1852 H   0  0  0  0  0  0  0  0  0  0  0  0
   -0.6800   11.7548   -2.2379 H   0  0  0  0  0  0  0  0  0  0  0  0
    0.2352   11.7355    0.7048 H   0  0  0  0  0  0  0  0  0  0  0  0
   -1.1439   12.6871   -0.0041 H   0  0  0  0  0  0  0  0  0  0  0  0
   -1.9208   10.6817    1.2179 H   0  0  0  0  0  0  0  0  0  0  0  0
   -2.3226   10.6353   -0.5436 H   0  0  0  0  0  0  0  0  0  0  0  0
   -1.5514    8.4629    0.1288 H   0  0  0  0  0  0  0  0  0  0  0  0
    1.0290    9.4180    0.7630 H   0  0  0  0  0  0  0  0  0  0  0  0
   -2.1349    8.7394   -1.9656 H   0  0  0  0  0  0  0  0  0  0  0  0
   -1.1786    9.8083   -3.0471 H   0  0  0  0  0  0  0  0  0  0  0  0
   -0.8849    8.0362   -3.0471 H   0  0  0  0  0  0  0  0  0  0  0  0
    0.8943    7.4650   -0.2165 H   0  0  0  0  0  0  0  0  0  0  0  0
    0.1506    6.9594   -1.7715 H   0  0  0  0  0  0  0  0  0  0  0  0
    1.6859    7.8919   -1.7715 H   0  0  0  0  0  0  0  0  0  0  0  0
    1.2445   13.0788    0.3970 H   0  0  0  0  0  0  0  0  0  0  0  0
    2.7792   12.8378   -0.5048 H   0  0  0  0  0  0  0  0  0  0  0  0
    1.9806   14.4468   -0.5048 H   0  0  0  0  0  0  0  0  0  0  0  0
   -0.8441   14.0815   -1.5108 H   0  0  0  0  0  0  0  0  0  0  0  0
    0.6750   15.0734   -1.8883 H   0  0  0  0  0  0  0  0  0  0  0  0
   -1.0707   13.5492   -3.8421 H   0  0  0  0  0  0  0  0  0  0  0  0
   -0.8181   15.3340   -3.7093 H   0  0  0  0  0  0  0  0  0  0  0  0
    1.8989   15.5461   -3.0882 H   0  0  0  0  0  0  0  0  0  0  0  0
    2.8094   15.2448   -4.6070 H   0  0  0  0  0  0  0  0  0  0  0  0
    1.4104   16.3715   -4.6070 H   0  0  0  0  0  0  0  0  0  0  0  0
  1  2  1  0
  2  3  1  0
  3  4  1  0
  4  5  1  0
  5  6  1  0
  6  7  1  0
  7  8  1  0
  7  9  1  0
  2 10  1  0
 10 11  1  0
 11 12  1  0
 12 13  1  0
 13 14  1  6
 13 15  1  0
 15 16  1  0
 16 17  1  0
 17 18  2  0
 18 19  1  0
 19 20  1  0
 20 21  1  0
 21 22  1  0
 22 23  1  0
 22 24  1  0
 24 25  1  0
 24 26  1  0
 19 27  1  0
 27 28  1  1
 27 29  1  0
 29 30  1  0
 30 31  1  0
 31 32  1  1
  7  5  1  0
 31 10  1  0
 31 13  1  0
 27 15  1  0
 24 18  1  0
  1 33  1  0
  1 34  1  0
  1 35  1  0
  2 36  1  6
  3 37  1  0
  3 38  1  0
  4 39  1  0
  4 40  1  0
  5 41  1  1
  8 42  1  0
  8 43  1  0
  8 44  1  0
  9 45  1  0
  9 46  1  0
  9 47  1  0
 10 48  1  1
 11 49  1  0
 11 50  1  0
 12 51  1  0
 12 52  1  0
 14 53  1  0
 14 54  1  0
 14 55  1  0
 15 56  1  6
 16 57  1  0
 16 58  1  0
 17 59  1  0
 19 60  1  6
 20 61  1  0
 20 62  1  0
 21 63  1  0
 21 64  1  0
 22 65  1  1
 23 66  1  0
 25 67  1  0
 25 68  1  0
 25 69  1  0
 26 70  1  0
 26 71  1  0
 26 72  1  0
 28 73  1  0
 28 74  1  0
 28 75  1  0
 29 76  1  0
 29 77  1  0
 30 78  1  0
 30 79  1  0
 32 80  1  0
 32 81  1  0
 32 82  1  0
M  END
>  <meeko>  (11) 
{"is_sidechain": [false], "intermolecular_energy": 2.731, "internal_energy": -0.839}

$$$$
EPH_relaxed_0001_pdb2pqr_Repair_281_r2_0001_out
     RDKit          3D

 82 86  0  0  0  0  0  0  0  0999 V2000
    2.8370   18.8680   -1.3410 C   0  0  0  0  0  0  0  0  0  0  0  0
    2.5200   17.7900   -2.3810 C   0  0  2  0  0  0  0  0  0  0  0  0
    1.1090   17.9580   -2.9800 C   0  0  0  0  0  0  0  0  0  0  0  0
    0.4200   19.2640   -2.5760 C   0  0  0  0  0  0  0  0  0  0  0  0
   -0.8350   19.0110   -1.7980 C   0  0  2  0  0  0  0  0  0  0  0  0
   -1.5380   20.1940   -1.3940 O   0  0  0  0  0  0  0  0  0  0  0  0
   -1.0030   19.3830   -0.3360 C   0  0  0  0  0  0  0  0  0  0  0  0
    0.1000   20.0380    0.4340 C   0  0  0  0  0  0  0  0  0  0  0  0
   -2.0480   18.6730    0.4670 C   0  0  0  0  0  0  0  0  0  0  0  0
    2.6600   16.4070   -1.7560 C   0  0  1  0  0  0  0  0  0  0  0  0
    3.3080   16.4510   -0.3470 C   0  0  0  0  0  0  0  0  0  0  0  0
    2.6370   15.3310    0.4890 C   0  0  0  0  0  0  0  0  0  0  0  0
    1.8760   14.4730   -0.5480 C   0  0  1  0  0  0  0  0  0  0  0  0
    2.9600   13.5360   -1.1670 C   0  0  0  0  0  0  0  0  0  0  0  0
    0.6520   13.6630   -0.0100 C   0  0  2  0  0  0  0  0  0  0  0  0
    0.9870   12.6010    1.0510 C   0  0  0  0  0  0  0  0  0  0  0  0
    1.2950   11.2410    0.5170 C   0  0  0  0  0  0  0  0  0  0  0  0
    1.0280   10.8110   -0.7300 C   0  0  0  0  0  0  0  0  0  0  0  0
    0.2630   11.6980   -1.7210 C   0  0  1  0  0  0  0  0  0  0  0  0
   -0.8440   10.8620   -2.4160 C   0  0  0  0  0  0  0  0  0  0  0  0
   -0.2980    9.5950   -3.0670 C   0  0  0  0  0  0  0  0  0  0  0  0
    0.4040    8.7120   -2.0390 C   0  0  2  0  0  0  0  0  0  0  0  0
   -0.5690    8.2200   -1.1120 O   0  0  0  0  0  0  0  0  0  0  0  0
    1.5340    9.4500   -1.2680 C   0  0  0  0  0  0  0  0  0  0  0  0
    2.7260    9.7170   -2.2200 C   0  0  0  0  0  0  0  0  0  0  0  0
    2.0640    8.4930   -0.1660 C   0  0  0  0  0  0  0  0  0  0  0  0
   -0.2840   13.0730   -1.1420 C   0  0  1  0  0  0  0  0  0  0  0  0
   -1.6860   12.8580   -0.4950 C   0  0  0  0  0  0  0  0  0  0  0  0
   -0.4940   14.0840   -2.3310 C   0  0  0  0  0  0  0  0  0  0  0  0
    0.7200   14.9410   -2.7380 C   0  0  0  0  0  0  0  0  0  0  0  0
    1.3590   15.6020   -1.5120 C   0  0  2  0  0  0  0  0  0  0  0  0
    0.2990   16.5680   -0.8820 C   0  0  0  0  0  0  0  0  0  0  0  0
    2.7142   18.4503   -0.3308 H   0  0  0  0  0  0  0  0  0  0  0  0
    3.8739   19.2107   -1.4725 H   0  0  0  0  0  0  0  0  0  0  0  0
    2.1506   19.7175   -1.4725 H   0  0  0  0  0  0  0  0  0  0  0  0
    3.2426   17.9007   -3.2030 H   0  0  0  0  0  0  0  0  0  0  0  0
    1.1922   17.9342   -4.0766 H   0  0  0  0  0  0  0  0  0  0  0  0
    0.4933   17.1352   -2.5876 H   0  0  0  0  0  0  0  0  0  0  0  0
    1.1107   19.8545   -1.9561 H   0  0  0  0  0  0  0  0  0  0  0  0
    0.1508   19.8076   -3.4936 H   0  0  0  0  0  0  0  0  0  0  0  0
   -1.0141   18.0745   -2.3465 H   0  0  0  0  0  0  0  0  0  0  0  0
   -0.0886   19.9260    1.5119 H   0  0  0  0  0  0  0  0  0  0  0  0
    1.0584   19.5625    0.1781 H   0  0  0  0  0  0  0  0  0  0  0  0
    0.1412   21.1070    0.1781 H   0  0  0  0  0  0  0  0  0  0  0  0
   -1.8438   18.8117    1.5389 H   0  0  0  0  0  0  0  0  0  0  0  0
   -3.0388   19.0857    0.2261 H   0  0  0  0  0  0  0  0  0  0  0  0
   -2.0293   17.5999    0.2261 H   0  0  0  0  0  0  0  0  0  0  0  0
    3.2671   15.9154   -2.5304 H   0  0  0  0  0  0  0  0  0  0  0  0
    4.3905   16.2707   -0.4221 H   0  0  0  0  0  0  0  0  0  0  0  0
    3.1642   17.4349    0.1233 H   0  0  0  0  0  0  0  0  0  0  0  0
    3.3953   14.7282    1.0102 H   0  0  0  0  0  0  0  0  0  0  0  0
    1.9712   15.7331    1.2669 H   0  0  0  0  0  0  0  0  0  0  0  0
    3.5258   13.0469   -0.3604 H   0  0  0  0  0  0  0  0  0  0  0  0
    2.4717   12.7709   -1.7884 H   0  0  0  0  0  0  0  0  0  0  0  0
    3.6464   14.1298   -1.7884 H   0  0  0  0  0  0  0  0  0  0  0  0
    0.0711   14.4362    0.5142 H   0  0  0  0  0  0  0  0  0  0  0  0
    1.8632   12.9504    1.6169 H   0  0  0  0  0  0  0  0  0  0  0  0
    0.0817   12.4888    1.6657 H   0  0  0  0  0  0  0  0  0  0  0  0
    1.7815   10.5301    1.2010 H   0  0  0  0  0  0  0  0  0  0  0  0
    1.0022   12.0307   -2.4645 H   0  0  0  0  0  0  0  0  0  0  0  0
   -1.5948   10.5769   -1.6644 H   0  0  0  0  0  0  0  0  0  0  0  0
   -1.2826   11.4835   -3.2106 H   0  0  0  0  0  0  0  0  0  0  0  0
   -1.1307    9.0332   -3.5153 H   0  0  0  0  0  0  0  0  0  0  0  0
    0.4313    9.8832   -3.8384 H   0  0  0  0  0  0  0  0  0  0  0  0
    0.8840    7.8870   -2.5857 H   0  0  0  0  0  0  0  0  0  0  0  0
   -1.0560    8.9860   -0.7640 H   0  0  0  0  0  0  0  0  0  0  0  0
    3.6303    9.9196   -1.6274 H   0  0  0  0  0  0  0  0  0  0  0  0
    2.8935    8.8341   -2.8544 H   0  0  0  0  0  0  0  0  0  0  0  0
    2.5009   10.5870   -2.8544 H   0  0  0  0  0  0  0  0  0  0  0  0
    1.8326    8.9109    0.8249 H   0  0  0  0  0  0  0  0  0  0  0  0
    1.5817    7.5100   -0.2711 H   0  0  0  0  0  0  0  0  0  0  0  0
    3.1531    8.3802   -0.2711 H   0  0  0  0  0  0  0  0  0  0  0  0
   -1.5903   12.8727    0.6007 H   0  0  0  0  0  0  0  0  0  0  0  0
   -2.3646   13.6626   -0.8146 H   0  0  0  0  0  0  0  0  0  0  0  0
   -2.0923   11.8870   -0.8146 H   0  0  0  0  0  0  0  0  0  0  0  0
   -0.8006   13.5017   -3.2125 H   0  0  0  0  0  0  0  0  0  0  0  0
   -1.2442   14.8022   -1.9685 H   0  0  0  0  0  0  0  0  0  0  0  0
    1.4652   14.2989   -3.2303 H   0  0  0  0  0  0  0  0  0  0  0  0
    0.3788   15.7298   -3.4245 H   0  0  0  0  0  0  0  0  0  0  0  0
    0.3592   16.5132    0.2150 H   0  0  0  0  0  0  0  0  0  0  0  0
    0.5017   17.5984   -1.2093 H   0  0  0  0  0  0  0  0  0  0  0  0
   -0.7082   16.2708   -1.2093 H   0  0  0  0  0  0  0  0  0  0  0  0
  1  2  1  0
  2  3  1  0
  3  4  1  0
  4  5  1  0
  5  6  1  0
  6  7  1  0
  7  8  1  0
  7  9  1  0
  2 10  1  0
 10 11  1  0
 11 12  1  0
 12 13  1  0
 13 14  1  6
 13 15  1  0
 15 16  1  0
 16 17  1  0
 17 18  2  0
 18 19  1  0
 19 20  1  0
 20 21  1  0
 21 22  1  0
 22 23  1  0
 22 24  1  0
 24 25  1  0
 24 26  1  0
 19 27  1  0
 27 28  1  1
 27 29  1  0
 29 30  1  0
 30 31  1  0
 31 32  1  1
  7  5  1  0
 31 10  1  0
 31 13  1  0
 27 15  1  0
 24 18  1  0
  1 33  1  0
  1 34  1  0
  1 35  1  0
  2 36  1  6
  3 37  1  0
  3 38  1  0
  4 39  1  0
  4 40  1  0
  5 41  1  1
  8 42  1  0
  8 43  1  0
  8 44  1  0
  9 45  1  0
  9 46  1  0
  9 47  1  0
 10 48  1  6
 11 49  1  0
 11 50  1  0
 12 51  1  0
 12 52  1  0
 14 53  1  0
 14 54  1  0
 14 55  1  0
 15 56  1  1
 16 57  1  0
 16 58  1  0
 17 59  1  0
 19 60  1  6
 20 61  1  0
 20 62  1  0
 21 63  1  0
 21 64  1  0
 22 65  1  6
 23 66  1  0
 25 67  1  0
 25 68  1  0
 25 69  1  0
 26 70  1  0
 26 71  1  0
 26 72  1  0
 28 73  1  0
 28 74  1  0
 28 75  1  0
 29 76  1  0
 29 77  1  0
 30 78  1  0
 30 79  1  0
 32 80  1  0
 32 81  1  0
 32 82  1  0
M  END
>  <meeko>  (12) 
{"is_sidechain": [false], "intermolecular_energy": 2.731, "internal_energy": -0.839}

$$$$
EPH_relaxed_0001_pdb2pqr_Repair_281_r2_0001_out
     RDKit          3D

 82 86  0  0  0  0  0  0  0  0999 V2000
    0.7140   19.9400   -1.3770 C   0  0  0  0  0  0  0  0  0  0  0  0
    1.2580   19.3820   -0.0580 C   0  0  2  0  0  0  0  0  0  0  0  0
    2.7930   19.4910    0.0290 C   0  0  0  0  0  0  0  0  0  0  0  0
    3.2900   20.1940    1.2950 C   0  0  0  0  0  0  0  0  0  0  0  0
    4.5490   19.5710    1.8170 C   0  0  2  0  0  0  0  0  0  0  0  0
    4.4080   18.2160    2.2620 O   0  0  0  0  0  0  0  0  0  0  0  0
    4.7510   19.1820    3.2690 C   0  0  0  0  0  0  0  0  0  0  0  0
    3.6800   19.4010    4.2920 C   0  0  0  0  0  0  0  0  0  0  0  0
    6.1490   19.0430    3.7860 C   0  0  0  0  0  0  0  0  0  0  0  0
    0.8280   17.9290    0.1070 C   0  0  1  0  0  0  0  0  0  0  0  0
   -0.6250   17.7920    0.6330 C   0  0  0  0  0  0  0  0  0  0  0  0
   -1.2270   16.5310   -0.0390 C   0  0  0  0  0  0  0  0  0  0  0  0
   -0.0130   15.8040   -0.6630 C   0  0  1  0  0  0  0  0  0  0  0  0
    0.6340   15.0180    0.5200 C   0  0  0  0  0  0  0  0  0  0  0  0
   -0.3170   14.8700   -1.8790 C   0  0  2  0  0  0  0  0  0  0  0  0
   -1.2400   13.6780   -1.5720 C   0  0  0  0  0  0  0  0  0  0  0  0
   -0.5450   12.4270   -1.1450 C   0  0  0  0  0  0  0  0  0  0  0  0
    0.7700   12.1760   -1.2840 C   0  0  0  0  0  0  0  0  0  0  0  0
    1.6880   13.1660   -2.0140 C   0  0  1  0  0  0  0  0  0  0  0  0
    2.5920   12.3940   -3.0100 C   0  0  0  0  0  0  0  0  0  0  0  0
    3.3670   11.2630   -2.3420 C   0  0  0  0  0  0  0  0  0  0  0  0
    2.4180   10.2690   -1.6780 C   0  0  2  0  0  0  0  0  0  0  0  0
    1.6630    9.6030   -2.6950 O   0  0  0  0  0  0  0  0  0  0  0  0
    1.4500   10.9340   -0.6590 C   0  0  0  0  0  0  0  0  0  0  0  0
    2.2430   11.3910    0.5900 C   0  0  0  0  0  0  0  0  0  0  0  0
    0.4550    9.8480   -0.1680 C   0  0  0  0  0  0  0  0  0  0  0  0
    0.9680   14.4150   -2.6830 C   0  0  1  0  0  0  0  0  0  0  0  0
    0.4870   14.0440   -4.1190 C   0  0  0  0  0  0  0  0  0  0  0  0
    2.0130   15.5800   -2.8520 C   0  0  0  0  0  0  0  0  0  0  0  0
    2.1810   16.5410   -1.6590 C   0  0  0  0  0  0  0  0  0  0  0  0
    0.8210   17.0400   -1.1610 C   0  0  2  0  0  0  0  0  0  0  0  0
    0.1560   17.8540   -2.3230 C   0  0  0  0  0  0  0  0  0  0  0  0
   -0.0395   20.7129   -1.1651 H   0  0  0  0  0  0  0  0  0  0  0  0
    1.5386   20.3808   -1.9565 H   0  0  0  0  0  0  0  0  0  0  0  0
    0.2523   19.1269   -1.9565 H   0  0  0  0  0  0  0  0  0  0  0  0
    0.8379   19.9891    0.7575 H   0  0  0  0  0  0  0  0  0  0  0  0
    3.2149   18.4754    0.0075 H   0  0  0  0  0  0  0  0  0  0  0  0
    3.1207   20.1002   -0.8263 H   0  0  0  0  0  0  0  0  0  0  0  0
    3.4853   21.2512    1.0624 H   0  0  0  0  0  0  0  0  0  0  0  0
    2.5135   20.0974    2.0681 H   0  0  0  0  0  0  0  0  0  0  0  0
    5.1585   20.1661    1.1210 H   0  0  0  0  0  0  0  0  0  0  0  0
    4.1120   19.3127    5.2998 H   0  0  0  0  0  0  0  0  0  0  0  0
    3.2505   20.4056    4.1639 H   0  0  0  0  0  0  0  0  0  0  0  0
    2.8906   18.6457    4.1639 H   0  0  0  0  0  0  0  0  0  0  0  0
    6.1350   19.0444    4.8859 H   0  0  0  0  0  0  0  0  0  0  0  0
    6.5808   18.0975    3.4260 H   0  0  0  0  0  0  0  0  0  0  0  0
    6.7585   19.8850    3.4260 H   0  0  0  0  0  0  0  0  0  0  0  0
    1.6076   17.5849    0.8026 H   0  0  0  0  0  0  0  0  0  0  0  0
   -0.6224   17.6737    1.7266 H   0  0  0  0  0  0  0  0  0  0  0  0
   -1.2175   18.6876    0.3945 H   0  0  0  0  0  0  0  0  0  0  0  0
   -1.7209   15.8916    0.7075 H   0  0  0  0  0  0  0  0  0  0  0  0
   -1.9925   16.7827   -0.7878 H   0  0  0  0  0  0  0  0  0  0  0  0
    0.2864   15.4403    1.4744 H   0  0  0  0  0  0  0  0  0  0  0  0
    0.3424   13.9591    0.4597 H   0  0  0  0  0  0  0  0  0  0  0  0
    1.7292   15.1007    0.4597 H   0  0  0  0  0  0  0  0  0  0  0  0
   -0.8935   15.5291   -2.5448 H   0  0  0  0  0  0  0  0  0  0  0  0
   -1.9259   13.9779   -0.7660 H   0  0  0  0  0  0  0  0  0  0  0  0
   -1.7494   13.4361   -2.5165 H   0  0  0  0  0  0  0  0  0  0  0  0
   -1.1601   11.6442   -0.6771 H   0  0  0  0  0  0  0  0  0  0  0  0
    2.3072   13.6380   -1.2370 H   0  0  0  0  0  0  0  0  0  0  0  0
    1.9594   11.9677   -3.8025 H   0  0  0  0  0  0  0  0  0  0  0  0
    3.3253   13.1064   -3.4159 H   0  0  0  0  0  0  0  0  0  0  0  0
    3.9641   10.7379   -3.1021 H   0  0  0  0  0  0  0  0  0  0  0  0
    4.0207   11.6940   -1.5694 H   0  0  0  0  0  0  0  0  0  0  0  0
    3.0320    9.5560   -1.1082 H   0  0  0  0  0  0  0  0  0  0  0  0
    1.4060   10.2690   -3.3550 H   0  0  0  0  0  0  0  0  0  0  0  0
    1.7060   11.0815    1.4988 H   0  0  0  0  0  0  0  0  0  0  0  0
    3.2416   10.9299    0.5793 H   0  0  0  0  0  0  0  0  0  0  0  0
    2.3447   12.4862    0.5793 H   0  0  0  0  0  0  0  0  0  0  0  0
    0.4416    9.8334    0.9318 H   0  0  0  0  0  0  0  0  0  0  0  0
   -0.5530   10.0773   -0.5440 H   0  0  0  0  0  0  0  0  0  0  0  0
    0.7715    8.8639   -0.5440 H   0  0  0  0  0  0  0  0  0  0  0  0
   -0.3824   13.3734   -4.0526 H   0  0  0  0  0  0  0  0  0  0  0  0
    0.2035   14.9596   -4.6587 H   0  0  0  0  0  0  0  0  0  0  0  0
    1.3006   13.5373   -4.6587 H   0  0  0  0  0  0  0  0  0  0  0  0
    2.9930   15.1217   -3.0508 H   0  0  0  0  0  0  0  0  0  0  0  0
    1.6207   16.2022   -3.6699 H   0  0  0  0  0  0  0  0  0  0  0  0
    2.6921   16.0128   -0.8406 H   0  0  0  0  0  0  0  0  0  0  0  0
    2.7737   17.4075   -1.9875 H   0  0  0  0  0  0  0  0  0  0  0  0
   -0.4862   18.6401   -1.8992 H   0  0  0  0  0  0  0  0  0  0  0  0
    0.9392   18.3149   -2.9428 H   0  0  0  0  0  0  0  0  0  0  0  0
   -0.4519   17.1784   -2.9428 H   0  0  0  0  0  0  0  0  0  0  0  0
  1  2  1  0
  2  3  1  0
  3  4  1  0
  4  5  1  0
  5  6  1  0
  6  7  1  0
  7  8  1  0
  7  9  1  0
  2 10  1  0
 10 11  1  0
 11 12  1  0
 12 13  1  0
 13 14  1  1
 13 15  1  0
 15 16  1  0
 16 17  1  0
 17 18  2  0
 18 19  1  0
 19 20  1  0
 20 21  1  0
 21 22  1  0
 22 23  1  0
 22 24  1  0
 24 25  1  0
 24 26  1  0
 19 27  1  0
 27 28  1  6
 27 29  1  0
 29 30  1  0
 30 31  1  0
 31 32  1  6
  7  5  1  0
 31 10  1  0
 31 13  1  0
 27 15  1  0
 24 18  1  0
  1 33  1  0
  1 34  1  0
  1 35  1  0
  2 36  1  1
  3 37  1  0
  3 38  1  0
  4 39  1  0
  4 40  1  0
  5 41  1  6
  8 42  1  0
  8 43  1  0
  8 44  1  0
  9 45  1  0
  9 46  1  0
  9 47  1  0
 10 48  1  1
 11 49  1  0
 11 50  1  0
 12 51  1  0
 12 52  1  0
 14 53  1  0
 14 54  1  0
 14 55  1  0
 15 56  1  6
 16 57  1  0
 16 58  1  0
 17 59  1  0
 19 60  1  1
 20 61  1  0
 20 62  1  0
 21 63  1  0
 21 64  1  0
 22 65  1  1
 23 66  1  0
 25 67  1  0
 25 68  1  0
 25 69  1  0
 26 70  1  0
 26 71  1  0
 26 72  1  0
 28 73  1  0
 28 74  1  0
 28 75  1  0
 29 76  1  0
 29 77  1  0
 30 78  1  0
 30 79  1  0
 32 80  1  0
 32 81  1  0
 32 82  1  0
M  END
>  <meeko>  (13) 
{"is_sidechain": [false], "intermolecular_energy": 2.731, "internal_energy": -0.839}

$$$$
EPH_relaxed_0001_pdb2pqr_Repair_281_r2_0001_out
     RDKit          3D

 82 86  0  0  0  0  0  0  0  0999 V2000
   -0.1870    9.3750   -2.3090 C   0  0  0  0  0  0  0  0  0  0  0  0
    0.9490   10.3090   -2.7330 C   0  0  2  0  0  0  0  0  0  0  0  0
    2.3120    9.5890   -2.7650 C   0  0  0  0  0  0  0  0  0  0  0  0
    3.2550   10.1040   -3.8550 C   0  0  0  0  0  0  0  0  0  0  0  0
    4.6050   10.4510   -3.3020 C   0  0  2  0  0  0  0  0  0  0  0  0
    5.0590   11.7730   -3.6190 O   0  0  0  0  0  0  0  0  0  0  0  0
    5.8270   10.6900   -4.1690 C   0  0  0  0  0  0  0  0  0  0  0  0
    5.7580   10.5910   -5.6600 C   0  0  0  0  0  0  0  0  0  0  0  0
    7.1820   10.5380   -3.5510 C   0  0  0  0  0  0  0  0  0  0  0  0
    1.0160   11.5070   -1.7920 C   0  0  1  0  0  0  0  0  0  0  0  0
    2.1090   11.3500   -0.7010 C   0  0  0  0  0  0  0  0  0  0  0  0
    2.6860   12.7650   -0.4410 C   0  0  0  0  0  0  0  0  0  0  0  0
    1.6930   13.7260   -1.1350 C   0  0  1  0  0  0  0  0  0  0  0  0
    0.5140   13.8840   -0.1240 C   0  0  0  0  0  0  0  0  0  0  0  0
    2.2660   15.1130   -1.5740 C   0  0  2  0  0  0  0  0  0  0  0  0
    2.7730   16.0030   -0.4260 C   0  0  0  0  0  0  0  0  0  0  0  0
    1.7570   16.9250    0.1620 C   0  0  0  0  0  0  0  0  0  0  0  0
    0.5730   17.2410   -0.3940 C   0  0  0  0  0  0  0  0  0  0  0  0
    0.1960   16.7270   -1.7890 C   0  0  1  0  0  0  0  0  0  0  0  0
   -0.3820   17.8950   -2.6320 C   0  0  0  0  0  0  0  0  0  0  0  0
   -1.5420   18.6000   -1.9370 C   0  0  0  0  0  0  0  0  0  0  0  0
   -1.1120   19.1480   -0.5790 C   0  0  2  0  0  0  0  0  0  0  0  0
   -0.1580   20.1940   -0.7840 O   0  0  0  0  0  0  0  0  0  0  0  0
   -0.5050   18.0630    0.3550 C   0  0  0  0  0  0  0  0  0  0  0  0
   -1.6200   17.0940    0.8200 C   0  0  0  0  0  0  0  0  0  0  0  0
    0.0160   18.7720    1.6340 C   0  0  0  0  0  0  0  0  0  0  0  0
    1.3270   15.9200   -2.5600 C   0  0  1  0  0  0  0  0  0  0  0  0
    2.2460   16.9060   -3.3430 C   0  0  0  0  0  0  0  0  0  0  0  0
    0.6520   14.9910   -3.6380 C   0  0  0  0  0  0  0  0  0  0  0  0
    0.2160   13.5890   -3.1720 C   0  0  0  0  0  0  0  0  0  0  0  0
    1.3480   12.8850   -2.4180 C   0  0  2  0  0  0  0  0  0  0  0  0
    2.5400   12.6920   -3.4160 C   0  0  0  0  0  0  0  0  0  0  0  0
   -0.2372    9.3337   -1.2109 H   0  0  0  0  0  0  0  0  0  0  0  0
   -1.1405    9.7538   -2.7057 H   0  0  0  0  0  0  0  0  0  0  0  0
    0.0003    8.3663   -2.7057 H   0  0  0  0  0  0  0  0  0  0  0  0
    0.7315   10.6504   -3.7558 H   0  0  0  0  0  0  0  0  0  0  0  0
    2.8007    9.7274   -1.7893 H   0  0  0  0  0  0  0  0  0  0  0  0
    2.1111    8.5307   -2.9878 H   0  0  0  0  0  0  0  0  0  0  0  0
    3.3735    9.3240   -4.6215 H   0  0  0  0  0  0  0  0  0  0  0  0
    2.8159   11.0162   -4.2853 H   0  0  0  0  0  0  0  0  0  0  0  0
    4.4373    9.8097   -2.4242 H   0  0  0  0  0  0  0  0  0  0  0  0
    5.1500    9.7187   -5.9418 H   0  0  0  0  0  0  0  0  0  0  0  0
    5.2998   11.5043   -6.0673 H   0  0  0  0  0  0  0  0  0  0  0  0
    6.7735   10.4772   -6.0673 H   0  0  0  0  0  0  0  0  0  0  0  0
    7.0884   10.5485   -2.4550 H   0  0  0  0  0  0  0  0  0  0  0  0
    7.6265    9.5844   -3.8719 H   0  0  0  0  0  0  0  0  0  0  0  0
    7.8267   11.3695   -3.8719 H   0  0  0  0  0  0  0  0  0  0  0  0
   -0.0177   11.5040   -1.4158 H   0  0  0  0  0  0  0  0  0  0  0  0
    1.6680   10.9451    0.2218 H   0  0  0  0  0  0  0  0  0  0  0  0
    2.8970   10.6555   -1.0277 H   0  0  0  0  0  0  0  0  0  0  0  0
    2.7360   12.9715    0.6383 H   0  0  0  0  0  0  0  0  0  0  0  0
    3.7104   12.8746   -0.8265 H   0  0  0  0  0  0  0  0  0  0  0  0
    0.9028   13.8319    0.9037 H   0  0  0  0  0  0  0  0  0  0  0  0
    0.0235   14.8559   -0.2817 H   0  0  0  0  0  0  0  0  0  0  0  0
   -0.2151   13.0755   -0.2817 H   0  0  0  0  0  0  0  0  0  0  0  0
    3.1603   14.8274   -2.1473 H   0  0  0  0  0  0  0  0  0  0  0  0
    3.1408   15.3464    0.3762 H   0  0  0  0  0  0  0  0  0  0  0  0
    3.5523   16.6462   -0.8608 H   0  0  0  0  0  0  0  0  0  0  0  0
    1.9964   17.3851    1.1320 H   0  0  0  0  0  0  0  0  0  0  0  0
   -0.5774   15.9607   -1.6320 H   0  0  0  0  0  0  0  0  0  0  0  0
    0.4178   18.6279   -2.8141 H   0  0  0  0  0  0  0  0  0  0  0  0
   -0.7643   17.4708   -3.5722 H   0  0  0  0  0  0  0  0  0  0  0  0
   -1.8877   19.4321   -2.5680 H   0  0  0  0  0  0  0  0  0  0  0  0
   -2.3526   17.8728   -1.7816 H   0  0  0  0  0  0  0  0  0  0  0  0
   -2.0140   19.5267   -0.0760 H   0  0  0  0  0  0  0  0  0  0  0  0
    0.3720   19.9610   -1.5650 H   0  0  0  0  0  0  0  0  0  0  0  0
   -1.6489   17.0688    1.9193 H   0  0  0  0  0  0  0  0  0  0  0  0
   -2.5907   17.4404    0.4355 H   0  0  0  0  0  0  0  0  0  0  0  0
   -1.4124   16.0845    0.4355 H   0  0  0  0  0  0  0  0  0  0  0  0
   -0.3669   18.2509    2.5239 H   0  0  0  0  0  0  0  0  0  0  0  0
    1.1158   18.7519    1.6422 H   0  0  0  0  0  0  0  0  0  0  0  0
   -0.3317   19.8156    1.6422 H   0  0  0  0  0  0  0  0  0  0  0  0
    2.8174   17.5190   -2.6304 H   0  0  0  0  0  0  0  0  0  0  0  0
    2.9416   16.3350   -3.9756 H   0  0  0  0  0  0  0  0  0  0  0  0
    1.6276   17.5598   -3.9756 H   0  0  0  0  0  0  0  0  0  0  0  0
   -0.2426   15.5106   -4.0117 H   0  0  0  0  0  0  0  0  0  0  0  0
    1.4315   14.8135   -4.3935 H   0  0  0  0  0  0  0  0  0  0  0  0
   -0.6542   13.6856   -2.5061 H   0  0  0  0  0  0  0  0  0  0  0  0
   -0.0414   12.9894   -4.0576 H   0  0  0  0  0  0  0  0  0  0  0  0
    3.4712   12.5412   -2.8502 H   0  0  0  0  0  0  0  0  0  0  0  0
    2.3493   11.8130   -4.0493 H   0  0  0  0  0  0  0  0  0  0  0  0
    2.6365   13.5862   -4.0493 H   0  0  0  0  0  0  0  0  0  0  0  0
  1  2  1  0
  2  3  1  0
  3  4  1  0
  4  5  1  0
  5  6  1  0
  6  7  1  0
  7  8  1  0
  7  9  1  0
  2 10  1  0
 10 11  1  0
 11 12  1  0
 12 13  1  0
 13 14  1  1
 13 15  1  0
 15 16  1  0
 16 17  1  0
 17 18  2  0
 18 19  1  0
 19 20  1  0
 20 21  1  0
 21 22  1  0
 22 23  1  0
 22 24  1  0
 24 25  1  0
 24 26  1  0
 19 27  1  0
 27 28  1  6
 27 29  1  0
 29 30  1  0
 30 31  1  0
 31 32  1  6
  7  5  1  0
 31 10  1  0
 31 13  1  0
 27 15  1  0
 24 18  1  0
  1 33  1  0
  1 34  1  0
  1 35  1  0
  2 36  1  6
  3 37  1  0
  3 38  1  0
  4 39  1  0
  4 40  1  0
  5 41  1  1
  8 42  1  0
  8 43  1  0
  8 44  1  0
  9 45  1  0
  9 46  1  0
  9 47  1  0
 10 48  1  1
 11 49  1  0
 11 50  1  0
 12 51  1  0
 12 52  1  0
 14 53  1  0
 14 54  1  0
 14 55  1  0
 15 56  1  6
 16 57  1  0
 16 58  1  0
 17 59  1  0
 19 60  1  1
 20 61  1  0
 20 62  1  0
 21 63  1  0
 21 64  1  0
 22 65  1  1
 23 66  1  0
 25 67  1  0
 25 68  1  0
 25 69  1  0
 26 70  1  0
 26 71  1  0
 26 72  1  0
 28 73  1  0
 28 74  1  0
 28 75  1  0
 29 76  1  0
 29 77  1  0
 30 78  1  0
 30 79  1  0
 32 80  1  0
 32 81  1  0
 32 82  1  0
M  END
>  <meeko>  (14) 
{"is_sidechain": [false], "intermolecular_energy": 2.731, "internal_energy": -0.839}

$$$$
EPH_relaxed_0001_pdb2pqr_Repair_281_r2_0001_out
     RDKit          3D

 82 86  0  0  0  0  0  0  0  0999 V2000
   -2.0860    7.8330   -1.9930 C   0  0  0  0  0  0  0  0  0  0  0  0
   -2.1540    8.5090   -0.6200 C   0  0  2  0  0  0  0  0  0  0  0  0
   -3.5860    8.5230   -0.0500 C   0  0  0  0  0  0  0  0  0  0  0  0
   -4.6770    8.5220   -1.1240 C   0  0  0  0  0  0  0  0  0  0  0  0
   -5.5180    7.2830   -1.0610 C   0  0  2  0  0  0  0  0  0  0  0  0
   -5.7110    6.6250   -2.3200 O   0  0  0  0  0  0  0  0  0  0  0  0
   -6.8890    7.1690   -1.7010 C   0  0  0  0  0  0  0  0  0  0  0  0
   -7.4980    8.3120   -2.4500 C   0  0  0  0  0  0  0  0  0  0  0  0
   -7.8340    6.1280   -1.1860 C   0  0  0  0  0  0  0  0  0  0  0  0
   -1.6170    9.9320   -0.7160 C   0  0  1  0  0  0  0  0  0  0  0  0
   -1.1370   10.4820    0.6540 C   0  0  0  0  0  0  0  0  0  0  0  0
    0.0850   11.3920    0.3660 C   0  0  0  0  0  0  0  0  0  0  0  0
    0.0640   11.6010   -1.1660 C   0  0  1  0  0  0  0  0  0  0  0  0
   -0.9900   12.7280   -1.4020 C   0  0  0  0  0  0  0  0  0  0  0  0
    1.4350   11.9430   -1.8360 C   0  0  2  0  0  0  0  0  0  0  0  0
    2.0760   13.2630   -1.3740 C   0  0  0  0  0  0  0  0  0  0  0  0
    1.7030   14.4670   -2.1750 C   0  0  0  0  0  0  0  0  0  0  0  0
    1.1180   14.4500   -3.3870 C   0  0  0  0  0  0  0  0  0  0  0  0
    0.8610   13.1270   -4.1190 C   0  0  1  0  0  0  0  0  0  0  0  0
    1.3170   13.2550   -5.5960 C   0  0  0  0  0  0  0  0  0  0  0  0
    0.6790   14.4460   -6.3040 C   0  0  0  0  0  0  0  0  0  0  0  0
    1.0070   15.7500   -5.5790 C   0  0  2  0  0  0  0  0  0  0  0  0
    2.4100   16.0020   -5.6960 O   0  0  0  0  0  0  0  0  0  0  0  0
    0.6010   15.7350   -4.0790 C   0  0  0  0  0  0  0  0  0  0  0  0
   -0.9430   15.7650   -3.9570 C   0  0  0  0  0  0  0  0  0  0  0  0
    1.1130   17.0510   -3.4330 C   0  0  0  0  0  0  0  0  0  0  0  0
    1.4330   11.8220   -3.4140 C   0  0  1  0  0  0  0  0  0  0  0  0
    2.9140   11.5910   -3.8440 C   0  0  0  0  0  0  0  0  0  0  0  0
    0.6230   10.5690   -3.9170 C   0  0  0  0  0  0  0  0  0  0  0  0
   -0.6580   10.2120   -3.1400 C   0  0  0  0  0  0  0  0  0  0  0  0
   -0.3910   10.1710   -1.6320 C   0  0  2  0  0  0  0  0  0  0  0  0
    0.6490    9.0310   -1.3610 C   0  0  0  0  0  0  0  0  0  0  0  0
   -1.9767    6.7464   -1.8617 H   0  0  0  0  0  0  0  0  0  0  0  0
   -3.0099    8.0437   -2.5516 H   0  0  0  0  0  0  0  0  0  0  0  0
   -1.2226    8.2235   -2.5516 H   0  0  0  0  0  0  0  0  0  0  0  0
   -1.5306    7.9217    0.0703 H   0  0  0  0  0  0  0  0  0  0  0  0
   -3.7178    7.6306    0.5794 H   0  0  0  0  0  0  0  0  0  0  0  0
   -3.6961    9.4582    0.5185 H   0  0  0  0  0  0  0  0  0  0  0  0
   -5.3237    9.3994   -0.9756 H   0  0  0  0  0  0  0  0  0  0  0  0
   -4.1878    8.5538   -2.1087 H   0  0  0  0  0  0  0  0  0  0  0  0
   -5.1571    7.0617   -0.0457 H   0  0  0  0  0  0  0  0  0  0  0  0
   -7.8914    9.0503   -1.7358 H   0  0  0  0  0  0  0  0  0  0  0  0
   -6.7325    8.7854   -3.0825 H   0  0  0  0  0  0  0  0  0  0  0  0
   -8.3178    7.9407   -3.0825 H   0  0  0  0  0  0  0  0  0  0  0  0
   -7.8257    6.1372   -0.0861 H   0  0  0  0  0  0  0  0  0  0  0  0
   -8.8503    6.3447   -1.5468 H   0  0  0  0  0  0  0  0  0  0  0  0
   -7.5203    5.1373   -1.5468 H   0  0  0  0  0  0  0  0  0  0  0  0
   -2.5015   10.4345   -1.1346 H   0  0  0  0  0  0  0  0  0  0  0  0
   -1.9392   11.0644    1.1307 H   0  0  0  0  0  0  0  0  0  0  0  0
   -0.8677    9.6626    1.3367 H   0  0  0  0  0  0  0  0  0  0  0  0
   -0.0150   12.3538    0.8904 H   0  0  0  0  0  0  0  0  0  0  0  0
    1.0284   10.9453    0.7129 H   0  0  0  0  0  0  0  0  0  0  0  0
   -1.3447   13.1072   -0.4323 H   0  0  0  0  0  0  0  0  0  0  0  0
   -0.5281   13.5489   -1.9700 H   0  0  0  0  0  0  0  0  0  0  0  0
   -1.8400   12.3220   -1.9700 H   0  0  0  0  0  0  0  0  0  0  0  0
    2.0892   11.1447   -1.4555 H   0  0  0  0  0  0  0  0  0  0  0  0
    1.7738   13.4412   -0.3314 H   0  0  0  0  0  0  0  0  0  0  0  0
    3.1611   13.1360   -1.5021 H   0  0  0  0  0  0  0  0  0  0  0  0
    1.9253   15.4514   -1.7372 H   0  0  0  0  0  0  0  0  0  0  0  0
   -0.2258   12.9626   -4.0773 H   0  0  0  0  0  0  0  0  0  0  0  0
    2.4101   13.3757   -5.6184 H   0  0  0  0  0  0  0  0  0  0  0  0
    0.9994   12.3436   -6.1237 H   0  0  0  0  0  0  0  0  0  0  0  0
    1.0617   14.5002   -7.3338 H   0  0  0  0  0  0  0  0  0  0  0  0
   -0.4126   14.3101   -6.3068 H   0  0  0  0  0  0  0  0  0  0  0  0
    0.4196   16.5492   -6.0546 H   0  0  0  0  0  0  0  0  0  0  0  0
    2.5220   16.7890   -6.2550 H   0  0  0  0  0  0  0  0  0  0  0  0
   -1.2268   15.7705   -2.8943 H   0  0  0  0  0  0  0  0  0  0  0  0
   -1.3318   16.6709   -4.4451 H   0  0  0  0  0  0  0  0  0  0  0  0
   -1.3667   14.8749   -4.4451 H   0  0  0  0  0  0  0  0  0  0  0  0
    1.0775   16.9597   -2.3374 H   0  0  0  0  0  0  0  0  0  0  0  0
    2.1491   17.2371   -3.7520 H   0  0  0  0  0  0  0  0  0  0  0  0
    0.4751   17.8884   -3.7520 H   0  0  0  0  0  0  0  0  0  0  0  0
    3.5448   11.4926   -2.9482 H   0  0  0  0  0  0  0  0  0  0  0  0
    2.9825   10.6713   -4.4436 H   0  0  0  0  0  0  0  0  0  0  0  0
    3.2594   12.4461   -4.4436 H   0  0  0  0  0  0  0  0  0  0  0  0
    0.3368   10.7557   -4.9626 H   0  0  0  0  0  0  0  0  0  0  0  0
    1.2972    9.7124   -3.7692 H   0  0  0  0  0  0  0  0  0  0  0  0
   -1.4282   10.9691   -3.3486 H   0  0  0  0  0  0  0  0  0  0  0  0
   -0.9985    9.2172   -3.4631 H   0  0  0  0  0  0  0  0  0  0  0  0
    0.7715    8.8967   -0.2761 H   0  0  0  0  0  0  0  0  0  0  0  0
    0.2893    8.0926   -1.8083 H   0  0  0  0  0  0  0  0  0  0  0  0
    1.6164    9.3033   -1.8083 H   0  0  0  0  0  0  0  0  0  0  0  0
  1  2  1  0
  2  3  1  0
  3  4  1  0
  4  5  1  0
  5  6  1  0
  6  7  1  0
  7  8  1  0
  7  9  1  0
  2 10  1  0
 10 11  1  0
 11 12  1  0
 12 13  1  0
 13 14  1  1
 13 15  1  0
 15 16  1  0
 16 17  1  0
 17 18  2  0
 18 19  1  0
 19 20  1  0
 20 21  1  0
 21 22  1  0
 22 23  1  0
 22 24  1  0
 24 25  1  0
 24 26  1  0
 19 27  1  0
 27 28  1  6
 27 29  1  0
 29 30  1  0
 30 31  1  0
 31 32  1  6
  7  5  1  0
 31 10  1  0
 31 13  1  0
 27 15  1  0
 24 18  1  0
  1 33  1  0
  1 34  1  0
  1 35  1  0
  2 36  1  1
  3 37  1  0
  3 38  1  0
  4 39  1  0
  4 40  1  0
  5 41  1  1
  8 42  1  0
  8 43  1  0
  8 44  1  0
  9 45  1  0
  9 46  1  0
  9 47  1  0
 10 48  1  6
 11 49  1  0
 11 50  1  0
 12 51  1  0
 12 52  1  0
 14 53  1  0
 14 54  1  0
 14 55  1  0
 15 56  1  1
 16 57  1  0
 16 58  1  0
 17 59  1  0
 19 60  1  6
 20 61  1  0
 20 62  1  0
 21 63  1  0
 21 64  1  0
 22 65  1  6
 23 66  1  0
 25 67  1  0
 25 68  1  0
 25 69  1  0
 26 70  1  0
 26 71  1  0
 26 72  1  0
 28 73  1  0
 28 74  1  0
 28 75  1  0
 29 76  1  0
 29 77  1  0
 30 78  1  0
 30 79  1  0
 32 80  1  0
 32 81  1  0
 32 82  1  0
M  END
>  <meeko>  (15) 
{"is_sidechain": [false], "intermolecular_energy": 2.731, "internal_energy": -0.839}

$$$$
EPH_relaxed_0001_pdb2pqr_Repair_281_r2_0001_out
     RDKit          3D

 82 86  0  0  0  0  0  0  0  0999 V2000
    0.3050    9.8830   -4.7100 C   0  0  0  0  0  0  0  0  0  0  0  0
    1.3360   10.5630   -3.8040 C   0  0  2  0  0  0  0  0  0  0  0  0
    1.6810    9.7060   -2.5700 C   0  0  0  0  0  0  0  0  0  0  0  0
    0.5980    8.6860   -2.2070 C   0  0  0  0  0  0  0  0  0  0  0  0
   -0.2360    9.1510   -1.0520 C   0  0  2  0  0  0  0  0  0  0  0  0
   -0.7600    8.0990   -0.2310 O   0  0  0  0  0  0  0  0  0  0  0  0
   -1.7270    8.8920   -0.9390 C   0  0  0  0  0  0  0  0  0  0  0  0
   -2.4710    8.1420   -1.9980 C   0  0  0  0  0  0  0  0  0  0  0  0
   -2.5420    9.7820   -0.0530 C   0  0  0  0  0  0  0  0  0  0  0  0
    0.8190   11.9270   -3.3630 C   0  0  1  0  0  0  0  0  0  0  0  0
   -0.6960   11.9120   -3.0250 C   0  0  0  0  0  0  0  0  0  0  0  0
   -0.9040   12.9030   -1.8520 C   0  0  0  0  0  0  0  0  0  0  0  0
    0.4220   13.6970   -1.7730 C   0  0  1  0  0  0  0  0  0  0  0  0
    0.3020   14.7880   -2.8820 C   0  0  0  0  0  0  0  0  0  0  0  0
    0.7710   14.3210   -0.3830 C   0  0  2  0  0  0  0  0  0  0  0  0
   -0.2270   15.3760    0.1280 C   0  0  0  0  0  0  0  0  0  0  0  0
    0.0760   16.7830   -0.2660 C   0  0  0  0  0  0  0  0  0  0  0  0
    1.2500   17.2240   -0.7560 C   0  0  0  0  0  0  0  0  0  0  0  0
    2.4590   16.2860   -0.8650 C   0  0  1  0  0  0  0  0  0  0  0  0
    3.7190   16.9990   -0.3090 C   0  0  0  0  0  0  0  0  0  0  0  0
    3.9670   18.3510   -0.9730 C   0  0  0  0  0  0  0  0  0  0  0  0
    2.7660   19.2750   -0.7930 C   0  0  2  0  0  0  0  0  0  0  0  0
    2.6390   19.6020    0.5950 O   0  0  0  0  0  0  0  0  0  0  0  0
    1.4350   18.6580   -1.3080 C   0  0  0  0  0  0  0  0  0  0  0  0
    1.4600   18.5840   -2.8550 C   0  0  0  0  0  0  0  0  0  0  0  0
    0.2830   19.6320   -0.9390 C   0  0  0  0  0  0  0  0  0  0  0  0
    2.2640   14.8300   -0.2570 C   0  0  1  0  0  0  0  0  0  0  0  0
    2.6060   14.8380    1.2640 C   0  0  0  0  0  0  0  0  0  0  0  0
    3.2900   13.8480   -0.9380 C   0  0  0  0  0  0  0  0  0  0  0  0
    2.8400   13.1700   -2.2460 C   0  0  0  0  0  0  0  0  0  0  0  0
    1.4480   12.5490   -2.0910 C   0  0  2  0  0  0  0  0  0  0  0  0
    1.5420   11.4310   -0.9970 C   0  0  0  0  0  0  0  0  0  0  0  0
   -0.4539    9.3825   -4.0907 H   0  0  0  0  0  0  0  0  0  0  0  0
   -0.1803   10.6388   -5.3450 H   0  0  0  0  0  0  0  0  0  0  0  0
    0.8087    9.1393   -5.3450 H   0  0  0  0  0  0  0  0  0  0  0  0
    2.2600   10.6858   -4.3880 H   0  0  0  0  0  0  0  0  0  0  0  0
    2.6153    9.1626   -2.7747 H   0  0  0  0  0  0  0  0  0  0  0  0
    1.7740   10.3938   -1.7166 H   0  0  0  0  0  0  0  0  0  0  0  0
   -0.0545    8.5331   -3.0793 H   0  0  0  0  0  0  0  0  0  0  0  0
    1.0937    7.7480   -1.9165 H   0  0  0  0  0  0  0  0  0  0  0  0
    0.3623   10.0693   -0.9586 H   0  0  0  0  0  0  0  0  0  0  0  0
   -3.1705    7.4369   -1.5251 H   0  0  0  0  0  0  0  0  0  0  0  0
   -3.0325    8.8513   -2.6238 H   0  0  0  0  0  0  0  0  0  0  0  0
   -1.7572    7.5863   -2.6238 H   0  0  0  0  0  0  0  0  0  0  0  0
   -2.3271    9.5473    1.0000 H   0  0  0  0  0  0  0  0  0  0  0  0
   -2.2865   10.8329   -0.2540 H   0  0  0  0  0  0  0  0  0  0  0  0
   -3.6112    9.6197   -0.2540 H   0  0  0  0  0  0  0  0  0  0  0  0
    1.0914   12.5212   -4.2477 H   0  0  0  0  0  0  0  0  0  0  0  0
   -1.2820   12.2319   -3.8992 H   0  0  0  0  0  0  0  0  0  0  0  0
   -1.0286   10.9002   -2.7500 H   0  0  0  0  0  0  0  0  0  0  0  0
   -1.7486   13.5769   -2.0580 H   0  0  0  0  0  0  0  0  0  0  0  0
   -1.1398   12.3893   -0.9083 H   0  0  0  0  0  0  0  0  0  0  0  0
    0.1932   15.7771   -2.4131 H   0  0  0  0  0  0  0  0  0  0  0  0
    1.2069   14.7762   -3.5074 H   0  0  0  0  0  0  0  0  0  0  0  0
   -0.5787   14.5798   -3.5074 H   0  0  0  0  0  0  0  0  0  0  0  0
    0.6690   13.4599    0.2939 H   0  0  0  0  0  0  0  0  0  0  0  0
   -1.2225   15.1201   -0.2637 H   0  0  0  0  0  0  0  0  0  0  0  0
   -0.1651   15.3472    1.2259 H   0  0  0  0  0  0  0  0  0  0  0  0
   -0.7287   17.5233   -0.1458 H   0  0  0  0  0  0  0  0  0  0  0  0
    2.5889   16.0807   -1.9378 H   0  0  0  0  0  0  0  0  0  0  0  0
    3.5875   17.1557    0.7718 H   0  0  0  0  0  0  0  0  0  0  0  0
    4.5870   16.3579   -0.5222 H   0  0  0  0  0  0  0  0  0  0  0  0
    4.8525   18.8187   -0.5178 H   0  0  0  0  0  0  0  0  0  0  0  0
    4.1278   18.1896   -2.0491 H   0  0  0  0  0  0  0  0  0  0  0  0
    2.9494   20.1751   -1.3981 H   0  0  0  0  0  0  0  0  0  0  0  0
    3.4510   19.3070    1.0410 H   0  0  0  0  0  0  0  0  0  0  0  0
    1.7974   17.5852   -3.1689 H   0  0  0  0  0  0  0  0  0  0  0  0
    0.4493   18.7697   -3.2474 H   0  0  0  0  0  0  0  0  0  0  0  0
    2.1511   19.3446   -3.2474 H   0  0  0  0  0  0  0  0  0  0  0  0
    0.1992   19.7029    0.1555 H   0  0  0  0  0  0  0  0  0  0  0  0
    0.4968   20.6274   -1.3556 H   0  0  0  0  0  0  0  0  0  0  0  0
   -0.6630   19.2556   -1.3556 H   0  0  0  0  0  0  0  0  0  0  0  0
    1.6749   14.8162    1.8493 H   0  0  0  0  0  0  0  0  0  0  0  0
    3.2132   13.9538    1.5079 H   0  0  0  0  0  0  0  0  0  0  0  0
    3.1712   15.7496    1.5079 H   0  0  0  0  0  0  0  0  0  0  0  0
    4.2033   14.4206   -1.1572 H   0  0  0  0  0  0  0  0  0  0  0  0
    3.4223   13.0262   -0.2188 H   0  0  0  0  0  0  0  0  0  0  0  0
    2.8116   13.9209   -3.0493 H   0  0  0  0  0  0  0  0  0  0  0  0
    3.5552   12.3710   -2.4910 H   0  0  0  0  0  0  0  0  0  0  0  0
    1.5033   11.8909    0.0015 H   0  0  0  0  0  0  0  0  0  0  0  0
    0.6993   10.7334   -1.1123 H   0  0  0  0  0  0  0  0  0  0  0  0
    2.4893   10.8839   -1.1123 H   0  0  0  0  0  0  0  0  0  0  0  0
  1  2  1  0
  2  3  1  0
  3  4  1  0
  4  5  1  0
  5  6  1  0
  6  7  1  0
  7  8  1  0
  7  9  1  0
  2 10  1  0
 10 11  1  0
 11 12  1  0
 12 13  1  0
 13 14  1  6
 13 15  1  0
 15 16  1  0
 16 17  1  0
 17 18  2  0
 18 19  1  0
 19 20  1  0
 20 21  1  0
 21 22  1  0
 22 23  1  0
 22 24  1  0
 24 25  1  0
 24 26  1  0
 19 27  1  0
 27 28  1  1
 27 29  1  0
 29 30  1  0
 30 31  1  0
 31 32  1  1
  7  5  1  0
 31 10  1  0
 31 13  1  0
 27 15  1  0
 24 18  1  0
  1 33  1  0
  1 34  1  0
  1 35  1  0
  2 36  1  6
  3 37  1  0
  3 38  1  0
  4 39  1  0
  4 40  1  0
  5 41  1  1
  8 42  1  0
  8 43  1  0
  8 44  1  0
  9 45  1  0
  9 46  1  0
  9 47  1  0
 10 48  1  6
 11 49  1  0
 11 50  1  0
 12 51  1  0
 12 52  1  0
 14 53  1  0
 14 54  1  0
 14 55  1  0
 15 56  1  1
 16 57  1  0
 16 58  1  0
 17 59  1  0
 19 60  1  6
 20 61  1  0
 20 62  1  0
 21 63  1  0
 21 64  1  0
 22 65  1  6
 23 66  1  0
 25 67  1  0
 25 68  1  0
 25 69  1  0
 26 70  1  0
 26 71  1  0
 26 72  1  0
 28 73  1  0
 28 74  1  0
 28 75  1  0
 29 76  1  0
 29 77  1  0
 30 78  1  0
 30 79  1  0
 32 80  1  0
 32 81  1  0
 32 82  1  0
M  END
>  <meeko>  (16) 
{"is_sidechain": [false], "intermolecular_energy": 2.731, "internal_energy": -0.839}

$$$$
EPH_relaxed_0001_pdb2pqr_Repair_281_r2_0001_out
     RDKit          3D

 82 86  0  0  0  0  0  0  0  0999 V2000
    0.9310   14.9320   -2.6430 C   0  0  0  0  0  0  0  0  0  0  0  0
    1.1770   14.2600   -3.9970 C   0  0  2  0  0  0  0  0  0  0  0  0
    0.4610   14.9940   -5.1480 C   0  0  0  0  0  0  0  0  0  0  0  0
    0.9730   14.6060   -6.5380 C   0  0  0  0  0  0  0  0  0  0  0  0
    0.7680   15.7090   -7.5320 C   0  0  2  0  0  0  0  0  0  0  0  0
    0.4060   15.2690   -8.8480 O   0  0  0  0  0  0  0  0  0  0  0  0
    1.6730   15.9360   -8.7280 C   0  0  0  0  0  0  0  0  0  0  0  0
    2.8530   15.0540   -8.9920 C   0  0  0  0  0  0  0  0  0  0  0  0
    1.7010   17.2940   -9.3560 C   0  0  0  0  0  0  0  0  0  0  0  0
    0.7240   12.8050   -3.9450 C   0  0  1  0  0  0  0  0  0  0  0  0
    1.8510   11.8140   -4.3400 C   0  0  0  0  0  0  0  0  0  0  0  0
    1.6570   10.5460   -3.4700 C   0  0  0  0  0  0  0  0  0  0  0  0
    0.2480   10.7090   -2.8510 C   0  0  1  0  0  0  0  0  0  0  0  0
   -0.7370   10.2470   -3.9700 C   0  0  0  0  0  0  0  0  0  0  0  0
   -0.0080    9.9530   -1.5070 C   0  0  2  0  0  0  0  0  0  0  0  0
    0.0930    8.4200   -1.5910 C   0  0  0  0  0  0  0  0  0  0  0  0
   -1.1830    7.7130   -1.9070 C   0  0  0  0  0  0  0  0  0  0  0  0
   -2.4140    8.2520   -1.8350 C   0  0  0  0  0  0  0  0  0  0  0  0
   -2.6200    9.6770   -1.3070 C   0  0  1  0  0  0  0  0  0  0  0  0
   -3.7920    9.6890   -0.2910 C   0  0  0  0  0  0  0  0  0  0  0  0
   -5.0720    9.0890   -0.8660 C   0  0  0  0  0  0  0  0  0  0  0  0
   -4.8410    7.6520   -1.3270 C   0  0  2  0  0  0  0  0  0  0  0  0
   -4.5750    6.8380   -0.1800 O   0  0  0  0  0  0  0  0  0  0  0  0
   -3.6770    7.5150   -2.3470 C   0  0  0  0  0  0  0  0  0  0  0  0
   -4.0920    8.1440   -3.6990 C   0  0  0  0  0  0  0  0  0  0  0  0
   -3.4580    6.0020   -2.6210 C   0  0  0  0  0  0  0  0  0  0  0  0
   -1.3220   10.4050   -0.7500 C   0  0  1  0  0  0  0  0  0  0  0  0
   -1.1150   10.0460    0.7540 C   0  0  0  0  0  0  0  0  0  0  0  0
   -1.5400   11.9630   -0.8080 C   0  0  0  0  0  0  0  0  0  0  0  0
   -1.1560   12.6700   -2.1220 C   0  0  0  0  0  0  0  0  0  0  0  0
    0.2470   12.2570   -2.5760 C   0  0  2  0  0  0  0  0  0  0  0  0
    1.2630   12.7290   -1.4810 C   0  0  0  0  0  0  0  0  0  0  0  0
    1.1873   14.2319   -1.8342 H   0  0  0  0  0  0  0  0  0  0  0  0
    1.5579   15.8322   -2.5611 H   0  0  0  0  0  0  0  0  0  0  0  0
   -0.1289   15.2147   -2.5611 H   0  0  0  0  0  0  0  0  0  0  0  0
    2.2575   14.3060   -4.1980 H   0  0  0  0  0  0  0  0  0  0  0  0
   -0.6123   14.7592   -5.0952 H   0  0  0  0  0  0  0  0  0  0  0  0
    0.6624   16.0677   -5.0193 H   0  0  0  0  0  0  0  0  0  0  0  0
    2.0477   14.3807   -6.4720 H   0  0  0  0  0  0  0  0  0  0  0  0
    0.4063   13.7271   -6.8792 H   0  0  0  0  0  0  0  0  0  0  0  0
    0.4044   16.3842   -6.7434 H   0  0  0  0  0  0  0  0  0  0  0  0
    3.2886   14.7284   -8.0358 H   0  0  0  0  0  0  0  0  0  0  0  0
    2.5311   14.1733   -9.5671 H   0  0  0  0  0  0  0  0  0  0  0  0
    3.6065   15.6121   -9.5671 H   0  0  0  0  0  0  0  0  0  0  0  0
    1.7168   18.0619   -8.5685 H   0  0  0  0  0  0  0  0  0  0  0  0
    2.6013   17.3907   -9.9806 H   0  0  0  0  0  0  0  0  0  0  0  0
    0.8054   17.4277   -9.9806 H   0  0  0  0  0  0  0  0  0  0  0  0
   -0.1213   12.8498   -4.6475 H   0  0  0  0  0  0  0  0  0  0  0  0
    1.7727   11.5571   -5.4067 H   0  0  0  0  0  0  0  0  0  0  0  0
    2.8435   12.2584   -4.1744 H   0  0  0  0  0  0  0  0  0  0  0  0
    1.7062    9.6386   -4.0898 H   0  0  0  0  0  0  0  0  0  0  0  0
    2.4396   10.4419   -2.7040 H   0  0  0  0  0  0  0  0  0  0  0  0
   -1.6416    9.8227   -3.5099 H   0  0  0  0  0  0  0  0  0  0  0  0
   -1.0132   11.1095   -4.5944 H   0  0  0  0  0  0  0  0  0  0  0  0
   -0.2504    9.4832   -4.5944 H   0  0  0  0  0  0  0  0  0  0  0  0
    0.8434   10.2747   -0.8893 H   0  0  0  0  0  0  0  0  0  0  0  0
    0.8231    8.1700   -2.3748 H   0  0  0  0  0  0  0  0  0  0  0  0
    0.3891    8.0793   -0.5879 H   0  0  0  0  0  0  0  0  0  0  0  0
   -1.1111    6.6626   -2.2257 H   0  0  0  0  0  0  0  0  0  0  0  0
   -2.8790   10.2905   -2.1825 H   0  0  0  0  0  0  0  0  0  0  0  0
   -3.4968    9.1071    0.5946 H   0  0  0  0  0  0  0  0  0  0  0  0
   -4.0010   10.7382   -0.0352 H   0  0  0  0  0  0  0  0  0  0  0  0
   -5.8532    9.0976   -0.0917 H   0  0  0  0  0  0  0  0  0  0  0  0
   -5.3835    9.6904   -1.7328 H   0  0  0  0  0  0  0  0  0  0  0  0
   -5.7524    7.3213   -1.8466 H   0  0  0  0  0  0  0  0  0  0  0  0
   -4.6770    5.9090   -0.4490 H   0  0  0  0  0  0  0  0  0  0  0  0
   -4.6892    9.0491   -3.5144 H   0  0  0  0  0  0  0  0  0  0  0  0
   -3.1912    8.4096   -4.2717 H   0  0  0  0  0  0  0  0  0  0  0  0
   -4.6905    7.4203   -4.2717 H   0  0  0  0  0  0  0  0  0  0  0  0
   -3.3801    5.4637   -1.6649 H   0  0  0  0  0  0  0  0  0  0  0  0
   -4.3083    5.6067   -3.1961 H   0  0  0  0  0  0  0  0  0  0  0  0
   -2.5305    5.8640   -3.1961 H   0  0  0  0  0  0  0  0  0  0  0  0
   -1.5658   10.8278    1.3830 H   0  0  0  0  0  0  0  0  0  0  0  0
   -1.5947    9.0799    0.9698 H   0  0  0  0  0  0  0  0  0  0  0  0
   -0.0386    9.9772    0.9698 H   0  0  0  0  0  0  0  0  0  0  0  0
   -2.6073   12.1566   -0.6256 H   0  0  0  0  0  0  0  0  0  0  0  0
   -0.8599   12.3771   -0.0491 H   0  0  0  0  0  0  0  0  0  0  0  0
   -1.8816   12.3978   -2.9026 H   0  0  0  0  0  0  0  0  0  0  0  0
   -1.1641   13.7567   -1.9513 H   0  0  0  0  0  0  0  0  0  0  0  0
    0.8434   12.5341   -0.4830 H   0  0  0  0  0  0  0  0  0  0  0  0
    2.2079   12.1777   -1.5955 H   0  0  0  0  0  0  0  0  0  0  0  0
    1.4511   13.8067   -1.5955 H   0  0  0  0  0  0  0  0  0  0  0  0
  1  2  1  0
  2  3  1  0
  3  4  1  0
  4  5  1  0
  5  6  1  0
  6  7  1  0
  7  8  1  0
  7  9  1  0
  2 10  1  0
 10 11  1  0
 11 12  1  0
 12 13  1  0
 13 14  1  6
 13 15  1  0
 15 16  1  0
 16 17  1  0
 17 18  2  0
 18 19  1  0
 19 20  1  0
 20 21  1  0
 21 22  1  0
 22 23  1  0
 22 24  1  0
 24 25  1  0
 24 26  1  0
 19 27  1  0
 27 28  1  1
 27 29  1  0
 29 30  1  0
 30 31  1  0
 31 32  1  1
  7  5  1  0
 31 10  1  0
 31 13  1  0
 27 15  1  0
 24 18  1  0
  1 33  1  0
  1 34  1  0
  1 35  1  0
  2 36  1  6
  3 37  1  0
  3 38  1  0
  4 39  1  0
  4 40  1  0
  5 41  1  1
  8 42  1  0
  8 43  1  0
  8 44  1  0
  9 45  1  0
  9 46  1  0
  9 47  1  0
 10 48  1  6
 11 49  1  0
 11 50  1  0
 12 51  1  0
 12 52  1  0
 14 53  1  0
 14 54  1  0
 14 55  1  0
 15 56  1  1
 16 57  1  0
 16 58  1  0
 17 59  1  0
 19 60  1  6
 20 61  1  0
 20 62  1  0
 21 63  1  0
 21 64  1  0
 22 65  1  6
 23 66  1  0
 25 67  1  0
 25 68  1  0
 25 69  1  0
 26 70  1  0
 26 71  1  0
 26 72  1  0
 28 73  1  0
 28 74  1  0
 28 75  1  0
 29 76  1  0
 29 77  1  0
 30 78  1  0
 30 79  1  0
 32 80  1  0
 32 81  1  0
 32 82  1  0
M  END
>  <meeko>  (17) 
{"is_sidechain": [false], "intermolecular_energy": 2.731, "internal_energy": -0.839}

$$$$
EPH_relaxed_0001_pdb2pqr_Repair_281_r2_0001_out
     RDKit          3D

 82 86  0  0  0  0  0  0  0  0999 V2000
   -1.6950   14.8520    0.4840 C   0  0  0  0  0  0  0  0  0  0  0  0
   -0.3490   15.5490    0.2710 C   0  0  2  0  0  0  0  0  0  0  0  0
   -0.3980   16.5650   -0.8870 C   0  0  0  0  0  0  0  0  0  0  0  0
   -0.0180   17.9900   -0.4730 C   0  0  0  0  0  0  0  0  0  0  0  0
    1.4140   18.0780   -0.0390 C   0  0  2  0  0  0  0  0  0  0  0  0
    2.0810   19.2890   -0.4170 O   0  0  0  0  0  0  0  0  0  0  0  0
    2.5830   18.0780   -1.0060 C   0  0  0  0  0  0  0  0  0  0  0  0
    2.3720   17.9880   -2.4850 C   0  0  0  0  0  0  0  0  0  0  0  0
    3.9320   17.6750   -0.4970 C   0  0  0  0  0  0  0  0  0  0  0  0
    0.7380   14.5130    0.0090 C   0  0  1  0  0  0  0  0  0  0  0  0
    0.8660   13.4780    1.1590 C   0  0  0  0  0  0  0  0  0  0  0  0
    1.2370   12.1230    0.5030 C   0  0  0  0  0  0  0  0  0  0  0  0
    1.6320   12.4880   -0.9470 C   0  0  1  0  0  0  0  0  0  0  0  0
    3.1080   12.9860   -0.8470 C   0  0  0  0  0  0  0  0  0  0  0  0
    1.4770   11.3530   -2.0120 C   0  0  2  0  0  0  0  0  0  0  0  0
    2.3560   10.1130   -1.7760 C   0  0  0  0  0  0  0  0  0  0  0  0
    3.7010   10.1520   -2.4250 C   0  0  0  0  0  0  0  0  0  0  0  0
    4.0770   11.0060   -3.3940 C   0  0  0  0  0  0  0  0  0  0  0  0
    3.0750   11.9940   -4.0060 C   0  0  1  0  0  0  0  0  0  0  0  0
    3.1980   11.9660   -5.5520 C   0  0  0  0  0  0  0  0  0  0  0  0
    4.6260   12.2120   -6.0300 C   0  0  0  0  0  0  0  0  0  0  0  0
    5.5820   11.1750   -5.4470 C   0  0  2  0  0  0  0  0  0  0  0  0
    5.2610    9.8930   -5.9960 O   0  0  0  0  0  0  0  0  0  0  0  0
    5.5390   11.1050   -3.8950 C   0  0  0  0  0  0  0  0  0  0  0  0
    6.1710   12.3860   -3.2980 C   0  0  0  0  0  0  0  0  0  0  0  0
    6.4420    9.9250   -3.4450 C   0  0  0  0  0  0  0  0  0  0  0  0
    1.5720   11.8530   -3.5100 C   0  0  1  0  0  0  0  0  0  0  0  0
    0.8220   10.7980   -4.3800 C   0  0  0  0  0  0  0  0  0  0  0  0
    0.8260   13.2220   -3.7330 C   0  0  0  0  0  0  0  0  0  0  0  0
    0.9180   14.2560   -2.5940 C   0  0  0  0  0  0  0  0  0  0  0  0
    0.5790   13.6160   -1.2440 C   0  0  2  0  0  0  0  0  0  0  0  0
   -0.9080   13.1260   -1.3070 C   0  0  0  0  0  0  0  0  0  0  0  0
   -1.8893   14.7514    1.5620 H   0  0  0  0  0  0  0  0  0  0  0  0
   -2.4945   15.4494    0.0215 H   0  0  0  0  0  0  0  0  0  0  0  0
   -1.6685   13.8543    0.0215 H   0  0  0  0  0  0  0  0  0  0  0  0
   -0.1168   16.1069    1.1902 H   0  0  0  0  0  0  0  0  0  0  0  0
    0.2999   16.2331   -1.6698 H   0  0  0  0  0  0  0  0  0  0  0  0
   -1.4393   16.5999   -1.2400 H   0  0  0  0  0  0  0  0  0  0  0  0
   -0.1731   18.6632   -1.3290 H   0  0  0  0  0  0  0  0  0  0  0  0
   -0.6525   18.2808    0.3772 H   0  0  0  0  0  0  0  0  0  0  0  0
    1.2018   17.4833    0.8617 H   0  0  0  0  0  0  0  0  0  0  0  0
    1.3776   17.5639   -2.6884 H   0  0  0  0  0  0  0  0  0  0  0  0
    2.4393   18.9931   -2.9268 H   0  0  0  0  0  0  0  0  0  0  0  0
    3.1440   17.3409   -2.9268 H   0  0  0  0  0  0  0  0  0  0  0  0
    3.9245   17.6772    0.6030 H   0  0  0  0  0  0  0  0  0  0  0  0
    4.1742   16.6653   -0.8600 H   0  0  0  0  0  0  0  0  0  0  0  0
    4.6884   18.3864   -0.8600 H   0  0  0  0  0  0  0  0  0  0  0  0
    1.6033   15.1810   -0.1135 H   0  0  0  0  0  0  0  0  0  0  0  0
    1.6544   13.7874    1.8609 H   0  0  0  0  0  0  0  0  0  0  0  0
   -0.0740   13.3984    1.7247 H   0  0  0  0  0  0  0  0  0  0  0  0
    2.0817   11.6548    1.0296 H   0  0  0  0  0  0  0  0  0  0  0  0
    0.4087   11.4001    0.5408 H   0  0  0  0  0  0  0  0  0  0  0  0
    3.3918   13.0817    0.2115 H   0  0  0  0  0  0  0  0  0  0  0  0
    3.7733   12.2626   -1.3410 H   0  0  0  0  0  0  0  0  0  0  0  0
    3.1991   13.9646   -1.3410 H   0  0  0  0  0  0  0  0  0  0  0  0
    0.4411   11.0191   -1.8525 H   0  0  0  0  0  0  0  0  0  0  0  0
    2.5048   10.0031   -0.6917 H   0  0  0  0  0  0  0  0  0  0  0  0
    1.8208    9.2685   -2.2348 H   0  0  0  0  0  0  0  0  0  0  0  0
    4.4471    9.4204   -2.0814 H   0  0  0  0  0  0  0  0  0  0  0  0
    3.3577   12.9875   -3.6278 H   0  0  0  0  0  0  0  0  0  0  0  0
    2.8698   10.9805   -5.9140 H   0  0  0  0  0  0  0  0  0  0  0  0
    2.5682   12.7745   -5.9517 H   0  0  0  0  0  0  0  0  0  0  0  0
    4.6539   12.1504   -7.1279 H   0  0  0  0  0  0  0  0  0  0  0  0
    4.9423   13.2102   -5.6929 H   0  0  0  0  0  0  0  0  0  0  0  0
    6.6038   11.4791   -5.7180 H   0  0  0  0  0  0  0  0  0  0  0  0
    4.6780    9.4400   -5.3640 H   0  0  0  0  0  0  0  0  0  0  0  0
    6.1437   12.3307   -2.1997 H   0  0  0  0  0  0  0  0  0  0  0  0
    7.2146   12.4713   -3.6350 H   0  0  0  0  0  0  0  0  0  0  0  0
    5.6037   13.2661   -3.6350 H   0  0  0  0  0  0  0  0  0  0  0  0
    6.4726    9.8850   -2.3462 H   0  0  0  0  0  0  0  0  0  0  0  0
    6.0334    8.9811   -3.8350 H   0  0  0  0  0  0  0  0  0  0  0  0
    7.4599   10.0728   -3.8350 H   0  0  0  0  0  0  0  0  0  0  0  0
    0.3105   10.0785   -3.7238 H   0  0  0  0  0  0  0  0  0  0  0  0
    0.0813   11.3061   -5.0149 H   0  0  0  0  0  0  0  0  0  0  0  0
    1.5453   10.2653   -5.0149 H   0  0  0  0  0  0  0  0  0  0  0  0
    1.2447   13.6858   -4.6383 H   0  0  0  0  0  0  0  0  0  0  0  0
   -0.2406   12.9614   -3.8003 H   0  0  0  0  0  0  0  0  0  0  0  0
    1.9411   14.6582   -2.5548 H   0  0  0  0  0  0  0  0  0  0  0  0
    0.1952   15.0612   -2.7919 H   0  0  0  0  0  0  0  0  0  0  0  0
   -1.2956   12.9983   -0.2855 H   0  0  0  0  0  0  0  0  0  0  0  0
   -1.5173   13.8709   -1.8399 H   0  0  0  0  0  0  0  0  0  0  0  0
   -0.9551   12.1648   -1.8399 H   0  0  0  0  0  0  0  0  0  0  0  0
  1  2  1  0
  2  3  1  0
  3  4  1  0
  4  5  1  0
  5  6  1  0
  6  7  1  0
  7  8  1  0
  7  9  1  0
  2 10  1  0
 10 11  1  0
 11 12  1  0
 12 13  1  0
 13 14  1  1
 13 15  1  0
 15 16  1  0
 16 17  1  0
 17 18  2  0
 18 19  1  0
 19 20  1  0
 20 21  1  0
 21 22  1  0
 22 23  1  0
 22 24  1  0
 24 25  1  0
 24 26  1  0
 19 27  1  0
 27 28  1  6
 27 29  1  0
 29 30  1  0
 30 31  1  0
 31 32  1  6
  7  5  1  0
 31 10  1  0
 31 13  1  0
 27 15  1  0
 24 18  1  0
  1 33  1  0
  1 34  1  0
  1 35  1  0
  2 36  1  1
  3 37  1  0
  3 38  1  0
  4 39  1  0
  4 40  1  0
  5 41  1  1
  8 42  1  0
  8 43  1  0
  8 44  1  0
  9 45  1  0
  9 46  1  0
  9 47  1  0
 10 48  1  6
 11 49  1  0
 11 50  1  0
 12 51  1  0
 12 52  1  0
 14 53  1  0
 14 54  1  0
 14 55  1  0
 15 56  1  6
 16 57  1  0
 16 58  1  0
 17 59  1  0
 19 60  1  1
 20 61  1  0
 20 62  1  0
 21 63  1  0
 21 64  1  0
 22 65  1  1
 23 66  1  0
 25 67  1  0
 25 68  1  0
 25 69  1  0
 26 70  1  0
 26 71  1  0
 26 72  1  0
 28 73  1  0
 28 74  1  0
 28 75  1  0
 29 76  1  0
 29 77  1  0
 30 78  1  0
 30 79  1  0
 32 80  1  0
 32 81  1  0
 32 82  1  0
M  END
>  <meeko>  (18) 
{"is_sidechain": [false], "intermolecular_energy": 2.731, "internal_energy": -0.839}

$$$$
EPH_relaxed_0001_pdb2pqr_Repair_281_r2_0001_out
     RDKit          3D

 82 86  0  0  0  0  0  0  0  0999 V2000
   -2.4350    7.7560   -0.0520 C   0  0  0  0  0  0  0  0  0  0  0  0
   -3.0690    9.1500   -0.0550 C   0  0  2  0  0  0  0  0  0  0  0  0
   -4.5580    9.1100   -0.4520 C   0  0  0  0  0  0  0  0  0  0  0  0
   -5.1460    7.6970   -0.4950 C   0  0  0  0  0  0  0  0  0  0  0  0
   -5.8530    7.4290   -1.7890 C   0  0  2  0  0  0  0  0  0  0  0  0
   -6.7860    8.4430   -2.1830 O   0  0  0  0  0  0  0  0  0  0  0  0
   -7.3410    7.1510   -1.8880 C   0  0  0  0  0  0  0  0  0  0  0  0
   -8.2120    7.1260   -0.6710 C   0  0  0  0  0  0  0  0  0  0  0  0
   -7.8550    6.4270   -3.0930 C   0  0  0  0  0  0  0  0  0  0  0  0
   -2.3020   10.0680   -1.0000 C   0  0  1  0  0  0  0  0  0  0  0  0
   -2.9440   11.4760   -1.1170 C   0  0  0  0  0  0  0  0  0  0  0  0
   -1.7800   12.4860   -1.2850 C   0  0  0  0  0  0  0  0  0  0  0  0
   -0.5440   11.6080   -1.5910 C   0  0  1  0  0  0  0  0  0  0  0  0
   -0.6490   11.2840   -3.1140 C   0  0  0  0  0  0  0  0  0  0  0  0
    0.8470   12.2230   -1.2260 C   0  0  2  0  0  0  0  0  0  0  0  0
    1.2120   13.5090   -1.9870 C   0  0  0  0  0  0  0  0  0  0  0  0
    1.9520   13.3050   -3.2670 C   0  0  0  0  0  0  0  0  0  0  0  0
    2.5590   12.1650   -3.6460 C   0  0  0  0  0  0  0  0  0  0  0  0
    2.6200   10.9550   -2.7050 C   0  0  1  0  0  0  0  0  0  0  0  0
    4.0620   10.3820   -2.6910 C   0  0  0  0  0  0  0  0  0  0  0  0
    4.5770   10.0600   -4.0900 C   0  0  0  0  0  0  0  0  0  0  0  0
    4.5550   11.3010   -4.9790 C   0  0  2  0  0  0  0  0  0  0  0  0
    5.5100   12.2430   -4.4790 O   0  0  0  0  0  0  0  0  0  0  0  0
    3.1550   11.9710   -5.0620 C   0  0  0  0  0  0  0  0  0  0  0  0
    2.1940   11.0680   -5.8750 C   0  0  0  0  0  0  0  0  0  0  0  0
    3.3030   13.2870   -5.8720 C   0  0  0  0  0  0  0  0  0  0  0  0
    2.0400   11.1830   -1.2430 C   0  0  1  0  0  0  0  0  0  0  0  0
    3.1500   11.7630   -0.3150 C   0  0  0  0  0  0  0  0  0  0  0  0
    1.6300    9.7920   -0.6300 C   0  0  0  0  0  0  0  0  0  0  0  0
    0.2030    9.2950   -0.9270 C   0  0  0  0  0  0  0  0  0  0  0  0
   -0.8300   10.3890   -0.6400 C   0  0  2  0  0  0  0  0  0  0  0  0
   -0.7630   10.7210    0.8900 C   0  0  0  0  0  0  0  0  0  0  0  0
   -2.2840    7.4241    0.9858 H   0  0  0  0  0  0  0  0  0  0  0  0
   -3.1003    7.0495   -0.5698 H   0  0  0  0  0  0  0  0  0  0  0  0
   -1.4652    7.7931   -0.5698 H   0  0  0  0  0  0  0  0  0  0  0  0
   -3.0118    9.5416    0.9713 H   0  0  0  0  0  0  0  0  0  0  0  0
   -5.1284    9.7013    0.2794 H   0  0  0  0  0  0  0  0  0  0  0  0
   -4.6301    9.5192   -1.4705 H   0  0  0  0  0  0  0  0  0  0  0  0
   -4.3307    6.9681   -0.3768 H   0  0  0  0  0  0  0  0  0  0  0  0
   -5.8783    7.6058    0.3207 H   0  0  0  0  0  0  0  0  0  0  0  0
   -4.9753    6.8971   -2.1848 H   0  0  0  0  0  0  0  0  0  0  0  0
   -7.5825    7.1441    0.2309 H   0  0  0  0  0  0  0  0  0  0  0  0
   -8.8726    8.0056   -0.6747 H   0  0  0  0  0  0  0  0  0  0  0  0
   -8.8210    6.2100   -0.6747 H   0  0  0  0  0  0  0  0  0  0  0  0
   -8.4642    5.5689   -2.7730 H   0  0  0  0  0  0  0  0  0  0  0  0
   -8.4716    7.1100   -3.6958 H   0  0  0  0  0  0  0  0  0  0  0  0
   -7.0069    6.0701   -3.6958 H   0  0  0  0  0  0  0  0  0  0  0  0
   -2.3415    9.4628   -1.9177 H   0  0  0  0  0  0  0  0  0  0  0  0
   -3.6102   11.5170   -1.9913 H   0  0  0  0  0  0  0  0  0  0  0  0
   -3.5453   11.7110   -0.2264 H   0  0  0  0  0  0  0  0  0  0  0  0
   -1.9818   13.1764   -2.1173 H   0  0  0  0  0  0  0  0  0  0  0  0
   -1.6372   13.1110   -0.3911 H   0  0  0  0  0  0  0  0  0  0  0  0
   -0.9857   10.2451   -3.2455 H   0  0  0  0  0  0  0  0  0  0  0  0
   -1.3721   11.9662   -3.5850 H   0  0  0  0  0  0  0  0  0  0  0  0
    0.3367   11.4124   -3.5850 H   0  0  0  0  0  0  0  0  0  0  0  0
    0.7028   12.5267   -0.1786 H   0  0  0  0  0  0  0  0  0  0  0  0
    0.2790   14.0449   -2.2157 H   0  0  0  0  0  0  0  0  0  0  0  0
    1.8923   14.0691   -1.3286 H   0  0  0  0  0  0  0  0  0  0  0  0
    2.0059   14.1583   -3.9590 H   0  0  0  0  0  0  0  0  0  0  0  0
    1.9262   10.2104   -3.1223 H   0  0  0  0  0  0  0  0  0  0  0  0
    4.7316   11.1235   -2.2308 H   0  0  0  0  0  0  0  0  0  0  0  0
    4.0427    9.4432   -2.1180 H   0  0  0  0  0  0  0  0  0  0  0  0
    5.6096    9.6881   -4.0166 H   0  0  0  0  0  0  0  0  0  0  0  0
    3.9238    9.2963   -4.5373 H   0  0  0  0  0  0  0  0  0  0  0  0
    4.8098   10.9799   -5.9998 H   0  0  0  0  0  0  0  0  0  0  0  0
    5.3900   12.3000   -3.5160 H   0  0  0  0  0  0  0  0  0  0  0  0
    1.5699   10.4816   -5.1846 H   0  0  0  0  0  0  0  0  0  0  0  0
    1.5498   11.6951   -6.5088 H   0  0  0  0  0  0  0  0  0  0  0  0
    2.7799   10.3861   -6.5088 H   0  0  0  0  0  0  0  0  0  0  0  0
    3.3984   14.1356   -5.1786 H   0  0  0  0  0  0  0  0  0  0  0  0
    4.2002   13.2286   -6.5057 H   0  0  0  0  0  0  0  0  0  0  0  0
    2.4152   13.4293   -6.5057 H   0  0  0  0  0  0  0  0  0  0  0  0
    2.8639   11.6135    0.7366 H   0  0  0  0  0  0  0  0  0  0  0  0
    4.1007   11.2464   -0.5133 H   0  0  0  0  0  0  0  0  0  0  0  0
    3.2688   12.8384   -0.5133 H   0  0  0  0  0  0  0  0  0  0  0  0
    2.3319    9.0383   -1.0164 H   0  0  0  0  0  0  0  0  0  0  0  0
    1.6629    9.9372    0.4599 H   0  0  0  0  0  0  0  0  0  0  0  0
    0.1359    9.0058   -1.9862 H   0  0  0  0  0  0  0  0  0  0  0  0
   -0.0101    8.4328   -0.2780 H   0  0  0  0  0  0  0  0  0  0  0  0
   -0.9476    9.8061    1.4721 H   0  0  0  0  0  0  0  0  0  0  0  0
    0.2332   11.1173    1.1359 H   0  0  0  0  0  0  0  0  0  0  0  0
   -1.5276   11.4726    1.1359 H   0  0  0  0  0  0  0  0  0  0  0  0
  1  2  1  0
  2  3  1  0
  3  4  1  0
  4  5  1  0
  5  6  1  0
  6  7  1  0
  7  8  1  0
  7  9  1  0
  2 10  1  0
 10 11  1  0
 11 12  1  0
 12 13  1  0
 13 14  1  6
 13 15  1  0
 15 16  1  0
 16 17  1  0
 17 18  2  0
 18 19  1  0
 19 20  1  0
 20 21  1  0
 21 22  1  0
 22 23  1  0
 22 24  1  0
 24 25  1  0
 24 26  1  0
 19 27  1  0
 27 28  1  1
 27 29  1  0
 29 30  1  0
 30 31  1  0
 31 32  1  1
  7  5  1  0
 31 10  1  0
 31 13  1  0
 27 15  1  0
 24 18  1  0
  1 33  1  0
  1 34  1  0
  1 35  1  0
  2 36  1  1
  3 37  1  0
  3 38  1  0
  4 39  1  0
  4 40  1  0
  5 41  1  6
  8 42  1  0
  8 43  1  0
  8 44  1  0
  9 45  1  0
  9 46  1  0
  9 47  1  0
 10 48  1  6
 11 49  1  0
 11 50  1  0
 12 51  1  0
 12 52  1  0
 14 53  1  0
 14 54  1  0
 14 55  1  0
 15 56  1  1
 16 57  1  0
 16 58  1  0
 17 59  1  0
 19 60  1  6
 20 61  1  0
 20 62  1  0
 21 63  1  0
 21 64  1  0
 22 65  1  6
 23 66  1  0
 25 67  1  0
 25 68  1  0
 25 69  1  0
 26 70  1  0
 26 71  1  0
 26 72  1  0
 28 73  1  0
 28 74  1  0
 28 75  1  0
 29 76  1  0
 29 77  1  0
 30 78  1  0
 30 79  1  0
 32 80  1  0
 32 81  1  0
 32 82  1  0
M  END
>  <meeko>  (19) 
{"is_sidechain": [false], "intermolecular_energy": 2.731, "internal_energy": -0.839}

$$$$
