EPH_relaxed_0001_pdb2pqr_Repair_201_r2_0001_out
     RDKit          3D

 82 86  0  0  0  0  0  0  0  0999 V2000
    3.7290   17.9700    0.6580 C   0  0  0  0  0  0  0  0  0  0  0  0
    2.9350   18.3550   -0.5940 C   0  0  2  0  0  0  0  0  0  0  0  0
    2.1710   19.6820   -0.4110 C   0  0  0  0  0  0  0  0  0  0  0  0
    1.1980   19.6740    0.7720 C   0  0  0  0  0  0  0  0  0  0  0  0
   -0.1550   20.1860    0.3800 C   0  0  2  0  0  0  0  0  0  0  0  0
   -1.1210   20.1950    1.4390 O   0  0  0  0  0  0  0  0  0  0  0  0
   -1.3980   19.3160    0.3360 C   0  0  0  0  0  0  0  0  0  0  0  0
   -1.3460   17.8630    0.6870 C   0  0  0  0  0  0  0  0  0  0  0  0
   -2.5500   19.7580   -0.5120 C   0  0  0  0  0  0  0  0  0  0  0  0
    1.9620   17.2390   -0.9560 C   0  0  1  0  0  0  0  0  0  0  0  0
    0.8570   17.7060   -1.9410 C   0  0  0  0  0  0  0  0  0  0  0  0
    0.5490   16.5040   -2.8700 C   0  0  0  0  0  0  0  0  0  0  0  0
    1.2350   15.2970   -2.1870 C   0  0  1  0  0  0  0  0  0  0  0  0
    0.2410   14.8500   -1.0700 C   0  0  0  0  0  0  0  0  0  0  0  0
    1.6280   14.1070   -3.1210 C   0  0  2  0  0  0  0  0  0  0  0  0
    0.4480   13.4090   -3.8200 C   0  0  0  0  0  0  0  0  0  0  0  0
   -0.1470   12.2610   -3.0750 C   0  0  0  0  0  0  0  0  0  0  0  0
    0.4220   11.6270   -2.0320 C   0  0  0  0  0  0  0  0  0  0  0  0
    1.8370   11.9910   -1.5650 C   0  0  1  0  0  0  0  0  0  0  0  0
    2.6580   10.6950   -1.3410 C   0  0  0  0  0  0  0  0  0  0  0  0
    1.9650    9.7180   -0.3960 C   0  0  0  0  0  0  0  0  0  0  0  0
    0.5850    9.3350   -0.9240 C   0  0  2  0  0  0  0  0  0  0  0  0
    0.7470    8.5780   -2.1280 O   0  0  0  0  0  0  0  0  0  0  0  0
   -0.3300   10.5610   -1.1960 C   0  0  0  0  0  0  0  0  0  0  0  0
   -0.7500   11.2050    0.1480 C   0  0  0  0  0  0  0  0  0  0  0  0
   -1.6360   10.0450   -1.8580 C   0  0  0  0  0  0  0  0  0  0  0  0
    2.6080   13.0570   -2.4560 C   0  0  1  0  0  0  0  0  0  0  0  0
    3.3490   12.3370   -3.6240 C   0  0  0  0  0  0  0  0  0  0  0  0
    3.7220   13.7480   -1.5830 C   0  0  0  0  0  0  0  0  0  0  0  0
    3.3000   14.9910   -0.7760 C   0  0  0  0  0  0  0  0  0  0  0  0
    2.5450   15.9880   -1.6600 C   0  0  2  0  0  0  0  0  0  0  0  0
    3.5270   16.4730   -2.7810 C   0  0  0  0  0  0  0  0  0  0  0  0
    3.1563   18.2477    1.5552 H   0  0  0  0  0  0  0  0  0  0  0  0
    3.9086   16.8848    0.6590 H   0  0  0  0  0  0  0  0  0  0  0  0
    4.6923   18.5011    0.6590 H   0  0  0  0  0  0  0  0  0  0  0  0
    3.6559   18.4991   -1.4123 H   0  0  0  0  0  0  0  0  0  0  0  0
    2.9046   20.4860   -0.2519 H   0  0  0  0  0  0  0  0  0  0  0  0
    1.5708   19.8355   -1.3200 H   0  0  0  0  0  0  0  0  0  0  0  0
    1.0956   18.6433    1.1425 H   0  0  0  0  0  0  0  0  0  0  0  0
    1.6019   20.3351    1.5529 H   0  0  0  0  0  0  0  0  0  0  0  0
    0.2911   20.8728   -0.3543 H   0  0  0  0  0  0  0  0  0  0  0  0
   -1.3420   17.7500    1.7812 H   0  0  0  0  0  0  0  0  0  0  0  0
   -2.2265   17.3531    0.2690 H   0  0  0  0  0  0  0  0  0  0  0  0
   -0.4313   17.4173    0.2690 H   0  0  0  0  0  0  0  0  0  0  0  0
   -3.3805   20.0767    0.1350 H   0  0  0  0  0  0  0  0  0  0  0  0
   -2.2362   20.5996   -1.1470 H   0  0  0  0  0  0  0  0  0  0  0  0
   -2.8797   18.9225   -1.1470 H   0  0  0  0  0  0  0  0  0  0  0  0
    1.6044   16.9726    0.0496 H   0  0  0  0  0  0  0  0  0  0  0  0
   -0.0469   17.9971   -1.3859 H   0  0  0  0  0  0  0  0  0  0  0  0
    1.1889   18.5792   -2.5218 H   0  0  0  0  0  0  0  0  0  0  0  0
   -0.5361   16.3412   -2.9475 H   0  0  0  0  0  0  0  0  0  0  0  0
    0.9130   16.6653   -3.8954 H   0  0  0  0  0  0  0  0  0  0  0  0
    0.6844   15.0494   -0.0833 H   0  0  0  0  0  0  0  0  0  0  0  0
   -0.6994   15.4119   -1.1697 H   0  0  0  0  0  0  0  0  0  0  0  0
    0.0373   13.7736   -1.1697 H   0  0  0  0  0  0  0  0  0  0  0  0
    2.1932   14.6106   -3.9191 H   0  0  0  0  0  0  0  0  0  0  0  0
   -0.3428   14.1568   -3.9796 H   0  0  0  0  0  0  0  0  0  0  0  0
    0.8527   12.9889   -4.7526 H   0  0  0  0  0  0  0  0  0  0  0  0
   -1.1331   11.9026   -3.4055 H   0  0  0  0  0  0  0  0  0  0  0  0
    1.7148   12.5238   -0.6104 H   0  0  0  0  0  0  0  0  0  0  0  0
    2.8073   10.2002   -2.3120 H   0  0  0  0  0  0  0  0  0  0  0  0
    3.6150   10.9820   -0.8808 H   0  0  0  0  0  0  0  0  0  0  0  0
    2.5794    8.8104   -0.3025 H   0  0  0  0  0  0  0  0  0  0  0  0
    1.8441   10.2030    0.5839 H   0  0  0  0  0  0  0  0  0  0  0  0
    0.0866    8.7404   -0.1442 H   0  0  0  0  0  0  0  0  0  0  0  0
    0.2550    9.0360   -2.8310 H   0  0  0  0  0  0  0  0  0  0  0  0
   -0.3577   10.6035    0.9812 H   0  0  0  0  0  0  0  0  0  0  0  0
   -0.3430   12.2251    0.2088 H   0  0  0  0  0  0  0  0  0  0  0  0
   -1.8476   11.2439    0.2088 H   0  0  0  0  0  0  0  0  0  0  0  0
   -2.3558    9.7606   -1.0763 H   0  0  0  0  0  0  0  0  0  0  0  0
   -2.0688   10.8397   -2.4834 H   0  0  0  0  0  0  0  0  0  0  0  0
   -1.4088    9.1691   -2.4834 H   0  0  0  0  0  0  0  0  0  0  0  0
    4.0803   11.6264   -3.2115 H   0  0  0  0  0  0  0  0  0  0  0  0
    2.6188   11.7942   -4.2422 H   0  0  0  0  0  0  0  0  0  0  0  0
    3.8706   13.0825   -4.2422 H   0  0  0  0  0  0  0  0  0  0  0  0
    4.0977   12.9997   -0.8696 H   0  0  0  0  0  0  0  0  0  0  0  0
    4.4684   14.1125   -2.3042 H   0  0  0  0  0  0  0  0  0  0  0  0
    2.6470   14.6779    0.0520 H   0  0  0  0  0  0  0  0  0  0  0  0
    4.2051   15.4814   -0.3882 H   0  0  0  0  0  0  0  0  0  0  0  0
    4.4219   16.9150   -2.3185 H   0  0  0  0  0  0  0  0  0  0  0  0
    3.8219   15.6169   -3.4057 H   0  0  0  0  0  0  0  0  0  0  0  0
    3.0265   17.2275   -3.4057 H   0  0  0  0  0  0  0  0  0  0  0  0
  1  2  1  0
  2  3  1  0
  3  4  1  0
  4  5  1  0
  5  6  1  0
  6  7  1  0
  7  8  1  0
  7  9  1  0
  2 10  1  0
 10 11  1  0
 11 12  1  0
 12 13  1  0
 13 14  1  1
 13 15  1  0
 15 16  1  0
 16 17  1  0
 17 18  2  0
 18 19  1  0
 19 20  1  0
 20 21  1  0
 21 22  1  0
 22 23  1  0
 22 24  1  0
 24 25  1  0
 24 26  1  0
 19 27  1  0
 27 28  1  6
 27 29  1  0
 29 30  1  0
 30 31  1  0
 31 32  1  6
  7  5  1  0
 31 10  1  0
 31 13  1  0
 27 15  1  0
 24 18  1  0
  1 33  1  0
  1 34  1  0
  1 35  1  0
  2 36  1  6
  3 37  1  0
  3 38  1  0
  4 39  1  0
  4 40  1  0
  5 41  1  6
  8 42  1  0
  8 43  1  0
  8 44  1  0
  9 45  1  0
  9 46  1  0
  9 47  1  0
 10 48  1  1
 11 49  1  0
 11 50  1  0
 12 51  1  0
 12 52  1  0
 14 53  1  0
 14 54  1  0
 14 55  1  0
 15 56  1  6
 16 57  1  0
 16 58  1  0
 17 59  1  0
 19 60  1  1
 20 61  1  0
 20 62  1  0
 21 63  1  0
 21 64  1  0
 22 65  1  1
 23 66  1  0
 25 67  1  0
 25 68  1  0
 25 69  1  0
 26 70  1  0
 26 71  1  0
 26 72  1  0
 28 73  1  0
 28 74  1  0
 28 75  1  0
 29 76  1  0
 29 77  1  0
 30 78  1  0
 30 79  1  0
 32 80  1  0
 32 81  1  0
 32 82  1  0
M  END
>  <meeko>  (1) 
{"is_sidechain": [false], "intermolecular_energy": 2.731, "internal_energy": -0.839}

$$$$
EPH_relaxed_0001_pdb2pqr_Repair_201_r2_0001_out
     RDKit          3D

 82 86  0  0  0  0  0  0  0  0999 V2000
    2.3370   19.8120   -1.0950 C   0  0  0  0  0  0  0  0  0  0  0  0
    2.1410   18.7720    0.0120 C   0  0  2  0  0  0  0  0  0  0  0  0
    3.4810   18.3050    0.6150 C   0  0  0  0  0  0  0  0  0  0  0  0
    3.6520   18.6710    2.0920 C   0  0  0  0  0  0  0  0  0  0  0  0
    5.0920   18.8840    2.4470 C   0  0  2  0  0  0  0  0  0  0  0  0
    5.6420   17.9010    3.3350 O   0  0  0  0  0  0  0  0  0  0  0  0
    5.5660   19.2430    3.8430 C   0  0  0  0  0  0  0  0  0  0  0  0
    4.6010   19.4110    4.9750 C   0  0  0  0  0  0  0  0  0  0  0  0
    6.8990   19.9050    3.9990 C   0  0  0  0  0  0  0  0  0  0  0  0
    1.3680   17.5750   -0.5300 C   0  0  1  0  0  0  0  0  0  0  0  0
    0.3210   17.9760   -1.6030 C   0  0  0  0  0  0  0  0  0  0  0  0
    0.2750   16.8220   -2.6370 C   0  0  0  0  0  0  0  0  0  0  0  0
    1.0390   15.6610   -1.9590 C   0  0  1  0  0  0  0  0  0  0  0  0
    0.0010   15.0060   -0.9940 C   0  0  0  0  0  0  0  0  0  0  0  0
    1.6830   14.6050   -2.9160 C   0  0  2  0  0  0  0  0  0  0  0  0
    0.6860   13.8230   -3.7890 C   0  0  0  0  0  0  0  0  0  0  0  0
    0.1740   12.5540   -3.1920 C   0  0  0  0  0  0  0  0  0  0  0  0
    0.7080   11.9160   -2.1340 C   0  0  0  0  0  0  0  0  0  0  0  0
    2.0050   12.4170   -1.4850 C   0  0  1  0  0  0  0  0  0  0  0  0
    2.9630   11.2190   -1.2530 C   0  0  0  0  0  0  0  0  0  0  0  0
    2.3100   10.0930   -0.4580 C   0  0  0  0  0  0  0  0  0  0  0  0
    1.0570    9.5830   -1.1640 C   0  0  2  0  0  0  0  0  0  0  0  0
    1.4430    8.9490   -2.3880 O   0  0  0  0  0  0  0  0  0  0  0  0
    0.0210   10.7030   -1.4600 C   0  0  0  0  0  0  0  0  0  0  0  0
   -0.6200   11.1820   -0.1340 C   0  0  0  0  0  0  0  0  0  0  0  0
   -1.1280   10.0810   -2.2980 C   0  0  0  0  0  0  0  0  0  0  0  0
    2.7180   13.6370   -2.2120 C   0  0  1  0  0  0  0  0  0  0  0  0
    3.6660   13.1090   -3.3310 C   0  0  0  0  0  0  0  0  0  0  0  0
    3.6310   14.3910   -1.1740 C   0  0  0  0  0  0  0  0  0  0  0  0
    2.9660   15.5040   -0.3430 C   0  0  0  0  0  0  0  0  0  0  0  0
    2.1830   16.4660   -1.2420 C   0  0  2  0  0  0  0  0  0  0  0  0
    3.2050   17.1560   -2.2090 C   0  0  0  0  0  0  0  0  0  0  0  0
    2.5228   20.7977   -0.6434 H   0  0  0  0  0  0  0  0  0  0  0  0
    3.1971   19.5263   -1.7184 H   0  0  0  0  0  0  0  0  0  0  0  0
    1.4319   19.8590   -1.7184 H   0  0  0  0  0  0  0  0  0  0  0  0
    1.5663   19.2517    0.8180 H   0  0  0  0  0  0  0  0  0  0  0  0
    3.5426   17.2109    0.5189 H   0  0  0  0  0  0  0  0  0  0  0  0
    4.2797   18.8205    0.0615 H   0  0  0  0  0  0  0  0  0  0  0  0
    3.0937   19.5964    2.2969 H   0  0  0  0  0  0  0  0  0  0  0  0
    3.2690   17.8370    2.6985 H   0  0  0  0  0  0  0  0  0  0  0  0
    5.2926   19.3309    1.4621 H   0  0  0  0  0  0  0  0  0  0  0  0
    5.1373   19.3176    5.9309 H   0  0  0  0  0  0  0  0  0  0  0  0
    4.1324   20.4042    4.9130 H   0  0  0  0  0  0  0  0  0  0  0  0
    3.8243   18.6346    4.9130 H   0  0  0  0  0  0  0  0  0  0  0  0
    7.1288   20.0191    5.0687 H   0  0  0  0  0  0  0  0  0  0  0  0
    7.6735   19.2868    3.5215 H   0  0  0  0  0  0  0  0  0  0  0  0
    6.8745   20.8957    3.5215 H   0  0  0  0  0  0  0  0  0  0  0  0
    0.9450   17.1880    0.4088 H   0  0  0  0  0  0  0  0  0  0  0  0
   -0.6670   18.1071   -1.1376 H   0  0  0  0  0  0  0  0  0  0  0  0
    0.5935   18.9268   -2.0845 H   0  0  0  0  0  0  0  0  0  0  0  0
   -0.7646   16.5315   -2.8489 H   0  0  0  0  0  0  0  0  0  0  0  0
    0.7202   17.1077   -3.6015 H   0  0  0  0  0  0  0  0  0  0  0  0
    0.2993   15.1942    0.0479 H   0  0  0  0  0  0  0  0  0  0  0  0
   -0.9931   15.4407   -1.1750 H   0  0  0  0  0  0  0  0  0  0  0  0
   -0.0345   13.9216   -1.1750 H   0  0  0  0  0  0  0  0  0  0  0  0
    2.2581   15.2355   -3.6100 H   0  0  0  0  0  0  0  0  0  0  0  0
   -0.1759   14.4765   -3.9890 H   0  0  0  0  0  0  0  0  0  0  0  0
    1.2380   13.5320   -4.6949 H   0  0  0  0  0  0  0  0  0  0  0  0
   -0.7150   12.1021   -3.6562 H   0  0  0  0  0  0  0  0  0  0  0  0
    1.7130   12.8545   -0.5189 H   0  0  0  0  0  0  0  0  0  0  0  0
    3.2770   10.8243   -2.2305 H   0  0  0  0  0  0  0  0  0  0  0  0
    3.8206   11.5855   -0.6698 H   0  0  0  0  0  0  0  0  0  0  0  0
    3.0260    9.2647   -0.3522 H   0  0  0  0  0  0  0  0  0  0  0  0
    2.0228   10.4815    0.5302 H   0  0  0  0  0  0  0  0  0  0  0  0
    0.5636    8.8711   -0.4860 H   0  0  0  0  0  0  0  0  0  0  0  0
    0.9530    8.1120   -2.4540 H   0  0  0  0  0  0  0  0  0  0  0  0
   -0.0605   10.7639    0.7158 H   0  0  0  0  0  0  0  0  0  0  0  0
   -0.5898   12.2806   -0.0880 H   0  0  0  0  0  0  0  0  0  0  0  0
   -1.6650   10.8417   -0.0880 H   0  0  0  0  0  0  0  0  0  0  0  0
   -1.8918    9.6675   -1.6230 H   0  0  0  0  0  0  0  0  0  0  0  0
   -1.5808   10.8572   -2.9324 H   0  0  0  0  0  0  0  0  0  0  0  0
   -0.7257    9.2775   -2.9324 H   0  0  0  0  0  0  0  0  0  0  0  0
    4.5394   12.6225   -2.8722 H   0  0  0  0  0  0  0  0  0  0  0  0
    3.1268   12.3813   -3.9552 H   0  0  0  0  0  0  0  0  0  0  0  0
    4.0008   13.9506   -3.9552 H   0  0  0  0  0  0  0  0  0  0  0  0
    4.0249   13.6417   -0.4716 H   0  0  0  0  0  0  0  0  0  0  0  0
    4.3940   14.9015   -1.7799 H   0  0  0  0  0  0  0  0  0  0  0  0
    2.2765   15.0481    0.3828 H   0  0  0  0  0  0  0  0  0  0  0  0
    3.7523   16.0711    0.1767 H   0  0  0  0  0  0  0  0  0  0  0  0
    3.9745   17.6755   -1.6192 H   0  0  0  0  0  0  0  0  0  0  0  0
    3.6815   16.3940   -2.8433 H   0  0  0  0  0  0  0  0  0  0  0  0
    2.6764   17.8828   -2.8433 H   0  0  0  0  0  0  0  0  0  0  0  0
  1  2  1  0
  2  3  1  0
  3  4  1  0
  4  5  1  0
  5  6  1  0
  6  7  1  0
  7  8  1  0
  7  9  1  0
  2 10  1  0
 10 11  1  0
 11 12  1  0
 12 13  1  0
 13 14  1  1
 13 15  1  0
 15 16  1  0
 16 17  1  0
 17 18  2  0
 18 19  1  0
 19 20  1  0
 20 21  1  0
 21 22  1  0
 22 23  1  0
 22 24  1  0
 24 25  1  0
 24 26  1  0
 19 27  1  0
 27 28  1  6
 27 29  1  0
 29 30  1  0
 30 31  1  0
 31 32  1  6
  7  5  1  0
 31 10  1  0
 31 13  1  0
 27 15  1  0
 24 18  1  0
  1 33  1  0
  1 34  1  0
  1 35  1  0
  2 36  1  1
  3 37  1  0
  3 38  1  0
  4 39  1  0
  4 40  1  0
  5 41  1  6
  8 42  1  0
  8 43  1  0
  8 44  1  0
  9 45  1  0
  9 46  1  0
  9 47  1  0
 10 48  1  1
 11 49  1  0
 11 50  1  0
 12 51  1  0
 12 52  1  0
 14 53  1  0
 14 54  1  0
 14 55  1  0
 15 56  1  6
 16 57  1  0
 16 58  1  0
 17 59  1  0
 19 60  1  1
 20 61  1  0
 20 62  1  0
 21 63  1  0
 21 64  1  0
 22 65  1  1
 23 66  1  0
 25 67  1  0
 25 68  1  0
 25 69  1  0
 26 70  1  0
 26 71  1  0
 26 72  1  0
 28 73  1  0
 28 74  1  0
 28 75  1  0
 29 76  1  0
 29 77  1  0
 30 78  1  0
 30 79  1  0
 32 80  1  0
 32 81  1  0
 32 82  1  0
M  END
>  <meeko>  (2) 
{"is_sidechain": [false], "intermolecular_energy": 2.731, "internal_energy": -0.839}

$$$$
EPH_relaxed_0001_pdb2pqr_Repair_201_r2_0001_out
     RDKit          3D

 82 86  0  0  0  0  0  0  0  0999 V2000
    4.5520   17.5520   -0.8140 C   0  0  0  0  0  0  0  0  0  0  0  0
    3.1640   18.1550   -0.5790 C   0  0  2  0  0  0  0  0  0  0  0  0
    3.0100   18.7200    0.8470 C   0  0  0  0  0  0  0  0  0  0  0  0
    4.2820   18.6130    1.6920 C   0  0  0  0  0  0  0  0  0  0  0  0
    4.0710   19.1380    3.0800 C   0  0  2  0  0  0  0  0  0  0  0  0
    4.9640   20.1920    3.4630 O   0  0  0  0  0  0  0  0  0  0  0  0
    5.0790   18.9650    4.2020 C   0  0  0  0  0  0  0  0  0  0  0  0
    6.3710   18.2420    3.9850 C   0  0  0  0  0  0  0  0  0  0  0  0
    4.5980   19.0650    5.6160 C   0  0  0  0  0  0  0  0  0  0  0  0
    2.0900   17.1050   -0.8420 C   0  0  1  0  0  0  0  0  0  0  0  0
    0.8830   17.6710   -1.6370 C   0  0  0  0  0  0  0  0  0  0  0  0
    0.3810   16.5320   -2.5600 C   0  0  0  0  0  0  0  0  0  0  0  0
    1.0910   15.2620   -2.0340 C   0  0  1  0  0  0  0  0  0  0  0  0
    0.2430   14.8090   -0.8040 C   0  0  0  0  0  0  0  0  0  0  0  0
    1.2810   14.1010   -3.0630 C   0  0  2  0  0  0  0  0  0  0  0  0
   -0.0230   13.4950   -3.6120 C   0  0  0  0  0  0  0  0  0  0  0  0
   -0.5660   12.3420   -2.8360 C   0  0  0  0  0  0  0  0  0  0  0  0
    0.1090   11.6320   -1.9140 C   0  0  0  0  0  0  0  0  0  0  0  0
    1.5940   11.9050   -1.6410 C   0  0  1  0  0  0  0  0  0  0  0  0
    2.3680   10.5610   -1.5930 C   0  0  0  0  0  0  0  0  0  0  0  0
    1.7640    9.5740   -0.5980 C   0  0  0  0  0  0  0  0  0  0  0  0
    0.3050    9.2830   -0.9360 C   0  0  2  0  0  0  0  0  0  0  0  0
    0.2510    8.5790   -2.1810 O   0  0  0  0  0  0  0  0  0  0  0  0
   -0.5720   10.5640   -1.0220 C   0  0  0  0  0  0  0  0  0  0  0  0
   -0.7610   11.1610    0.3940 C   0  0  0  0  0  0  0  0  0  0  0  0
   -1.9850   10.1430   -1.5080 C   0  0  0  0  0  0  0  0  0  0  0  0
    2.2870   12.9750   -2.5910 C   0  0  1  0  0  0  0  0  0  0  0  0
    2.8140   12.2770   -3.8820 C   0  0  0  0  0  0  0  0  0  0  0  0
    3.5500   13.5680   -1.8610 C   0  0  0  0  0  0  0  0  0  0  0  0
    3.3160   14.7890   -0.9510 C   0  0  0  0  0  0  0  0  0  0  0  0
    2.4980   15.8640   -1.6740 C   0  0  2  0  0  0  0  0  0  0  0  0
    3.3350   16.3540   -2.9050 C   0  0  0  0  0  0  0  0  0  0  0  0
    5.0303   17.3442    0.1545 H   0  0  0  0  0  0  0  0  0  0  0  0
    4.4535   16.6156   -1.3827 H   0  0  0  0  0  0  0  0  0  0  0  0
    5.1692   18.2631   -1.3827 H   0  0  0  0  0  0  0  0  0  0  0  0
    3.0444   18.9935   -1.2808 H   0  0  0  0  0  0  0  0  0  0  0  0
    2.7313   19.7815    0.7718 H   0  0  0  0  0  0  0  0  0  0  0  0
    2.2386   18.1181    1.3497 H   0  0  0  0  0  0  0  0  0  0  0  0
    4.5822   17.5565    1.7522 H   0  0  0  0  0  0  0  0  0  0  0  0
    5.0648   19.2183    1.2116 H   0  0  0  0  0  0  0  0  0  0  0  0
    2.9919   18.9331    3.0194 H   0  0  0  0  0  0  0  0  0  0  0  0
    6.8188   17.9914    4.9580 H   0  0  0  0  0  0  0  0  0  0  0  0
    6.1834   17.3178    3.4188 H   0  0  0  0  0  0  0  0  0  0  0  0
    7.0606   18.8853    3.4188 H   0  0  0  0  0  0  0  0  0  0  0  0
    5.4393   18.8901    6.3027 H   0  0  0  0  0  0  0  0  0  0  0  0
    4.1834   20.0685    5.7922 H   0  0  0  0  0  0  0  0  0  0  0  0
    3.8178   18.3099    5.7922 H   0  0  0  0  0  0  0  0  0  0  0  0
    1.8656   16.8076    0.1930 H   0  0  0  0  0  0  0  0  0  0  0  0
    0.0844   17.9778   -0.9455 H   0  0  0  0  0  0  0  0  0  0  0  0
    1.1760   18.5542   -2.2236 H   0  0  0  0  0  0  0  0  0  0  0  0
   -0.7113   16.4251   -2.4860 H   0  0  0  0  0  0  0  0  0  0  0  0
    0.6031   16.7254   -3.6199 H   0  0  0  0  0  0  0  0  0  0  0  0
    0.7645   15.0876    0.1236 H   0  0  0  0  0  0  0  0  0  0  0  0
   -0.7397   15.3023   -0.8344 H   0  0  0  0  0  0  0  0  0  0  0  0
    0.1067   13.7179   -0.8344 H   0  0  0  0  0  0  0  0  0  0  0  0
    1.7528   14.6150   -3.9134 H   0  0  0  0  0  0  0  0  0  0  0  0
   -0.7869   14.2864   -3.6242 H   0  0  0  0  0  0  0  0  0  0  0  0
    0.2205   13.1024   -4.6103 H   0  0  0  0  0  0  0  0  0  0  0  0
   -1.6070   12.0474   -3.0348 H   0  0  0  0  0  0  0  0  0  0  0  0
    1.6378   12.3953   -0.6573 H   0  0  0  0  0  0  0  0  0  0  0  0
    2.3498   10.1075   -2.5950 H   0  0  0  0  0  0  0  0  0  0  0  0
    3.3955   10.7785   -1.2661 H   0  0  0  0  0  0  0  0  0  0  0  0
    2.3354    8.6346   -0.6308 H   0  0  0  0  0  0  0  0  0  0  0  0
    1.8097   10.0171    0.4078 H   0  0  0  0  0  0  0  0  0  0  0  0
   -0.1075    8.6748   -0.1174 H   0  0  0  0  0  0  0  0  0  0  0  0
   -0.2290    9.1380   -2.8150 H   0  0  0  0  0  0  0  0  0  0  0  0
   -0.5195   10.3981    1.1488 H   0  0  0  0  0  0  0  0  0  0  0  0
   -0.0926   12.0256    0.5196 H   0  0  0  0  0  0  0  0  0  0  0  0
   -1.8052   11.4834    0.5196 H   0  0  0  0  0  0  0  0  0  0  0  0
   -2.6299    9.9509   -0.6378 H   0  0  0  0  0  0  0  0  0  0  0  0
   -2.4196   10.9507   -2.1153 H   0  0  0  0  0  0  0  0  0  0  0  0
   -1.9067    9.2292   -2.1153 H   0  0  0  0  0  0  0  0  0  0  0  0
    3.4553   11.4276   -3.6039 H   0  0  0  0  0  0  0  0  0  0  0  0
    1.9625   11.9143   -4.4764 H   0  0  0  0  0  0  0  0  0  0  0  0
    3.3960   12.9967   -4.4764 H   0  0  0  0  0  0  0  0  0  0  0  0
    3.9820   12.7687   -1.2410 H   0  0  0  0  0  0  0  0  0  0  0  0
    4.2049   13.9306   -2.6670 H   0  0  0  0  0  0  0  0  0  0  0  0
    2.7717   14.4676   -0.0508 H   0  0  0  0  0  0  0  0  0  0  0  0
    4.2927   15.2157   -0.6791 H   0  0  0  0  0  0  0  0  0  0  0  0
    4.2338   16.8802   -2.5512 H   0  0  0  0  0  0  0  0  0  0  0  0
    3.6331   15.4878   -3.5139 H   0  0  0  0  0  0  0  0  0  0  0  0
    2.7256   17.0380   -3.5139 H   0  0  0  0  0  0  0  0  0  0  0  0
  1  2  1  0
  2  3  1  0
  3  4  1  0
  4  5  1  0
  5  6  1  0
  6  7  1  0
  7  8  1  0
  7  9  1  0
  2 10  1  0
 10 11  1  0
 11 12  1  0
 12 13  1  0
 13 14  1  1
 13 15  1  0
 15 16  1  0
 16 17  1  0
 17 18  2  0
 18 19  1  0
 19 20  1  0
 20 21  1  0
 21 22  1  0
 22 23  1  0
 22 24  1  0
 24 25  1  0
 24 26  1  0
 19 27  1  0
 27 28  1  6
 27 29  1  0
 29 30  1  0
 30 31  1  0
 31 32  1  6
  7  5  1  0
 31 10  1  0
 31 13  1  0
 27 15  1  0
 24 18  1  0
  1 33  1  0
  1 34  1  0
  1 35  1  0
  2 36  1  6
  3 37  1  0
  3 38  1  0
  4 39  1  0
  4 40  1  0
  5 41  1  1
  8 42  1  0
  8 43  1  0
  8 44  1  0
  9 45  1  0
  9 46  1  0
  9 47  1  0
 10 48  1  1
 11 49  1  0
 11 50  1  0
 12 51  1  0
 12 52  1  0
 14 53  1  0
 14 54  1  0
 14 55  1  0
 15 56  1  6
 16 57  1  0
 16 58  1  0
 17 59  1  0
 19 60  1  1
 20 61  1  0
 20 62  1  0
 21 63  1  0
 21 64  1  0
 22 65  1  1
 23 66  1  0
 25 67  1  0
 25 68  1  0
 25 69  1  0
 26 70  1  0
 26 71  1  0
 26 72  1  0
 28 73  1  0
 28 74  1  0
 28 75  1  0
 29 76  1  0
 29 77  1  0
 30 78  1  0
 30 79  1  0
 32 80  1  0
 32 81  1  0
 32 82  1  0
M  END
>  <meeko>  (3) 
{"is_sidechain": [false], "intermolecular_energy": 2.731, "internal_energy": -0.839}

$$$$
EPH_relaxed_0001_pdb2pqr_Repair_201_r2_0001_out
     RDKit          3D

 82 86  0  0  0  0  0  0  0  0999 V2000
    3.0770   17.7720   -2.4250 C   0  0  0  0  0  0  0  0  0  0  0  0
    2.2270   17.3100   -1.2380 C   0  0  2  0  0  0  0  0  0  0  0  0
    3.0900   16.9270   -0.0190 C   0  0  0  0  0  0  0  0  0  0  0  0
    4.0210   18.0480    0.4530 C   0  0  0  0  0  0  0  0  0  0  0  0
    3.5290   18.6800    1.7190 C   0  0  2  0  0  0  0  0  0  0  0  0
    3.8310   20.0760    1.8480 O   0  0  0  0  0  0  0  0  0  0  0  0
    4.4500   19.2020    2.8060 C   0  0  0  0  0  0  0  0  0  0  0  0
    5.9380   19.1140    2.6770 C   0  0  0  0  0  0  0  0  0  0  0  0
    3.9070   19.3490    4.1940 C   0  0  0  0  0  0  0  0  0  0  0  0
    1.3550   16.1300   -1.6500 C   0  0  1  0  0  0  0  0  0  0  0  0
    0.5930   16.3860   -2.9770 C   0  0  0  0  0  0  0  0  0  0  0  0
    0.5150   15.0260   -3.7180 C   0  0  0  0  0  0  0  0  0  0  0  0
    0.9340   13.9800   -2.6580 C   0  0  1  0  0  0  0  0  0  0  0  0
   -0.3520   13.7330   -1.8080 C   0  0  0  0  0  0  0  0  0  0  0  0
    1.5300   12.6420   -3.2060 C   0  0  2  0  0  0  0  0  0  0  0  0
    0.5700   11.8070   -4.0710 C   0  0  0  0  0  0  0  0  0  0  0  0
   -0.2540   10.8090   -3.3280 C   0  0  0  0  0  0  0  0  0  0  0  0
   -0.0290   10.3900   -2.0690 C   0  0  0  0  0  0  0  0  0  0  0  0
    1.2090   10.8600   -1.2930 C   0  0  1  0  0  0  0  0  0  0  0  0
    1.8840    9.6420   -0.6090 C   0  0  0  0  0  0  0  0  0  0  0  0
    0.9150    8.8480    0.2620 C   0  0  0  0  0  0  0  0  0  0  0  0
   -0.2720    8.3490   -0.5580 C   0  0  2  0  0  0  0  0  0  0  0  0
    0.1950    7.3840   -1.5050 O   0  0  0  0  0  0  0  0  0  0  0  0
   -1.0250    9.4880   -1.3000 C   0  0  0  0  0  0  0  0  0  0  0  0
   -1.7840   10.3650   -0.2740 C   0  0  0  0  0  0  0  0  0  0  0  0
   -2.1100    8.8350   -2.2000 C   0  0  0  0  0  0  0  0  0  0  0  0
    2.2410   11.7520   -2.1070 C   0  0  1  0  0  0  0  0  0  0  0  0
    3.2540   10.8390   -2.8620 C   0  0  0  0  0  0  0  0  0  0  0  0
    3.0870   12.6130   -1.0960 C   0  0  0  0  0  0  0  0  0  0  0  0
    2.5020   13.9780   -0.6860 C   0  0  0  0  0  0  0  0  0  0  0  0
    2.0660   14.7790   -1.9160 C   0  0  2  0  0  0  0  0  0  0  0  0
    3.3430   15.0620   -2.7790 C   0  0  0  0  0  0  0  0  0  0  0  0
    3.9868   18.2665   -2.0540 H   0  0  0  0  0  0  0  0  0  0  0  0
    3.3563   16.9016   -3.0368 H   0  0  0  0  0  0  0  0  0  0  0  0
    2.4985   18.4798   -3.0368 H   0  0  0  0  0  0  0  0  0  0  0  0
    1.5905   18.1558   -0.9390 H   0  0  0  0  0  0  0  0  0  0  0  0
    2.4194   16.6599    0.8111 H   0  0  0  0  0  0  0  0  0  0  0  0
    3.7294   16.0873   -0.3289 H   0  0  0  0  0  0  0  0  0  0  0  0
    5.0227   17.6290    0.6295 H   0  0  0  0  0  0  0  0  0  0  0  0
    4.0497   18.8219   -0.3282 H   0  0  0  0  0  0  0  0  0  0  0  0
    2.6626   18.0029    1.7483 H   0  0  0  0  0  0  0  0  0  0  0  0
    6.3919   19.0872    3.6786 H   0  0  0  0  0  0  0  0  0  0  0  0
    6.2050   18.1985    2.1288 H   0  0  0  0  0  0  0  0  0  0  0  0
    6.3111   19.9917    2.1288 H   0  0  0  0  0  0  0  0  0  0  0  0
    4.7018   19.1338    4.9234 H   0  0  0  0  0  0  0  0  0  0  0  0
    3.5449   20.3775    4.3390 H   0  0  0  0  0  0  0  0  0  0  0  0
    3.0755   18.6436    4.3390 H   0  0  0  0  0  0  0  0  0  0  0  0
    0.7178   16.0503   -0.7569 H   0  0  0  0  0  0  0  0  0  0  0  0
   -0.4194   16.7610   -2.7661 H   0  0  0  0  0  0  0  0  0  0  0  0
    1.1089   17.1403   -3.5893 H   0  0  0  0  0  0  0  0  0  0  0  0
   -0.5093   14.8336   -4.0699 H   0  0  0  0  0  0  0  0  0  0  0  0
    1.1596   14.9986   -4.6089 H   0  0  0  0  0  0  0  0  0  0  0  0
   -0.0995   13.7815   -0.7385 H   0  0  0  0  0  0  0  0  0  0  0  0
   -1.1007   14.5038   -2.0433 H   0  0  0  0  0  0  0  0  0  0  0  0
   -0.7619   12.7397   -2.0433 H   0  0  0  0  0  0  0  0  0  0  0  0
    2.3168   12.9951   -3.8889 H   0  0  0  0  0  0  0  0  0  0  0  0
   -0.1147   12.4989   -4.5834 H   0  0  0  0  0  0  0  0  0  0  0  0
    1.2051   11.2268   -4.7566 H   0  0  0  0  0  0  0  0  0  0  0  0
   -1.1191   10.3792   -3.8542 H   0  0  0  0  0  0  0  0  0  0  0  0
    0.8410   11.5610   -0.5293 H   0  0  0  0  0  0  0  0  0  0  0  0
    2.2835    8.9766   -1.3885 H   0  0  0  0  0  0  0  0  0  0  0  0
    2.6817   10.0258    0.0440 H   0  0  0  0  0  0  0  0  0  0  0  0
    1.4431    7.9847    0.6932 H   0  0  0  0  0  0  0  0  0  0  0  0
    0.5392    9.5063    1.0591 H   0  0  0  0  0  0  0  0  0  0  0  0
   -0.9923    7.9011    0.1424 H   0  0  0  0  0  0  0  0  0  0  0  0
    1.0200    7.0040   -1.1570 H   0  0  0  0  0  0  0  0  0  0  0  0
   -1.5140   10.0531    0.7457 H   0  0  0  0  0  0  0  0  0  0  0  0
   -1.5094   11.4202   -0.4194 H   0  0  0  0  0  0  0  0  0  0  0  0
   -2.8677   10.2447   -0.4194 H   0  0  0  0  0  0  0  0  0  0  0  0
   -2.8808    8.3711   -1.5671 H   0  0  0  0  0  0  0  0  0  0  0  0
   -2.5718    9.6053   -2.8351 H   0  0  0  0  0  0  0  0  0  0  0  0
   -1.6456    8.0663   -2.8351 H   0  0  0  0  0  0  0  0  0  0  0  0
    3.8654   10.2879   -2.1323 H   0  0  0  0  0  0  0  0  0  0  0  0
    2.7044   10.1252   -3.4933 H   0  0  0  0  0  0  0  0  0  0  0  0
    3.9070   11.4595   -3.4933 H   0  0  0  0  0  0  0  0  0  0  0  0
    3.2168   12.0181   -0.1799 H   0  0  0  0  0  0  0  0  0  0  0  0
    4.0198   12.8485   -1.6293 H   0  0  0  0  0  0  0  0  0  0  0  0
    1.6303   13.8151   -0.0351 H   0  0  0  0  0  0  0  0  0  0  0  0
    3.2787   14.5470   -0.1540 H   0  0  0  0  0  0  0  0  0  0  0  0
    4.1994   15.2518   -2.1153 H   0  0  0  0  0  0  0  0  0  0  0  0
    3.5573   14.1896   -3.4138 H   0  0  0  0  0  0  0  0  0  0  0  0
    3.1687   15.9433   -3.4138 H   0  0  0  0  0  0  0  0  0  0  0  0
  1  2  1  0
  2  3  1  0
  3  4  1  0
  4  5  1  0
  5  6  1  0
  6  7  1  0
  7  8  1  0
  7  9  1  0
  2 10  1  0
 10 11  1  0
 11 12  1  0
 12 13  1  0
 13 14  1  1
 13 15  1  0
 15 16  1  0
 16 17  1  0
 17 18  2  0
 18 19  1  0
 19 20  1  0
 20 21  1  0
 21 22  1  0
 22 23  1  0
 22 24  1  0
 24 25  1  0
 24 26  1  0
 19 27  1  0
 27 28  1  6
 27 29  1  0
 29 30  1  0
 30 31  1  0
 31 32  1  6
  7  5  1  0
 31 10  1  0
 31 13  1  0
 27 15  1  0
 24 18  1  0
  1 33  1  0
  1 34  1  0
  1 35  1  0
  2 36  1  1
  3 37  1  0
  3 38  1  0
  4 39  1  0
  4 40  1  0
  5 41  1  1
  8 42  1  0
  8 43  1  0
  8 44  1  0
  9 45  1  0
  9 46  1  0
  9 47  1  0
 10 48  1  1
 11 49  1  0
 11 50  1  0
 12 51  1  0
 12 52  1  0
 14 53  1  0
 14 54  1  0
 14 55  1  0
 15 56  1  6
 16 57  1  0
 16 58  1  0
 17 59  1  0
 19 60  1  1
 20 61  1  0
 20 62  1  0
 21 63  1  0
 21 64  1  0
 22 65  1  1
 23 66  1  0
 25 67  1  0
 25 68  1  0
 25 69  1  0
 26 70  1  0
 26 71  1  0
 26 72  1  0
 28 73  1  0
 28 74  1  0
 28 75  1  0
 29 76  1  0
 29 77  1  0
 30 78  1  0
 30 79  1  0
 32 80  1  0
 32 81  1  0
 32 82  1  0
M  END
>  <meeko>  (4) 
{"is_sidechain": [false], "intermolecular_energy": 2.731, "internal_energy": -0.839}

$$$$
EPH_relaxed_0001_pdb2pqr_Repair_201_r2_0001_out
     RDKit          3D

 82 86  0  0  0  0  0  0  0  0999 V2000
    3.0570   10.8740   -3.9810 C   0  0  0  0  0  0  0  0  0  0  0  0
    3.3000   10.9750   -2.4720 C   0  0  2  0  0  0  0  0  0  0  0  0
    2.1110   10.4320   -1.6550 C   0  0  0  0  0  0  0  0  0  0  0  0
    0.9660    9.8930   -2.5180 C   0  0  0  0  0  0  0  0  0  0  0  0
   -0.1380    9.3220   -1.6800 C   0  0  2  0  0  0  0  0  0  0  0  0
   -1.4000    9.2090   -2.3500 O   0  0  0  0  0  0  0  0  0  0  0  0
   -1.3510   10.1190   -1.2390 C   0  0  0  0  0  0  0  0  0  0  0  0
   -1.5220   11.5560   -1.6220 C   0  0  0  0  0  0  0  0  0  0  0  0
   -2.1180    9.6510   -0.0420 C   0  0  0  0  0  0  0  0  0  0  0  0
    3.5790   12.4230   -2.0870 C   0  0  1  0  0  0  0  0  0  0  0  0
    4.8440   12.9930   -2.7820 C   0  0  0  0  0  0  0  0  0  0  0  0
    4.5610   14.4900   -3.0680 C   0  0  0  0  0  0  0  0  0  0  0  0
    3.2940   14.8120   -2.2410 C   0  0  1  0  0  0  0  0  0  0  0  0
    3.8150   15.0580   -0.7900 C   0  0  0  0  0  0  0  0  0  0  0  0
    2.4210   16.0040   -2.7510 C   0  0  2  0  0  0  0  0  0  0  0  0
    3.1220   17.3740   -2.7490 C   0  0  0  0  0  0  0  0  0  0  0  0
    2.9700   18.1670   -1.4940 C   0  0  0  0  0  0  0  0  0  0  0  0
    2.0710   17.9280   -0.5210 C   0  0  0  0  0  0  0  0  0  0  0  0
    1.0160   16.8240   -0.6780 C   0  0  1  0  0  0  0  0  0  0  0  0
   -0.3740   17.3730   -0.2640 C   0  0  0  0  0  0  0  0  0  0  0  0
   -0.3690   17.9820    1.1350 C   0  0  0  0  0  0  0  0  0  0  0  0
    0.6500   19.1140    1.2350 C   0  0  2  0  0  0  0  0  0  0  0  0
    0.2210   20.1940    0.4010 O   0  0  0  0  0  0  0  0  0  0  0  0
    2.0870   18.6810    0.8320 C   0  0  0  0  0  0  0  0  0  0  0  0
    2.6670   17.7310    1.9090 C   0  0  0  0  0  0  0  0  0  0  0  0
    2.9870   19.9460    0.8390 C   0  0  0  0  0  0  0  0  0  0  0  0
    0.9870   16.0880   -2.0860 C   0  0  1  0  0  0  0  0  0  0  0  0
    0.0810   16.8770   -3.0800 C   0  0  0  0  0  0  0  0  0  0  0  0
    0.3250   14.6700   -1.9120 C   0  0  0  0  0  0  0  0  0  0  0  0
    1.2600   13.5090   -1.5240 C   0  0  0  0  0  0  0  0  0  0  0  0
    2.4940   13.4730   -2.4310 C   0  0  2  0  0  0  0  0  0  0  0  0
    2.0030   13.2040   -3.8950 C   0  0  0  0  0  0  0  0  0  0  0  0
    2.0554   10.4577   -4.1640 H   0  0  0  0  0  0  0  0  0  0  0  0
    3.1258   11.8752   -4.4313 H   0  0  0  0  0  0  0  0  0  0  0  0
    3.8153   10.2165   -4.4313 H   0  0  0  0  0  0  0  0  0  0  0  0
    4.1750   10.3519   -2.2348 H   0  0  0  0  0  0  0  0  0  0  0  0
    2.4748    9.6169   -1.0121 H   0  0  0  0  0  0  0  0  0  0  0  0
    1.7073   11.2753   -1.0754 H   0  0  0  0  0  0  0  0  0  0  0  0
    0.5622   10.7144   -3.1281 H   0  0  0  0  0  0  0  0  0  0  0  0
    1.3649    9.0890   -3.1540 H   0  0  0  0  0  0  0  0  0  0  0  0
    0.5755    8.6963   -1.1237 H   0  0  0  0  0  0  0  0  0  0  0  0
   -1.5952   12.1715   -0.7132 H   0  0  0  0  0  0  0  0  0  0  0  0
   -0.6564   11.8824   -2.2171 H   0  0  0  0  0  0  0  0  0  0  0  0
   -2.4401   11.6701   -2.2171 H   0  0  0  0  0  0  0  0  0  0  0  0
   -1.5979    9.9684    0.8738 H   0  0  0  0  0  0  0  0  0  0  0  0
   -3.1277   10.0870   -0.0600 H   0  0  0  0  0  0  0  0  0  0  0  0
   -2.1921    8.5536   -0.0600 H   0  0  0  0  0  0  0  0  0  0  0  0
    3.6601   12.3103   -0.9958 H   0  0  0  0  0  0  0  0  0  0  0  0
    5.7173   12.8922   -2.1209 H   0  0  0  0  0  0  0  0  0  0  0  0
    5.0632   12.4478   -3.7119 H   0  0  0  0  0  0  0  0  0  0  0  0
    5.4063   15.1142   -2.7425 H   0  0  0  0  0  0  0  0  0  0  0  0
    4.4216   14.6909   -4.1405 H   0  0  0  0  0  0  0  0  0  0  0  0
    3.0658   14.7042   -0.0665 H   0  0  0  0  0  0  0  0  0  0  0  0
    4.7566   14.5094   -0.6406 H   0  0  0  0  0  0  0  0  0  0  0  0
    3.9897   16.1337   -0.6406 H   0  0  0  0  0  0  0  0  0  0  0  0
    2.2679   15.7481   -3.8098 H   0  0  0  0  0  0  0  0  0  0  0  0
    4.1961   17.2063   -2.9169 H   0  0  0  0  0  0  0  0  0  0  0  0
    2.6385   17.9639   -3.5416 H   0  0  0  0  0  0  0  0  0  0  0  0
    3.6506   19.0194   -1.3519 H   0  0  0  0  0  0  0  0  0  0  0  0
    1.3168   16.0167    0.0060 H   0  0  0  0  0  0  0  0  0  0  0  0
   -0.6764   18.1472   -0.9846 H   0  0  0  0  0  0  0  0  0  0  0  0
   -1.0786   16.5283   -0.2582 H   0  0  0  0  0  0  0  0  0  0  0  0
   -1.3704   18.3786    1.3583 H   0  0  0  0  0  0  0  0  0  0  0  0
   -0.0949   17.1989    1.8572 H   0  0  0  0  0  0  0  0  0  0  0  0
    0.6997   19.4221    2.2898 H   0  0  0  0  0  0  0  0  0  0  0  0
    0.3360   19.9160   -0.5240 H   0  0  0  0  0  0  0  0  0  0  0  0
    2.4285   18.1216    2.9093 H   0  0  0  0  0  0  0  0  0  0  0  0
    2.2256   16.7303    1.7913 H   0  0  0  0  0  0  0  0  0  0  0  0
    3.7588   17.6664    1.7913 H   0  0  0  0  0  0  0  0  0  0  0  0
    3.1968   20.2410    1.8777 H   0  0  0  0  0  0  0  0  0  0  0  0
    3.9327   19.7260    0.3221 H   0  0  0  0  0  0  0  0  0  0  0  0
    2.4691   20.7673    0.3221 H   0  0  0  0  0  0  0  0  0  0  0  0
   -0.6306   17.4967   -2.5147 H   0  0  0  0  0  0  0  0  0  0  0  0
    0.7071   17.5228   -3.7133 H   0  0  0  0  0  0  0  0  0  0  0  0
   -0.4726   16.1681   -3.7133 H   0  0  0  0  0  0  0  0  0  0  0  0
   -0.4424   14.7551   -1.1285 H   0  0  0  0  0  0  0  0  0  0  0  0
   -0.0600   14.4083   -2.9086 H   0  0  0  0  0  0  0  0  0  0  0  0
    1.5836   13.6407   -0.4810 H   0  0  0  0  0  0  0  0  0  0  0  0
    0.7114   12.5627   -1.6401 H   0  0  0  0  0  0  0  0  0  0  0  0
    1.0386   12.6756   -3.8670 H   0  0  0  0  0  0  0  0  0  0  0  0
    1.8814   14.1615   -4.4227 H   0  0  0  0  0  0  0  0  0  0  0  0
    2.7444   12.5861   -4.4227 H   0  0  0  0  0  0  0  0  0  0  0  0
  1  2  1  0
  2  3  1  0
  3  4  1  0
  4  5  1  0
  5  6  1  0
  6  7  1  0
  7  8  1  0
  7  9  1  0
  2 10  1  0
 10 11  1  0
 11 12  1  0
 12 13  1  0
 13 14  1  1
 13 15  1  0
 15 16  1  0
 16 17  1  0
 17 18  2  0
 18 19  1  0
 19 20  1  0
 20 21  1  0
 21 22  1  0
 22 23  1  0
 22 24  1  0
 24 25  1  0
 24 26  1  0
 19 27  1  0
 27 28  1  6
 27 29  1  0
 29 30  1  0
 30 31  1  0
 31 32  1  6
  7  5  1  0
 31 10  1  0
 31 13  1  0
 27 15  1  0
 24 18  1  0
  1 33  1  0
  1 34  1  0
  1 35  1  0
  2 36  1  6
  3 37  1  0
  3 38  1  0
  4 39  1  0
  4 40  1  0
  5 41  1  1
  8 42  1  0
  8 43  1  0
  8 44  1  0
  9 45  1  0
  9 46  1  0
  9 47  1  0
 10 48  1  1
 11 49  1  0
 11 50  1  0
 12 51  1  0
 12 52  1  0
 14 53  1  0
 14 54  1  0
 14 55  1  0
 15 56  1  6
 16 57  1  0
 16 58  1  0
 17 59  1  0
 19 60  1  1
 20 61  1  0
 20 62  1  0
 21 63  1  0
 21 64  1  0
 22 65  1  1
 23 66  1  0
 25 67  1  0
 25 68  1  0
 25 69  1  0
 26 70  1  0
 26 71  1  0
 26 72  1  0
 28 73  1  0
 28 74  1  0
 28 75  1  0
 29 76  1  0
 29 77  1  0
 30 78  1  0
 30 79  1  0
 32 80  1  0
 32 81  1  0
 32 82  1  0
M  END
>  <meeko>  (5) 
{"is_sidechain": [false], "intermolecular_energy": 2.731, "internal_energy": -0.839}

$$$$
EPH_relaxed_0001_pdb2pqr_Repair_201_r2_0001_out
     RDKit          3D

 82 86  0  0  0  0  0  0  0  0999 V2000
   -0.9710    7.8700   -1.5630 C   0  0  0  0  0  0  0  0  0  0  0  0
   -0.9670    8.9210   -0.4490 C   0  0  2  0  0  0  0  0  0  0  0  0
   -2.2890    9.7130   -0.3940 C   0  0  0  0  0  0  0  0  0  0  0  0
   -3.5110    8.8490   -0.0720 C   0  0  0  0  0  0  0  0  0  0  0  0
   -4.3630    8.6210   -1.2840 C   0  0  2  0  0  0  0  0  0  0  0  0
   -5.7590    8.8850   -1.0930 O   0  0  0  0  0  0  0  0  0  0  0  0
   -5.4060    7.5230   -1.3790 C   0  0  0  0  0  0  0  0  0  0  0  0
   -5.6510    6.5790   -0.2440 C   0  0  0  0  0  0  0  0  0  0  0  0
   -5.8360    7.0600   -2.7370 C   0  0  0  0  0  0  0  0  0  0  0  0
    0.2050    9.8760   -0.6390 C   0  0  1  0  0  0  0  0  0  0  0  0
    1.5340    9.1360   -0.9490 C   0  0  0  0  0  0  0  0  0  0  0  0
    2.3280   10.0370   -1.9300 C   0  0  0  0  0  0  0  0  0  0  0  0
    1.5940   11.3970   -1.8920 C   0  0  1  0  0  0  0  0  0  0  0  0
    2.1300   12.1060   -0.6090 C   0  0  0  0  0  0  0  0  0  0  0  0
    1.7490   12.3010   -3.1580 C   0  0  2  0  0  0  0  0  0  0  0  0
    3.1870   12.7580   -3.4620 C   0  0  0  0  0  0  0  0  0  0  0  0
    3.5910   14.0510   -2.8350 C   0  0  0  0  0  0  0  0  0  0  0  0
    2.7520   14.9550   -2.2960 C   0  0  0  0  0  0  0  0  0  0  0  0
    1.2320   14.7620   -2.3710 C   0  0  1  0  0  0  0  0  0  0  0  0
    0.5630   16.0890   -2.8150 C   0  0  0  0  0  0  0  0  0  0  0  0
    0.9580   17.2680   -1.9310 C   0  0  0  0  0  0  0  0  0  0  0  0
    2.4720   17.4640   -1.9290 C   0  0  2  0  0  0  0  0  0  0  0  0
    2.8860   17.8720   -3.2360 O   0  0  0  0  0  0  0  0  0  0  0  0
    3.2540   16.1890   -1.5070 C   0  0  0  0  0  0  0  0  0  0  0  0
    3.0370   15.9210    0.0030 C   0  0  0  0  0  0  0  0  0  0  0  0
    4.7690   16.4780   -1.6830 C   0  0  0  0  0  0  0  0  0  0  0  0
    0.7330   13.5130   -3.2180 C   0  0  1  0  0  0  0  0  0  0  0  0
    0.5990   13.9080   -4.7200 C   0  0  0  0  0  0  0  0  0  0  0  0
   -0.7100   13.1080   -2.7350 C   0  0  0  0  0  0  0  0  0  0  0  0
   -0.7960   12.1190   -1.5570 C   0  0  0  0  0  0  0  0  0  0  0  0
    0.1050   10.9040   -1.7940 C   0  0  2  0  0  0  0  0  0  0  0  0
   -0.4230   10.1570   -3.0670 C   0  0  0  0  0  0  0  0  0  0  0  0
   -0.9748    6.8640   -1.1180 H   0  0  0  0  0  0  0  0  0  0  0  0
   -1.8687    7.9990   -2.1856 H   0  0  0  0  0  0  0  0  0  0  0  0
   -0.0724    7.9921   -2.1856 H   0  0  0  0  0  0  0  0  0  0  0  0
   -0.8607    8.3888    0.5078 H   0  0  0  0  0  0  0  0  0  0  0  0
   -2.1976   10.4879    0.3813 H   0  0  0  0  0  0  0  0  0  0  0  0
   -2.4509   10.1383   -1.3955 H   0  0  0  0  0  0  0  0  0  0  0  0
   -3.1690    7.8764    0.3115 H   0  0  0  0  0  0  0  0  0  0  0  0
   -4.1168    9.3776    0.6788 H   0  0  0  0  0  0  0  0  0  0  0  0
   -3.5369    8.9138   -1.9487 H   0  0  0  0  0  0  0  0  0  0  0  0
   -5.5134    7.1091    0.7100 H   0  0  0  0  0  0  0  0  0  0  0  0
   -6.6792    6.1926   -0.3038 H   0  0  0  0  0  0  0  0  0  0  0  0
   -4.9405    5.7414   -0.3038 H   0  0  0  0  0  0  0  0  0  0  0  0
   -6.5811    6.2577   -2.6319 H   0  0  0  0  0  0  0  0  0  0  0  0
   -6.2794    7.9023   -3.2882 H   0  0  0  0  0  0  0  0  0  0  0  0
   -4.9632    6.6799   -3.2882 H   0  0  0  0  0  0  0  0  0  0  0  0
    0.1786   10.3957    0.3301 H   0  0  0  0  0  0  0  0  0  0  0  0
    2.1087    8.9852   -0.0233 H   0  0  0  0  0  0  0  0  0  0  0  0
    1.3422    8.1460   -1.3884 H   0  0  0  0  0  0  0  0  0  0  0  0
    3.3704   10.1490   -1.5972 H   0  0  0  0  0  0  0  0  0  0  0  0
    2.3694    9.6137   -2.9444 H   0  0  0  0  0  0  0  0  0  0  0  0
    1.7418   11.5925    0.2830 H   0  0  0  0  0  0  0  0  0  0  0  0
    3.2294   12.0710   -0.6029 H   0  0  0  0  0  0  0  0  0  0  0  0
    1.7965   13.1542   -0.6029 H   0  0  0  0  0  0  0  0  0  0  0  0
    1.4751   11.6141   -3.9724 H   0  0  0  0  0  0  0  0  0  0  0  0
    3.8745   11.9774   -3.1044 H   0  0  0  0  0  0  0  0  0  0  0  0
    3.2315   12.9199   -4.5491 H   0  0  0  0  0  0  0  0  0  0  0  0
    4.6656   14.2849   -2.8115 H   0  0  0  0  0  0  0  0  0  0  0  0
    0.9072   14.5033   -1.3524 H   0  0  0  0  0  0  0  0  0  0  0  0
    0.8655   16.3073   -3.8498 H   0  0  0  0  0  0  0  0  0  0  0  0
   -0.5259   15.9585   -2.7303 H   0  0  0  0  0  0  0  0  0  0  0  0
    0.4771   18.1810   -2.3122 H   0  0  0  0  0  0  0  0  0  0  0  0
    0.6289   17.0615   -0.9019 H   0  0  0  0  0  0  0  0  0  0  0  0
    2.7036   18.2360   -1.1804 H   0  0  0  0  0  0  0  0  0  0  0  0
    2.9120   18.8430   -3.2470 H   0  0  0  0  0  0  0  0  0  0  0  0
    3.6219   16.6433    0.5914 H   0  0  0  0  0  0  0  0  0  0  0  0
    1.9695   16.0299    0.2450 H   0  0  0  0  0  0  0  0  0  0  0  0
    3.3655   14.8995    0.2450 H   0  0  0  0  0  0  0  0  0  0  0  0
    5.2423   16.5683   -0.6942 H   0  0  0  0  0  0  0  0  0  0  0  0
    5.2374   15.6530   -2.2398 H   0  0  0  0  0  0  0  0  0  0  0  0
    4.9008   17.4175   -2.2398 H   0  0  0  0  0  0  0  0  0  0  0  0
    0.2465   14.9472   -4.7958 H   0  0  0  0  0  0  0  0  0  0  0  0
    1.5785   13.8163   -5.2120 H   0  0  0  0  0  0  0  0  0  0  0  0
   -0.1225   13.2392   -5.2120 H   0  0  0  0  0  0  0  0  0  0  0  0
   -1.2312   14.0290   -2.4350 H   0  0  0  0  0  0  0  0  0  0  0  0
   -1.1614   12.5798   -3.5878 H   0  0  0  0  0  0  0  0  0  0  0  0
   -0.4778   12.6285   -0.6355 H   0  0  0  0  0  0  0  0  0  0  0  0
   -1.8358   11.7719   -1.4659 H   0  0  0  0  0  0  0  0  0  0  0  0
   -1.0326    9.2945   -2.7596 H   0  0  0  0  0  0  0  0  0  0  0  0
   -1.0369   10.8445   -3.6674 H   0  0  0  0  0  0  0  0  0  0  0  0
    0.4300    9.8077   -3.6674 H   0  0  0  0  0  0  0  0  0  0  0  0
  1  2  1  0
  2  3  1  0
  3  4  1  0
  4  5  1  0
  5  6  1  0
  6  7  1  0
  7  8  1  0
  7  9  1  0
  2 10  1  0
 10 11  1  0
 11 12  1  0
 12 13  1  0
 13 14  1  1
 13 15  1  0
 15 16  1  0
 16 17  1  0
 17 18  2  0
 18 19  1  0
 19 20  1  0
 20 21  1  0
 21 22  1  0
 22 23  1  0
 22 24  1  0
 24 25  1  0
 24 26  1  0
 19 27  1  0
 27 28  1  6
 27 29  1  0
 29 30  1  0
 30 31  1  0
 31 32  1  6
  7  5  1  0
 31 10  1  0
 31 13  1  0
 27 15  1  0
 24 18  1  0
  1 33  1  0
  1 34  1  0
  1 35  1  0
  2 36  1  1
  3 37  1  0
  3 38  1  0
  4 39  1  0
  4 40  1  0
  5 41  1  6
  8 42  1  0
  8 43  1  0
  8 44  1  0
  9 45  1  0
  9 46  1  0
  9 47  1  0
 10 48  1  1
 11 49  1  0
 11 50  1  0
 12 51  1  0
 12 52  1  0
 14 53  1  0
 14 54  1  0
 14 55  1  0
 15 56  1  6
 16 57  1  0
 16 58  1  0
 17 59  1  0
 19 60  1  1
 20 61  1  0
 20 62  1  0
 21 63  1  0
 21 64  1  0
 22 65  1  1
 23 66  1  0
 25 67  1  0
 25 68  1  0
 25 69  1  0
 26 70  1  0
 26 71  1  0
 26 72  1  0
 28 73  1  0
 28 74  1  0
 28 75  1  0
 29 76  1  0
 29 77  1  0
 30 78  1  0
 30 79  1  0
 32 80  1  0
 32 81  1  0
 32 82  1  0
M  END
>  <meeko>  (6) 
{"is_sidechain": [false], "intermolecular_energy": 2.731, "internal_energy": -0.839}

$$$$
EPH_relaxed_0001_pdb2pqr_Repair_201_r2_0001_out
     RDKit          3D

 82 86  0  0  0  0  0  0  0  0999 V2000
    1.8220   20.1940    1.8340 C   0  0  0  0  0  0  0  0  0  0  0  0
    1.5450   18.8430    2.4980 C   0  0  2  0  0  0  0  0  0  0  0  0
    2.7980   18.2680    3.1900 C   0  0  0  0  0  0  0  0  0  0  0  0
    4.0860   19.0290    2.8610 C   0  0  0  0  0  0  0  0  0  0  0  0
    4.7540   19.5490    4.0980 C   0  0  2  0  0  0  0  0  0  0  0  0
    6.0130   20.1940    3.8710 O   0  0  0  0  0  0  0  0  0  0  0  0
    6.0510   18.9860    4.6480 C   0  0  0  0  0  0  0  0  0  0  0  0
    6.7570   17.8520    3.9740 C   0  0  0  0  0  0  0  0  0  0  0  0
    6.3710   19.2080    6.0930 C   0  0  0  0  0  0  0  0  0  0  0  0
    1.0220   17.8530    1.4640 C   0  0  1  0  0  0  0  0  0  0  0  0
   -0.3650   18.2590    0.8980 C   0  0  0  0  0  0  0  0  0  0  0  0
   -0.3850   17.8260   -0.5910 C   0  0  0  0  0  0  0  0  0  0  0  0
    0.8430   16.8980   -0.7430 C   0  0  1  0  0  0  0  0  0  0  0  0
    0.3690   15.5130   -0.2030 C   0  0  0  0  0  0  0  0  0  0  0  0
    1.4470   16.7820   -2.1810 C   0  0  2  0  0  0  0  0  0  0  0  0
    0.5020   16.1850   -3.2390 C   0  0  0  0  0  0  0  0  0  0  0  0
    0.5730   14.7010   -3.3920 C   0  0  0  0  0  0  0  0  0  0  0  0
    1.5560   13.9120   -2.9190 C   0  0  0  0  0  0  0  0  0  0  0  0
    2.7880   14.5140   -2.2320 C   0  0  1  0  0  0  0  0  0  0  0  0
    4.0710   13.8470   -2.7920 C   0  0  0  0  0  0  0  0  0  0  0  0
    4.0320   12.3250   -2.6910 C   0  0  0  0  0  0  0  0  0  0  0  0
    2.8250   11.7600   -3.4360 C   0  0  2  0  0  0  0  0  0  0  0  0
    2.9950   11.9980   -4.8360 O   0  0  0  0  0  0  0  0  0  0  0  0
    1.4740   12.3660   -2.9630 C   0  0  0  0  0  0  0  0  0  0  0  0
    1.1460   11.8570   -1.5370 C   0  0  0  0  0  0  0  0  0  0  0  0
    0.3550   11.8180   -3.8880 C   0  0  0  0  0  0  0  0  0  0  0  0
    2.8750   16.1010   -2.2310 C   0  0  1  0  0  0  0  0  0  0  0  0
    3.5590   16.5970   -3.5420 C   0  0  0  0  0  0  0  0  0  0  0  0
    3.8010   16.5650   -1.0450 C   0  0  0  0  0  0  0  0  0  0  0  0
    3.1230   16.7780    0.3230 C   0  0  0  0  0  0  0  0  0  0  0  0
    1.8690   17.6460    0.1840 C   0  0  2  0  0  0  0  0  0  0  0  0
    2.3180   19.0540   -0.3370 C   0  0  0  0  0  0  0  0  0  0  0  0
    1.9787   20.9584    2.6094 H   0  0  0  0  0  0  0  0  0  0  0  0
    2.7230   20.1169    1.2077 H   0  0  0  0  0  0  0  0  0  0  0  0
    0.9633   20.4777    1.2077 H   0  0  0  0  0  0  0  0  0  0  0  0
    0.7838   19.0066    3.2751 H   0  0  0  0  0  0  0  0  0  0  0  0
    2.6414   18.3042    4.2782 H   0  0  0  0  0  0  0  0  0  0  0  0
    2.9276   17.2406    2.8190 H   0  0  0  0  0  0  0  0  0  0  0  0
    4.7779   18.3505    2.3406 H   0  0  0  0  0  0  0  0  0  0  0  0
    3.8240   19.8880    2.2258 H   0  0  0  0  0  0  0  0  0  0  0  0
    3.7801   19.7515    4.5677 H   0  0  0  0  0  0  0  0  0  0  0  0
    7.1769   17.1775    4.7347 H   0  0  0  0  0  0  0  0  0  0  0  0
    6.0441   17.2977    3.3459 H   0  0  0  0  0  0  0  0  0  0  0  0
    7.5690   18.2471    3.3459 H   0  0  0  0  0  0  0  0  0  0  0  0
    5.6266   18.6916    6.7169 H   0  0  0  0  0  0  0  0  0  0  0  0
    7.3727   18.8098    6.3121 H   0  0  0  0  0  0  0  0  0  0  0  0
    6.3488   20.2857    6.3121 H   0  0  0  0  0  0  0  0  0  0  0  0
    1.0262   16.9347    2.0695 H   0  0  0  0  0  0  0  0  0  0  0  0
   -1.1651   17.7465    1.4523 H   0  0  0  0  0  0  0  0  0  0  0  0
   -0.5301   19.3421    0.9965 H   0  0  0  0  0  0  0  0  0  0  0  0
   -1.3130   17.2839   -0.8255 H   0  0  0  0  0  0  0  0  0  0  0  0
   -0.3461   18.6855   -1.2763 H   0  0  0  0  0  0  0  0  0  0  0  0
    0.3738   15.5271    0.8969 H   0  0  0  0  0  0  0  0  0  0  0  0
   -0.6503   15.3085   -0.5626 H   0  0  0  0  0  0  0  0  0  0  0  0
    1.0493   14.7269   -0.5626 H   0  0  0  0  0  0  0  0  0  0  0  0
    1.5858   17.8356   -2.4649 H   0  0  0  0  0  0  0  0  0  0  0  0
   -0.5292   16.4493   -2.9618 H   0  0  0  0  0  0  0  0  0  0  0  0
    0.8201   16.6063   -4.2040 H   0  0  0  0  0  0  0  0  0  0  0  0
   -0.2473   14.2113   -3.9373 H   0  0  0  0  0  0  0  0  0  0  0  0
    2.6837   14.2813   -1.1620 H   0  0  0  0  0  0  0  0  0  0  0  0
    4.1809   14.1273   -3.8500 H   0  0  0  0  0  0  0  0  0  0  0  0
    4.9207   14.1996   -2.1889 H   0  0  0  0  0  0  0  0  0  0  0  0
    4.9520   11.9113   -3.1298 H   0  0  0  0  0  0  0  0  0  0  0  0
    3.9526   12.0452   -1.6301 H   0  0  0  0  0  0  0  0  0  0  0  0
    2.7782   10.6826   -3.2190 H   0  0  0  0  0  0  0  0  0  0  0  0
    2.5100   12.8110   -5.0570 H   0  0  0  0  0  0  0  0  0  0  0  0
    1.5855   12.5390   -0.7942 H   0  0  0  0  0  0  0  0  0  0  0  0
    0.0549   11.8218   -1.4022 H   0  0  0  0  0  0  0  0  0  0  0  0
    1.5648   10.8488   -1.4022 H   0  0  0  0  0  0  0  0  0  0  0  0
   -0.4646   11.4166   -3.2739 H   0  0  0  0  0  0  0  0  0  0  0  0
   -0.0268   12.6311   -4.5229 H   0  0  0  0  0  0  0  0  0  0  0  0
    0.7632   11.0178   -4.5229 H   0  0  0  0  0  0  0  0  0  0  0  0
    4.4255   17.2254   -3.2884 H   0  0  0  0  0  0  0  0  0  0  0  0
    3.8942   15.7306   -4.1311 H   0  0  0  0  0  0  0  0  0  0  0  0
    2.8397   17.1848   -4.1311 H   0  0  0  0  0  0  0  0  0  0  0  0
    4.5821   15.8016   -0.9142 H   0  0  0  0  0  0  0  0  0  0  0  0
    4.1719   17.5576   -1.3404 H   0  0  0  0  0  0  0  0  0  0  0  0
    2.8396   15.8005    0.7402 H   0  0  0  0  0  0  0  0  0  0  0  0
    3.8321   17.2903    0.9899 H   0  0  0  0  0  0  0  0  0  0  0  0
    2.5278   19.7120    0.5192 H   0  0  0  0  0  0  0  0  0  0  0  0
    3.2264   18.9463   -0.9480 H   0  0  0  0  0  0  0  0  0  0  0  0
    1.5150   19.4921   -0.9480 H   0  0  0  0  0  0  0  0  0  0  0  0
  1  2  1  0
  2  3  1  0
  3  4  1  0
  4  5  1  0
  5  6  1  0
  6  7  1  0
  7  8  1  0
  7  9  1  0
  2 10  1  0
 10 11  1  0
 11 12  1  0
 12 13  1  0
 13 14  1  1
 13 15  1  0
 15 16  1  0
 16 17  1  0
 17 18  2  0
 18 19  1  0
 19 20  1  0
 20 21  1  0
 21 22  1  0
 22 23  1  0
 22 24  1  0
 24 25  1  0
 24 26  1  0
 19 27  1  0
 27 28  1  6
 27 29  1  0
 29 30  1  0
 30 31  1  0
 31 32  1  6
  7  5  1  0
 31 10  1  0
 31 13  1  0
 27 15  1  0
 24 18  1  0
  1 33  1  0
  1 34  1  0
  1 35  1  0
  2 36  1  1
  3 37  1  0
  3 38  1  0
  4 39  1  0
  4 40  1  0
  5 41  1  1
  8 42  1  0
  8 43  1  0
  8 44  1  0
  9 45  1  0
  9 46  1  0
  9 47  1  0
 10 48  1  1
 11 49  1  0
 11 50  1  0
 12 51  1  0
 12 52  1  0
 14 53  1  0
 14 54  1  0
 14 55  1  0
 15 56  1  6
 16 57  1  0
 16 58  1  0
 17 59  1  0
 19 60  1  1
 20 61  1  0
 20 62  1  0
 21 63  1  0
 21 64  1  0
 22 65  1  6
 23 66  1  0
 25 67  1  0
 25 68  1  0
 25 69  1  0
 26 70  1  0
 26 71  1  0
 26 72  1  0
 28 73  1  0
 28 74  1  0
 28 75  1  0
 29 76  1  0
 29 77  1  0
 30 78  1  0
 30 79  1  0
 32 80  1  0
 32 81  1  0
 32 82  1  0
M  END
>  <meeko>  (7) 
{"is_sidechain": [false], "intermolecular_energy": 2.731, "internal_energy": -0.839}

$$$$
EPH_relaxed_0001_pdb2pqr_Repair_201_r2_0001_out
     RDKit          3D

 82 86  0  0  0  0  0  0  0  0999 V2000
    2.7050   17.0240   -0.1890 C   0  0  0  0  0  0  0  0  0  0  0  0
    2.3570   17.0490   -1.6800 C   0  0  2  0  0  0  0  0  0  0  0  0
    1.6800   18.3700   -2.0960 C   0  0  0  0  0  0  0  0  0  0  0  0
    0.1830   18.4210   -1.7780 C   0  0  0  0  0  0  0  0  0  0  0  0
   -0.1350   17.7190   -0.4930 C   0  0  2  0  0  0  0  0  0  0  0  0
   -1.3980   18.0720    0.0850 O   0  0  0  0  0  0  0  0  0  0  0  0
   -0.2320   18.4270    0.8450 C   0  0  0  0  0  0  0  0  0  0  0  0
   -0.0100   19.9020    0.9660 C   0  0  0  0  0  0  0  0  0  0  0  0
   -0.0590   17.6220    2.0950 C   0  0  0  0  0  0  0  0  0  0  0  0
    1.4540   15.8700   -2.0220 C   0  0  1  0  0  0  0  0  0  0  0  0
    0.7220   16.0520   -3.3790 C   0  0  0  0  0  0  0  0  0  0  0  0
    0.6120   14.6450   -4.0200 C   0  0  0  0  0  0  0  0  0  0  0  0
    0.9780   13.6670   -2.8800 C   0  0  1  0  0  0  0  0  0  0  0  0
   -0.3290   13.5240   -2.0380 C   0  0  0  0  0  0  0  0  0  0  0  0
    1.5380   12.2740   -3.3170 C   0  0  2  0  0  0  0  0  0  0  0  0
    0.5660   11.4080   -4.1380 C   0  0  0  0  0  0  0  0  0  0  0  0
   -0.3030   10.4940   -3.3400 C   0  0  0  0  0  0  0  0  0  0  0  0
   -0.1130   10.1620   -2.0490 C   0  0  0  0  0  0  0  0  0  0  0  0
    1.1270   10.6470   -1.2860 C   0  0  1  0  0  0  0  0  0  0  0  0
    1.7500    9.4620   -0.5030 C   0  0  0  0  0  0  0  0  0  0  0  0
    0.7410    8.7650    0.4040 C   0  0  0  0  0  0  0  0  0  0  0  0
   -0.4490    8.2460   -0.3990 C   0  0  2  0  0  0  0  0  0  0  0  0
    0.0020    7.1990   -1.2650 O   0  0  0  0  0  0  0  0  0  0  0  0
   -1.1510    9.3500   -1.2370 C   0  0  0  0  0  0  0  0  0  0  0  0
   -1.8980   10.3240   -0.2920 C   0  0  0  0  0  0  0  0  0  0  0  0
   -2.2420    8.6690   -2.1070 C   0  0  0  0  0  0  0  0  0  0  0  0
    2.2010   11.4450   -2.1440 C   0  0  1  0  0  0  0  0  0  0  0  0
    3.1960   10.4460   -2.8110 C   0  0  0  0  0  0  0  0  0  0  0  0
    3.0580   12.3490   -1.1810 C   0  0  0  0  0  0  0  0  0  0  0  0
    2.5120   13.7580   -0.8830 C   0  0  0  0  0  0  0  0  0  0  0  0
    2.1240   14.4820   -2.1760 C   0  0  2  0  0  0  0  0  0  0  0  0
    3.4230   14.6590   -3.0330 C   0  0  0  0  0  0  0  0  0  0  0  0
    1.7811   17.0904    0.4043 H   0  0  0  0  0  0  0  0  0  0  0  0
    3.2276   16.0860    0.0499 H   0  0  0  0  0  0  0  0  0  0  0  0
    3.3563   17.8777    0.0499 H   0  0  0  0  0  0  0  0  0  0  0  0
    3.2995   16.9706   -2.2417 H   0  0  0  0  0  0  0  0  0  0  0  0
    2.1760   19.1964   -1.5659 H   0  0  0  0  0  0  0  0  0  0  0  0
    1.7797   18.4523   -3.1884 H   0  0  0  0  0  0  0  0  0  0  0  0
   -0.1284   19.4728   -1.6961 H   0  0  0  0  0  0  0  0  0  0  0  0
   -0.3574   17.9119   -2.5896 H   0  0  0  0  0  0  0  0  0  0  0  0
    0.4192   16.8256   -0.8165 H   0  0  0  0  0  0  0  0  0  0  0  0
    0.0319   20.1805    2.0293 H   0  0  0  0  0  0  0  0  0  0  0  0
    0.9388   20.1712    0.4788 H   0  0  0  0  0  0  0  0  0  0  0  0
   -0.8375   20.4385    0.4788 H   0  0  0  0  0  0  0  0  0  0  0  0
   -0.1986   18.2716    2.9717 H   0  0  0  0  0  0  0  0  0  0  0  0
   -0.8037   16.8127    2.1160 H   0  0  0  0  0  0  0  0  0  0  0  0
    0.9525   17.1901    2.1160 H   0  0  0  0  0  0  0  0  0  0  0  0
    0.8002   15.8762   -1.1374 H   0  0  0  0  0  0  0  0  0  0  0  0
   -0.2809   16.4730   -3.2149 H   0  0  0  0  0  0  0  0  0  0  0  0
    1.2720   16.7429   -4.0349 H   0  0  0  0  0  0  0  0  0  0  0  0
   -0.4120   14.4598   -4.3767 H   0  0  0  0  0  0  0  0  0  0  0  0
    1.2706   14.5322   -4.8938 H   0  0  0  0  0  0  0  0  0  0  0  0
   -0.0800   13.5512   -0.9669 H   0  0  0  0  0  0  0  0  0  0  0  0
   -1.0116   14.3528   -2.2769 H   0  0  0  0  0  0  0  0  0  0  0  0
   -0.8163   12.5672   -2.2769 H   0  0  0  0  0  0  0  0  0  0  0  0
    2.3472   12.5517   -4.0084 H   0  0  0  0  0  0  0  0  0  0  0  0
   -0.0866   12.0815   -4.7130 H   0  0  0  0  0  0  0  0  0  0  0  0
    1.1933   10.7593   -4.7670 H   0  0  0  0  0  0  0  0  0  0  0  0
   -1.1728   10.0541   -3.8499 H   0  0  0  0  0  0  0  0  0  0  0  0
    0.7703   11.4125   -0.5812 H   0  0  0  0  0  0  0  0  0  0  0  0
    2.1407    8.7292   -1.2244 H   0  0  0  0  0  0  0  0  0  0  0  0
    2.5488    9.8671    0.1356 H   0  0  0  0  0  0  0  0  0  0  0  0
    1.2329    7.9187    0.9059 H   0  0  0  0  0  0  0  0  0  0  0  0
    0.3744    9.4916    1.1440 H   0  0  0  0  0  0  0  0  0  0  0  0
   -1.1954    7.8753    0.3190 H   0  0  0  0  0  0  0  0  0  0  0  0
   -0.7130    6.5430   -1.3290 H   0  0  0  0  0  0  0  0  0  0  0  0
   -1.6898   10.0525    0.7534 H   0  0  0  0  0  0  0  0  0  0  0  0
   -1.5546   11.3521   -0.4792 H   0  0  0  0  0  0  0  0  0  0  0  0
   -2.9800   10.2590   -0.4792 H   0  0  0  0  0  0  0  0  0  0  0  0
   -2.9926    8.2005   -1.4534 H   0  0  0  0  0  0  0  0  0  0  0  0
   -2.7287    9.4239   -2.7420 H   0  0  0  0  0  0  0  0  0  0  0  0
   -1.7776    7.9001   -2.7420 H   0  0  0  0  0  0  0  0  0  0  0  0
    3.7429    9.8969   -2.0303 H   0  0  0  0  0  0  0  0  0  0  0  0
    2.6371    9.7345   -3.4365 H   0  0  0  0  0  0  0  0  0  0  0  0
    3.9098   11.0021   -3.4365 H   0  0  0  0  0  0  0  0  0  0  0  0
    3.1514   11.8185   -0.2219 H   0  0  0  0  0  0  0  0  0  0  0  0
    4.0079   12.5143   -1.7106 H   0  0  0  0  0  0  0  0  0  0  0  0
    1.6242   13.6709   -0.2394 H   0  0  0  0  0  0  0  0  0  0  0  0
    3.2984   14.3389   -0.3789 H   0  0  0  0  0  0  0  0  0  0  0  0
    4.2894   14.7770   -2.3656 H   0  0  0  0  0  0  0  0  0  0  0  0
    3.5672   13.7722   -3.6677 H   0  0  0  0  0  0  0  0  0  0  0  0
    3.3247   15.5521   -3.6677 H   0  0  0  0  0  0  0  0  0  0  0  0
  1  2  1  0
  2  3  1  0
  3  4  1  0
  4  5  1  0
  5  6  1  0
  6  7  1  0
  7  8  1  0
  7  9  1  0
  2 10  1  0
 10 11  1  0
 11 12  1  0
 12 13  1  0
 13 14  1  1
 13 15  1  0
 15 16  1  0
 16 17  1  0
 17 18  2  0
 18 19  1  0
 19 20  1  0
 20 21  1  0
 21 22  1  0
 22 23  1  0
 22 24  1  0
 24 25  1  0
 24 26  1  0
 19 27  1  0
 27 28  1  6
 27 29  1  0
 29 30  1  0
 30 31  1  0
 31 32  1  6
  7  5  1  0
 31 10  1  0
 31 13  1  0
 27 15  1  0
 24 18  1  0
  1 33  1  0
  1 34  1  0
  1 35  1  0
  2 36  1  6
  3 37  1  0
  3 38  1  0
  4 39  1  0
  4 40  1  0
  5 41  1  1
  8 42  1  0
  8 43  1  0
  8 44  1  0
  9 45  1  0
  9 46  1  0
  9 47  1  0
 10 48  1  1
 11 49  1  0
 11 50  1  0
 12 51  1  0
 12 52  1  0
 14 53  1  0
 14 54  1  0
 14 55  1  0
 15 56  1  6
 16 57  1  0
 16 58  1  0
 17 59  1  0
 19 60  1  1
 20 61  1  0
 20 62  1  0
 21 63  1  0
 21 64  1  0
 22 65  1  1
 23 66  1  0
 25 67  1  0
 25 68  1  0
 25 69  1  0
 26 70  1  0
 26 71  1  0
 26 72  1  0
 28 73  1  0
 28 74  1  0
 28 75  1  0
 29 76  1  0
 29 77  1  0
 30 78  1  0
 30 79  1  0
 32 80  1  0
 32 81  1  0
 32 82  1  0
M  END
>  <meeko>  (8) 
{"is_sidechain": [false], "intermolecular_energy": 2.731, "internal_energy": -0.839}

$$$$
EPH_relaxed_0001_pdb2pqr_Repair_201_r2_0001_out
     RDKit          3D

 82 86  0  0  0  0  0  0  0  0999 V2000
    0.0960   11.1200   -4.1260 C   0  0  0  0  0  0  0  0  0  0  0  0
    1.2470   10.6680   -3.2230 C   0  0  2  0  0  0  0  0  0  0  0  0
    0.9460    9.3260   -2.5250 C   0  0  0  0  0  0  0  0  0  0  0  0
    0.5870    9.4710   -1.0440 C   0  0  0  0  0  0  0  0  0  0  0  0
   -0.7980    8.9750   -0.7580 C   0  0  2  0  0  0  0  0  0  0  0  0
   -1.6950    9.0260   -1.8750 O   0  0  0  0  0  0  0  0  0  0  0  0
   -2.0240    9.8690   -0.7590 C   0  0  0  0  0  0  0  0  0  0  0  0
   -1.9210   11.3340   -1.0510 C   0  0  0  0  0  0  0  0  0  0  0  0
   -3.2360    9.4230   -0.0030 C   0  0  0  0  0  0  0  0  0  0  0  0
    1.5440   11.7410   -2.1830 C   0  0  1  0  0  0  0  0  0  0  0  0
    2.8760   11.4890   -1.4270 C   0  0  0  0  0  0  0  0  0  0  0  0
    3.4970   12.8790   -1.1380 C   0  0  0  0  0  0  0  0  0  0  0  0
    2.3590   13.8840   -1.4350 C   0  0  1  0  0  0  0  0  0  0  0  0
    1.4710   13.8740   -0.1510 C   0  0  0  0  0  0  0  0  0  0  0  0
    2.8000   15.3340   -1.8210 C   0  0  2  0  0  0  0  0  0  0  0  0
    3.5770   16.0920   -0.7300 C   0  0  0  0  0  0  0  0  0  0  0  0
    2.7380   16.8980    0.2060 C   0  0  0  0  0  0  0  0  0  0  0  0
    1.4510   17.2390    0.0070 C   0  0  0  0  0  0  0  0  0  0  0  0
    0.7380   16.8900   -1.3050 C   0  0  1  0  0  0  0  0  0  0  0  0
   -0.0350   18.1320   -1.8210 C   0  0  0  0  0  0  0  0  0  0  0  0
   -0.9860   18.7050   -0.7750 C   0  0  0  0  0  0  0  0  0  0  0  0
   -0.2310   19.0950    0.4930 C   0  0  2  0  0  0  0  0  0  0  0  0
    0.6380   20.1910    0.1940 O   0  0  0  0  0  0  0  0  0  0  0  0
    0.5940   17.9250    1.0990 C   0  0  0  0  0  0  0  0  0  0  0  0
   -0.3660   16.8670    1.6980 C   0  0  0  0  0  0  0  0  0  0  0  0
    1.4170   18.4870    2.2890 C   0  0  0  0  0  0  0  0  0  0  0  0
    1.6420   16.2230   -2.4300 C   0  0  1  0  0  0  0  0  0  0  0  0
    2.3330   17.3310   -3.2830 C   0  0  0  0  0  0  0  0  0  0  0  0
    0.7210   15.4120   -3.4160 C   0  0  0  0  0  0  0  0  0  0  0  0
    0.4190   13.9490   -3.0410 C   0  0  0  0  0  0  0  0  0  0  0  0
    1.7060   13.1970   -2.6890 C   0  0  2  0  0  0  0  0  0  0  0  0
    2.6100   13.1710   -3.9680 C   0  0  0  0  0  0  0  0  0  0  0  0
   -0.7489   11.4518   -3.5047 H   0  0  0  0  0  0  0  0  0  0  0  0
    0.4333   11.9525   -4.7610 H   0  0  0  0  0  0  0  0  0  0  0  0
   -0.2233   10.2805   -4.7610 H   0  0  0  0  0  0  0  0  0  0  0  0
    2.1289   10.5163   -3.8627 H   0  0  0  0  0  0  0  0  0  0  0  0
    0.1014    8.8471   -3.0420 H   0  0  0  0  0  0  0  0  0  0  0  0
    1.8648    8.7233   -2.5761 H   0  0  0  0  0  0  0  0  0  0  0  0
    1.3042    8.8907   -0.4449 H   0  0  0  0  0  0  0  0  0  0  0  0
    0.6291   10.5390   -0.7840 H   0  0  0  0  0  0  0  0  0  0  0  0
   -0.4126    8.2522   -0.0238 H   0  0  0  0  0  0  0  0  0  0  0  0
   -1.8816   11.8945   -0.1053 H   0  0  0  0  0  0  0  0  0  0  0  0
   -1.0069   11.5289   -1.6311 H   0  0  0  0  0  0  0  0  0  0  0  0
   -2.7988   11.6549   -1.6311 H   0  0  0  0  0  0  0  0  0  0  0  0
   -3.0413    9.4947    1.0773 H   0  0  0  0  0  0  0  0  0  0  0  0
   -4.0890   10.0661   -0.2653 H   0  0  0  0  0  0  0  0  0  0  0  0
   -3.4686    8.3804   -0.2653 H   0  0  0  0  0  0  0  0  0  0  0  0
    0.6372   11.6550   -1.5664 H   0  0  0  0  0  0  0  0  0  0  0  0
    2.6813   10.9577   -0.4837 H   0  0  0  0  0  0  0  0  0  0  0  0
    3.5587   10.8688   -2.0264 H   0  0  0  0  0  0  0  0  0  0  0  0
    3.8148   12.9515   -0.0874 H   0  0  0  0  0  0  0  0  0  0  0  0
    4.3925   13.0707   -1.7473 H   0  0  0  0  0  0  0  0  0  0  0  0
    2.1153   13.8813    0.7405 H   0  0  0  0  0  0  0  0  0  0  0  0
    0.8259   14.7649   -0.1444 H   0  0  0  0  0  0  0  0  0  0  0  0
    0.8461   12.9688   -0.1444 H   0  0  0  0  0  0  0  0  0  0  0  0
    3.5224   15.1533   -2.6306 H   0  0  0  0  0  0  0  0  0  0  0  0
    4.1362   15.3542   -0.1359 H   0  0  0  0  0  0  0  0  0  0  0  0
    4.2208   16.8108   -1.2581 H   0  0  0  0  0  0  0  0  0  0  0  0
    3.2118   17.2423    1.1371 H   0  0  0  0  0  0  0  0  0  0  0  0
    0.0298   16.0846   -1.0607 H   0  0  0  0  0  0  0  0  0  0  0  0
    0.6919   18.9090   -2.1000 H   0  0  0  0  0  0  0  0  0  0  0  0
   -0.6393   17.8146   -2.6836 H   0  0  0  0  0  0  0  0  0  0  0  0
   -1.4807   19.5965   -1.1880 H   0  0  0  0  0  0  0  0  0  0  0  0
   -1.7301   17.9365   -0.5184 H   0  0  0  0  0  0  0  0  0  0  0  0
   -0.9793   19.3762    1.2486 H   0  0  0  0  0  0  0  0  0  0  0  0
    0.8230   20.1680   -0.7610 H   0  0  0  0  0  0  0  0  0  0  0  0
   -0.3238   16.9136    2.7962 H   0  0  0  0  0  0  0  0  0  0  0  0
   -1.3931   17.0716    1.3616 H   0  0  0  0  0  0  0  0  0  0  0  0
   -0.0628   15.8646    1.3616 H   0  0  0  0  0  0  0  0  0  0  0  0
    0.9548   18.1714    3.2360 H   0  0  0  0  0  0  0  0  0  0  0  0
    2.4462   18.1022    2.2372 H   0  0  0  0  0  0  0  0  0  0  0  0
    1.4332   19.5857    2.2372 H   0  0  0  0  0  0  0  0  0  0  0  0
    2.7956   18.0727   -2.6153 H   0  0  0  0  0  0  0  0  0  0  0  0
    3.1075   16.8756   -3.9177 H   0  0  0  0  0  0  0  0  0  0  0  0
    1.5833   17.8261   -3.9177 H   0  0  0  0  0  0  0  0  0  0  0  0
   -0.2400   15.9426   -3.4857 H   0  0  0  0  0  0  0  0  0  0  0  0
    1.2869   15.3563   -4.3576 H   0  0  0  0  0  0  0  0  0  0  0  0
   -0.2566   13.9320   -2.1731 H   0  0  0  0  0  0  0  0  0  0  0  0
   -0.0510   13.4553   -3.9043 H   0  0  0  0  0  0  0  0  0  0  0  0
    3.6680   13.1406   -3.6686 H   0  0  0  0  0  0  0  0  0  0  0  0
    2.3726   12.2793   -4.5668 H   0  0  0  0  0  0  0  0  0  0  0  0
    2.4242   14.0749   -4.5668 H   0  0  0  0  0  0  0  0  0  0  0  0
  1  2  1  0
  2  3  1  0
  3  4  1  0
  4  5  1  0
  5  6  1  0
  6  7  1  0
  7  8  1  0
  7  9  1  0
  2 10  1  0
 10 11  1  0
 11 12  1  0
 12 13  1  0
 13 14  1  1
 13 15  1  0
 15 16  1  0
 16 17  1  0
 17 18  2  0
 18 19  1  0
 19 20  1  0
 20 21  1  0
 21 22  1  0
 22 23  1  0
 22 24  1  0
 24 25  1  0
 24 26  1  0
 19 27  1  0
 27 28  1  6
 27 29  1  0
 29 30  1  0
 30 31  1  0
 31 32  1  6
  7  5  1  0
 31 10  1  0
 31 13  1  0
 27 15  1  0
 24 18  1  0
  1 33  1  0
  1 34  1  0
  1 35  1  0
  2 36  1  6
  3 37  1  0
  3 38  1  0
  4 39  1  0
  4 40  1  0
  5 41  1  1
  8 42  1  0
  8 43  1  0
  8 44  1  0
  9 45  1  0
  9 46  1  0
  9 47  1  0
 10 48  1  1
 11 49  1  0
 11 50  1  0
 12 51  1  0
 12 52  1  0
 14 53  1  0
 14 54  1  0
 14 55  1  0
 15 56  1  6
 16 57  1  0
 16 58  1  0
 17 59  1  0
 19 60  1  1
 20 61  1  0
 20 62  1  0
 21 63  1  0
 21 64  1  0
 22 65  1  1
 23 66  1  0
 25 67  1  0
 25 68  1  0
 25 69  1  0
 26 70  1  0
 26 71  1  0
 26 72  1  0
 28 73  1  0
 28 74  1  0
 28 75  1  0
 29 76  1  0
 29 77  1  0
 30 78  1  0
 30 79  1  0
 32 80  1  0
 32 81  1  0
 32 82  1  0
M  END
>  <meeko>  (9) 
{"is_sidechain": [false], "intermolecular_energy": 2.731, "internal_energy": -0.839}

$$$$
EPH_relaxed_0001_pdb2pqr_Repair_201_r2_0001_out
     RDKit          3D

 82 86  0  0  0  0  0  0  0  0999 V2000
   -5.1850    5.8200   -1.5620 C   0  0  0  0  0  0  0  0  0  0  0  0
   -5.4380    7.3220   -1.7190 C   0  0  2  0  0  0  0  0  0  0  0  0
   -5.1910    8.0940   -0.4070 C   0  0  0  0  0  0  0  0  0  0  0  0
   -4.1490    9.2080   -0.5360 C   0  0  0  0  0  0  0  0  0  0  0  0
   -2.7890    8.6610   -0.8500 C   0  0  2  0  0  0  0  0  0  0  0  0
   -1.7850    8.9520    0.1320 O   0  0  0  0  0  0  0  0  0  0  0  0
   -1.5890    9.5340   -1.1670 C   0  0  0  0  0  0  0  0  0  0  0  0
   -1.6940   11.0270   -1.1870 C   0  0  0  0  0  0  0  0  0  0  0  0
   -0.4500    8.9340   -1.9300 C   0  0  0  0  0  0  0  0  0  0  0  0
   -6.8640    7.5610   -2.2030 C   0  0  1  0  0  0  0  0  0  0  0  0
   -7.1550    6.8780   -3.5660 C   0  0  0  0  0  0  0  0  0  0  0  0
   -8.6330    6.4130   -3.5270 C   0  0  0  0  0  0  0  0  0  0  0  0
   -9.2340    7.1290   -2.2950 C   0  0  1  0  0  0  0  0  0  0  0  0
   -9.5690    8.5700   -2.7920 C   0  0  0  0  0  0  0  0  0  0  0  0
  -10.4750    6.4430   -1.6350 C   0  0  2  0  0  0  0  0  0  0  0  0
  -11.7160    6.3320   -2.5370 C   0  0  0  0  0  0  0  0  0  0  0  0
  -12.6640    7.4830   -2.4620 C   0  0  0  0  0  0  0  0  0  0  0  0
  -12.6770    8.4250   -1.5000 C   0  0  0  0  0  0  0  0  0  0  0  0
  -11.7310    8.3330   -0.2960 C   0  0  1  0  0  0  0  0  0  0  0  0
  -12.5260    8.6070    1.0080 C   0  0  0  0  0  0  0  0  0  0  0  0
  -13.2860    9.9280    0.9630 C   0  0  0  0  0  0  0  0  0  0  0  0
  -14.2580    9.9580   -0.2140 C   0  0  2  0  0  0  0  0  0  0  0  0
  -15.2850    8.9880    0.0120 O   0  0  0  0  0  0  0  0  0  0  0  0
  -13.5730    9.6850   -1.5820 C   0  0  0  0  0  0  0  0  0  0  0  0
  -12.6810   10.8910   -1.9670 C   0  0  0  0  0  0  0  0  0  0  0  0
  -14.6830    9.6030   -2.6640 C   0  0  0  0  0  0  0  0  0  0  0  0
  -10.8480    7.0140   -0.2070 C   0  0  1  0  0  0  0  0  0  0  0  0
  -11.6410    5.8910    0.5290 C   0  0  0  0  0  0  0  0  0  0  0  0
   -9.5750    7.3070    0.6720 C   0  0  0  0  0  0  0  0  0  0  0  0
   -8.3410    7.8720   -0.0590 C   0  0  0  0  0  0  0  0  0  0  0  0
   -8.0160    7.0430   -1.3060 C   0  0  2  0  0  0  0  0  0  0  0  0
   -7.6530    5.5930   -0.8350 C   0  0  0  0  0  0  0  0  0  0  0  0
   -5.1421    5.5652   -0.4928 H   0  0  0  0  0  0  0  0  0  0  0  0
   -6.0013    5.2587   -2.0402 H   0  0  0  0  0  0  0  0  0  0  0  0
   -4.2299    5.5571   -2.0402 H   0  0  0  0  0  0  0  0  0  0  0  0
   -4.7233    7.7012   -2.4642 H   0  0  0  0  0  0  0  0  0  0  0  0
   -6.1417    8.5433   -0.0841 H   0  0  0  0  0  0  0  0  0  0  0  0
   -4.7996    7.3704    0.3232 H   0  0  0  0  0  0  0  0  0  0  0  0
   -4.4542    9.8899   -1.3434 H   0  0  0  0  0  0  0  0  0  0  0  0
   -4.0920    9.7375    0.4265 H   0  0  0  0  0  0  0  0  0  0  0  0
   -3.2303    7.7968   -1.3681 H   0  0  0  0  0  0  0  0  0  0  0  0
   -1.7207   11.4066   -0.1549 H   0  0  0  0  0  0  0  0  0  0  0  0
   -0.8233   11.4488   -1.7104 H   0  0  0  0  0  0  0  0  0  0  0  0
   -2.6152   11.3228   -1.7104 H   0  0  0  0  0  0  0  0  0  0  0  0
    0.2969    8.5405   -1.2248 H   0  0  0  0  0  0  0  0  0  0  0  0
   -0.8234    8.1156   -2.5630 H   0  0  0  0  0  0  0  0  0  0  0  0
    0.0138    9.7048   -2.5630 H   0  0  0  0  0  0  0  0  0  0  0  0
   -6.8689    8.6608   -2.2246 H   0  0  0  0  0  0  0  0  0  0  0  0
   -7.0046    7.5934   -4.3879 H   0  0  0  0  0  0  0  0  0  0  0  0
   -6.4778    6.0276   -3.7340 H   0  0  0  0  0  0  0  0  0  0  0  0
   -9.1589    6.7128   -4.4454 H   0  0  0  0  0  0  0  0  0  0  0  0
   -8.7248    5.3189   -3.4599 H   0  0  0  0  0  0  0  0  0  0  0  0
   -9.7225    9.2302   -1.9257 H   0  0  0  0  0  0  0  0  0  0  0  0
   -8.7355    8.9511   -3.4003 H   0  0  0  0  0  0  0  0  0  0  0  0
  -10.4851    8.5443   -3.4003 H   0  0  0  0  0  0  0  0  0  0  0  0
  -10.1220    5.4121   -1.4847 H   0  0  0  0  0  0  0  0  0  0  0  0
  -11.3725    6.2419   -3.5781 H   0  0  0  0  0  0  0  0  0  0  0  0
  -12.2743    5.4542   -2.1797 H   0  0  0  0  0  0  0  0  0  0  0  0
  -13.4157    7.5687   -3.2605 H   0  0  0  0  0  0  0  0  0  0  0  0
  -10.9731    9.1166   -0.4433 H   0  0  0  0  0  0  0  0  0  0  0  0
  -13.2472    7.7903    1.1595 H   0  0  0  0  0  0  0  0  0  0  0  0
  -11.8021    8.6664    1.8341 H   0  0  0  0  0  0  0  0  0  0  0  0
  -13.8503   10.0508    1.8992 H   0  0  0  0  0  0  0  0  0  0  0  0
  -12.5611   10.7463    0.8409 H   0  0  0  0  0  0  0  0  0  0  0  0
  -14.6762   10.9738   -0.2706 H   0  0  0  0  0  0  0  0  0  0  0  0
  -16.0060    9.4290    0.4920 H   0  0  0  0  0  0  0  0  0  0  0  0
  -12.3165   11.3838   -1.0536 H   0  0  0  0  0  0  0  0  0  0  0  0
  -11.8244   10.5388   -2.5604 H   0  0  0  0  0  0  0  0  0  0  0  0
  -13.2686   11.6070   -2.5604 H   0  0  0  0  0  0  0  0  0  0  0  0
  -15.6661    9.5304   -2.1760 H   0  0  0  0  0  0  0  0  0  0  0  0
  -14.6509   10.5060   -3.2914 H   0  0  0  0  0  0  0  0  0  0  0  0
  -14.5186    8.7146   -3.2914 H   0  0  0  0  0  0  0  0  0  0  0  0
  -11.5451    6.0268    1.6164 H   0  0  0  0  0  0  0  0  0  0  0  0
  -12.7023    5.9451    0.2449 H   0  0  0  0  0  0  0  0  0  0  0  0
  -11.2350    4.9089    0.2449 H   0  0  0  0  0  0  0  0  0  0  0  0
   -9.8648    8.0331    1.4459 H   0  0  0  0  0  0  0  0  0  0  0  0
   -9.2582    6.3261    1.0559 H   0  0  0  0  0  0  0  0  0  0  0  0
   -8.5449    8.9102   -0.3600 H   0  0  0  0  0  0  0  0  0  0  0  0
   -7.4795    7.8316    0.6238 H   0  0  0  0  0  0  0  0  0  0  0  0
   -7.6438    5.5561    0.2643 H   0  0  0  0  0  0  0  0  0  0  0  0
   -8.4015    4.8845   -1.2194 H   0  0  0  0  0  0  0  0  0  0  0  0
   -6.6590    5.3207   -1.2194 H   0  0  0  0  0  0  0  0  0  0  0  0
  1  2  1  0
  2  3  1  0
  3  4  1  0
  4  5  1  0
  5  6  1  0
  6  7  1  0
  7  8  1  0
  7  9  1  0
  2 10  1  0
 10 11  1  0
 11 12  1  0
 12 13  1  0
 13 14  1  6
 13 15  1  0
 15 16  1  0
 16 17  1  0
 17 18  2  0
 18 19  1  0
 19 20  1  0
 20 21  1  0
 21 22  1  0
 22 23  1  0
 22 24  1  0
 24 25  1  0
 24 26  1  0
 19 27  1  0
 27 28  1  1
 27 29  1  0
 29 30  1  0
 30 31  1  0
 31 32  1  1
  7  5  1  0
 31 10  1  0
 31 13  1  0
 27 15  1  0
 24 18  1  0
  1 33  1  0
  1 34  1  0
  1 35  1  0
  2 36  1  6
  3 37  1  0
  3 38  1  0
  4 39  1  0
  4 40  1  0
  5 41  1  6
  8 42  1  0
  8 43  1  0
  8 44  1  0
  9 45  1  0
  9 46  1  0
  9 47  1  0
 10 48  1  6
 11 49  1  0
 11 50  1  0
 12 51  1  0
 12 52  1  0
 14 53  1  0
 14 54  1  0
 14 55  1  0
 15 56  1  1
 16 57  1  0
 16 58  1  0
 17 59  1  0
 19 60  1  6
 20 61  1  0
 20 62  1  0
 21 63  1  0
 21 64  1  0
 22 65  1  6
 23 66  1  0
 25 67  1  0
 25 68  1  0
 25 69  1  0
 26 70  1  0
 26 71  1  0
 26 72  1  0
 28 73  1  0
 28 74  1  0
 28 75  1  0
 29 76  1  0
 29 77  1  0
 30 78  1  0
 30 79  1  0
 32 80  1  0
 32 81  1  0
 32 82  1  0
M  END
>  <meeko>  (10) 
{"is_sidechain": [false], "intermolecular_energy": 2.731, "internal_energy": -0.839}

$$$$
EPH_relaxed_0001_pdb2pqr_Repair_201_r2_0001_out
     RDKit          3D

 82 86  0  0  0  0  0  0  0  0999 V2000
    1.2750   17.5930    0.0440 C   0  0  0  0  0  0  0  0  0  0  0  0
    1.8940   16.9870   -1.2190 C   0  0  2  0  0  0  0  0  0  0  0  0
    2.0150   18.0190   -2.3590 C   0  0  0  0  0  0  0  0  0  0  0  0
    3.4440   18.1960   -2.8790 C   0  0  0  0  0  0  0  0  0  0  0  0
    4.2790   16.9770   -2.6310 C   0  0  2  0  0  0  0  0  0  0  0  0
    5.3510   17.1650   -1.6980 O   0  0  0  0  0  0  0  0  0  0  0  0
    5.7330   16.8600   -3.0490 C   0  0  0  0  0  0  0  0  0  0  0  0
    6.4360   17.9800   -3.7510 C   0  0  0  0  0  0  0  0  0  0  0  0
    6.3220   15.4940   -3.2150 C   0  0  0  0  0  0  0  0  0  0  0  0
    1.0660   15.7940   -1.6830 C   0  0  1  0  0  0  0  0  0  0  0  0
    0.3990   16.0310   -3.0640 C   0  0  0  0  0  0  0  0  0  0  0  0
    0.3890   14.6640   -3.7960 C   0  0  0  0  0  0  0  0  0  0  0  0
    0.7400   13.6320   -2.6990 C   0  0  1  0  0  0  0  0  0  0  0  0
   -0.6010   13.3780   -1.9410 C   0  0  0  0  0  0  0  0  0  0  0  0
    1.3870   12.2960   -3.1890 C   0  0  2  0  0  0  0  0  0  0  0  0
    0.5020   11.4430   -4.1140 C   0  0  0  0  0  0  0  0  0  0  0  0
   -0.3640   10.4420   -3.4230 C   0  0  0  0  0  0  0  0  0  0  0  0
   -0.2260   10.0370   -2.1470 C   0  0  0  0  0  0  0  0  0  0  0  0
    0.9470   10.5260   -1.2880 C   0  0  1  0  0  0  0  0  0  0  0  0
    1.5840    9.3210   -0.5470 C   0  0  0  0  0  0  0  0  0  0  0  0
    0.5630    8.5240    0.2600 C   0  0  0  0  0  0  0  0  0  0  0  0
   -0.5570    8.0060   -0.6390 C   0  0  2  0  0  0  0  0  0  0  0  0
   -0.0130    7.0380   -1.5410 O   0  0  0  0  0  0  0  0  0  0  0  0
   -1.2660    9.1300   -1.4440 C   0  0  0  0  0  0  0  0  0  0  0  0
   -2.1060   10.0080   -0.4840 C   0  0  0  0  0  0  0  0  0  0  0  0
   -2.2760    8.4590   -2.4130 C   0  0  0  0  0  0  0  0  0  0  0  0
    2.0270   11.4230   -2.0340 C   0  0  1  0  0  0  0  0  0  0  0  0
    3.1010   10.5140   -2.7060 C   0  0  0  0  0  0  0  0  0  0  0  0
    2.7890   12.3010   -0.9720 C   0  0  0  0  0  0  0  0  0  0  0  0
    2.1620   13.6630   -0.6180 C   0  0  0  0  0  0  0  0  0  0  0  0
    1.8080   14.4490   -1.8840 C   0  0  2  0  0  0  0  0  0  0  0  0
    3.1410   14.7380   -2.6560 C   0  0  0  0  0  0  0  0  0  0  0  0
    1.7379   17.1398    0.9330 H   0  0  0  0  0  0  0  0  0  0  0  0
    1.4495   18.6790    0.0531 H   0  0  0  0  0  0  0  0  0  0  0  0
    0.1929   17.3955    0.0531 H   0  0  0  0  0  0  0  0  0  0  0  0
    2.9114   16.6566   -0.9628 H   0  0  0  0  0  0  0  0  0  0  0  0
    1.3796   17.6899   -3.1944 H   0  0  0  0  0  0  0  0  0  0  0  0
    1.6993   18.9897   -1.9491 H   0  0  0  0  0  0  0  0  0  0  0  0
    3.4081   18.3893   -3.9613 H   0  0  0  0  0  0  0  0  0  0  0  0
    3.9019   19.0402   -2.3427 H   0  0  0  0  0  0  0  0  0  0  0  0
    3.4104   16.3209   -2.7897 H   0  0  0  0  0  0  0  0  0  0  0  0
    6.8667   18.6662   -3.0069 H   0  0  0  0  0  0  0  0  0  0  0  0
    7.2396   17.5709   -4.3809 H   0  0  0  0  0  0  0  0  0  0  0  0
    5.7182   18.5258   -4.3809 H   0  0  0  0  0  0  0  0  0  0  0  0
    6.5118   15.0538   -2.2250 H   0  0  0  0  0  0  0  0  0  0  0  0
    5.6188   14.8566   -3.7710 H   0  0  0  0  0  0  0  0  0  0  0  0
    7.2683   15.5678   -3.7710 H   0  0  0  0  0  0  0  0  0  0  0  0
    0.3663   15.7148   -0.8379 H   0  0  0  0  0  0  0  0  0  0  0  0
   -0.6298   16.3966   -2.9301 H   0  0  0  0  0  0  0  0  0  0  0  0
    0.9496   16.7860   -3.6444 H   0  0  0  0  0  0  0  0  0  0  0  0
   -0.6049   14.4576   -4.2197 H   0  0  0  0  0  0  0  0  0  0  0  0
    1.0971   14.6359   -4.6373 H   0  0  0  0  0  0  0  0  0  0  0  0
   -0.4212   13.4121   -0.8563 H   0  0  0  0  0  0  0  0  0  0  0  0
   -1.3305   14.1539   -2.2163 H   0  0  0  0  0  0  0  0  0  0  0  0
   -0.9962   12.3890   -2.2163 H   0  0  0  0  0  0  0  0  0  0  0  0
    2.2173   12.6528   -3.8162 H   0  0  0  0  0  0  0  0  0  0  0  0
   -0.1505   12.1226   -4.6817 H   0  0  0  0  0  0  0  0  0  0  0  0
    1.1915   10.8641   -4.7460 H   0  0  0  0  0  0  0  0  0  0  0  0
   -1.1842    9.9980   -4.0062 H   0  0  0  0  0  0  0  0  0  0  0  0
    0.5171   11.2284   -0.5588 H   0  0  0  0  0  0  0  0  0  0  0  0
    2.0446    8.6535   -1.2902 H   0  0  0  0  0  0  0  0  0  0  0  0
    2.3295    9.7185    0.1574 H   0  0  0  0  0  0  0  0  0  0  0  0
    1.0673    7.6699    0.7356 H   0  0  0  0  0  0  0  0  0  0  0  0
    0.1247    9.1845    1.0226 H   0  0  0  0  0  0  0  0  0  0  0  0
   -1.3216    7.5571    0.0120 H   0  0  0  0  0  0  0  0  0  0  0  0
    0.6640    6.5330   -1.0580 H   0  0  0  0  0  0  0  0  0  0  0  0
   -1.8604    9.7513    0.5571 H   0  0  0  0  0  0  0  0  0  0  0  0
   -1.8781   11.0691   -0.6636 H   0  0  0  0  0  0  0  0  0  0  0  0
   -3.1761    9.8273   -0.6636 H   0  0  0  0  0  0  0  0  0  0  0  0
   -3.0539    7.9422   -1.8317 H   0  0  0  0  0  0  0  0  0  0  0  0
   -2.7420    9.2277   -3.0470 H   0  0  0  0  0  0  0  0  0  0  0  0
   -1.7479    7.7315   -3.0470 H   0  0  0  0  0  0  0  0  0  0  0  0
    3.6947   10.0115   -1.9282 H   0  0  0  0  0  0  0  0  0  0  0  0
    2.6027    9.7591   -3.3319 H   0  0  0  0  0  0  0  0  0  0  0  0
    3.7632   11.1302   -3.3319 H   0  0  0  0  0  0  0  0  0  0  0  0
    2.8579   11.7150   -0.0436 H   0  0  0  0  0  0  0  0  0  0  0  0
    3.7558   12.5417   -1.4381 H   0  0  0  0  0  0  0  0  0  0  0  0
    1.2472   13.4962   -0.0304 H   0  0  0  0  0  0  0  0  0  0  0  0
    2.8923   14.2449   -0.0365 H   0  0  0  0  0  0  0  0  0  0  0  0
    3.9521   14.9138   -1.9341 H   0  0  0  0  0  0  0  0  0  0  0  0
    3.3935   13.8737   -3.2879 H   0  0  0  0  0  0  0  0  0  0  0  0
    3.0129   15.6292   -3.2879 H   0  0  0  0  0  0  0  0  0  0  0  0
  1  2  1  0
  2  3  1  0
  3  4  1  0
  4  5  1  0
  5  6  1  0
  6  7  1  0
  7  8  1  0
  7  9  1  0
  2 10  1  0
 10 11  1  0
 11 12  1  0
 12 13  1  0
 13 14  1  1
 13 15  1  0
 15 16  1  0
 16 17  1  0
 17 18  2  0
 18 19  1  0
 19 20  1  0
 20 21  1  0
 21 22  1  0
 22 23  1  0
 22 24  1  0
 24 25  1  0
 24 26  1  0
 19 27  1  0
 27 28  1  6
 27 29  1  0
 29 30  1  0
 30 31  1  0
 31 32  1  6
  7  5  1  0
 31 10  1  0
 31 13  1  0
 27 15  1  0
 24 18  1  0
  1 33  1  0
  1 34  1  0
  1 35  1  0
  2 36  1  1
  3 37  1  0
  3 38  1  0
  4 39  1  0
  4 40  1  0
  5 41  1  1
  8 42  1  0
  8 43  1  0
  8 44  1  0
  9 45  1  0
  9 46  1  0
  9 47  1  0
 10 48  1  1
 11 49  1  0
 11 50  1  0
 12 51  1  0
 12 52  1  0
 14 53  1  0
 14 54  1  0
 14 55  1  0
 15 56  1  6
 16 57  1  0
 16 58  1  0
 17 59  1  0
 19 60  1  1
 20 61  1  0
 20 62  1  0
 21 63  1  0
 21 64  1  0
 22 65  1  1
 23 66  1  0
 25 67  1  0
 25 68  1  0
 25 69  1  0
 26 70  1  0
 26 71  1  0
 26 72  1  0
 28 73  1  0
 28 74  1  0
 28 75  1  0
 29 76  1  0
 29 77  1  0
 30 78  1  0
 30 79  1  0
 32 80  1  0
 32 81  1  0
 32 82  1  0
M  END
>  <meeko>  (11) 
{"is_sidechain": [false], "intermolecular_energy": 2.731, "internal_energy": -0.839}

$$$$
EPH_relaxed_0001_pdb2pqr_Repair_201_r2_0001_out
     RDKit          3D

 82 86  0  0  0  0  0  0  0  0999 V2000
    0.1220    9.8800   -2.8680 C   0  0  0  0  0  0  0  0  0  0  0  0
    1.2910   10.7850   -3.2640 C   0  0  2  0  0  0  0  0  0  0  0  0
    2.5870    9.9870   -3.5110 C   0  0  0  0  0  0  0  0  0  0  0  0
    3.6330   10.7480   -4.3300 C   0  0  0  0  0  0  0  0  0  0  0  0
    4.9500   10.8200   -3.6190 C   0  0  2  0  0  0  0  0  0  0  0  0
    5.6960   12.0200   -3.8600 O   0  0  0  0  0  0  0  0  0  0  0  0
    6.2880   10.8000   -4.3330 C   0  0  0  0  0  0  0  0  0  0  0  0
    6.3760   10.7040   -5.8240 C   0  0  0  0  0  0  0  0  0  0  0  0
    7.5030   10.3820   -3.5640 C   0  0  0  0  0  0  0  0  0  0  0  0
    1.5240   11.8360   -2.1840 C   0  0  1  0  0  0  0  0  0  0  0  0
    2.8320   11.5920   -1.3860 C   0  0  0  0  0  0  0  0  0  0  0  0
    3.4100   12.9870   -1.0360 C   0  0  0  0  0  0  0  0  0  0  0  0
    2.2610   13.9740   -1.3480 C   0  0  1  0  0  0  0  0  0  0  0  0
    1.3260   13.9090   -0.1000 C   0  0  0  0  0  0  0  0  0  0  0  0
    2.6820   15.4440   -1.6780 C   0  0  2  0  0  0  0  0  0  0  0  0
    3.3990   16.1880   -0.5380 C   0  0  0  0  0  0  0  0  0  0  0  0
    2.5080   16.9480    0.3870 C   0  0  0  0  0  0  0  0  0  0  0  0
    1.2220   17.2670    0.1480 C   0  0  0  0  0  0  0  0  0  0  0  0
    0.5660   16.9380   -1.1990 C   0  0  1  0  0  0  0  0  0  0  0  0
   -0.2160   18.1770   -1.7100 C   0  0  0  0  0  0  0  0  0  0  0  0
   -1.2180   18.6990   -0.6850 C   0  0  0  0  0  0  0  0  0  0  0  0
   -0.5200   19.0700    0.6210 C   0  0  2  0  0  0  0  0  0  0  0  0
    0.3340   20.1940    0.3840 O   0  0  0  0  0  0  0  0  0  0  0  0
    0.3080   17.9020    1.2250 C   0  0  0  0  0  0  0  0  0  0  0  0
   -0.6480   16.8070    1.7590 C   0  0  0  0  0  0  0  0  0  0  0  0
    1.0730   18.4490    2.4610 C   0  0  0  0  0  0  0  0  0  0  0  0
    1.5270   16.3240   -2.3060 C   0  0  1  0  0  0  0  0  0  0  0  0
    2.2230   17.4700   -3.1020 C   0  0  0  0  0  0  0  0  0  0  0  0
    0.6620   15.5210   -3.3480 C   0  0  0  0  0  0  0  0  0  0  0  0
    0.3810   14.0410   -3.0240 C   0  0  0  0  0  0  0  0  0  0  0  0
    1.6710   13.3080   -2.6440 C   0  0  2  0  0  0  0  0  0  0  0  0
    2.6230   13.3380   -3.8880 C   0  0  0  0  0  0  0  0  0  0  0  0
    0.0541    9.8275   -1.7714 H   0  0  0  0  0  0  0  0  0  0  0  0
   -0.8140   10.2912   -3.2740 H   0  0  0  0  0  0  0  0  0  0  0  0
    0.2857    8.8709   -3.2740 H   0  0  0  0  0  0  0  0  0  0  0  0
    1.0218   11.2771   -4.2102 H   0  0  0  0  0  0  0  0  0  0  0  0
    3.0282    9.7313   -2.5364 H   0  0  0  0  0  0  0  0  0  0  0  0
    2.3093    9.0961   -4.0934 H   0  0  0  0  0  0  0  0  0  0  0  0
    3.7751   10.2340   -5.2921 H   0  0  0  0  0  0  0  0  0  0  0  0
    3.2688   11.7749   -4.4811 H   0  0  0  0  0  0  0  0  0  0  0  0
    4.5540   10.2332   -2.7770 H   0  0  0  0  0  0  0  0  0  0  0  0
    7.0957    9.9189   -6.0990 H   0  0  0  0  0  0  0  0  0  0  0  0
    5.3864   10.4544   -6.2344 H   0  0  0  0  0  0  0  0  0  0  0  0
    6.7106   11.6682   -6.2344 H   0  0  0  0  0  0  0  0  0  0  0  0
    7.2969   10.4529   -2.4858 H   0  0  0  0  0  0  0  0  0  0  0  0
    7.7601    9.3437   -3.8206 H   0  0  0  0  0  0  0  0  0  0  0  0
    8.3445   11.0423   -3.8206 H   0  0  0  0  0  0  0  0  0  0  0  0
    0.5971   11.7136   -1.6045 H   0  0  0  0  0  0  0  0  0  0  0  0
    2.6148   11.0303   -0.4655 H   0  0  0  0  0  0  0  0  0  0  0  0
    3.5504   11.0038   -1.9760 H   0  0  0  0  0  0  0  0  0  0  0  0
    3.6871   13.0370    0.0274 H   0  0  0  0  0  0  0  0  0  0  0  0
    4.3228   13.2155   -1.6056 H   0  0  0  0  0  0  0  0  0  0  0  0
    1.9336   13.9512    0.8160 H   0  0  0  0  0  0  0  0  0  0  0  0
    0.6304   14.7610   -0.1182 H   0  0  0  0  0  0  0  0  0  0  0  0
    0.7550   12.9690   -0.1182 H   0  0  0  0  0  0  0  0  0  0  0  0
    3.4378   15.3021   -2.4646 H   0  0  0  0  0  0  0  0  0  0  0  0
    3.9527   15.4464    0.0564 H   0  0  0  0  0  0  0  0  0  0  0  0
    4.0445   16.9360   -1.0216 H   0  0  0  0  0  0  0  0  0  0  0  0
    2.9383   17.2752    1.3450 H   0  0  0  0  0  0  0  0  0  0  0  0
   -0.1318   16.1104   -1.0039 H   0  0  0  0  0  0  0  0  0  0  0  0
    0.5026   18.9774   -1.9401 H   0  0  0  0  0  0  0  0  0  0  0  0
   -0.7803   17.8710   -2.6032 H   0  0  0  0  0  0  0  0  0  0  0  0
   -1.7177   19.5905   -1.0919 H   0  0  0  0  0  0  0  0  0  0  0  0
   -1.9526   17.9070   -0.4776 H   0  0  0  0  0  0  0  0  0  0  0  0
   -1.3014   19.3134    1.3560 H   0  0  0  0  0  0  0  0  0  0  0  0
    1.2330   19.9430    0.6570 H   0  0  0  0  0  0  0  0  0  0  0  0
   -0.6392   16.8171    2.8589 H   0  0  0  0  0  0  0  0  0  0  0  0
   -1.6685   17.0037    1.3987 H   0  0  0  0  0  0  0  0  0  0  0  0
   -0.3154   15.8223    1.3987 H   0  0  0  0  0  0  0  0  0  0  0  0
    0.5822   18.0981    3.3808 H   0  0  0  0  0  0  0  0  0  0  0  0
    2.1117   18.0876    2.4388 H   0  0  0  0  0  0  0  0  0  0  0  0
    1.0669   19.5488    2.4388 H   0  0  0  0  0  0  0  0  0  0  0  0
    2.6615   18.1920   -2.3974 H   0  0  0  0  0  0  0  0  0  0  0  0
    3.0169   17.0470   -3.7351 H   0  0  0  0  0  0  0  0  0  0  0  0
    1.4816   17.9795   -3.7351 H   0  0  0  0  0  0  0  0  0  0  0  0
   -0.3080   16.0317   -3.4391 H   0  0  0  0  0  0  0  0  0  0  0  0
    1.2629   15.5049   -4.2693 H   0  0  0  0  0  0  0  0  0  0  0  0
   -0.3258   13.9848   -2.1830 H   0  0  0  0  0  0  0  0  0  0  0  0
   -0.0445   13.5612   -3.9177 H   0  0  0  0  0  0  0  0  0  0  0  0
    3.6688   13.3710   -3.5487 H   0  0  0  0  0  0  0  0  0  0  0  0
    2.4626   12.4344   -4.4944 H   0  0  0  0  0  0  0  0  0  0  0  0
    2.4060   14.2298   -4.4944 H   0  0  0  0  0  0  0  0  0  0  0  0
  1  2  1  0
  2  3  1  0
  3  4  1  0
  4  5  1  0
  5  6  1  0
  6  7  1  0
  7  8  1  0
  7  9  1  0
  2 10  1  0
 10 11  1  0
 11 12  1  0
 12 13  1  0
 13 14  1  1
 13 15  1  0
 15 16  1  0
 16 17  1  0
 17 18  2  0
 18 19  1  0
 19 20  1  0
 20 21  1  0
 21 22  1  0
 22 23  1  0
 22 24  1  0
 24 25  1  0
 24 26  1  0
 19 27  1  0
 27 28  1  6
 27 29  1  0
 29 30  1  0
 30 31  1  0
 31 32  1  6
  7  5  1  0
 31 10  1  0
 31 13  1  0
 27 15  1  0
 24 18  1  0
  1 33  1  0
  1 34  1  0
  1 35  1  0
  2 36  1  6
  3 37  1  0
  3 38  1  0
  4 39  1  0
  4 40  1  0
  5 41  1  1
  8 42  1  0
  8 43  1  0
  8 44  1  0
  9 45  1  0
  9 46  1  0
  9 47  1  0
 10 48  1  1
 11 49  1  0
 11 50  1  0
 12 51  1  0
 12 52  1  0
 14 53  1  0
 14 54  1  0
 14 55  1  0
 15 56  1  6
 16 57  1  0
 16 58  1  0
 17 59  1  0
 19 60  1  1
 20 61  1  0
 20 62  1  0
 21 63  1  0
 21 64  1  0
 22 65  1  1
 23 66  1  0
 25 67  1  0
 25 68  1  0
 25 69  1  0
 26 70  1  0
 26 71  1  0
 26 72  1  0
 28 73  1  0
 28 74  1  0
 28 75  1  0
 29 76  1  0
 29 77  1  0
 30 78  1  0
 30 79  1  0
 32 80  1  0
 32 81  1  0
 32 82  1  0
M  END
>  <meeko>  (12) 
{"is_sidechain": [false], "intermolecular_energy": 2.731, "internal_energy": -0.839}

$$$$
EPH_relaxed_0001_pdb2pqr_Repair_201_r2_0001_out
     RDKit          3D

 82 86  0  0  0  0  0  0  0  0999 V2000
    0.3340    9.3210   -3.2820 C   0  0  0  0  0  0  0  0  0  0  0  0
    1.1900   10.5320   -3.6640 C   0  0  2  0  0  0  0  0  0  0  0  0
    2.6390   10.4040   -3.1520 C   0  0  0  0  0  0  0  0  0  0  0  0
    3.6940   10.8270   -4.1780 C   0  0  0  0  0  0  0  0  0  0  0  0
    5.0520   10.9530   -3.5560 C   0  0  2  0  0  0  0  0  0  0  0  0
    5.7810   12.1250   -3.9440 O   0  0  0  0  0  0  0  0  0  0  0  0
    6.3450   10.8660   -4.3460 C   0  0  0  0  0  0  0  0  0  0  0  0
    6.3410   10.6430   -5.8260 C   0  0  0  0  0  0  0  0  0  0  0  0
    7.6040   10.5100   -3.6200 C   0  0  0  0  0  0  0  0  0  0  0  0
    0.5570   11.8080   -3.1210 C   0  0  1  0  0  0  0  0  0  0  0  0
   -0.6570   11.5260   -2.1960 C   0  0  0  0  0  0  0  0  0  0  0  0
   -0.6410   12.6150   -1.0930 C   0  0  0  0  0  0  0  0  0  0  0  0
    0.3680   13.6710   -1.6020 C   0  0  1  0  0  0  0  0  0  0  0  0
   -0.4370   14.5370   -2.6210 C   0  0  0  0  0  0  0  0  0  0  0  0
    1.0540   14.5550   -0.5090 C   0  0  2  0  0  0  0  0  0  0  0  0
    0.0970   15.4410    0.3080 C   0  0  0  0  0  0  0  0  0  0  0  0
   -0.1390   16.8060   -0.2480 C   0  0  0  0  0  0  0  0  0  0  0  0
    0.6070   17.4050   -1.1960 C   0  0  0  0  0  0  0  0  0  0  0  0
    1.8760   16.7350   -1.7390 C   0  0  1  0  0  0  0  0  0  0  0  0
    3.0300   17.7710   -1.7830 C   0  0  0  0  0  0  0  0  0  0  0  0
    2.6560   19.0300   -2.5590 C   0  0  0  0  0  0  0  0  0  0  0  0
    1.4250   19.6990   -1.9540 C   0  0  2  0  0  0  0  0  0  0  0  0
    1.7620   20.1940   -0.6540 O   0  0  0  0  0  0  0  0  0  0  0  0
    0.2000   18.7480   -1.8500 C   0  0  0  0  0  0  0  0  0  0  0  0
   -0.3510   18.4520   -3.2660 C   0  0  0  0  0  0  0  0  0  0  0  0
   -0.9270   19.5030   -1.0940 C   0  0  0  0  0  0  0  0  0  0  0  0
    2.3010   15.3780   -1.0300 C   0  0  1  0  0  0  0  0  0  0  0  0
    3.1850   15.6830    0.2180 C   0  0  0  0  0  0  0  0  0  0  0  0
    3.1990   14.5420   -2.0170 C   0  0  0  0  0  0  0  0  0  0  0  0
    2.4690   13.5980   -2.9910 C   0  0  0  0  0  0  0  0  0  0  0  0
    1.4470   12.7300   -2.2510 C   0  0  2  0  0  0  0  0  0  0  0  0
    2.2300   11.8320   -1.2330 C   0  0  0  0  0  0  0  0  0  0  0  0
    0.2784    9.2423   -2.1862 H   0  0  0  0  0  0  0  0  0  0  0  0
   -0.6790    9.4438   -3.6927 H   0  0  0  0  0  0  0  0  0  0  0  0
    0.7878    8.4070   -3.6927 H   0  0  0  0  0  0  0  0  0  0  0  0
    1.2305   10.5750   -4.7624 H   0  0  0  0  0  0  0  0  0  0  0  0
    2.7491   11.0373   -2.2594 H   0  0  0  0  0  0  0  0  0  0  0  0
    2.8104    9.3393   -2.9350 H   0  0  0  0  0  0  0  0  0  0  0  0
    3.7365   10.0727   -4.9775 H   0  0  0  0  0  0  0  0  0  0  0  0
    3.4077   11.8104   -4.5792 H   0  0  0  0  0  0  0  0  0  0  0  0
    4.7085   10.4420   -2.6444 H   0  0  0  0  0  0  0  0  0  0  0  0
    6.3216    9.5630   -6.0340 H   0  0  0  0  0  0  0  0  0  0  0  0
    5.4512   11.1171   -6.2658 H   0  0  0  0  0  0  0  0  0  0  0  0
    7.2472   11.0849   -6.2658 H   0  0  0  0  0  0  0  0  0  0  0  0
    7.4283   10.5597   -2.5353 H   0  0  0  0  0  0  0  0  0  0  0  0
    7.9102    9.4900   -3.8955 H   0  0  0  0  0  0  0  0  0  0  0  0
    8.3990   11.2186   -3.8955 H   0  0  0  0  0  0  0  0  0  0  0  0
    0.3113   12.3089   -4.0690 H   0  0  0  0  0  0  0  0  0  0  0  0
   -1.5929   11.5831   -2.7712 H   0  0  0  0  0  0  0  0  0  0  0  0
   -0.5943   10.5190   -1.7578 H   0  0  0  0  0  0  0  0  0  0  0  0
   -1.6399   13.0593   -0.9714 H   0  0  0  0  0  0  0  0  0  0  0  0
   -0.3598   12.2091   -0.1101 H   0  0  0  0  0  0  0  0  0  0  0  0
   -1.0871   15.2363   -2.0748 H   0  0  0  0  0  0  0  0  0  0  0  0
    0.2622   15.1040   -3.2532 H   0  0  0  0  0  0  0  0  0  0  0  0
   -1.0535   13.8810   -3.2532 H   0  0  0  0  0  0  0  0  0  0  0  0
    1.4398   13.8032    0.1953 H   0  0  0  0  0  0  0  0  0  0  0  0
   -0.8734   14.9266    0.3695 H   0  0  0  0  0  0  0  0  0  0  0  0
    0.5795   15.5897    1.2853 H   0  0  0  0  0  0  0  0  0  0  0  0
   -0.9949   17.3706    0.1503 H   0  0  0  0  0  0  0  0  0  0  0  0
    1.6324   16.4039   -2.7593 H   0  0  0  0  0  0  0  0  0  0  0  0
    3.2880   18.0556   -0.7522 H   0  0  0  0  0  0  0  0  0  0  0  0
    3.8810   17.3015   -2.2981 H   0  0  0  0  0  0  0  0  0  0  0  0
    3.4999   19.7350   -2.5293 H   0  0  0  0  0  0  0  0  0  0  0  0
    2.4270   18.7472   -3.5970 H   0  0  0  0  0  0  0  0  0  0  0  0
    1.1298   20.5177   -2.6267 H   0  0  0  0  0  0  0  0  0  0  0  0
    1.0590   19.9170   -0.0430 H   0  0  0  0  0  0  0  0  0  0  0  0
   -1.3172   17.9329   -3.1824 H   0  0  0  0  0  0  0  0  0  0  0  0
   -0.4887   19.3976   -3.8109 H   0  0  0  0  0  0  0  0  0  0  0  0
    0.3614   17.8152   -3.8109 H   0  0  0  0  0  0  0  0  0  0  0  0
   -0.7736   19.4003   -0.0096 H   0  0  0  0  0  0  0  0  0  0  0  0
   -0.9029   20.5679   -1.3685 H   0  0  0  0  0  0  0  0  0  0  0  0
   -1.9027   19.0756   -1.3685 H   0  0  0  0  0  0  0  0  0  0  0  0
    2.6083   15.4840    1.1333 H   0  0  0  0  0  0  0  0  0  0  0  0
    4.0781   15.0410    0.2005 H   0  0  0  0  0  0  0  0  0  0  0  0
    3.4922   16.7391    0.2005 H   0  0  0  0  0  0  0  0  0  0  0  0
    3.7834   15.2536   -2.6187 H   0  0  0  0  0  0  0  0  0  0  0  0
    3.7979   13.8823   -1.3719 H   0  0  0  0  0  0  0  0  0  0  0  0
    1.9478   14.1983   -3.7513 H   0  0  0  0  0  0  0  0  0  0  0  0
    3.2121   12.9389   -3.4636 H   0  0  0  0  0  0  0  0  0  0  0  0
    1.9704   12.1297   -0.2063 H   0  0  0  0  0  0  0  0  0  0  0  0
    1.9576   10.7777   -1.3890 H   0  0  0  0  0  0  0  0  0  0  0  0
    3.3115   11.9583   -1.3890 H   0  0  0  0  0  0  0  0  0  0  0  0
  1  2  1  0
  2  3  1  0
  3  4  1  0
  4  5  1  0
  5  6  1  0
  6  7  1  0
  7  8  1  0
  7  9  1  0
  2 10  1  0
 10 11  1  0
 11 12  1  0
 12 13  1  0
 13 14  1  6
 13 15  1  0
 15 16  1  0
 16 17  1  0
 17 18  2  0
 18 19  1  0
 19 20  1  0
 20 21  1  0
 21 22  1  0
 22 23  1  0
 22 24  1  0
 24 25  1  0
 24 26  1  0
 19 27  1  0
 27 28  1  1
 27 29  1  0
 29 30  1  0
 30 31  1  0
 31 32  1  1
  7  5  1  0
 31 10  1  0
 31 13  1  0
 27 15  1  0
 24 18  1  0
  1 33  1  0
  1 34  1  0
  1 35  1  0
  2 36  1  6
  3 37  1  0
  3 38  1  0
  4 39  1  0
  4 40  1  0
  5 41  1  1
  8 42  1  0
  8 43  1  0
  8 44  1  0
  9 45  1  0
  9 46  1  0
  9 47  1  0
 10 48  1  6
 11 49  1  0
 11 50  1  0
 12 51  1  0
 12 52  1  0
 14 53  1  0
 14 54  1  0
 14 55  1  0
 15 56  1  1
 16 57  1  0
 16 58  1  0
 17 59  1  0
 19 60  1  6
 20 61  1  0
 20 62  1  0
 21 63  1  0
 21 64  1  0
 22 65  1  6
 23 66  1  0
 25 67  1  0
 25 68  1  0
 25 69  1  0
 26 70  1  0
 26 71  1  0
 26 72  1  0
 28 73  1  0
 28 74  1  0
 28 75  1  0
 29 76  1  0
 29 77  1  0
 30 78  1  0
 30 79  1  0
 32 80  1  0
 32 81  1  0
 32 82  1  0
M  END
>  <meeko>  (13) 
{"is_sidechain": [false], "intermolecular_energy": 2.731, "internal_energy": -0.839}

$$$$
EPH_relaxed_0001_pdb2pqr_Repair_201_r2_0001_out
     RDKit          3D

 82 86  0  0  0  0  0  0  0  0999 V2000
    1.8700   19.8770   -1.4350 C   0  0  0  0  0  0  0  0  0  0  0  0
    1.8240   19.4820    0.0430 C   0  0  2  0  0  0  0  0  0  0  0  0
    3.1440   19.8040    0.7720 C   0  0  0  0  0  0  0  0  0  0  0  0
    3.7560   18.6040    1.4990 C   0  0  0  0  0  0  0  0  0  0  0  0
    4.0390   18.9130    2.9380 C   0  0  2  0  0  0  0  0  0  0  0  0
    4.6380   20.1940    3.1680 O   0  0  0  0  0  0  0  0  0  0  0  0
    5.4400   19.0500    3.5040 C   0  0  0  0  0  0  0  0  0  0  0  0
    6.6500   18.8800    2.6410 C   0  0  0  0  0  0  0  0  0  0  0  0
    5.6380   18.8640    4.9770 C   0  0  0  0  0  0  0  0  0  0  0  0
    1.5060   17.9970    0.1750 C   0  0  1  0  0  0  0  0  0  0  0  0
    0.3040   17.7240    1.1180 C   0  0  0  0  0  0  0  0  0  0  0  0
   -0.4530   16.5030    0.5360 C   0  0  0  0  0  0  0  0  0  0  0  0
    0.5130   15.9120   -0.5180 C   0  0  1  0  0  0  0  0  0  0  0  0
    1.5250   15.0530    0.3020 C   0  0  0  0  0  0  0  0  0  0  0  0
   -0.1450   15.0850   -1.6700 C   0  0  2  0  0  0  0  0  0  0  0  0
   -0.8910   13.8160   -1.2200 C   0  0  0  0  0  0  0  0  0  0  0  0
   -0.0660   12.5730   -1.1770 C   0  0  0  0  0  0  0  0  0  0  0  0
    1.1400   12.4130   -1.7550 C   0  0  0  0  0  0  0  0  0  0  0  0
    1.7490   13.5210   -2.6240 C   0  0  1  0  0  0  0  0  0  0  0  0
    2.3020   12.9050   -3.9360 C   0  0  0  0  0  0  0  0  0  0  0  0
    3.2780   11.7610   -3.6790 C   0  0  0  0  0  0  0  0  0  0  0  0
    2.6180   10.6530   -2.8620 C   0  0  2  0  0  0  0  0  0  0  0  0
    1.5910   10.0460   -3.6530 O   0  0  0  0  0  0  0  0  0  0  0  0
    2.0150   11.1580   -1.5210 C   0  0  0  0  0  0  0  0  0  0  0  0
    3.1580   11.5360   -0.5460 C   0  0  0  0  0  0  0  0  0  0  0  0
    1.2580    9.9730   -0.8620 C   0  0  0  0  0  0  0  0  0  0  0  0
    0.8220   14.7850   -2.8870 C   0  0  1  0  0  0  0  0  0  0  0  0
   -0.0880   14.5290   -4.1270 C   0  0  0  0  0  0  0  0  0  0  0  0
    1.7290   16.0210   -3.2490 C   0  0  0  0  0  0  0  0  0  0  0  0
    2.2490   16.8690   -2.0730 C   0  0  0  0  0  0  0  0  0  0  0  0
    1.1110   17.2370   -1.1160 C   0  0  2  0  0  0  0  0  0  0  0  0
    0.0880   18.1200   -1.9080 C   0  0  0  0  0  0  0  0  0  0  0  0
    1.9969   20.9664   -1.5196 H   0  0  0  0  0  0  0  0  0  0  0  0
    2.7152   19.3704   -1.9238 H   0  0  0  0  0  0  0  0  0  0  0  0
    0.9310   19.5781   -1.9238 H   0  0  0  0  0  0  0  0  0  0  0  0
    1.0302   20.0763    0.5190 H   0  0  0  0  0  0  0  0  0  0  0  0
    3.8703   20.1675    0.0302 H   0  0  0  0  0  0  0  0  0  0  0  0
    2.9116   20.5586    1.5379 H   0  0  0  0  0  0  0  0  0  0  0  0
    3.0531   17.7595    1.4473 H   0  0  0  0  0  0  0  0  0  0  0  0
    4.7083   18.3549    1.0081 H   0  0  0  0  0  0  0  0  0  0  0  0
    3.1674   18.3245    3.2605 H   0  0  0  0  0  0  0  0  0  0  0  0
    7.5391   18.7551    3.2766 H   0  0  0  0  0  0  0  0  0  0  0  0
    6.5254   17.9905    2.0059 H   0  0  0  0  0  0  0  0  0  0  0  0
    6.7753   19.7694    2.0059 H   0  0  0  0  0  0  0  0  0  0  0  0
    4.9431   19.5168    5.5257 H   0  0  0  0  0  0  0  0  0  0  0  0
    5.4432   17.8147    5.2435 H   0  0  0  0  0  0  0  0  0  0  0  0
    6.6731   19.1239    5.2435 H   0  0  0  0  0  0  0  0  0  0  0  0
    2.4763   17.6333    0.5441 H   0  0  0  0  0  0  0  0  0  0  0  0
    0.6626   17.4986    2.1332 H   0  0  0  0  0  0  0  0  0  0  0  0
   -0.3546   18.6027    1.1828 H   0  0  0  0  0  0  0  0  0  0  0  0
   -0.6658   15.7660    1.3244 H   0  0  0  0  0  0  0  0  0  0  0  0
   -1.4244   16.7822    0.1019 H   0  0  0  0  0  0  0  0  0  0  0  0
    1.3473   15.2038    1.3770 H   0  0  0  0  0  0  0  0  0  0  0  0
    1.3894   13.9900    0.0535 H   0  0  0  0  0  0  0  0  0  0  0  0
    2.5518   15.3595    0.0535 H   0  0  0  0  0  0  0  0  0  0  0  0
   -0.9204   15.7723   -2.0392 H   0  0  0  0  0  0  0  0  0  0  0  0
   -1.2883   13.9954   -0.2100 H   0  0  0  0  0  0  0  0  0  0  0  0
   -1.6709   13.6376   -1.9749 H   0  0  0  0  0  0  0  0  0  0  0  0
   -0.4780   11.7145   -0.6264 H   0  0  0  0  0  0  0  0  0  0  0  0
    2.5739   13.9495   -2.0358 H   0  0  0  0  0  0  0  0  0  0  0  0
    1.4582   12.5222   -4.5289 H   0  0  0  0  0  0  0  0  0  0  0  0
    2.8477   13.6955   -4.4720 H   0  0  0  0  0  0  0  0  0  0  0  0
    3.6104   11.3481   -4.6429 H   0  0  0  0  0  0  0  0  0  0  0  0
    4.1353   12.1521   -3.1116 H   0  0  0  0  0  0  0  0  0  0  0  0
    3.4000    9.9250   -2.6004 H   0  0  0  0  0  0  0  0  0  0  0  0
    1.0270    9.5270   -3.0550 H   0  0  0  0  0  0  0  0  0  0  0  0
    2.8088   11.4205    0.4907 H   0  0  0  0  0  0  0  0  0  0  0  0
    4.0204   10.8752   -0.7182 H   0  0  0  0  0  0  0  0  0  0  0  0
    3.4564   12.5807   -0.7182 H   0  0  0  0  0  0  0  0  0  0  0  0
    1.3162   10.0641    0.2327 H   0  0  0  0  0  0  0  0  0  0  0  0
    0.2039    9.9913   -1.1759 H   0  0  0  0  0  0  0  0  0  0  0  0
    1.7177    9.0242   -1.1759 H   0  0  0  0  0  0  0  0  0  0  0  0
   -1.0959   14.2455   -3.7898 H   0  0  0  0  0  0  0  0  0  0  0  0
   -0.1482   15.4451   -4.7330 H   0  0  0  0  0  0  0  0  0  0  0  0
    0.3382   13.7159   -4.7330 H   0  0  0  0  0  0  0  0  0  0  0  0
    2.6035   15.6424   -3.7985 H   0  0  0  0  0  0  0  0  0  0  0  0
    1.0791   16.6959   -3.8253 H   0  0  0  0  0  0  0  0  0  0  0  0
    3.0093   16.2943   -1.5237 H   0  0  0  0  0  0  0  0  0  0  0  0
    2.6827   17.7966   -2.4748 H   0  0  0  0  0  0  0  0  0  0  0  0
   -0.5484   18.6693   -1.1986 H   0  0  0  0  0  0  0  0  0  0  0  0
    0.6339   18.8353   -2.5408 H   0  0  0  0  0  0  0  0  0  0  0  0
   -0.5398   17.4755   -2.5408 H   0  0  0  0  0  0  0  0  0  0  0  0
  1  2  1  0
  2  3  1  0
  3  4  1  0
  4  5  1  0
  5  6  1  0
  6  7  1  0
  7  8  1  0
  7  9  1  0
  2 10  1  0
 10 11  1  0
 11 12  1  0
 12 13  1  0
 13 14  1  1
 13 15  1  0
 15 16  1  0
 16 17  1  0
 17 18  2  0
 18 19  1  0
 19 20  1  0
 20 21  1  0
 21 22  1  0
 22 23  1  0
 22 24  1  0
 24 25  1  0
 24 26  1  0
 19 27  1  0
 27 28  1  6
 27 29  1  0
 29 30  1  0
 30 31  1  0
 31 32  1  6
  7  5  1  0
 31 10  1  0
 31 13  1  0
 27 15  1  0
 24 18  1  0
  1 33  1  0
  1 34  1  0
  1 35  1  0
  2 36  1  1
  3 37  1  0
  3 38  1  0
  4 39  1  0
  4 40  1  0
  5 41  1  1
  8 42  1  0
  8 43  1  0
  8 44  1  0
  9 45  1  0
  9 46  1  0
  9 47  1  0
 10 48  1  1
 11 49  1  0
 11 50  1  0
 12 51  1  0
 12 52  1  0
 14 53  1  0
 14 54  1  0
 14 55  1  0
 15 56  1  6
 16 57  1  0
 16 58  1  0
 17 59  1  0
 19 60  1  1
 20 61  1  0
 20 62  1  0
 21 63  1  0
 21 64  1  0
 22 65  1  1
 23 66  1  0
 25 67  1  0
 25 68  1  0
 25 69  1  0
 26 70  1  0
 26 71  1  0
 26 72  1  0
 28 73  1  0
 28 74  1  0
 28 75  1  0
 29 76  1  0
 29 77  1  0
 30 78  1  0
 30 79  1  0
 32 80  1  0
 32 81  1  0
 32 82  1  0
M  END
>  <meeko>  (14) 
{"is_sidechain": [false], "intermolecular_energy": 2.731, "internal_energy": -0.839}

$$$$
EPH_relaxed_0001_pdb2pqr_Repair_201_r2_0001_out
     RDKit          3D

 82 86  0  0  0  0  0  0  0  0999 V2000
    1.7480   20.1940   -0.5790 C   0  0  0  0  0  0  0  0  0  0  0  0
    1.5140   19.3460   -1.8320 C   0  0  2  0  0  0  0  0  0  0  0  0
    0.0330   18.9530   -2.0000 C   0  0  0  0  0  0  0  0  0  0  0  0
   -0.9220   19.7640   -1.1200 C   0  0  0  0  0  0  0  0  0  0  0  0
   -1.8170   18.8770   -0.3080 C   0  0  2  0  0  0  0  0  0  0  0  0
   -2.2090   19.4210    0.9590 O   0  0  0  0  0  0  0  0  0  0  0  0
   -1.3950   18.2380    1.0020 C   0  0  0  0  0  0  0  0  0  0  0  0
   -0.0300   18.4580    1.5740 C   0  0  0  0  0  0  0  0  0  0  0  0
   -2.1270   17.0190    1.4710 C   0  0  0  0  0  0  0  0  0  0  0  0
    2.3820   18.0940   -1.7810 C   0  0  1  0  0  0  0  0  0  0  0  0
    3.1770   17.9720   -0.4540 C   0  0  0  0  0  0  0  0  0  0  0  0
    3.2570   16.4610   -0.1170 C   0  0  0  0  0  0  0  0  0  0  0  0
    2.8030   15.7480   -1.4130 C   0  0  1  0  0  0  0  0  0  0  0  0
    4.0670   15.7390   -2.3290 C   0  0  0  0  0  0  0  0  0  0  0  0
    2.2060   14.3140   -1.2390 C   0  0  2  0  0  0  0  0  0  0  0  0
    3.1750   13.2680   -0.6600 C   0  0  0  0  0  0  0  0  0  0  0  0
    3.9720   12.5100   -1.6690 C   0  0  0  0  0  0  0  0  0  0  0  0
    3.7140   12.4550   -2.9890 C   0  0  0  0  0  0  0  0  0  0  0  0
    2.4640   13.1240   -3.5760 C   0  0  1  0  0  0  0  0  0  0  0  0
    1.7610   12.1430   -4.5500 C   0  0  0  0  0  0  0  0  0  0  0  0
    2.7010   11.6150   -5.6290 C   0  0  0  0  0  0  0  0  0  0  0  0
    3.9010   10.9060   -5.0070 C   0  0  2  0  0  0  0  0  0  0  0  0
    3.4450    9.7190   -4.3510 O   0  0  0  0  0  0  0  0  0  0  0  0
    4.6830   11.7940   -3.9990 C   0  0  0  0  0  0  0  0  0  0  0  0
    5.4290   12.9160   -4.7630 C   0  0  0  0  0  0  0  0  0  0  0  0
    5.7810   10.9150   -3.3410 C   0  0  0  0  0  0  0  0  0  0  0  0
    1.4600   13.7630   -2.5220 C   0  0  1  0  0  0  0  0  0  0  0  0
    0.4550   12.6810   -2.0220 C   0  0  0  0  0  0  0  0  0  0  0  0
    0.6010   14.8710   -3.2370 C   0  0  0  0  0  0  0  0  0  0  0  0
    1.1920   16.2940   -3.2710 C   0  0  0  0  0  0  0  0  0  0  0  0
    1.6630   16.7250   -1.8790 C   0  0  2  0  0  0  0  0  0  0  0  0
    0.4090   16.7650   -0.9400 C   0  0  0  0  0  0  0  0  0  0  0  0
    1.5783   19.5789    0.3170 H   0  0  0  0  0  0  0  0  0  0  0  0
    2.7827   20.5673   -0.5769 H   0  0  0  0  0  0  0  0  0  0  0  0
    1.0511   21.0451   -0.5769 H   0  0  0  0  0  0  0  0  0  0  0  0
    1.7934   19.9580   -2.7023 H   0  0  0  0  0  0  0  0  0  0  0  0
   -0.2498   19.1057   -3.0520 H   0  0  0  0  0  0  0  0  0  0  0  0
   -0.0581   17.9016   -1.6896 H   0  0  0  0  0  0  0  0  0  0  0  0
   -0.3309   20.3935   -0.4386 H   0  0  0  0  0  0  0  0  0  0  0  0
   -1.5541   20.3794   -1.7771 H   0  0  0  0  0  0  0  0  0  0  0  0
   -2.2718   18.4612   -1.2192 H   0  0  0  0  0  0  0  0  0  0  0  0
   -0.0869   18.4488    2.6725 H   0  0  0  0  0  0  0  0  0  0  0  0
    0.6431   17.6568    1.2350 H   0  0  0  0  0  0  0  0  0  0  0  0
    0.3573   19.4302    1.2350 H   0  0  0  0  0  0  0  0  0  0  0  0
   -2.1390   16.9990    2.5708 H   0  0  0  0  0  0  0  0  0  0  0  0
   -3.1599   17.0436    1.0934 H   0  0  0  0  0  0  0  0  0  0  0  0
   -1.6199   16.1188    1.0934 H   0  0  0  0  0  0  0  0  0  0  0  0
    2.9978   18.2604   -2.6772 H   0  0  0  0  0  0  0  0  0  0  0  0
    4.1884   18.3861   -0.5790 H   0  0  0  0  0  0  0  0  0  0  0  0
    2.6834   18.5311    0.3546 H   0  0  0  0  0  0  0  0  0  0  0  0
    4.2868   16.1751    0.1433 H   0  0  0  0  0  0  0  0  0  0  0  0
    2.6323   16.1926    0.7477 H   0  0  0  0  0  0  0  0  0  0  0  0
    4.9724   15.7326   -1.7044 H   0  0  0  0  0  0  0  0  0  0  0  0
    4.0532   14.8409   -2.9640 H   0  0  0  0  0  0  0  0  0  0  0  0
    4.0660   16.6372   -2.9640 H   0  0  0  0  0  0  0  0  0  0  0  0
    1.4397   14.4704   -0.4654 H   0  0  0  0  0  0  0  0  0  0  0  0
    3.8779   13.7884    0.0072 H   0  0  0  0  0  0  0  0  0  0  0  0
    2.5484   12.5243   -0.1460 H   0  0  0  0  0  0  0  0  0  0  0  0
    4.8443   11.9487   -1.3028 H   0  0  0  0  0  0  0  0  0  0  0  0
    2.8214   14.0056   -4.1282 H   0  0  0  0  0  0  0  0  0  0  0  0
    1.3729   11.2908   -3.9728 H   0  0  0  0  0  0  0  0  0  0  0  0
    0.9523   12.6940   -5.0525 H   0  0  0  0  0  0  0  0  0  0  0  0
    2.1542   10.9051   -6.2670 H   0  0  0  0  0  0  0  0  0  0  0  0
    3.0651   12.4652   -6.2245 H   0  0  0  0  0  0  0  0  0  0  0  0
    4.6012   10.6661   -5.8207 H   0  0  0  0  0  0  0  0  0  0  0  0
    2.6820    9.3820   -4.8490 H   0  0  0  0  0  0  0  0  0  0  0  0
    5.8888   13.6076   -4.0417 H   0  0  0  0  0  0  0  0  0  0  0  0
    6.2119   12.4713   -5.3949 H   0  0  0  0  0  0  0  0  0  0  0  0
    4.7161   13.4659   -5.3949 H   0  0  0  0  0  0  0  0  0  0  0  0
    5.6972   10.9821   -2.2463 H   0  0  0  0  0  0  0  0  0  0  0  0
    5.6505    9.8690   -3.6553 H   0  0  0  0  0  0  0  0  0  0  0  0
    6.7731   11.2713   -3.6553 H   0  0  0  0  0  0  0  0  0  0  0  0
    0.4450   12.6702   -0.9221 H   0  0  0  0  0  0  0  0  0  0  0  0
   -0.5526   12.9159   -2.3956 H   0  0  0  0  0  0  0  0  0  0  0  0
    0.7635   11.6934   -2.3956 H   0  0  0  0  0  0  0  0  0  0  0  0
    0.4443   14.5507   -4.2776 H   0  0  0  0  0  0  0  0  0  0  0  0
   -0.3174   14.9549   -2.6374 H   0  0  0  0  0  0  0  0  0  0  0  0
    2.0477   16.3119   -3.9620 H   0  0  0  0  0  0  0  0  0  0  0  0
    0.4103   16.9906   -3.6082 H   0  0  0  0  0  0  0  0  0  0  0  0
    0.7367   16.7545    0.1100 H   0  0  0  0  0  0  0  0  0  0  0  0
   -0.1663   17.6820   -1.1354 H   0  0  0  0  0  0  0  0  0  0  0  0
   -0.2236   15.8866   -1.1354 H   0  0  0  0  0  0  0  0  0  0  0  0
  1  2  1  0
  2  3  1  0
  3  4  1  0
  4  5  1  0
  5  6  1  0
  6  7  1  0
  7  8  1  0
  7  9  1  0
  2 10  1  0
 10 11  1  0
 11 12  1  0
 12 13  1  0
 13 14  1  6
 13 15  1  0
 15 16  1  0
 16 17  1  0
 17 18  2  0
 18 19  1  0
 19 20  1  0
 20 21  1  0
 21 22  1  0
 22 23  1  0
 22 24  1  0
 24 25  1  0
 24 26  1  0
 19 27  1  0
 27 28  1  1
 27 29  1  0
 29 30  1  0
 30 31  1  0
 31 32  1  1
  7  5  1  0
 31 10  1  0
 31 13  1  0
 27 15  1  0
 24 18  1  0
  1 33  1  0
  1 34  1  0
  1 35  1  0
  2 36  1  6
  3 37  1  0
  3 38  1  0
  4 39  1  0
  4 40  1  0
  5 41  1  6
  8 42  1  0
  8 43  1  0
  8 44  1  0
  9 45  1  0
  9 46  1  0
  9 47  1  0
 10 48  1  6
 11 49  1  0
 11 50  1  0
 12 51  1  0
 12 52  1  0
 14 53  1  0
 14 54  1  0
 14 55  1  0
 15 56  1  1
 16 57  1  0
 16 58  1  0
 17 59  1  0
 19 60  1  6
 20 61  1  0
 20 62  1  0
 21 63  1  0
 21 64  1  0
 22 65  1  6
 23 66  1  0
 25 67  1  0
 25 68  1  0
 25 69  1  0
 26 70  1  0
 26 71  1  0
 26 72  1  0
 28 73  1  0
 28 74  1  0
 28 75  1  0
 29 76  1  0
 29 77  1  0
 30 78  1  0
 30 79  1  0
 32 80  1  0
 32 81  1  0
 32 82  1  0
M  END
>  <meeko>  (15) 
{"is_sidechain": [false], "intermolecular_energy": 2.731, "internal_energy": -0.839}

$$$$
EPH_relaxed_0001_pdb2pqr_Repair_201_r2_0001_out
     RDKit          3D

 82 86  0  0  0  0  0  0  0  0999 V2000
    0.4110   10.7530   -3.8310 C   0  0  0  0  0  0  0  0  0  0  0  0
    0.2730   11.1670   -2.3630 C   0  0  2  0  0  0  0  0  0  0  0  0
   -1.1190   11.7520   -2.0530 C   0  0  0  0  0  0  0  0  0  0  0  0
   -1.9740   10.8600   -1.1490 C   0  0  0  0  0  0  0  0  0  0  0  0
   -1.6940    9.4060   -1.3810 C   0  0  2  0  0  0  0  0  0  0  0  0
   -1.8170    8.5790   -0.2160 O   0  0  0  0  0  0  0  0  0  0  0  0
   -0.5020    8.6780   -0.7870 C   0  0  0  0  0  0  0  0  0  0  0  0
    0.4880    9.3840    0.0840 C   0  0  0  0  0  0  0  0  0  0  0  0
   -0.0340    7.4170   -1.4440 C   0  0  0  0  0  0  0  0  0  0  0  0
    1.3550   12.1800   -2.0060 C   0  0  1  0  0  0  0  0  0  0  0  0
    2.6150   12.0510   -2.9030 C   0  0  0  0  0  0  0  0  0  0  0  0
    3.1680   13.4850   -3.1060 C   0  0  0  0  0  0  0  0  0  0  0  0
    2.4170   14.3440   -2.0620 C   0  0  1  0  0  0  0  0  0  0  0  0
    3.1800   14.1040   -0.7220 C   0  0  0  0  0  0  0  0  0  0  0  0
    2.2870   15.8680   -2.3860 C   0  0  2  0  0  0  0  0  0  0  0  0
    3.6190   16.6310   -2.4830 C   0  0  0  0  0  0  0  0  0  0  0  0
    4.1040   17.2320   -1.2060 C   0  0  0  0  0  0  0  0  0  0  0  0
    3.3660   17.4080   -0.0940 C   0  0  0  0  0  0  0  0  0  0  0  0
    1.8680   17.0750   -0.0830 C   0  0  1  0  0  0  0  0  0  0  0  0
    1.0840   18.2380    0.5810 C   0  0  0  0  0  0  0  0  0  0  0  0
    1.6160   18.5840    1.9690 C   0  0  0  0  0  0  0  0  0  0  0  0
    3.0920   18.9660    1.9080 C   0  0  2  0  0  0  0  0  0  0  0  0
    3.2210   20.1930    1.1830 O   0  0  0  0  0  0  0  0  0  0  0  0
    3.9810   17.8740    1.2490 C   0  0  0  0  0  0  0  0  0  0  0  0
    4.0810   16.6480    2.1890 C   0  0  0  0  0  0  0  0  0  0  0  0
    5.4200   18.4420    1.1210 C   0  0  0  0  0  0  0  0  0  0  0  0
    1.2450   16.6370   -1.4770 C   0  0  1  0  0  0  0  0  0  0  0  0
    0.7980   17.8970   -2.2800 C   0  0  0  0  0  0  0  0  0  0  0  0
   -0.0590   15.7930   -1.2150 C   0  0  0  0  0  0  0  0  0  0  0  0
    0.1240   14.2760   -1.0210 C   0  0  0  0  0  0  0  0  0  0  0  0
    0.9940   13.6810   -2.1330 C   0  0  2  0  0  0  0  0  0  0  0  0
    0.2410   13.8880   -3.4910 C   0  0  0  0  0  0  0  0  0  0  0  0
    0.7584    9.7108   -3.8869 H   0  0  0  0  0  0  0  0  0  0  0  0
   -0.5652   10.8414   -4.3302 H   0  0  0  0  0  0  0  0  0  0  0  0
    1.1389   11.4094   -4.3302 H   0  0  0  0  0  0  0  0  0  0  0  0
    0.3939   10.2614   -1.7505 H   0  0  0  0  0  0  0  0  0  0  0  0
   -0.9844   12.7236   -1.5551 H   0  0  0  0  0  0  0  0  0  0  0  0
   -1.6507   11.8418   -3.0117 H   0  0  0  0  0  0  0  0  0  0  0  0
   -1.7547   11.1022   -0.0987 H   0  0  0  0  0  0  0  0  0  0  0  0
   -3.0322   11.0474   -1.3838 H   0  0  0  0  0  0  0  0  0  0  0  0
   -2.0817    9.4712   -2.4083 H   0  0  0  0  0  0  0  0  0  0  0  0
    0.2390    9.2064    1.1406 H   0  0  0  0  0  0  0  0  0  0  0  0
    1.4980    9.0011   -0.1240 H   0  0  0  0  0  0  0  0  0  0  0  0
    0.4551   10.4636   -0.1240 H   0  0  0  0  0  0  0  0  0  0  0  0
    0.2390    6.6814   -0.6731 H   0  0  0  0  0  0  0  0  0  0  0  0
   -0.8406    7.0090   -2.0709 H   0  0  0  0  0  0  0  0  0  0  0  0
    0.8435    7.6340   -2.0709 H   0  0  0  0  0  0  0  0  0  0  0  0
    1.5098   11.9182   -0.9489 H   0  0  0  0  0  0  0  0  0  0  0  0
    3.3689   11.4207   -2.4088 H   0  0  0  0  0  0  0  0  0  0  0  0
    2.3673   11.5830   -3.8672 H   0  0  0  0  0  0  0  0  0  0  0  0
    4.2525   13.5124   -2.9238 H   0  0  0  0  0  0  0  0  0  0  0  0
    3.0163   13.8492   -4.1328 H   0  0  0  0  0  0  0  0  0  0  0  0
    2.5098   14.3148    0.1244 H   0  0  0  0  0  0  0  0  0  0  0  0
    3.5145   13.0572   -0.6729 H   0  0  0  0  0  0  0  0  0  0  0  0
    4.0535   14.7708   -0.6729 H   0  0  0  0  0  0  0  0  0  0  0  0
    1.8747   15.8576   -3.4058 H   0  0  0  0  0  0  0  0  0  0  0  0
    4.3869   15.9299   -2.8419 H   0  0  0  0  0  0  0  0  0  0  0  0
    3.4378   17.4737   -3.1664 H   0  0  0  0  0  0  0  0  0  0  0  0
    5.1537   17.5589   -1.1704 H   0  0  0  0  0  0  0  0  0  0  0  0
    1.7639   16.1617    0.5211 H   0  0  0  0  0  0  0  0  0  0  0  0
    1.1643   19.1286   -0.0597 H   0  0  0  0  0  0  0  0  0  0  0  0
    0.0388   17.9145    0.6947 H   0  0  0  0  0  0  0  0  0  0  0  0
    1.0416   19.4302    2.3740 H   0  0  0  0  0  0  0  0  0  0  0  0
    1.5084   17.7011    2.6162 H   0  0  0  0  0  0  0  0  0  0  0  0
    3.4470   19.0768    2.9432 H   0  0  0  0  0  0  0  0  0  0  0  0
    2.9770   20.9170    1.7850 H   0  0  0  0  0  0  0  0  0  0  0  0
    4.0535   16.9853    3.2357 H   0  0  0  0  0  0  0  0  0  0  0  0
    3.2351   15.9708    1.9996 H   0  0  0  0  0  0  0  0  0  0  0  0
    5.0255   16.1168    1.9996 H   0  0  0  0  0  0  0  0  0  0  0  0
    5.8394   18.6076    2.1243 H   0  0  0  0  0  0  0  0  0  0  0  0
    6.0499   17.7250    0.5740 H   0  0  0  0  0  0  0  0  0  0  0  0
    5.3904   19.3959    0.5740 H   0  0  0  0  0  0  0  0  0  0  0  0
    0.5144   18.6965   -1.5797 H   0  0  0  0  0  0  0  0  0  0  0  0
    1.6286   18.2419   -2.9133 H   0  0  0  0  0  0  0  0  0  0  0  0
   -0.0643   17.6413   -2.9133 H   0  0  0  0  0  0  0  0  0  0  0  0
   -0.5355   16.1898   -0.3064 H   0  0  0  0  0  0  0  0  0  0  0  0
   -0.6582   15.8962   -2.1317 H   0  0  0  0  0  0  0  0  0  0  0  0
    0.6070   14.0933   -0.0498 H   0  0  0  0  0  0  0  0  0  0  0  0
   -0.8654   13.7965   -1.0558 H   0  0  0  0  0  0  0  0  0  0  0  0
   -0.8021   14.1748   -3.2919 H   0  0  0  0  0  0  0  0  0  0  0  0
    0.7363   14.6833   -4.0674 H   0  0  0  0  0  0  0  0  0  0  0  0
    0.2601   12.9513   -4.0674 H   0  0  0  0  0  0  0  0  0  0  0  0
  1  2  1  0
  2  3  1  0
  3  4  1  0
  4  5  1  0
  5  6  1  0
  6  7  1  0
  7  8  1  0
  7  9  1  0
  2 10  1  0
 10 11  1  0
 11 12  1  0
 12 13  1  0
 13 14  1  1
 13 15  1  0
 15 16  1  0
 16 17  1  0
 17 18  2  0
 18 19  1  0
 19 20  1  0
 20 21  1  0
 21 22  1  0
 22 23  1  0
 22 24  1  0
 24 25  1  0
 24 26  1  0
 19 27  1  0
 27 28  1  6
 27 29  1  0
 29 30  1  0
 30 31  1  0
 31 32  1  6
  7  5  1  0
 31 10  1  0
 31 13  1  0
 27 15  1  0
 24 18  1  0
  1 33  1  0
  1 34  1  0
  1 35  1  0
  2 36  1  1
  3 37  1  0
  3 38  1  0
  4 39  1  0
  4 40  1  0
  5 41  1  6
  8 42  1  0
  8 43  1  0
  8 44  1  0
  9 45  1  0
  9 46  1  0
  9 47  1  0
 10 48  1  1
 11 49  1  0
 11 50  1  0
 12 51  1  0
 12 52  1  0
 14 53  1  0
 14 54  1  0
 14 55  1  0
 15 56  1  6
 16 57  1  0
 16 58  1  0
 17 59  1  0
 19 60  1  1
 20 61  1  0
 20 62  1  0
 21 63  1  0
 21 64  1  0
 22 65  1  1
 23 66  1  0
 25 67  1  0
 25 68  1  0
 25 69  1  0
 26 70  1  0
 26 71  1  0
 26 72  1  0
 28 73  1  0
 28 74  1  0
 28 75  1  0
 29 76  1  0
 29 77  1  0
 30 78  1  0
 30 79  1  0
 32 80  1  0
 32 81  1  0
 32 82  1  0
M  END
>  <meeko>  (16) 
{"is_sidechain": [false], "intermolecular_energy": 2.731, "internal_energy": -0.839}

$$$$
EPH_relaxed_0001_pdb2pqr_Repair_201_r2_0001_out
     RDKit          3D

 82 86  0  0  0  0  0  0  0  0999 V2000
   -0.0190   18.6050   -2.7430 C   0  0  0  0  0  0  0  0  0  0  0  0
    0.6410   18.4360   -1.3710 C   0  0  2  0  0  0  0  0  0  0  0  0
    1.2690   19.7500   -0.8640 C   0  0  0  0  0  0  0  0  0  0  0  0
    0.7450   20.1940    0.5040 C   0  0  0  0  0  0  0  0  0  0  0  0
    1.8290   20.1940    1.5400 C   0  0  2  0  0  0  0  0  0  0  0  0
    2.7420   19.0930    1.4510 O   0  0  0  0  0  0  0  0  0  0  0  0
    1.9360   19.1540    2.6390 C   0  0  0  0  0  0  0  0  0  0  0  0
    0.9430   18.0410    2.7590 C   0  0  0  0  0  0  0  0  0  0  0  0
    2.7080   19.4950    3.8740 C   0  0  0  0  0  0  0  0  0  0  0  0
    1.7000   17.3420   -1.4350 C   0  0  1  0  0  0  0  0  0  0  0  0
    2.4830   17.1910   -0.1030 C   0  0  0  0  0  0  0  0  0  0  0  0
    2.8020   15.6830    0.0590 C   0  0  0  0  0  0  0  0  0  0  0  0
    2.4910   15.0670   -1.3250 C   0  0  1  0  0  0  0  0  0  0  0  0
    3.7540   15.3700   -2.1920 C   0  0  0  0  0  0  0  0  0  0  0  0
    2.1320   13.5450   -1.3400 C   0  0  2  0  0  0  0  0  0  0  0  0
    3.2490   12.6070   -0.8520 C   0  0  0  0  0  0  0  0  0  0  0  0
    4.1750   12.1110   -1.9130 C   0  0  0  0  0  0  0  0  0  0  0  0
    3.9500   12.1740   -3.2380 C   0  0  0  0  0  0  0  0  0  0  0  0
    2.6180   12.7000   -3.7870 C   0  0  1  0  0  0  0  0  0  0  0  0
    2.0990   11.7440   -4.8930 C   0  0  0  0  0  0  0  0  0  0  0  0
    3.1300   11.5060   -5.9920 C   0  0  0  0  0  0  0  0  0  0  0  0
    4.4190   10.9280   -5.4150 C   0  0  2  0  0  0  0  0  0  0  0  0
    4.1520    9.6140   -4.9160 O   0  0  0  0  0  0  0  0  0  0  0  0
    5.0300   11.8020   -4.2840 C   0  0  0  0  0  0  0  0  0  0  0  0
    5.5950   13.1120   -4.8870 C   0  0  0  0  0  0  0  0  0  0  0  0
    6.2460   11.0370   -3.6930 C   0  0  0  0  0  0  0  0  0  0  0  0
    1.5070   13.0400   -2.7030 C   0  0  1  0  0  0  0  0  0  0  0  0
    0.6830   11.7590   -2.3670 C   0  0  0  0  0  0  0  0  0  0  0  0
    0.4900   14.0750   -3.3150 C   0  0  0  0  0  0  0  0  0  0  0  0
    0.8420   15.5670   -3.1630 C   0  0  0  0  0  0  0  0  0  0  0  0
    1.2150   15.8980   -1.7150 C   0  0  2  0  0  0  0  0  0  0  0  0
   -0.0440   15.6240   -0.8230 C   0  0  0  0  0  0  0  0  0  0  0  0
   -1.0768   18.8759   -2.6102 H   0  0  0  0  0  0  0  0  0  0  0  0
    0.4957   19.4003   -3.3020 H   0  0  0  0  0  0  0  0  0  0  0  0
    0.0502   17.6602   -3.3020 H   0  0  0  0  0  0  0  0  0  0  0  0
   -0.1456   18.1494   -0.6575 H   0  0  0  0  0  0  0  0  0  0  0  0
    2.3574   19.6090   -0.7900 H   0  0  0  0  0  0  0  0  0  0  0  0
    0.9959   20.5358   -1.5837 H   0  0  0  0  0  0  0  0  0  0  0  0
    0.3360   21.2114    0.4160 H   0  0  0  0  0  0  0  0  0  0  0  0
   -0.0320   19.4827    0.8208 H   0  0  0  0  0  0  0  0  0  0  0  0
    1.8406   21.2937    1.5616 H   0  0  0  0  0  0  0  0  0  0  0  0
    0.7551   17.8303    3.8222 H   0  0  0  0  0  0  0  0  0  0  0  0
    0.0018   18.3352    2.2715 H   0  0  0  0  0  0  0  0  0  0  0  0
    1.3422   17.1393    2.2715 H   0  0  0  0  0  0  0  0  0  0  0  0
    2.1140   19.2326    4.7619 H   0  0  0  0  0  0  0  0  0  0  0  0
    3.6518   18.9300    3.8842 H   0  0  0  0  0  0  0  0  0  0  0  0
    2.9260   20.5731    3.8842 H   0  0  0  0  0  0  0  0  0  0  0  0
    2.2947   17.7100   -2.2841 H   0  0  0  0  0  0  0  0  0  0  0  0
    3.4154   17.7733   -0.1435 H   0  0  0  0  0  0  0  0  0  0  0  0
    1.8924   17.5635    0.7470 H   0  0  0  0  0  0  0  0  0  0  0  0
    3.8603   15.5360    0.3204 H   0  0  0  0  0  0  0  0  0  0  0  0
    2.2152   15.2169    0.8642 H   0  0  0  0  0  0  0  0  0  0  0  0
    4.6104   15.5755   -1.5330 H   0  0  0  0  0  0  0  0  0  0  0  0
    3.9801   14.5006   -2.8269 H   0  0  0  0  0  0  0  0  0  0  0  0
    3.5611   16.2473   -2.8269 H   0  0  0  0  0  0  0  0  0  0  0  0
    1.3371   13.4823   -0.5822 H   0  0  0  0  0  0  0  0  0  0  0  0
    3.8472   13.1504   -0.1058 H   0  0  0  0  0  0  0  0  0  0  0  0
    2.7440   11.7168   -0.4488 H   0  0  0  0  0  0  0  0  0  0  0  0
    5.1207   11.6558   -1.5837 H   0  0  0  0  0  0  0  0  0  0  0  0
    2.8369   13.6871   -4.2204 H   0  0  0  0  0  0  0  0  0  0  0  0
    1.8447   10.7777   -4.4329 H   0  0  0  0  0  0  0  0  0  0  0  0
    1.2200   12.2158   -5.3565 H   0  0  0  0  0  0  0  0  0  0  0  0
    2.7162   10.7998   -6.7269 H   0  0  0  0  0  0  0  0  0  0  0  0
    3.3608   12.4689   -6.4712 H   0  0  0  0  0  0  0  0  0  0  0  0
    5.1610   10.9017   -6.2267 H   0  0  0  0  0  0  0  0  0  0  0  0
    4.9690    9.0940   -5.0040 H   0  0  0  0  0  0  0  0  0  0  0  0
    5.8887   13.7929   -4.0745 H   0  0  0  0  0  0  0  0  0  0  0  0
    6.4735   12.8811   -5.5074 H   0  0  0  0  0  0  0  0  0  0  0  0
    4.8241   13.5924   -5.5074 H   0  0  0  0  0  0  0  0  0  0  0  0
    6.1991   11.0665   -2.5944 H   0  0  0  0  0  0  0  0  0  0  0  0
    6.2217    9.9912   -4.0331 H   0  0  0  0  0  0  0  0  0  0  0  0
    7.1783   11.5116   -4.0331 H   0  0  0  0  0  0  0  0  0  0  0  0
    0.6102   11.6458   -1.2753 H   0  0  0  0  0  0  0  0  0  0  0  0
   -0.3265   11.8498   -2.7944 H   0  0  0  0  0  0  0  0  0  0  0  0
    1.1842   10.8780   -2.7944 H   0  0  0  0  0  0  0  0  0  0  0  0
    0.4042   13.8612   -4.3906 H   0  0  0  0  0  0  0  0  0  0  0  0
   -0.4393   13.9386   -2.7425 H   0  0  0  0  0  0  0  0  0  0  0  0
    1.6940   15.8041   -3.8171 H   0  0  0  0  0  0  0  0  0  0  0  0
   -0.0375   16.1650   -3.4439 H   0  0  0  0  0  0  0  0  0  0  0  0
    0.2382   15.6854    0.2384 H   0  0  0  0  0  0  0  0  0  0  0  0
   -0.8180   16.3747   -1.0406 H   0  0  0  0  0  0  0  0  0  0  0  0
   -0.4360   14.6195   -1.0406 H   0  0  0  0  0  0  0  0  0  0  0  0
  1  2  1  0
  2  3  1  0
  3  4  1  0
  4  5  1  0
  5  6  1  0
  6  7  1  0
  7  8  1  0
  7  9  1  0
  2 10  1  0
 10 11  1  0
 11 12  1  0
 12 13  1  0
 13 14  1  6
 13 15  1  0
 15 16  1  0
 16 17  1  0
 17 18  2  0
 18 19  1  0
 19 20  1  0
 20 21  1  0
 21 22  1  0
 22 23  1  0
 22 24  1  0
 24 25  1  0
 24 26  1  0
 19 27  1  0
 27 28  1  1
 27 29  1  0
 29 30  1  0
 30 31  1  0
 31 32  1  1
  7  5  1  0
 31 10  1  0
 31 13  1  0
 27 15  1  0
 24 18  1  0
  1 33  1  0
  1 34  1  0
  1 35  1  0
  2 36  1  1
  3 37  1  0
  3 38  1  0
  4 39  1  0
  4 40  1  0
  5 41  1  1
  8 42  1  0
  8 43  1  0
  8 44  1  0
  9 45  1  0
  9 46  1  0
  9 47  1  0
 10 48  1  6
 11 49  1  0
 11 50  1  0
 12 51  1  0
 12 52  1  0
 14 53  1  0
 14 54  1  0
 14 55  1  0
 15 56  1  1
 16 57  1  0
 16 58  1  0
 17 59  1  0
 19 60  1  6
 20 61  1  0
 20 62  1  0
 21 63  1  0
 21 64  1  0
 22 65  1  6
 23 66  1  0
 25 67  1  0
 25 68  1  0
 25 69  1  0
 26 70  1  0
 26 71  1  0
 26 72  1  0
 28 73  1  0
 28 74  1  0
 28 75  1  0
 29 76  1  0
 29 77  1  0
 30 78  1  0
 30 79  1  0
 32 80  1  0
 32 81  1  0
 32 82  1  0
M  END
>  <meeko>  (17) 
{"is_sidechain": [false], "intermolecular_energy": 2.731, "internal_energy": -0.839}

$$$$
EPH_relaxed_0001_pdb2pqr_Repair_201_r2_0001_out
     RDKit          3D

 82 86  0  0  0  0  0  0  0  0999 V2000
    0.2820    9.9950   -3.3870 C   0  0  0  0  0  0  0  0  0  0  0  0
    0.3710   10.2420   -1.8780 C   0  0  2  0  0  0  0  0  0  0  0  0
   -1.0060   10.5530   -1.2590 C   0  0  0  0  0  0  0  0  0  0  0  0
   -1.5300    9.4490   -0.3360 C   0  0  0  0  0  0  0  0  0  0  0  0
   -3.0160    9.5310   -0.1600 C   0  0  2  0  0  0  0  0  0  0  0  0
   -3.6150    8.3690    0.4290 O   0  0  0  0  0  0  0  0  0  0  0  0
   -3.9980    8.6630   -0.9250 C   0  0  0  0  0  0  0  0  0  0  0  0
   -3.5310    7.6500   -1.9230 C   0  0  0  0  0  0  0  0  0  0  0  0
   -5.4120    9.1330   -1.0620 C   0  0  0  0  0  0  0  0  0  0  0  0
    1.3390   11.3840   -1.5950 C   0  0  1  0  0  0  0  0  0  0  0  0
    2.7750   11.0910   -2.1070 C   0  0  0  0  0  0  0  0  0  0  0  0
    3.3630   12.4420   -2.5870 C   0  0  0  0  0  0  0  0  0  0  0  0
    2.3900   13.5100   -2.0350 C   0  0  1  0  0  0  0  0  0  0  0  0
    2.8150   13.7090   -0.5460 C   0  0  0  0  0  0  0  0  0  0  0  0
    2.3420   14.8680   -2.8080 C   0  0  2  0  0  0  0  0  0  0  0  0
    3.6610   15.6590   -2.8180 C   0  0  0  0  0  0  0  0  0  0  0  0
    3.8330   16.6270   -1.6950 C   0  0  0  0  0  0  0  0  0  0  0  0
    2.8540   17.0610   -0.8800 C   0  0  0  0  0  0  0  0  0  0  0  0
    1.3950   16.6460   -1.1110 C   0  0  1  0  0  0  0  0  0  0  0  0
    0.4790   17.8940   -1.0080 C   0  0  0  0  0  0  0  0  0  0  0  0
    0.6690   18.6520    0.3020 C   0  0  0  0  0  0  0  0  0  0  0  0
    2.1190   19.0990    0.4680 C   0  0  2  0  0  0  0  0  0  0  0  0
    2.4180   20.0770   -0.5320 O   0  0  0  0  0  0  0  0  0  0  0  0
    3.1360   17.9270    0.3730 C   0  0  0  0  0  0  0  0  0  0  0  0
    3.0100   17.0250    1.6260 C   0  0  0  0  0  0  0  0  0  0  0  0
    4.5660   18.5300    0.4150 C   0  0  0  0  0  0  0  0  0  0  0  0
    1.1170   15.7910   -2.4220 C   0  0  1  0  0  0  0  0  0  0  0  0
    0.8750   16.7410   -3.6350 C   0  0  0  0  0  0  0  0  0  0  0  0
   -0.2130   14.9710   -2.2280 C   0  0  0  0  0  0  0  0  0  0  0  0
   -0.0850   13.5860   -1.5660 C   0  0  0  0  0  0  0  0  0  0  0  0
    1.0210   12.7610   -2.2300 C   0  0  2  0  0  0  0  0  0  0  0  0
    0.6110   12.5250   -3.7240 C   0  0  0  0  0  0  0  0  0  0  0  0
   -0.0857    8.9746   -3.5705 H   0  0  0  0  0  0  0  0  0  0  0  0
   -0.4111   10.7210   -3.8371 H   0  0  0  0  0  0  0  0  0  0  0  0
    1.2788   10.1120   -3.8371 H   0  0  0  0  0  0  0  0  0  0  0  0
    0.7411    9.3168   -1.4121 H   0  0  0  0  0  0  0  0  0  0  0  0
   -0.9229   11.4823   -0.6763 H   0  0  0  0  0  0  0  0  0  0  0  0
   -1.7198   10.6416   -2.0913 H   0  0  0  0  0  0  0  0  0  0  0  0
   -1.2762    8.4709   -0.7706 H   0  0  0  0  0  0  0  0  0  0  0  0
   -1.0608    9.5763    0.6507 H   0  0  0  0  0  0  0  0  0  0  0  0
   -2.9606   10.6180   -0.0006 H   0  0  0  0  0  0  0  0  0  0  0  0
   -3.1271    6.7739   -1.3946 H   0  0  0  0  0  0  0  0  0  0  0  0
   -4.3770    7.3398   -2.5539 H   0  0  0  0  0  0  0  0  0  0  0  0
   -2.7457    8.0919   -2.5539 H   0  0  0  0  0  0  0  0  0  0  0  0
   -5.8486    9.2781   -0.0628 H   0  0  0  0  0  0  0  0  0  0  0  0
   -5.4301   10.0855   -1.6119 H   0  0  0  0  0  0  0  0  0  0  0  0
   -5.9967    8.3809   -1.6119 H   0  0  0  0  0  0  0  0  0  0  0  0
    1.2392   11.4425   -0.5011 H   0  0  0  0  0  0  0  0  0  0  0  0
    3.3900   10.6777   -1.2940 H   0  0  0  0  0  0  0  0  0  0  0  0
    2.7604   10.3542   -2.9237 H   0  0  0  0  0  0  0  0  0  0  0  0
    4.3743   12.5914   -2.1810 H   0  0  0  0  0  0  0  0  0  0  0  0
    3.4572   12.4901   -3.6819 H   0  0  0  0  0  0  0  0  0  0  0  0
    2.0190   13.3363    0.1154 H   0  0  0  0  0  0  0  0  0  0  0  0
    3.7436   13.1521   -0.3522 H   0  0  0  0  0  0  0  0  0  0  0  0
    2.9819   14.7789   -0.3522 H   0  0  0  0  0  0  0  0  0  0  0  0
    2.1806   14.5429   -3.8464 H   0  0  0  0  0  0  0  0  0  0  0  0
    4.4902   14.9375   -2.7747 H   0  0  0  0  0  0  0  0  0  0  0  0
    3.6478   16.2607   -3.7388 H   0  0  0  0  0  0  0  0  0  0  0  0
    4.8456   17.0188   -1.5186 H   0  0  0  0  0  0  0  0  0  0  0  0
    1.1496   15.9360   -0.3075 H   0  0  0  0  0  0  0  0  0  0  0  0
    0.7098   18.5709   -1.8438 H   0  0  0  0  0  0  0  0  0  0  0  0
   -0.5641   17.5467   -1.0448 H   0  0  0  0  0  0  0  0  0  0  0  0
    0.0168   19.5378    0.3033 H   0  0  0  0  0  0  0  0  0  0  0  0
    0.4102   17.9827    1.1357 H   0  0  0  0  0  0  0  0  0  0  0  0
    2.2199   19.5212    1.4787 H   0  0  0  0  0  0  0  0  0  0  0  0
    1.8480   20.8480   -0.3690 H   0  0  0  0  0  0  0  0  0  0  0  0
    3.0962   17.6423    2.5324 H   0  0  0  0  0  0  0  0  0  0  0  0
    2.0326   16.5203    1.6177 H   0  0  0  0  0  0  0  0  0  0  0  0
    3.8117   16.2718    1.6177 H   0  0  0  0  0  0  0  0  0  0  0  0
    4.8779   18.6615    1.4616 H   0  0  0  0  0  0  0  0  0  0  0  0
    5.2656   17.8503   -0.0934 H   0  0  0  0  0  0  0  0  0  0  0  0
    4.5677   19.5054   -0.0934 H   0  0  0  0  0  0  0  0  0  0  0  0
    0.6190   17.7460   -3.2683 H   0  0  0  0  0  0  0  0  0  0  0  0
    1.7880   16.7952   -4.2461 H   0  0  0  0  0  0  0  0  0  0  0  0
    0.0473   16.3518   -4.2461 H   0  0  0  0  0  0  0  0  0  0  0  0
   -0.8891   15.5759   -1.6059 H   0  0  0  0  0  0  0  0  0  0  0  0
   -0.5786   14.7707   -3.2459 H   0  0  0  0  0  0  0  0  0  0  0  0
    0.1545   13.7173   -0.5004 H   0  0  0  0  0  0  0  0  0  0  0  0
   -1.0394   13.0518   -1.6833 H   0  0  0  0  0  0  0  0  0  0  0  0
   -0.3418   11.9765   -3.7605 H   0  0  0  0  0  0  0  0  0  0  0  0
    0.4955   13.4948   -4.2301 H   0  0  0  0  0  0  0  0  0  0  0  0
    1.3916   11.9380   -4.2301 H   0  0  0  0  0  0  0  0  0  0  0  0
  1  2  1  0
  2  3  1  0
  3  4  1  0
  4  5  1  0
  5  6  1  0
  6  7  1  0
  7  8  1  0
  7  9  1  0
  2 10  1  0
 10 11  1  0
 11 12  1  0
 12 13  1  0
 13 14  1  1
 13 15  1  0
 15 16  1  0
 16 17  1  0
 17 18  2  0
 18 19  1  0
 19 20  1  0
 20 21  1  0
 21 22  1  0
 22 23  1  0
 22 24  1  0
 24 25  1  0
 24 26  1  0
 19 27  1  0
 27 28  1  6
 27 29  1  0
 29 30  1  0
 30 31  1  0
 31 32  1  6
  7  5  1  0
 31 10  1  0
 31 13  1  0
 27 15  1  0
 24 18  1  0
  1 33  1  0
  1 34  1  0
  1 35  1  0
  2 36  1  1
  3 37  1  0
  3 38  1  0
  4 39  1  0
  4 40  1  0
  5 41  1  1
  8 42  1  0
  8 43  1  0
  8 44  1  0
  9 45  1  0
  9 46  1  0
  9 47  1  0
 10 48  1  1
 11 49  1  0
 11 50  1  0
 12 51  1  0
 12 52  1  0
 14 53  1  0
 14 54  1  0
 14 55  1  0
 15 56  1  6
 16 57  1  0
 16 58  1  0
 17 59  1  0
 19 60  1  1
 20 61  1  0
 20 62  1  0
 21 63  1  0
 21 64  1  0
 22 65  1  1
 23 66  1  0
 25 67  1  0
 25 68  1  0
 25 69  1  0
 26 70  1  0
 26 71  1  0
 26 72  1  0
 28 73  1  0
 28 74  1  0
 28 75  1  0
 29 76  1  0
 29 77  1  0
 30 78  1  0
 30 79  1  0
 32 80  1  0
 32 81  1  0
 32 82  1  0
M  END
>  <meeko>  (18) 
{"is_sidechain": [false], "intermolecular_energy": 2.731, "internal_energy": -0.839}

$$$$
EPH_relaxed_0001_pdb2pqr_Repair_201_r2_0001_out
     RDKit          3D

 82 86  0  0  0  0  0  0  0  0999 V2000
   -1.6140   10.2720    1.3570 C   0  0  0  0  0  0  0  0  0  0  0  0
   -2.1610    9.9740   -0.0420 C   0  0  2  0  0  0  0  0  0  0  0  0
   -2.9290    8.6380   -0.0930 C   0  0  0  0  0  0  0  0  0  0  0  0
   -4.4000    8.7880   -0.4910 C   0  0  0  0  0  0  0  0  0  0  0  0
   -5.0080    7.4720   -0.8710 C   0  0  2  0  0  0  0  0  0  0  0  0
   -5.0390    7.2110   -2.2800 O   0  0  0  0  0  0  0  0  0  0  0  0
   -6.3140    7.3430   -1.6320 C   0  0  0  0  0  0  0  0  0  0  0  0
   -7.0910    8.5490   -2.0580 C   0  0  0  0  0  0  0  0  0  0  0  0
   -7.0760    6.0590   -1.5340 C   0  0  0  0  0  0  0  0  0  0  0  0
   -1.0210    9.9580   -1.0530 C   0  0  1  0  0  0  0  0  0  0  0  0
   -1.3330    9.0760   -2.2920 C   0  0  0  0  0  0  0  0  0  0  0  0
   -0.6710    9.7670   -3.5110 C   0  0  0  0  0  0  0  0  0  0  0  0
    0.2700   10.8290   -2.8950 C   0  0  1  0  0  0  0  0  0  0  0  0
    1.5530   10.0400   -2.4860 C   0  0  0  0  0  0  0  0  0  0  0  0
    0.6120   12.0580   -3.7990 C   0  0  2  0  0  0  0  0  0  0  0  0
    1.3670   11.7230   -5.0970 C   0  0  0  0  0  0  0  0  0  0  0  0
    2.8560   11.7420   -4.9910 C   0  0  0  0  0  0  0  0  0  0  0  0
    3.5620   12.2910   -3.9840 C   0  0  0  0  0  0  0  0  0  0  0  0
    2.8590   13.0590   -2.8580 C   0  0  1  0  0  0  0  0  0  0  0  0
    3.6060   14.3930   -2.5960 C   0  0  0  0  0  0  0  0  0  0  0  0
    5.0930   14.1870   -2.3230 C   0  0  0  0  0  0  0  0  0  0  0  0
    5.7680   13.4720   -3.4910 C   0  0  2  0  0  0  0  0  0  0  0  0
    5.7540   14.3370   -4.6310 O   0  0  0  0  0  0  0  0  0  0  0  0
    5.0950   12.1190   -3.8520 C   0  0  0  0  0  0  0  0  0  0  0  0
    5.3740   11.0840   -2.7340 C   0  0  0  0  0  0  0  0  0  0  0  0
    5.7820   11.5710   -5.1320 C   0  0  0  0  0  0  0  0  0  0  0  0
    1.2920   13.2610   -3.0280 C   0  0  1  0  0  0  0  0  0  0  0  0
    1.0090   14.5440   -3.8680 C   0  0  0  0  0  0  0  0  0  0  0  0
    0.6480   13.5050   -1.6130 C   0  0  0  0  0  0  0  0  0  0  0  0
    0.2220   12.2560   -0.8180 C   0  0  0  0  0  0  0  0  0  0  0  0
   -0.6150   11.3120   -1.6880 C   0  0  2  0  0  0  0  0  0  0  0  0
   -1.9230   12.0710   -2.0960 C   0  0  0  0  0  0  0  0  0  0  0  0
   -2.3150    9.8901    2.1138 H   0  0  0  0  0  0  0  0  0  0  0  0
   -0.6374    9.7813    1.4810 H   0  0  0  0  0  0  0  0  0  0  0  0
   -1.4967   11.3587    1.4810 H   0  0  0  0  0  0  0  0  0  0  0  0
   -2.8724   10.7735   -0.2962 H   0  0  0  0  0  0  0  0  0  0  0  0
   -2.4362    7.9820   -0.8257 H   0  0  0  0  0  0  0  0  0  0  0  0
   -2.9124    8.2188    0.9239 H   0  0  0  0  0  0  0  0  0  0  0  0
   -4.9585    9.2066    0.3592 H   0  0  0  0  0  0  0  0  0  0  0  0
   -4.4529    9.4552   -1.3640 H   0  0  0  0  0  0  0  0  0  0  0  0
   -4.6475    7.0100    0.0599 H   0  0  0  0  0  0  0  0  0  0  0  0
   -7.4413    9.0926   -1.1682 H   0  0  0  0  0  0  0  0  0  0  0  0
   -6.4464    9.2068   -2.6595 H   0  0  0  0  0  0  0  0  0  0  0  0
   -7.9564    8.2340   -2.6595 H   0  0  0  0  0  0  0  0  0  0  0  0
   -7.2281    5.8028   -0.4751 H   0  0  0  0  0  0  0  0  0  0  0  0
   -8.0524    6.1735   -2.0274 H   0  0  0  0  0  0  0  0  0  0  0  0
   -6.5077    5.2568   -2.0274 H   0  0  0  0  0  0  0  0  0  0  0  0
   -0.2099    9.5848   -0.4104 H   0  0  0  0  0  0  0  0  0  0  0  0
   -0.9145    8.0681   -2.1545 H   0  0  0  0  0  0  0  0  0  0  0  0
   -2.4181    8.9709   -2.4388 H   0  0  0  0  0  0  0  0  0  0  0  0
   -0.0990    9.0399   -4.1061 H   0  0  0  0  0  0  0  0  0  0  0  0
   -1.4122   10.2113   -4.1916 H   0  0  0  0  0  0  0  0  0  0  0  0
    1.6229    9.9970   -1.3891 H   0  0  0  0  0  0  0  0  0  0  0  0
    1.4997    9.0184   -2.8903 H   0  0  0  0  0  0  0  0  0  0  0  0
    2.4407   10.5485   -2.8903 H   0  0  0  0  0  0  0  0  0  0  0  0
   -0.3838   12.4036   -4.1137 H   0  0  0  0  0  0  0  0  0  0  0  0
    1.0618   10.7160   -5.4176 H   0  0  0  0  0  0  0  0  0  0  0  0
    1.1027   12.5128   -5.8156 H   0  0  0  0  0  0  0  0  0  0  0  0
    3.4247   11.2674   -5.8042 H   0  0  0  0  0  0  0  0  0  0  0  0
    2.9201   12.4153   -1.9681 H   0  0  0  0  0  0  0  0  0  0  0  0
    3.4959   15.0383   -3.4800 H   0  0  0  0  0  0  0  0  0  0  0  0
    3.1628   14.8536   -1.7008 H   0  0  0  0  0  0  0  0  0  0  0  0
    5.5711   15.1667   -2.1757 H   0  0  0  0  0  0  0  0  0  0  0  0
    5.2019   13.5666   -1.4212 H   0  0  0  0  0  0  0  0  0  0  0  0
    6.7978   13.2371   -3.1839 H   0  0  0  0  0  0  0  0  0  0  0  0
    6.6720   14.6010   -4.8120 H   0  0  0  0  0  0  0  0  0  0  0  0
    5.2452   11.5618   -1.7516 H   0  0  0  0  0  0  0  0  0  0  0  0
    4.6703   10.2438   -2.8282 H   0  0  0  0  0  0  0  0  0  0  0  0
    6.4047   10.7113   -2.8282 H   0  0  0  0  0  0  0  0  0  0  0  0
    6.6126   10.9084   -4.8473 H   0  0  0  0  0  0  0  0  0  0  0  0
    5.0500   11.0060   -5.7278 H   0  0  0  0  0  0  0  0  0  0  0  0
    6.1701   12.4103   -5.7278 H   0  0  0  0  0  0  0  0  0  0  0  0
    0.8221   15.3912   -3.1917 H   0  0  0  0  0  0  0  0  0  0  0  0
    1.8797   14.7664   -4.5024 H   0  0  0  0  0  0  0  0  0  0  0  0
    0.1256   14.3794   -4.5024 H   0  0  0  0  0  0  0  0  0  0  0  0
    1.3818   14.0529   -1.0036 H   0  0  0  0  0  0  0  0  0  0  0  0
   -0.2858   14.0511   -1.8125 H   0  0  0  0  0  0  0  0  0  0  0  0
    1.1214   11.7249   -0.4729 H   0  0  0  0  0  0  0  0  0  0  0  0
   -0.3881   12.5767    0.0393 H   0  0  0  0  0  0  0  0  0  0  0  0
   -2.4628   12.3843   -1.1902 H   0  0  0  0  0  0  0  0  0  0  0  0
   -1.6616   12.9577   -2.6922 H   0  0  0  0  0  0  0  0  0  0  0  0
   -2.5631   11.4041   -2.6922 H   0  0  0  0  0  0  0  0  0  0  0  0
  1  2  1  0
  2  3  1  0
  3  4  1  0
  4  5  1  0
  5  6  1  0
  6  7  1  0
  7  8  1  0
  7  9  1  0
  2 10  1  0
 10 11  1  0
 11 12  1  0
 12 13  1  0
 13 14  1  1
 13 15  1  0
 15 16  1  0
 16 17  1  0
 17 18  2  0
 18 19  1  0
 19 20  1  0
 20 21  1  0
 21 22  1  0
 22 23  1  0
 22 24  1  0
 24 25  1  0
 24 26  1  0
 19 27  1  0
 27 28  1  6
 27 29  1  0
 29 30  1  0
 30 31  1  0
 31 32  1  6
  7  5  1  0
 31 10  1  0
 31 13  1  0
 27 15  1  0
 24 18  1  0
  1 33  1  0
  1 34  1  0
  1 35  1  0
  2 36  1  6
  3 37  1  0
  3 38  1  0
  4 39  1  0
  4 40  1  0
  5 41  1  1
  8 42  1  0
  8 43  1  0
  8 44  1  0
  9 45  1  0
  9 46  1  0
  9 47  1  0
 10 48  1  1
 11 49  1  0
 11 50  1  0
 12 51  1  0
 12 52  1  0
 14 53  1  0
 14 54  1  0
 14 55  1  0
 15 56  1  6
 16 57  1  0
 16 58  1  0
 17 59  1  0
 19 60  1  1
 20 61  1  0
 20 62  1  0
 21 63  1  0
 21 64  1  0
 22 65  1  1
 23 66  1  0
 25 67  1  0
 25 68  1  0
 25 69  1  0
 26 70  1  0
 26 71  1  0
 26 72  1  0
 28 73  1  0
 28 74  1  0
 28 75  1  0
 29 76  1  0
 29 77  1  0
 30 78  1  0
 30 79  1  0
 32 80  1  0
 32 81  1  0
 32 82  1  0
M  END
>  <meeko>  (19) 
{"is_sidechain": [false], "intermolecular_energy": 2.731, "internal_energy": -0.839}

$$$$
