EPH_relaxed_0001_pdb2pqr_Repair_290_r2_0001_out
     RDKit          3D

 82 86  0  0  0  0  0  0  0  0999 V2000
    4.2360   17.4050   -0.5170 C   0  0  0  0  0  0  0  0  0  0  0  0
    2.8740   17.9950   -0.1400 C   0  0  2  0  0  0  0  0  0  0  0  0
    2.9070   18.7040    1.2290 C   0  0  0  0  0  0  0  0  0  0  0  0
    4.2890   18.7050    1.8880 C   0  0  0  0  0  0  0  0  0  0  0  0
    4.2400   19.2650    3.2770 C   0  0  2  0  0  0  0  0  0  0  0  0
    5.2890   20.1920    3.5860 O   0  0  0  0  0  0  0  0  0  0  0  0
    5.2840   18.9670    4.3370 C   0  0  0  0  0  0  0  0  0  0  0  0
    6.4520   18.0750    4.0520 C   0  0  0  0  0  0  0  0  0  0  0  0
    4.9140   19.1430    5.7760 C   0  0  0  0  0  0  0  0  0  0  0  0
    1.8160   16.8970   -0.1330 C   0  0  1  0  0  0  0  0  0  0  0  0
    0.3930   17.4370   -0.4370 C   0  0  0  0  0  0  0  0  0  0  0  0
   -0.3400   16.3350   -1.2450 C   0  0  0  0  0  0  0  0  0  0  0  0
    0.5540   15.0810   -1.0940 C   0  0  1  0  0  0  0  0  0  0  0  0
    0.1780   14.4860    0.2990 C   0  0  0  0  0  0  0  0  0  0  0  0
    0.4400   14.0120   -2.2290 C   0  0  2  0  0  0  0  0  0  0  0  0
   -0.9460   13.3610   -2.3760 C   0  0  0  0  0  0  0  0  0  0  0  0
   -1.1580   12.1220   -1.5710 C   0  0  0  0  0  0  0  0  0  0  0  0
   -0.1880   11.3940   -0.9870 C   0  0  0  0  0  0  0  0  0  0  0  0
    1.2910   11.7460   -1.1890 C   0  0  1  0  0  0  0  0  0  0  0  0
    2.0910   10.4570   -1.5150 C   0  0  0  0  0  0  0  0  0  0  0  0
    1.8880    9.3630   -0.4710 C   0  0  0  0  0  0  0  0  0  0  0  0
    0.4120    9.0000   -0.3400 C   0  0  2  0  0  0  0  0  0  0  0  0
   -0.0210    8.3850   -1.5580 O   0  0  0  0  0  0  0  0  0  0  0  0
   -0.4940   10.2220   -0.0220 C   0  0  0  0  0  0  0  0  0  0  0  0
   -0.2290   10.7030    1.4260 C   0  0  0  0  0  0  0  0  0  0  0  0
   -1.9710    9.7440   -0.0570 C   0  0  0  0  0  0  0  0  0  0  0  0
    1.5900   12.9250   -2.2120 C   0  0  1  0  0  0  0  0  0  0  0  0
    1.6890   12.3580   -3.6620 C   0  0  0  0  0  0  0  0  0  0  0  0
    2.9980   13.5480   -1.8820 C   0  0  0  0  0  0  0  0  0  0  0  0
    3.0290   14.6820   -0.8400 C   0  0  0  0  0  0  0  0  0  0  0  0
    1.9760   15.7480   -1.1600 C   0  0  2  0  0  0  0  0  0  0  0  0
    2.3410   16.3810   -2.5460 C   0  0  0  0  0  0  0  0  0  0  0  0
    4.7964   17.1623    0.3979 H   0  0  0  0  0  0  0  0  0  0  0  0
    4.0880   16.4903   -1.1099 H   0  0  0  0  0  0  0  0  0  0  0  0
    4.8020   18.1386   -1.1099 H   0  0  0  0  0  0  0  0  0  0  0  0
    2.6199   18.7514   -0.8971 H   0  0  0  0  0  0  0  0  0  0  0  0
    2.5889   19.7475    1.0875 H   0  0  0  0  0  0  0  0  0  0  0  0
    2.2329   18.1467    1.8962 H   0  0  0  0  0  0  0  0  0  0  0  0
    4.6632   17.6716    1.9332 H   0  0  0  0  0  0  0  0  0  0  0  0
    4.9558   19.3395    1.2857 H   0  0  0  0  0  0  0  0  0  0  0  0
    3.1416   19.2071    3.2867 H   0  0  0  0  0  0  0  0  0  0  0  0
    6.8950   17.7367    5.0003 H   0  0  0  0  0  0  0  0  0  0  0  0
    6.1145   17.2026    3.4731 H   0  0  0  0  0  0  0  0  0  0  0  0
    7.2047   18.6302    3.4731 H   0  0  0  0  0  0  0  0  0  0  0  0
    5.7241   18.7577    6.4126 H   0  0  0  0  0  0  0  0  0  0  0  0
    4.7588   20.2114    5.9867 H   0  0  0  0  0  0  0  0  0  0  0  0
    3.9872   18.5893    5.9867 H   0  0  0  0  0  0  0  0  0  0  0  0
    1.9575   16.5112    0.8874 H   0  0  0  0  0  0  0  0  0  0  0  0
   -0.1440   17.6392    0.5015 H   0  0  0  0  0  0  0  0  0  0  0  0
    0.4404   18.3779   -1.0049 H   0  0  0  0  0  0  0  0  0  0  0  0
   -1.3417   16.1502   -0.8297 H   0  0  0  0  0  0  0  0  0  0  0  0
   -0.4877   16.6179   -2.2977 H   0  0  0  0  0  0  0  0  0  0  0  0
    0.5841   15.1287    1.0940 H   0  0  0  0  0  0  0  0  0  0  0  0
   -0.9168   14.4348    0.3924 H   0  0  0  0  0  0  0  0  0  0  0  0
    0.6017   13.4752    0.3924 H   0  0  0  0  0  0  0  0  0  0  0  0
    0.5836   14.6158   -3.1372 H   0  0  0  0  0  0  0  0  0  0  0  0
   -1.7021   14.0988   -2.0695 H   0  0  0  0  0  0  0  0  0  0  0  0
   -1.0286   13.0566   -3.4298 H   0  0  0  0  0  0  0  0  0  0  0  0
   -2.1940   11.7746   -1.4444 H   0  0  0  0  0  0  0  0  0  0  0  0
    1.6360   12.1674   -0.2333 H   0  0  0  0  0  0  0  0  0  0  0  0
    1.7627   10.0761   -2.4933 H   0  0  0  0  0  0  0  0  0  0  0  0
    3.1593   10.7193   -1.5206 H   0  0  0  0  0  0  0  0  0  0  0  0
    2.4531    8.4687   -0.7724 H   0  0  0  0  0  0  0  0  0  0  0  0
    2.2452    9.7349    0.5006 H   0  0  0  0  0  0  0  0  0  0  0  0
    0.3167    8.3091    0.5106 H   0  0  0  0  0  0  0  0  0  0  0  0
    0.1030    7.4250   -1.4630 H   0  0  0  0  0  0  0  0  0  0  0  0
   -0.6342    9.9676    2.1366 H   0  0  0  0  0  0  0  0  0  0  0  0
    0.8544   10.8082    1.5850 H   0  0  0  0  0  0  0  0  0  0  0  0
   -0.7190   11.6749    1.5850 H   0  0  0  0  0  0  0  0  0  0  0  0
   -2.3420    9.6239    0.9716 H   0  0  0  0  0  0  0  0  0  0  0  0
   -2.5852   10.4892   -0.5837 H   0  0  0  0  0  0  0  0  0  0  0  0
   -2.0321    8.7802   -0.5837 H   0  0  0  0  0  0  0  0  0  0  0  0
    1.8781   11.2752   -3.6202 H   0  0  0  0  0  0  0  0  0  0  0  0
    0.7446   12.5450   -4.1941 H   0  0  0  0  0  0  0  0  0  0  0  0
    2.5141   12.8540   -4.1941 H   0  0  0  0  0  0  0  0  0  0  0  0
    3.6418   12.7371   -1.5106 H   0  0  0  0  0  0  0  0  0  0  0  0
    3.3351   14.0110   -2.8212 H   0  0  0  0  0  0  0  0  0  0  0  0
    2.8248   14.2617    0.1558 H   0  0  0  0  0  0  0  0  0  0  0  0
    4.0231   15.1524   -0.8622 H   0  0  0  0  0  0  0  0  0  0  0  0
    2.8847   17.3239   -2.3867 H   0  0  0  0  0  0  0  0  0  0  0  0
    2.9753   15.6831   -3.1122 H   0  0  0  0  0  0  0  0  0  0  0  0
    1.4192   16.5804   -3.1122 H   0  0  0  0  0  0  0  0  0  0  0  0
  1  2  1  0
  2  3  1  0
  3  4  1  0
  4  5  1  0
  5  6  1  0
  6  7  1  0
  7  8  1  0
  7  9  1  0
  2 10  1  0
 10 11  1  0
 11 12  1  0
 12 13  1  0
 13 14  1  1
 13 15  1  0
 15 16  1  0
 16 17  1  0
 17 18  2  0
 18 19  1  0
 19 20  1  0
 20 21  1  0
 21 22  1  0
 22 23  1  0
 22 24  1  0
 24 25  1  0
 24 26  1  0
 19 27  1  0
 27 28  1  6
 27 29  1  0
 29 30  1  0
 30 31  1  0
 31 32  1  6
  7  5  1  0
 31 10  1  0
 31 13  1  0
 27 15  1  0
 24 18  1  0
  1 33  1  0
  1 34  1  0
  1 35  1  0
  2 36  1  6
  3 37  1  0
  3 38  1  0
  4 39  1  0
  4 40  1  0
  5 41  1  1
  8 42  1  0
  8 43  1  0
  8 44  1  0
  9 45  1  0
  9 46  1  0
  9 47  1  0
 10 48  1  1
 11 49  1  0
 11 50  1  0
 12 51  1  0
 12 52  1  0
 14 53  1  0
 14 54  1  0
 14 55  1  0
 15 56  1  6
 16 57  1  0
 16 58  1  0
 17 59  1  0
 19 60  1  1
 20 61  1  0
 20 62  1  0
 21 63  1  0
 21 64  1  0
 22 65  1  1
 23 66  1  0
 25 67  1  0
 25 68  1  0
 25 69  1  0
 26 70  1  0
 26 71  1  0
 26 72  1  0
 28 73  1  0
 28 74  1  0
 28 75  1  0
 29 76  1  0
 29 77  1  0
 30 78  1  0
 30 79  1  0
 32 80  1  0
 32 81  1  0
 32 82  1  0
M  END
>  <meeko>  (1) 
{"is_sidechain": [false], "intermolecular_energy": 2.731, "internal_energy": -0.839}

$$$$
EPH_relaxed_0001_pdb2pqr_Repair_290_r2_0001_out
     RDKit          3D

 82 86  0  0  0  0  0  0  0  0999 V2000
    0.6270   18.1950    0.1070 C   0  0  0  0  0  0  0  0  0  0  0  0
    1.6640   17.0950   -0.1340 C   0  0  2  0  0  0  0  0  0  0  0  0
    2.8940   17.6140   -0.9060 C   0  0  0  0  0  0  0  0  0  0  0  0
    4.0960   17.9260   -0.0110 C   0  0  0  0  0  0  0  0  0  0  0  0
    3.6710   18.4860    1.3130 C   0  0  2  0  0  0  0  0  0  0  0  0
    3.8610   19.8990    1.4550 O   0  0  0  0  0  0  0  0  0  0  0  0
    4.6400   19.0640    2.3270 C   0  0  0  0  0  0  0  0  0  0  0  0
    6.1120   19.1120    2.0600 C   0  0  0  0  0  0  0  0  0  0  0  0
    4.2190   19.1330    3.7610 C   0  0  0  0  0  0  0  0  0  0  0  0
    1.0260   15.9350   -0.8890 C   0  0  1  0  0  0  0  0  0  0  0  0
    0.8400   16.2360   -2.4000 C   0  0  0  0  0  0  0  0  0  0  0  0
    1.0620   14.9000   -3.1540 C   0  0  0  0  0  0  0  0  0  0  0  0
    1.0380   13.8190   -2.0470 C   0  0  1  0  0  0  0  0  0  0  0  0
   -0.4760   13.5590   -1.7730 C   0  0  0  0  0  0  0  0  0  0  0  0
    1.8050   12.4930   -2.3600 C   0  0  2  0  0  0  0  0  0  0  0  0
    1.2620   11.6920   -3.5560 C   0  0  0  0  0  0  0  0  0  0  0  0
    0.2160   10.6800   -3.2240 C   0  0  0  0  0  0  0  0  0  0  0  0
   -0.0650   10.2220   -1.9890 C   0  0  0  0  0  0  0  0  0  0  0  0
    0.7710   10.6580   -0.7790 C   0  0  1  0  0  0  0  0  0  0  0  0
    1.1310    9.4140    0.0760 C   0  0  0  0  0  0  0  0  0  0  0  0
   -0.0980    8.6030    0.4760 C   0  0  0  0  0  0  0  0  0  0  0  0
   -0.8700    8.1390   -0.7560 C   0  0  2  0  0  0  0  0  0  0  0  0
   -0.0680    7.1980   -1.4760 O   0  0  0  0  0  0  0  0  0  0  0  0
   -1.2790    9.3060   -1.6980 C   0  0  0  0  0  0  0  0  0  0  0  0
   -2.3810   10.1590   -1.0220 C   0  0  0  0  0  0  0  0  0  0  0  0
   -1.9250    8.6900   -2.9680 C   0  0  0  0  0  0  0  0  0  0  0  0
    2.0350   11.5650   -1.0990 C   0  0  1  0  0  0  0  0  0  0  0  0
    3.2660   10.6650   -1.4280 C   0  0  0  0  0  0  0  0  0  0  0  0
    2.4180   12.3880    0.1880 C   0  0  0  0  0  0  0  0  0  0  0  0
    1.7140   13.7450    0.3790 C   0  0  0  0  0  0  0  0  0  0  0  0
    1.7890   14.5860   -0.8990 C   0  0  2  0  0  0  0  0  0  0  0  0
    3.3000   14.8830   -1.1870 C   0  0  0  0  0  0  0  0  0  0  0  0
    0.4906   18.3397    1.1889 H   0  0  0  0  0  0  0  0  0  0  0  0
    0.9761   19.1340   -0.3474 H   0  0  0  0  0  0  0  0  0  0  0  0
   -0.3309   17.9018   -0.3474 H   0  0  0  0  0  0  0  0  0  0  0  0
    2.0142   16.7500    0.8500 H   0  0  0  0  0  0  0  0  0  0  0  0
    3.1943   16.8480   -1.6361 H   0  0  0  0  0  0  0  0  0  0  0  0
    2.5972   18.5582   -1.3861 H   0  0  0  0  0  0  0  0  0  0  0  0
    4.6635   16.9993    0.1595 H   0  0  0  0  0  0  0  0  0  0  0  0
    4.7154   18.6797   -0.5192 H   0  0  0  0  0  0  0  0  0  0  0  0
    2.8728   17.7342    1.4005 H   0  0  0  0  0  0  0  0  0  0  0  0
    6.6575   19.1298    3.0151 H   0  0  0  0  0  0  0  0  0  0  0  0
    6.4094   18.2231    1.4844 H   0  0  0  0  0  0  0  0  0  0  0  0
    6.3509   20.0184    1.4844 H   0  0  0  0  0  0  0  0  0  0  0  0
    5.0968   18.9891    4.4082 H   0  0  0  0  0  0  0  0  0  0  0  0
    3.7706   20.1166    3.9646 H   0  0  0  0  0  0  0  0  0  0  0  0
    3.4801   18.3440    3.9646 H   0  0  0  0  0  0  0  0  0  0  0  0
    0.0920   15.8350   -0.3167 H   0  0  0  0  0  0  0  0  0  0  0  0
   -0.1760   16.6129   -2.5887 H   0  0  0  0  0  0  0  0  0  0  0  0
    1.5509   17.0036   -2.7398 H   0  0  0  0  0  0  0  0  0  0  0  0
    0.2568   14.7271   -3.8832 H   0  0  0  0  0  0  0  0  0  0  0  0
    2.0032   14.8935   -3.7234 H   0  0  0  0  0  0  0  0  0  0  0  0
   -0.6523   13.5287   -0.6876 H   0  0  0  0  0  0  0  0  0  0  0  0
   -1.0735   14.3677   -2.2191 H   0  0  0  0  0  0  0  0  0  0  0  0
   -0.7695   12.5973   -2.2191 H   0  0  0  0  0  0  0  0  0  0  0  0
    2.7942   12.8599   -2.6712 H   0  0  0  0  0  0  0  0  0  0  0  0
    0.8298   12.4045   -4.2740 H   0  0  0  0  0  0  0  0  0  0  0  0
    2.1163   11.1263   -3.9563 H   0  0  0  0  0  0  0  0  0  0  0  0
   -0.3750   10.2742   -4.0583 H   0  0  0  0  0  0  0  0  0  0  0  0
    0.1322   11.3392   -0.1977 H   0  0  0  0  0  0  0  0  0  0  0  0
    1.8049    8.7687   -0.5067 H   0  0  0  0  0  0  0  0  0  0  0  0
    1.6103    9.7711    0.9995 H   0  0  0  0  0  0  0  0  0  0  0  0
    0.2234    7.7227    1.0520 H   0  0  0  0  0  0  0  0  0  0  0  0
   -0.7569    9.2407    1.0836 H   0  0  0  0  0  0  0  0  0  0  0  0
   -1.8045    7.6771   -0.4047 H   0  0  0  0  0  0  0  0  0  0  0  0
   -0.6360    6.4440   -1.7070 H   0  0  0  0  0  0  0  0  0  0  0  0
   -2.2839   10.0839    0.0711 H   0  0  0  0  0  0  0  0  0  0  0  0
   -2.2711   11.2097   -1.3285 H   0  0  0  0  0  0  0  0  0  0  0  0
   -3.3706    9.7892   -1.3285 H   0  0  0  0  0  0  0  0  0  0  0  0
   -2.6916    7.9590   -2.6716 H   0  0  0  0  0  0  0  0  0  0  0  0
   -2.3904    9.4873   -3.5662 H   0  0  0  0  0  0  0  0  0  0  0  0
   -1.1508    8.1873   -3.5662 H   0  0  0  0  0  0  0  0  0  0  0  0
    3.7319   10.3244   -0.4916 H   0  0  0  0  0  0  0  0  0  0  0  0
    2.9370    9.7930   -2.0122 H   0  0  0  0  0  0  0  0  0  0  0  0
    3.9971   11.2430   -2.0122 H   0  0  0  0  0  0  0  0  0  0  0  0
    2.1832   11.7650    1.0636 H   0  0  0  0  0  0  0  0  0  0  0  0
    3.4841   12.6309    0.0680 H   0  0  0  0  0  0  0  0  0  0  0  0
    0.6582   13.5700    0.6332 H   0  0  0  0  0  0  0  0  0  0  0  0
    2.2195   14.2916    1.1888 H   0  0  0  0  0  0  0  0  0  0  0  0
    3.8407   14.9893   -0.2350 H   0  0  0  0  0  0  0  0  0  0  0  0
    3.7333   14.0528   -1.7641 H   0  0  0  0  0  0  0  0  0  0  0  0
    3.3869   15.8154   -1.7641 H   0  0  0  0  0  0  0  0  0  0  0  0
  1  2  1  0
  2  3  1  0
  3  4  1  0
  4  5  1  0
  5  6  1  0
  6  7  1  0
  7  8  1  0
  7  9  1  0
  2 10  1  0
 10 11  1  0
 11 12  1  0
 12 13  1  0
 13 14  1  1
 13 15  1  0
 15 16  1  0
 16 17  1  0
 17 18  2  0
 18 19  1  0
 19 20  1  0
 20 21  1  0
 21 22  1  0
 22 23  1  0
 22 24  1  0
 24 25  1  0
 24 26  1  0
 19 27  1  0
 27 28  1  6
 27 29  1  0
 29 30  1  0
 30 31  1  0
 31 32  1  6
  7  5  1  0
 31 10  1  0
 31 13  1  0
 27 15  1  0
 24 18  1  0
  1 33  1  0
  1 34  1  0
  1 35  1  0
  2 36  1  1
  3 37  1  0
  3 38  1  0
  4 39  1  0
  4 40  1  0
  5 41  1  1
  8 42  1  0
  8 43  1  0
  8 44  1  0
  9 45  1  0
  9 46  1  0
  9 47  1  0
 10 48  1  1
 11 49  1  0
 11 50  1  0
 12 51  1  0
 12 52  1  0
 14 53  1  0
 14 54  1  0
 14 55  1  0
 15 56  1  6
 16 57  1  0
 16 58  1  0
 17 59  1  0
 19 60  1  1
 20 61  1  0
 20 62  1  0
 21 63  1  0
 21 64  1  0
 22 65  1  1
 23 66  1  0
 25 67  1  0
 25 68  1  0
 25 69  1  0
 26 70  1  0
 26 71  1  0
 26 72  1  0
 28 73  1  0
 28 74  1  0
 28 75  1  0
 29 76  1  0
 29 77  1  0
 30 78  1  0
 30 79  1  0
 32 80  1  0
 32 81  1  0
 32 82  1  0
M  END
>  <meeko>  (2) 
{"is_sidechain": [false], "intermolecular_energy": 2.731, "internal_energy": -0.839}

$$$$
EPH_relaxed_0001_pdb2pqr_Repair_290_r2_0001_out
     RDKit          3D

 82 86  0  0  0  0  0  0  0  0999 V2000
   -5.1940    5.7860   -1.6810 C   0  0  0  0  0  0  0  0  0  0  0  0
   -5.4650    7.2910   -1.7710 C   0  0  2  0  0  0  0  0  0  0  0  0
   -5.2250    8.0060   -0.4260 C   0  0  0  0  0  0  0  0  0  0  0  0
   -4.1970    9.1370   -0.5060 C   0  0  0  0  0  0  0  0  0  0  0  0
   -2.8240    8.6180   -0.8110 C   0  0  2  0  0  0  0  0  0  0  0  0
   -1.8280    8.9510    0.1640 O   0  0  0  0  0  0  0  0  0  0  0  0
   -1.6460    9.5150   -1.1450 C   0  0  0  0  0  0  0  0  0  0  0  0
   -1.7870   11.0040   -1.1910 C   0  0  0  0  0  0  0  0  0  0  0  0
   -0.4920    8.9290   -1.8980 C   0  0  0  0  0  0  0  0  0  0  0  0
   -6.8940    7.5340   -2.2420 C   0  0  1  0  0  0  0  0  0  0  0  0
   -7.2010    6.8450   -3.5990 C   0  0  0  0  0  0  0  0  0  0  0  0
   -8.6810    6.3880   -3.5440 C   0  0  0  0  0  0  0  0  0  0  0  0
   -9.2680    7.1130   -2.3090 C   0  0  1  0  0  0  0  0  0  0  0  0
   -9.6000    8.5530   -2.8100 C   0  0  0  0  0  0  0  0  0  0  0  0
  -10.5050    6.4360   -1.6340 C   0  0  2  0  0  0  0  0  0  0  0  0
  -11.7550    6.3270   -2.5240 C   0  0  0  0  0  0  0  0  0  0  0  0
  -12.6970    7.4820   -2.4460 C   0  0  0  0  0  0  0  0  0  0  0  0
  -12.6960    8.4290   -1.4890 C   0  0  0  0  0  0  0  0  0  0  0  0
  -11.7400    8.3380   -0.2930 C   0  0  1  0  0  0  0  0  0  0  0  0
  -12.5200    8.6230    1.0170 C   0  0  0  0  0  0  0  0  0  0  0  0
  -13.2750    9.9480    0.9730 C   0  0  0  0  0  0  0  0  0  0  0  0
  -14.2580    9.9760   -0.1950 C   0  0  2  0  0  0  0  0  0  0  0  0
  -15.2870    9.0120    0.0460 O   0  0  0  0  0  0  0  0  0  0  0  0
  -13.5870    9.6930   -1.5680 C   0  0  0  0  0  0  0  0  0  0  0  0
  -12.6930   10.8930   -1.9670 C   0  0  0  0  0  0  0  0  0  0  0  0
  -14.7070    9.6110   -2.6390 C   0  0  0  0  0  0  0  0  0  0  0  0
  -10.8620    7.0160   -0.2060 C   0  0  1  0  0  0  0  0  0  0  0  0
  -11.6530    5.9010    0.5430 C   0  0  0  0  0  0  0  0  0  0  0  0
   -9.5790    7.3070    0.6590 C   0  0  0  0  0  0  0  0  0  0  0  0
   -8.3500    7.8620   -0.0860 C   0  0  0  0  0  0  0  0  0  0  0  0
   -8.0400    7.0260   -1.3310 C   0  0  2  0  0  0  0  0  0  0  0  0
   -7.6800    5.5770   -0.8570 C   0  0  0  0  0  0  0  0  0  0  0  0
   -5.1399    5.4857   -0.6242 H   0  0  0  0  0  0  0  0  0  0  0  0
   -6.0077    5.2366   -2.1771 H   0  0  0  0  0  0  0  0  0  0  0  0
   -4.2398    5.5549   -2.1771 H   0  0  0  0  0  0  0  0  0  0  0  0
   -4.7563    7.7119   -2.4995 H   0  0  0  0  0  0  0  0  0  0  0  0
   -6.1805    8.4287   -0.0819 H   0  0  0  0  0  0  0  0  0  0  0  0
   -4.8236    7.2551    0.2704 H   0  0  0  0  0  0  0  0  0  0  0  0
   -4.4980    9.8368   -1.2996 H   0  0  0  0  0  0  0  0  0  0  0  0
   -4.1640    9.6401    0.4717 H   0  0  0  0  0  0  0  0  0  0  0  0
   -3.2438    7.7338   -1.3129 H   0  0  0  0  0  0  0  0  0  0  0  0
   -1.8246   11.4006   -0.1657 H   0  0  0  0  0  0  0  0  0  0  0  0
   -0.9259   11.4377   -1.7206 H   0  0  0  0  0  0  0  0  0  0  0  0
   -2.7142   11.2683   -1.7206 H   0  0  0  0  0  0  0  0  0  0  0  0
    0.2556    8.5494   -1.1860 H   0  0  0  0  0  0  0  0  0  0  0  0
   -0.8486    8.1028   -2.5306 H   0  0  0  0  0  0  0  0  0  0  0  0
   -0.0353    9.7044   -2.5306 H   0  0  0  0  0  0  0  0  0  0  0  0
   -6.8944    8.6337   -2.2690 H   0  0  0  0  0  0  0  0  0  0  0  0
   -7.0544    7.5552   -4.4261 H   0  0  0  0  0  0  0  0  0  0  0  0
   -6.5298    5.9902   -3.7686 H   0  0  0  0  0  0  0  0  0  0  0  0
   -9.2138    6.6863   -4.4590 H   0  0  0  0  0  0  0  0  0  0  0  0
   -8.7775    5.2947   -3.4707 H   0  0  0  0  0  0  0  0  0  0  0  0
   -9.7528    9.2158   -1.9455 H   0  0  0  0  0  0  0  0  0  0  0  0
   -8.7654    8.9309   -3.4188 H   0  0  0  0  0  0  0  0  0  0  0  0
  -10.5158    8.5274   -3.4188 H   0  0  0  0  0  0  0  0  0  0  0  0
  -10.1554    5.4043   -1.4815 H   0  0  0  0  0  0  0  0  0  0  0  0
  -11.4215    6.2305   -3.5678 H   0  0  0  0  0  0  0  0  0  0  0  0
  -12.3141    5.4536   -2.1570 H   0  0  0  0  0  0  0  0  0  0  0  0
  -13.4563    7.5667   -3.2373 H   0  0  0  0  0  0  0  0  0  0  0  0
  -10.9802    9.1175   -0.4514 H   0  0  0  0  0  0  0  0  0  0  0  0
  -13.2433    7.8105    1.1804 H   0  0  0  0  0  0  0  0  0  0  0  0
  -11.7871    8.6838    1.8350 H   0  0  0  0  0  0  0  0  0  0  0  0
  -13.8298   10.0779    1.9139 H   0  0  0  0  0  0  0  0  0  0  0  0
  -12.5479   10.7627    0.8403 H   0  0  0  0  0  0  0  0  0  0  0  0
  -14.6724   10.9933   -0.2532 H   0  0  0  0  0  0  0  0  0  0  0  0
  -15.7580    9.2790    0.8530 H   0  0  0  0  0  0  0  0  0  0  0  0
  -12.3217   11.3914   -1.0594 H   0  0  0  0  0  0  0  0  0  0  0  0
  -11.8409   10.5334   -2.5625 H   0  0  0  0  0  0  0  0  0  0  0  0
  -13.2814   11.6066   -2.5625 H   0  0  0  0  0  0  0  0  0  0  0  0
  -15.6855    9.5394   -2.1416 H   0  0  0  0  0  0  0  0  0  0  0  0
  -14.6803   10.5135   -3.2673 H   0  0  0  0  0  0  0  0  0  0  0  0
  -14.5491    8.7220   -3.2673 H   0  0  0  0  0  0  0  0  0  0  0  0
  -11.5507    6.0452    1.6287 H   0  0  0  0  0  0  0  0  0  0  0  0
  -12.7158    5.9552    0.2644 H   0  0  0  0  0  0  0  0  0  0  0  0
  -11.2507    4.9158    0.2644 H   0  0  0  0  0  0  0  0  0  0  0  0
   -9.8577    8.0382    1.4321 H   0  0  0  0  0  0  0  0  0  0  0  0
   -9.2632    6.3263    1.0444 H   0  0  0  0  0  0  0  0  0  0  0  0
   -8.5520    8.8996   -0.3904 H   0  0  0  0  0  0  0  0  0  0  0  0
   -7.4825    7.8207    0.5891 H   0  0  0  0  0  0  0  0  0  0  0  0
   -7.6714    5.5424    0.2424 H   0  0  0  0  0  0  0  0  0  0  0  0
   -8.4295    4.8690   -1.2403 H   0  0  0  0  0  0  0  0  0  0  0  0
   -6.6863    5.3021   -1.2403 H   0  0  0  0  0  0  0  0  0  0  0  0
  1  2  1  0
  2  3  1  0
  3  4  1  0
  4  5  1  0
  5  6  1  0
  6  7  1  0
  7  8  1  0
  7  9  1  0
  2 10  1  0
 10 11  1  0
 11 12  1  0
 12 13  1  0
 13 14  1  6
 13 15  1  0
 15 16  1  0
 16 17  1  0
 17 18  2  0
 18 19  1  0
 19 20  1  0
 20 21  1  0
 21 22  1  0
 22 23  1  0
 22 24  1  0
 24 25  1  0
 24 26  1  0
 19 27  1  0
 27 28  1  1
 27 29  1  0
 29 30  1  0
 30 31  1  0
 31 32  1  1
  7  5  1  0
 31 10  1  0
 31 13  1  0
 27 15  1  0
 24 18  1  0
  1 33  1  0
  1 34  1  0
  1 35  1  0
  2 36  1  6
  3 37  1  0
  3 38  1  0
  4 39  1  0
  4 40  1  0
  5 41  1  6
  8 42  1  0
  8 43  1  0
  8 44  1  0
  9 45  1  0
  9 46  1  0
  9 47  1  0
 10 48  1  6
 11 49  1  0
 11 50  1  0
 12 51  1  0
 12 52  1  0
 14 53  1  0
 14 54  1  0
 14 55  1  0
 15 56  1  1
 16 57  1  0
 16 58  1  0
 17 59  1  0
 19 60  1  6
 20 61  1  0
 20 62  1  0
 21 63  1  0
 21 64  1  0
 22 65  1  6
 23 66  1  0
 25 67  1  0
 25 68  1  0
 25 69  1  0
 26 70  1  0
 26 71  1  0
 26 72  1  0
 28 73  1  0
 28 74  1  0
 28 75  1  0
 29 76  1  0
 29 77  1  0
 30 78  1  0
 30 79  1  0
 32 80  1  0
 32 81  1  0
 32 82  1  0
M  END
>  <meeko>  (3) 
{"is_sidechain": [false], "intermolecular_energy": 2.731, "internal_energy": -0.839}

$$$$
EPH_relaxed_0001_pdb2pqr_Repair_290_r2_0001_out
     RDKit          3D

 82 86  0  0  0  0  0  0  0  0999 V2000
   -5.0300    8.4950   -0.4840 C   0  0  0  0  0  0  0  0  0  0  0  0
   -5.3610    7.4310   -1.5340 C   0  0  2  0  0  0  0  0  0  0  0  0
   -4.3560    7.4370   -2.7040 C   0  0  0  0  0  0  0  0  0  0  0  0
   -2.9150    7.1440   -2.2780 C   0  0  0  0  0  0  0  0  0  0  0  0
   -1.9810    8.2410   -2.6940 C   0  0  2  0  0  0  0  0  0  0  0  0
   -0.6180    8.0500   -2.2920 O   0  0  0  0  0  0  0  0  0  0  0  0
   -1.2980    9.1750   -1.7120 C   0  0  0  0  0  0  0  0  0  0  0  0
   -1.5220    9.0560   -0.2370 C   0  0  0  0  0  0  0  0  0  0  0  0
   -0.8060   10.4990   -2.2080 C   0  0  0  0  0  0  0  0  0  0  0  0
   -6.7750    7.6430   -2.0610 C   0  0  1  0  0  0  0  0  0  0  0  0
   -7.0100    6.9590   -3.4340 C   0  0  0  0  0  0  0  0  0  0  0  0
   -8.4800    6.4660   -3.4420 C   0  0  0  0  0  0  0  0  0  0  0  0
   -9.1330    7.1660   -2.2270 C   0  0  1  0  0  0  0  0  0  0  0  0
   -9.4800    8.6020   -2.7300 C   0  0  0  0  0  0  0  0  0  0  0  0
  -10.3800    6.4540   -1.6070 C   0  0  2  0  0  0  0  0  0  0  0  0
  -11.5900    6.3220   -2.5480 C   0  0  0  0  0  0  0  0  0  0  0  0
  -12.5620    7.4540   -2.4990 C   0  0  0  0  0  0  0  0  0  0  0  0
  -12.6230    8.3920   -1.5360 C   0  0  0  0  0  0  0  0  0  0  0  0
  -11.7130    8.3150   -0.3030 C   0  0  1  0  0  0  0  0  0  0  0  0
  -12.5530    8.5690    0.9760 C   0  0  0  0  0  0  0  0  0  0  0  0
  -13.3370    9.8760    0.9110 C   0  0  0  0  0  0  0  0  0  0  0  0
  -14.2730    9.8910   -0.2950 C   0  0  2  0  0  0  0  0  0  0  0  0
  -15.2870    8.9000   -0.1040 O   0  0  0  0  0  0  0  0  0  0  0  0
  -13.5400    9.6350   -1.6420 C   0  0  0  0  0  0  0  0  0  0  0  0
  -12.6600   10.8590   -1.9960 C   0  0  0  0  0  0  0  0  0  0  0  0
  -14.6140    9.5350   -2.7580 C   0  0  0  0  0  0  0  0  0  0  0  0
  -10.8080    7.0140   -0.1900 C   0  0  1  0  0  0  0  0  0  0  0  0
  -11.6010    5.8730    0.5180 C   0  0  0  0  0  0  0  0  0  0  0  0
   -9.5680    7.3280    0.7280 C   0  0  0  0  0  0  0  0  0  0  0  0
   -8.3240    7.9190    0.0370 C   0  0  0  0  0  0  0  0  0  0  0  0
   -7.9440    7.1010   -1.2010 C   0  0  2  0  0  0  0  0  0  0  0  0
   -7.5680    5.6570   -0.7230 C   0  0  0  0  0  0  0  0  0  0  0  0
   -5.1620    8.0707    0.5222 H   0  0  0  0  0  0  0  0  0  0  0  0
   -3.9875    8.8226   -0.6099 H   0  0  0  0  0  0  0  0  0  0  0  0
   -5.7027    9.3562   -0.6099 H   0  0  0  0  0  0  0  0  0  0  0  0
   -5.2905    6.4490   -1.0434 H   0  0  0  0  0  0  0  0  0  0  0  0
   -4.6654    6.6724   -3.4317 H   0  0  0  0  0  0  0  0  0  0  0  0
   -4.3655    8.4506   -3.1312 H   0  0  0  0  0  0  0  0  0  0  0  0
   -2.8804    7.0420   -1.1833 H   0  0  0  0  0  0  0  0  0  0  0  0
   -2.5936    6.2142   -2.7702 H   0  0  0  0  0  0  0  0  0  0  0  0
   -2.5688    8.4294   -3.6045 H   0  0  0  0  0  0  0  0  0  0  0  0
   -0.6743    9.5064    0.3001 H   0  0  0  0  0  0  0  0  0  0  0  0
   -2.4496    9.5803    0.0365 H   0  0  0  0  0  0  0  0  0  0  0  0
   -1.6068    7.9939    0.0365 H   0  0  0  0  0  0  0  0  0  0  0  0
   -0.5658   11.1454   -1.3510 H   0  0  0  0  0  0  0  0  0  0  0  0
    0.0966   10.3494   -2.8187 H   0  0  0  0  0  0  0  0  0  0  0  0
   -1.5872   10.9751   -2.8187 H   0  0  0  0  0  0  0  0  0  0  0  0
   -6.8009    8.7425   -2.0802 H   0  0  0  0  0  0  0  0  0  0  0  0
   -6.8477    7.6797   -4.2490 H   0  0  0  0  0  0  0  0  0  0  0  0
   -6.3118    6.1222   -3.5832 H   0  0  0  0  0  0  0  0  0  0  0  0
   -8.9828    6.7591   -4.3754 H   0  0  0  0  0  0  0  0  0  0  0  0
   -8.5528    5.3701   -3.3808 H   0  0  0  0  0  0  0  0  0  0  0  0
   -9.6400    9.2643   -1.8664 H   0  0  0  0  0  0  0  0  0  0  0  0
   -8.6493    8.9879   -3.3391 H   0  0  0  0  0  0  0  0  0  0  0  0
  -10.3953    8.5660   -3.3391 H   0  0  0  0  0  0  0  0  0  0  0  0
  -10.0123    5.4296   -1.4474 H   0  0  0  0  0  0  0  0  0  0  0  0
  -11.2125    6.2424   -3.5781 H   0  0  0  0  0  0  0  0  0  0  0  0
  -12.1419    5.4320   -2.2113 H   0  0  0  0  0  0  0  0  0  0  0  0
  -13.2904    7.5276   -3.3200 H   0  0  0  0  0  0  0  0  0  0  0  0
  -10.9667    9.1139   -0.4247 H   0  0  0  0  0  0  0  0  0  0  0  0
  -13.2626    7.7381    1.1026 H   0  0  0  0  0  0  0  0  0  0  0  0
  -11.8564    8.6393    1.8244 H   0  0  0  0  0  0  0  0  0  0  0  0
  -13.9319    9.9851    1.8298 H   0  0  0  0  0  0  0  0  0  0  0  0
  -12.6246   10.7084    0.8131 H   0  0  0  0  0  0  0  0  0  0  0  0
  -14.7096   10.8985   -0.3613 H   0  0  0  0  0  0  0  0  0  0  0  0
  -16.1460    9.3190   -0.2860 H   0  0  0  0  0  0  0  0  0  0  0  0
  -12.3132   11.3413   -1.0702 H   0  0  0  0  0  0  0  0  0  0  0  0
  -11.7916   10.5283   -2.5846 H   0  0  0  0  0  0  0  0  0  0  0  0
  -13.2501   11.5769   -2.5846 H   0  0  0  0  0  0  0  0  0  0  0  0
  -15.6102    9.4422   -2.3009 H   0  0  0  0  0  0  0  0  0  0  0  0
  -14.5797   10.4402   -3.3820 H   0  0  0  0  0  0  0  0  0  0  0  0
  -14.4132    8.6517   -3.3820 H   0  0  0  0  0  0  0  0  0  0  0  0
  -11.5187    5.9914    1.6085 H   0  0  0  0  0  0  0  0  0  0  0  0
  -12.6593    5.9240    0.2224 H   0  0  0  0  0  0  0  0  0  0  0  0
  -11.1843    4.8988    0.2224 H   0  0  0  0  0  0  0  0  0  0  0  0
   -9.8950    8.0455    1.4950 H   0  0  0  0  0  0  0  0  0  0  0  0
   -9.2441    6.3518    1.1181 H   0  0  0  0  0  0  0  0  0  0  0  0
   -8.5391    8.9539   -0.2676 H   0  0  0  0  0  0  0  0  0  0  0  0
   -7.4834    7.8932    0.7461 H   0  0  0  0  0  0  0  0  0  0  0  0
   -7.5597    5.6253    0.3765 H   0  0  0  0  0  0  0  0  0  0  0  0
   -8.3093    4.9397   -1.1050 H   0  0  0  0  0  0  0  0  0  0  0  0
   -6.5710    5.3923   -1.1050 H   0  0  0  0  0  0  0  0  0  0  0  0
  1  2  1  0
  2  3  1  0
  3  4  1  0
  4  5  1  0
  5  6  1  0
  6  7  1  0
  7  8  1  0
  7  9  1  0
  2 10  1  0
 10 11  1  0
 11 12  1  0
 12 13  1  0
 13 14  1  6
 13 15  1  0
 15 16  1  0
 16 17  1  0
 17 18  2  0
 18 19  1  0
 19 20  1  0
 20 21  1  0
 21 22  1  0
 22 23  1  0
 22 24  1  0
 24 25  1  0
 24 26  1  0
 19 27  1  0
 27 28  1  1
 27 29  1  0
 29 30  1  0
 30 31  1  0
 31 32  1  1
  7  5  1  0
 31 10  1  0
 31 13  1  0
 27 15  1  0
 24 18  1  0
  1 33  1  0
  1 34  1  0
  1 35  1  0
  2 36  1  1
  3 37  1  0
  3 38  1  0
  4 39  1  0
  4 40  1  0
  5 41  1  6
  8 42  1  0
  8 43  1  0
  8 44  1  0
  9 45  1  0
  9 46  1  0
  9 47  1  0
 10 48  1  6
 11 49  1  0
 11 50  1  0
 12 51  1  0
 12 52  1  0
 14 53  1  0
 14 54  1  0
 14 55  1  0
 15 56  1  1
 16 57  1  0
 16 58  1  0
 17 59  1  0
 19 60  1  6
 20 61  1  0
 20 62  1  0
 21 63  1  0
 21 64  1  0
 22 65  1  6
 23 66  1  0
 25 67  1  0
 25 68  1  0
 25 69  1  0
 26 70  1  0
 26 71  1  0
 26 72  1  0
 28 73  1  0
 28 74  1  0
 28 75  1  0
 29 76  1  0
 29 77  1  0
 30 78  1  0
 30 79  1  0
 32 80  1  0
 32 81  1  0
 32 82  1  0
M  END
>  <meeko>  (4) 
{"is_sidechain": [false], "intermolecular_energy": 2.731, "internal_energy": -0.839}

$$$$
EPH_relaxed_0001_pdb2pqr_Repair_290_r2_0001_out
     RDKit          3D

 82 86  0  0  0  0  0  0  0  0999 V2000
    2.7880   16.4980    0.6970 C   0  0  0  0  0  0  0  0  0  0  0  0
    2.4550   16.7630   -0.7740 C   0  0  2  0  0  0  0  0  0  0  0  0
    1.7970   18.1420   -0.9810 C   0  0  0  0  0  0  0  0  0  0  0  0
    1.5130   18.8900    0.3240 C   0  0  0  0  0  0  0  0  0  0  0  0
    0.3350   19.8080    0.1920 C   0  0  2  0  0  0  0  0  0  0  0  0
   -0.4160   19.9960    1.3980 O   0  0  0  0  0  0  0  0  0  0  0  0
   -1.1040   19.3450    0.3180 C   0  0  0  0  0  0  0  0  0  0  0  0
   -1.4430   17.9120    0.5870 C   0  0  0  0  0  0  0  0  0  0  0  0
   -2.1810   20.1810   -0.3010 C   0  0  0  0  0  0  0  0  0  0  0  0
    1.5410   15.6650   -1.3050 C   0  0  1  0  0  0  0  0  0  0  0  0
    0.9650   15.9940   -2.7080 C   0  0  0  0  0  0  0  0  0  0  0  0
    0.8600   14.6510   -3.4750 C   0  0  0  0  0  0  0  0  0  0  0  0
    1.0610   13.5660   -2.3910 C   0  0  1  0  0  0  0  0  0  0  0  0
   -0.3330   13.4250   -1.7020 C   0  0  0  0  0  0  0  0  0  0  0  0
    1.6010   12.1850   -2.8870 C   0  0  2  0  0  0  0  0  0  0  0  0
    0.6830   11.4410   -3.8730 C   0  0  0  0  0  0  0  0  0  0  0  0
   -0.3050   10.5130   -3.2480 C   0  0  0  0  0  0  0  0  0  0  0  0
   -0.2660   10.0680   -1.9780 C   0  0  0  0  0  0  0  0  0  0  0  0
    0.9070   10.4240   -1.0540 C   0  0  1  0  0  0  0  0  0  0  0  0
    1.3910    9.1480   -0.3170 C   0  0  0  0  0  0  0  0  0  0  0  0
    0.2630    8.4350    0.4210 C   0  0  0  0  0  0  0  0  0  0  0  0
   -0.8580    8.0460   -0.5400 C   0  0  2  0  0  0  0  0  0  0  0  0
   -0.3660    7.0500   -1.4420 O   0  0  0  0  0  0  0  0  0  0  0  0
   -1.4190    9.2500   -1.3460 C   0  0  0  0  0  0  0  0  0  0  0  0
   -2.2170   10.1830   -0.4020 C   0  0  0  0  0  0  0  0  0  0  0  0
   -2.4410    8.6990   -2.3770 C   0  0  0  0  0  0  0  0  0  0  0  0
    2.1000   11.2300   -1.7280 C   0  0  1  0  0  0  0  0  0  0  0  0
    3.1140   10.2370   -2.3740 C   0  0  0  0  0  0  0  0  0  0  0  0
    2.8900   12.0080   -0.6100 C   0  0  0  0  0  0  0  0  0  0  0  0
    2.3790   13.4150   -0.2490 C   0  0  0  0  0  0  0  0  0  0  0  0
    2.1610   14.2590   -1.5080 C   0  0  2  0  0  0  0  0  0  0  0  0
    3.5500   14.4370   -2.2120 C   0  0  0  0  0  0  0  0  0  0  0  0
    2.0882   17.0549    1.3374 H   0  0  0  0  0  0  0  0  0  0  0  0
    2.6982   15.4216    0.9051 H   0  0  0  0  0  0  0  0  0  0  0  0
    3.8168   16.8271    0.9051 H   0  0  0  0  0  0  0  0  0  0  0  0
    3.4021   16.7620   -1.3335 H   0  0  0  0  0  0  0  0  0  0  0  0
    2.4691   18.7588   -1.5957 H   0  0  0  0  0  0  0  0  0  0  0  0
    0.8267   17.9655   -1.4682 H   0  0  0  0  0  0  0  0  0  0  0  0
    1.3063   18.1567    1.1175 H   0  0  0  0  0  0  0  0  0  0  0  0
    2.3959   19.4983    0.5696 H   0  0  0  0  0  0  0  0  0  0  0  0
    0.8545   20.4027   -0.5738 H   0  0  0  0  0  0  0  0  0  0  0  0
   -1.4831   17.7424    1.6731 H   0  0  0  0  0  0  0  0  0  0  0  0
   -2.4215   17.6771    0.1428 H   0  0  0  0  0  0  0  0  0  0  0  0
   -0.6735   17.2635    0.1428 H   0  0  0  0  0  0  0  0  0  0  0  0
   -2.7834   20.6486    0.4917 H   0  0  0  0  0  0  0  0  0  0  0  0
   -1.7247   20.9638   -0.9247 H   0  0  0  0  0  0  0  0  0  0  0  0
   -2.8261   19.5448   -0.9247 H   0  0  0  0  0  0  0  0  0  0  0  0
    0.7985   15.6351   -0.4939 H   0  0  0  0  0  0  0  0  0  0  0  0
   -0.0297   16.4534   -2.6108 H   0  0  0  0  0  0  0  0  0  0  0  0
    1.6115   16.7049   -3.2434 H   0  0  0  0  0  0  0  0  0  0  0  0
   -0.1283   14.5497   -3.9473 H   0  0  0  0  0  0  0  0  0  0  0  0
    1.6005   14.5740   -4.2847 H   0  0  0  0  0  0  0  0  0  0  0  0
   -0.2050   13.4379   -0.6095 H   0  0  0  0  0  0  0  0  0  0  0  0
   -0.9784   14.2624   -2.0055 H   0  0  0  0  0  0  0  0  0  0  0  0
   -0.7976   12.4753   -2.0055 H   0  0  0  0  0  0  0  0  0  0  0  0
    2.4898   12.4739   -3.4671 H   0  0  0  0  0  0  0  0  0  0  0  0
    0.1251   12.1924   -4.4510 H   0  0  0  0  0  0  0  0  0  0  0  0
    1.3434   10.8127   -4.4887 H   0  0  0  0  0  0  0  0  0  0  0  0
   -1.1355   10.1630   -3.8787 H   0  0  0  0  0  0  0  0  0  0  0  0
    0.5125   11.1480   -0.3259 H   0  0  0  0  0  0  0  0  0  0  0  0
    1.8215    8.4561   -1.0558 H   0  0  0  0  0  0  0  0  0  0  0  0
    2.1361    9.4570    0.4309 H   0  0  0  0  0  0  0  0  0  0  0  0
    0.6615    7.5263    0.8959 H   0  0  0  0  0  0  0  0  0  0  0  0
   -0.1465    9.1179    1.1799 H   0  0  0  0  0  0  0  0  0  0  0  0
   -1.6914    7.6581    0.0642 H   0  0  0  0  0  0  0  0  0  0  0  0
   -0.8920    6.2440   -1.3050 H   0  0  0  0  0  0  0  0  0  0  0  0
   -1.9950    9.9235    0.6437 H   0  0  0  0  0  0  0  0  0  0  0  0
   -1.9288   11.2279   -0.5896 H   0  0  0  0  0  0  0  0  0  0  0  0
   -3.2939   10.0603   -0.5896 H   0  0  0  0  0  0  0  0  0  0  0  0
   -3.2885    8.2421   -1.8450 H   0  0  0  0  0  0  0  0  0  0  0  0
   -2.8055    9.5228   -3.0082 H   0  0  0  0  0  0  0  0  0  0  0  0
   -1.9530    7.9417   -3.0082 H   0  0  0  0  0  0  0  0  0  0  0  0
    3.6594    9.7029   -1.5820 H   0  0  0  0  0  0  0  0  0  0  0  0
    2.5705    9.5121   -2.9979 H   0  0  0  0  0  0  0  0  0  0  0  0
    3.8274   10.7955   -2.9979 H   0  0  0  0  0  0  0  0  0  0  0  0
    2.8590   11.3980    0.3048 H   0  0  0  0  0  0  0  0  0  0  0  0
    3.8962   12.1655   -1.0257 H   0  0  0  0  0  0  0  0  0  0  0  0
    1.4258   13.3237    0.2924 H   0  0  0  0  0  0  0  0  0  0  0  0
    3.1330   13.9113    0.3796 H   0  0  0  0  0  0  0  0  0  0  0  0
    4.3370   14.5379   -1.4501 H   0  0  0  0  0  0  0  0  0  0  0  0
    3.7581   13.5582   -2.8400 H   0  0  0  0  0  0  0  0  0  0  0  0
    3.5298   15.3399   -2.8400 H   0  0  0  0  0  0  0  0  0  0  0  0
  1  2  1  0
  2  3  1  0
  3  4  1  0
  4  5  1  0
  5  6  1  0
  6  7  1  0
  7  8  1  0
  7  9  1  0
  2 10  1  0
 10 11  1  0
 11 12  1  0
 12 13  1  0
 13 14  1  1
 13 15  1  0
 15 16  1  0
 16 17  1  0
 17 18  2  0
 18 19  1  0
 19 20  1  0
 20 21  1  0
 21 22  1  0
 22 23  1  0
 22 24  1  0
 24 25  1  0
 24 26  1  0
 19 27  1  0
 27 28  1  6
 27 29  1  0
 29 30  1  0
 30 31  1  0
 31 32  1  6
  7  5  1  0
 31 10  1  0
 31 13  1  0
 27 15  1  0
 24 18  1  0
  1 33  1  0
  1 34  1  0
  1 35  1  0
  2 36  1  6
  3 37  1  0
  3 38  1  0
  4 39  1  0
  4 40  1  0
  5 41  1  6
  8 42  1  0
  8 43  1  0
  8 44  1  0
  9 45  1  0
  9 46  1  0
  9 47  1  0
 10 48  1  1
 11 49  1  0
 11 50  1  0
 12 51  1  0
 12 52  1  0
 14 53  1  0
 14 54  1  0
 14 55  1  0
 15 56  1  6
 16 57  1  0
 16 58  1  0
 17 59  1  0
 19 60  1  1
 20 61  1  0
 20 62  1  0
 21 63  1  0
 21 64  1  0
 22 65  1  1
 23 66  1  0
 25 67  1  0
 25 68  1  0
 25 69  1  0
 26 70  1  0
 26 71  1  0
 26 72  1  0
 28 73  1  0
 28 74  1  0
 28 75  1  0
 29 76  1  0
 29 77  1  0
 30 78  1  0
 30 79  1  0
 32 80  1  0
 32 81  1  0
 32 82  1  0
M  END
>  <meeko>  (5) 
{"is_sidechain": [false], "intermolecular_energy": 2.731, "internal_energy": -0.839}

$$$$
EPH_relaxed_0001_pdb2pqr_Repair_290_r2_0001_out
     RDKit          3D

 82 86  0  0  0  0  0  0  0  0999 V2000
   -4.1240    7.4540   -3.7120 C   0  0  0  0  0  0  0  0  0  0  0  0
   -3.6830    7.2950   -2.2550 C   0  0  2  0  0  0  0  0  0  0  0  0
   -4.8200    6.7620   -1.3590 C   0  0  0  0  0  0  0  0  0  0  0  0
   -6.1580    6.6130   -2.0870 C   0  0  0  0  0  0  0  0  0  0  0  0
   -7.2950    6.4370   -1.1260 C   0  0  2  0  0  0  0  0  0  0  0  0
   -8.3730    5.6300   -1.6160 O   0  0  0  0  0  0  0  0  0  0  0  0
   -8.6810    7.0090   -1.3570 C   0  0  0  0  0  0  0  0  0  0  0  0
   -9.0040    7.8010   -2.5860 C   0  0  0  0  0  0  0  0  0  0  0  0
   -9.5760    7.2160   -0.1750 C   0  0  0  0  0  0  0  0  0  0  0  0
   -3.1770    8.6280   -1.7160 C   0  0  1  0  0  0  0  0  0  0  0  0
   -3.8570    9.0300   -0.3800 C   0  0  0  0  0  0  0  0  0  0  0  0
   -2.7840    9.7660    0.4630 C   0  0  0  0  0  0  0  0  0  0  0  0
   -1.6360   10.0560   -0.5320 C   0  0  1  0  0  0  0  0  0  0  0  0
   -2.0880   11.3350   -1.3040 C   0  0  0  0  0  0  0  0  0  0  0  0
   -0.2110   10.2290    0.0890 C   0  0  2  0  0  0  0  0  0  0  0  0
   -0.0600   11.4160    1.0560 C   0  0  0  0  0  0  0  0  0  0  0  0
    0.3640   12.7010    0.4260 C   0  0  0  0  0  0  0  0  0  0  0  0
    0.8880   12.8330   -0.8060 C   0  0  0  0  0  0  0  0  0  0  0  0
    1.1920   11.6010   -1.6690 C   0  0  1  0  0  0  0  0  0  0  0  0
    2.6080   11.7380   -2.2870 C   0  0  0  0  0  0  0  0  0  0  0  0
    2.7890   13.0450   -3.0530 C   0  0  0  0  0  0  0  0  0  0  0  0
    2.5350   14.2470   -2.1470 C   0  0  2  0  0  0  0  0  0  0  0  0
    3.5610   14.2980   -1.1510 O   0  0  0  0  0  0  0  0  0  0  0  0
    1.1410   14.2140   -1.4600 C   0  0  0  0  0  0  0  0  0  0  0  0
    0.0350   14.4620   -2.5150 C   0  0  0  0  0  0  0  0  0  0  0  0
    1.0690   15.4050   -0.4680 C   0  0  0  0  0  0  0  0  0  0  0  0
    0.9650   10.1920   -0.9690 C   0  0  1  0  0  0  0  0  0  0  0  0
    2.2500    9.7700   -0.1920 C   0  0  0  0  0  0  0  0  0  0  0  0
    0.7380    9.0980   -2.0790 C   0  0  0  0  0  0  0  0  0  0  0  0
   -0.7090    8.8910   -2.5650 C   0  0  0  0  0  0  0  0  0  0  0  0
   -1.6680    8.7330   -1.3810 C   0  0  2  0  0  0  0  0  0  0  0  0
   -1.2520    7.4410   -0.5980 C   0  0  0  0  0  0  0  0  0  0  0  0
   -5.1584    7.8269   -3.7434 H   0  0  0  0  0  0  0  0  0  0  0  0
   -3.4607    8.1696   -4.2199 H   0  0  0  0  0  0  0  0  0  0  0  0
   -4.0699    6.4798   -4.2199 H   0  0  0  0  0  0  0  0  0  0  0  0
   -2.8708    6.5535   -2.2345 H   0  0  0  0  0  0  0  0  0  0  0  0
   -4.5237    5.7761   -0.9715 H   0  0  0  0  0  0  0  0  0  0  0  0
   -4.9705    7.4999   -0.5572 H   0  0  0  0  0  0  0  0  0  0  0  0
   -6.3378    7.5147   -2.6908 H   0  0  0  0  0  0  0  0  0  0  0  0
   -6.1046    5.7172   -2.7231 H   0  0  0  0  0  0  0  0  0  0  0  0
   -6.6090    6.4890   -0.2677 H   0  0  0  0  0  0  0  0  0  0  0  0
   -9.4045    8.7831   -2.2945 H   0  0  0  0  0  0  0  0  0  0  0  0
   -8.0907    7.9400   -3.1832 H   0  0  0  0  0  0  0  0  0  0  0  0
   -9.7540    7.2617   -3.1832 H   0  0  0  0  0  0  0  0  0  0  0  0
   -8.9974    7.0822    0.7509 H   0  0  0  0  0  0  0  0  0  0  0  0
   -9.9917    8.2340   -0.2037 H   0  0  0  0  0  0  0  0  0  0  0  0
  -10.3965    6.4839   -0.2037 H   0  0  0  0  0  0  0  0  0  0  0  0
   -3.4182    9.2758   -2.5716 H   0  0  0  0  0  0  0  0  0  0  0  0
   -4.7096    9.6973   -0.5745 H   0  0  0  0  0  0  0  0  0  0  0  0
   -4.2389    8.1456    0.1511 H   0  0  0  0  0  0  0  0  0  0  0  0
   -3.1882   10.7032    0.8731 H   0  0  0  0  0  0  0  0  0  0  0  0
   -2.4486    9.1689    1.3238 H   0  0  0  0  0  0  0  0  0  0  0  0
   -2.3651   12.1191   -0.5840 H   0  0  0  0  0  0  0  0  0  0  0  0
   -1.2619   11.6929   -1.9360 H   0  0  0  0  0  0  0  0  0  0  0  0
   -2.9555   11.0944   -1.9360 H   0  0  0  0  0  0  0  0  0  0  0  0
   -0.1122    9.3254    0.7085 H   0  0  0  0  0  0  0  0  0  0  0  0
   -1.0311   11.5815    1.5454 H   0  0  0  0  0  0  0  0  0  0  0  0
    0.7436   11.1395    1.7544 H   0  0  0  0  0  0  0  0  0  0  0  0
    0.2372   13.6183    1.0197 H   0  0  0  0  0  0  0  0  0  0  0  0
    0.4358   11.5947   -2.4678 H   0  0  0  0  0  0  0  0  0  0  0  0
    3.3514   11.6982   -1.4772 H   0  0  0  0  0  0  0  0  0  0  0  0
    2.7417   10.9118   -3.0008 H   0  0  0  0  0  0  0  0  0  0  0  0
    3.8175   13.0964   -3.4396 H   0  0  0  0  0  0  0  0  0  0  0  0
    2.0655   13.0701   -3.8812 H   0  0  0  0  0  0  0  0  0  0  0  0
    2.5505   15.1462   -2.7804 H   0  0  0  0  0  0  0  0  0  0  0  0
    4.2830   13.7160   -1.4420 H   0  0  0  0  0  0  0  0  0  0  0  0
   -0.9164   14.6753   -2.0057 H   0  0  0  0  0  0  0  0  0  0  0  0
    0.3144   15.3198   -3.1444 H   0  0  0  0  0  0  0  0  0  0  0  0
   -0.0787   13.5670   -3.1444 H   0  0  0  0  0  0  0  0  0  0  0  0
    1.0920   15.0246    0.5639 H   0  0  0  0  0  0  0  0  0  0  0  0
    1.9285   16.0715   -0.6323 H   0  0  0  0  0  0  0  0  0  0  0  0
    0.1355   15.9631   -0.6323 H   0  0  0  0  0  0  0  0  0  0  0  0
    2.0612    9.8320    0.8899 H   0  0  0  0  0  0  0  0  0  0  0  0
    2.5172    8.7369   -0.4590 H   0  0  0  0  0  0  0  0  0  0  0  0
    3.0777   10.4435   -0.4590 H   0  0  0  0  0  0  0  0  0  0  0  0
    1.3453    9.3789   -2.9521 H   0  0  0  0  0  0  0  0  0  0  0  0
    1.0219    8.1459   -1.6069 H   0  0  0  0  0  0  0  0  0  0  0  0
   -1.0158    9.7619   -3.1628 H   0  0  0  0  0  0  0  0  0  0  0  0
   -0.7473    7.9744   -3.1720 H   0  0  0  0  0  0  0  0  0  0  0  0
   -1.3135    7.6320    0.4836 H   0  0  0  0  0  0  0  0  0  0  0  0
   -1.9302    6.6168   -0.8639 H   0  0  0  0  0  0  0  0  0  0  0  0
   -0.2203    7.1673   -0.8639 H   0  0  0  0  0  0  0  0  0  0  0  0
  1  2  1  0
  2  3  1  0
  3  4  1  0
  4  5  1  0
  5  6  1  0
  6  7  1  0
  7  8  1  0
  7  9  1  0
  2 10  1  0
 10 11  1  0
 11 12  1  0
 12 13  1  0
 13 14  1  6
 13 15  1  0
 15 16  1  0
 16 17  1  0
 17 18  2  0
 18 19  1  0
 19 20  1  0
 20 21  1  0
 21 22  1  0
 22 23  1  0
 22 24  1  0
 24 25  1  0
 24 26  1  0
 19 27  1  0
 27 28  1  1
 27 29  1  0
 29 30  1  0
 30 31  1  0
 31 32  1  1
  7  5  1  0
 31 10  1  0
 31 13  1  0
 27 15  1  0
 24 18  1  0
  1 33  1  0
  1 34  1  0
  1 35  1  0
  2 36  1  6
  3 37  1  0
  3 38  1  0
  4 39  1  0
  4 40  1  0
  5 41  1  1
  8 42  1  0
  8 43  1  0
  8 44  1  0
  9 45  1  0
  9 46  1  0
  9 47  1  0
 10 48  1  6
 11 49  1  0
 11 50  1  0
 12 51  1  0
 12 52  1  0
 14 53  1  0
 14 54  1  0
 14 55  1  0
 15 56  1  1
 16 57  1  0
 16 58  1  0
 17 59  1  0
 19 60  1  6
 20 61  1  0
 20 62  1  0
 21 63  1  0
 21 64  1  0
 22 65  1  6
 23 66  1  0
 25 67  1  0
 25 68  1  0
 25 69  1  0
 26 70  1  0
 26 71  1  0
 26 72  1  0
 28 73  1  0
 28 74  1  0
 28 75  1  0
 29 76  1  0
 29 77  1  0
 30 78  1  0
 30 79  1  0
 32 80  1  0
 32 81  1  0
 32 82  1  0
M  END
>  <meeko>  (6) 
{"is_sidechain": [false], "intermolecular_energy": 2.731, "internal_energy": -0.839}

$$$$
EPH_relaxed_0001_pdb2pqr_Repair_290_r2_0001_out
     RDKit          3D

 82 86  0  0  0  0  0  0  0  0999 V2000
   -0.3190   15.4890   -7.3220 C   0  0  0  0  0  0  0  0  0  0  0  0
    1.0890   15.3080   -6.7480 C   0  0  2  0  0  0  0  0  0  0  0  0
    2.1780   15.4170   -7.8340 C   0  0  0  0  0  0  0  0  0  0  0  0
    2.0430   16.6590   -8.7190 C   0  0  0  0  0  0  0  0  0  0  0  0
    1.5970   16.3060  -10.1050 C   0  0  2  0  0  0  0  0  0  0  0  0
    1.0410   14.9910  -10.2390 O   0  0  0  0  0  0  0  0  0  0  0  0
    2.2640   15.2380  -10.9520 C   0  0  0  0  0  0  0  0  0  0  0  0
    3.4340   14.4560  -10.4430 C   0  0  0  0  0  0  0  0  0  0  0  0
    2.0940   15.2930  -12.4380 C   0  0  0  0  0  0  0  0  0  0  0  0
    1.1930   13.9620   -6.0400 C   0  0  1  0  0  0  0  0  0  0  0  0
    2.5770   13.2880   -6.2360 C   0  0  0  0  0  0  0  0  0  0  0  0
    2.8990   12.5360   -4.9190 C   0  0  0  0  0  0  0  0  0  0  0  0
    1.5620   12.5210   -4.1420 C   0  0  1  0  0  0  0  0  0  0  0  0
    0.7490   11.3430   -4.7640 C   0  0  0  0  0  0  0  0  0  0  0  0
    1.6680   12.3920   -2.5870 C   0  0  2  0  0  0  0  0  0  0  0  0
    2.3080   11.0860   -2.0830 C   0  0  0  0  0  0  0  0  0  0  0  0
    1.3560    9.9650   -1.8300 C   0  0  0  0  0  0  0  0  0  0  0  0
    0.0190   10.0830   -1.7270 C   0  0  0  0  0  0  0  0  0  0  0  0
   -0.6570   11.4590   -1.7690 C   0  0  1  0  0  0  0  0  0  0  0  0
   -1.6970   11.5610   -0.6220 C   0  0  0  0  0  0  0  0  0  0  0  0
   -2.7050   10.4160   -0.6440 C   0  0  0  0  0  0  0  0  0  0  0  0
   -1.9990    9.0660   -0.5420 C   0  0  2  0  0  0  0  0  0  0  0  0
   -1.3970    8.9580    0.7520 O   0  0  0  0  0  0  0  0  0  0  0  0
   -0.9200    8.8540   -1.6400 C   0  0  0  0  0  0  0  0  0  0  0  0
   -1.6080    8.6700   -3.0160 C   0  0  0  0  0  0  0  0  0  0  0  0
   -0.1880    7.5190   -1.3390 C   0  0  0  0  0  0  0  0  0  0  0  0
    0.3220   12.7100   -1.8170 C   0  0  1  0  0  0  0  0  0  0  0  0
    0.7260   13.1260   -0.3690 C   0  0  0  0  0  0  0  0  0  0  0  0
   -0.4440   13.9390   -2.4350 C   0  0  0  0  0  0  0  0  0  0  0  0
   -0.4110   14.0790   -3.9690 C   0  0  0  0  0  0  0  0  0  0  0  0
    1.0190   13.9530   -4.5000 C   0  0  2  0  0  0  0  0  0  0  0  0
    1.8560   15.1380   -3.9090 C   0  0  0  0  0  0  0  0  0  0  0  0
   -1.0417   15.5819   -6.4980 H   0  0  0  0  0  0  0  0  0  0  0  0
   -0.3488   16.3984   -7.9402 H   0  0  0  0  0  0  0  0  0  0  0  0
   -0.5779   14.6167   -7.9402 H   0  0  0  0  0  0  0  0  0  0  0  0
    1.2589   16.1215   -6.0274 H   0  0  0  0  0  0  0  0  0  0  0  0
    3.1599   15.4483   -7.3392 H   0  0  0  0  0  0  0  0  0  0  0  0
    2.0662   14.5412   -8.4902 H   0  0  0  0  0  0  0  0  0  0  0  0
    1.3044   17.3387   -8.2691 H   0  0  0  0  0  0  0  0  0  0  0  0
    3.0300   17.1395   -8.7884 H   0  0  0  0  0  0  0  0  0  0  0  0
    1.3327   17.3535  -10.3119 H   0  0  0  0  0  0  0  0  0  0  0  0
    3.4274   14.4604   -9.3430 H   0  0  0  0  0  0  0  0  0  0  0  0
    3.3682   13.4197  -10.8059 H   0  0  0  0  0  0  0  0  0  0  0  0
    4.3664   14.9131  -10.8059 H   0  0  0  0  0  0  0  0  0  0  0  0
    1.0727   15.6234  -12.6782 H   0  0  0  0  0  0  0  0  0  0  0  0
    2.8187   16.0025  -12.8639 H   0  0  0  0  0  0  0  0  0  0  0  0
    2.2657   14.2935  -12.8639 H   0  0  0  0  0  0  0  0  0  0  0  0
    0.3514   13.4381   -6.5167 H   0  0  0  0  0  0  0  0  0  0  0  0
    2.5377   12.5797   -7.0767 H   0  0  0  0  0  0  0  0  0  0  0  0
    3.3515   14.0353   -6.4635 H   0  0  0  0  0  0  0  0  0  0  0  0
    3.2372   11.5107   -5.1299 H   0  0  0  0  0  0  0  0  0  0  0  0
    3.7071   13.0186   -4.3497 H   0  0  0  0  0  0  0  0  0  0  0  0
    0.3232   10.7260   -3.9590 H   0  0  0  0  0  0  0  0  0  0  0  0
   -0.0638   11.7465   -5.3857 H   0  0  0  0  0  0  0  0  0  0  0  0
    1.4146   10.7262   -5.3857 H   0  0  0  0  0  0  0  0  0  0  0  0
    2.3788   13.1917   -2.3317 H   0  0  0  0  0  0  0  0  0  0  0  0
    3.0349   10.7507   -2.8374 H   0  0  0  0  0  0  0  0  0  0  0  0
    2.7612   11.3254   -1.1097 H   0  0  0  0  0  0  0  0  0  0  0  0
    1.7828    8.9573   -1.7183 H   0  0  0  0  0  0  0  0  0  0  0  0
   -1.1675   11.5175   -2.7416 H   0  0  0  0  0  0  0  0  0  0  0  0
   -1.1640   11.5434    0.3401 H   0  0  0  0  0  0  0  0  0  0  0  0
   -2.2542   12.4996   -0.7584 H   0  0  0  0  0  0  0  0  0  0  0  0
   -3.3945   10.5269    0.2059 H   0  0  0  0  0  0  0  0  0  0  0  0
   -3.2575   10.4526   -1.5945 H   0  0  0  0  0  0  0  0  0  0  0  0
   -2.7578    8.2843   -0.6940 H   0  0  0  0  0  0  0  0  0  0  0  0
   -0.4350    9.0410    0.6360 H   0  0  0  0  0  0  0  0  0  0  0  0
   -2.6606    8.3885   -2.8649 H   0  0  0  0  0  0  0  0  0  0  0  0
   -1.5580    9.6131   -3.5800 H   0  0  0  0  0  0  0  0  0  0  0  0
   -1.0939    7.8778   -3.5800 H   0  0  0  0  0  0  0  0  0  0  0  0
   -0.1118    7.3800   -0.2505 H   0  0  0  0  0  0  0  0  0  0  0  0
   -0.7542    6.6836   -1.7766 H   0  0  0  0  0  0  0  0  0  0  0  0
    0.8208    7.5472   -1.7766 H   0  0  0  0  0  0  0  0  0  0  0  0
    0.1502   12.5331    0.3569 H   0  0  0  0  0  0  0  0  0  0  0  0
    1.8006   12.9434   -0.2214 H   0  0  0  0  0  0  0  0  0  0  0  0
    0.5120   14.1948   -0.2214 H   0  0  0  0  0  0  0  0  0  0  0  0
   -1.4982   13.8612   -2.1307 H   0  0  0  0  0  0  0  0  0  0  0  0
    0.0819   14.8268   -2.0539 H   0  0  0  0  0  0  0  0  0  0  0  0
   -1.0318   13.2885   -4.4159 H   0  0  0  0  0  0  0  0  0  0  0  0
   -0.7991   15.0722   -4.2390 H   0  0  0  0  0  0  0  0  0  0  0  0
    1.8262   15.0958   -2.8102 H   0  0  0  0  0  0  0  0  0  0  0  0
    2.8984   15.0570   -4.2509 H   0  0  0  0  0  0  0  0  0  0  0  0
    1.4312   16.0933   -4.2509 H   0  0  0  0  0  0  0  0  0  0  0  0
  1  2  1  0
  2  3  1  0
  3  4  1  0
  4  5  1  0
  5  6  1  0
  6  7  1  0
  7  8  1  0
  7  9  1  0
  2 10  1  0
 10 11  1  0
 11 12  1  0
 12 13  1  0
 13 14  1  6
 13 15  1  0
 15 16  1  0
 16 17  1  0
 17 18  2  0
 18 19  1  0
 19 20  1  0
 20 21  1  0
 21 22  1  0
 22 23  1  0
 22 24  1  0
 24 25  1  0
 24 26  1  0
 19 27  1  0
 27 28  1  1
 27 29  1  0
 29 30  1  0
 30 31  1  0
 31 32  1  1
  7  5  1  0
 31 10  1  0
 31 13  1  0
 27 15  1  0
 24 18  1  0
  1 33  1  0
  1 34  1  0
  1 35  1  0
  2 36  1  1
  3 37  1  0
  3 38  1  0
  4 39  1  0
  4 40  1  0
  5 41  1  6
  8 42  1  0
  8 43  1  0
  8 44  1  0
  9 45  1  0
  9 46  1  0
  9 47  1  0
 10 48  1  6
 11 49  1  0
 11 50  1  0
 12 51  1  0
 12 52  1  0
 14 53  1  0
 14 54  1  0
 14 55  1  0
 15 56  1  1
 16 57  1  0
 16 58  1  0
 17 59  1  0
 19 60  1  6
 20 61  1  0
 20 62  1  0
 21 63  1  0
 21 64  1  0
 22 65  1  1
 23 66  1  0
 25 67  1  0
 25 68  1  0
 25 69  1  0
 26 70  1  0
 26 71  1  0
 26 72  1  0
 28 73  1  0
 28 74  1  0
 28 75  1  0
 29 76  1  0
 29 77  1  0
 30 78  1  0
 30 79  1  0
 32 80  1  0
 32 81  1  0
 32 82  1  0
M  END
>  <meeko>  (7) 
{"is_sidechain": [false], "intermolecular_energy": 2.731, "internal_energy": -0.839}

$$$$
EPH_relaxed_0001_pdb2pqr_Repair_290_r2_0001_out
     RDKit          3D

 82 86  0  0  0  0  0  0  0  0999 V2000
    0.9380   14.8420   -2.6560 C   0  0  0  0  0  0  0  0  0  0  0  0
    1.1770   14.1770   -4.0140 C   0  0  2  0  0  0  0  0  0  0  0  0
    0.4660   14.9250   -5.1600 C   0  0  0  0  0  0  0  0  0  0  0  0
    1.0840   14.6710   -6.5370 C   0  0  0  0  0  0  0  0  0  0  0  0
    0.8500   15.8210   -7.4700 C   0  0  2  0  0  0  0  0  0  0  0  0
    0.4090   15.4480   -8.7820 O   0  0  0  0  0  0  0  0  0  0  0  0
    1.6950   16.0840   -8.7030 C   0  0  0  0  0  0  0  0  0  0  0  0
    2.8390   15.1910   -9.0700 C   0  0  0  0  0  0  0  0  0  0  0  0
    1.7190   17.4680   -9.2720 C   0  0  0  0  0  0  0  0  0  0  0  0
    0.7120   12.7260   -3.9710 C   0  0  1  0  0  0  0  0  0  0  0  0
    1.8270   11.7290   -4.3880 C   0  0  0  0  0  0  0  0  0  0  0  0
    1.6300   10.4540   -3.5280 C   0  0  0  0  0  0  0  0  0  0  0  0
    0.2300   10.6240   -2.8930 C   0  0  1  0  0  0  0  0  0  0  0  0
   -0.7710   10.1800   -4.0050 C   0  0  0  0  0  0  0  0  0  0  0  0
   -0.0180    9.8570   -1.5530 C   0  0  2  0  0  0  0  0  0  0  0  0
    0.0690    8.3240   -1.6530 C   0  0  0  0  0  0  0  0  0  0  0  0
   -1.2170    7.6310   -1.9620 C   0  0  0  0  0  0  0  0  0  0  0  0
   -2.4420    8.1800   -1.8720 C   0  0  0  0  0  0  0  0  0  0  0  0
   -2.6310    9.6020   -1.3280 C   0  0  1  0  0  0  0  0  0  0  0  0
   -3.7920    9.6130   -0.2990 C   0  0  0  0  0  0  0  0  0  0  0  0
   -5.0820    9.0300   -0.8670 C   0  0  0  0  0  0  0  0  0  0  0  0
   -4.8690    7.5950   -1.3430 C   0  0  2  0  0  0  0  0  0  0  0  0
   -4.5980    6.7680   -0.2080 O   0  0  0  0  0  0  0  0  0  0  0  0
   -3.7160    7.4580   -2.3770 C   0  0  0  0  0  0  0  0  0  0  0  0
   -4.1410    8.1040   -3.7190 C   0  0  0  0  0  0  0  0  0  0  0  0
   -3.5130    5.9470   -2.6680 C   0  0  0  0  0  0  0  0  0  0  0  0
   -1.3200   10.3130   -0.7780 C   0  0  1  0  0  0  0  0  0  0  0  0
   -1.1010    9.9370    0.7200 C   0  0  0  0  0  0  0  0  0  0  0  0
   -1.5260   11.8730   -0.8190 C   0  0  0  0  0  0  0  0  0  0  0  0
   -1.1500   12.5890   -2.1300 C   0  0  0  0  0  0  0  0  0  0  0  0
    0.2450   12.1690   -2.6030 C   0  0  2  0  0  0  0  0  0  0  0  0
    1.2770   12.6220   -1.5140 C   0  0  0  0  0  0  0  0  0  0  0  0
    1.1919   14.1355   -1.8520 H   0  0  0  0  0  0  0  0  0  0  0  0
    1.5704   15.7379   -2.5701 H   0  0  0  0  0  0  0  0  0  0  0  0
   -0.1200   15.1304   -2.5701 H   0  0  0  0  0  0  0  0  0  0  0  0
    2.2577   14.2151   -4.2158 H   0  0  0  0  0  0  0  0  0  0  0  0
   -0.5851   14.6019   -5.1861 H   0  0  0  0  0  0  0  0  0  0  0  0
    0.5694   16.0007   -4.9547 H   0  0  0  0  0  0  0  0  0  0  0  0
    2.1675   14.5219   -6.4195 H   0  0  0  0  0  0  0  0  0  0  0  0
    0.6078   13.7777   -6.9673 H   0  0  0  0  0  0  0  0  0  0  0  0
    0.5435   16.4669   -6.6340 H   0  0  0  0  0  0  0  0  0  0  0  0
    3.3196   14.8158   -8.1545 H   0  0  0  0  0  0  0  0  0  0  0  0
    2.4664   14.3425   -9.6626 H   0  0  0  0  0  0  0  0  0  0  0  0
    3.5717   15.7585   -9.6626 H   0  0  0  0  0  0  0  0  0  0  0  0
    1.7317   18.2013   -8.4522 H   0  0  0  0  0  0  0  0  0  0  0  0
    2.6195   17.5944   -9.8910 H   0  0  0  0  0  0  0  0  0  0  0  0
    0.8235   17.6255   -9.8910 H   0  0  0  0  0  0  0  0  0  0  0  0
   -0.1405   12.7847   -4.6636 H   0  0  0  0  0  0  0  0  0  0  0  0
    1.7356   11.4834   -5.4563 H   0  0  0  0  0  0  0  0  0  0  0  0
    2.8252   12.1629   -4.2288 H   0  0  0  0  0  0  0  0  0  0  0  0
    1.6642    9.5522   -4.1570 H   0  0  0  0  0  0  0  0  0  0  0  0
    2.4195   10.3352   -2.7714 H   0  0  0  0  0  0  0  0  0  0  0  0
   -1.6817    9.7761   -3.5386 H   0  0  0  0  0  0  0  0  0  0  0  0
   -1.0326   11.0465   -4.6301 H   0  0  0  0  0  0  0  0  0  0  0  0
   -0.3043    9.4045   -4.6301 H   0  0  0  0  0  0  0  0  0  0  0  0
    0.8426   10.1652   -0.9411 H   0  0  0  0  0  0  0  0  0  0  0  0
    0.7884    8.0755   -2.4472 H   0  0  0  0  0  0  0  0  0  0  0  0
    0.3732    7.9708   -0.6567 H   0  0  0  0  0  0  0  0  0  0  0  0
   -1.1578    6.5830   -2.2910 H   0  0  0  0  0  0  0  0  0  0  0  0
   -2.8950   10.2269   -2.1939 H   0  0  0  0  0  0  0  0  0  0  0  0
   -3.4924    9.0192    0.5771 H   0  0  0  0  0  0  0  0  0  0  0  0
   -3.9894   10.6610   -0.0293 H   0  0  0  0  0  0  0  0  0  0  0  0
   -5.8559    9.0389   -0.0853 H   0  0  0  0  0  0  0  0  0  0  0  0
   -5.3956    9.6419   -1.7256 H   0  0  0  0  0  0  0  0  0  0  0  0
   -5.7893    7.2770   -1.8549 H   0  0  0  0  0  0  0  0  0  0  0  0
   -3.7130    6.9990    0.1200 H   0  0  0  0  0  0  0  0  0  0  0  0
   -4.7355    9.0076   -3.5189 H   0  0  0  0  0  0  0  0  0  0  0  0
   -3.2443    8.3752   -4.2956 H   0  0  0  0  0  0  0  0  0  0  0  0
   -4.7450    7.3879   -4.2956 H   0  0  0  0  0  0  0  0  0  0  0  0
   -3.4392    5.3973   -1.7180 H   0  0  0  0  0  0  0  0  0  0  0  0
   -4.3681    5.5668   -3.2461 H   0  0  0  0  0  0  0  0  0  0  0  0
   -2.5878    5.8060   -3.2461 H   0  0  0  0  0  0  0  0  0  0  0  0
   -1.5508   10.7092    1.3614 H   0  0  0  0  0  0  0  0  0  0  0  0
   -1.5750    8.9663    0.9275 H   0  0  0  0  0  0  0  0  0  0  0  0
   -0.0228    9.8704    0.9275 H   0  0  0  0  0  0  0  0  0  0  0  0
   -2.5898   12.0734   -0.6236 H   0  0  0  0  0  0  0  0  0  0  0  0
   -0.8349   12.2745   -0.0633 H   0  0  0  0  0  0  0  0  0  0  0  0
   -1.8860   12.3301   -2.9054 H   0  0  0  0  0  0  0  0  0  0  0  0
   -1.1472   13.6740   -1.9489 H   0  0  0  0  0  0  0  0  0  0  0  0
    0.8586   12.4383   -0.5134 H   0  0  0  0  0  0  0  0  0  0  0  0
    2.2094   12.0504   -1.6321 H   0  0  0  0  0  0  0  0  0  0  0  0
    1.4874   13.6952   -1.6321 H   0  0  0  0  0  0  0  0  0  0  0  0
  1  2  1  0
  2  3  1  0
  3  4  1  0
  4  5  1  0
  5  6  1  0
  6  7  1  0
  7  8  1  0
  7  9  1  0
  2 10  1  0
 10 11  1  0
 11 12  1  0
 12 13  1  0
 13 14  1  6
 13 15  1  0
 15 16  1  0
 16 17  1  0
 17 18  2  0
 18 19  1  0
 19 20  1  0
 20 21  1  0
 21 22  1  0
 22 23  1  0
 22 24  1  0
 24 25  1  0
 24 26  1  0
 19 27  1  0
 27 28  1  1
 27 29  1  0
 29 30  1  0
 30 31  1  0
 31 32  1  1
  7  5  1  0
 31 10  1  0
 31 13  1  0
 27 15  1  0
 24 18  1  0
  1 33  1  0
  1 34  1  0
  1 35  1  0
  2 36  1  6
  3 37  1  0
  3 38  1  0
  4 39  1  0
  4 40  1  0
  5 41  1  1
  8 42  1  0
  8 43  1  0
  8 44  1  0
  9 45  1  0
  9 46  1  0
  9 47  1  0
 10 48  1  6
 11 49  1  0
 11 50  1  0
 12 51  1  0
 12 52  1  0
 14 53  1  0
 14 54  1  0
 14 55  1  0
 15 56  1  1
 16 57  1  0
 16 58  1  0
 17 59  1  0
 19 60  1  6
 20 61  1  0
 20 62  1  0
 21 63  1  0
 21 64  1  0
 22 65  1  6
 23 66  1  0
 25 67  1  0
 25 68  1  0
 25 69  1  0
 26 70  1  0
 26 71  1  0
 26 72  1  0
 28 73  1  0
 28 74  1  0
 28 75  1  0
 29 76  1  0
 29 77  1  0
 30 78  1  0
 30 79  1  0
 32 80  1  0
 32 81  1  0
 32 82  1  0
M  END
>  <meeko>  (8) 
{"is_sidechain": [false], "intermolecular_energy": 2.731, "internal_energy": -0.839}

$$$$
EPH_relaxed_0001_pdb2pqr_Repair_290_r2_0001_out
     RDKit          3D

 82 86  0  0  0  0  0  0  0  0999 V2000
   -2.1460    7.9460   -2.2140 C   0  0  0  0  0  0  0  0  0  0  0  0
   -2.0400    8.4840   -0.7840 C   0  0  2  0  0  0  0  0  0  0  0  0
   -3.2940    9.2780   -0.3670 C   0  0  0  0  0  0  0  0  0  0  0  0
   -4.5380    8.4060   -0.1760 C   0  0  0  0  0  0  0  0  0  0  0  0
   -5.1670    8.0430   -1.4870 C   0  0  2  0  0  0  0  0  0  0  0  0
   -6.4230    8.6820   -1.7470 O   0  0  0  0  0  0  0  0  0  0  0  0
   -6.4570    7.2520   -1.6060 C   0  0  0  0  0  0  0  0  0  0  0  0
   -7.1950    6.7770   -0.3940 C   0  0  0  0  0  0  0  0  0  0  0  0
   -6.7360    6.5270   -2.8860 C   0  0  0  0  0  0  0  0  0  0  0  0
   -0.8000    9.3610   -0.6500 C   0  0  1  0  0  0  0  0  0  0  0  0
    0.5190    8.5490   -0.7470 C   0  0  0  0  0  0  0  0  0  0  0  0
    1.5510    9.4560   -1.4650 C   0  0  0  0  0  0  0  0  0  0  0  0
    0.9050   10.8610   -1.4600 C   0  0  1  0  0  0  0  0  0  0  0  0
    1.2020   11.4340   -0.0380 C   0  0  0  0  0  0  0  0  0  0  0  0
    1.3720   11.8410   -2.5860 C   0  0  2  0  0  0  0  0  0  0  0  0
    2.8650   12.2100   -2.5520 C   0  0  0  0  0  0  0  0  0  0  0  0
    3.2040   13.4210   -1.7470 C   0  0  0  0  0  0  0  0  0  0  0  0
    2.3250   14.3430   -1.3130 C   0  0  0  0  0  0  0  0  0  0  0  0
    0.8450   14.2690   -1.7110 C   0  0  1  0  0  0  0  0  0  0  0  0
    0.3610   15.6710   -2.1650 C   0  0  0  0  0  0  0  0  0  0  0  0
    0.6310   16.7500   -1.1220 C   0  0  0  0  0  0  0  0  0  0  0  0
    2.1200   16.8330   -0.7960 C   0  0  2  0  0  0  0  0  0  0  0  0
    2.8200   17.3020   -1.9520 O   0  0  0  0  0  0  0  0  0  0  0  0
    2.7230   15.4760   -0.3350 C   0  0  0  0  0  0  0  0  0  0  0  0
    2.1820   15.1170    1.0710 C   0  0  0  0  0  0  0  0  0  0  0  0
    4.2560   15.6640   -0.1750 C   0  0  0  0  0  0  0  0  0  0  0  0
    0.4620   13.1260   -2.7450 C   0  0  1  0  0  0  0  0  0  0  0  0
    0.6660   13.6370   -4.2040 C   0  0  0  0  0  0  0  0  0  0  0  0
   -1.0710   12.7950   -2.6020 C   0  0  0  0  0  0  0  0  0  0  0  0
   -1.4570   11.7330   -1.5550 C   0  0  0  0  0  0  0  0  0  0  0  0
   -0.5980   10.4740   -1.7080 C   0  0  2  0  0  0  0  0  0  0  0  0
   -0.8920    9.8630   -3.1210 C   0  0  0  0  0  0  0  0  0  0  0  0
   -2.3586    6.8671   -2.1850 H   0  0  0  0  0  0  0  0  0  0  0  0
   -2.9590    8.4659   -2.7420 H   0  0  0  0  0  0  0  0  0  0  0  0
   -1.1966    8.1186   -2.7420 H   0  0  0  0  0  0  0  0  0  0  0  0
   -1.9588    7.6184   -0.1101 H   0  0  0  0  0  0  0  0  0  0  0  0
   -3.0805    9.7914    0.5821 H   0  0  0  0  0  0  0  0  0  0  0  0
   -3.5160    9.9812   -1.1832 H   0  0  0  0  0  0  0  0  0  0  0  0
   -4.2494    7.4832    0.3486 H   0  0  0  0  0  0  0  0  0  0  0  0
   -5.2720    8.9792    0.4095 H   0  0  0  0  0  0  0  0  0  0  0  0
   -4.1783    7.9166   -1.9523 H   0  0  0  0  0  0  0  0  0  0  0  0
   -6.6695    7.1152    0.5112 H   0  0  0  0  0  0  0  0  0  0  0  0
   -8.2151    7.1885   -0.4011 H   0  0  0  0  0  0  0  0  0  0  0  0
   -7.2429    5.6781   -0.4011 H   0  0  0  0  0  0  0  0  0  0  0  0
   -7.1227    5.5220   -2.6614 H   0  0  0  0  0  0  0  0  0  0  0  0
   -7.4833    7.0857   -3.4685 H   0  0  0  0  0  0  0  0  0  0  0  0
   -5.8069    6.4406   -3.4685 H   0  0  0  0  0  0  0  0  0  0  0  0
   -0.9974    9.8097    0.3347 H   0  0  0  0  0  0  0  0  0  0  0  0
    0.8787    8.2891    0.2595 H   0  0  0  0  0  0  0  0  0  0  0  0
    0.3654    7.6108   -1.3004 H   0  0  0  0  0  0  0  0  0  0  0  0
    2.5059    9.4656   -0.9190 H   0  0  0  0  0  0  0  0  0  0  0  0
    1.7786    9.1050   -2.4823 H   0  0  0  0  0  0  0  0  0  0  0  0
    0.8372   10.7301    0.7245 H   0  0  0  0  0  0  0  0  0  0  0  0
    2.2864   11.5745    0.0816 H   0  0  0  0  0  0  0  0  0  0  0  0
    0.6916   12.4011    0.0816 H   0  0  0  0  0  0  0  0  0  0  0  0
    1.2345   11.2380   -3.4957 H   0  0  0  0  0  0  0  0  0  0  0  0
    3.4167   11.3565   -2.1310 H   0  0  0  0  0  0  0  0  0  0  0  0
    3.1441   12.4461   -3.5895 H   0  0  0  0  0  0  0  0  0  0  0  0
    4.2620   13.5724   -1.4866 H   0  0  0  0  0  0  0  0  0  0  0  0
    0.3009   13.9616   -0.8058 H   0  0  0  0  0  0  0  0  0  0  0  0
    0.8840   15.9405   -3.0944 H   0  0  0  0  0  0  0  0  0  0  0  0
   -0.7275   15.6160   -2.3137 H   0  0  0  0  0  0  0  0  0  0  0  0
    0.2934   17.7212   -1.5130 H   0  0  0  0  0  0  0  0  0  0  0  0
    0.0839   16.4944   -0.2026 H   0  0  0  0  0  0  0  0  0  0  0  0
    2.2343   17.5299    0.0474 H   0  0  0  0  0  0  0  0  0  0  0  0
    3.6830   16.8540   -1.9760 H   0  0  0  0  0  0  0  0  0  0  0  0
    2.8384   15.5526    1.8387 H   0  0  0  0  0  0  0  0  0  0  0  0
    1.1650   15.5201    1.1865 H   0  0  0  0  0  0  0  0  0  0  0  0
    2.1583   14.0233    1.1865 H   0  0  0  0  0  0  0  0  0  0  0  0
    4.5119   15.6954    0.8944 H   0  0  0  0  0  0  0  0  0  0  0  0
    4.7804   14.8234   -0.6530 H   0  0  0  0  0  0  0  0  0  0  0  0
    4.5617   16.6064   -0.6530 H   0  0  0  0  0  0  0  0  0  0  0  0
    1.0738   14.6584   -4.1811 H   0  0  0  0  0  0  0  0  0  0  0  0
    1.3682   12.9736   -4.7301 H   0  0  0  0  0  0  0  0  0  0  0  0
   -0.3001   13.6396   -4.7301 H   0  0  0  0  0  0  0  0  0  0  0  0
   -1.5897   13.7280   -2.3366 H   0  0  0  0  0  0  0  0  0  0  0  0
   -1.3643   12.3644   -3.5708 H   0  0  0  0  0  0  0  0  0  0  0  0
   -1.3082   12.1499   -0.5480 H   0  0  0  0  0  0  0  0  0  0  0  0
   -2.5114   11.4585   -1.7064 H   0  0  0  0  0  0  0  0  0  0  0  0
   -1.3662    8.8775   -3.0029 H   0  0  0  0  0  0  0  0  0  0  0  0
   -1.5674   10.5308   -3.6759 H   0  0  0  0  0  0  0  0  0  0  0  0
    0.0513    9.7519   -3.6759 H   0  0  0  0  0  0  0  0  0  0  0  0
  1  2  1  0
  2  3  1  0
  3  4  1  0
  4  5  1  0
  5  6  1  0
  6  7  1  0
  7  8  1  0
  7  9  1  0
  2 10  1  0
 10 11  1  0
 11 12  1  0
 12 13  1  0
 13 14  1  1
 13 15  1  0
 15 16  1  0
 16 17  1  0
 17 18  2  0
 18 19  1  0
 19 20  1  0
 20 21  1  0
 21 22  1  0
 22 23  1  0
 22 24  1  0
 24 25  1  0
 24 26  1  0
 19 27  1  0
 27 28  1  6
 27 29  1  0
 29 30  1  0
 30 31  1  0
 31 32  1  6
  7  5  1  0
 31 10  1  0
 31 13  1  0
 27 15  1  0
 24 18  1  0
  1 33  1  0
  1 34  1  0
  1 35  1  0
  2 36  1  1
  3 37  1  0
  3 38  1  0
  4 39  1  0
  4 40  1  0
  5 41  1  6
  8 42  1  0
  8 43  1  0
  8 44  1  0
  9 45  1  0
  9 46  1  0
  9 47  1  0
 10 48  1  1
 11 49  1  0
 11 50  1  0
 12 51  1  0
 12 52  1  0
 14 53  1  0
 14 54  1  0
 14 55  1  0
 15 56  1  6
 16 57  1  0
 16 58  1  0
 17 59  1  0
 19 60  1  1
 20 61  1  0
 20 62  1  0
 21 63  1  0
 21 64  1  0
 22 65  1  1
 23 66  1  0
 25 67  1  0
 25 68  1  0
 25 69  1  0
 26 70  1  0
 26 71  1  0
 26 72  1  0
 28 73  1  0
 28 74  1  0
 28 75  1  0
 29 76  1  0
 29 77  1  0
 30 78  1  0
 30 79  1  0
 32 80  1  0
 32 81  1  0
 32 82  1  0
M  END
>  <meeko>  (9) 
{"is_sidechain": [false], "intermolecular_energy": 2.731, "internal_energy": -0.839}

$$$$
EPH_relaxed_0001_pdb2pqr_Repair_290_r2_0001_out
     RDKit          3D

 82 86  0  0  0  0  0  0  0  0999 V2000
   -0.9430   16.2890   -5.9640 C   0  0  0  0  0  0  0  0  0  0  0  0
    0.2120   15.6130   -6.7080 C   0  0  2  0  0  0  0  0  0  0  0  0
   -0.0850   15.4440   -8.2120 C   0  0  0  0  0  0  0  0  0  0  0  0
    0.5710   16.5120   -9.0920 C   0  0  0  0  0  0  0  0  0  0  0  0
    1.9580   16.1180   -9.5010 C   0  0  2  0  0  0  0  0  0  0  0  0
    2.3910   16.6670  -10.7530 O   0  0  0  0  0  0  0  0  0  0  0  0
    2.2580   15.2380  -10.7000 C   0  0  0  0  0  0  0  0  0  0  0  0
    1.1630   14.6970  -11.5650 C   0  0  0  0  0  0  0  0  0  0  0  0
    3.5650   14.5080  -10.7430 C   0  0  0  0  0  0  0  0  0  0  0  0
    0.5120   14.2570   -6.0800 C   0  0  1  0  0  0  0  0  0  0  0  0
    1.7100   13.5380   -6.7550 C   0  0  0  0  0  0  0  0  0  0  0  0
    2.4520   12.7610   -5.6370 C   0  0  0  0  0  0  0  0  0  0  0  0
    1.4800   12.7840   -4.4350 C   0  0  1  0  0  0  0  0  0  0  0  0
    0.4560   11.6420   -4.7240 C   0  0  0  0  0  0  0  0  0  0  0  0
    2.1280   12.6340   -3.0200 C   0  0  2  0  0  0  0  0  0  0  0  0
    2.8580   11.3020   -2.7740 C   0  0  0  0  0  0  0  0  0  0  0  0
    2.0170   10.2120   -2.1960 C   0  0  0  0  0  0  0  0  0  0  0  0
    0.8100   10.3750   -1.6230 C   0  0  0  0  0  0  0  0  0  0  0  0
    0.2150   11.7750   -1.4250 C   0  0  1  0  0  0  0  0  0  0  0  0
   -0.3450   11.9000    0.0170 C   0  0  0  0  0  0  0  0  0  0  0  0
   -1.3350   10.7910    0.3580 C   0  0  0  0  0  0  0  0  0  0  0  0
   -0.6890    9.4170    0.2050 C   0  0  2  0  0  0  0  0  0  0  0  0
    0.3300    9.2730    1.1990 O   0  0  0  0  0  0  0  0  0  0  0  0
   -0.0800    9.1790   -1.2050 C   0  0  0  0  0  0  0  0  0  0  0  0
   -1.2190    9.0340   -2.2450 C   0  0  0  0  0  0  0  0  0  0  0  0
    0.6620    7.8160   -1.1810 C   0  0  0  0  0  0  0  0  0  0  0  0
    1.1570   12.9910   -1.8210 C   0  0  1  0  0  0  0  0  0  0  0  0
    2.0650   13.3770   -0.6140 C   0  0  0  0  0  0  0  0  0  0  0  0
    0.2670   14.2530   -2.1290 C   0  0  0  0  0  0  0  0  0  0  0  0
   -0.2440   14.4080   -3.5740 C   0  0  0  0  0  0  0  0  0  0  0  0
    0.8980   14.2370   -4.5800 C   0  0  2  0  0  0  0  0  0  0  0  0
    1.9330   15.3860   -4.3280 C   0  0  0  0  0  0  0  0  0  0  0  0
   -0.7847   16.1963   -4.8794 H   0  0  0  0  0  0  0  0  0  0  0  0
   -0.9834   17.3533   -6.2391 H   0  0  0  0  0  0  0  0  0  0  0  0
   -1.8907   15.8030   -6.2391 H   0  0  0  0  0  0  0  0  0  0  0  0
    1.0917   16.2672   -6.6174 H   0  0  0  0  0  0  0  0  0  0  0  0
    0.2832   14.4575   -8.5301 H   0  0  0  0  0  0  0  0  0  0  0  0
   -1.1729   15.5463   -8.3387 H   0  0  0  0  0  0  0  0  0  0  0  0
   -0.0402   16.6542   -9.9954 H   0  0  0  0  0  0  0  0  0  0  0  0
    0.6366   17.4430   -8.5099 H   0  0  0  0  0  0  0  0  0  0  0  0
    2.2797   16.0683   -8.4503 H   0  0  0  0  0  0  0  0  0  0  0  0
    0.3573   14.2990  -10.9306 H   0  0  0  0  0  0  0  0  0  0  0  0
    0.7656   15.5024  -12.2001 H   0  0  0  0  0  0  0  0  0  0  0  0
    1.5613   13.8920  -12.2001 H   0  0  0  0  0  0  0  0  0  0  0  0
    3.9110   14.3148   -9.7169 H   0  0  0  0  0  0  0  0  0  0  0  0
    3.4340   13.5524  -11.2719 H   0  0  0  0  0  0  0  0  0  0  0  0
    4.3100   15.1207  -11.2719 H   0  0  0  0  0  0  0  0  0  0  0  0
   -0.4629   13.7682   -6.2235 H   0  0  0  0  0  0  0  0  0  0  0  0
    1.3484   12.8408   -7.5251 H   0  0  0  0  0  0  0  0  0  0  0  0
    2.3792   14.2603   -7.2453 H   0  0  0  0  0  0  0  0  0  0  0  0
    2.6555   11.7269   -5.9521 H   0  0  0  0  0  0  0  0  0  0  0  0
    3.4267   13.2092   -5.3939 H   0  0  0  0  0  0  0  0  0  0  0  0
    0.0873   11.2308   -3.7727 H   0  0  0  0  0  0  0  0  0  0  0  0
   -0.3891   12.0448   -5.3015 H   0  0  0  0  0  0  0  0  0  0  0  0
    0.9482   10.8456   -5.3015 H   0  0  0  0  0  0  0  0  0  0  0  0
    2.9120   13.4054   -3.0370 H   0  0  0  0  0  0  0  0  0  0  0  0
    3.2565   10.9498   -3.7369 H   0  0  0  0  0  0  0  0  0  0  0  0
    3.6367   11.5148   -2.0268 H   0  0  0  0  0  0  0  0  0  0  0  0
    2.4179    9.1887   -2.2424 H   0  0  0  0  0  0  0  0  0  0  0  0
   -0.6048   11.8629   -2.1531 H   0  0  0  0  0  0  0  0  0  0  0  0
    0.4943   11.8539    0.7265 H   0  0  0  0  0  0  0  0  0  0  0  0
   -0.8806   12.8584    0.0853 H   0  0  0  0  0  0  0  0  0  0  0  0
   -1.6721   10.9165    1.3975 H   0  0  0  0  0  0  0  0  0  0  0  0
   -2.1878   10.8569   -0.3336 H   0  0  0  0  0  0  0  0  0  0  0  0
   -1.4809    8.6647    0.3355 H   0  0  0  0  0  0  0  0  0  0  0  0
   -0.0500    9.5470    2.0520 H   0  0  0  0  0  0  0  0  0  0  0  0
   -2.1792    8.9118   -1.7225 H   0  0  0  0  0  0  0  0  0  0  0  0
   -1.2567    9.9346   -2.8755 H   0  0  0  0  0  0  0  0  0  0  0  0
   -1.0298    8.1527   -2.8755 H   0  0  0  0  0  0  0  0  0  0  0  0
    0.8296    7.5081   -0.1384 H   0  0  0  0  0  0  0  0  0  0  0  0
    0.0523    7.0575   -1.6938 H   0  0  0  0  0  0  0  0  0  0  0  0
    1.6300    7.9164   -1.6938 H   0  0  0  0  0  0  0  0  0  0  0  0
    1.5396   13.1536    0.3263 H   0  0  0  0  0  0  0  0  0  0  0  0
    2.9994   12.7983   -0.6583 H   0  0  0  0  0  0  0  0  0  0  0  0
    2.2967   14.4514   -0.6583 H   0  0  0  0  0  0  0  0  0  0  0  0
   -0.6115   14.2096   -1.4684 H   0  0  0  0  0  0  0  0  0  0  0  0
    0.9269   15.1173   -1.9633 H   0  0  0  0  0  0  0  0  0  0  0  0
   -1.0119   13.6447   -3.7680 H   0  0  0  0  0  0  0  0  0  0  0  0
   -0.6663   15.4170   -3.6906 H   0  0  0  0  0  0  0  0  0  0  0  0
    2.0636   15.5310   -3.2454 H   0  0  0  0  0  0  0  0  0  0  0  0
    2.8984   15.1157   -4.7808 H   0  0  0  0  0  0  0  0  0  0  0  0
    1.5637   16.3180   -4.7808 H   0  0  0  0  0  0  0  0  0  0  0  0
  1  2  1  0
  2  3  1  0
  3  4  1  0
  4  5  1  0
  5  6  1  0
  6  7  1  0
  7  8  1  0
  7  9  1  0
  2 10  1  0
 10 11  1  0
 11 12  1  0
 12 13  1  0
 13 14  1  6
 13 15  1  0
 15 16  1  0
 16 17  1  0
 17 18  2  0
 18 19  1  0
 19 20  1  0
 20 21  1  0
 21 22  1  0
 22 23  1  0
 22 24  1  0
 24 25  1  0
 24 26  1  0
 19 27  1  0
 27 28  1  1
 27 29  1  0
 29 30  1  0
 30 31  1  0
 31 32  1  6
  7  5  1  0
 31 10  1  0
 31 13  1  0
 27 15  1  0
 24 18  1  0
  1 33  1  0
  1 34  1  0
  1 35  1  0
  2 36  1  6
  3 37  1  0
  3 38  1  0
  4 39  1  0
  4 40  1  0
  5 41  1  1
  8 42  1  0
  8 43  1  0
  8 44  1  0
  9 45  1  0
  9 46  1  0
  9 47  1  0
 10 48  1  1
 11 49  1  0
 11 50  1  0
 12 51  1  0
 12 52  1  0
 14 53  1  0
 14 54  1  0
 14 55  1  0
 15 56  1  6
 16 57  1  0
 16 58  1  0
 17 59  1  0
 19 60  1  6
 20 61  1  0
 20 62  1  0
 21 63  1  0
 21 64  1  0
 22 65  1  1
 23 66  1  0
 25 67  1  0
 25 68  1  0
 25 69  1  0
 26 70  1  0
 26 71  1  0
 26 72  1  0
 28 73  1  0
 28 74  1  0
 28 75  1  0
 29 76  1  0
 29 77  1  0
 30 78  1  0
 30 79  1  0
 32 80  1  0
 32 81  1  0
 32 82  1  0
M  END
>  <meeko>  (10) 
{"is_sidechain": [false], "intermolecular_energy": 2.731, "internal_energy": -0.839}

$$$$
EPH_relaxed_0001_pdb2pqr_Repair_290_r2_0001_out
     RDKit          3D

 82 86  0  0  0  0  0  0  0  0999 V2000
    2.3550   16.7190   -7.2690 C   0  0  0  0  0  0  0  0  0  0  0  0
    1.4200   15.5090   -7.1790 C   0  0  2  0  0  0  0  0  0  0  0  0
    0.1580   15.6840   -8.0480 C   0  0  0  0  0  0  0  0  0  0  0  0
    0.4540   16.1560   -9.4750 C   0  0  0  0  0  0  0  0  0  0  0  0
    1.8770   15.8900   -9.8630 C   0  0  2  0  0  0  0  0  0  0  0  0
    2.2910   16.5140  -11.0850 O   0  0  0  0  0  0  0  0  0  0  0  0
    2.2740   15.0770  -11.0810 C   0  0  0  0  0  0  0  0  0  0  0  0
    1.2460   14.4780  -11.9880 C   0  0  0  0  0  0  0  0  0  0  0  0
    3.6370   14.4580  -11.1150 C   0  0  0  0  0  0  0  0  0  0  0  0
    1.0230   15.2660   -5.7280 C   0  0  1  0  0  0  0  0  0  0  0  0
   -0.3340   15.9250   -5.3610 C   0  0  0  0  0  0  0  0  0  0  0  0
   -1.0290   14.9820   -4.3460 C   0  0  0  0  0  0  0  0  0  0  0  0
    0.0770   13.9920   -3.9120 C   0  0  1  0  0  0  0  0  0  0  0  0
    0.8980   14.7590   -2.8280 C   0  0  0  0  0  0  0  0  0  0  0  0
   -0.4060   12.6000   -3.3910 C   0  0  2  0  0  0  0  0  0  0  0  0
   -1.2700   12.6430   -2.1190 C   0  0  0  0  0  0  0  0  0  0  0  0
   -0.5170   12.5470   -0.8330 C   0  0  0  0  0  0  0  0  0  0  0  0
    0.7620   12.1480   -0.7040 C   0  0  0  0  0  0  0  0  0  0  0  0
    1.5570   11.6450   -1.9160 C   0  0  1  0  0  0  0  0  0  0  0  0
    2.3000   10.3360   -1.5410 C   0  0  0  0  0  0  0  0  0  0  0  0
    3.1700   10.4930   -0.2970 C   0  0  0  0  0  0  0  0  0  0  0  0
    2.3340   10.9380    0.9000 C   0  0  2  0  0  0  0  0  0  0  0  0
    1.4340    9.8820    1.2510 O   0  0  0  0  0  0  0  0  0  0  0  0
    1.5310   12.2430    0.6370 C   0  0  0  0  0  0  0  0  0  0  0  0
    2.5050   13.4450    0.5550 C   0  0  0  0  0  0  0  0  0  0  0  0
    0.6240   12.5020    1.8690 C   0  0  0  0  0  0  0  0  0  0  0  0
    0.7420   11.5170   -3.2740 C   0  0  1  0  0  0  0  0  0  0  0  0
    0.0480   10.1220   -3.3490 C   0  0  0  0  0  0  0  0  0  0  0  0
    1.7470   11.5770   -4.4850 C   0  0  0  0  0  0  0  0  0  0  0  0
    2.0930   12.9760   -5.0310 C   0  0  0  0  0  0  0  0  0  0  0  0
    0.8240   13.7960   -5.2810 C   0  0  2  0  0  0  0  0  0  0  0  0
   -0.0110   13.0610   -6.3840 C   0  0  0  0  0  0  0  0  0  0  0  0
    2.6161   17.0568   -6.2552 H   0  0  0  0  0  0  0  0  0  0  0  0
    3.2709   16.4354   -7.8082 H   0  0  0  0  0  0  0  0  0  0  0  0
    1.8495   17.5337   -7.8082 H   0  0  0  0  0  0  0  0  0  0  0  0
    1.9688   14.6375   -7.5655 H   0  0  0  0  0  0  0  0  0  0  0  0
   -0.3627   14.7166   -8.1031 H   0  0  0  0  0  0  0  0  0  0  0  0
   -0.4547   16.4637   -7.5719 H   0  0  0  0  0  0  0  0  0  0  0  0
   -0.2108   15.6241  -10.1715 H   0  0  0  0  0  0  0  0  0  0  0  0
    0.2838   17.2419   -9.5192 H   0  0  0  0  0  0  0  0  0  0  0  0
    2.1787   15.8317   -8.8068 H   0  0  0  0  0  0  0  0  0  0  0  0
    0.4508   14.0147  -11.3855 H   0  0  0  0  0  0  0  0  0  0  0  0
    0.8135   15.2655  -12.6227 H   0  0  0  0  0  0  0  0  0  0  0  0
    1.7178   13.7134  -12.6227 H   0  0  0  0  0  0  0  0  0  0  0  0
    3.9922   14.2967  -10.0865 H   0  0  0  0  0  0  0  0  0  0  0  0
    3.5887   13.4935  -11.6417 H   0  0  0  0  0  0  0  0  0  0  0  0
    4.3314   15.1291  -11.6417 H   0  0  0  0  0  0  0  0  0  0  0  0
    1.8999   15.6973   -5.2230 H   0  0  0  0  0  0  0  0  0  0  0  0
   -0.1650   16.9123   -4.9064 H   0  0  0  0  0  0  0  0  0  0  0  0
   -0.9572   16.0705   -6.2557 H   0  0  0  0  0  0  0  0  0  0  0  0
   -1.4028   15.5500   -3.4813 H   0  0  0  0  0  0  0  0  0  0  0  0
   -1.8997   14.4698   -4.7813 H   0  0  0  0  0  0  0  0  0  0  0  0
    0.5646   14.4476   -1.8271 H   0  0  0  0  0  0  0  0  0  0  0  0
    1.9670   14.5286   -2.9466 H   0  0  0  0  0  0  0  0  0  0  0  0
    0.7408   15.8412   -2.9466 H   0  0  0  0  0  0  0  0  0  0  0  0
   -1.0772   12.2674   -4.1965 H   0  0  0  0  0  0  0  0  0  0  0  0
   -1.8257   13.5923   -2.1175 H   0  0  0  0  0  0  0  0  0  0  0  0
   -1.9167   11.7541   -2.1601 H   0  0  0  0  0  0  0  0  0  0  0  0
   -1.0527   12.8259    0.0864 H   0  0  0  0  0  0  0  0  0  0  0  0
    2.2870   12.4338   -2.1501 H   0  0  0  0  0  0  0  0  0  0  0  0
    1.5548    9.5489   -1.3532 H   0  0  0  0  0  0  0  0  0  0  0  0
    2.9614   10.0752   -2.3804 H   0  0  0  0  0  0  0  0  0  0  0  0
    3.6451    9.5282   -0.0657 H   0  0  0  0  0  0  0  0  0  0  0  0
    3.9335   11.2593   -0.4966 H   0  0  0  0  0  0  0  0  0  0  0  0
    3.0290   11.1589    1.7235 H   0  0  0  0  0  0  0  0  0  0  0  0
    0.6920    9.9070    0.6230 H   0  0  0  0  0  0  0  0  0  0  0  0
    2.7701   13.7721    1.5712 H   0  0  0  0  0  0  0  0  0  0  0  0
    3.4160   13.1427    0.0178 H   0  0  0  0  0  0  0  0  0  0  0  0
    2.0204   14.2736    0.0178 H   0  0  0  0  0  0  0  0  0  0  0  0
    1.2015   12.3371    2.7906 H   0  0  0  0  0  0  0  0  0  0  0  0
    0.2604   13.5399    1.8449 H   0  0  0  0  0  0  0  0  0  0  0  0
   -0.2329   11.8126    1.8449 H   0  0  0  0  0  0  0  0  0  0  0  0
   -0.1373    9.7495   -2.3307 H   0  0  0  0  0  0  0  0  0  0  0  0
   -0.9082   10.2165   -3.8846 H   0  0  0  0  0  0  0  0  0  0  0  0
    0.7001    9.4164   -3.8846 H   0  0  0  0  0  0  0  0  0  0  0  0
    2.6861   11.1040   -4.1620 H   0  0  0  0  0  0  0  0  0  0  0  0
    1.2334   11.0639   -5.3115 H   0  0  0  0  0  0  0  0  0  0  0  0
    2.7231   13.5023   -4.2989 H   0  0  0  0  0  0  0  0  0  0  0  0
    2.6279   12.8578   -5.9849 H   0  0  0  0  0  0  0  0  0  0  0  0
   -0.7546   12.4065   -5.9057 H   0  0  0  0  0  0  0  0  0  0  0  0
   -0.5258   13.8044   -7.0104 H   0  0  0  0  0  0  0  0  0  0  0  0
    0.6610   12.4560   -7.0104 H   0  0  0  0  0  0  0  0  0  0  0  0
  1  2  1  0
  2  3  1  0
  3  4  1  0
  4  5  1  0
  5  6  1  0
  6  7  1  0
  7  8  1  0
  7  9  1  0
  2 10  1  0
 10 11  1  0
 11 12  1  0
 12 13  1  0
 13 14  1  1
 13 15  1  0
 15 16  1  0
 16 17  1  0
 17 18  2  0
 18 19  1  0
 19 20  1  0
 20 21  1  0
 21 22  1  0
 22 23  1  0
 22 24  1  0
 24 25  1  0
 24 26  1  0
 19 27  1  0
 27 28  1  1
 27 29  1  0
 29 30  1  0
 30 31  1  0
 31 32  1  6
  7  5  1  0
 31 10  1  0
 31 13  1  0
 27 15  1  0
 24 18  1  0
  1 33  1  0
  1 34  1  0
  1 35  1  0
  2 36  1  6
  3 37  1  0
  3 38  1  0
  4 39  1  0
  4 40  1  0
  5 41  1  1
  8 42  1  0
  8 43  1  0
  8 44  1  0
  9 45  1  0
  9 46  1  0
  9 47  1  0
 10 48  1  1
 11 49  1  0
 11 50  1  0
 12 51  1  0
 12 52  1  0
 14 53  1  0
 14 54  1  0
 14 55  1  0
 15 56  1  6
 16 57  1  0
 16 58  1  0
 17 59  1  0
 19 60  1  6
 20 61  1  0
 20 62  1  0
 21 63  1  0
 21 64  1  0
 22 65  1  1
 23 66  1  0
 25 67  1  0
 25 68  1  0
 25 69  1  0
 26 70  1  0
 26 71  1  0
 26 72  1  0
 28 73  1  0
 28 74  1  0
 28 75  1  0
 29 76  1  0
 29 77  1  0
 30 78  1  0
 30 79  1  0
 32 80  1  0
 32 81  1  0
 32 82  1  0
M  END
>  <meeko>  (11) 
{"is_sidechain": [false], "intermolecular_energy": 2.731, "internal_energy": -0.839}

$$$$
EPH_relaxed_0001_pdb2pqr_Repair_290_r2_0001_out
     RDKit          3D

 82 86  0  0  0  0  0  0  0  0999 V2000
    1.0280   14.6920   -5.0000 C   0  0  0  0  0  0  0  0  0  0  0  0
    0.5420   14.2130   -3.6290 C   0  0  2  0  0  0  0  0  0  0  0  0
    1.5960   14.4430   -2.5270 C   0  0  0  0  0  0  0  0  0  0  0  0
    1.1500   15.4340   -1.4480 C   0  0  0  0  0  0  0  0  0  0  0  0
    2.2140   16.4480   -1.1530 C   0  0  2  0  0  0  0  0  0  0  0  0
    2.5320   16.5960    0.2370 O   0  0  0  0  0  0  0  0  0  0  0  0
    1.9520   17.7430   -0.4070 C   0  0  0  0  0  0  0  0  0  0  0  0
    0.5850   18.0930    0.0910 C   0  0  0  0  0  0  0  0  0  0  0  0
    2.9090   18.8800   -0.5890 C   0  0  0  0  0  0  0  0  0  0  0  0
    0.1730   12.7350   -3.6960 C   0  0  1  0  0  0  0  0  0  0  0  0
    1.3700   11.8390   -4.1140 C   0  0  0  0  0  0  0  0  0  0  0  0
    1.2190   10.5030   -3.3430 C   0  0  0  0  0  0  0  0  0  0  0  0
   -0.2170   10.5430   -2.7700 C   0  0  1  0  0  0  0  0  0  0  0  0
   -1.1340   10.1080   -3.9550 C   0  0  0  0  0  0  0  0  0  0  0  0
   -0.4760    9.6800   -1.4920 C   0  0  2  0  0  0  0  0  0  0  0  0
   -0.2830    8.1650   -1.6780 C   0  0  0  0  0  0  0  0  0  0  0  0
   -1.5040    7.4120   -2.0920 C   0  0  0  0  0  0  0  0  0  0  0  0
   -2.7660    7.8750   -2.0310 C   0  0  0  0  0  0  0  0  0  0  0  0
   -3.0730    9.2460   -1.4130 C   0  0  1  0  0  0  0  0  0  0  0  0
   -4.2780    9.1190   -0.4450 C   0  0  0  0  0  0  0  0  0  0  0  0
   -5.5000    8.4920   -1.1100 C   0  0  0  0  0  0  0  0  0  0  0  0
   -5.1700    7.1060   -1.6600 C   0  0  2  0  0  0  0  0  0  0  0  0
   -4.8980    6.2280   -0.5630 O   0  0  0  0  0  0  0  0  0  0  0  0
   -3.9650    7.1070   -2.6410 C   0  0  0  0  0  0  0  0  0  0  0  0
   -4.3690    7.8080   -3.9620 C   0  0  0  0  0  0  0  0  0  0  0  0
   -3.6490    5.6330   -3.0100 C   0  0  0  0  0  0  0  0  0  0  0  0
   -1.8390   10.0020   -0.7570 C   0  0  1  0  0  0  0  0  0  0  0  0
   -1.6650    9.5490    0.7250 C   0  0  0  0  0  0  0  0  0  0  0  0
   -2.1460   11.5460   -0.7150 C   0  0  0  0  0  0  0  0  0  0  0  0
   -1.7580   12.3650   -1.9610 C   0  0  0  0  0  0  0  0  0  0  0  0
   -0.3180   12.0650   -2.3880 C   0  0  2  0  0  0  0  0  0  0  0  0
    0.6290   12.5140   -1.2240 C   0  0  0  0  0  0  0  0  0  0  0  0
    1.8056   15.4584   -4.8661 H   0  0  0  0  0  0  0  0  0  0  0  0
    1.4442   13.8411   -5.5593 H   0  0  0  0  0  0  0  0  0  0  0  0
    0.1833   15.1205   -5.5593 H   0  0  0  0  0  0  0  0  0  0  0  0
   -0.3459   14.8067   -3.3662 H   0  0  0  0  0  0  0  0  0  0  0  0
    1.8112   13.4779   -2.0450 H   0  0  0  0  0  0  0  0  0  0  0  0
    2.4826   14.8748   -3.0143 H   0  0  0  0  0  0  0  0  0  0  0  0
    0.2462   15.9562   -1.7952 H   0  0  0  0  0  0  0  0  0  0  0  0
    0.9490   14.8694   -0.5256 H   0  0  0  0  0  0  0  0  0  0  0  0
    2.7138   16.2359   -2.1097 H   0  0  0  0  0  0  0  0  0  0  0  0
    0.5844   18.0932    1.1910 H   0  0  0  0  0  0  0  0  0  0  0  0
    0.3056   19.0916   -0.2760 H   0  0  0  0  0  0  0  0  0  0  0  0
   -0.1399   17.3515   -0.2760 H   0  0  0  0  0  0  0  0  0  0  0  0
    3.2245   19.2549    0.3958 H   0  0  0  0  0  0  0  0  0  0  0  0
    3.7899   18.5319   -1.1483 H   0  0  0  0  0  0  0  0  0  0  0  0
    2.4156   19.6886   -1.1483 H   0  0  0  0  0  0  0  0  0  0  0  0
   -0.6483   12.7825   -4.4262 H   0  0  0  0  0  0  0  0  0  0  0  0
    1.3453   11.6555   -5.1983 H   0  0  0  0  0  0  0  0  0  0  0  0
    2.3283   12.3249   -3.8784 H   0  0  0  0  0  0  0  0  0  0  0  0
    1.3423    9.6466   -4.0223 H   0  0  0  0  0  0  0  0  0  0  0  0
    1.9789   10.3874   -2.5561 H   0  0  0  0  0  0  0  0  0  0  0  0
   -2.0612    9.6682   -3.5588 H   0  0  0  0  0  0  0  0  0  0  0  0
   -1.3786   10.9860   -4.5708 H   0  0  0  0  0  0  0  0  0  0  0  0
   -0.6087    9.3631   -4.5708 H   0  0  0  0  0  0  0  0  0  0  0  0
    0.3328   10.0049   -0.8209 H   0  0  0  0  0  0  0  0  0  0  0  0
    0.4875    8.0127   -2.4481 H   0  0  0  0  0  0  0  0  0  0  0  0
   -0.0030    7.7706   -0.6900 H   0  0  0  0  0  0  0  0  0  0  0  0
   -1.3597    6.3927   -2.4796 H   0  0  0  0  0  0  0  0  0  0  0  0
   -3.3371    9.9064   -2.2521 H   0  0  0  0  0  0  0  0  0  0  0  0
   -3.9802    8.4917    0.4081 H   0  0  0  0  0  0  0  0  0  0  0  0
   -4.5566   10.1336   -0.1241 H   0  0  0  0  0  0  0  0  0  0  0  0
   -6.3074    8.4023   -0.3683 H   0  0  0  0  0  0  0  0  0  0  0  0
   -5.8149    9.1355   -1.9447 H   0  0  0  0  0  0  0  0  0  0  0  0
   -6.0420    6.7631   -2.2363 H   0  0  0  0  0  0  0  0  0  0  0  0
   -4.8880    5.3200   -0.9090 H   0  0  0  0  0  0  0  0  0  0  0  0
   -4.9062    8.7402   -3.7330 H   0  0  0  0  0  0  0  0  0  0  0  0
   -3.4657    8.0393   -4.5455 H   0  0  0  0  0  0  0  0  0  0  0  0
   -5.0220    7.1423   -4.5455 H   0  0  0  0  0  0  0  0  0  0  0  0
   -3.5227    5.0437   -2.0898 H   0  0  0  0  0  0  0  0  0  0  0  0
   -4.4784    5.2170   -3.6009 H   0  0  0  0  0  0  0  0  0  0  0  0
   -2.7220    5.5936   -3.6009 H   0  0  0  0  0  0  0  0  0  0  0  0
   -1.9775   10.3625    1.3962 H   0  0  0  0  0  0  0  0  0  0  0  0
   -2.2858    8.6604    0.9121 H   0  0  0  0  0  0  0  0  0  0  0  0
   -0.6090    9.3045    0.9121 H   0  0  0  0  0  0  0  0  0  0  0  0
   -3.2286   11.6661   -0.5616 H   0  0  0  0  0  0  0  0  0  0  0  0
   -1.5188   11.9424    0.0971 H   0  0  0  0  0  0  0  0  0  0  0  0
   -2.4387   12.1089   -2.7862 H   0  0  0  0  0  0  0  0  0  0  0  0
   -1.8354   13.4345   -1.7157 H   0  0  0  0  0  0  0  0  0  0  0  0
    0.1543   12.2889   -0.2576 H   0  0  0  0  0  0  0  0  0  0  0  0
    1.5837   11.9727   -1.2985 H   0  0  0  0  0  0  0  0  0  0  0  0
    0.8141   13.5958   -1.2985 H   0  0  0  0  0  0  0  0  0  0  0  0
  1  2  1  0
  2  3  1  0
  3  4  1  0
  4  5  1  0
  5  6  1  0
  6  7  1  0
  7  8  1  0
  7  9  1  0
  2 10  1  0
 10 11  1  0
 11 12  1  0
 12 13  1  0
 13 14  1  6
 13 15  1  0
 15 16  1  0
 16 17  1  0
 17 18  2  0
 18 19  1  0
 19 20  1  0
 20 21  1  0
 21 22  1  0
 22 23  1  0
 22 24  1  0
 24 25  1  0
 24 26  1  0
 19 27  1  0
 27 28  1  1
 27 29  1  0
 29 30  1  0
 30 31  1  0
 31 32  1  1
  7  5  1  0
 31 10  1  0
 31 13  1  0
 27 15  1  0
 24 18  1  0
  1 33  1  0
  1 34  1  0
  1 35  1  0
  2 36  1  1
  3 37  1  0
  3 38  1  0
  4 39  1  0
  4 40  1  0
  5 41  1  6
  8 42  1  0
  8 43  1  0
  8 44  1  0
  9 45  1  0
  9 46  1  0
  9 47  1  0
 10 48  1  6
 11 49  1  0
 11 50  1  0
 12 51  1  0
 12 52  1  0
 14 53  1  0
 14 54  1  0
 14 55  1  0
 15 56  1  1
 16 57  1  0
 16 58  1  0
 17 59  1  0
 19 60  1  6
 20 61  1  0
 20 62  1  0
 21 63  1  0
 21 64  1  0
 22 65  1  6
 23 66  1  0
 25 67  1  0
 25 68  1  0
 25 69  1  0
 26 70  1  0
 26 71  1  0
 26 72  1  0
 28 73  1  0
 28 74  1  0
 28 75  1  0
 29 76  1  0
 29 77  1  0
 30 78  1  0
 30 79  1  0
 32 80  1  0
 32 81  1  0
 32 82  1  0
M  END
>  <meeko>  (12) 
{"is_sidechain": [false], "intermolecular_energy": 2.731, "internal_energy": -0.839}

$$$$
EPH_relaxed_0001_pdb2pqr_Repair_290_r2_0001_out
     RDKit          3D

 82 86  0  0  0  0  0  0  0  0999 V2000
   -2.3960    7.7690   -0.0020 C   0  0  0  0  0  0  0  0  0  0  0  0
   -3.0870    9.1330   -0.0780 C   0  0  2  0  0  0  0  0  0  0  0  0
   -4.5530    9.0160   -0.5420 C   0  0  0  0  0  0  0  0  0  0  0  0
   -5.0430    7.5710   -0.6760 C   0  0  0  0  0  0  0  0  0  0  0  0
   -5.8600    7.3750   -1.9170 C   0  0  2  0  0  0  0  0  0  0  0  0
   -6.8080    8.4180   -2.1800 O   0  0  0  0  0  0  0  0  0  0  0  0
   -7.3550    7.1180   -1.9020 C   0  0  0  0  0  0  0  0  0  0  0  0
   -8.1210    7.0420   -0.6190 C   0  0  0  0  0  0  0  0  0  0  0  0
   -7.9800    6.4600   -3.0930 C   0  0  0  0  0  0  0  0  0  0  0  0
   -2.3160   10.0560   -1.0150 C   0  0  1  0  0  0  0  0  0  0  0  0
   -2.9580   11.4640   -1.1270 C   0  0  0  0  0  0  0  0  0  0  0  0
   -1.7930   12.4750   -1.2850 C   0  0  0  0  0  0  0  0  0  0  0  0
   -0.5550   11.5990   -1.5890 C   0  0  1  0  0  0  0  0  0  0  0  0
   -0.6530   11.2830   -3.1150 C   0  0  0  0  0  0  0  0  0  0  0  0
    0.8340   12.2120   -1.2150 C   0  0  2  0  0  0  0  0  0  0  0  0
    1.2020   13.5020   -1.9680 C   0  0  0  0  0  0  0  0  0  0  0  0
    1.9480   13.3040   -3.2460 C   0  0  0  0  0  0  0  0  0  0  0  0
    2.5570   12.1660   -3.6280 C   0  0  0  0  0  0  0  0  0  0  0  0
    2.6140   10.9510   -2.6930 C   0  0  1  0  0  0  0  0  0  0  0  0
    4.0550   10.3790   -2.6760 C   0  0  0  0  0  0  0  0  0  0  0  0
    4.5770   10.0640   -4.0750 C   0  0  0  0  0  0  0  0  0  0  0  0
    4.5590   11.3090   -4.9570 C   0  0  2  0  0  0  0  0  0  0  0  0
    5.5110   12.2480   -4.4470 O   0  0  0  0  0  0  0  0  0  0  0  0
    3.1590   11.9800   -5.0420 C   0  0  0  0  0  0  0  0  0  0  0  0
    2.2020   11.0810   -5.8640 C   0  0  0  0  0  0  0  0  0  0  0  0
    3.3110   13.3000   -5.8440 C   0  0  0  0  0  0  0  0  0  0  0  0
    2.0270   11.1720   -1.2330 C   0  0  1  0  0  0  0  0  0  0  0  0
    3.1330   11.7470   -0.2960 C   0  0  0  0  0  0  0  0  0  0  0  0
    1.6140    9.7780   -0.6290 C   0  0  0  0  0  0  0  0  0  0  0  0
    0.1880    9.2820   -0.9350 C   0  0  0  0  0  0  0  0  0  0  0  0
   -0.8460   10.3750   -0.6470 C   0  0  2  0  0  0  0  0  0  0  0  0
   -0.7860   10.6980    0.8850 C   0  0  0  0  0  0  0  0  0  0  0  0
   -2.2538    7.4882    1.0520 H   0  0  0  0  0  0  0  0  0  0  0  0
   -3.0201    7.0135   -0.5017 H   0  0  0  0  0  0  0  0  0  0  0  0
   -1.4177    7.8252   -0.5017 H   0  0  0  0  0  0  0  0  0  0  0  0
   -3.0945    9.5567    0.9371 H   0  0  0  0  0  0  0  0  0  0  0  0
   -5.1912    9.5326    0.1900 H   0  0  0  0  0  0  0  0  0  0  0  0
   -4.6106    9.4690   -1.5427 H   0  0  0  0  0  0  0  0  0  0  0  0
   -4.1713    6.9011   -0.7137 H   0  0  0  0  0  0  0  0  0  0  0  0
   -5.6786    7.3428    0.1923 H   0  0  0  0  0  0  0  0  0  0  0  0
   -5.0271    6.8541   -2.4119 H   0  0  0  0  0  0  0  0  0  0  0  0
   -7.4238    7.1112    0.2290 H   0  0  0  0  0  0  0  0  0  0  0  0
   -8.8399    7.8732   -0.5714 H   0  0  0  0  0  0  0  0  0  0  0  0
   -8.6625    6.0857   -0.5714 H   0  0  0  0  0  0  0  0  0  0  0  0
   -8.7012    5.7008   -2.7561 H   0  0  0  0  0  0  0  0  0  0  0  0
   -8.5002    7.2165   -3.6989 H   0  0  0  0  0  0  0  0  0  0  0  0
   -7.1978    5.9794   -3.6989 H   0  0  0  0  0  0  0  0  0  0  0  0
   -2.3511    9.4559   -1.9362 H   0  0  0  0  0  0  0  0  0  0  0  0
   -3.6207   11.5096   -2.0038 H   0  0  0  0  0  0  0  0  0  0  0  0
   -3.5632   11.6942   -0.2377 H   0  0  0  0  0  0  0  0  0  0  0  0
   -1.9910   13.1690   -2.1151 H   0  0  0  0  0  0  0  0  0  0  0  0
   -1.6547   13.0958   -0.3875 H   0  0  0  0  0  0  0  0  0  0  0  0
   -0.9762   10.2407   -3.2536 H   0  0  0  0  0  0  0  0  0  0  0  0
   -1.3837   11.9589   -3.5832 H   0  0  0  0  0  0  0  0  0  0  0  0
    0.3319   11.4268   -3.5832 H   0  0  0  0  0  0  0  0  0  0  0  0
    0.6858   12.5103   -0.1666 H   0  0  0  0  0  0  0  0  0  0  0  0
    0.2699   14.0388   -2.1983 H   0  0  0  0  0  0  0  0  0  0  0  0
    1.8790   14.0593   -1.3038 H   0  0  0  0  0  0  0  0  0  0  0  0
    2.0048   14.1607   -3.9337 H   0  0  0  0  0  0  0  0  0  0  0  0
    1.9226   10.2077   -3.1166 H   0  0  0  0  0  0  0  0  0  0  0  0
    4.7222   11.1184   -2.2091 H   0  0  0  0  0  0  0  0  0  0  0  0
    4.0333    9.4371   -2.1082 H   0  0  0  0  0  0  0  0  0  0  0  0
    5.6093    9.6918   -3.9987 H   0  0  0  0  0  0  0  0  0  0  0  0
    3.9261    9.3025   -4.5293 H   0  0  0  0  0  0  0  0  0  0  0  0
    4.8184   10.9935   -5.9784 H   0  0  0  0  0  0  0  0  0  0  0  0
    5.3880   12.3000   -3.4850 H   0  0  0  0  0  0  0  0  0  0  0  0
    1.5744   10.4914   -5.1795 H   0  0  0  0  0  0  0  0  0  0  0  0
    1.5611   11.7112   -6.4981 H   0  0  0  0  0  0  0  0  0  0  0  0
    2.7910   10.4020   -6.4981 H   0  0  0  0  0  0  0  0  0  0  0  0
    3.4082   14.1443   -5.1456 H   0  0  0  0  0  0  0  0  0  0  0  0
    4.2085   13.2429   -6.4774 H   0  0  0  0  0  0  0  0  0  0  0  0
    2.4240   13.4484   -6.4774 H   0  0  0  0  0  0  0  0  0  0  0  0
    2.8402   11.5948    0.7533 H   0  0  0  0  0  0  0  0  0  0  0  0
    4.0838   11.2290   -0.4902 H   0  0  0  0  0  0  0  0  0  0  0  0
    3.2552   12.8228   -0.4902 H   0  0  0  0  0  0  0  0  0  0  0  0
    2.3177    9.0263   -1.0160 H   0  0  0  0  0  0  0  0  0  0  0  0
    1.6416    9.9180    0.4617 H   0  0  0  0  0  0  0  0  0  0  0  0
    0.1256    8.9981   -1.9959 H   0  0  0  0  0  0  0  0  0  0  0  0
   -0.0280    8.4164   -0.2916 H   0  0  0  0  0  0  0  0  0  0  0  0
   -0.9572    9.7766    1.4610 H   0  0  0  0  0  0  0  0  0  0  0  0
    0.2037   11.1080    1.1348 H   0  0  0  0  0  0  0  0  0  0  0  0
   -1.5624   11.4361    1.1348 H   0  0  0  0  0  0  0  0  0  0  0  0
  1  2  1  0
  2  3  1  0
  3  4  1  0
  4  5  1  0
  5  6  1  0
  6  7  1  0
  7  8  1  0
  7  9  1  0
  2 10  1  0
 10 11  1  0
 11 12  1  0
 12 13  1  0
 13 14  1  6
 13 15  1  0
 15 16  1  0
 16 17  1  0
 17 18  2  0
 18 19  1  0
 19 20  1  0
 20 21  1  0
 21 22  1  0
 22 23  1  0
 22 24  1  0
 24 25  1  0
 24 26  1  0
 19 27  1  0
 27 28  1  1
 27 29  1  0
 29 30  1  0
 30 31  1  0
 31 32  1  1
  7  5  1  0
 31 10  1  0
 31 13  1  0
 27 15  1  0
 24 18  1  0
  1 33  1  0
  1 34  1  0
  1 35  1  0
  2 36  1  1
  3 37  1  0
  3 38  1  0
  4 39  1  0
  4 40  1  0
  5 41  1  6
  8 42  1  0
  8 43  1  0
  8 44  1  0
  9 45  1  0
  9 46  1  0
  9 47  1  0
 10 48  1  6
 11 49  1  0
 11 50  1  0
 12 51  1  0
 12 52  1  0
 14 53  1  0
 14 54  1  0
 14 55  1  0
 15 56  1  1
 16 57  1  0
 16 58  1  0
 17 59  1  0
 19 60  1  6
 20 61  1  0
 20 62  1  0
 21 63  1  0
 21 64  1  0
 22 65  1  6
 23 66  1  0
 25 67  1  0
 25 68  1  0
 25 69  1  0
 26 70  1  0
 26 71  1  0
 26 72  1  0
 28 73  1  0
 28 74  1  0
 28 75  1  0
 29 76  1  0
 29 77  1  0
 30 78  1  0
 30 79  1  0
 32 80  1  0
 32 81  1  0
 32 82  1  0
M  END
>  <meeko>  (13) 
{"is_sidechain": [false], "intermolecular_energy": 2.731, "internal_energy": -0.839}

$$$$
EPH_relaxed_0001_pdb2pqr_Repair_290_r2_0001_out
     RDKit          3D

 82 86  0  0  0  0  0  0  0  0999 V2000
   -1.8380   14.6290    0.3700 C   0  0  0  0  0  0  0  0  0  0  0  0
   -0.4720   15.3210    0.3650 C   0  0  2  0  0  0  0  0  0  0  0  0
   -0.4070   16.4710   -0.6600 C   0  0  0  0  0  0  0  0  0  0  0  0
    0.5550   17.5950   -0.2650 C   0  0  0  0  0  0  0  0  0  0  0  0
    1.9680   17.2770   -0.6530 C   0  0  2  0  0  0  0  0  0  0  0  0
    2.7420   16.6420    0.3740 O   0  0  0  0  0  0  0  0  0  0  0  0
    3.1770   17.9500   -0.0320 C   0  0  0  0  0  0  0  0  0  0  0  0
    3.0300   18.9960    1.0280 C   0  0  0  0  0  0  0  0  0  0  0  0
    4.4670   17.9470   -0.7930 C   0  0  0  0  0  0  0  0  0  0  0  0
    0.6260   14.3040    0.0760 C   0  0  1  0  0  0  0  0  0  0  0  0
    0.7460   13.2240    1.1840 C   0  0  0  0  0  0  0  0  0  0  0  0
    1.1350   11.9000    0.4780 C   0  0  0  0  0  0  0  0  0  0  0  0
    1.5470   12.3250   -0.9500 C   0  0  1  0  0  0  0  0  0  0  0  0
    3.0170   12.8290   -0.8100 C   0  0  0  0  0  0  0  0  0  0  0  0
    1.4130   11.2340   -2.0620 C   0  0  2  0  0  0  0  0  0  0  0  0
    2.2980    9.9910   -1.8660 C   0  0  0  0  0  0  0  0  0  0  0  0
    3.6500   10.0650   -2.4940 C   0  0  0  0  0  0  0  0  0  0  0  0
    4.0330   10.9610   -3.4230 C   0  0  0  0  0  0  0  0  0  0  0  0
    3.0330   11.9660   -4.0070 C   0  0  1  0  0  0  0  0  0  0  0  0
    3.1760   12.0030   -5.5510 C   0  0  0  0  0  0  0  0  0  0  0  0
    4.6080   12.2770   -5.9990 C   0  0  0  0  0  0  0  0  0  0  0  0
    5.5640   11.2230   -5.4470 C   0  0  2  0  0  0  0  0  0  0  0  0
    5.2590    9.9620   -6.0520 O   0  0  0  0  0  0  0  0  0  0  0  0
    5.5010   11.0890   -3.9000 C   0  0  0  0  0  0  0  0  0  0  0  0
    6.1160   12.3500   -3.2430 C   0  0  0  0  0  0  0  0  0  0  0  0
    6.4070    9.8980   -3.4860 C   0  0  0  0  0  0  0  0  0  0  0  0
    1.5240   11.7950   -3.5380 C   0  0  1  0  0  0  0  0  0  0  0  0
    0.7930   10.7720   -4.4590 C   0  0  0  0  0  0  0  0  0  0  0  0
    0.7720   13.1670   -3.7140 C   0  0  0  0  0  0  0  0  0  0  0  0
    0.8410   14.1550   -2.5330 C   0  0  0  0  0  0  0  0  0  0  0  0
    0.4890   13.4580   -1.2150 C   0  0  2  0  0  0  0  0  0  0  0  0
   -0.9930   12.9610   -1.3180 C   0  0  0  0  0  0  0  0  0  0  0  0
   -2.1621   14.4648    1.4083 H   0  0  0  0  0  0  0  0  0  0  0  0
   -2.5725   15.2637   -0.1473 H   0  0  0  0  0  0  0  0  0  0  0  0
   -1.7607   13.6613   -0.1473 H   0  0  0  0  0  0  0  0  0  0  0  0
   -0.3201   15.7586    1.3627 H   0  0  0  0  0  0  0  0  0  0  0  0
   -0.0800   16.0575   -1.6254 H   0  0  0  0  0  0  0  0  0  0  0  0
   -1.4131   16.9127   -0.7113 H   0  0  0  0  0  0  0  0  0  0  0  0
    0.2466   18.5222   -0.7701 H   0  0  0  0  0  0  0  0  0  0  0  0
    0.5172   17.7106    0.8283 H   0  0  0  0  0  0  0  0  0  0  0  0
    1.6698   17.1159   -1.6995 H   0  0  0  0  0  0  0  0  0  0  0  0
    3.0962   18.5248    2.0198 H   0  0  0  0  0  0  0  0  0  0  0  0
    3.8323   19.7410    0.9217 H   0  0  0  0  0  0  0  0  0  0  0  0
    2.0535   19.4910    0.9217 H   0  0  0  0  0  0  0  0  0  0  0  0
    5.3097   17.9450   -0.0861 H   0  0  0  0  0  0  0  0  0  0  0  0
    4.5173   17.0487   -1.4259 H   0  0  0  0  0  0  0  0  0  0  0  0
    4.5214   18.8450   -1.4259 H   0  0  0  0  0  0  0  0  0  0  0  0
    1.4885   14.9816   -0.0070 H   0  0  0  0  0  0  0  0  0  0  0  0
    1.5229   13.5094    1.9085 H   0  0  0  0  0  0  0  0  0  0  0  0
   -0.2007   13.1151    1.7335 H   0  0  0  0  0  0  0  0  0  0  0  0
    1.9756   11.4159    0.9967 H   0  0  0  0  0  0  0  0  0  0  0  0
    0.3107   11.1716    0.4746 H   0  0  0  0  0  0  0  0  0  0  0  0
    3.2744   12.9173    0.2558 H   0  0  0  0  0  0  0  0  0  0  0  0
    3.6978   12.1129   -1.2936 H   0  0  0  0  0  0  0  0  0  0  0  0
    3.1152   13.8121   -1.2936 H   0  0  0  0  0  0  0  0  0  0  0  0
    0.3773   10.8881   -1.9290 H   0  0  0  0  0  0  0  0  0  0  0  0
    2.4333    9.8372   -0.7852 H   0  0  0  0  0  0  0  0  0  0  0  0
    1.7749    9.1632   -2.3670 H   0  0  0  0  0  0  0  0  0  0  0  0
    4.3966    9.3248   -2.1704 H   0  0  0  0  0  0  0  0  0  0  0  0
    3.3044   12.9445   -3.5840 H   0  0  0  0  0  0  0  0  0  0  0  0
    2.8589   11.0315   -5.9579 H   0  0  0  0  0  0  0  0  0  0  0  0
    2.5461   12.8235   -5.9252 H   0  0  0  0  0  0  0  0  0  0  0  0
    4.6505   12.2611   -7.0981 H   0  0  0  0  0  0  0  0  0  0  0  0
    4.9129   13.2621   -5.6162 H   0  0  0  0  0  0  0  0  0  0  0  0
    6.5869   11.5445   -5.6925 H   0  0  0  0  0  0  0  0  0  0  0  0
    5.5180   10.0150   -6.9870 H   0  0  0  0  0  0  0  0  0  0  0  0
    6.0688   12.2531   -2.1483 H   0  0  0  0  0  0  0  0  0  0  0  0
    7.1652   12.4524   -3.5571 H   0  0  0  0  0  0  0  0  0  0  0  0
    5.5507   13.2398   -3.5571 H   0  0  0  0  0  0  0  0  0  0  0  0
    6.4535    9.8368   -2.3887 H   0  0  0  0  0  0  0  0  0  0  0  0
    5.9898    8.9629   -3.8880 H   0  0  0  0  0  0  0  0  0  0  0  0
    7.4195   10.0505   -3.8880 H   0  0  0  0  0  0  0  0  0  0  0  0
    0.2647   10.0327   -3.8390 H   0  0  0  0  0  0  0  0  0  0  0  0
    0.0684   11.3028   -5.0940 H   0  0  0  0  0  0  0  0  0  0  0  0
    1.5299   10.2585   -5.0940 H   0  0  0  0  0  0  0  0  0  0  0  0
    1.1995   13.6701   -4.5939 H   0  0  0  0  0  0  0  0  0  0  0  0
   -0.2917   12.9020   -3.8052 H   0  0  0  0  0  0  0  0  0  0  0  0
    1.8603   14.5626   -2.4637 H   0  0  0  0  0  0  0  0  0  0  0  0
    0.1150   14.9626   -2.7079 H   0  0  0  0  0  0  0  0  0  0  0  0
   -1.4045   12.8230   -0.3073 H   0  0  0  0  0  0  0  0  0  0  0  0
   -1.5931   13.7070   -1.8595 H   0  0  0  0  0  0  0  0  0  0  0  0
   -1.0220   12.0040   -1.8595 H   0  0  0  0  0  0  0  0  0  0  0  0
  1  2  1  0
  2  3  1  0
  3  4  1  0
  4  5  1  0
  5  6  1  0
  6  7  1  0
  7  8  1  0
  7  9  1  0
  2 10  1  0
 10 11  1  0
 11 12  1  0
 12 13  1  0
 13 14  1  1
 13 15  1  0
 15 16  1  0
 16 17  1  0
 17 18  2  0
 18 19  1  0
 19 20  1  0
 20 21  1  0
 21 22  1  0
 22 23  1  0
 22 24  1  0
 24 25  1  0
 24 26  1  0
 19 27  1  0
 27 28  1  6
 27 29  1  0
 29 30  1  0
 30 31  1  0
 31 32  1  6
  7  5  1  0
 31 10  1  0
 31 13  1  0
 27 15  1  0
 24 18  1  0
  1 33  1  0
  1 34  1  0
  1 35  1  0
  2 36  1  1
  3 37  1  0
  3 38  1  0
  4 39  1  0
  4 40  1  0
  5 41  1  6
  8 42  1  0
  8 43  1  0
  8 44  1  0
  9 45  1  0
  9 46  1  0
  9 47  1  0
 10 48  1  6
 11 49  1  0
 11 50  1  0
 12 51  1  0
 12 52  1  0
 14 53  1  0
 14 54  1  0
 14 55  1  0
 15 56  1  6
 16 57  1  0
 16 58  1  0
 17 59  1  0
 19 60  1  1
 20 61  1  0
 20 62  1  0
 21 63  1  0
 21 64  1  0
 22 65  1  1
 23 66  1  0
 25 67  1  0
 25 68  1  0
 25 69  1  0
 26 70  1  0
 26 71  1  0
 26 72  1  0
 28 73  1  0
 28 74  1  0
 28 75  1  0
 29 76  1  0
 29 77  1  0
 30 78  1  0
 30 79  1  0
 32 80  1  0
 32 81  1  0
 32 82  1  0
M  END
>  <meeko>  (14) 
{"is_sidechain": [false], "intermolecular_energy": 2.731, "internal_energy": -0.839}

$$$$
EPH_relaxed_0001_pdb2pqr_Repair_290_r2_0001_out
     RDKit          3D

 82 86  0  0  0  0  0  0  0  0999 V2000
    0.0170    7.5440   -2.9100 C   0  0  0  0  0  0  0  0  0  0  0  0
   -1.3320    7.8490   -2.2530 C   0  0  2  0  0  0  0  0  0  0  0  0
   -2.5200    7.4580   -3.1550 C   0  0  0  0  0  0  0  0  0  0  0  0
   -3.7400    6.9510   -2.3820 C   0  0  0  0  0  0  0  0  0  0  0  0
   -4.9440    6.8280   -3.2660 C   0  0  2  0  0  0  0  0  0  0  0  0
   -5.9870    7.7730   -2.9920 O   0  0  0  0  0  0  0  0  0  0  0  0
   -6.3080    6.3910   -2.7650 C   0  0  0  0  0  0  0  0  0  0  0  0
   -6.5380    6.0480   -1.3260 C   0  0  0  0  0  0  0  0  0  0  0  0
   -7.2860    5.8290   -3.7490 C   0  0  0  0  0  0  0  0  0  0  0  0
   -1.4140    9.3280   -1.8960 C   0  0  1  0  0  0  0  0  0  0  0  0
   -2.7320    9.6940   -1.1630 C   0  0  0  0  0  0  0  0  0  0  0  0
   -2.3820   10.8030   -0.1380 C   0  0  0  0  0  0  0  0  0  0  0  0
   -0.9630   11.2700   -0.5390 C   0  0  1  0  0  0  0  0  0  0  0  0
   -1.1860   12.2610   -1.7240 C   0  0  0  0  0  0  0  0  0  0  0  0
   -0.1010   11.9130    0.5960 C   0  0  2  0  0  0  0  0  0  0  0  0
   -0.6730   13.2100    1.1950 C   0  0  0  0  0  0  0  0  0  0  0  0
   -0.2280   14.4700    0.5290 C   0  0  0  0  0  0  0  0  0  0  0  0
    0.8110   14.5810   -0.3190 C   0  0  0  0  0  0  0  0  0  0  0  0
    1.7230   13.3820   -0.6100 C   0  0  1  0  0  0  0  0  0  0  0  0
    3.2060   13.8280   -0.5290 C   0  0  0  0  0  0  0  0  0  0  0  0
    3.5090   15.0220   -1.4280 C   0  0  0  0  0  0  0  0  0  0  0  0
    2.6230   16.2130   -1.0690 C   0  0  2  0  0  0  0  0  0  0  0  0
    2.9810   16.6770    0.2360 O   0  0  0  0  0  0  0  0  0  0  0  0
    1.1050   15.8810   -1.1080 C   0  0  0  0  0  0  0  0  0  0  0  0
    0.6560   15.6710   -2.5750 C   0  0  0  0  0  0  0  0  0  0  0  0
    0.3320   17.1230   -0.5910 C   0  0  0  0  0  0  0  0  0  0  0  0
    1.4320   12.0690    0.2360 C   0  0  1  0  0  0  0  0  0  0  0  0
    2.2040   12.1270    1.5900 C   0  0  0  0  0  0  0  0  0  0  0  0
    1.9940   10.8210   -0.5420 C   0  0  0  0  0  0  0  0  0  0  0  0
    1.0520   10.1570   -1.5640 C   0  0  0  0  0  0  0  0  0  0  0  0
   -0.3260    9.8920   -0.9480 C   0  0  2  0  0  0  0  0  0  0  0  0
   -0.1350    8.8810    0.2330 C   0  0  0  0  0  0  0  0  0  0  0  0
    0.7741    7.3728   -2.1306 H   0  0  0  0  0  0  0  0  0  0  0  0
   -0.0750    6.6440   -3.5357 H   0  0  0  0  0  0  0  0  0  0  0  0
    0.3211    8.3961   -3.5357 H   0  0  0  0  0  0  0  0  0  0  0  0
   -1.3986    7.2415   -1.3384 H   0  0  0  0  0  0  0  0  0  0  0  0
   -2.8203    8.3423   -3.7362 H   0  0  0  0  0  0  0  0  0  0  0  0
   -2.1787    6.6307   -3.7947 H   0  0  0  0  0  0  0  0  0  0  0  0
   -3.5075    5.9635   -1.9567 H   0  0  0  0  0  0  0  0  0  0  0  0
   -3.9697    7.6775   -1.5886 H   0  0  0  0  0  0  0  0  0  0  0  0
   -4.3218    6.4854   -4.1060 H   0  0  0  0  0  0  0  0  0  0  0  0
   -6.0392    6.7919   -0.6875 H   0  0  0  0  0  0  0  0  0  0  0  0
   -7.6179    6.0502   -1.1166 H   0  0  0  0  0  0  0  0  0  0  0  0
   -6.1260    5.0498   -1.1166 H   0  0  0  0  0  0  0  0  0  0  0  0
   -8.1167    5.3517   -3.2085 H   0  0  0  0  0  0  0  0  0  0  0  0
   -7.6775    6.6399   -4.3808 H   0  0  0  0  0  0  0  0  0  0  0  0
   -6.7825    5.0824   -4.3808 H   0  0  0  0  0  0  0  0  0  0  0  0
   -1.3039    9.7657   -2.8992 H   0  0  0  0  0  0  0  0  0  0  0  0
   -3.4754   10.0655   -1.8837 H   0  0  0  0  0  0  0  0  0  0  0  0
   -3.1617    8.8144   -0.6612 H   0  0  0  0  0  0  0  0  0  0  0  0
   -3.0984   11.6349   -0.2060 H   0  0  0  0  0  0  0  0  0  0  0  0
   -2.4246   10.4408    0.8998 H   0  0  0  0  0  0  0  0  0  0  0  0
   -1.4112   13.2620   -1.3274 H   0  0  0  0  0  0  0  0  0  0  0  0
   -0.2757   12.3069   -2.3399 H   0  0  0  0  0  0  0  0  0  0  0  0
   -2.0282   11.9125   -2.3399 H   0  0  0  0  0  0  0  0  0  0  0  0
   -0.1659   11.1610    1.3962 H   0  0  0  0  0  0  0  0  0  0  0  0
   -1.7699   13.1599    1.1295 H   0  0  0  0  0  0  0  0  0  0  0  0
   -0.2954   13.2613    2.2269 H   0  0  0  0  0  0  0  0  0  0  0  0
   -0.7975   15.3848    0.7501 H   0  0  0  0  0  0  0  0  0  0  0  0
    1.4864   13.0607   -1.6351 H   0  0  0  0  0  0  0  0  0  0  0  0
    3.4349   14.1031    0.5112 H   0  0  0  0  0  0  0  0  0  0  0  0
    3.8262   12.9867   -0.8719 H   0  0  0  0  0  0  0  0  0  0  0  0
    4.5640   15.3076   -1.3040 H   0  0  0  0  0  0  0  0  0  0  0  0
    3.3084   14.7364   -2.4712 H   0  0  0  0  0  0  0  0  0  0  0  0
    2.7931   16.9913   -1.8275 H   0  0  0  0  0  0  0  0  0  0  0  0
    3.7010   17.3220    0.1320 H   0  0  0  0  0  0  0  0  0  0  0  0
   -0.3403   15.2050   -2.5904 H   0  0  0  0  0  0  0  0  0  0  0  0
    0.6142   16.6430   -3.0884 H   0  0  0  0  0  0  0  0  0  0  0  0
    1.3752   15.0158   -3.0884 H   0  0  0  0  0  0  0  0  0  0  0  0
    0.3319   17.1231    0.5090 H   0  0  0  0  0  0  0  0  0  0  0  0
    0.8205   18.0378   -0.9577 H   0  0  0  0  0  0  0  0  0  0  0  0
   -0.7045   17.0886   -0.9577 H   0  0  0  0  0  0  0  0  0  0  0  0
    1.4877   12.0732    2.4231 H   0  0  0  0  0  0  0  0  0  0  0  0
    2.9017   11.2787    1.6509 H   0  0  0  0  0  0  0  0  0  0  0  0
    2.7671   13.0700    1.6509 H   0  0  0  0  0  0  0  0  0  0  0  0
    2.8961   11.1443   -1.0821 H   0  0  0  0  0  0  0  0  0  0  0  0
    2.1673   10.0557    0.2289 H   0  0  0  0  0  0  0  0  0  0  0  0
    0.9362   10.8226   -2.4321 H   0  0  0  0  0  0  0  0  0  0  0  0
    1.4895    9.1958   -1.8716 H   0  0  0  0  0  0  0  0  0  0  0  0
   -0.2355    9.4127    1.1907 H   0  0  0  0  0  0  0  0  0  0  0  0
   -0.9002    8.0934    0.1688 H   0  0  0  0  0  0  0  0  0  0  0  0
    0.8648    8.4269    0.1688 H   0  0  0  0  0  0  0  0  0  0  0  0
  1  2  1  0
  2  3  1  0
  3  4  1  0
  4  5  1  0
  5  6  1  0
  6  7  1  0
  7  8  1  0
  7  9  1  0
  2 10  1  0
 10 11  1  0
 11 12  1  0
 12 13  1  0
 13 14  1  6
 13 15  1  0
 15 16  1  0
 16 17  1  0
 17 18  2  0
 18 19  1  0
 19 20  1  0
 20 21  1  0
 21 22  1  0
 22 23  1  0
 22 24  1  0
 24 25  1  0
 24 26  1  0
 19 27  1  0
 27 28  1  1
 27 29  1  0
 29 30  1  0
 30 31  1  0
 31 32  1  1
  7  5  1  0
 31 10  1  0
 31 13  1  0
 27 15  1  0
 24 18  1  0
  1 33  1  0
  1 34  1  0
  1 35  1  0
  2 36  1  1
  3 37  1  0
  3 38  1  0
  4 39  1  0
  4 40  1  0
  5 41  1  6
  8 42  1  0
  8 43  1  0
  8 44  1  0
  9 45  1  0
  9 46  1  0
  9 47  1  0
 10 48  1  6
 11 49  1  0
 11 50  1  0
 12 51  1  0
 12 52  1  0
 14 53  1  0
 14 54  1  0
 14 55  1  0
 15 56  1  1
 16 57  1  0
 16 58  1  0
 17 59  1  0
 19 60  1  6
 20 61  1  0
 20 62  1  0
 21 63  1  0
 21 64  1  0
 22 65  1  6
 23 66  1  0
 25 67  1  0
 25 68  1  0
 25 69  1  0
 26 70  1  0
 26 71  1  0
 26 72  1  0
 28 73  1  0
 28 74  1  0
 28 75  1  0
 29 76  1  0
 29 77  1  0
 30 78  1  0
 30 79  1  0
 32 80  1  0
 32 81  1  0
 32 82  1  0
M  END
>  <meeko>  (15) 
{"is_sidechain": [false], "intermolecular_energy": 2.731, "internal_energy": -0.839}

$$$$
EPH_relaxed_0001_pdb2pqr_Repair_290_r2_0001_out
     RDKit          3D

 82 86  0  0  0  0  0  0  0  0999 V2000
    3.4540   17.5840   -0.1810 C   0  0  0  0  0  0  0  0  0  0  0  0
    2.2570   17.2210   -1.0630 C   0  0  2  0  0  0  0  0  0  0  0  0
    0.9130   17.5600   -0.3870 C   0  0  0  0  0  0  0  0  0  0  0  0
    0.9080   18.9150    0.3260 C   0  0  0  0  0  0  0  0  0  0  0  0
   -0.4200   19.2030    0.9590 C   0  0  2  0  0  0  0  0  0  0  0  0
   -1.4020   18.1740    0.7850 O   0  0  0  0  0  0  0  0  0  0  0  0
   -1.6920   19.4370    0.1650 C   0  0  0  0  0  0  0  0  0  0  0  0
   -1.6970   19.3930   -1.3310 C   0  0  0  0  0  0  0  0  0  0  0  0
   -2.8140   20.1840    0.8150 C   0  0  0  0  0  0  0  0  0  0  0  0
    2.3020   15.7390   -1.4160 C   0  0  1  0  0  0  0  0  0  0  0  0
    3.7440   15.2340   -1.6910 C   0  0  0  0  0  0  0  0  0  0  0  0
    3.8150   13.7770   -1.1670 C   0  0  0  0  0  0  0  0  0  0  0  0
    2.3420   13.3800   -0.9160 C   0  0  1  0  0  0  0  0  0  0  0  0
    1.7890   12.9820   -2.3200 C   0  0  0  0  0  0  0  0  0  0  0  0
    2.1000   12.2530    0.1410 C   0  0  2  0  0  0  0  0  0  0  0  0
    2.7100   10.8860   -0.2130 C   0  0  0  0  0  0  0  0  0  0  0  0
    1.8170    9.9690   -0.9810 C   0  0  0  0  0  0  0  0  0  0  0  0
    0.4870   10.1130   -1.1280 C   0  0  0  0  0  0  0  0  0  0  0  0
   -0.2680   11.2340   -0.4030 C   0  0  1  0  0  0  0  0  0  0  0  0
   -1.5480   10.6550    0.2560 C   0  0  0  0  0  0  0  0  0  0  0  0
   -2.4300    9.9060   -0.7370 C   0  0  0  0  0  0  0  0  0  0  0  0
   -1.6610    8.7620   -1.3940 C   0  0  2  0  0  0  0  0  0  0  0  0
   -1.3630    7.7760   -0.4010 O   0  0  0  0  0  0  0  0  0  0  0  0
   -0.3460    9.2240   -2.0830 C   0  0  0  0  0  0  0  0  0  0  0  0
   -0.6840   10.0520   -3.3470 C   0  0  0  0  0  0  0  0  0  0  0  0
    0.4010    7.9580   -2.5820 C   0  0  0  0  0  0  0  0  0  0  0  0
    0.5930   12.1120    0.6040 C   0  0  1  0  0  0  0  0  0  0  0  0
    0.6210   11.4360    2.0090 C   0  0  0  0  0  0  0  0  0  0  0  0
   -0.1070   13.5090    0.7970 C   0  0  0  0  0  0  0  0  0  0  0  0
    0.2640   14.6170   -0.2070 C   0  0  0  0  0  0  0  0  0  0  0  0
    1.7840   14.7380   -0.3540 C   0  0  2  0  0  0  0  0  0  0  0  0
    2.3660   15.1600    1.0380 C   0  0  0  0  0  0  0  0  0  0  0  0
    3.1688   17.4975    0.8779 H   0  0  0  0  0  0  0  0  0  0  0  0
    4.2874   16.8982   -0.3935 H   0  0  0  0  0  0  0  0  0  0  0  0
    3.7661   18.6172   -0.3935 H   0  0  0  0  0  0  0  0  0  0  0  0
    2.3271   17.8245   -1.9800 H   0  0  0  0  0  0  0  0  0  0  0  0
    0.1290   17.5705   -1.1585 H   0  0  0  0  0  0  0  0  0  0  0  0
    0.7360   16.7920    0.3803 H   0  0  0  0  0  0  0  0  0  0  0  0
    1.6819   18.9095    1.1077 H   0  0  0  0  0  0  0  0  0  0  0  0
    1.1086   19.6968   -0.4214 H   0  0  0  0  0  0  0  0  0  0  0  0
    0.0621   19.7747    1.7657 H   0  0  0  0  0  0  0  0  0  0  0  0
   -1.8153   18.3522   -1.6668 H   0  0  0  0  0  0  0  0  0  0  0  0
   -2.5321   19.9986   -1.7129 H   0  0  0  0  0  0  0  0  0  0  0  0
   -0.7473   19.7958   -1.7129 H   0  0  0  0  0  0  0  0  0  0  0  0
   -2.7139   20.1174    1.9084 H   0  0  0  0  0  0  0  0  0  0  0  0
   -2.7787   21.2395    0.5072 H   0  0  0  0  0  0  0  0  0  0  0  0
   -3.7741   19.7442    0.5072 H   0  0  0  0  0  0  0  0  0  0  0  0
    1.6347   15.7382   -2.2905 H   0  0  0  0  0  0  0  0  0  0  0  0
    3.9548   15.2591   -2.7703 H   0  0  0  0  0  0  0  0  0  0  0  0
    4.4878   15.8707   -1.1897 H   0  0  0  0  0  0  0  0  0  0  0  0
    4.2726   13.1162   -1.9180 H   0  0  0  0  0  0  0  0  0  0  0  0
    4.4307   13.6898   -0.2597 H   0  0  0  0  0  0  0  0  0  0  0  0
    0.9018   12.3435   -2.1971 H   0  0  0  0  0  0  0  0  0  0  0  0
    1.5131   13.8900   -2.8763 H   0  0  0  0  0  0  0  0  0  0  0  0
    2.5624   12.4320   -2.8763 H   0  0  0  0  0  0  0  0  0  0  0  0
    2.6677   12.6172    1.0099 H   0  0  0  0  0  0  0  0  0  0  0  0
    3.6140   11.0626   -0.8144 H   0  0  0  0  0  0  0  0  0  0  0  0
    2.9095   10.3844    0.7454 H   0  0  0  0  0  0  0  0  0  0  0  0
    2.2860    9.1015   -1.4684 H   0  0  0  0  0  0  0  0  0  0  0  0
   -0.5447   11.9640   -1.1779 H   0  0  0  0  0  0  0  0  0  0  0  0
   -1.2497    9.9611    1.0557 H   0  0  0  0  0  0  0  0  0  0  0  0
   -2.1320   11.5000    0.6497 H   0  0  0  0  0  0  0  0  0  0  0  0
   -3.3018    9.4958   -0.2062 H   0  0  0  0  0  0  0  0  0  0  0  0
   -2.7522   10.6082   -1.5200 H   0  0  0  0  0  0  0  0  0  0  0  0
   -2.3012    8.3466   -2.1862 H   0  0  0  0  0  0  0  0  0  0  0  0
   -2.2060    7.3940   -0.1030 H   0  0  0  0  0  0  0  0  0  0  0  0
   -1.0840   11.0319   -3.0473 H   0  0  0  0  0  0  0  0  0  0  0  0
    0.2275   10.1956   -3.9458 H   0  0  0  0  0  0  0  0  0  0  0  0
   -1.4356    9.5167   -3.9458 H   0  0  0  0  0  0  0  0  0  0  0  0
    0.7469    7.3719   -1.7178 H   0  0  0  0  0  0  0  0  0  0  0  0
   -0.2808    7.3461   -3.1909 H   0  0  0  0  0  0  0  0  0  0  0  0
    1.2663    8.2589   -3.1909 H   0  0  0  0  0  0  0  0  0  0  0  0
    0.5889   12.2106    2.7893 H   0  0  0  0  0  0  0  0  0  0  0  0
   -0.2505   10.7731    2.1144 H   0  0  0  0  0  0  0  0  0  0  0  0
    1.5443   10.8474    2.1144 H   0  0  0  0  0  0  0  0  0  0  0  0
   -1.1932   13.3490    0.7295 H   0  0  0  0  0  0  0  0  0  0  0  0
    0.2456   13.8750    1.7725 H   0  0  0  0  0  0  0  0  0  0  0  0
   -0.1741   14.3760   -1.1868 H   0  0  0  0  0  0  0  0  0  0  0  0
   -0.1293   15.5741    0.1661 H   0  0  0  0  0  0  0  0  0  0  0  0
    1.7562   14.7179    1.8397 H   0  0  0  0  0  0  0  0  0  0  0  0
    3.4024   14.8021    1.1258 H   0  0  0  0  0  0  0  0  0  0  0  0
    2.3480   16.2563    1.1258 H   0  0  0  0  0  0  0  0  0  0  0  0
  1  2  1  0
  2  3  1  0
  3  4  1  0
  4  5  1  0
  5  6  1  0
  6  7  1  0
  7  8  1  0
  7  9  1  0
  2 10  1  0
 10 11  1  0
 11 12  1  0
 12 13  1  0
 13 14  1  6
 13 15  1  0
 15 16  1  0
 16 17  1  0
 17 18  2  0
 18 19  1  0
 19 20  1  0
 20 21  1  0
 21 22  1  0
 22 23  1  0
 22 24  1  0
 24 25  1  0
 24 26  1  0
 19 27  1  0
 27 28  1  1
 27 29  1  0
 29 30  1  0
 30 31  1  0
 31 32  1  1
  7  5  1  0
 31 10  1  0
 31 13  1  0
 27 15  1  0
 24 18  1  0
  1 33  1  0
  1 34  1  0
  1 35  1  0
  2 36  1  6
  3 37  1  0
  3 38  1  0
  4 39  1  0
  4 40  1  0
  5 41  1  1
  8 42  1  0
  8 43  1  0
  8 44  1  0
  9 45  1  0
  9 46  1  0
  9 47  1  0
 10 48  1  6
 11 49  1  0
 11 50  1  0
 12 51  1  0
 12 52  1  0
 14 53  1  0
 14 54  1  0
 14 55  1  0
 15 56  1  1
 16 57  1  0
 16 58  1  0
 17 59  1  0
 19 60  1  6
 20 61  1  0
 20 62  1  0
 21 63  1  0
 21 64  1  0
 22 65  1  6
 23 66  1  0
 25 67  1  0
 25 68  1  0
 25 69  1  0
 26 70  1  0
 26 71  1  0
 26 72  1  0
 28 73  1  0
 28 74  1  0
 28 75  1  0
 29 76  1  0
 29 77  1  0
 30 78  1  0
 30 79  1  0
 32 80  1  0
 32 81  1  0
 32 82  1  0
M  END
>  <meeko>  (16) 
{"is_sidechain": [false], "intermolecular_energy": 2.731, "internal_energy": -0.839}

$$$$
EPH_relaxed_0001_pdb2pqr_Repair_290_r2_0001_out
     RDKit          3D

 82 86  0  0  0  0  0  0  0  0999 V2000
  -13.9350    9.8730    0.7600 C   0  0  0  0  0  0  0  0  0  0  0  0
  -13.3170    9.3190   -0.5270 C   0  0  2  0  0  0  0  0  0  0  0  0
  -14.2850    8.3860   -1.2820 C   0  0  0  0  0  0  0  0  0  0  0  0
  -14.5580    8.8200   -2.7240 C   0  0  0  0  0  0  0  0  0  0  0  0
  -15.2610   10.1430   -2.7810 C   0  0  2  0  0  0  0  0  0  0  0  0
  -15.0500   10.8810   -3.9920 O   0  0  0  0  0  0  0  0  0  0  0  0
  -14.5360   11.4760   -2.7890 C   0  0  0  0  0  0  0  0  0  0  0  0
  -13.0430   11.5520   -2.7380 C   0  0  0  0  0  0  0  0  0  0  0  0
  -15.2830   12.6980   -2.3550 C   0  0  0  0  0  0  0  0  0  0  0  0
  -12.0250    8.5770   -0.2040 C   0  0  1  0  0  0  0  0  0  0  0  0
  -12.2280    7.4510    0.8440 C   0  0  0  0  0  0  0  0  0  0  0  0
  -11.2600    6.3020    0.4590 C   0  0  0  0  0  0  0  0  0  0  0  0
  -10.3050    6.9290   -0.5840 C   0  0  1  0  0  0  0  0  0  0  0  0
   -9.2470    7.7090    0.2590 C   0  0  0  0  0  0  0  0  0  0  0  0
   -9.6290    5.9380   -1.5860 C   0  0  2  0  0  0  0  0  0  0  0  0
   -8.7040    4.8900   -0.9420 C   0  0  0  0  0  0  0  0  0  0  0  0
   -7.2730    5.2950   -0.8140 C   0  0  0  0  0  0  0  0  0  0  0  0
   -6.6930    6.3290   -1.4510 C   0  0  0  0  0  0  0  0  0  0  0  0
   -7.4720    7.1570   -2.4810 C   0  0  1  0  0  0  0  0  0  0  0  0
   -6.6010    7.3600   -3.7490 C   0  0  0  0  0  0  0  0  0  0  0  0
   -5.2350    7.9610   -3.4300 C   0  0  0  0  0  0  0  0  0  0  0  0
   -4.4680    7.0800   -2.4480 C   0  0  2  0  0  0  0  0  0  0  0  0
   -4.1470    5.8430   -3.0910 O   0  0  0  0  0  0  0  0  0  0  0  0
   -5.2510    6.7980   -1.1350 C   0  0  0  0  0  0  0  0  0  0  0  0
   -5.3360    8.0940   -0.2910 C   0  0  0  0  0  0  0  0  0  0  0  0
   -4.4270    5.7860   -0.2950 C   0  0  0  0  0  0  0  0  0  0  0  0
   -8.9350    6.6390   -2.8230 C   0  0  1  0  0  0  0  0  0  0  0  0
   -8.8710    5.5740   -3.9600 C   0  0  0  0  0  0  0  0  0  0  0  0
   -9.7870    7.8380   -3.3860 C   0  0  0  0  0  0  0  0  0  0  0  0
  -10.5280    8.7090   -2.3530 C   0  0  0  0  0  0  0  0  0  0  0  0
  -11.3170    7.8410   -1.3690 C   0  0  2  0  0  0  0  0  0  0  0  0
  -12.4050    7.0610   -2.1850 C   0  0  0  0  0  0  0  0  0  0  0  0
  -13.4340    9.4239    1.6302 H   0  0  0  0  0  0  0  0  0  0  0  0
  -13.8080   10.9653    0.7871 H   0  0  0  0  0  0  0  0  0  0  0  0
  -15.0070    9.6278    0.7871 H   0  0  0  0  0  0  0  0  0  0  0  0
  -13.1018   10.1734   -1.1855 H   0  0  0  0  0  0  0  0  0  0  0  0
  -13.8506    7.3756   -1.2997 H   0  0  0  0  0  0  0  0  0  0  0  0
  -15.2463    8.4200   -0.7484 H   0  0  0  0  0  0  0  0  0  0  0  0
  -13.6004    8.9018   -3.2591 H   0  0  0  0  0  0  0  0  0  0  0  0
  -15.2078    8.0659   -3.1920 H   0  0  0  0  0  0  0  0  0  0  0  0
  -16.0881    9.7568   -2.1671 H   0  0  0  0  0  0  0  0  0  0  0  0
  -12.7123   11.5688   -1.6890 H   0  0  0  0  0  0  0  0  0  0  0  0
  -12.6137   10.6745   -3.2437 H   0  0  0  0  0  0  0  0  0  0  0  0
  -12.7050   12.4685   -3.2437 H   0  0  0  0  0  0  0  0  0  0  0  0
  -15.3092   12.7408   -1.2561 H   0  0  0  0  0  0  0  0  0  0  0  0
  -14.7781   13.5941   -2.7449 H   0  0  0  0  0  0  0  0  0  0  0  0
  -16.3108   12.6573   -2.7449 H   0  0  0  0  0  0  0  0  0  0  0  0
  -11.4084    9.4216    0.1371 H   0  0  0  0  0  0  0  0  0  0  0  0
  -11.9916    7.8240    1.8515 H   0  0  0  0  0  0  0  0  0  0  0  0
  -13.2713    7.1025    0.8524 H   0  0  0  0  0  0  0  0  0  0  0  0
  -10.6995    5.9551    1.3396 H   0  0  0  0  0  0  0  0  0  0  0  0
  -11.7914    5.4240    0.0632 H   0  0  0  0  0  0  0  0  0  0  0  0
   -9.4492    7.5599    1.3299 H   0  0  0  0  0  0  0  0  0  0  0  0
   -8.2403    7.3354    0.0205 H   0  0  0  0  0  0  0  0  0  0  0  0
   -9.3062    8.7812    0.0205 H   0  0  0  0  0  0  0  0  0  0  0  0
  -10.4893    5.3767   -1.9794 H   0  0  0  0  0  0  0  0  0  0  0  0
   -9.0870    4.6722    0.0659 H   0  0  0  0  0  0  0  0  0  0  0  0
   -8.7149    4.0200   -1.6151 H   0  0  0  0  0  0  0  0  0  0  0  0
   -6.6389    4.6978   -0.1422 H   0  0  0  0  0  0  0  0  0  0  0  0
   -7.6684    8.1285   -2.0038 H   0  0  0  0  0  0  0  0  0  0  0  0
   -6.4523    6.3843   -4.2347 H   0  0  0  0  0  0  0  0  0  0  0  0
   -7.1299    8.0638   -4.4085 H   0  0  0  0  0  0  0  0  0  0  0  0
   -4.6555    8.0521   -4.3605 H   0  0  0  0  0  0  0  0  0  0  0  0
   -5.3845    8.9499   -2.9720 H   0  0  0  0  0  0  0  0  0  0  0  0
   -3.5577    7.6257   -2.1589 H   0  0  0  0  0  0  0  0  0  0  0  0
   -3.9460    6.0390   -4.0220 H   0  0  0  0  0  0  0  0  0  0  0  0
   -5.3191    7.8369    0.7784 H   0  0  0  0  0  0  0  0  0  0  0  0
   -4.4784    8.7415   -0.5260 H   0  0  0  0  0  0  0  0  0  0  0  0
   -6.2708    8.6240   -0.5260 H   0  0  0  0  0  0  0  0  0  0  0  0
   -4.5867    5.9822    0.7755 H   0  0  0  0  0  0  0  0  0  0  0  0
   -4.7516    4.7622   -0.5326 H   0  0  0  0  0  0  0  0  0  0  0  0
   -3.3586    5.8964   -0.5326 H   0  0  0  0  0  0  0  0  0  0  0  0
   -8.8106    4.5686   -3.5177 H   0  0  0  0  0  0  0  0  0  0  0  0
   -9.7752    5.6471   -4.5822 H   0  0  0  0  0  0  0  0  0  0  0  0
   -7.9821    5.7549   -4.5822 H   0  0  0  0  0  0  0  0  0  0  0  0
   -9.1067    8.4946   -3.9481 H   0  0  0  0  0  0  0  0  0  0  0  0
  -10.5790    7.3701   -3.9892 H   0  0  0  0  0  0  0  0  0  0  0  0
   -9.7937    9.3086   -1.7951 H   0  0  0  0  0  0  0  0  0  0  0  0
  -11.2331    9.3628   -2.8871 H   0  0  0  0  0  0  0  0  0  0  0  0
  -13.0981    6.5641   -1.4903 H   0  0  0  0  0  0  0  0  0  0  0  0
  -12.9634    7.7658   -2.8186 H   0  0  0  0  0  0  0  0  0  0  0  0
  -11.9168    6.3059   -2.8186 H   0  0  0  0  0  0  0  0  0  0  0  0
  1  2  1  0
  2  3  1  0
  3  4  1  0
  4  5  1  0
  5  6  1  0
  6  7  1  0
  7  8  1  0
  7  9  1  0
  2 10  1  0
 10 11  1  0
 11 12  1  0
 12 13  1  0
 13 14  1  1
 13 15  1  0
 15 16  1  0
 16 17  1  0
 17 18  2  0
 18 19  1  0
 19 20  1  0
 20 21  1  0
 21 22  1  0
 22 23  1  0
 22 24  1  0
 24 25  1  0
 24 26  1  0
 19 27  1  0
 27 28  1  6
 27 29  1  0
 29 30  1  0
 30 31  1  0
 31 32  1  6
  7  5  1  0
 31 10  1  0
 31 13  1  0
 27 15  1  0
 24 18  1  0
  1 33  1  0
  1 34  1  0
  1 35  1  0
  2 36  1  6
  3 37  1  0
  3 38  1  0
  4 39  1  0
  4 40  1  0
  5 41  1  1
  8 42  1  0
  8 43  1  0
  8 44  1  0
  9 45  1  0
  9 46  1  0
  9 47  1  0
 10 48  1  1
 11 49  1  0
 11 50  1  0
 12 51  1  0
 12 52  1  0
 14 53  1  0
 14 54  1  0
 14 55  1  0
 15 56  1  6
 16 57  1  0
 16 58  1  0
 17 59  1  0
 19 60  1  1
 20 61  1  0
 20 62  1  0
 21 63  1  0
 21 64  1  0
 22 65  1  1
 23 66  1  0
 25 67  1  0
 25 68  1  0
 25 69  1  0
 26 70  1  0
 26 71  1  0
 26 72  1  0
 28 73  1  0
 28 74  1  0
 28 75  1  0
 29 76  1  0
 29 77  1  0
 30 78  1  0
 30 79  1  0
 32 80  1  0
 32 81  1  0
 32 82  1  0
M  END
>  <meeko>  (17) 
{"is_sidechain": [false], "intermolecular_energy": 2.731, "internal_energy": -0.839}

$$$$
EPH_relaxed_0001_pdb2pqr_Repair_290_r2_0001_out
     RDKit          3D

 82 86  0  0  0  0  0  0  0  0999 V2000
  -15.2310    8.9720    0.9310 C   0  0  0  0  0  0  0  0  0  0  0  0
  -14.3990    9.2000   -0.3340 C   0  0  2  0  0  0  0  0  0  0  0  0
  -14.7840    8.2270   -1.4660 C   0  0  0  0  0  0  0  0  0  0  0  0
  -14.6350    8.8240   -2.8680 C   0  0  0  0  0  0  0  0  0  0  0  0
  -15.2880   10.1690   -2.9700 C   0  0  2  0  0  0  0  0  0  0  0  0
  -14.9100   10.9320   -4.1240 O   0  0  0  0  0  0  0  0  0  0  0  0
  -14.5290   11.4780   -2.8500 C   0  0  0  0  0  0  0  0  0  0  0  0
  -13.0510   11.5050   -2.6160 C   0  0  0  0  0  0  0  0  0  0  0  0
  -15.2870   12.7120   -2.4720 C   0  0  0  0  0  0  0  0  0  0  0  0
  -12.9150    9.0630   -0.0120 C   0  0  1  0  0  0  0  0  0  0  0  0
  -12.6310    9.0840    1.5140 C   0  0  0  0  0  0  0  0  0  0  0  0
  -11.4400    8.1230    1.7600 C   0  0  0  0  0  0  0  0  0  0  0  0
  -10.8690    7.8400    0.3510 C   0  0  1  0  0  0  0  0  0  0  0  0
   -9.9690    9.0740    0.0280 C   0  0  0  0  0  0  0  0  0  0  0  0
  -10.0890    6.4960    0.1790 C   0  0  2  0  0  0  0  0  0  0  0  0
   -8.8180    6.3640    1.0360 C   0  0  0  0  0  0  0  0  0  0  0  0
   -7.5620    6.8510    0.3940 C   0  0  0  0  0  0  0  0  0  0  0  0
   -7.4030    7.1070   -0.9180 C   0  0  0  0  0  0  0  0  0  0  0  0
   -8.5290    6.8170   -1.9190 C   0  0  1  0  0  0  0  0  0  0  0  0
   -7.9460    6.0800   -3.1540 C   0  0  0  0  0  0  0  0  0  0  0  0
   -6.7800    6.8320   -3.7880 C   0  0  0  0  0  0  0  0  0  0  0  0
   -5.6570    7.0500   -2.7780 C   0  0  2  0  0  0  0  0  0  0  0  0
   -5.0910    5.7810   -2.4360 O   0  0  0  0  0  0  0  0  0  0  0  0
   -6.1270    7.7770   -1.4870 C   0  0  0  0  0  0  0  0  0  0  0  0
   -6.4570    9.2540   -1.8120 C   0  0  0  0  0  0  0  0  0  0  0  0
   -4.9340    7.8070   -0.4940 C   0  0  0  0  0  0  0  0  0  0  0  0
   -9.8140    6.0950   -1.3270 C   0  0  1  0  0  0  0  0  0  0  0  0
   -9.6120    4.5490   -1.3460 C   0  0  0  0  0  0  0  0  0  0  0  0
  -11.0470    6.3920   -2.2600 C   0  0  0  0  0  0  0  0  0  0  0  0
  -11.8490    7.6740   -1.9640 C   0  0  0  0  0  0  0  0  0  0  0  0
  -12.2030    7.7680   -0.4770 C   0  0  2  0  0  0  0  0  0  0  0  0
  -13.1270    6.5510   -0.1270 C   0  0  0  0  0  0  0  0  0  0  0  0
  -14.6039    9.1439    1.8182 H   0  0  0  0  0  0  0  0  0  0  0  0
  -16.0808    9.6704    0.9418 H   0  0  0  0  0  0  0  0  0  0  0  0
  -15.6060    7.9380    0.9418 H   0  0  0  0  0  0  0  0  0  0  0  0
  -14.6101   10.2195   -0.6891 H   0  0  0  0  0  0  0  0  0  0  0  0
  -14.1378    7.3396   -1.3959 H   0  0  0  0  0  0  0  0  0  0  0  0
  -15.8482    7.9829   -1.3320 H   0  0  0  0  0  0  0  0  0  0  0  0
  -13.5646    8.9290   -3.0988 H   0  0  0  0  0  0  0  0  0  0  0  0
  -15.1280    8.1484   -3.5825 H   0  0  0  0  0  0  0  0  0  0  0  0
  -16.1946    9.7934   -2.4730 H   0  0  0  0  0  0  0  0  0  0  0  0
  -12.8510   11.5087   -1.5343 H   0  0  0  0  0  0  0  0  0  0  0  0
  -12.5914   10.6151   -3.0708 H   0  0  0  0  0  0  0  0  0  0  0  0
  -12.6242   12.4111   -3.0708 H   0  0  0  0  0  0  0  0  0  0  0  0
  -15.3356   12.7911   -1.3759 H   0  0  0  0  0  0  0  0  0  0  0  0
  -14.7759   13.5960   -2.8811 H   0  0  0  0  0  0  0  0  0  0  0  0
  -16.3065   12.6558   -2.8811 H   0  0  0  0  0  0  0  0  0  0  0  0
  -12.5246    9.9276   -0.5688 H   0  0  0  0  0  0  0  0  0  0  0  0
  -12.3689   10.1024    1.8366 H   0  0  0  0  0  0  0  0  0  0  0  0
  -13.5169    8.7696    2.0852 H   0  0  0  0  0  0  0  0  0  0  0  0
  -10.6813    8.6003    2.3977 H   0  0  0  0  0  0  0  0  0  0  0  0
  -11.7471    7.2025    2.2781 H   0  0  0  0  0  0  0  0  0  0  0  0
   -9.6312    9.5372    0.9668 H   0  0  0  0  0  0  0  0  0  0  0  0
   -9.0952    8.7479   -0.5552 H   0  0  0  0  0  0  0  0  0  0  0  0
  -10.5465    9.8064   -0.5552 H   0  0  0  0  0  0  0  0  0  0  0  0
  -10.7987    5.7586    0.5822 H   0  0  0  0  0  0  0  0  0  0  0  0
   -8.9712    6.9383    1.9616 H   0  0  0  0  0  0  0  0  0  0  0  0
   -8.6753    5.2863    1.2041 H   0  0  0  0  0  0  0  0  0  0  0  0
   -6.6928    7.0146    1.0480 H   0  0  0  0  0  0  0  0  0  0  0  0
   -8.9267    7.7967   -2.2224 H   0  0  0  0  0  0  0  0  0  0  0  0
   -7.5948    5.0865   -2.8383 H   0  0  0  0  0  0  0  0  0  0  0  0
   -8.7448    6.0070   -3.9068 H   0  0  0  0  0  0  0  0  0  0  0  0
   -6.3931    6.2474   -4.6357 H   0  0  0  0  0  0  0  0  0  0  0  0
   -7.1400    7.8137   -4.1297 H   0  0  0  0  0  0  0  0  0  0  0  0
   -4.9097    7.7034   -3.2520 H   0  0  0  0  0  0  0  0  0  0  0  0
   -5.4840    5.5010   -1.5920 H   0  0  0  0  0  0  0  0  0  0  0  0
   -6.5826    9.8164   -0.8750 H   0  0  0  0  0  0  0  0  0  0  0  0
   -5.6349    9.6935   -2.3960 H   0  0  0  0  0  0  0  0  0  0  0  0
   -7.3880    9.3018   -2.3960 H   0  0  0  0  0  0  0  0  0  0  0  0
   -5.3154    7.7974    0.5377 H   0  0  0  0  0  0  0  0  0  0  0  0
   -4.2981    6.9246   -0.6581 H   0  0  0  0  0  0  0  0  0  0  0  0
   -4.3432    8.7203   -0.6581 H   0  0  0  0  0  0  0  0  0  0  0  0
   -9.5629    4.1729   -0.3135 H   0  0  0  0  0  0  0  0  0  0  0  0
  -10.4559    4.0754   -1.8690 H   0  0  0  0  0  0  0  0  0  0  0  0
   -8.6747    4.3081   -1.8690 H   0  0  0  0  0  0  0  0  0  0  0  0
  -10.6736    6.4639   -3.2922 H   0  0  0  0  0  0  0  0  0  0  0  0
  -11.7497    5.5649   -2.0806 H   0  0  0  0  0  0  0  0  0  0  0  0
  -11.2455    8.5493   -2.2463 H   0  0  0  0  0  0  0  0  0  0  0  0
  -12.7822    7.6461   -2.5456 H   0  0  0  0  0  0  0  0  0  0  0  0
  -13.2031    6.4508    0.9658 H   0  0  0  0  0  0  0  0  0  0  0  0
  -14.1285    6.7172   -0.5506 H   0  0  0  0  0  0  0  0  0  0  0  0
  -12.6978    5.6310   -0.5506 H   0  0  0  0  0  0  0  0  0  0  0  0
  1  2  1  0
  2  3  1  0
  3  4  1  0
  4  5  1  0
  5  6  1  0
  6  7  1  0
  7  8  1  0
  7  9  1  0
  2 10  1  0
 10 11  1  0
 11 12  1  0
 12 13  1  0
 13 14  1  6
 13 15  1  0
 15 16  1  0
 16 17  1  0
 17 18  2  0
 18 19  1  0
 19 20  1  0
 20 21  1  0
 21 22  1  0
 22 23  1  0
 22 24  1  0
 24 25  1  0
 24 26  1  0
 19 27  1  0
 27 28  1  1
 27 29  1  0
 29 30  1  0
 30 31  1  0
 31 32  1  1
  7  5  1  0
 31 10  1  0
 31 13  1  0
 27 15  1  0
 24 18  1  0
  1 33  1  0
  1 34  1  0
  1 35  1  0
  2 36  1  6
  3 37  1  0
  3 38  1  0
  4 39  1  0
  4 40  1  0
  5 41  1  1
  8 42  1  0
  8 43  1  0
  8 44  1  0
  9 45  1  0
  9 46  1  0
  9 47  1  0
 10 48  1  6
 11 49  1  0
 11 50  1  0
 12 51  1  0
 12 52  1  0
 14 53  1  0
 14 54  1  0
 14 55  1  0
 15 56  1  1
 16 57  1  0
 16 58  1  0
 17 59  1  0
 19 60  1  6
 20 61  1  0
 20 62  1  0
 21 63  1  0
 21 64  1  0
 22 65  1  6
 23 66  1  0
 25 67  1  0
 25 68  1  0
 25 69  1  0
 26 70  1  0
 26 71  1  0
 26 72  1  0
 28 73  1  0
 28 74  1  0
 28 75  1  0
 29 76  1  0
 29 77  1  0
 30 78  1  0
 30 79  1  0
 32 80  1  0
 32 81  1  0
 32 82  1  0
M  END
>  <meeko>  (18) 
{"is_sidechain": [false], "intermolecular_energy": 2.731, "internal_energy": -0.839}

$$$$
