EPH_relaxed_0001_pdb2pqr_Repair_377_r2_0001_out
     RDKit          3D

 82 86  0  0  0  0  0  0  0  0999 V2000
   -1.6430    8.5960   -1.7670 C   0  0  0  0  0  0  0  0  0  0  0  0
   -2.0480    9.1890   -0.4140 C   0  0  2  0  0  0  0  0  0  0  0  0
   -3.5320    9.6050   -0.3830 C   0  0  0  0  0  0  0  0  0  0  0  0
   -4.4730    8.4920    0.0870 C   0  0  0  0  0  0  0  0  0  0  0  0
   -5.8410    8.6340   -0.5090 C   0  0  2  0  0  0  0  0  0  0  0  0
   -6.8360    7.7780    0.0650 O   0  0  0  0  0  0  0  0  0  0  0  0
   -6.5190    7.5430   -1.3160 C   0  0  0  0  0  0  0  0  0  0  0  0
   -5.8480    6.2300   -1.5730 C   0  0  0  0  0  0  0  0  0  0  0  0
   -7.6160    7.9280   -2.2600 C   0  0  0  0  0  0  0  0  0  0  0  0
   -1.1640   10.3870   -0.0870 C   0  0  1  0  0  0  0  0  0  0  0  0
   -0.0850   10.0600    0.9800 C   0  0  0  0  0  0  0  0  0  0  0  0
    1.1750   10.8830    0.6080 C   0  0  0  0  0  0  0  0  0  0  0  0
    0.6810   11.8970   -0.4500 C   0  0  1  0  0  0  0  0  0  0  0  0
    0.0190   13.0460    0.3740 C   0  0  0  0  0  0  0  0  0  0  0  0
    1.7600   12.4450   -1.4400 C   0  0  2  0  0  0  0  0  0  0  0  0
    2.9000   13.2440   -0.7850 C   0  0  0  0  0  0  0  0  0  0  0  0
    2.6640   14.7140   -0.6710 C   0  0  0  0  0  0  0  0  0  0  0  0
    1.7150   15.4070   -1.3270 C   0  0  0  0  0  0  0  0  0  0  0  0
    0.8170   14.7240   -2.3660 C   0  0  1  0  0  0  0  0  0  0  0  0
    0.7370   15.6040   -3.6410 C   0  0  0  0  0  0  0  0  0  0  0  0
    0.2970   17.0330   -3.3390 C   0  0  0  0  0  0  0  0  0  0  0  0
    1.2480   17.6980   -2.3470 C   0  0  2  0  0  0  0  0  0  0  0  0
    2.5230   17.8660   -2.9730 O   0  0  0  0  0  0  0  0  0  0  0  0
    1.4150   16.8960   -1.0260 C   0  0  0  0  0  0  0  0  0  0  0  0
    0.1060   16.9710   -0.2020 C   0  0  0  0  0  0  0  0  0  0  0  0
    2.5050   17.6010   -0.1740 C   0  0  0  0  0  0  0  0  0  0  0  0
    1.1640   13.2070   -2.6920 C   0  0  1  0  0  0  0  0  0  0  0  0
    2.2460   13.1380   -3.8120 C   0  0  0  0  0  0  0  0  0  0  0  0
   -0.1190   12.4990   -3.2690 C   0  0  0  0  0  0  0  0  0  0  0  0
   -1.0860   11.8730   -2.2460 C   0  0  0  0  0  0  0  0  0  0  0  0
   -0.3320   10.9940   -1.2440 C   0  0  2  0  0  0  0  0  0  0  0  0
    0.3260    9.8170   -2.0420 C   0  0  0  0  0  0  0  0  0  0  0  0
   -1.0294    7.6976   -1.6047 H   0  0  0  0  0  0  0  0  0  0  0  0
   -2.5460    8.3257   -2.3340 H   0  0  0  0  0  0  0  0  0  0  0  0
   -1.0627    9.3388   -2.3340 H   0  0  0  0  0  0  0  0  0  0  0  0
   -1.9094    8.4058    0.3458 H   0  0  0  0  0  0  0  0  0  0  0  0
   -3.6386   10.4612    0.2993 H   0  0  0  0  0  0  0  0  0  0  0  0
   -3.8181    9.8535   -1.4157 H   0  0  0  0  0  0  0  0  0  0  0  0
   -4.0531    7.5203   -0.2119 H   0  0  0  0  0  0  0  0  0  0  0  0
   -4.5667    8.5613    1.1808 H   0  0  0  0  0  0  0  0  0  0  0  0
   -5.6679    9.7015   -0.7104 H   0  0  0  0  0  0  0  0  0  0  0  0
   -5.6026    5.7498   -0.6143 H   0  0  0  0  0  0  0  0  0  0  0  0
   -6.5239    5.5789   -2.1468 H   0  0  0  0  0  0  0  0  0  0  0  0
   -4.9244    6.3963   -2.1468 H   0  0  0  0  0  0  0  0  0  0  0  0
   -8.5014    8.2387   -1.6860 H   0  0  0  0  0  0  0  0  0  0  0  0
   -7.2787    8.7615   -2.8937 H   0  0  0  0  0  0  0  0  0  0  0  0
   -7.8736    7.0666   -2.8937 H   0  0  0  0  0  0  0  0  0  0  0  0
   -1.9349   11.1017    0.2369 H   0  0  0  0  0  0  0  0  0  0  0  0
   -0.4425   10.3457    1.9803 H   0  0  0  0  0  0  0  0  0  0  0  0
    0.1380    8.9830    0.9993 H   0  0  0  0  0  0  0  0  0  0  0  0
    1.5720   11.4055    1.4908 H   0  0  0  0  0  0  0  0  0  0  0  0
    1.9902   10.2490    0.2292 H   0  0  0  0  0  0  0  0  0  0  0  0
    0.1368   12.8416    1.4484 H   0  0  0  0  0  0  0  0  0  0  0  0
    0.5051   14.0014    0.1271 H   0  0  0  0  0  0  0  0  0  0  0  0
   -1.0513   13.1046    0.1271 H   0  0  0  0  0  0  0  0  0  0  0  0
    2.2224   11.5220   -1.8198 H   0  0  0  0  0  0  0  0  0  0  0  0
    3.0563   12.8451    0.2281 H   0  0  0  0  0  0  0  0  0  0  0  0
    3.7727   13.1258   -1.4441 H   0  0  0  0  0  0  0  0  0  0  0  0
    3.3216   15.2783    0.0066 H   0  0  0  0  0  0  0  0  0  0  0  0
   -0.1781   14.6466   -1.9036 H   0  0  0  0  0  0  0  0  0  0  0  0
    1.7305   15.6331   -4.1122 H   0  0  0  0  0  0  0  0  0  0  0  0
   -0.0147   15.1572   -4.3083 H   0  0  0  0  0  0  0  0  0  0  0  0
    0.2890   17.6125   -4.2739 H   0  0  0  0  0  0  0  0  0  0  0  0
   -0.7094   17.0045   -2.8958 H   0  0  0  0  0  0  0  0  0  0  0  0
    0.8105   18.6686   -2.0705 H   0  0  0  0  0  0  0  0  0  0  0  0
    3.1230   17.1950   -2.6040 H   0  0  0  0  0  0  0  0  0  0  0  0
    0.3470   16.9572    0.8712 H   0  0  0  0  0  0  0  0  0  0  0  0
   -0.4280   17.9012   -0.4459 H   0  0  0  0  0  0  0  0  0  0  0  0
   -0.5308   16.1079   -0.4459 H   0  0  0  0  0  0  0  0  0  0  0  0
    2.2846   17.4584    0.8942 H   0  0  0  0  0  0  0  0  0  0  0  0
    3.4891   17.1679   -0.4063 H   0  0  0  0  0  0  0  0  0  0  0  0
    2.5135   18.6762   -0.4063 H   0  0  0  0  0  0  0  0  0  0  0  0
    3.2441   13.0743   -3.3541 H   0  0  0  0  0  0  0  0  0  0  0  0
    2.0715   12.2492   -4.4361 H   0  0  0  0  0  0  0  0  0  0  0  0
    2.1859   14.0418   -4.4361 H   0  0  0  0  0  0  0  0  0  0  0  0
   -0.6824   13.2485   -3.8442 H   0  0  0  0  0  0  0  0  0  0  0  0
    0.2606   11.6534   -3.8613 H   0  0  0  0  0  0  0  0  0  0  0  0
   -1.6032   12.6767   -1.7014 H   0  0  0  0  0  0  0  0  0  0  0  0
   -1.8100   11.2458   -2.7867 H   0  0  0  0  0  0  0  0  0  0  0  0
    0.7377    9.0805   -1.3362 H   0  0  0  0  0  0  0  0  0  0  0  0
   -0.4328    9.3338   -2.6750 H   0  0  0  0  0  0  0  0  0  0  0  0
    1.1351   10.2104   -2.6750 H   0  0  0  0  0  0  0  0  0  0  0  0
  1  2  1  0
  2  3  1  0
  3  4  1  0
  4  5  1  0
  5  6  1  0
  6  7  1  0
  7  8  1  0
  7  9  1  0
  2 10  1  0
 10 11  1  0
 11 12  1  0
 12 13  1  0
 13 14  1  1
 13 15  1  0
 15 16  1  0
 16 17  1  0
 17 18  2  0
 18 19  1  0
 19 20  1  0
 20 21  1  0
 21 22  1  0
 22 23  1  0
 22 24  1  0
 24 25  1  0
 24 26  1  0
 19 27  1  0
 27 28  1  6
 27 29  1  0
 29 30  1  0
 30 31  1  0
 31 32  1  6
  7  5  1  0
 31 10  1  0
 31 13  1  0
 27 15  1  0
 24 18  1  0
  1 33  1  0
  1 34  1  0
  1 35  1  0
  2 36  1  1
  3 37  1  0
  3 38  1  0
  4 39  1  0
  4 40  1  0
  5 41  1  6
  8 42  1  0
  8 43  1  0
  8 44  1  0
  9 45  1  0
  9 46  1  0
  9 47  1  0
 10 48  1  1
 11 49  1  0
 11 50  1  0
 12 51  1  0
 12 52  1  0
 14 53  1  0
 14 54  1  0
 14 55  1  0
 15 56  1  6
 16 57  1  0
 16 58  1  0
 17 59  1  0
 19 60  1  1
 20 61  1  0
 20 62  1  0
 21 63  1  0
 21 64  1  0
 22 65  1  1
 23 66  1  0
 25 67  1  0
 25 68  1  0
 25 69  1  0
 26 70  1  0
 26 71  1  0
 26 72  1  0
 28 73  1  0
 28 74  1  0
 28 75  1  0
 29 76  1  0
 29 77  1  0
 30 78  1  0
 30 79  1  0
 32 80  1  0
 32 81  1  0
 32 82  1  0
M  END
>  <meeko>  (1) 
{"is_sidechain": [false], "intermolecular_energy": 2.731, "internal_energy": -0.839}

$$$$
EPH_relaxed_0001_pdb2pqr_Repair_377_r2_0001_out
     RDKit          3D

 82 86  0  0  0  0  0  0  0  0999 V2000
    2.3090   18.0610   -2.7450 C   0  0  0  0  0  0  0  0  0  0  0  0
    1.0170   17.6740   -2.0190 C   0  0  2  0  0  0  0  0  0  0  0  0
    1.1680   17.7510   -0.4870 C   0  0  0  0  0  0  0  0  0  0  0  0
    0.8110   19.1200    0.0990 C   0  0  0  0  0  0  0  0  0  0  0  0
   -0.6390   19.2040    0.4700 C   0  0  2  0  0  0  0  0  0  0  0  0
   -1.4900   18.2860   -0.2290 O   0  0  0  0  0  0  0  0  0  0  0  0
   -1.7200   19.6810   -0.4810 C   0  0  0  0  0  0  0  0  0  0  0  0
   -1.3960   20.1080   -1.8790 C   0  0  0  0  0  0  0  0  0  0  0  0
   -3.0030   20.1940    0.0930 C   0  0  0  0  0  0  0  0  0  0  0  0
    0.5900   16.2700   -2.4310 C   0  0  1  0  0  0  0  0  0  0  0  0
    0.7030   16.0360   -3.9610 C   0  0  0  0  0  0  0  0  0  0  0  0
    1.1230   14.5560   -4.1570 C   0  0  0  0  0  0  0  0  0  0  0  0
    0.9160   13.9050   -2.7700 C   0  0  1  0  0  0  0  0  0  0  0  0
   -0.6110   13.5930   -2.6970 C   0  0  0  0  0  0  0  0  0  0  0  0
    1.7800   12.6370   -2.4660 C   0  0  2  0  0  0  0  0  0  0  0  0
    1.5210   11.4350   -3.3900 C   0  0  0  0  0  0  0  0  0  0  0  0
    0.4680   10.4850   -2.9220 C   0  0  0  0  0  0  0  0  0  0  0  0
   -0.0400   10.4340   -1.6760 C   0  0  0  0  0  0  0  0  0  0  0  0
    0.5160   11.3280   -0.5610 C   0  0  1  0  0  0  0  0  0  0  0  0
    0.7410   10.4800    0.7190 C   0  0  0  0  0  0  0  0  0  0  0  0
   -0.5120    9.7230    1.1480 C   0  0  0  0  0  0  0  0  0  0  0  0
   -1.0000    8.8010    0.0330 C   0  0  2  0  0  0  0  0  0  0  0  0
   -0.0340    7.7650   -0.1640 O   0  0  0  0  0  0  0  0  0  0  0  0
   -1.2530    9.5430   -1.3090 C   0  0  0  0  0  0  0  0  0  0  0  0
   -2.5000   10.4510   -1.1750 C   0  0  0  0  0  0  0  0  0  0  0  0
   -1.6040    8.4790   -2.3840 C   0  0  0  0  0  0  0  0  0  0  0  0
    1.7840   12.2060   -0.9430 C   0  0  1  0  0  0  0  0  0  0  0  0
    3.0890   11.3820   -0.7180 C   0  0  0  0  0  0  0  0  0  0  0  0
    1.8660   13.4420    0.0290 C   0  0  0  0  0  0  0  0  0  0  0  0
    1.0880   14.7050   -0.3860 C   0  0  0  0  0  0  0  0  0  0  0  0
    1.3890   15.0810   -1.8400 C   0  0  2  0  0  0  0  0  0  0  0  0
    2.9150   15.4230   -1.9400 C   0  0  0  0  0  0  0  0  0  0  0  0
    3.0892   18.2947   -2.0056 H   0  0  0  0  0  0  0  0  0  0  0  0
    2.6406   17.2227   -3.3754 H   0  0  0  0  0  0  0  0  0  0  0  0
    2.1251   18.9435   -3.3754 H   0  0  0  0  0  0  0  0  0  0  0  0
    0.2425   18.3983   -2.3114 H   0  0  0  0  0  0  0  0  0  0  0  0
    0.5074   16.9967   -0.0346 H   0  0  0  0  0  0  0  0  0  0  0  0
    2.2289   17.5707   -0.2592 H   0  0  0  0  0  0  0  0  0  0  0  0
    1.4197   19.2921    0.9990 H   0  0  0  0  0  0  0  0  0  0  0  0
    1.0136   19.8837   -0.6663 H   0  0  0  0  0  0  0  0  0  0  0  0
   -0.3826   19.4928    1.5000 H   0  0  0  0  0  0  0  0  0  0  0  0
   -0.7313   20.9840   -1.8501 H   0  0  0  0  0  0  0  0  0  0  0  0
   -0.8938   19.2840   -2.4070 H   0  0  0  0  0  0  0  0  0  0  0  0
   -2.3248   20.3698   -2.4070 H   0  0  0  0  0  0  0  0  0  0  0  0
   -2.9480   20.1720    1.1914 H   0  0  0  0  0  0  0  0  0  0  0  0
   -3.1687   21.2275   -0.2452 H   0  0  0  0  0  0  0  0  0  0  0  0
   -3.8356   19.5596   -0.2452 H   0  0  0  0  0  0  0  0  0  0  0  0
   -0.4366   16.2664   -2.0360 H   0  0  0  0  0  0  0  0  0  0  0  0
   -0.2670   16.2219   -4.4454 H   0  0  0  0  0  0  0  0  0  0  0  0
    1.4385   16.7185   -4.4119 H   0  0  0  0  0  0  0  0  0  0  0  0
    0.4892   14.0693   -4.9129 H   0  0  0  0  0  0  0  0  0  0  0  0
    2.1596   14.4601   -4.5124 H   0  0  0  0  0  0  0  0  0  0  0  0
   -0.9223   13.5294   -1.6439 H   0  0  0  0  0  0  0  0  0  0  0  0
   -1.1734   14.3948   -3.1978 H   0  0  0  0  0  0  0  0  0  0  0  0
   -0.8138   12.6349   -3.1978 H   0  0  0  0  0  0  0  0  0  0  0  0
    2.7975   12.9815   -2.7027 H   0  0  0  0  0  0  0  0  0  0  0  0
    1.2166   11.8220   -4.3736 H   0  0  0  0  0  0  0  0  0  0  0  0
    2.4594   10.8615   -3.4130 H   0  0  0  0  0  0  0  0  0  0  0  0
    0.0745    9.7669   -3.6565 H   0  0  0  0  0  0  0  0  0  0  0  0
   -0.2526   12.0919   -0.3721 H   0  0  0  0  0  0  0  0  0  0  0  0
    1.5426    9.7526    0.5235 H   0  0  0  0  0  0  0  0  0  0  0  0
    1.0091   11.1696    1.5330 H   0  0  0  0  0  0  0  0  0  0  0  0
   -0.2813    9.1202    2.0387 H   0  0  0  0  0  0  0  0  0  0  0  0
   -1.3039   10.4527    1.3725 H   0  0  0  0  0  0  0  0  0  0  0  0
   -1.9686    8.3857    0.3484 H   0  0  0  0  0  0  0  0  0  0  0  0
    0.6240    8.0930   -0.8010 H   0  0  0  0  0  0  0  0  0  0  0  0
   -2.7227   10.6132   -0.1101 H   0  0  0  0  0  0  0  0  0  0  0  0
   -2.3029   11.4185   -1.6599 H   0  0  0  0  0  0  0  0  0  0  0  0
   -3.3603    9.9664   -1.6599 H   0  0  0  0  0  0  0  0  0  0  0  0
   -1.9118    7.5459   -1.8895 H   0  0  0  0  0  0  0  0  0  0  0  0
   -2.4274    8.8500   -3.0120 H   0  0  0  0  0  0  0  0  0  0  0  0
   -0.7215    8.2873   -3.0120 H   0  0  0  0  0  0  0  0  0  0  0  0
    3.2693   11.2682    0.3611 H   0  0  0  0  0  0  0  0  0  0  0  0
    2.9795   10.3889   -1.1782 H   0  0  0  0  0  0  0  0  0  0  0  0
    3.9386   11.9078   -1.1782 H   0  0  0  0  0  0  0  0  0  0  0  0
    1.4815   13.1212    1.0084 H   0  0  0  0  0  0  0  0  0  0  0  0
    2.9244   13.7417    0.0248 H   0  0  0  0  0  0  0  0  0  0  0  0
    0.0098   14.5148   -0.2793 H   0  0  0  0  0  0  0  0  0  0  0  0
    1.3982   15.5372    0.2630 H   0  0  0  0  0  0  0  0  0  0  0  0
    3.3366   15.5175   -0.9284 H   0  0  0  0  0  0  0  0  0  0  0  0
    3.4362   14.6194   -2.4809 H   0  0  0  0  0  0  0  0  0  0  0  0
    3.0434   16.3722   -2.4809 H   0  0  0  0  0  0  0  0  0  0  0  0
  1  2  1  0
  2  3  1  0
  3  4  1  0
  4  5  1  0
  5  6  1  0
  6  7  1  0
  7  8  1  0
  7  9  1  0
  2 10  1  0
 10 11  1  0
 11 12  1  0
 12 13  1  0
 13 14  1  1
 13 15  1  0
 15 16  1  0
 16 17  1  0
 17 18  2  0
 18 19  1  0
 19 20  1  0
 20 21  1  0
 21 22  1  0
 22 23  1  0
 22 24  1  0
 24 25  1  0
 24 26  1  0
 19 27  1  0
 27 28  1  6
 27 29  1  0
 29 30  1  0
 30 31  1  0
 31 32  1  1
  7  5  1  0
 31 10  1  0
 31 13  1  0
 27 15  1  0
 24 18  1  0
  1 33  1  0
  1 34  1  0
  1 35  1  0
  2 36  1  6
  3 37  1  0
  3 38  1  0
  4 39  1  0
  4 40  1  0
  5 41  1  1
  8 42  1  0
  8 43  1  0
  8 44  1  0
  9 45  1  0
  9 46  1  0
  9 47  1  0
 10 48  1  1
 11 49  1  0
 11 50  1  0
 12 51  1  0
 12 52  1  0
 14 53  1  0
 14 54  1  0
 14 55  1  0
 15 56  1  6
 16 57  1  0
 16 58  1  0
 17 59  1  0
 19 60  1  1
 20 61  1  0
 20 62  1  0
 21 63  1  0
 21 64  1  0
 22 65  1  1
 23 66  1  0
 25 67  1  0
 25 68  1  0
 25 69  1  0
 26 70  1  0
 26 71  1  0
 26 72  1  0
 28 73  1  0
 28 74  1  0
 28 75  1  0
 29 76  1  0
 29 77  1  0
 30 78  1  0
 30 79  1  0
 32 80  1  0
 32 81  1  0
 32 82  1  0
M  END
>  <meeko>  (2) 
{"is_sidechain": [false], "intermolecular_energy": 2.731, "internal_energy": -0.839}

$$$$
EPH_relaxed_0001_pdb2pqr_Repair_377_r2_0001_out
     RDKit          3D

 82 86  0  0  0  0  0  0  0  0999 V2000
    0.4650   18.3920    0.0200 C   0  0  0  0  0  0  0  0  0  0  0  0
    1.5470   17.3340   -0.2130 C   0  0  2  0  0  0  0  0  0  0  0  0
    2.7560   17.8990   -0.9850 C   0  0  0  0  0  0  0  0  0  0  0  0
    3.9890   18.1380   -0.1100 C   0  0  0  0  0  0  0  0  0  0  0  0
    3.6110   18.5990    1.2660 C   0  0  2  0  0  0  0  0  0  0  0  0
    3.8400   19.9920    1.5140 O   0  0  0  0  0  0  0  0  0  0  0  0
    4.6200   19.0720    2.2950 C   0  0  0  0  0  0  0  0  0  0  0  0
    6.0850   19.1080    1.9940 C   0  0  0  0  0  0  0  0  0  0  0  0
    4.2360   19.0350    3.7420 C   0  0  0  0  0  0  0  0  0  0  0  0
    0.9580   16.1460   -0.9650 C   0  0  1  0  0  0  0  0  0  0  0  0
    0.8200   16.4120   -2.4880 C   0  0  0  0  0  0  0  0  0  0  0  0
    1.0930   15.0640   -3.2040 C   0  0  0  0  0  0  0  0  0  0  0  0
    1.0510   14.0070   -2.0760 C   0  0  1  0  0  0  0  0  0  0  0  0
   -0.4670   13.7230   -1.8500 C   0  0  0  0  0  0  0  0  0  0  0  0
    1.8530   12.6900   -2.3330 C   0  0  2  0  0  0  0  0  0  0  0  0
    1.3670   11.8530   -3.5300 C   0  0  0  0  0  0  0  0  0  0  0  0
    0.3300   10.8280   -3.2120 C   0  0  0  0  0  0  0  0  0  0  0  0
    0.0140   10.3910   -1.9790 C   0  0  0  0  0  0  0  0  0  0  0  0
    0.7980   10.8680   -0.7490 C   0  0  1  0  0  0  0  0  0  0  0  0
    1.1510    9.6500    0.1440 C   0  0  0  0  0  0  0  0  0  0  0  0
   -0.0760    8.8240    0.5190 C   0  0  0  0  0  0  0  0  0  0  0  0
   -0.7960    8.3200   -0.7300 C   0  0  2  0  0  0  0  0  0  0  0  0
    0.0490    7.3790   -1.4000 O   0  0  0  0  0  0  0  0  0  0  0  0
   -1.1930    9.4580   -1.7100 C   0  0  0  0  0  0  0  0  0  0  0  0
   -2.3340   10.3040   -1.0920 C   0  0  0  0  0  0  0  0  0  0  0  0
   -1.7820    8.8030   -2.9890 C   0  0  0  0  0  0  0  0  0  0  0  0
    2.0560   11.7930   -1.0450 C   0  0  1  0  0  0  0  0  0  0  0  0
    3.3140   10.9110   -1.3110 C   0  0  0  0  0  0  0  0  0  0  0  0
    2.3770   12.6500    0.2360 C   0  0  0  0  0  0  0  0  0  0  0  0
    1.6410   13.9970    0.3730 C   0  0  0  0  0  0  0  0  0  0  0  0
    1.7460   14.8130   -0.9190 C   0  0  2  0  0  0  0  0  0  0  0  0
    3.2610   15.1330   -1.1610 C   0  0  0  0  0  0  0  0  0  0  0  0
    0.3187   18.5350    1.1008 H   0  0  0  0  0  0  0  0  0  0  0  0
    0.7774   19.3427   -0.4367 H   0  0  0  0  0  0  0  0  0  0  0  0
   -0.4785   18.0584   -0.4367 H   0  0  0  0  0  0  0  0  0  0  0  0
    1.9089   17.0081    0.7733 H   0  0  0  0  0  0  0  0  0  0  0  0
    3.0259   17.1856   -1.7776 H   0  0  0  0  0  0  0  0  0  0  0  0
    2.4522   18.8773   -1.3858 H   0  0  0  0  0  0  0  0  0  0  0  0
    4.5557   17.1988   -0.0283 H   0  0  0  0  0  0  0  0  0  0  0  0
    4.5965   18.9250   -0.5807 H   0  0  0  0  0  0  0  0  0  0  0  0
    2.7968   17.8610    1.3160 H   0  0  0  0  0  0  0  0  0  0  0  0
    6.6527   19.1219    2.9361 H   0  0  0  0  0  0  0  0  0  0  0  0
    6.3618   18.2164    1.4123 H   0  0  0  0  0  0  0  0  0  0  0  0
    6.3177   20.0121    1.4123 H   0  0  0  0  0  0  0  0  0  0  0  0
    5.1394   19.1221    4.3635 H   0  0  0  0  0  0  0  0  0  0  0  0
    3.5571   19.8719    3.9627 H   0  0  0  0  0  0  0  0  0  0  0  0
    3.7294   18.0839    3.9627 H   0  0  0  0  0  0  0  0  0  0  0  0
    0.0062   16.0395   -0.4240 H   0  0  0  0  0  0  0  0  0  0  0  0
   -0.1954   16.7655   -2.7203 H   0  0  0  0  0  0  0  0  0  0  0  0
    1.5280   17.1858   -2.8196 H   0  0  0  0  0  0  0  0  0  0  0  0
    0.3170   14.8599   -3.9564 H   0  0  0  0  0  0  0  0  0  0  0  0
    2.0535   15.0637   -3.7401 H   0  0  0  0  0  0  0  0  0  0  0  0
   -0.6760   13.6839   -0.7707 H   0  0  0  0  0  0  0  0  0  0  0  0
   -1.0626   14.5253   -2.3100 H   0  0  0  0  0  0  0  0  0  0  0  0
   -0.7323   12.7596   -2.3100 H   0  0  0  0  0  0  0  0  0  0  0  0
    2.8455   13.0698   -2.6172 H   0  0  0  0  0  0  0  0  0  0  0  0
    0.9464   12.5415   -4.2777 H   0  0  0  0  0  0  0  0  0  0  0  0
    2.2453   11.2962   -3.8886 H   0  0  0  0  0  0  0  0  0  0  0  0
   -0.2231   10.3927   -4.0573 H   0  0  0  0  0  0  0  0  0  0  0  0
    0.1261   11.5476   -0.2044 H   0  0  0  0  0  0  0  0  0  0  0  0
    1.8565    9.0058   -0.4012 H   0  0  0  0  0  0  0  0  0  0  0  0
    1.5913   10.0354    1.0754 H   0  0  0  0  0  0  0  0  0  0  0  0
    0.2413    7.9621    1.1243 H   0  0  0  0  0  0  0  0  0  0  0  0
   -0.7673    9.4609    1.0903 H   0  0  0  0  0  0  0  0  0  0  0  0
   -1.7344    7.8485   -0.4027 H   0  0  0  0  0  0  0  0  0  0  0  0
    0.3590    7.7960   -2.2220 H   0  0  0  0  0  0  0  0  0  0  0  0
   -2.2717   10.2578    0.0053 H   0  0  0  0  0  0  0  0  0  0  0  0
   -2.2353   11.3489   -1.4212 H   0  0  0  0  0  0  0  0  0  0  0  0
   -3.3052    9.9060   -1.4212 H   0  0  0  0  0  0  0  0  0  0  0  0
   -2.4922    8.0133   -2.7027 H   0  0  0  0  0  0  0  0  0  0  0  0
   -2.3034    9.5664   -3.5851 H   0  0  0  0  0  0  0  0  0  0  0  0
   -0.9677    8.3654   -3.5851 H   0  0  0  0  0  0  0  0  0  0  0  0
    3.7547   10.6020   -0.3517 H   0  0  0  0  0  0  0  0  0  0  0  0
    3.0218   10.0190   -1.8845 H   0  0  0  0  0  0  0  0  0  0  0  0
    4.0530   11.4898   -1.8845 H   0  0  0  0  0  0  0  0  0  0  0  0
    2.1230   12.0410    1.1161 H   0  0  0  0  0  0  0  0  0  0  0  0
    3.4419   12.9114    0.1481 H   0  0  0  0  0  0  0  0  0  0  0  0
    0.5802   13.8067    0.5932 H   0  0  0  0  0  0  0  0  0  0  0  0
    2.1067   14.5698    1.1884 H   0  0  0  0  0  0  0  0  0  0  0  0
    3.7721   15.2410   -0.1930 H   0  0  0  0  0  0  0  0  0  0  0  0
    3.7227   14.3126   -1.7299 H   0  0  0  0  0  0  0  0  0  0  0  0
    3.3515   16.0701   -1.7299 H   0  0  0  0  0  0  0  0  0  0  0  0
  1  2  1  0
  2  3  1  0
  3  4  1  0
  4  5  1  0
  5  6  1  0
  6  7  1  0
  7  8  1  0
  7  9  1  0
  2 10  1  0
 10 11  1  0
 11 12  1  0
 12 13  1  0
 13 14  1  1
 13 15  1  0
 15 16  1  0
 16 17  1  0
 17 18  2  0
 18 19  1  0
 19 20  1  0
 20 21  1  0
 21 22  1  0
 22 23  1  0
 22 24  1  0
 24 25  1  0
 24 26  1  0
 19 27  1  0
 27 28  1  6
 27 29  1  0
 29 30  1  0
 30 31  1  0
 31 32  1  6
  7  5  1  0
 31 10  1  0
 31 13  1  0
 27 15  1  0
 24 18  1  0
  1 33  1  0
  1 34  1  0
  1 35  1  0
  2 36  1  1
  3 37  1  0
  3 38  1  0
  4 39  1  0
  4 40  1  0
  5 41  1  1
  8 42  1  0
  8 43  1  0
  8 44  1  0
  9 45  1  0
  9 46  1  0
  9 47  1  0
 10 48  1  1
 11 49  1  0
 11 50  1  0
 12 51  1  0
 12 52  1  0
 14 53  1  0
 14 54  1  0
 14 55  1  0
 15 56  1  6
 16 57  1  0
 16 58  1  0
 17 59  1  0
 19 60  1  1
 20 61  1  0
 20 62  1  0
 21 63  1  0
 21 64  1  0
 22 65  1  1
 23 66  1  0
 25 67  1  0
 25 68  1  0
 25 69  1  0
 26 70  1  0
 26 71  1  0
 26 72  1  0
 28 73  1  0
 28 74  1  0
 28 75  1  0
 29 76  1  0
 29 77  1  0
 30 78  1  0
 30 79  1  0
 32 80  1  0
 32 81  1  0
 32 82  1  0
M  END
>  <meeko>  (3) 
{"is_sidechain": [false], "intermolecular_energy": 2.731, "internal_energy": -0.839}

$$$$
EPH_relaxed_0001_pdb2pqr_Repair_377_r2_0001_out
     RDKit          3D

 82 86  0  0  0  0  0  0  0  0999 V2000
   -4.9320    6.1820   -1.6660 C   0  0  0  0  0  0  0  0  0  0  0  0
   -5.3490    7.6530   -1.5970 C   0  0  2  0  0  0  0  0  0  0  0  0
   -5.2200    8.2270   -0.1720 C   0  0  0  0  0  0  0  0  0  0  0  0
   -4.1550    9.3190   -0.0420 C   0  0  0  0  0  0  0  0  0  0  0  0
   -2.8100    8.8380   -0.4950 C   0  0  2  0  0  0  0  0  0  0  0  0
   -1.7110    9.2900    0.3070 O   0  0  0  0  0  0  0  0  0  0  0  0
   -1.7370    9.7550   -1.0530 C   0  0  0  0  0  0  0  0  0  0  0  0
   -1.9630   11.2280   -1.1870 C   0  0  0  0  0  0  0  0  0  0  0  0
   -0.6650    9.1620   -1.9130 C   0  0  0  0  0  0  0  0  0  0  0  0
   -6.7810    7.8110   -2.0940 C   0  0  1  0  0  0  0  0  0  0  0  0
   -7.0250    7.0960   -3.4500 C   0  0  0  0  0  0  0  0  0  0  0  0
   -8.4770    6.5550   -3.4160 C   0  0  0  0  0  0  0  0  0  0  0  0
   -9.1250    7.2540   -2.1980 C   0  0  1  0  0  0  0  0  0  0  0  0
   -9.5310    8.6690   -2.7160 C   0  0  0  0  0  0  0  0  0  0  0  0
  -10.3340    6.5130   -1.5380 C   0  0  2  0  0  0  0  0  0  0  0  0
  -11.5600    6.3250   -2.4490 C   0  0  0  0  0  0  0  0  0  0  0  0
  -12.5680    7.4260   -2.3950 C   0  0  0  0  0  0  0  0  0  0  0  0
  -12.6370    8.3770   -1.4460 C   0  0  0  0  0  0  0  0  0  0  0  0
  -11.6980    8.3500   -0.2330 C   0  0  1  0  0  0  0  0  0  0  0  0
  -12.5160    8.5980    1.0610 C   0  0  0  0  0  0  0  0  0  0  0  0
  -13.3440    9.8780    0.9930 C   0  0  0  0  0  0  0  0  0  0  0  0
  -14.3070    9.8420   -0.1910 C   0  0  2  0  0  0  0  0  0  0  0  0
  -15.2840    8.8220    0.0400 O   0  0  0  0  0  0  0  0  0  0  0  0
  -13.5970    9.5880   -1.5500 C   0  0  0  0  0  0  0  0  0  0  0  0
  -12.7660   10.8340   -1.9440 C   0  0  0  0  0  0  0  0  0  0  0  0
  -14.6920    9.4340   -2.6400 C   0  0  0  0  0  0  0  0  0  0  0  0
  -10.7470    7.0810   -0.1210 C   0  0  1  0  0  0  0  0  0  0  0  0
  -11.4860    5.9270    0.6240 C   0  0  0  0  0  0  0  0  0  0  0  0
   -9.4980    7.4510    0.7630 C   0  0  0  0  0  0  0  0  0  0  0  0
   -8.2900    8.0710    0.0350 C   0  0  0  0  0  0  0  0  0  0  0  0
   -7.9120    7.2450   -1.1990 C   0  0  2  0  0  0  0  0  0  0  0  0
   -7.4780    5.8220   -0.7070 C   0  0  0  0  0  0  0  0  0  0  0  0
   -4.8193    5.7846   -0.6465 H   0  0  0  0  0  0  0  0  0  0  0  0
   -5.7026    5.6071   -2.2005 H   0  0  0  0  0  0  0  0  0  0  0  0
   -3.9744    6.0970   -2.2005 H   0  0  0  0  0  0  0  0  0  0  0  0
   -4.6655    8.2213   -2.2450 H   0  0  0  0  0  0  0  0  0  0  0  0
   -6.1913    8.6528    0.1200 H   0  0  0  0  0  0  0  0  0  0  0  0
   -4.9114    7.3978    0.4816 H   0  0  0  0  0  0  0  0  0  0  0  0
   -4.4513   10.1810   -0.6577 H   0  0  0  0  0  0  0  0  0  0  0  0
   -4.0794    9.5998    1.0189 H   0  0  0  0  0  0  0  0  0  0  0  0
   -3.2457    7.8997   -0.8687 H   0  0  0  0  0  0  0  0  0  0  0  0
   -2.0325   11.6808   -0.1869 H   0  0  0  0  0  0  0  0  0  0  0  0
   -1.1236   11.6793   -1.7363 H   0  0  0  0  0  0  0  0  0  0  0  0
   -2.8991   11.4069   -1.7363 H   0  0  0  0  0  0  0  0  0  0  0  0
    0.1190    8.7283   -1.2748 H   0  0  0  0  0  0  0  0  0  0  0  0
   -1.0978    8.3750   -2.5481 H   0  0  0  0  0  0  0  0  0  0  0  0
   -0.2284    9.9469   -2.5481 H   0  0  0  0  0  0  0  0  0  0  0  0
   -6.8429    8.9087   -2.1297 H   0  0  0  0  0  0  0  0  0  0  0  0
   -6.9054    7.8076   -4.2802 H   0  0  0  0  0  0  0  0  0  0  0  0
   -6.3032    6.2799   -3.6014 H   0  0  0  0  0  0  0  0  0  0  0  0
   -9.0102    6.8153   -4.3422 H   0  0  0  0  0  0  0  0  0  0  0  0
   -8.5120    5.4585   -3.3352 H   0  0  0  0  0  0  0  0  0  0  0  0
   -9.7213    9.3323   -1.8594 H   0  0  0  0  0  0  0  0  0  0  0  0
   -8.7156    9.0837   -3.3269 H   0  0  0  0  0  0  0  0  0  0  0  0
  -10.4422    8.5883   -3.3269 H   0  0  0  0  0  0  0  0  0  0  0  0
   -9.9296    5.5038   -1.3705 H   0  0  0  0  0  0  0  0  0  0  0  0
  -11.2034    6.2408   -3.4862 H   0  0  0  0  0  0  0  0  0  0  0  0
  -12.0741    5.4228   -2.0862 H   0  0  0  0  0  0  0  0  0  0  0  0
  -13.3174    7.4623   -3.1994 H   0  0  0  0  0  0  0  0  0  0  0  0
  -10.9819    9.1712   -0.3841 H   0  0  0  0  0  0  0  0  0  0  0  0
  -13.1948    7.7467    1.2177 H   0  0  0  0  0  0  0  0  0  0  0  0
  -11.8029    8.7051    1.8917 H   0  0  0  0  0  0  0  0  0  0  0  0
  -13.9211    9.9834    1.9235 H   0  0  0  0  0  0  0  0  0  0  0  0
  -12.6618   10.7313    0.8651 H   0  0  0  0  0  0  0  0  0  0  0  0
  -14.7780   10.8334   -0.2638 H   0  0  0  0  0  0  0  0  0  0  0  0
  -16.1570    9.2490    0.0510 H   0  0  0  0  0  0  0  0  0  0  0  0
  -12.4229   11.3485   -1.0343 H   0  0  0  0  0  0  0  0  0  0  0  0
  -11.8952   10.5209   -2.5388 H   0  0  0  0  0  0  0  0  0  0  0  0
  -13.3897   11.5176   -2.5388 H   0  0  0  0  0  0  0  0  0  0  0  0
  -15.6715    9.2962   -2.1588 H   0  0  0  0  0  0  0  0  0  0  0  0
  -14.7152   10.3377   -3.2667 H   0  0  0  0  0  0  0  0  0  0  0  0
  -14.4650    8.5589   -3.2667 H   0  0  0  0  0  0  0  0  0  0  0  0
  -11.3926    6.0729    1.7103 H   0  0  0  0  0  0  0  0  0  0  0  0
  -12.5496    5.9315    0.3436 H   0  0  0  0  0  0  0  0  0  0  0  0
  -11.0369    4.9628    0.3436 H   0  0  0  0  0  0  0  0  0  0  0  0
   -9.8316    8.1700    1.5258 H   0  0  0  0  0  0  0  0  0  0  0  0
   -9.1331    6.4925    1.1607 H   0  0  0  0  0  0  0  0  0  0  0  0
   -8.5456    9.0933   -0.2805 H   0  0  0  0  0  0  0  0  0  0  0  0
   -7.4332    8.0845    0.7247 H   0  0  0  0  0  0  0  0  0  0  0  0
   -7.4714    5.8005    0.3928 H   0  0  0  0  0  0  0  0  0  0  0  0
   -8.1880    5.0713   -1.0842 H   0  0  0  0  0  0  0  0  0  0  0  0
   -6.4699    5.5953   -1.0842 H   0  0  0  0  0  0  0  0  0  0  0  0
  1  2  1  0
  2  3  1  0
  3  4  1  0
  4  5  1  0
  5  6  1  0
  6  7  1  0
  7  8  1  0
  7  9  1  0
  2 10  1  0
 10 11  1  0
 11 12  1  0
 12 13  1  0
 13 14  1  6
 13 15  1  0
 15 16  1  0
 16 17  1  0
 17 18  2  0
 18 19  1  0
 19 20  1  0
 20 21  1  0
 21 22  1  0
 22 23  1  0
 22 24  1  0
 24 25  1  0
 24 26  1  0
 19 27  1  0
 27 28  1  1
 27 29  1  0
 29 30  1  0
 30 31  1  0
 31 32  1  1
  7  5  1  0
 31 10  1  0
 31 13  1  0
 27 15  1  0
 24 18  1  0
  1 33  1  0
  1 34  1  0
  1 35  1  0
  2 36  1  6
  3 37  1  0
  3 38  1  0
  4 39  1  0
  4 40  1  0
  5 41  1  6
  8 42  1  0
  8 43  1  0
  8 44  1  0
  9 45  1  0
  9 46  1  0
  9 47  1  0
 10 48  1  6
 11 49  1  0
 11 50  1  0
 12 51  1  0
 12 52  1  0
 14 53  1  0
 14 54  1  0
 14 55  1  0
 15 56  1  1
 16 57  1  0
 16 58  1  0
 17 59  1  0
 19 60  1  6
 20 61  1  0
 20 62  1  0
 21 63  1  0
 21 64  1  0
 22 65  1  6
 23 66  1  0
 25 67  1  0
 25 68  1  0
 25 69  1  0
 26 70  1  0
 26 71  1  0
 26 72  1  0
 28 73  1  0
 28 74  1  0
 28 75  1  0
 29 76  1  0
 29 77  1  0
 30 78  1  0
 30 79  1  0
 32 80  1  0
 32 81  1  0
 32 82  1  0
M  END
>  <meeko>  (4) 
{"is_sidechain": [false], "intermolecular_energy": 2.731, "internal_energy": -0.839}

$$$$
EPH_relaxed_0001_pdb2pqr_Repair_377_r2_0001_out
     RDKit          3D

 82 86  0  0  0  0  0  0  0  0999 V2000
    3.8270   17.7190    0.8370 C   0  0  0  0  0  0  0  0  0  0  0  0
    2.8820   18.1110   -0.3030 C   0  0  2  0  0  0  0  0  0  0  0  0
    2.1970   19.4680   -0.0480 C   0  0  0  0  0  0  0  0  0  0  0  0
    1.0950   19.4120    1.0140 C   0  0  0  0  0  0  0  0  0  0  0  0
   -0.1740   20.0440    0.5300 C   0  0  2  0  0  0  0  0  0  0  0  0
   -1.1980   20.1710    1.5250 O   0  0  0  0  0  0  0  0  0  0  0  0
   -1.4920   19.3000    0.4220 C   0  0  0  0  0  0  0  0  0  0  0  0
   -1.6060   17.8560    0.8000 C   0  0  0  0  0  0  0  0  0  0  0  0
   -2.5410   19.8320   -0.5040 C   0  0  0  0  0  0  0  0  0  0  0  0
    1.8310   17.0250   -0.5030 C   0  0  1  0  0  0  0  0  0  0  0  0
    0.6060   17.5220   -1.3150 C   0  0  0  0  0  0  0  0  0  0  0  0
    0.1240   16.3260   -2.1750 C   0  0  0  0  0  0  0  0  0  0  0  0
    0.8660   15.1010   -1.5890 C   0  0  1  0  0  0  0  0  0  0  0  0
    0.0370   14.6940   -0.3310 C   0  0  0  0  0  0  0  0  0  0  0  0
    1.0750   13.8920   -2.5580 C   0  0  2  0  0  0  0  0  0  0  0  0
   -0.2180   13.2300   -3.0650 C   0  0  0  0  0  0  0  0  0  0  0  0
   -0.7310   12.1070   -2.2260 C   0  0  0  0  0  0  0  0  0  0  0  0
   -0.0330   11.4610   -1.2730 C   0  0  0  0  0  0  0  0  0  0  0  0
    1.4470   11.7810   -1.0270 C   0  0  1  0  0  0  0  0  0  0  0  0
    2.2510   10.4590   -0.9150 C   0  0  0  0  0  0  0  0  0  0  0  0
    1.6770    9.5120    0.1340 C   0  0  0  0  0  0  0  0  0  0  0  0
    0.2220    9.1710   -0.1770 C   0  0  2  0  0  0  0  0  0  0  0  0
    0.1760    8.4020   -1.3830 O   0  0  0  0  0  0  0  0  0  0  0  0
   -0.6840   10.4260   -0.3220 C   0  0  0  0  0  0  0  0  0  0  0  0
   -0.8760   11.0920    1.0620 C   0  0  0  0  0  0  0  0  0  0  0  0
   -2.0900    9.9490   -0.7750 C   0  0  0  0  0  0  0  0  0  0  0  0
    2.1100   12.8150   -2.0360 C   0  0  1  0  0  0  0  0  0  0  0  0
    2.6430   12.0630   -3.2940 C   0  0  0  0  0  0  0  0  0  0  0  0
    3.3630   13.4730   -1.3480 C   0  0  0  0  0  0  0  0  0  0  0  0
    3.1080   14.7350   -0.5010 C   0  0  0  0  0  0  0  0  0  0  0  0
    2.2610   15.7510   -1.2720 C   0  0  2  0  0  0  0  0  0  0  0  0
    3.0790   16.1960   -2.5330 C   0  0  0  0  0  0  0  0  0  0  0  0
    3.3403   17.9209    1.8026 H   0  0  0  0  0  0  0  0  0  0  0  0
    4.0656   16.6477    0.7635 H   0  0  0  0  0  0  0  0  0  0  0  0
    4.7538   18.3069    0.7635 H   0  0  0  0  0  0  0  0  0  0  0  0
    3.4878   18.2140   -1.2154 H   0  0  0  0  0  0  0  0  0  0  0  0
    2.9617   20.1862    0.2827 H   0  0  0  0  0  0  0  0  0  0  0  0
    1.7186   19.7687   -0.9918 H   0  0  0  0  0  0  0  0  0  0  0  0
    0.8957   18.3599    1.2657 H   0  0  0  0  0  0  0  0  0  0  0  0
    1.4409   19.9700    1.8966 H   0  0  0  0  0  0  0  0  0  0  0  0
    0.3826   20.6670   -0.1856 H   0  0  0  0  0  0  0  0  0  0  0  0
   -1.6133   17.7634    1.8961 H   0  0  0  0  0  0  0  0  0  0  0  0
   -2.5396   17.4425    0.3908 H   0  0  0  0  0  0  0  0  0  0  0  0
   -0.7489   17.3011    0.3908 H   0  0  0  0  0  0  0  0  0  0  0  0
   -3.3701   20.2525    0.0840 H   0  0  0  0  0  0  0  0  0  0  0  0
   -2.1056   20.6182   -1.1382 H   0  0  0  0  0  0  0  0  0  0  0  0
   -2.9181   19.0162   -1.1382 H   0  0  0  0  0  0  0  0  0  0  0  0
    1.6212   16.7764    0.5478 H   0  0  0  0  0  0  0  0  0  0  0  0
   -0.1945   17.8452   -0.6332 H   0  0  0  0  0  0  0  0  0  0  0  0
    0.8740   18.3808   -1.9480 H   0  0  0  0  0  0  0  0  0  0  0  0
   -0.9651   16.1988   -2.0878 H   0  0  0  0  0  0  0  0  0  0  0  0
    0.3349   16.4693   -3.2450 H   0  0  0  0  0  0  0  0  0  0  0  0
    0.5927   14.9668    0.5783 H   0  0  0  0  0  0  0  0  0  0  0  0
   -0.9288   15.2204   -0.3423 H   0  0  0  0  0  0  0  0  0  0  0  0
   -0.1372   13.6079   -0.3423 H   0  0  0  0  0  0  0  0  0  0  0  0
    1.5290   14.3711   -3.4380 H   0  0  0  0  0  0  0  0  0  0  0  0
   -0.9993   14.0028   -3.1129 H   0  0  0  0  0  0  0  0  0  0  0  0
    0.0283   12.7911   -4.0431 H   0  0  0  0  0  0  0  0  0  0  0  0
   -1.7665   11.7797   -2.4011 H   0  0  0  0  0  0  0  0  0  0  0  0
    1.4859   12.3236   -0.0709 H   0  0  0  0  0  0  0  0  0  0  0  0
    2.2363    9.9536   -1.8919 H   0  0  0  0  0  0  0  0  0  0  0  0
    3.2753   10.7164   -0.6075 H   0  0  0  0  0  0  0  0  0  0  0  0
    2.2695    8.5853    0.1451 H   0  0  0  0  0  0  0  0  0  0  0  0
    1.7196   10.0074    1.1152 H   0  0  0  0  0  0  0  0  0  0  0  0
   -0.1716    8.5971    0.6749 H   0  0  0  0  0  0  0  0  0  0  0  0
   -0.5850    7.8010   -1.3200 H   0  0  0  0  0  0  0  0  0  0  0  0
   -0.6646   10.3588    1.8543 H   0  0  0  0  0  0  0  0  0  0  0  0
   -0.1869   11.9441    1.1577 H   0  0  0  0  0  0  0  0  0  0  0  0
   -1.9129   11.4465    1.1577 H   0  0  0  0  0  0  0  0  0  0  0  0
   -2.7087    9.7391    0.1099 H   0  0  0  0  0  0  0  0  0  0  0  0
   -2.5674   10.7355   -1.3780 H   0  0  0  0  0  0  0  0  0  0  0  0
   -1.9903    9.0344   -1.3780 H   0  0  0  0  0  0  0  0  0  0  0  0
    3.2521   11.2037   -2.9768 H   0  0  0  0  0  0  0  0  0  0  0  0
    1.7937   11.7081   -3.8962 H   0  0  0  0  0  0  0  0  0  0  0  0
    3.2592   12.7468   -3.8962 H   0  0  0  0  0  0  0  0  0  0  0  0
    3.8168   12.7170   -0.6904 H   0  0  0  0  0  0  0  0  0  0  0  0
    4.0040   13.8075   -2.1770 H   0  0  0  0  0  0  0  0  0  0  0  0
    2.5778   14.4494    0.4195 H   0  0  0  0  0  0  0  0  0  0  0  0
    4.0767   15.1971   -0.2600 H   0  0  0  0  0  0  0  0  0  0  0  0
    4.0032   16.6988   -2.2119 H   0  0  0  0  0  0  0  0  0  0  0  0
    3.3331   15.3118   -3.1360 H   0  0  0  0  0  0  0  0  0  0  0  0
    2.4747   16.8897   -3.1360 H   0  0  0  0  0  0  0  0  0  0  0  0
  1  2  1  0
  2  3  1  0
  3  4  1  0
  4  5  1  0
  5  6  1  0
  6  7  1  0
  7  8  1  0
  7  9  1  0
  2 10  1  0
 10 11  1  0
 11 12  1  0
 12 13  1  0
 13 14  1  1
 13 15  1  0
 15 16  1  0
 16 17  1  0
 17 18  2  0
 18 19  1  0
 19 20  1  0
 20 21  1  0
 21 22  1  0
 22 23  1  0
 22 24  1  0
 24 25  1  0
 24 26  1  0
 19 27  1  0
 27 28  1  6
 27 29  1  0
 29 30  1  0
 30 31  1  0
 31 32  1  6
  7  5  1  0
 31 10  1  0
 31 13  1  0
 27 15  1  0
 24 18  1  0
  1 33  1  0
  1 34  1  0
  1 35  1  0
  2 36  1  6
  3 37  1  0
  3 38  1  0
  4 39  1  0
  4 40  1  0
  5 41  1  6
  8 42  1  0
  8 43  1  0
  8 44  1  0
  9 45  1  0
  9 46  1  0
  9 47  1  0
 10 48  1  1
 11 49  1  0
 11 50  1  0
 12 51  1  0
 12 52  1  0
 14 53  1  0
 14 54  1  0
 14 55  1  0
 15 56  1  6
 16 57  1  0
 16 58  1  0
 17 59  1  0
 19 60  1  1
 20 61  1  0
 20 62  1  0
 21 63  1  0
 21 64  1  0
 22 65  1  1
 23 66  1  0
 25 67  1  0
 25 68  1  0
 25 69  1  0
 26 70  1  0
 26 71  1  0
 26 72  1  0
 28 73  1  0
 28 74  1  0
 28 75  1  0
 29 76  1  0
 29 77  1  0
 30 78  1  0
 30 79  1  0
 32 80  1  0
 32 81  1  0
 32 82  1  0
M  END
>  <meeko>  (5) 
{"is_sidechain": [false], "intermolecular_energy": 2.731, "internal_energy": -0.839}

$$$$
EPH_relaxed_0001_pdb2pqr_Repair_377_r2_0001_out
     RDKit          3D

 82 86  0  0  0  0  0  0  0  0999 V2000
    0.4530    8.8030   -2.3610 C   0  0  0  0  0  0  0  0  0  0  0  0
    1.1940    9.9460   -3.0620 C   0  0  2  0  0  0  0  0  0  0  0  0
    2.6940    9.9680   -2.7080 C   0  0  0  0  0  0  0  0  0  0  0  0
    3.5750   10.5790   -3.8010 C   0  0  0  0  0  0  0  0  0  0  0  0
    4.9720   10.8230   -3.3150 C   0  0  2  0  0  0  0  0  0  0  0  0
    5.5670   12.0380   -3.7890 O   0  0  0  0  0  0  0  0  0  0  0  0
    6.1870   10.8170   -4.2240 C   0  0  0  0  0  0  0  0  0  0  0  0
    6.0600   10.5610   -5.6930 C   0  0  0  0  0  0  0  0  0  0  0  0
    7.5330   10.5740   -3.6180 C   0  0  0  0  0  0  0  0  0  0  0  0
    0.5530   11.2800   -2.6990 C   0  0  1  0  0  0  0  0  0  0  0  0
   -0.8260   11.1120   -2.0070 C   0  0  0  0  0  0  0  0  0  0  0  0
   -0.9460   12.2530   -0.9640 C   0  0  0  0  0  0  0  0  0  0  0  0
    0.2050   13.2250   -1.3170 C   0  0  1  0  0  0  0  0  0  0  0  0
   -0.3420   14.0810   -2.5020 C   0  0  0  0  0  0  0  0  0  0  0  0
    0.7310   14.1240   -0.1510 C   0  0  2  0  0  0  0  0  0  0  0  0
   -0.3020   15.1020    0.4370 C   0  0  0  0  0  0  0  0  0  0  0  0
   -0.3440   16.4480   -0.2070 C   0  0  0  0  0  0  0  0  0  0  0  0
    0.6000   16.9560   -1.0210 C   0  0  0  0  0  0  0  0  0  0  0  0
    1.9020   16.1910   -1.2900 C   0  0  1  0  0  0  0  0  0  0  0  0
    3.1080   17.1590   -1.1580 C   0  0  0  0  0  0  0  0  0  0  0  0
    2.9640   18.3960   -2.0410 C   0  0  0  0  0  0  0  0  0  0  0  0
    1.6870   19.1610   -1.7030 C   0  0  2  0  0  0  0  0  0  0  0  0
    1.8090   19.7020   -0.3850 O   0  0  0  0  0  0  0  0  0  0  0  0
    0.4060   18.2850   -1.7930 C   0  0  0  0  0  0  0  0  0  0  0  0
    0.1080   17.9470   -3.2750 C   0  0  0  0  0  0  0  0  0  0  0  0
   -0.7910   19.1370   -1.2930 C   0  0  0  0  0  0  0  0  0  0  0  0
    2.1030   14.8500   -0.4610 C   0  0  1  0  0  0  0  0  0  0  0  0
    2.7590   15.1700    0.9170 C   0  0  0  0  0  0  0  0  0  0  0  0
    3.1130   13.9180   -1.2280 C   0  0  0  0  0  0  0  0  0  0  0  0
    2.5170   12.9670   -2.2840 C   0  0  0  0  0  0  0  0  0  0  0  0
    1.3230   12.1950   -1.7140 C   0  0  2  0  0  0  0  0  0  0  0  0
    1.8470   11.3080   -0.5330 C   0  0  0  0  0  0  0  0  0  0  0  0
    0.5338    8.9276   -1.2711 H   0  0  0  0  0  0  0  0  0  0  0  0
   -0.6071    8.8189   -2.6543 H   0  0  0  0  0  0  0  0  0  0  0  0
    0.9002    7.8418   -2.6543 H   0  0  0  0  0  0  0  0  0  0  0  0
    1.1134    9.7778   -4.1461 H   0  0  0  0  0  0  0  0  0  0  0  0
    2.8250   10.5556   -1.7874 H   0  0  0  0  0  0  0  0  0  0  0  0
    3.0112    8.9217   -2.5866 H   0  0  0  0  0  0  0  0  0  0  0  0
    3.6107    9.8893   -4.6572 H   0  0  0  0  0  0  0  0  0  0  0  0
    3.1393   11.5462   -4.0920 H   0  0  0  0  0  0  0  0  0  0  0  0
    4.7573   10.3082   -2.3669 H   0  0  0  0  0  0  0  0  0  0  0  0
    5.5765    9.5863   -5.8549 H   0  0  0  0  0  0  0  0  0  0  0  0
    5.4505   11.3534   -6.1519 H   0  0  0  0  0  0  0  0  0  0  0  0
    7.0597   10.5551   -6.1519 H   0  0  0  0  0  0  0  0  0  0  0  0
    7.4495   10.5891   -2.5213 H   0  0  0  0  0  0  0  0  0  0  0  0
    7.9100    9.5933   -3.9436 H   0  0  0  0  0  0  0  0  0  0  0  0
    8.2292   11.3610   -3.9436 H   0  0  0  0  0  0  0  0  0  0  0  0
    0.5186   11.7444   -3.6956 H   0  0  0  0  0  0  0  0  0  0  0  0
   -1.6341   11.1908   -2.7491 H   0  0  0  0  0  0  0  0  0  0  0  0
   -0.9083   10.1266   -1.5251 H   0  0  0  0  0  0  0  0  0  0  0  0
   -1.9201   12.7568   -1.0495 H   0  0  0  0  0  0  0  0  0  0  0  0
   -0.8781   11.8830    0.0697 H   0  0  0  0  0  0  0  0  0  0  0  0
   -0.8945   14.9456   -2.1054 H   0  0  0  0  0  0  0  0  0  0  0  0
    0.4983   14.4340   -3.1179 H   0  0  0  0  0  0  0  0  0  0  0  0
   -1.0153   13.4667   -3.1179 H   0  0  0  0  0  0  0  0  0  0  0  0
    0.9305   13.3884    0.6421 H   0  0  0  0  0  0  0  0  0  0  0  0
   -1.2978   14.6457    0.3363 H   0  0  0  0  0  0  0  0  0  0  0  0
    0.0005   15.2732    1.4806 H   0  0  0  0  0  0  0  0  0  0  0  0
   -1.2210   17.0784    0.0014 H   0  0  0  0  0  0  0  0  0  0  0  0
    1.8297   15.8226   -2.3239 H   0  0  0  0  0  0  0  0  0  0  0  0
    3.1884   17.4815   -0.1094 H   0  0  0  0  0  0  0  0  0  0  0  0
    4.0082   16.6180   -1.4848 H   0  0  0  0  0  0  0  0  0  0  0  0
    3.8308   19.0544   -1.8826 H   0  0  0  0  0  0  0  0  0  0  0  0
    2.9130   18.0739   -3.0915 H   0  0  0  0  0  0  0  0  0  0  0  0
    1.5732   19.9598   -2.4507 H   0  0  0  0  0  0  0  0  0  0  0  0
    2.1680   19.0040    0.1880 H   0  0  0  0  0  0  0  0  0  0  0  0
   -0.6187   17.1227   -3.3241 H   0  0  0  0  0  0  0  0  0  0  0  0
   -0.3081   18.8331   -3.7767 H   0  0  0  0  0  0  0  0  0  0  0  0
    1.0393   17.6452   -3.7767 H   0  0  0  0  0  0  0  0  0  0  0  0
   -0.8016   19.1445   -0.1931 H   0  0  0  0  0  0  0  0  0  0  0  0
   -0.6891   20.1669   -1.6658 H   0  0  0  0  0  0  0  0  0  0  0  0
   -1.7307   18.7034   -1.6658 H   0  0  0  0  0  0  0  0  0  0  0  0
    2.0896   14.8434    1.7264 H   0  0  0  0  0  0  0  0  0  0  0  0
    3.7189   14.6389    0.9983 H   0  0  0  0  0  0  0  0  0  0  0  0
    2.9313   16.2534    0.9983 H   0  0  0  0  0  0  0  0  0  0  0  0
    3.8422   14.5654   -1.7371 H   0  0  0  0  0  0  0  0  0  0  0  0
    3.5398   13.2601   -0.4567 H   0  0  0  0  0  0  0  0  0  0  0  0
    2.1840   13.5557   -3.1515 H   0  0  0  0  0  0  0  0  0  0  0  0
    3.2912   12.2452   -2.5832 H   0  0  0  0  0  0  0  0  0  0  0  0
    1.5721   11.7734    0.4251 H   0  0  0  0  0  0  0  0  0  0  0  0
    1.3951   10.3072   -0.5976 H   0  0  0  0  0  0  0  0  0  0  0  0
    2.9416   11.2209   -0.5976 H   0  0  0  0  0  0  0  0  0  0  0  0
  1  2  1  0
  2  3  1  0
  3  4  1  0
  4  5  1  0
  5  6  1  0
  6  7  1  0
  7  8  1  0
  7  9  1  0
  2 10  1  0
 10 11  1  0
 11 12  1  0
 12 13  1  0
 13 14  1  6
 13 15  1  0
 15 16  1  0
 16 17  1  0
 17 18  2  0
 18 19  1  0
 19 20  1  0
 20 21  1  0
 21 22  1  0
 22 23  1  0
 22 24  1  0
 24 25  1  0
 24 26  1  0
 19 27  1  0
 27 28  1  1
 27 29  1  0
 29 30  1  0
 30 31  1  0
 31 32  1  1
  7  5  1  0
 31 10  1  0
 31 13  1  0
 27 15  1  0
 24 18  1  0
  1 33  1  0
  1 34  1  0
  1 35  1  0
  2 36  1  6
  3 37  1  0
  3 38  1  0
  4 39  1  0
  4 40  1  0
  5 41  1  1
  8 42  1  0
  8 43  1  0
  8 44  1  0
  9 45  1  0
  9 46  1  0
  9 47  1  0
 10 48  1  6
 11 49  1  0
 11 50  1  0
 12 51  1  0
 12 52  1  0
 14 53  1  0
 14 54  1  0
 14 55  1  0
 15 56  1  1
 16 57  1  0
 16 58  1  0
 17 59  1  0
 19 60  1  6
 20 61  1  0
 20 62  1  0
 21 63  1  0
 21 64  1  0
 22 65  1  6
 23 66  1  0
 25 67  1  0
 25 68  1  0
 25 69  1  0
 26 70  1  0
 26 71  1  0
 26 72  1  0
 28 73  1  0
 28 74  1  0
 28 75  1  0
 29 76  1  0
 29 77  1  0
 30 78  1  0
 30 79  1  0
 32 80  1  0
 32 81  1  0
 32 82  1  0
M  END
>  <meeko>  (6) 
{"is_sidechain": [false], "intermolecular_energy": 2.731, "internal_energy": -0.839}

$$$$
EPH_relaxed_0001_pdb2pqr_Repair_377_r2_0001_out
     RDKit          3D

 82 86  0  0  0  0  0  0  0  0999 V2000
    0.1420   17.7830   -2.5680 C   0  0  0  0  0  0  0  0  0  0  0  0
   -0.1080   16.8910   -1.3490 C   0  0  2  0  0  0  0  0  0  0  0  0
   -0.1650   17.7010   -0.0380 C   0  0  0  0  0  0  0  0  0  0  0  0
    0.4650   19.0920   -0.1470 C   0  0  0  0  0  0  0  0  0  0  0  0
    1.6150   19.2560    0.8000 C   0  0  2  0  0  0  0  0  0  0  0  0
    2.6120   20.1940    0.3740 O   0  0  0  0  0  0  0  0  0  0  0  0
    3.0330   18.8240    0.4750 C   0  0  0  0  0  0  0  0  0  0  0  0
    3.3760   18.1950   -0.8380 C   0  0  0  0  0  0  0  0  0  0  0  0
    3.9790   18.5670    1.6070 C   0  0  0  0  0  0  0  0  0  0  0  0
    0.9750   15.8230   -1.2550 C   0  0  1  0  0  0  0  0  0  0  0  0
    1.1770   15.3020    0.1930 C   0  0  0  0  0  0  0  0  0  0  0  0
    1.5270   13.7960    0.0820 C   0  0  0  0  0  0  0  0  0  0  0  0
    1.8400   13.5780   -1.4170 C   0  0  1  0  0  0  0  0  0  0  0  0
    3.3140   14.0630   -1.5940 C   0  0  0  0  0  0  0  0  0  0  0  0
    1.6420   12.1250   -1.9600 C   0  0  2  0  0  0  0  0  0  0  0  0
    2.5470   11.0590   -1.3180 C   0  0  0  0  0  0  0  0  0  0  0  0
    3.8540   10.8360   -2.0040 C   0  0  0  0  0  0  0  0  0  0  0  0
    4.1680   11.2530   -3.2450 C   0  0  0  0  0  0  0  0  0  0  0  0
    3.1230   11.9440   -4.1310 C   0  0  1  0  0  0  0  0  0  0  0  0
    3.1640   11.3290   -5.5540 C   0  0  0  0  0  0  0  0  0  0  0  0
    4.5610   11.3610   -6.1660 C   0  0  0  0  0  0  0  0  0  0  0  0
    5.5590   10.6150   -5.2850 C   0  0  2  0  0  0  0  0  0  0  0  0
    5.2250    9.2230   -5.2870 O   0  0  0  0  0  0  0  0  0  0  0  0
    5.6000   11.1410   -3.8230 C   0  0  0  0  0  0  0  0  0  0  0  0
    6.2480   12.5470   -3.7940 C   0  0  0  0  0  0  0  0  0  0  0  0
    6.5400   10.2120   -3.0080 C   0  0  0  0  0  0  0  0  0  0  0  0
    1.6500   12.0160   -3.5390 C   0  0  1  0  0  0  0  0  0  0  0  0
    0.8680   10.7170   -3.8990 C   0  0  0  0  0  0  0  0  0  0  0  0
    0.8780   13.2050   -4.2240 C   0  0  0  0  0  0  0  0  0  0  0  0
    1.0180   14.5930   -3.5710 C   0  0  0  0  0  0  0  0  0  0  0  0
    0.7590   14.5190   -2.0630 C   0  0  2  0  0  0  0  0  0  0  0  0
   -0.7220   14.0550   -1.8550 C   0  0  0  0  0  0  0  0  0  0  0  0
    0.4247   18.7917   -2.2324 H   0  0  0  0  0  0  0  0  0  0  0  0
    0.9553   17.3567   -3.1737 H   0  0  0  0  0  0  0  0  0  0  0  0
   -0.7744   17.8415   -3.1737 H   0  0  0  0  0  0  0  0  0  0  0  0
   -1.0897   16.4136   -1.4846 H   0  0  0  0  0  0  0  0  0  0  0  0
   -1.2195   17.8190    0.2519 H   0  0  0  0  0  0  0  0  0  0  0  0
    0.4158   17.1425    0.7108 H   0  0  0  0  0  0  0  0  0  0  0  0
    0.8263   19.2400   -1.1754 H   0  0  0  0  0  0  0  0  0  0  0  0
   -0.3017   19.8368    0.1128 H   0  0  0  0  0  0  0  0  0  0  0  0
    0.9631   19.0594    1.6640 H   0  0  0  0  0  0  0  0  0  0  0  0
    3.8959   17.2415   -0.6631 H   0  0  0  0  0  0  0  0  0  0  0  0
    2.4536   18.0104   -1.4082 H   0  0  0  0  0  0  0  0  0  0  0  0
    4.0307   18.8704   -1.4082 H   0  0  0  0  0  0  0  0  0  0  0  0
    3.4541   18.7096    2.5631 H   0  0  0  0  0  0  0  0  0  0  0  0
    4.3535   17.5346    1.5447 H   0  0  0  0  0  0  0  0  0  0  0  0
    4.8244   19.2680    1.5447 H   0  0  0  0  0  0  0  0  0  0  0  0
    1.8251   16.3858   -1.6679 H   0  0  0  0  0  0  0  0  0  0  0  0
    1.9989   15.8469    0.6804 H   0  0  0  0  0  0  0  0  0  0  0  0
    0.2702   15.4531    0.7971 H   0  0  0  0  0  0  0  0  0  0  0  0
    2.4036   13.5543    0.7010 H   0  0  0  0  0  0  0  0  0  0  0  0
    0.7096   13.1504    0.4358 H   0  0  0  0  0  0  0  0  0  0  0  0
    3.7717   14.2136   -0.6051 H   0  0  0  0  0  0  0  0  0  0  0  0
    3.8849   13.3053   -2.1508 H   0  0  0  0  0  0  0  0  0  0  0  0
    3.3235   15.0116   -2.1508 H   0  0  0  0  0  0  0  0  0  0  0  0
    0.6203   11.8872   -1.6291 H   0  0  0  0  0  0  0  0  0  0  0  0
    2.7546   11.3679   -0.2829 H   0  0  0  0  0  0  0  0  0  0  0  0
    1.9980   10.1087   -1.3921 H   0  0  0  0  0  0  0  0  0  0  0  0
    4.6263   10.2840   -1.4482 H   0  0  0  0  0  0  0  0  0  0  0  0
    3.4132   13.0042   -4.1737 H   0  0  0  0  0  0  0  0  0  0  0  0
    2.8286   10.2830   -5.4957 H   0  0  0  0  0  0  0  0  0  0  0  0
    2.5045   11.9308   -6.1966 H   0  0  0  0  0  0  0  0  0  0  0  0
    4.5307   10.8859   -7.1577 H   0  0  0  0  0  0  0  0  0  0  0  0
    4.8831   12.4093   -6.2517 H   0  0  0  0  0  0  0  0  0  0  0  0
    6.5610   10.7839   -5.7062 H   0  0  0  0  0  0  0  0  0  0  0  0
    4.2970    9.1430   -5.0060 H   0  0  0  0  0  0  0  0  0  0  0  0
    6.3933   12.8623   -2.7502 H   0  0  0  0  0  0  0  0  0  0  0  0
    7.2212   12.5128   -4.3056 H   0  0  0  0  0  0  0  0  0  0  0  0
    5.5898   13.2647   -4.3056 H   0  0  0  0  0  0  0  0  0  0  0  0
    6.3748   10.3753   -1.9328 H   0  0  0  0  0  0  0  0  0  0  0  0
    6.3242    9.1625   -3.2569 H   0  0  0  0  0  0  0  0  0  0  0  0
    7.5869   10.4401   -3.2569 H   0  0  0  0  0  0  0  0  0  0  0  0
    0.5604   10.2061   -2.9747 H   0  0  0  0  0  0  0  0  0  0  0  0
   -0.0237   10.9772   -4.4882 H   0  0  0  0  0  0  0  0  0  0  0  0
    1.5153   10.0508   -4.4882 H   0  0  0  0  0  0  0  0  0  0  0  0
    1.2425   13.2859   -5.2587 H   0  0  0  0  0  0  0  0  0  0  0  0
   -0.1875   12.9487   -4.1287 H   0  0  0  0  0  0  0  0  0  0  0  0
    2.0369   14.9703   -3.7429 H   0  0  0  0  0  0  0  0  0  0  0  0
    0.2758   15.2686   -4.0213 H   0  0  0  0  0  0  0  0  0  0  0  0
   -0.9373   13.9875   -0.7784 H   0  0  0  0  0  0  0  0  0  0  0  0
   -1.4030   14.7828   -2.3202 H   0  0  0  0  0  0  0  0  0  0  0  0
   -0.8660   13.0687   -2.3202 H   0  0  0  0  0  0  0  0  0  0  0  0
  1  2  1  0
  2  3  1  0
  3  4  1  0
  4  5  1  0
  5  6  1  0
  6  7  1  0
  7  8  1  0
  7  9  1  0
  2 10  1  0
 10 11  1  0
 11 12  1  0
 12 13  1  0
 13 14  1  1
 13 15  1  0
 15 16  1  0
 16 17  1  0
 17 18  2  0
 18 19  1  0
 19 20  1  0
 20 21  1  0
 21 22  1  0
 22 23  1  0
 22 24  1  0
 24 25  1  0
 24 26  1  0
 19 27  1  0
 27 28  1  1
 27 29  1  0
 29 30  1  0
 30 31  1  0
 31 32  1  6
  7  5  1  0
 31 10  1  0
 31 13  1  0
 27 15  1  0
 24 18  1  0
  1 33  1  0
  1 34  1  0
  1 35  1  0
  2 36  1  6
  3 37  1  0
  3 38  1  0
  4 39  1  0
  4 40  1  0
  5 41  1  1
  8 42  1  0
  8 43  1  0
  8 44  1  0
  9 45  1  0
  9 46  1  0
  9 47  1  0
 10 48  1  6
 11 49  1  0
 11 50  1  0
 12 51  1  0
 12 52  1  0
 14 53  1  0
 14 54  1  0
 14 55  1  0
 15 56  1  1
 16 57  1  0
 16 58  1  0
 17 59  1  0
 19 60  1  6
 20 61  1  0
 20 62  1  0
 21 63  1  0
 21 64  1  0
 22 65  1  6
 23 66  1  0
 25 67  1  0
 25 68  1  0
 25 69  1  0
 26 70  1  0
 26 71  1  0
 26 72  1  0
 28 73  1  0
 28 74  1  0
 28 75  1  0
 29 76  1  0
 29 77  1  0
 30 78  1  0
 30 79  1  0
 32 80  1  0
 32 81  1  0
 32 82  1  0
M  END
>  <meeko>  (7) 
{"is_sidechain": [false], "intermolecular_energy": 2.731, "internal_energy": -0.839}

$$$$
EPH_relaxed_0001_pdb2pqr_Repair_377_r2_0001_out
     RDKit          3D

 82 86  0  0  0  0  0  0  0  0999 V2000
    3.0400   18.7860   -1.0370 C   0  0  0  0  0  0  0  0  0  0  0  0
    2.7120   17.7500   -2.1150 C   0  0  2  0  0  0  0  0  0  0  0  0
    1.3210   17.9820   -2.7390 C   0  0  0  0  0  0  0  0  0  0  0  0
    0.6450   19.2740   -2.2730 C   0  0  0  0  0  0  0  0  0  0  0  0
   -0.7150   19.0130   -1.7000 C   0  0  2  0  0  0  0  0  0  0  0  0
   -1.4570   20.1910   -1.3580 O   0  0  0  0  0  0  0  0  0  0  0  0
   -1.0940   19.3310   -0.2650 C   0  0  0  0  0  0  0  0  0  0  0  0
   -0.1100   19.9370    0.6850 C   0  0  0  0  0  0  0  0  0  0  0  0
   -2.2550   18.6090    0.3450 C   0  0  0  0  0  0  0  0  0  0  0  0
    2.7910   16.3450   -1.5290 C   0  0  1  0  0  0  0  0  0  0  0  0
    3.3930   16.3290   -0.0980 C   0  0  0  0  0  0  0  0  0  0  0  0
    2.6630   15.2040    0.6800 C   0  0  0  0  0  0  0  0  0  0  0  0
    1.9130   14.4000   -0.4070 C   0  0  1  0  0  0  0  0  0  0  0  0
    2.9910   13.4500   -1.0180 C   0  0  0  0  0  0  0  0  0  0  0  0
    0.6490   13.6100    0.0660 C   0  0  2  0  0  0  0  0  0  0  0  0
    0.9200   12.5070    1.1040 C   0  0  0  0  0  0  0  0  0  0  0  0
    1.2070   11.1560    0.5390 C   0  0  0  0  0  0  0  0  0  0  0  0
    0.9690   10.7710   -0.7290 C   0  0  0  0  0  0  0  0  0  0  0  0
    0.2630   11.7090   -1.7170 C   0  0  1  0  0  0  0  0  0  0  0  0
   -0.8430   10.9270   -2.4720 C   0  0  0  0  0  0  0  0  0  0  0  0
   -0.3120    9.6640   -3.1440 C   0  0  0  0  0  0  0  0  0  0  0  0
    0.3310    8.7310   -2.1210 C   0  0  2  0  0  0  0  0  0  0  0  0
   -0.6860    8.2400   -1.2420 O   0  0  0  0  0  0  0  0  0  0  0  0
    1.4550    9.4130   -1.2910 C   0  0  0  0  0  0  0  0  0  0  0  0
    2.6850    9.6720   -2.1950 C   0  0  0  0  0  0  0  0  0  0  0  0
    1.9200    8.4080   -0.2030 C   0  0  0  0  0  0  0  0  0  0  0  0
   -0.2640   13.0820   -1.1140 C   0  0  1  0  0  0  0  0  0  0  0  0
   -1.6920   12.8880   -0.5190 C   0  0  0  0  0  0  0  0  0  0  0  0
   -0.4060   14.1330   -2.2770 C   0  0  0  0  0  0  0  0  0  0  0  0
    0.8450   14.9660   -2.6170 C   0  0  0  0  0  0  0  0  0  0  0  0
    1.4610   15.5710   -1.3530 C   0  0  2  0  0  0  0  0  0  0  0  0
    0.4080   16.5490   -0.7280 C   0  0  0  0  0  0  0  0  0  0  0  0
    2.8981   18.3378   -0.0425 H   0  0  0  0  0  0  0  0  0  0  0  0
    4.0851   19.1112   -1.1469 H   0  0  0  0  0  0  0  0  0  0  0  0
    2.3725   19.6534   -1.1469 H   0  0  0  0  0  0  0  0  0  0  0  0
    3.4572   17.8607   -2.9166 H   0  0  0  0  0  0  0  0  0  0  0  0
    1.4335   18.0238   -3.8324 H   0  0  0  0  0  0  0  0  0  0  0  0
    0.6802   17.1489   -2.4145 H   0  0  0  0  0  0  0  0  0  0  0  0
    1.2718   19.7463   -1.5023 H   0  0  0  0  0  0  0  0  0  0  0  0
    0.5285   19.9338   -3.1454 H   0  0  0  0  0  0  0  0  0  0  0  0
   -0.8210   18.1013   -2.3063 H   0  0  0  0  0  0  0  0  0  0  0  0
   -0.4296   19.7402    1.7190 H   0  0  0  0  0  0  0  0  0  0  0  0
    0.8825   19.4935    0.5173 H   0  0  0  0  0  0  0  0  0  0  0  0
   -0.0594   21.0230    0.5173 H   0  0  0  0  0  0  0  0  0  0  0  0
   -2.1805   18.6553    1.4415 H   0  0  0  0  0  0  0  0  0  0  0  0
   -3.1931   19.0833    0.0209 H   0  0  0  0  0  0  0  0  0  0  0  0
   -2.2445   17.5579    0.0209 H   0  0  0  0  0  0  0  0  0  0  0  0
    3.4088   15.8585   -2.2982 H   0  0  0  0  0  0  0  0  0  0  0  0
    4.4721   16.1201   -0.1430 H   0  0  0  0  0  0  0  0  0  0  0  0
    3.2614   17.3022    0.3975 H   0  0  0  0  0  0  0  0  0  0  0  0
    3.3862   14.5639    1.2065 H   0  0  0  0  0  0  0  0  0  0  0  0
    1.9830   15.6018    1.4477 H   0  0  0  0  0  0  0  0  0  0  0  0
    3.5486   12.9586   -0.2071 H   0  0  0  0  0  0  0  0  0  0  0  0
    2.4981   12.6872   -1.6387 H   0  0  0  0  0  0  0  0  0  0  0  0
    3.6857   14.0349   -1.6387 H   0  0  0  0  0  0  0  0  0  0  0  0
    0.0717   14.3825    0.5951 H   0  0  0  0  0  0  0  0  0  0  0  0
    1.7868   12.8140    1.7076 H   0  0  0  0  0  0  0  0  0  0  0  0
   -0.0076   12.4025    1.6859 H   0  0  0  0  0  0  0  0  0  0  0  0
    1.6508   10.4113    1.2161 H   0  0  0  0  0  0  0  0  0  0  0  0
    1.0356   12.0417   -2.4258 H   0  0  0  0  0  0  0  0  0  0  0  0
   -1.6259   10.6418   -1.7539 H   0  0  0  0  0  0  0  0  0  0  0  0
   -1.2372   11.5844   -3.2610 H   0  0  0  0  0  0  0  0  0  0  0  0
   -1.1452    9.1401   -3.6353 H   0  0  0  0  0  0  0  0  0  0  0  0
    0.4497    9.9532   -3.8830 H   0  0  0  0  0  0  0  0  0  0  0  0
    0.8065    7.9093   -2.6767 H   0  0  0  0  0  0  0  0  0  0  0  0
   -1.5470    8.4870   -1.6210 H   0  0  0  0  0  0  0  0  0  0  0  0
    3.5688    9.8581   -1.5671 H   0  0  0  0  0  0  0  0  0  0  0  0
    2.8651    8.7921   -2.8301 H   0  0  0  0  0  0  0  0  0  0  0  0
    2.4950   10.5498   -2.8301 H   0  0  0  0  0  0  0  0  0  0  0  0
    1.7246    8.8303    0.7937 H   0  0  0  0  0  0  0  0  0  0  0  0
    1.3673    7.4637   -0.3159 H   0  0  0  0  0  0  0  0  0  0  0  0
    2.9976    8.2179   -0.3159 H   0  0  0  0  0  0  0  0  0  0  0  0
   -1.6356   12.8957    0.5795 H   0  0  0  0  0  0  0  0  0  0  0  0
   -2.3448   13.7057   -0.8584 H   0  0  0  0  0  0  0  0  0  0  0  0
   -2.1030   11.9258   -0.8584 H   0  0  0  0  0  0  0  0  0  0  0  0
   -0.6990   13.5865   -3.1856 H   0  0  0  0  0  0  0  0  0  0  0  0
   -1.1480   14.8613   -1.9179 H   0  0  0  0  0  0  0  0  0  0  0  0
    1.5878   14.3172   -3.1041 H   0  0  0  0  0  0  0  0  0  0  0  0
    0.5489   15.7848   -3.2892 H   0  0  0  0  0  0  0  0  0  0  0  0
    0.4647   16.4963    0.3693 H   0  0  0  0  0  0  0  0  0  0  0  0
    0.6213   17.5767   -1.0573 H   0  0  0  0  0  0  0  0  0  0  0  0
   -0.6011   16.2605   -1.0573 H   0  0  0  0  0  0  0  0  0  0  0  0
  1  2  1  0
  2  3  1  0
  3  4  1  0
  4  5  1  0
  5  6  1  0
  6  7  1  0
  7  8  1  0
  7  9  1  0
  2 10  1  0
 10 11  1  0
 11 12  1  0
 12 13  1  0
 13 14  1  6
 13 15  1  0
 15 16  1  0
 16 17  1  0
 17 18  2  0
 18 19  1  0
 19 20  1  0
 20 21  1  0
 21 22  1  0
 22 23  1  0
 22 24  1  0
 24 25  1  0
 24 26  1  0
 19 27  1  0
 27 28  1  1
 27 29  1  0
 29 30  1  0
 30 31  1  0
 31 32  1  1
  7  5  1  0
 31 10  1  0
 31 13  1  0
 27 15  1  0
 24 18  1  0
  1 33  1  0
  1 34  1  0
  1 35  1  0
  2 36  1  6
  3 37  1  0
  3 38  1  0
  4 39  1  0
  4 40  1  0
  5 41  1  6
  8 42  1  0
  8 43  1  0
  8 44  1  0
  9 45  1  0
  9 46  1  0
  9 47  1  0
 10 48  1  6
 11 49  1  0
 11 50  1  0
 12 51  1  0
 12 52  1  0
 14 53  1  0
 14 54  1  0
 14 55  1  0
 15 56  1  1
 16 57  1  0
 16 58  1  0
 17 59  1  0
 19 60  1  6
 20 61  1  0
 20 62  1  0
 21 63  1  0
 21 64  1  0
 22 65  1  6
 23 66  1  0
 25 67  1  0
 25 68  1  0
 25 69  1  0
 26 70  1  0
 26 71  1  0
 26 72  1  0
 28 73  1  0
 28 74  1  0
 28 75  1  0
 29 76  1  0
 29 77  1  0
 30 78  1  0
 30 79  1  0
 32 80  1  0
 32 81  1  0
 32 82  1  0
M  END
>  <meeko>  (8) 
{"is_sidechain": [false], "intermolecular_energy": 2.731, "internal_energy": -0.839}

$$$$
EPH_relaxed_0001_pdb2pqr_Repair_377_r2_0001_out
     RDKit          3D

 82 86  0  0  0  0  0  0  0  0999 V2000
   -3.7970    7.2210   -3.3800 C   0  0  0  0  0  0  0  0  0  0  0  0
   -3.8140    7.2980   -1.8510 C   0  0  2  0  0  0  0  0  0  0  0  0
   -5.2290    7.0870   -1.2750 C   0  0  0  0  0  0  0  0  0  0  0  0
   -6.3440    7.2340   -2.3140 C   0  0  0  0  0  0  0  0  0  0  0  0
   -7.6760    7.4670   -1.6680 C   0  0  2  0  0  0  0  0  0  0  0  0
   -8.2890    6.2940   -1.1180 O   0  0  0  0  0  0  0  0  0  0  0  0
   -8.9800    6.9150   -2.2140 C   0  0  0  0  0  0  0  0  0  0  0  0
   -9.0140    6.0850   -3.4590 C   0  0  0  0  0  0  0  0  0  0  0  0
  -10.2610    7.5810   -1.8200 C   0  0  0  0  0  0  0  0  0  0  0  0
   -3.2600    8.6410   -1.3920 C   0  0  1  0  0  0  0  0  0  0  0  0
   -3.8660    9.1080   -0.0420 C   0  0  0  0  0  0  0  0  0  0  0  0
   -2.7410    9.8560    0.7190 C   0  0  0  0  0  0  0  0  0  0  0  0
   -1.6390   10.0840   -0.3410 C   0  0  1  0  0  0  0  0  0  0  0  0
   -2.1060   11.3410   -1.1410 C   0  0  0  0  0  0  0  0  0  0  0  0
   -0.1820   10.2550    0.2020 C   0  0  2  0  0  0  0  0  0  0  0  0
    0.0360   11.4760    1.1120 C   0  0  0  0  0  0  0  0  0  0  0  0
    0.4510   12.7270    0.4120 C   0  0  0  0  0  0  0  0  0  0  0  0
    0.9160   12.8000   -0.8490 C   0  0  0  0  0  0  0  0  0  0  0  0
    1.1560   11.5300   -1.6750 C   0  0  1  0  0  0  0  0  0  0  0  0
    2.5420   11.6160   -2.3660 C   0  0  0  0  0  0  0  0  0  0  0  0
    2.7070   12.8880   -3.1910 C   0  0  0  0  0  0  0  0  0  0  0  0
    2.5190   14.1300   -2.3230 C   0  0  2  0  0  0  0  0  0  0  0  0
    3.5930   14.2000   -1.3810 O   0  0  0  0  0  0  0  0  0  0  0  0
    1.1600   14.1500   -1.5690 C   0  0  0  0  0  0  0  0  0  0  0  0
    0.0070   14.3770   -2.5780 C   0  0  0  0  0  0  0  0  0  0  0  0
    1.1570   15.3800   -0.6220 C   0  0  0  0  0  0  0  0  0  0  0  0
    0.9400   10.1540   -0.9100 C   0  0  1  0  0  0  0  0  0  0  0  0
    2.2540    9.7390   -0.1800 C   0  0  0  0  0  0  0  0  0  0  0  0
    0.6400    9.0220   -1.9620 C   0  0  0  0  0  0  0  0  0  0  0  0
   -0.8330    8.8240   -2.3690 C   0  0  0  0  0  0  0  0  0  0  0  0
   -1.7350    8.7300   -1.1340 C   0  0  2  0  0  0  0  0  0  0  0  0
   -1.3030    7.4620   -0.3210 C   0  0  0  0  0  0  0  0  0  0  0  0
   -3.5696    6.1912   -3.6928 H   0  0  0  0  0  0  0  0  0  0  0  0
   -4.7816    7.5146   -3.7729 H   0  0  0  0  0  0  0  0  0  0  0  0
   -3.0275    7.9019   -3.7729 H   0  0  0  0  0  0  0  0  0  0  0  0
   -3.1782    6.4845   -1.4715 H   0  0  0  0  0  0  0  0  0  0  0  0
   -5.2830    6.0745   -0.8484 H   0  0  0  0  0  0  0  0  0  0  0  0
   -5.3886    7.8698   -0.5188 H   0  0  0  0  0  0  0  0  0  0  0  0
   -6.1112    8.0868   -2.9686 H   0  0  0  0  0  0  0  0  0  0  0  0
   -6.4012    6.2989   -2.8904 H   0  0  0  0  0  0  0  0  0  0  0  0
   -7.3748    8.4791   -1.3600 H   0  0  0  0  0  0  0  0  0  0  0  0
   -9.0576    5.0197   -3.1884 H   0  0  0  0  0  0  0  0  0  0  0  0
   -9.9021    6.3494   -4.0518 H   0  0  0  0  0  0  0  0  0  0  0  0
   -8.1073    6.2759   -4.0518 H   0  0  0  0  0  0  0  0  0  0  0  0
  -10.3326    7.6182   -0.7230 H   0  0  0  0  0  0  0  0  0  0  0  0
  -10.2817    8.6040   -2.2237 H   0  0  0  0  0  0  0  0  0  0  0  0
  -11.1103    7.0103   -2.2237 H   0  0  0  0  0  0  0  0  0  0  0  0
   -3.5319    9.2589   -2.2605 H   0  0  0  0  0  0  0  0  0  0  0  0
   -4.7155    9.7834   -0.2216 H   0  0  0  0  0  0  0  0  0  0  0  0
   -4.2359    8.2522    0.5417 H   0  0  0  0  0  0  0  0  0  0  0  0
   -3.1085   10.8162    1.1100 H   0  0  0  0  0  0  0  0  0  0  0  0
   -2.3745    9.2875    1.5865 H   0  0  0  0  0  0  0  0  0  0  0  0
   -2.4007   12.1343   -0.4382 H   0  0  0  0  0  0  0  0  0  0  0  0
   -1.2812   11.6999   -1.7742 H   0  0  0  0  0  0  0  0  0  0  0  0
   -2.9651   11.0743   -1.7742 H   0  0  0  0  0  0  0  0  0  0  0  0
   -0.0673    9.3748    0.8517 H   0  0  0  0  0  0  0  0  0  0  0  0
   -0.9073   11.6790    1.6401 H   0  0  0  0  0  0  0  0  0  0  0  0
    0.8678   11.2118    1.7815 H   0  0  0  0  0  0  0  0  0  0  0  0
    0.3700   13.6691    0.9741 H   0  0  0  0  0  0  0  0  0  0  0  0
    0.3609   11.5068   -2.4347 H   0  0  0  0  0  0  0  0  0  0  0  0
    3.3236   11.5938   -1.5923 H   0  0  0  0  0  0  0  0  0  0  0  0
    2.6264   10.7602   -3.0519 H   0  0  0  0  0  0  0  0  0  0  0  0
    3.7158   12.9045   -3.6292 H   0  0  0  0  0  0  0  0  0  0  0  0
    1.9434   12.8943   -3.9828 H   0  0  0  0  0  0  0  0  0  0  0  0
    2.5194   15.0035   -2.9915 H   0  0  0  0  0  0  0  0  0  0  0  0
    3.2400   13.9440   -0.5120 H   0  0  0  0  0  0  0  0  0  0  0  0
   -0.9288   14.5612   -2.0300 H   0  0  0  0  0  0  0  0  0  0  0  0
    0.2390   15.2467   -3.2103 H   0  0  0  0  0  0  0  0  0  0  0  0
   -0.1080   13.4843   -3.2103 H   0  0  0  0  0  0  0  0  0  0  0  0
    1.1578   15.0379    0.4234 H   0  0  0  0  0  0  0  0  0  0  0  0
    2.0537   15.9891   -0.8092 H   0  0  0  0  0  0  0  0  0  0  0  0
    0.2574   15.9847   -0.8092 H   0  0  0  0  0  0  0  0  0  0  0  0
    2.1000    9.7876    0.9081 H   0  0  0  0  0  0  0  0  0  0  0  0
    2.5240    8.7119   -0.4666 H   0  0  0  0  0  0  0  0  0  0  0  0
    3.0649   10.4248   -0.4666 H   0  0  0  0  0  0  0  0  0  0  0  0
    1.2086    9.2562   -2.8741 H   0  0  0  0  0  0  0  0  0  0  0  0
    0.9300    8.0840   -1.4659 H   0  0  0  0  0  0  0  0  0  0  0  0
   -1.1540    9.6770   -2.9850 H   0  0  0  0  0  0  0  0  0  0  0  0
   -0.9170    7.8858   -2.9371 H   0  0  0  0  0  0  0  0  0  0  0  0
   -1.3754    7.6746    0.7558 H   0  0  0  0  0  0  0  0  0  0  0  0
   -1.9653    6.6210   -0.5741 H   0  0  0  0  0  0  0  0  0  0  0  0
   -0.2650    7.2003   -0.5741 H   0  0  0  0  0  0  0  0  0  0  0  0
  1  2  1  0
  2  3  1  0
  3  4  1  0
  4  5  1  0
  5  6  1  0
  6  7  1  0
  7  8  1  0
  7  9  1  0
  2 10  1  0
 10 11  1  0
 11 12  1  0
 12 13  1  0
 13 14  1  6
 13 15  1  0
 15 16  1  0
 16 17  1  0
 17 18  2  0
 18 19  1  0
 19 20  1  0
 20 21  1  0
 21 22  1  0
 22 23  1  0
 22 24  1  0
 24 25  1  0
 24 26  1  0
 19 27  1  0
 27 28  1  1
 27 29  1  0
 29 30  1  0
 30 31  1  0
 31 32  1  1
  7  5  1  0
 31 10  1  0
 31 13  1  0
 27 15  1  0
 24 18  1  0
  1 33  1  0
  1 34  1  0
  1 35  1  0
  2 36  1  1
  3 37  1  0
  3 38  1  0
  4 39  1  0
  4 40  1  0
  5 41  1  1
  8 42  1  0
  8 43  1  0
  8 44  1  0
  9 45  1  0
  9 46  1  0
  9 47  1  0
 10 48  1  6
 11 49  1  0
 11 50  1  0
 12 51  1  0
 12 52  1  0
 14 53  1  0
 14 54  1  0
 14 55  1  0
 15 56  1  1
 16 57  1  0
 16 58  1  0
 17 59  1  0
 19 60  1  6
 20 61  1  0
 20 62  1  0
 21 63  1  0
 21 64  1  0
 22 65  1  6
 23 66  1  0
 25 67  1  0
 25 68  1  0
 25 69  1  0
 26 70  1  0
 26 71  1  0
 26 72  1  0
 28 73  1  0
 28 74  1  0
 28 75  1  0
 29 76  1  0
 29 77  1  0
 30 78  1  0
 30 79  1  0
 32 80  1  0
 32 81  1  0
 32 82  1  0
M  END
>  <meeko>  (9) 
{"is_sidechain": [false], "intermolecular_energy": 2.731, "internal_energy": -0.839}

$$$$
EPH_relaxed_0001_pdb2pqr_Repair_377_r2_0001_out
     RDKit          3D

 82 86  0  0  0  0  0  0  0  0999 V2000
   -2.2320    8.0350   -1.7200 C   0  0  0  0  0  0  0  0  0  0  0  0
   -2.1710    8.7260   -0.3540 C   0  0  2  0  0  0  0  0  0  0  0  0
   -3.5550    8.8020    0.3210 C   0  0  0  0  0  0  0  0  0  0  0  0
   -4.6990    9.0950   -0.6530 C   0  0  0  0  0  0  0  0  0  0  0  0
   -5.9230    8.2940   -0.3280 C   0  0  2  0  0  0  0  0  0  0  0  0
   -5.6690    6.9230    0.0080 O   0  0  0  0  0  0  0  0  0  0  0  0
   -6.4290    7.1520   -1.1900 C   0  0  0  0  0  0  0  0  0  0  0  0
   -5.7210    6.7490   -2.4450 C   0  0  0  0  0  0  0  0  0  0  0  0
   -7.8680    6.7530   -1.0770 C   0  0  0  0  0  0  0  0  0  0  0  0
   -1.5870   10.1260   -0.5060 C   0  0  1  0  0  0  0  0  0  0  0  0
   -1.0280   10.6870    0.8280 C   0  0  0  0  0  0  0  0  0  0  0  0
    0.2130   11.5440    0.4670 C   0  0  0  0  0  0  0  0  0  0  0  0
    0.1330   11.7200   -1.0670 C   0  0  1  0  0  0  0  0  0  0  0  0
   -0.8890   12.8810   -1.2850 C   0  0  0  0  0  0  0  0  0  0  0  0
    1.4840   11.9960   -1.8030 C   0  0  2  0  0  0  0  0  0  0  0  0
    2.1920   13.3010   -1.4000 C   0  0  0  0  0  0  0  0  0  0  0  0
    1.8300   14.5000   -2.2120 C   0  0  0  0  0  0  0  0  0  0  0  0
    1.1930   14.4780   -3.3970 C   0  0  0  0  0  0  0  0  0  0  0  0
    0.8550   13.1500   -4.0860 C   0  0  1  0  0  0  0  0  0  0  0  0
    1.2510   13.2280   -5.5840 C   0  0  0  0  0  0  0  0  0  0  0  0
    0.6270   14.4270   -6.2920 C   0  0  0  0  0  0  0  0  0  0  0  0
    1.0330   15.7320   -5.6130 C   0  0  2  0  0  0  0  0  0  0  0  0
    2.4380   15.9300   -5.7960 O   0  0  0  0  0  0  0  0  0  0  0  0
    0.6930   15.7660   -4.0970 C   0  0  0  0  0  0  0  0  0  0  0  0
   -0.8420   15.8570   -3.9100 C   0  0  0  0  0  0  0  0  0  0  0  0
    1.2800   17.0760   -3.5050 C   0  0  0  0  0  0  0  0  0  0  0  0
    1.4100   11.8400   -3.3760 C   0  0  1  0  0  0  0  0  0  0  0  0
    2.8610   11.5450   -3.8630 C   0  0  0  0  0  0  0  0  0  0  0  0
    0.5340   10.6080   -3.8140 C   0  0  0  0  0  0  0  0  0  0  0  0
   -0.7250   10.3160   -2.9750 C   0  0  0  0  0  0  0  0  0  0  0  0
   -0.3940   10.2980   -1.4800 C   0  0  2  0  0  0  0  0  0  0  0  0
    0.6140    9.1260   -1.2260 C   0  0  0  0  0  0  0  0  0  0  0  0
   -2.3279    6.9485   -1.5773 H   0  0  0  0  0  0  0  0  0  0  0  0
   -3.1006    8.4092   -2.2817 H   0  0  0  0  0  0  0  0  0  0  0  0
   -1.3113    8.2512   -2.2817 H   0  0  0  0  0  0  0  0  0  0  0  0
   -1.5211    8.1205    0.2948 H   0  0  0  0  0  0  0  0  0  0  0  0
   -3.7553    7.8384    0.8122 H   0  0  0  0  0  0  0  0  0  0  0  0
   -3.5189    9.6376    1.0355 H   0  0  0  0  0  0  0  0  0  0  0  0
   -4.9484   10.1650   -0.5984 H   0  0  0  0  0  0  0  0  0  0  0  0
   -4.3671    8.8185   -1.6646 H   0  0  0  0  0  0  0  0  0  0  0  0
   -6.4223    9.1814    0.0882 H   0  0  0  0  0  0  0  0  0  0  0  0
   -4.7915    6.2199   -2.1879 H   0  0  0  0  0  0  0  0  0  0  0  0
   -6.3698    6.0848   -3.0349 H   0  0  0  0  0  0  0  0  0  0  0  0
   -5.4812    7.6460   -3.0349 H   0  0  0  0  0  0  0  0  0  0  0  0
   -8.1449    6.6762   -0.0152 H   0  0  0  0  0  0  0  0  0  0  0  0
   -8.4980    7.5103   -1.5664 H   0  0  0  0  0  0  0  0  0  0  0  0
   -8.0181    5.7794   -1.5664 H   0  0  0  0  0  0  0  0  0  0  0  0
   -2.4699   10.6527   -0.8972 H   0  0  0  0  0  0  0  0  0  0  0  0
   -1.7868   11.3094    1.3249 H   0  0  0  0  0  0  0  0  0  0  0  0
   -0.7593    9.8730    1.5174 H   0  0  0  0  0  0  0  0  0  0  0  0
    0.1712   12.5201    0.9725 H   0  0  0  0  0  0  0  0  0  0  0  0
    1.1537   11.0699    0.7839 H   0  0  0  0  0  0  0  0  0  0  0  0
   -1.2245   13.2622   -0.3092 H   0  0  0  0  0  0  0  0  0  0  0  0
   -0.4069   13.6927   -1.8496 H   0  0  0  0  0  0  0  0  0  0  0  0
   -1.7552   12.5058   -1.8496 H   0  0  0  0  0  0  0  0  0  0  0  0
    2.1243   11.1821   -1.4321 H   0  0  0  0  0  0  0  0  0  0  0  0
    1.9416   13.5133   -0.3501 H   0  0  0  0  0  0  0  0  0  0  0  0
    3.2651   13.1303   -1.5712 H   0  0  0  0  0  0  0  0  0  0  0  0
    2.1074   15.4846   -1.8075 H   0  0  0  0  0  0  0  0  0  0  0  0
   -0.2343   13.0282   -3.9938 H   0  0  0  0  0  0  0  0  0  0  0  0
    2.3458   13.3066   -5.6558 H   0  0  0  0  0  0  0  0  0  0  0  0
    0.8775   12.3179   -6.0761 H   0  0  0  0  0  0  0  0  0  0  0  0
    0.9667   14.4444   -7.3381 H   0  0  0  0  0  0  0  0  0  0  0  0
   -0.4679   14.3322   -6.2452 H   0  0  0  0  0  0  0  0  0  0  0  0
    0.4539   16.5412   -6.0819 H   0  0  0  0  0  0  0  0  0  0  0  0
    2.7930   15.1350   -6.2300 H   0  0  0  0  0  0  0  0  0  0  0  0
   -1.0804   15.8711   -2.8362 H   0  0  0  0  0  0  0  0  0  0  0  0
   -1.2147   16.7788   -4.3805 H   0  0  0  0  0  0  0  0  0  0  0  0
   -1.3210   14.9857   -4.3805 H   0  0  0  0  0  0  0  0  0  0  0  0
    1.2569   17.0245   -2.4064 H   0  0  0  0  0  0  0  0  0  0  0  0
    2.3191   17.1985   -3.8446 H   0  0  0  0  0  0  0  0  0  0  0  0
    0.6798   17.9330   -3.8446 H   0  0  0  0  0  0  0  0  0  0  0  0
    3.5199   11.4110   -2.9924 H   0  0  0  0  0  0  0  0  0  0  0  0
    2.8646   10.6277   -4.4701 H   0  0  0  0  0  0  0  0  0  0  0  0
    3.2225   12.3880   -4.4701 H   0  0  0  0  0  0  0  0  0  0  0  0
    0.2098   10.7822   -4.8506 H   0  0  0  0  0  0  0  0  0  0  0  0
    1.1823    9.7304   -3.6744 H   0  0  0  0  0  0  0  0  0  0  0  0
   -1.4755   11.0967   -3.1682 H   0  0  0  0  0  0  0  0  0  0  0  0
   -1.1157    9.3281   -3.2601 H   0  0  0  0  0  0  0  0  0  0  0  0
    0.7403    8.9792   -0.1432 H   0  0  0  0  0  0  0  0  0  0  0  0
    0.2238    8.2023   -1.6782 H   0  0  0  0  0  0  0  0  0  0  0  0
    1.5857    9.3736   -1.6782 H   0  0  0  0  0  0  0  0  0  0  0  0
  1  2  1  0
  2  3  1  0
  3  4  1  0
  4  5  1  0
  5  6  1  0
  6  7  1  0
  7  8  1  0
  7  9  1  0
  2 10  1  0
 10 11  1  0
 11 12  1  0
 12 13  1  0
 13 14  1  1
 13 15  1  0
 15 16  1  0
 16 17  1  0
 17 18  2  0
 18 19  1  0
 19 20  1  0
 20 21  1  0
 21 22  1  0
 22 23  1  0
 22 24  1  0
 24 25  1  0
 24 26  1  0
 19 27  1  0
 27 28  1  6
 27 29  1  0
 29 30  1  0
 30 31  1  0
 31 32  1  6
  7  5  1  0
 31 10  1  0
 31 13  1  0
 27 15  1  0
 24 18  1  0
  1 33  1  0
  1 34  1  0
  1 35  1  0
  2 36  1  1
  3 37  1  0
  3 38  1  0
  4 39  1  0
  4 40  1  0
  5 41  1  1
  8 42  1  0
  8 43  1  0
  8 44  1  0
  9 45  1  0
  9 46  1  0
  9 47  1  0
 10 48  1  6
 11 49  1  0
 11 50  1  0
 12 51  1  0
 12 52  1  0
 14 53  1  0
 14 54  1  0
 14 55  1  0
 15 56  1  1
 16 57  1  0
 16 58  1  0
 17 59  1  0
 19 60  1  6
 20 61  1  0
 20 62  1  0
 21 63  1  0
 21 64  1  0
 22 65  1  6
 23 66  1  0
 25 67  1  0
 25 68  1  0
 25 69  1  0
 26 70  1  0
 26 71  1  0
 26 72  1  0
 28 73  1  0
 28 74  1  0
 28 75  1  0
 29 76  1  0
 29 77  1  0
 30 78  1  0
 30 79  1  0
 32 80  1  0
 32 81  1  0
 32 82  1  0
M  END
>  <meeko>  (10) 
{"is_sidechain": [false], "intermolecular_energy": 2.731, "internal_energy": -0.839}

$$$$
EPH_relaxed_0001_pdb2pqr_Repair_377_r2_0001_out
     RDKit          3D

 82 86  0  0  0  0  0  0  0  0999 V2000
   -0.8490   16.3490   -5.8340 C   0  0  0  0  0  0  0  0  0  0  0  0
    0.2340   15.6410   -6.6540 C   0  0  2  0  0  0  0  0  0  0  0  0
   -0.1800   15.4580   -8.1280 C   0  0  0  0  0  0  0  0  0  0  0  0
    0.4470   16.4850   -9.0750 C   0  0  0  0  0  0  0  0  0  0  0  0
    1.8480   16.1080   -9.4520 C   0  0  2  0  0  0  0  0  0  0  0  0
    2.3070   16.6700  -10.6880 O   0  0  0  0  0  0  0  0  0  0  0  0
    2.1870   15.2390  -10.6480 C   0  0  0  0  0  0  0  0  0  0  0  0
    1.1200   14.6930  -11.5440 C   0  0  0  0  0  0  0  0  0  0  0  0
    3.5020   14.5230  -10.6630 C   0  0  0  0  0  0  0  0  0  0  0  0
    0.5540   14.2870   -6.0310 C   0  0  1  0  0  0  0  0  0  0  0  0
    1.8170   13.6290   -6.6480 C   0  0  0  0  0  0  0  0  0  0  0  0
    2.5280   12.8630   -5.5030 C   0  0  0  0  0  0  0  0  0  0  0  0
    1.4900   12.8250   -4.3570 C   0  0  1  0  0  0  0  0  0  0  0  0
    0.5330   11.6480   -4.7210 C   0  0  0  0  0  0  0  0  0  0  0  0
    2.0640   12.6770   -2.9100 C   0  0  2  0  0  0  0  0  0  0  0  0
    2.8340   11.3710   -2.6440 C   0  0  0  0  0  0  0  0  0  0  0  0
    2.0090   10.2380   -2.1310 C   0  0  0  0  0  0  0  0  0  0  0  0
    0.7660   10.3410   -1.6240 C   0  0  0  0  0  0  0  0  0  0  0  0
    0.1030   11.7120   -1.4380 C   0  0  1  0  0  0  0  0  0  0  0  0
   -0.5400   11.7890   -0.0290 C   0  0  0  0  0  0  0  0  0  0  0  0
   -1.5010   10.6350    0.2390 C   0  0  0  0  0  0  0  0  0  0  0  0
   -0.7910    9.2900    0.1020 C   0  0  2  0  0  0  0  0  0  0  0  0
    0.1770    9.1710    1.1490 O   0  0  0  0  0  0  0  0  0  0  0  0
   -0.0960    9.1030   -1.2760 C   0  0  0  0  0  0  0  0  0  0  0  0
   -1.1670    8.9300   -2.3800 C   0  0  0  0  0  0  0  0  0  0  0  0
    0.7000    7.7710   -1.2310 C   0  0  0  0  0  0  0  0  0  0  0  0
    1.0150   12.9730   -1.7630 C   0  0  1  0  0  0  0  0  0  0  0  0
    1.8370   13.3740   -0.5000 C   0  0  0  0  0  0  0  0  0  0  0  0
    0.0910   14.2020   -2.1000 C   0  0  0  0  0  0  0  0  0  0  0  0
   -0.3450   14.3620   -3.5690 C   0  0  0  0  0  0  0  0  0  0  0  0
    0.8570   14.2560   -4.5120 C   0  0  2  0  0  0  0  0  0  0  0  0
    1.8280   15.4420   -4.1840 C   0  0  0  0  0  0  0  0  0  0  0  0
   -0.6436   16.2147   -4.7617 H   0  0  0  0  0  0  0  0  0  0  0  0
   -0.8491   17.4221   -6.0757 H   0  0  0  0  0  0  0  0  0  0  0  0
   -1.8320   15.9186   -6.0757 H   0  0  0  0  0  0  0  0  0  0  0  0
    1.1302   16.2787   -6.6400 H   0  0  0  0  0  0  0  0  0  0  0  0
    0.1272   14.4530   -8.4529 H   0  0  0  0  0  0  0  0  0  0  0  0
   -1.2698   15.5995   -8.1760 H   0  0  0  0  0  0  0  0  0  0  0  0
   -0.1634   16.5474   -9.9880 H   0  0  0  0  0  0  0  0  0  0  0  0
    0.4803   17.4545   -8.5563 H   0  0  0  0  0  0  0  0  0  0  0  0
    2.1436   16.0546   -8.3938 H   0  0  0  0  0  0  0  0  0  0  0  0
    0.3058   14.2764  -10.9329 H   0  0  0  0  0  0  0  0  0  0  0  0
    0.7258   15.5002  -12.1789 H   0  0  0  0  0  0  0  0  0  0  0  0
    1.5441   13.9011  -12.1789 H   0  0  0  0  0  0  0  0  0  0  0  0
    3.8331   14.3427   -9.6296 H   0  0  0  0  0  0  0  0  0  0  0  0
    3.3900   13.5614  -11.1852 H   0  0  0  0  0  0  0  0  0  0  0  0
    4.2489   15.1390  -11.1852 H   0  0  0  0  0  0  0  0  0  0  0  0
   -0.3905   13.7621   -6.2369 H   0  0  0  0  0  0  0  0  0  0  0  0
    1.5281   12.9314   -7.4479 H   0  0  0  0  0  0  0  0  0  0  0  0
    2.4818   14.3869   -7.0880 H   0  0  0  0  0  0  0  0  0  0  0  0
    2.7915   11.8439   -5.8224 H   0  0  0  0  0  0  0  0  0  0  0  0
    3.4684   13.3457   -5.1987 H   0  0  0  0  0  0  0  0  0  0  0  0
    0.1554   11.1836   -3.7981 H   0  0  0  0  0  0  0  0  0  0  0  0
   -0.3125   12.0318   -5.3108 H   0  0  0  0  0  0  0  0  0  0  0  0
    1.0813   10.8986   -5.3108 H   0  0  0  0  0  0  0  0  0  0  0  0
    2.8147   13.4801   -2.8708 H   0  0  0  0  0  0  0  0  0  0  0  0
    3.2993   11.0523   -3.5884 H   0  0  0  0  0  0  0  0  0  0  0  0
    3.5605   11.6021   -1.8510 H   0  0  0  0  0  0  0  0  0  0  0  0
    2.4545    9.2330   -2.1705 H   0  0  0  0  0  0  0  0  0  0  0  0
   -0.6788   11.7792   -2.2089 H   0  0  0  0  0  0  0  0  0  0  0  0
    0.2600   11.7642    0.7256 H   0  0  0  0  0  0  0  0  0  0  0  0
   -1.1175   12.7237    0.0240 H   0  0  0  0  0  0  0  0  0  0  0  0
   -1.9004   10.7288    1.2596 H   0  0  0  0  0  0  0  0  0  0  0  0
   -2.3159   10.6784   -0.4986 H   0  0  0  0  0  0  0  0  0  0  0  0
   -1.5560    8.5032    0.1774 H   0  0  0  0  0  0  0  0  0  0  0  0
   -0.1450    9.6890    1.9070 H   0  0  0  0  0  0  0  0  0  0  0  0
   -2.1510    8.7711   -1.9146 H   0  0  0  0  0  0  0  0  0  0  0  0
   -1.1988    9.8346   -3.0050 H   0  0  0  0  0  0  0  0  0  0  0  0
   -0.9124    8.0613   -3.0050 H   0  0  0  0  0  0  0  0  0  0  0  0
    0.8726    7.4822   -0.1837 H   0  0  0  0  0  0  0  0  0  0  0  0
    0.1248    6.9828   -1.7387 H   0  0  0  0  0  0  0  0  0  0  0  0
    1.6667    7.9042   -1.7387 H   0  0  0  0  0  0  0  0  0  0  0  0
    1.2753   13.1000    0.4052 H   0  0  0  0  0  0  0  0  0  0  0  0
    2.8015   12.8452   -0.5072 H   0  0  0  0  0  0  0  0  0  0  0  0
    2.0140   14.4596   -0.5072 H   0  0  0  0  0  0  0  0  0  0  0  0
   -0.8202   14.1100   -1.4907 H   0  0  0  0  0  0  0  0  0  0  0  0
    0.7032   15.0899   -1.8834 H   0  0  0  0  0  0  0  0  0  0  0  0
   -1.0684   13.5716   -3.8178 H   0  0  0  0  0  0  0  0  0  0  0  0
   -0.8018   15.3549   -3.6932 H   0  0  0  0  0  0  0  0  0  0  0  0
    1.9177   15.5515   -3.0931 H   0  0  0  0  0  0  0  0  0  0  0  0
    2.8188   15.2344   -4.6143 H   0  0  0  0  0  0  0  0  0  0  0  0
    1.4289   16.3724   -4.6143 H   0  0  0  0  0  0  0  0  0  0  0  0
  1  2  1  0
  2  3  1  0
  3  4  1  0
  4  5  1  0
  5  6  1  0
  6  7  1  0
  7  8  1  0
  7  9  1  0
  2 10  1  0
 10 11  1  0
 11 12  1  0
 12 13  1  0
 13 14  1  6
 13 15  1  0
 15 16  1  0
 16 17  1  0
 17 18  2  0
 18 19  1  0
 19 20  1  0
 20 21  1  0
 21 22  1  0
 22 23  1  0
 22 24  1  0
 24 25  1  0
 24 26  1  0
 19 27  1  0
 27 28  1  1
 27 29  1  0
 29 30  1  0
 30 31  1  0
 31 32  1  1
  7  5  1  0
 31 10  1  0
 31 13  1  0
 27 15  1  0
 24 18  1  0
  1 33  1  0
  1 34  1  0
  1 35  1  0
  2 36  1  6
  3 37  1  0
  3 38  1  0
  4 39  1  0
  4 40  1  0
  5 41  1  1
  8 42  1  0
  8 43  1  0
  8 44  1  0
  9 45  1  0
  9 46  1  0
  9 47  1  0
 10 48  1  1
 11 49  1  0
 11 50  1  0
 12 51  1  0
 12 52  1  0
 14 53  1  0
 14 54  1  0
 14 55  1  0
 15 56  1  6
 16 57  1  0
 16 58  1  0
 17 59  1  0
 19 60  1  6
 20 61  1  0
 20 62  1  0
 21 63  1  0
 21 64  1  0
 22 65  1  1
 23 66  1  0
 25 67  1  0
 25 68  1  0
 25 69  1  0
 26 70  1  0
 26 71  1  0
 26 72  1  0
 28 73  1  0
 28 74  1  0
 28 75  1  0
 29 76  1  0
 29 77  1  0
 30 78  1  0
 30 79  1  0
 32 80  1  0
 32 81  1  0
 32 82  1  0
M  END
>  <meeko>  (11) 
{"is_sidechain": [false], "intermolecular_energy": 2.731, "internal_energy": -0.839}

$$$$
EPH_relaxed_0001_pdb2pqr_Repair_377_r2_0001_out
     RDKit          3D

 82 86  0  0  0  0  0  0  0  0999 V2000
   -6.6920    7.3790   -2.6170 C   0  0  0  0  0  0  0  0  0  0  0  0
   -6.6580    7.6600   -1.1120 C   0  0  2  0  0  0  0  0  0  0  0  0
   -8.0320    8.1080   -0.5740 C   0  0  0  0  0  0  0  0  0  0  0  0
   -9.0170    6.9550   -0.3630 C   0  0  0  0  0  0  0  0  0  0  0  0
  -10.2070    7.3820    0.4410 C   0  0  2  0  0  0  0  0  0  0  0  0
  -11.2470    6.4000    0.5400 O   0  0  0  0  0  0  0  0  0  0  0  0
  -11.5830    7.6110   -0.1570 C   0  0  0  0  0  0  0  0  0  0  0  0
  -11.8400    7.4200   -1.6190 C   0  0  0  0  0  0  0  0  0  0  0  0
  -12.5480    8.4840    0.5820 C   0  0  0  0  0  0  0  0  0  0  0  0
   -5.6070    8.7190   -0.8040 C   0  0  1  0  0  0  0  0  0  0  0  0
   -5.7130    9.2620    0.6460 C   0  0  0  0  0  0  0  0  0  0  0  0
   -4.2660    9.5560    1.1200 C   0  0  0  0  0  0  0  0  0  0  0  0
   -3.4130    9.4920   -0.1690 C   0  0  1  0  0  0  0  0  0  0  0  0
   -3.6070   10.8830   -0.8490 C   0  0  0  0  0  0  0  0  0  0  0  0
   -1.8990    9.1480    0.0220 C   0  0  2  0  0  0  0  0  0  0  0  0
   -1.0970   10.1700    0.8470 C   0  0  0  0  0  0  0  0  0  0  0  0
   -0.4610   11.2670    0.0600 C   0  0  0  0  0  0  0  0  0  0  0  0
   -0.2890   11.2730   -1.2750 C   0  0  0  0  0  0  0  0  0  0  0  0
   -0.6670   10.0530   -2.1240 C   0  0  1  0  0  0  0  0  0  0  0  0
    0.4820    9.7370   -3.1180 C   0  0  0  0  0  0  0  0  0  0  0  0
    0.8670   10.9420   -3.9690 C   0  0  0  0  0  0  0  0  0  0  0  0
    1.2930   12.1160   -3.0910 C   0  0  2  0  0  0  0  0  0  0  0  0
    2.5120   11.7740   -2.4230 O   0  0  0  0  0  0  0  0  0  0  0  0
    0.2180   12.5190   -2.0430 C   0  0  0  0  0  0  0  0  0  0  0  0
   -0.9890   13.1720   -2.7600 C   0  0  0  0  0  0  0  0  0  0  0  0
    0.8280   13.6180   -1.1320 C   0  0  0  0  0  0  0  0  0  0  0  0
   -1.1470    8.7700   -1.3180 C   0  0  1  0  0  0  0  0  0  0  0  0
    0.0850    7.9070   -0.9090 C   0  0  0  0  0  0  0  0  0  0  0  0
   -2.0260    7.8680   -2.2640 C   0  0  0  0  0  0  0  0  0  0  0  0
   -3.5340    8.1810   -2.3170 C   0  0  0  0  0  0  0  0  0  0  0  0
   -4.1200    8.2970   -0.9070 C   0  0  2  0  0  0  0  0  0  0  0  0
   -3.9590    6.9050   -0.2050 C   0  0  0  0  0  0  0  0  0  0  0  0
   -6.8226    6.2999   -2.7857 H   0  0  0  0  0  0  0  0  0  0  0  0
   -7.5306    7.9255   -3.0732 H   0  0  0  0  0  0  0  0  0  0  0  0
   -5.7473    7.7098   -3.0732 H   0  0  0  0  0  0  0  0  0  0  0  0
   -6.3961    6.7192   -0.6057 H   0  0  0  0  0  0  0  0  0  0  0  0
   -7.8788    8.6146    0.3903 H   0  0  0  0  0  0  0  0  0  0  0  0
   -8.4727    8.7721   -1.3321 H   0  0  0  0  0  0  0  0  0  0  0  0
   -9.3603    6.5955   -1.3443 H   0  0  0  0  0  0  0  0  0  0  0  0
   -8.4982    6.1580    0.1898 H   0  0  0  0  0  0  0  0  0  0  0  0
   -9.5733    8.0015    1.0927 H   0  0  0  0  0  0  0  0  0  0  0  0
  -12.7161    6.7689   -1.7553 H   0  0  0  0  0  0  0  0  0  0  0  0
  -12.0321    8.3962   -2.0881 H   0  0  0  0  0  0  0  0  0  0  0  0
  -10.9607    6.9545   -2.0881 H   0  0  0  0  0  0  0  0  0  0  0  0
  -12.4047    8.3543    1.6649 H   0  0  0  0  0  0  0  0  0  0  0  0
  -12.3718    9.5357    0.3122 H   0  0  0  0  0  0  0  0  0  0  0  0
  -13.5769    8.2037    0.3122 H   0  0  0  0  0  0  0  0  0  0  0  0
   -5.8455    9.4494   -1.5912 H   0  0  0  0  0  0  0  0  0  0  0  0
   -6.3118   10.1846    0.6623 H   0  0  0  0  0  0  0  0  0  0  0  0
   -6.2045    8.5323    1.3063 H   0  0  0  0  0  0  0  0  0  0  0  0
   -4.2027   10.5539    1.5785 H   0  0  0  0  0  0  0  0  0  0  0  0
   -3.9235    8.8415    1.8830 H   0  0  0  0  0  0  0  0  0  0  0  0
   -3.7150   11.6575   -0.0753 H   0  0  0  0  0  0  0  0  0  0  0  0
   -2.7318   11.1101   -1.4755 H   0  0  0  0  0  0  0  0  0  0  0  0
   -4.5109   10.8620   -1.4755 H   0  0  0  0  0  0  0  0  0  0  0  0
   -1.9394    8.2352    0.6344 H   0  0  0  0  0  0  0  0  0  0  0  0
   -1.7801   10.6279    1.5776 H   0  0  0  0  0  0  0  0  0  0  0  0
   -0.2711    9.6080    1.3075 H   0  0  0  0  0  0  0  0  0  0  0  0
   -0.1026   12.1446    0.6179 H   0  0  0  0  0  0  0  0  0  0  0  0
   -1.5727   10.3378   -2.6796 H   0  0  0  0  0  0  0  0  0  0  0  0
    1.3640    9.4131   -2.5460 H   0  0  0  0  0  0  0  0  0  0  0  0
    0.1279    8.9478   -3.7976 H   0  0  0  0  0  0  0  0  0  0  0  0
    1.7020   10.6645   -4.6291 H   0  0  0  0  0  0  0  0  0  0  0  0
   -0.0076   11.2466   -4.5626 H   0  0  0  0  0  0  0  0  0  0  0  0
    1.4314   12.9866   -3.7489 H   0  0  0  0  0  0  0  0  0  0  0  0
    2.2900   11.5460   -1.5040 H   0  0  0  0  0  0  0  0  0  0  0  0
   -1.6972   13.5552   -2.0106 H   0  0  0  0  0  0  0  0  0  0  0  0
   -0.6363   14.0023   -3.3894 H   0  0  0  0  0  0  0  0  0  0  0  0
   -1.4910   12.4224   -3.3894 H   0  0  0  0  0  0  0  0  0  0  0  0
    0.6767   13.3454   -0.0771 H   0  0  0  0  0  0  0  0  0  0  0  0
    1.9051   13.7078   -1.3367 H   0  0  0  0  0  0  0  0  0  0  0  0
    0.3345   14.5795   -1.3367 H   0  0  0  0  0  0  0  0  0  0  0  0
    0.1519    7.8601    0.1880 H   0  0  0  0  0  0  0  0  0  0  0  0
   -0.0291    6.8903   -1.3132 H   0  0  0  0  0  0  0  0  0  0  0  0
    1.0015    8.3616   -1.3132 H   0  0  0  0  0  0  0  0  0  0  0  0
   -1.6287    7.9700   -3.2847 H   0  0  0  0  0  0  0  0  0  0  0  0
   -1.9567    6.8546   -1.8419 H   0  0  0  0  0  0  0  0  0  0  0  0
   -3.6856    9.1318   -2.8490 H   0  0  0  0  0  0  0  0  0  0  0  0
   -4.0442    7.3601   -2.8422 H   0  0  0  0  0  0  0  0  0  0  0  0
   -3.9747    7.0408    0.8865 H   0  0  0  0  0  0  0  0  0  0  0  0
   -4.7868    6.2454   -0.5044 H   0  0  0  0  0  0  0  0  0  0  0  0
   -3.0025    6.4518   -0.5044 H   0  0  0  0  0  0  0  0  0  0  0  0
  1  2  1  0
  2  3  1  0
  3  4  1  0
  4  5  1  0
  5  6  1  0
  6  7  1  0
  7  8  1  0
  7  9  1  0
  2 10  1  0
 10 11  1  0
 11 12  1  0
 12 13  1  0
 13 14  1  6
 13 15  1  0
 15 16  1  0
 16 17  1  0
 17 18  2  0
 18 19  1  0
 19 20  1  0
 20 21  1  0
 21 22  1  0
 22 23  1  0
 22 24  1  0
 24 25  1  0
 24 26  1  0
 19 27  1  0
 27 28  1  1
 27 29  1  0
 29 30  1  0
 30 31  1  0
 31 32  1  1
  7  5  1  0
 31 10  1  0
 31 13  1  0
 27 15  1  0
 24 18  1  0
  1 33  1  0
  1 34  1  0
  1 35  1  0
  2 36  1  1
  3 37  1  0
  3 38  1  0
  4 39  1  0
  4 40  1  0
  5 41  1  1
  8 42  1  0
  8 43  1  0
  8 44  1  0
  9 45  1  0
  9 46  1  0
  9 47  1  0
 10 48  1  6
 11 49  1  0
 11 50  1  0
 12 51  1  0
 12 52  1  0
 14 53  1  0
 14 54  1  0
 14 55  1  0
 15 56  1  1
 16 57  1  0
 16 58  1  0
 17 59  1  0
 19 60  1  6
 20 61  1  0
 20 62  1  0
 21 63  1  0
 21 64  1  0
 22 65  1  6
 23 66  1  0
 25 67  1  0
 25 68  1  0
 25 69  1  0
 26 70  1  0
 26 71  1  0
 26 72  1  0
 28 73  1  0
 28 74  1  0
 28 75  1  0
 29 76  1  0
 29 77  1  0
 30 78  1  0
 30 79  1  0
 32 80  1  0
 32 81  1  0
 32 82  1  0
M  END
>  <meeko>  (12) 
{"is_sidechain": [false], "intermolecular_energy": 2.731, "internal_energy": -0.839}

$$$$
EPH_relaxed_0001_pdb2pqr_Repair_377_r2_0001_out
     RDKit          3D

 82 86  0  0  0  0  0  0  0  0999 V2000
   -2.9870    7.6070   -0.5270 C   0  0  0  0  0  0  0  0  0  0  0  0
   -3.1310    9.0540   -0.0480 C   0  0  2  0  0  0  0  0  0  0  0  0
   -4.6060    9.4940    0.0370 C   0  0  0  0  0  0  0  0  0  0  0  0
   -5.5650    8.3620    0.4140 C   0  0  0  0  0  0  0  0  0  0  0  0
   -6.8140    8.3940   -0.4140 C   0  0  2  0  0  0  0  0  0  0  0  0
   -7.7700    7.3750   -0.0950 O   0  0  0  0  0  0  0  0  0  0  0  0
   -7.1870    7.3090   -1.4070 C   0  0  0  0  0  0  0  0  0  0  0  0
   -6.3110    6.1150   -1.6230 C   0  0  0  0  0  0  0  0  0  0  0  0
   -8.1420    7.6450   -2.5090 C   0  0  0  0  0  0  0  0  0  0  0  0
   -2.3610    9.9880   -0.9750 C   0  0  1  0  0  0  0  0  0  0  0  0
   -3.0080   11.3950   -1.0770 C   0  0  0  0  0  0  0  0  0  0  0  0
   -1.8470   12.4110   -1.2240 C   0  0  0  0  0  0  0  0  0  0  0  0
   -0.6050   11.5430   -1.5330 C   0  0  1  0  0  0  0  0  0  0  0  0
   -0.6990   11.2390   -3.0610 C   0  0  0  0  0  0  0  0  0  0  0  0
    0.7810   12.1580   -1.1510 C   0  0  2  0  0  0  0  0  0  0  0  0
    1.1460   13.4560   -1.8920 C   0  0  0  0  0  0  0  0  0  0  0  0
    1.8950   13.2720   -3.1700 C   0  0  0  0  0  0  0  0  0  0  0  0
    2.5090   12.1390   -3.5600 C   0  0  0  0  0  0  0  0  0  0  0  0
    2.5690   10.9170   -2.6360 C   0  0  1  0  0  0  0  0  0  0  0  0
    4.0130   10.3500   -2.6200 C   0  0  0  0  0  0  0  0  0  0  0  0
    4.5380   10.0480   -4.0200 C   0  0  0  0  0  0  0  0  0  0  0  0
    4.5170   11.3020   -4.8910 C   0  0  2  0  0  0  0  0  0  0  0  0
    5.4650   12.2400   -4.3720 O   0  0  0  0  0  0  0  0  0  0  0  0
    3.1150   11.9670   -4.9750 C   0  0  0  0  0  0  0  0  0  0  0  0
    2.1630   11.0720   -5.8060 C   0  0  0  0  0  0  0  0  0  0  0  0
    3.2630   13.2950   -5.7650 C   0  0  0  0  0  0  0  0  0  0  0  0
    1.9780   11.1230   -1.1750 C   0  0  1  0  0  0  0  0  0  0  0  0
    3.0800   11.6950   -0.2310 C   0  0  0  0  0  0  0  0  0  0  0  0
    1.5700    9.7220   -0.5830 C   0  0  0  0  0  0  0  0  0  0  0  0
    0.1460    9.2240   -0.8960 C   0  0  0  0  0  0  0  0  0  0  0  0
   -0.8930   10.3100   -0.6010 C   0  0  2  0  0  0  0  0  0  0  0  0
   -0.8370   10.6210    0.9330 C   0  0  0  0  0  0  0  0  0  0  0  0
   -2.9204    6.9376    0.3433 H   0  0  0  0  0  0  0  0  0  0  0  0
   -3.8623    7.3329   -1.1342 H   0  0  0  0  0  0  0  0  0  0  0  0
   -2.0748    7.5108   -1.1342 H   0  0  0  0  0  0  0  0  0  0  0  0
   -2.7115    9.1093    0.9673 H   0  0  0  0  0  0  0  0  0  0  0  0
   -4.6889   10.2864    0.7954 H   0  0  0  0  0  0  0  0  0  0  0  0
   -4.8963    9.8408   -0.9657 H   0  0  0  0  0  0  0  0  0  0  0  0
   -5.0581    7.3984    0.2572 H   0  0  0  0  0  0  0  0  0  0  0  0
   -5.8496    8.4910    1.4687 H   0  0  0  0  0  0  0  0  0  0  0  0
   -6.7538    9.4886   -0.5052 H   0  0  0  0  0  0  0  0  0  0  0  0
   -6.0078    5.7018   -0.6497 H   0  0  0  0  0  0  0  0  0  0  0  0
   -6.8648    5.3515   -2.1890 H   0  0  0  0  0  0  0  0  0  0  0  0
   -5.4165    6.4141   -2.1890 H   0  0  0  0  0  0  0  0  0  0  0  0
   -9.0964    7.9808   -2.0774 H   0  0  0  0  0  0  0  0  0  0  0  0
   -7.7177    8.4478   -3.1298 H   0  0  0  0  0  0  0  0  0  0  0  0
   -8.3139    6.7534   -3.1298 H   0  0  0  0  0  0  0  0  0  0  0  0
   -2.3917    9.3950   -1.9010 H   0  0  0  0  0  0  0  0  0  0  0  0
   -3.6689   11.4453   -1.9549 H   0  0  0  0  0  0  0  0  0  0  0  0
   -3.6159   11.6158   -0.1872 H   0  0  0  0  0  0  0  0  0  0  0  0
   -2.0461   13.1114   -2.0485 H   0  0  0  0  0  0  0  0  0  0  0  0
   -1.7128   13.0243   -0.3207 H   0  0  0  0  0  0  0  0  0  0  0  0
   -1.0210   10.1976   -3.2085 H   0  0  0  0  0  0  0  0  0  0  0  0
   -1.4292   11.9179   -3.5257 H   0  0  0  0  0  0  0  0  0  0  0  0
    0.2869   11.3873   -3.5257 H   0  0  0  0  0  0  0  0  0  0  0  0
    0.6290   12.4467   -0.1005 H   0  0  0  0  0  0  0  0  0  0  0  0
    0.2124   13.9915   -2.1193 H   0  0  0  0  0  0  0  0  0  0  0  0
    1.8198   14.0097   -1.2216 H   0  0  0  0  0  0  0  0  0  0  0  0
    1.9499   14.1346   -3.8504 H   0  0  0  0  0  0  0  0  0  0  0  0
    1.8816   10.1749   -3.0682 H   0  0  0  0  0  0  0  0  0  0  0  0
    4.6766   11.0883   -2.1462 H   0  0  0  0  0  0  0  0  0  0  0  0
    3.9942    9.4040   -2.0590 H   0  0  0  0  0  0  0  0  0  0  0  0
    5.5714    9.6784   -3.9454 H   0  0  0  0  0  0  0  0  0  0  0  0
    3.8910    9.2878   -4.4820 H   0  0  0  0  0  0  0  0  0  0  0  0
    4.7801   10.9968   -5.9145 H   0  0  0  0  0  0  0  0  0  0  0  0
    6.3450   11.8300   -4.4280 H   0  0  0  0  0  0  0  0  0  0  0  0
    1.5321   10.4789   -5.1277 H   0  0  0  0  0  0  0  0  0  0  0  0
    1.5251   11.7051   -6.4403 H   0  0  0  0  0  0  0  0  0  0  0  0
    2.7555   10.3963   -6.4403 H   0  0  0  0  0  0  0  0  0  0  0  0
    3.3564   14.1332   -5.0589 H   0  0  0  0  0  0  0  0  0  0  0  0
    4.1613   13.2469   -6.3980 H   0  0  0  0  0  0  0  0  0  0  0  0
    2.3761   13.4459   -6.3980 H   0  0  0  0  0  0  0  0  0  0  0  0
    2.7820   11.5403    0.8165 H   0  0  0  0  0  0  0  0  0  0  0  0
    4.0314   11.1769   -0.4219 H   0  0  0  0  0  0  0  0  0  0  0  0
    3.2039   12.7712   -0.4219 H   0  0  0  0  0  0  0  0  0  0  0  0
    2.2771    8.9762   -0.9752 H   0  0  0  0  0  0  0  0  0  0  0  0
    1.5960    9.8521    0.5090 H   0  0  0  0  0  0  0  0  0  0  0  0
    0.0868    8.9490   -1.9594 H   0  0  0  0  0  0  0  0  0  0  0  0
   -0.0680    8.3525   -0.2599 H   0  0  0  0  0  0  0  0  0  0  0  0
   -1.0039    9.6941    1.5014 H   0  0  0  0  0  0  0  0  0  0  0  0
    0.1500   11.0345    1.1875 H   0  0  0  0  0  0  0  0  0  0  0  0
   -1.6178   11.3528    1.1875 H   0  0  0  0  0  0  0  0  0  0  0  0
  1  2  1  0
  2  3  1  0
  3  4  1  0
  4  5  1  0
  5  6  1  0
  6  7  1  0
  7  8  1  0
  7  9  1  0
  2 10  1  0
 10 11  1  0
 11 12  1  0
 12 13  1  0
 13 14  1  6
 13 15  1  0
 15 16  1  0
 16 17  1  0
 17 18  2  0
 18 19  1  0
 19 20  1  0
 20 21  1  0
 21 22  1  0
 22 23  1  0
 22 24  1  0
 24 25  1  0
 24 26  1  0
 19 27  1  0
 27 28  1  1
 27 29  1  0
 29 30  1  0
 30 31  1  0
 31 32  1  1
  7  5  1  0
 31 10  1  0
 31 13  1  0
 27 15  1  0
 24 18  1  0
  1 33  1  0
  1 34  1  0
  1 35  1  0
  2 36  1  1
  3 37  1  0
  3 38  1  0
  4 39  1  0
  4 40  1  0
  5 41  1  6
  8 42  1  0
  8 43  1  0
  8 44  1  0
  9 45  1  0
  9 46  1  0
  9 47  1  0
 10 48  1  6
 11 49  1  0
 11 50  1  0
 12 51  1  0
 12 52  1  0
 14 53  1  0
 14 54  1  0
 14 55  1  0
 15 56  1  1
 16 57  1  0
 16 58  1  0
 17 59  1  0
 19 60  1  6
 20 61  1  0
 20 62  1  0
 21 63  1  0
 21 64  1  0
 22 65  1  6
 23 66  1  0
 25 67  1  0
 25 68  1  0
 25 69  1  0
 26 70  1  0
 26 71  1  0
 26 72  1  0
 28 73  1  0
 28 74  1  0
 28 75  1  0
 29 76  1  0
 29 77  1  0
 30 78  1  0
 30 79  1  0
 32 80  1  0
 32 81  1  0
 32 82  1  0
M  END
>  <meeko>  (13) 
{"is_sidechain": [false], "intermolecular_energy": 2.731, "internal_energy": -0.839}

$$$$
EPH_relaxed_0001_pdb2pqr_Repair_377_r2_0001_out
     RDKit          3D

 82 86  0  0  0  0  0  0  0  0999 V2000
    2.8440   11.3210   -5.2640 C   0  0  0  0  0  0  0  0  0  0  0  0
    1.8110   11.0280   -4.1720 C   0  0  2  0  0  0  0  0  0  0  0  0
    0.6950   10.0860   -4.6660 C   0  0  0  0  0  0  0  0  0  0  0  0
   -0.3810    9.8030   -3.6140 C   0  0  0  0  0  0  0  0  0  0  0  0
    0.1660    9.0220   -2.4570 C   0  0  2  0  0  0  0  0  0  0  0  0
   -0.6690    7.9440   -2.0140 O   0  0  0  0  0  0  0  0  0  0  0  0
   -0.4680    9.0150   -1.0780 C   0  0  0  0  0  0  0  0  0  0  0  0
   -1.7030    9.8060   -0.7830 C   0  0  0  0  0  0  0  0  0  0  0  0
    0.3800    8.6380    0.0960 C   0  0  0  0  0  0  0  0  0  0  0  0
    1.2060   12.3320   -3.6650 C   0  0  1  0  0  0  0  0  0  0  0  0
   -0.3300   12.2410   -3.4670 C   0  0  0  0  0  0  0  0  0  0  0  0
   -0.6750   13.1200   -2.2380 C   0  0  0  0  0  0  0  0  0  0  0  0
    0.6070   13.9440   -1.9750 C   0  0  1  0  0  0  0  0  0  0  0  0
    0.5420   15.1230   -2.9950 C   0  0  0  0  0  0  0  0  0  0  0  0
    0.8110   14.4560   -0.5120 C   0  0  2  0  0  0  0  0  0  0  0  0
   -0.2660   15.4310   -0.0060 C   0  0  0  0  0  0  0  0  0  0  0  0
    0.0150   16.8770   -0.2530 C   0  0  0  0  0  0  0  0  0  0  0  0
    1.2090   17.3930   -0.5970 C   0  0  0  0  0  0  0  0  0  0  0  0
    2.4580   16.5060   -0.6760 C   0  0  1  0  0  0  0  0  0  0  0  0
    3.6380   17.2070    0.0470 C   0  0  0  0  0  0  0  0  0  0  0  0
    3.8900   18.6180   -0.4770 C   0  0  0  0  0  0  0  0  0  0  0  0
    2.6430   19.4860   -0.3280 C   0  0  2  0  0  0  0  0  0  0  0  0
    2.3860   19.6870    1.0650 O   0  0  0  0  0  0  0  0  0  0  0  0
    1.3860   18.8760   -1.0090 C   0  0  0  0  0  0  0  0  0  0  0  0
    1.5470   18.9360   -2.5480 C   0  0  0  0  0  0  0  0  0  0  0  0
    0.1710   19.7780   -0.6640 C   0  0  0  0  0  0  0  0  0  0  0  0
    2.2680   14.9980   -0.2120 C   0  0  1  0  0  0  0  0  0  0  0  0
    2.4760   14.8850    1.3290 C   0  0  0  0  0  0  0  0  0  0  0  0
    3.3850   14.1100   -0.8780 C   0  0  0  0  0  0  0  0  0  0  0  0
    3.0750   13.5350   -2.2730 C   0  0  0  0  0  0  0  0  0  0  0  0
    1.7000   12.8600   -2.2950 C   0  0  2  0  0  0  0  0  0  0  0  0
    1.7420   11.6550   -1.2950 C   0  0  0  0  0  0  0  0  0  0  0  0
    3.8027   11.5929   -4.7983 H   0  0  0  0  0  0  0  0  0  0  0  0
    2.9807   10.4262   -5.8890 H   0  0  0  0  0  0  0  0  0  0  0  0
    2.4905   12.1543   -5.8890 H   0  0  0  0  0  0  0  0  0  0  0  0
    2.3342   10.5171   -3.3503 H   0  0  0  0  0  0  0  0  0  0  0  0
    0.2130   10.5471   -5.5407 H   0  0  0  0  0  0  0  0  0  0  0  0
    1.1698    9.1236   -4.9077 H   0  0  0  0  0  0  0  0  0  0  0  0
   -0.7769   10.7598   -3.2428 H   0  0  0  0  0  0  0  0  0  0  0  0
   -1.1739    9.2050   -4.0870 H   0  0  0  0  0  0  0  0  0  0  0  0
    1.1978    9.2001   -2.7940 H   0  0  0  0  0  0  0  0  0  0  0  0
   -1.8335    9.8896    0.3060 H   0  0  0  0  0  0  0  0  0  0  0  0
   -1.6074   10.8113   -1.2191 H   0  0  0  0  0  0  0  0  0  0  0  0
   -2.5762    9.2987   -1.2191 H   0  0  0  0  0  0  0  0  0  0  0  0
   -0.1557    8.8761    1.0268 H   0  0  0  0  0  0  0  0  0  0  0  0
    0.5946    7.5597    0.0621 H   0  0  0  0  0  0  0  0  0  0  0  0
    1.3244    9.2011    0.0621 H   0  0  0  0  0  0  0  0  0  0  0  0
    1.5303   13.0099   -4.4683 H   0  0  0  0  0  0  0  0  0  0  0  0
   -0.8501   12.6176   -4.3601 H   0  0  0  0  0  0  0  0  0  0  0  0
   -0.6470   11.1995   -3.3093 H   0  0  0  0  0  0  0  0  0  0  0  0
   -1.5239   13.7831   -2.4609 H   0  0  0  0  0  0  0  0  0  0  0  0
   -0.9708   12.5191   -1.3654 H   0  0  0  0  0  0  0  0  0  0  0  0
    0.4894   16.0770   -2.4499 H   0  0  0  0  0  0  0  0  0  0  0  0
    1.4422   15.1110   -3.6271 H   0  0  0  0  0  0  0  0  0  0  0  0
   -0.3514   15.0122   -3.6271 H   0  0  0  0  0  0  0  0  0  0  0  0
    0.6839   13.5372    0.0793 H   0  0  0  0  0  0  0  0  0  0  0  0
   -1.2137   15.1790   -0.5045 H   0  0  0  0  0  0  0  0  0  0  0  0
   -0.2968   15.3096    1.0868 H   0  0  0  0  0  0  0  0  0  0  0  0
   -0.8248   17.5791   -0.1445 H   0  0  0  0  0  0  0  0  0  0  0  0
    2.6870   16.3986   -1.7465 H   0  0  0  0  0  0  0  0  0  0  0  0
    3.4087   17.2655    1.1212 H   0  0  0  0  0  0  0  0  0  0  0  0
    4.5450   16.6138   -0.1416 H   0  0  0  0  0  0  0  0  0  0  0  0
    4.7146   19.0716    0.0925 H   0  0  0  0  0  0  0  0  0  0  0  0
    4.1487   18.5552   -1.5443 H   0  0  0  0  0  0  0  0  0  0  0  0
    2.8425   20.4403   -0.8373 H   0  0  0  0  0  0  0  0  0  0  0  0
    1.6210   20.2830    1.1400 H   0  0  0  0  0  0  0  0  0  0  0  0
    2.5509   19.3101   -2.7973 H   0  0  0  0  0  0  0  0  0  0  0  0
    1.4159   17.9286   -2.9699 H   0  0  0  0  0  0  0  0  0  0  0  0
    0.7886   19.6118   -2.9699 H   0  0  0  0  0  0  0  0  0  0  0  0
    0.0691   19.8537    0.4286 H   0  0  0  0  0  0  0  0  0  0  0  0
    0.3268   20.7809   -1.0881 H   0  0  0  0  0  0  0  0  0  0  0  0
   -0.7440   19.3387   -1.0881 H   0  0  0  0  0  0  0  0  0  0  0  0
    1.6242   15.3478    1.8489 H   0  0  0  0  0  0  0  0  0  0  0  0
    2.5465   13.8246    1.6127 H   0  0  0  0  0  0  0  0  0  0  0  0
    3.4040   15.4030    1.6127 H   0  0  0  0  0  0  0  0  0  0  0  0
    4.2918   14.7265   -0.9661 H   0  0  0  0  0  0  0  0  0  0  0  0
    3.4857   13.2334   -0.2211 H   0  0  0  0  0  0  0  0  0  0  0  0
    3.0866   14.3519   -3.0096 H   0  0  0  0  0  0  0  0  0  0  0  0
    3.8388   12.7829   -2.5199 H   0  0  0  0  0  0  0  0  0  0  0  0
    1.7288   12.0346   -0.2627 H   0  0  0  0  0  0  0  0  0  0  0  0
    0.8658   11.0108   -1.4601 H   0  0  0  0  0  0  0  0  0  0  0  0
    2.6610   11.0734   -1.4601 H   0  0  0  0  0  0  0  0  0  0  0  0
  1  2  1  0
  2  3  1  0
  3  4  1  0
  4  5  1  0
  5  6  1  0
  6  7  1  0
  7  8  1  0
  7  9  1  0
  2 10  1  0
 10 11  1  0
 11 12  1  0
 12 13  1  0
 13 14  1  6
 13 15  1  0
 15 16  1  0
 16 17  1  0
 17 18  2  0
 18 19  1  0
 19 20  1  0
 20 21  1  0
 21 22  1  0
 22 23  1  0
 22 24  1  0
 24 25  1  0
 24 26  1  0
 19 27  1  0
 27 28  1  1
 27 29  1  0
 29 30  1  0
 30 31  1  0
 31 32  1  1
  7  5  1  0
 31 10  1  0
 31 13  1  0
 27 15  1  0
 24 18  1  0
  1 33  1  0
  1 34  1  0
  1 35  1  0
  2 36  1  1
  3 37  1  0
  3 38  1  0
  4 39  1  0
  4 40  1  0
  5 41  1  1
  8 42  1  0
  8 43  1  0
  8 44  1  0
  9 45  1  0
  9 46  1  0
  9 47  1  0
 10 48  1  6
 11 49  1  0
 11 50  1  0
 12 51  1  0
 12 52  1  0
 14 53  1  0
 14 54  1  0
 14 55  1  0
 15 56  1  1
 16 57  1  0
 16 58  1  0
 17 59  1  0
 19 60  1  6
 20 61  1  0
 20 62  1  0
 21 63  1  0
 21 64  1  0
 22 65  1  6
 23 66  1  0
 25 67  1  0
 25 68  1  0
 25 69  1  0
 26 70  1  0
 26 71  1  0
 26 72  1  0
 28 73  1  0
 28 74  1  0
 28 75  1  0
 29 76  1  0
 29 77  1  0
 30 78  1  0
 30 79  1  0
 32 80  1  0
 32 81  1  0
 32 82  1  0
M  END
>  <meeko>  (14) 
{"is_sidechain": [false], "intermolecular_energy": 2.731, "internal_energy": -0.839}

$$$$
EPH_relaxed_0001_pdb2pqr_Repair_377_r2_0001_out
     RDKit          3D

 82 86  0  0  0  0  0  0  0  0999 V2000
    0.8240   14.8140   -2.6140 C   0  0  0  0  0  0  0  0  0  0  0  0
    1.1300   14.1190   -3.9440 C   0  0  2  0  0  0  0  0  0  0  0  0
    0.4800   14.8420   -5.1410 C   0  0  0  0  0  0  0  0  0  0  0  0
    1.1970   14.5980   -6.4710 C   0  0  0  0  0  0  0  0  0  0  0  0
    0.9130   15.6860   -7.4620 C   0  0  2  0  0  0  0  0  0  0  0  0
    0.4250   15.2280   -8.7300 O   0  0  0  0  0  0  0  0  0  0  0  0
    1.7060   15.8790   -8.7410 C   0  0  0  0  0  0  0  0  0  0  0  0
    2.8450   14.9760   -9.0980 C   0  0  0  0  0  0  0  0  0  0  0  0
    1.6910   17.2260   -9.3950 C   0  0  0  0  0  0  0  0  0  0  0  0
    0.6590   12.6700   -3.8930 C   0  0  1  0  0  0  0  0  0  0  0  0
    1.7740   11.6650   -4.2850 C   0  0  0  0  0  0  0  0  0  0  0  0
    1.5620   10.4000   -3.4150 C   0  0  0  0  0  0  0  0  0  0  0  0
    0.1550   10.5810   -2.8000 C   0  0  1  0  0  0  0  0  0  0  0  0
   -0.8340   10.1300   -3.9210 C   0  0  0  0  0  0  0  0  0  0  0  0
   -0.1140    9.8280   -1.4560 C   0  0  2  0  0  0  0  0  0  0  0  0
   -0.0320    8.2940   -1.5400 C   0  0  0  0  0  0  0  0  0  0  0  0
   -1.3160    7.6020   -1.8590 C   0  0  0  0  0  0  0  0  0  0  0  0
   -2.5410    8.1570   -1.7900 C   0  0  0  0  0  0  0  0  0  0  0  0
   -2.7300    9.5850   -1.2630 C   0  0  1  0  0  0  0  0  0  0  0  0
   -3.9040    9.6110   -0.2490 C   0  0  0  0  0  0  0  0  0  0  0  0
   -5.1900    9.0270   -0.8270 C   0  0  0  0  0  0  0  0  0  0  0  0
   -4.9760    7.5870   -1.2870 C   0  0  2  0  0  0  0  0  0  0  0  0
   -4.7230    6.7690   -0.1400 O   0  0  0  0  0  0  0  0  0  0  0  0
   -3.8110    7.4350   -2.3040 C   0  0  0  0  0  0  0  0  0  0  0  0
   -4.2160    8.0690   -3.6580 C   0  0  0  0  0  0  0  0  0  0  0  0
   -3.6100    5.9200   -2.5780 C   0  0  0  0  0  0  0  0  0  0  0  0
   -1.4240   10.2960   -0.7020 C   0  0  1  0  0  0  0  0  0  0  0  0
   -1.2250    9.9350    0.8020 C   0  0  0  0  0  0  0  0  0  0  0  0
   -1.6230   11.8570   -0.7610 C   0  0  0  0  0  0  0  0  0  0  0  0
   -1.2270   12.5580   -2.0740 C   0  0  0  0  0  0  0  0  0  0  0  0
    0.1720   12.1280   -2.5260 C   0  0  2  0  0  0  0  0  0  0  0  0
    1.1910   12.5880   -1.4280 C   0  0  0  0  0  0  0  0  0  0  0  0
    1.1137   14.1561   -1.7814 H   0  0  0  0  0  0  0  0  0  0  0  0
    1.3913   15.7544   -2.5527 H   0  0  0  0  0  0  0  0  0  0  0  0
   -0.2527   15.0306   -2.5527 H   0  0  0  0  0  0  0  0  0  0  0  0
    2.2196   14.1516   -4.0912 H   0  0  0  0  0  0  0  0  0  0  0  0
   -0.5581   14.4909   -5.2367 H   0  0  0  0  0  0  0  0  0  0  0  0
    0.5412   15.9211   -4.9363 H   0  0  0  0  0  0  0  0  0  0  0  0
    2.2810   14.5557   -6.2890 H   0  0  0  0  0  0  0  0  0  0  0  0
    0.8300   13.6491   -6.8892 H   0  0  0  0  0  0  0  0  0  0  0  0
    0.6320   16.3800   -6.6561 H   0  0  0  0  0  0  0  0  0  0  0  0
    3.3179   14.6011   -8.1783 H   0  0  0  0  0  0  0  0  0  0  0  0
    2.4691   14.1278   -9.6890 H   0  0  0  0  0  0  0  0  0  0  0  0
    3.5851   15.5354   -9.6890 H   0  0  0  0  0  0  0  0  0  0  0  0
    1.6823   18.0087   -8.6222 H   0  0  0  0  0  0  0  0  0  0  0  0
    2.5879   17.3394  -10.0216 H   0  0  0  0  0  0  0  0  0  0  0  0
    0.7918   17.3194  -10.0216 H   0  0  0  0  0  0  0  0  0  0  0  0
   -0.1838   12.7258   -4.5977 H   0  0  0  0  0  0  0  0  0  0  0  0
    1.6949   11.4086   -5.3518 H   0  0  0  0  0  0  0  0  0  0  0  0
    2.7717   12.0969   -4.1174 H   0  0  0  0  0  0  0  0  0  0  0  0
    1.6012    9.4917   -4.0343 H   0  0  0  0  0  0  0  0  0  0  0  0
    2.3414   10.2863   -2.6472 H   0  0  0  0  0  0  0  0  0  0  0  0
   -1.7437    9.7152   -3.4623 H   0  0  0  0  0  0  0  0  0  0  0  0
   -1.1002   10.9957   -4.5452 H   0  0  0  0  0  0  0  0  0  0  0  0
   -0.3549    9.3614   -4.5452 H   0  0  0  0  0  0  0  0  0  0  0  0
    0.7397   10.1394   -0.8362 H   0  0  0  0  0  0  0  0  0  0  0  0
    0.6968    8.0351   -2.3222 H   0  0  0  0  0  0  0  0  0  0  0  0
    0.2573    7.9498   -0.5361 H   0  0  0  0  0  0  0  0  0  0  0  0
   -1.2563    6.5507   -2.1770 H   0  0  0  0  0  0  0  0  0  0  0  0
   -2.9788   10.2019   -2.1391 H   0  0  0  0  0  0  0  0  0  0  0  0
   -3.6177    9.0251    0.6369 H   0  0  0  0  0  0  0  0  0  0  0  0
   -4.1006   10.6626    0.0071 H   0  0  0  0  0  0  0  0  0  0  0  0
   -5.9730    9.0457   -0.0546 H   0  0  0  0  0  0  0  0  0  0  0  0
   -5.4917    9.6319   -1.6948 H   0  0  0  0  0  0  0  0  0  0  0  0
   -5.8907    7.2684   -1.8083 H   0  0  0  0  0  0  0  0  0  0  0  0
   -5.0270    7.2590    0.6430 H   0  0  0  0  0  0  0  0  0  0  0  0
   -4.7999    8.9831   -3.4748 H   0  0  0  0  0  0  0  0  0  0  0  0
   -3.3110    8.3206   -4.2304 H   0  0  0  0  0  0  0  0  0  0  0  0
   -4.8247    7.3536   -4.2304 H   0  0  0  0  0  0  0  0  0  0  0  0
   -3.5385    5.3808   -1.6219 H   0  0  0  0  0  0  0  0  0  0  0  0
   -4.4649    5.5348   -3.1531 H   0  0  0  0  0  0  0  0  0  0  0  0
   -2.6842    5.7711   -3.1531 H   0  0  0  0  0  0  0  0  0  0  0  0
   -1.6611   10.7261    1.4298 H   0  0  0  0  0  0  0  0  0  0  0  0
   -1.7233    8.9786    1.0186 H   0  0  0  0  0  0  0  0  0  0  0  0
   -0.1502    9.8457    1.0186 H   0  0  0  0  0  0  0  0  0  0  0  0
   -2.6884   12.0638   -0.5815 H   0  0  0  0  0  0  0  0  0  0  0  0
   -0.9402   12.2633   -0.0003 H   0  0  0  0  0  0  0  0  0  0  0  0
   -1.9544   12.2945   -2.8559 H   0  0  0  0  0  0  0  0  0  0  0  0
   -1.2213   13.6446   -1.9031 H   0  0  0  0  0  0  0  0  0  0  0  0
    0.7671   12.3966   -0.4312 H   0  0  0  0  0  0  0  0  0  0  0  0
    2.1301   12.0265   -1.5410 H   0  0  0  0  0  0  0  0  0  0  0  0
    1.3911   13.6637   -1.5410 H   0  0  0  0  0  0  0  0  0  0  0  0
  1  2  1  0
  2  3  1  0
  3  4  1  0
  4  5  1  0
  5  6  1  0
  6  7  1  0
  7  8  1  0
  7  9  1  0
  2 10  1  0
 10 11  1  0
 11 12  1  0
 12 13  1  0
 13 14  1  6
 13 15  1  0
 15 16  1  0
 16 17  1  0
 17 18  2  0
 18 19  1  0
 19 20  1  0
 20 21  1  0
 21 22  1  0
 22 23  1  0
 22 24  1  0
 24 25  1  0
 24 26  1  0
 19 27  1  0
 27 28  1  1
 27 29  1  0
 29 30  1  0
 30 31  1  0
 31 32  1  1
  7  5  1  0
 31 10  1  0
 31 13  1  0
 27 15  1  0
 24 18  1  0
  1 33  1  0
  1 34  1  0
  1 35  1  0
  2 36  1  6
  3 37  1  0
  3 38  1  0
  4 39  1  0
  4 40  1  0
  5 41  1  1
  8 42  1  0
  8 43  1  0
  8 44  1  0
  9 45  1  0
  9 46  1  0
  9 47  1  0
 10 48  1  6
 11 49  1  0
 11 50  1  0
 12 51  1  0
 12 52  1  0
 14 53  1  0
 14 54  1  0
 14 55  1  0
 15 56  1  1
 16 57  1  0
 16 58  1  0
 17 59  1  0
 19 60  1  6
 20 61  1  0
 20 62  1  0
 21 63  1  0
 21 64  1  0
 22 65  1  6
 23 66  1  0
 25 67  1  0
 25 68  1  0
 25 69  1  0
 26 70  1  0
 26 71  1  0
 26 72  1  0
 28 73  1  0
 28 74  1  0
 28 75  1  0
 29 76  1  0
 29 77  1  0
 30 78  1  0
 30 79  1  0
 32 80  1  0
 32 81  1  0
 32 82  1  0
M  END
>  <meeko>  (15) 
{"is_sidechain": [false], "intermolecular_energy": 2.731, "internal_energy": -0.839}

$$$$
