EPH_relaxed_0001_pdb2pqr_Repair_261_r2_0001_out
     RDKit          3D

 82 86  0  0  0  0  0  0  0  0999 V2000
   -5.3350    5.5700   -1.7500 C   0  0  0  0  0  0  0  0  0  0  0  0
   -5.5540    7.0840   -1.8240 C   0  0  2  0  0  0  0  0  0  0  0  0
   -5.2840    7.7770   -0.4740 C   0  0  0  0  0  0  0  0  0  0  0  0
   -4.6760    9.1750   -0.6100 C   0  0  0  0  0  0  0  0  0  0  0  0
   -3.2920    9.2370   -0.0390 C   0  0  2  0  0  0  0  0  0  0  0  0
   -2.4590   10.2610   -0.5960 O   0  0  0  0  0  0  0  0  0  0  0  0
   -2.0430    8.9060   -0.8340 C   0  0  0  0  0  0  0  0  0  0  0  0
   -2.1200    8.4900   -2.2690 C   0  0  0  0  0  0  0  0  0  0  0  0
   -0.8030    8.5170   -0.0910 C   0  0  0  0  0  0  0  0  0  0  0  0
   -6.9750    7.3810   -2.2870 C   0  0  1  0  0  0  0  0  0  0  0  0
   -7.3190    6.6990   -3.6380 C   0  0  0  0  0  0  0  0  0  0  0  0
   -8.8150    6.3010   -3.5710 C   0  0  0  0  0  0  0  0  0  0  0  0
   -9.3640    7.0540   -2.3360 C   0  0  1  0  0  0  0  0  0  0  0  0
   -9.6420    8.5040   -2.8420 C   0  0  0  0  0  0  0  0  0  0  0  0
  -10.6230    6.4310   -1.6500 C   0  0  2  0  0  0  0  0  0  0  0  0
  -11.8820    6.3670   -2.5310 C   0  0  0  0  0  0  0  0  0  0  0  0
  -12.7770    7.5590   -2.4520 C   0  0  0  0  0  0  0  0  0  0  0  0
  -12.7320    8.5090   -1.5000 C   0  0  0  0  0  0  0  0  0  0  0  0
  -11.7710    8.3870   -0.3100 C   0  0  1  0  0  0  0  0  0  0  0  0
  -12.5310    8.7080    1.0040 C   0  0  0  0  0  0  0  0  0  0  0  0
  -13.2330   10.0610    0.9580 C   0  0  0  0  0  0  0  0  0  0  0  0
  -14.2220   10.1240   -0.2030 C   0  0  2  0  0  0  0  0  0  0  0  0
  -15.2870    9.2020    0.0490 O   0  0  0  0  0  0  0  0  0  0  0  0
  -13.5720    9.8080   -1.5790 C   0  0  0  0  0  0  0  0  0  0  0  0
  -12.6340   10.9690   -1.9910 C   0  0  0  0  0  0  0  0  0  0  0  0
  -14.7020    9.7650   -2.6430 C   0  0  0  0  0  0  0  0  0  0  0  0
  -10.9460    7.0310   -0.2220 C   0  0  1  0  0  0  0  0  0  0  0  0
  -11.7760    5.9510    0.5380 C   0  0  0  0  0  0  0  0  0  0  0  0
   -9.6470    7.2750    0.6330 C   0  0  0  0  0  0  0  0  0  0  0  0
   -8.4020    7.7770   -0.1230 C   0  0  0  0  0  0  0  0  0  0  0  0
   -8.1340    6.9240   -1.3660 C   0  0  2  0  0  0  0  0  0  0  0  0
   -7.8290    5.4640   -0.8870 C   0  0  0  0  0  0  0  0  0  0  0  0
   -5.2897    5.2571   -0.6964 H   0  0  0  0  0  0  0  0  0  0  0  0
   -6.1679    5.0542   -2.2502 H   0  0  0  0  0  0  0  0  0  0  0  0
   -4.3901    5.3113   -2.2502 H   0  0  0  0  0  0  0  0  0  0  0  0
   -4.8338    7.4872   -2.5511 H   0  0  0  0  0  0  0  0  0  0  0  0
   -6.2371    7.8642    0.0682 H   0  0  0  0  0  0  0  0  0  0  0  0
   -4.5501    7.1585    0.0634 H   0  0  0  0  0  0  0  0  0  0  0  0
   -4.6338    9.4429   -1.6760 H   0  0  0  0  0  0  0  0  0  0  0  0
   -5.3090    9.8794   -0.0504 H   0  0  0  0  0  0  0  0  0  0  0  0
   -3.6561    8.8925    0.9402 H   0  0  0  0  0  0  0  0  0  0  0  0
   -2.3199    7.4099   -2.3274 H   0  0  0  0  0  0  0  0  0  0  0  0
   -2.9315    9.0406   -2.7673 H   0  0  0  0  0  0  0  0  0  0  0  0
   -1.1652    8.7136   -2.7673 H   0  0  0  0  0  0  0  0  0  0  0  0
   -0.9904    8.5758    0.9913 H   0  0  0  0  0  0  0  0  0  0  0  0
   -0.5225    7.4877   -0.3592 H   0  0  0  0  0  0  0  0  0  0  0  0
    0.0151    9.2016   -0.3592 H   0  0  0  0  0  0  0  0  0  0  0  0
   -6.9311    8.4796   -2.3199 H   0  0  0  0  0  0  0  0  0  0  0  0
   -7.1504    7.3993   -4.4694 H   0  0  0  0  0  0  0  0  0  0  0  0
   -6.6835    5.8174   -3.8080 H   0  0  0  0  0  0  0  0  0  0  0  0
   -9.3419    6.6159   -4.4838 H   0  0  0  0  0  0  0  0  0  0  0  0
   -8.9541    5.2127   -3.4920 H   0  0  0  0  0  0  0  0  0  0  0  0
   -9.7706    9.1749   -1.9798 H   0  0  0  0  0  0  0  0  0  0  0  0
   -8.7936    8.8487   -3.4514 H   0  0  0  0  0  0  0  0  0  0  0  0
  -10.5577    8.5104   -3.4514 H   0  0  0  0  0  0  0  0  0  0  0  0
  -10.3146    5.3865   -1.4951 H   0  0  0  0  0  0  0  0  0  0  0  0
  -11.5597    6.2527   -3.5765 H   0  0  0  0  0  0  0  0  0  0  0  0
  -12.4725    5.5179   -2.1565 H   0  0  0  0  0  0  0  0  0  0  0  0
  -13.5378    7.6703   -3.2386 H   0  0  0  0  0  0  0  0  0  0  0  0
  -10.9823    9.1353   -0.4774 H   0  0  0  0  0  0  0  0  0  0  0  0
  -13.2847    7.9254    1.1756 H   0  0  0  0  0  0  0  0  0  0  0  0
  -11.7913    8.7431    1.8174 H   0  0  0  0  0  0  0  0  0  0  0  0
  -13.7757   10.2171    1.9020 H   0  0  0  0  0  0  0  0  0  0  0  0
  -12.4747   10.8450    0.8158 H   0  0  0  0  0  0  0  0  0  0  0  0
  -14.5960   11.1567   -0.2627 H   0  0  0  0  0  0  0  0  0  0  0  0
  -14.9480    8.3070   -0.1190 H   0  0  0  0  0  0  0  0  0  0  0  0
  -12.2385   11.4586   -1.0889 H   0  0  0  0  0  0  0  0  0  0  0  0
  -11.8000   10.5722   -2.5884 H   0  0  0  0  0  0  0  0  0  0  0  0
  -13.1972   11.7010   -2.5884 H   0  0  0  0  0  0  0  0  0  0  0  0
  -15.6790    9.7278   -2.1390 H   0  0  0  0  0  0  0  0  0  0  0  0
  -14.6479   10.6659   -3.2719 H   0  0  0  0  0  0  0  0  0  0  0  0
  -14.5796    8.8709   -3.2719 H   0  0  0  0  0  0  0  0  0  0  0  0
  -11.6632    6.0978    1.6223 H   0  0  0  0  0  0  0  0  0  0  0  0
  -12.8372    6.0441    0.2638 H   0  0  0  0  0  0  0  0  0  0  0  0
  -11.4129    4.9495    0.2638 H   0  0  0  0  0  0  0  0  0  0  0  0
   -9.8912    8.0206    1.4040 H   0  0  0  0  0  0  0  0  0  0  0  0
   -9.3679    6.2845    1.0216 H   0  0  0  0  0  0  0  0  0  0  0  0
   -8.5646    8.8204   -0.4309 H   0  0  0  0  0  0  0  0  0  0  0  0
   -7.5323    7.7039    0.5465 H   0  0  0  0  0  0  0  0  0  0  0  0
   -7.8225    5.4327    0.2125 H   0  0  0  0  0  0  0  0  0  0  0  0
   -8.6044    4.7834   -1.2686 H   0  0  0  0  0  0  0  0  0  0  0  0
   -6.8460    5.1507   -1.2686 H   0  0  0  0  0  0  0  0  0  0  0  0
  1  2  1  0
  2  3  1  0
  3  4  1  0
  4  5  1  0
  5  6  1  0
  6  7  1  0
  7  8  1  0
  7  9  1  0
  2 10  1  0
 10 11  1  0
 11 12  1  0
 12 13  1  0
 13 14  1  6
 13 15  1  0
 15 16  1  0
 16 17  1  0
 17 18  2  0
 18 19  1  0
 19 20  1  0
 20 21  1  0
 21 22  1  0
 22 23  1  0
 22 24  1  0
 24 25  1  0
 24 26  1  0
 19 27  1  0
 27 28  1  1
 27 29  1  0
 29 30  1  0
 30 31  1  0
 31 32  1  1
  7  5  1  0
 31 10  1  0
 31 13  1  0
 27 15  1  0
 24 18  1  0
  1 33  1  0
  1 34  1  0
  1 35  1  0
  2 36  1  6
  3 37  1  0
  3 38  1  0
  4 39  1  0
  4 40  1  0
  5 41  1  1
  8 42  1  0
  8 43  1  0
  8 44  1  0
  9 45  1  0
  9 46  1  0
  9 47  1  0
 10 48  1  6
 11 49  1  0
 11 50  1  0
 12 51  1  0
 12 52  1  0
 14 53  1  0
 14 54  1  0
 14 55  1  0
 15 56  1  1
 16 57  1  0
 16 58  1  0
 17 59  1  0
 19 60  1  6
 20 61  1  0
 20 62  1  0
 21 63  1  0
 21 64  1  0
 22 65  1  6
 23 66  1  0
 25 67  1  0
 25 68  1  0
 25 69  1  0
 26 70  1  0
 26 71  1  0
 26 72  1  0
 28 73  1  0
 28 74  1  0
 28 75  1  0
 29 76  1  0
 29 77  1  0
 30 78  1  0
 30 79  1  0
 32 80  1  0
 32 81  1  0
 32 82  1  0
M  END
>  <meeko>  (1) 
{"is_sidechain": [false], "intermolecular_energy": 2.731, "internal_energy": -0.839}

$$$$
EPH_relaxed_0001_pdb2pqr_Repair_261_r2_0001_out
     RDKit          3D

 82 86  0  0  0  0  0  0  0  0999 V2000
   -5.1010    8.1890   -0.7730 C   0  0  0  0  0  0  0  0  0  0  0  0
   -5.5190    7.1610   -1.8280 C   0  0  2  0  0  0  0  0  0  0  0  0
   -4.5640    7.1500   -3.0390 C   0  0  0  0  0  0  0  0  0  0  0  0
   -3.0820    7.1340   -2.6540 C   0  0  0  0  0  0  0  0  0  0  0  0
   -2.7500    8.2260   -1.6820 C   0  0  2  0  0  0  0  0  0  0  0  0
   -2.0810    9.3560   -2.2570 O   0  0  0  0  0  0  0  0  0  0  0  0
   -1.3310    8.5970   -1.2950 C   0  0  0  0  0  0  0  0  0  0  0  0
   -0.1510    7.8790   -1.8710 C   0  0  0  0  0  0  0  0  0  0  0  0
   -1.1080    9.3170   -0.0010 C   0  0  0  0  0  0  0  0  0  0  0  0
   -6.9440    7.4410   -2.2900 C   0  0  1  0  0  0  0  0  0  0  0  0
   -7.2760    6.7640   -3.6470 C   0  0  0  0  0  0  0  0  0  0  0  0
   -8.7670    6.3440   -3.5840 C   0  0  0  0  0  0  0  0  0  0  0  0
   -9.3270    7.0790   -2.3450 C   0  0  1  0  0  0  0  0  0  0  0  0
   -9.6270    8.5290   -2.8390 C   0  0  0  0  0  0  0  0  0  0  0  0
  -10.5780    6.4320   -1.6640 C   0  0  2  0  0  0  0  0  0  0  0  0
  -11.8350    6.3560   -2.5480 C   0  0  0  0  0  0  0  0  0  0  0  0
  -12.7480    7.5340   -2.4610 C   0  0  0  0  0  0  0  0  0  0  0  0
  -12.7170    8.4780   -1.5010 C   0  0  0  0  0  0  0  0  0  0  0  0
  -11.7570    8.3600   -0.3110 C   0  0  1  0  0  0  0  0  0  0  0  0
  -12.5220    8.6590    1.0050 C   0  0  0  0  0  0  0  0  0  0  0  0
  -13.2440   10.0030    0.9680 C   0  0  0  0  0  0  0  0  0  0  0  0
  -14.2330   10.0600   -0.1930 C   0  0  2  0  0  0  0  0  0  0  0  0
  -15.2850    9.1210    0.0500 O   0  0  0  0  0  0  0  0  0  0  0  0
  -13.5770    9.7640   -1.5710 C   0  0  0  0  0  0  0  0  0  0  0  0
  -12.6550   10.9430   -1.9720 C   0  0  0  0  0  0  0  0  0  0  0  0
  -14.7050    9.7130   -2.6360 C   0  0  0  0  0  0  0  0  0  0  0  0
  -10.9110    7.0160   -0.2320 C   0  0  1  0  0  0  0  0  0  0  0  0
  -11.7260    5.9180    0.5180 C   0  0  0  0  0  0  0  0  0  0  0  0
   -9.6170    7.2730    0.6260 C   0  0  0  0  0  0  0  0  0  0  0  0
   -8.3780    7.7990   -0.1240 C   0  0  0  0  0  0  0  0  0  0  0  0
   -8.0970    6.9590   -1.3740 C   0  0  2  0  0  0  0  0  0  0  0  0
   -7.7700    5.5000   -0.9060 C   0  0  0  0  0  0  0  0  0  0  0  0
   -5.2701    7.7732    0.2313 H   0  0  0  0  0  0  0  0  0  0  0  0
   -4.0343    8.4278   -0.8962 H   0  0  0  0  0  0  0  0  0  0  0  0
   -5.6983    9.1044   -0.8962 H   0  0  0  0  0  0  0  0  0  0  0  0
   -5.4688    6.1669   -1.3598 H   0  0  0  0  0  0  0  0  0  0  0  0
   -4.7762    6.2538   -3.6405 H   0  0  0  0  0  0  0  0  0  0  0  0
   -4.7412    8.0814   -3.5967 H   0  0  0  0  0  0  0  0  0  0  0  0
   -2.8434    6.1633   -2.1948 H   0  0  0  0  0  0  0  0  0  0  0  0
   -2.4889    7.2949   -3.5663 H   0  0  0  0  0  0  0  0  0  0  0  0
   -3.6425    7.9959   -1.0816 H   0  0  0  0  0  0  0  0  0  0  0  0
    0.4791    7.4956   -1.0549 H   0  0  0  0  0  0  0  0  0  0  0  0
   -0.4993    7.0396   -2.4907 H   0  0  0  0  0  0  0  0  0  0  0  0
    0.4345    8.5741   -2.4907 H   0  0  0  0  0  0  0  0  0  0  0  0
   -1.3185    8.6373    0.8378 H   0  0  0  0  0  0  0  0  0  0  0  0
   -0.0629    9.6556    0.0548 H   0  0  0  0  0  0  0  0  0  0  0  0
   -1.7788   10.1870    0.0548 H   0  0  0  0  0  0  0  0  0  0  0  0
   -6.9169    8.5404   -2.3139 H   0  0  0  0  0  0  0  0  0  0  0  0
   -7.1166    7.4728   -4.4730 H   0  0  0  0  0  0  0  0  0  0  0  0
   -6.6274    5.8932   -3.8233 H   0  0  0  0  0  0  0  0  0  0  0  0
   -9.2978    6.6583   -4.4948 H   0  0  0  0  0  0  0  0  0  0  0  0
   -8.8905    5.2533   -3.5132 H   0  0  0  0  0  0  0  0  0  0  0  0
   -9.7640    9.1910   -1.9713 H   0  0  0  0  0  0  0  0  0  0  0  0
   -8.7847    8.8909   -3.4469 H   0  0  0  0  0  0  0  0  0  0  0  0
  -10.5437    8.5269   -3.4469 H   0  0  0  0  0  0  0  0  0  0  0  0
  -10.2547    5.3911   -1.5155 H   0  0  0  0  0  0  0  0  0  0  0  0
  -11.5094    6.2548   -3.5938 H   0  0  0  0  0  0  0  0  0  0  0  0
  -12.4133    5.4951   -2.1813 H   0  0  0  0  0  0  0  0  0  0  0  0
  -13.5101    7.6398   -3.2471 H   0  0  0  0  0  0  0  0  0  0  0  0
  -10.9800    9.1217   -0.4725 H   0  0  0  0  0  0  0  0  0  0  0  0
  -13.2642    7.8641    1.1701 H   0  0  0  0  0  0  0  0  0  0  0  0
  -11.7838    8.6981    1.8196 H   0  0  0  0  0  0  0  0  0  0  0  0
  -13.7895   10.1446    1.9127 H   0  0  0  0  0  0  0  0  0  0  0  0
  -12.4970   10.7988    0.8318 H   0  0  0  0  0  0  0  0  0  0  0  0
  -14.6222   11.0876   -0.2443 H   0  0  0  0  0  0  0  0  0  0  0  0
  -14.8870    8.3310    0.4540 H   0  0  0  0  0  0  0  0  0  0  0  0
  -12.2715   11.4334   -1.0651 H   0  0  0  0  0  0  0  0  0  0  0  0
  -11.8120   10.5630   -2.5678 H   0  0  0  0  0  0  0  0  0  0  0  0
  -13.2270   11.6696   -2.5678 H   0  0  0  0  0  0  0  0  0  0  0  0
  -15.6823    9.6688   -2.1331 H   0  0  0  0  0  0  0  0  0  0  0  0
  -14.6566   10.6143   -3.2648 H   0  0  0  0  0  0  0  0  0  0  0  0
  -14.5755    8.8198   -3.2648 H   0  0  0  0  0  0  0  0  0  0  0  0
  -11.6204    6.0603    1.6036 H   0  0  0  0  0  0  0  0  0  0  0  0
  -12.7874    5.9949    0.2397 H   0  0  0  0  0  0  0  0  0  0  0  0
  -11.3450    4.9243    0.2397 H   0  0  0  0  0  0  0  0  0  0  0  0
   -9.8733    8.0092    1.4021 H   0  0  0  0  0  0  0  0  0  0  0  0
   -9.3237    6.2837    1.0071 H   0  0  0  0  0  0  0  0  0  0  0  0
   -8.5548    8.8425   -0.4238 H   0  0  0  0  0  0  0  0  0  0  0  0
   -7.5080    7.7333    0.5459 H   0  0  0  0  0  0  0  0  0  0  0  0
   -7.7612    5.4608    0.1933 H   0  0  0  0  0  0  0  0  0  0  0  0
   -8.5360    4.8110   -1.2913 H   0  0  0  0  0  0  0  0  0  0  0  0
   -6.7832    5.2038   -1.2913 H   0  0  0  0  0  0  0  0  0  0  0  0
  1  2  1  0
  2  3  1  0
  3  4  1  0
  4  5  1  0
  5  6  1  0
  6  7  1  0
  7  8  1  0
  7  9  1  0
  2 10  1  0
 10 11  1  0
 11 12  1  0
 12 13  1  0
 13 14  1  6
 13 15  1  0
 15 16  1  0
 16 17  1  0
 17 18  2  0
 18 19  1  0
 19 20  1  0
 20 21  1  0
 21 22  1  0
 22 23  1  0
 22 24  1  0
 24 25  1  0
 24 26  1  0
 19 27  1  0
 27 28  1  1
 27 29  1  0
 29 30  1  0
 30 31  1  0
 31 32  1  1
  7  5  1  0
 31 10  1  0
 31 13  1  0
 27 15  1  0
 24 18  1  0
  1 33  1  0
  1 34  1  0
  1 35  1  0
  2 36  1  1
  3 37  1  0
  3 38  1  0
  4 39  1  0
  4 40  1  0
  5 41  1  1
  8 42  1  0
  8 43  1  0
  8 44  1  0
  9 45  1  0
  9 46  1  0
  9 47  1  0
 10 48  1  6
 11 49  1  0
 11 50  1  0
 12 51  1  0
 12 52  1  0
 14 53  1  0
 14 54  1  0
 14 55  1  0
 15 56  1  1
 16 57  1  0
 16 58  1  0
 17 59  1  0
 19 60  1  6
 20 61  1  0
 20 62  1  0
 21 63  1  0
 21 64  1  0
 22 65  1  6
 23 66  1  0
 25 67  1  0
 25 68  1  0
 25 69  1  0
 26 70  1  0
 26 71  1  0
 26 72  1  0
 28 73  1  0
 28 74  1  0
 28 75  1  0
 29 76  1  0
 29 77  1  0
 30 78  1  0
 30 79  1  0
 32 80  1  0
 32 81  1  0
 32 82  1  0
M  END
>  <meeko>  (2) 
{"is_sidechain": [false], "intermolecular_energy": 2.731, "internal_energy": -0.839}

$$$$
EPH_relaxed_0001_pdb2pqr_Repair_261_r2_0001_out
     RDKit          3D

 82 86  0  0  0  0  0  0  0  0999 V2000
   -5.2650    6.0720   -1.1580 C   0  0  0  0  0  0  0  0  0  0  0  0
   -5.4260    7.4680   -1.7670 C   0  0  2  0  0  0  0  0  0  0  0  0
   -5.0360    8.5830   -0.7770 C   0  0  0  0  0  0  0  0  0  0  0  0
   -3.5450    8.6010   -0.4260 C   0  0  0  0  0  0  0  0  0  0  0  0
   -2.6920    8.7860   -1.6440 C   0  0  2  0  0  0  0  0  0  0  0  0
   -2.0920    7.5830   -2.1420 O   0  0  0  0  0  0  0  0  0  0  0  0
   -1.1880    8.5840   -1.6490 C   0  0  0  0  0  0  0  0  0  0  0  0
   -0.4500    8.1820   -0.4110 C   0  0  0  0  0  0  0  0  0  0  0  0
   -0.3810    9.2480   -2.7220 C   0  0  0  0  0  0  0  0  0  0  0  0
   -6.8620    7.6670   -2.2370 C   0  0  1  0  0  0  0  0  0  0  0  0
   -7.1530    6.9570   -3.5860 C   0  0  0  0  0  0  0  0  0  0  0  0
   -8.6210    6.4600   -3.5220 C   0  0  0  0  0  0  0  0  0  0  0  0
   -9.2230    7.1800   -2.2930 C   0  0  1  0  0  0  0  0  0  0  0  0
   -9.5960    8.6060   -2.8070 C   0  0  0  0  0  0  0  0  0  0  0  0
  -10.4400    6.4770   -1.6070 C   0  0  2  0  0  0  0  0  0  0  0  0
  -11.6890    6.3240   -2.4930 C   0  0  0  0  0  0  0  0  0  0  0  0
  -12.6620    7.4540   -2.4230 C   0  0  0  0  0  0  0  0  0  0  0  0
  -12.6840    8.4100   -1.4750 C   0  0  0  0  0  0  0  0  0  0  0  0
  -11.7220    8.3570   -0.2810 C   0  0  1  0  0  0  0  0  0  0  0  0
  -12.5070    8.6330    1.0290 C   0  0  0  0  0  0  0  0  0  0  0  0
  -13.2980    9.9360    0.9730 C   0  0  0  0  0  0  0  0  0  0  0  0
  -14.2840    9.9270   -0.1920 C   0  0  2  0  0  0  0  0  0  0  0  0
  -15.2870    8.9370    0.0610 O   0  0  0  0  0  0  0  0  0  0  0  0
  -13.6090    9.6490   -1.5640 C   0  0  0  0  0  0  0  0  0  0  0  0
  -12.7500   10.8680   -1.9780 C   0  0  0  0  0  0  0  0  0  0  0  0
  -14.7300    9.5250   -2.6310 C   0  0  0  0  0  0  0  0  0  0  0  0
  -10.8080    7.0610   -0.1840 C   0  0  1  0  0  0  0  0  0  0  0  0
  -11.5670    5.9310    0.5780 C   0  0  0  0  0  0  0  0  0  0  0  0
   -9.5310    7.3950    0.6750 C   0  0  0  0  0  0  0  0  0  0  0  0
   -8.3200    7.9770   -0.0790 C   0  0  0  0  0  0  0  0  0  0  0  0
   -7.9910    7.1370   -1.3170 C   0  0  2  0  0  0  0  0  0  0  0  0
   -7.5900    5.7030   -0.8300 C   0  0  0  0  0  0  0  0  0  0  0  0
   -5.2737    6.1475   -0.0606 H   0  0  0  0  0  0  0  0  0  0  0  0
   -6.0951    5.4300   -1.4880 H   0  0  0  0  0  0  0  0  0  0  0  0
   -4.3106    5.6358   -1.4880 H   0  0  0  0  0  0  0  0  0  0  0  0
   -4.7410    7.5354   -2.6250 H   0  0  0  0  0  0  0  0  0  0  0  0
   -5.2991    9.5527   -1.2248 H   0  0  0  0  0  0  0  0  0  0  0  0
   -5.5838    8.3896    0.1571 H   0  0  0  0  0  0  0  0  0  0  0  0
   -3.3531    9.4285    0.2729 H   0  0  0  0  0  0  0  0  0  0  0  0
   -3.2878    7.6333    0.0295 H   0  0  0  0  0  0  0  0  0  0  0  0
   -3.3268    9.6137   -1.9931 H   0  0  0  0  0  0  0  0  0  0  0  0
   -1.0227    8.4939    0.4748 H   0  0  0  0  0  0  0  0  0  0  0  0
   -0.3220    7.0895   -0.3989 H   0  0  0  0  0  0  0  0  0  0  0  0
    0.5372    8.6670   -0.3989 H   0  0  0  0  0  0  0  0  0  0  0  0
    0.3903    9.8826   -2.2611 H   0  0  0  0  0  0  0  0  0  0  0  0
    0.1004    8.4810   -3.3465 H   0  0  0  0  0  0  0  0  0  0  0  0
   -1.0410    9.8681   -3.3465 H   0  0  0  0  0  0  0  0  0  0  0  0
   -6.8930    8.7659   -2.2757 H   0  0  0  0  0  0  0  0  0  0  0  0
   -7.0280    7.6629   -4.4204 H   0  0  0  0  0  0  0  0  0  0  0  0
   -6.4590    6.1194   -3.7495 H   0  0  0  0  0  0  0  0  0  0  0  0
   -9.1644    6.7350   -4.4380 H   0  0  0  0  0  0  0  0  0  0  0  0
   -8.6876    5.3652   -3.4383 H   0  0  0  0  0  0  0  0  0  0  0  0
   -9.7700    9.2713   -1.9485 H   0  0  0  0  0  0  0  0  0  0  0  0
   -8.7715    9.0031   -3.4174 H   0  0  0  0  0  0  0  0  0  0  0  0
  -10.5093    8.5485   -3.4174 H   0  0  0  0  0  0  0  0  0  0  0  0
  -10.0626    5.4567   -1.4444 H   0  0  0  0  0  0  0  0  0  0  0  0
  -11.3556    6.2265   -3.5367 H   0  0  0  0  0  0  0  0  0  0  0  0
  -12.2227    5.4388   -2.1168 H   0  0  0  0  0  0  0  0  0  0  0  0
  -13.4256    7.5105   -3.2127 H   0  0  0  0  0  0  0  0  0  0  0  0
  -10.9842    9.1554   -0.4490 H   0  0  0  0  0  0  0  0  0  0  0  0
  -13.2072    7.8025    1.2022 H   0  0  0  0  0  0  0  0  0  0  0  0
  -11.7746    8.7216    1.8449 H   0  0  0  0  0  0  0  0  0  0  0  0
  -13.8540   10.0601    1.9140 H   0  0  0  0  0  0  0  0  0  0  0  0
  -12.5932   10.7682    0.8295 H   0  0  0  0  0  0  0  0  0  0  0  0
  -14.7257   10.9322   -0.2585 H   0  0  0  0  0  0  0  0  0  0  0  0
  -14.9320    8.3220    0.7250 H   0  0  0  0  0  0  0  0  0  0  0  0
  -12.3867   11.3836   -1.0768 H   0  0  0  0  0  0  0  0  0  0  0  0
  -11.8922   10.5261   -2.5757 H   0  0  0  0  0  0  0  0  0  0  0  0
  -13.3606   11.5608   -2.5757 H   0  0  0  0  0  0  0  0  0  0  0  0
  -15.7032    9.4174   -2.1296 H   0  0  0  0  0  0  0  0  0  0  0  0
  -14.7393   10.4276   -3.2597 H   0  0  0  0  0  0  0  0  0  0  0  0
  -14.5418    8.6422   -3.2597 H   0  0  0  0  0  0  0  0  0  0  0  0
  -11.4629    6.0859    1.6621 H   0  0  0  0  0  0  0  0  0  0  0  0
  -12.6322    5.9559    0.3046 H   0  0  0  0  0  0  0  0  0  0  0  0
  -11.1411    4.9544    0.3046 H   0  0  0  0  0  0  0  0  0  0  0  0
   -9.8276    8.1252    1.4424 H   0  0  0  0  0  0  0  0  0  0  0  0
   -9.1873    6.4270    1.0685 H   0  0  0  0  0  0  0  0  0  0  0  0
   -8.5517    9.0055   -0.3929 H   0  0  0  0  0  0  0  0  0  0  0  0
   -7.4496    7.9671    0.5936 H   0  0  0  0  0  0  0  0  0  0  0  0
   -7.5830    5.6779    0.2697 H   0  0  0  0  0  0  0  0  0  0  0  0
   -8.3177    4.9703   -1.2089 H   0  0  0  0  0  0  0  0  0  0  0  0
   -6.5878    5.4540   -1.2089 H   0  0  0  0  0  0  0  0  0  0  0  0
  1  2  1  0
  2  3  1  0
  3  4  1  0
  4  5  1  0
  5  6  1  0
  6  7  1  0
  7  8  1  0
  7  9  1  0
  2 10  1  0
 10 11  1  0
 11 12  1  0
 12 13  1  0
 13 14  1  6
 13 15  1  0
 15 16  1  0
 16 17  1  0
 17 18  2  0
 18 19  1  0
 19 20  1  0
 20 21  1  0
 21 22  1  0
 22 23  1  0
 22 24  1  0
 24 25  1  0
 24 26  1  0
 19 27  1  0
 27 28  1  1
 27 29  1  0
 29 30  1  0
 30 31  1  0
 31 32  1  1
  7  5  1  0
 31 10  1  0
 31 13  1  0
 27 15  1  0
 24 18  1  0
  1 33  1  0
  1 34  1  0
  1 35  1  0
  2 36  1  6
  3 37  1  0
  3 38  1  0
  4 39  1  0
  4 40  1  0
  5 41  1  6
  8 42  1  0
  8 43  1  0
  8 44  1  0
  9 45  1  0
  9 46  1  0
  9 47  1  0
 10 48  1  6
 11 49  1  0
 11 50  1  0
 12 51  1  0
 12 52  1  0
 14 53  1  0
 14 54  1  0
 14 55  1  0
 15 56  1  1
 16 57  1  0
 16 58  1  0
 17 59  1  0
 19 60  1  6
 20 61  1  0
 20 62  1  0
 21 63  1  0
 21 64  1  0
 22 65  1  6
 23 66  1  0
 25 67  1  0
 25 68  1  0
 25 69  1  0
 26 70  1  0
 26 71  1  0
 26 72  1  0
 28 73  1  0
 28 74  1  0
 28 75  1  0
 29 76  1  0
 29 77  1  0
 30 78  1  0
 30 79  1  0
 32 80  1  0
 32 81  1  0
 32 82  1  0
M  END
>  <meeko>  (3) 
{"is_sidechain": [false], "intermolecular_energy": 2.731, "internal_energy": -0.839}

$$$$
EPH_relaxed_0001_pdb2pqr_Repair_261_r2_0001_out
     RDKit          3D

 82 86  0  0  0  0  0  0  0  0999 V2000
  -13.9470    5.4000    0.4610 C   0  0  0  0  0  0  0  0  0  0  0  0
  -13.5630    6.8590    0.1970 C   0  0  2  0  0  0  0  0  0  0  0  0
  -14.7800    7.7140   -0.2120 C   0  0  0  0  0  0  0  0  0  0  0  0
  -14.9210    9.0090    0.5930 C   0  0  0  0  0  0  0  0  0  0  0  0
  -14.1630   10.1380   -0.0370 C   0  0  2  0  0  0  0  0  0  0  0  0
  -14.9670   11.2640   -0.4110 O   0  0  0  0  0  0  0  0  0  0  0  0
  -14.3320   10.5540   -1.4860 C   0  0  0  0  0  0  0  0  0  0  0  0
  -15.2860    9.8450   -2.3950 C   0  0  0  0  0  0  0  0  0  0  0  0
  -13.2270   11.3200   -2.1440 C   0  0  0  0  0  0  0  0  0  0  0  0
  -12.4910    6.9270   -0.8840 C   0  0  1  0  0  0  0  0  0  0  0  0
  -12.8340    7.9490   -2.0010 C   0  0  0  0  0  0  0  0  0  0  0  0
  -11.4920    8.5750   -2.4610 C   0  0  0  0  0  0  0  0  0  0  0  0
  -10.4050    7.6680   -1.8400 C   0  0  1  0  0  0  0  0  0  0  0  0
  -10.3070    6.4420   -2.8020 C   0  0  0  0  0  0  0  0  0  0  0  0
   -9.0070    8.3270   -1.6020 C   0  0  2  0  0  0  0  0  0  0  0  0
   -8.2880    8.8090   -2.8740 C   0  0  0  0  0  0  0  0  0  0  0  0
   -7.3910    7.8050   -3.5180 C   0  0  0  0  0  0  0  0  0  0  0  0
   -6.9490    6.6700   -2.9460 C   0  0  0  0  0  0  0  0  0  0  0  0
   -7.2730    6.3480   -1.4810 C   0  0  1  0  0  0  0  0  0  0  0  0
   -5.9850    5.8730   -0.7590 C   0  0  0  0  0  0  0  0  0  0  0  0
   -5.3080    4.7090   -1.4750 C   0  0  0  0  0  0  0  0  0  0  0  0
   -4.9490    5.0870   -2.9100 C   0  0  2  0  0  0  0  0  0  0  0  0
   -3.9360    6.0970   -2.8820 O   0  0  0  0  0  0  0  0  0  0  0  0
   -6.1670    5.5900   -3.7340 C   0  0  0  0  0  0  0  0  0  0  0  0
   -7.1260    4.4080   -4.0210 C   0  0  0  0  0  0  0  0  0  0  0  0
   -5.6440    6.0700   -5.1150 C   0  0  0  0  0  0  0  0  0  0  0  0
   -8.0410    7.4830   -0.6760 C   0  0  1  0  0  0  0  0  0  0  0  0
   -7.0170    8.4880   -0.0660 C   0  0  0  0  0  0  0  0  0  0  0  0
   -8.7980    6.8280    0.5390 C   0  0  0  0  0  0  0  0  0  0  0  0
  -10.2210    6.3020    0.2700 C   0  0  0  0  0  0  0  0  0  0  0  0
  -11.0680    7.3570   -0.4490 C   0  0  2  0  0  0  0  0  0  0  0  0
  -11.2020    8.5930    0.5040 C   0  0  0  0  0  0  0  0  0  0  0  0
  -13.9934    5.2236    1.5458 H   0  0  0  0  0  0  0  0  0  0  0  0
  -14.9302    5.1929    0.0134 H   0  0  0  0  0  0  0  0  0  0  0  0
  -13.1931    4.7357    0.0134 H   0  0  0  0  0  0  0  0  0  0  0  0
  -13.1691    7.2734    1.1367 H   0  0  0  0  0  0  0  0  0  0  0  0
  -14.6789    7.9756   -1.2757 H   0  0  0  0  0  0  0  0  0  0  0  0
  -15.6782    7.1114   -0.0114 H   0  0  0  0  0  0  0  0  0  0  0  0
  -15.9855    9.2808    0.6476 H   0  0  0  0  0  0  0  0  0  0  0  0
  -14.5067    8.8357    1.5971 H   0  0  0  0  0  0  0  0  0  0  0  0
  -13.2719    9.9061    0.5649 H   0  0  0  0  0  0  0  0  0  0  0  0
  -16.0254    9.2955   -1.7939 H   0  0  0  0  0  0  0  0  0  0  0  0
  -15.8027   10.5800   -3.0296 H   0  0  0  0  0  0  0  0  0  0  0  0
  -14.7312    9.1383   -3.0296 H   0  0  0  0  0  0  0  0  0  0  0  0
  -12.5817   11.7673   -1.3737 H   0  0  0  0  0  0  0  0  0  0  0  0
  -12.6320   10.6396   -2.7709 H   0  0  0  0  0  0  0  0  0  0  0  0
  -13.6553   12.1159   -2.7709 H   0  0  0  0  0  0  0  0  0  0  0  0
  -12.4843    5.8745   -1.2036 H   0  0  0  0  0  0  0  0  0  0  0  0
  -13.3229    7.4390   -2.8441 H   0  0  0  0  0  0  0  0  0  0  0  0
  -13.5244    8.7215   -1.6315 H   0  0  0  0  0  0  0  0  0  0  0  0
  -11.4187    8.5731   -3.5586 H   0  0  0  0  0  0  0  0  0  0  0  0
  -11.3909    9.6236   -2.1445 H   0  0  0  0  0  0  0  0  0  0  0  0
  -10.2331    5.5172   -2.2110 H   0  0  0  0  0  0  0  0  0  0  0  0
  -11.2047    6.4010   -3.4363 H   0  0  0  0  0  0  0  0  0  0  0  0
   -9.4142    6.5441   -3.4363 H   0  0  0  0  0  0  0  0  0  0  0  0
   -9.2681    9.2378   -1.0432 H   0  0  0  0  0  0  0  0  0  0  0  0
   -9.0539    9.1007   -3.6077 H   0  0  0  0  0  0  0  0  0  0  0  0
   -7.6393    9.6402   -2.5606 H   0  0  0  0  0  0  0  0  0  0  0  0
   -7.0633    8.0103   -4.5478 H   0  0  0  0  0  0  0  0  0  0  0  0
   -8.0104    5.5321   -1.5039 H   0  0  0  0  0  0  0  0  0  0  0  0
   -5.2785    6.7146   -0.7083 H   0  0  0  0  0  0  0  0  0  0  0  0
   -6.2736    5.5254    0.2439 H   0  0  0  0  0  0  0  0  0  0  0  0
   -4.3897    4.4380   -0.9334 H   0  0  0  0  0  0  0  0  0  0  0  0
   -6.0048    3.8582   -1.4994 H   0  0  0  0  0  0  0  0  0  0  0  0
   -4.5871    4.1764   -3.4099 H   0  0  0  0  0  0  0  0  0  0  0  0
   -3.0770    5.6510   -2.7970 H   0  0  0  0  0  0  0  0  0  0  0  0
   -7.4741    3.9790   -3.0698 H   0  0  0  0  0  0  0  0  0  0  0  0
   -7.9899    4.7687   -4.5985 H   0  0  0  0  0  0  0  0  0  0  0  0
   -6.5950    3.6369   -4.5985 H   0  0  0  0  0  0  0  0  0  0  0  0
   -4.8410    6.8070   -4.9670 H   0  0  0  0  0  0  0  0  0  0  0  0
   -5.2530    5.2098   -5.6782 H   0  0  0  0  0  0  0  0  0  0  0  0
   -6.4676    6.5332   -5.6782 H   0  0  0  0  0  0  0  0  0  0  0  0
   -7.0658    8.4401    1.0319 H   0  0  0  0  0  0  0  0  0  0  0  0
   -6.0023    8.2255   -0.3997 H   0  0  0  0  0  0  0  0  0  0  0  0
   -7.2605    9.5075   -0.3997 H   0  0  0  0  0  0  0  0  0  0  0  0
   -8.1913    5.9808    0.8913 H   0  0  0  0  0  0  0  0  0  0  0  0
   -8.9251    7.6400    1.2700 H   0  0  0  0  0  0  0  0  0  0  0  0
  -10.1590    5.4010   -0.3580 H   0  0  0  0  0  0  0  0  0  0  0  0
  -10.6965    6.0672    1.2337 H   0  0  0  0  0  0  0  0  0  0  0  0
  -11.1654    8.2550    1.5502 H   0  0  0  0  0  0  0  0  0  0  0  0
  -10.3745    9.2927    0.3155 H   0  0  0  0  0  0  0  0  0  0  0  0
  -12.1603    9.0991    0.3155 H   0  0  0  0  0  0  0  0  0  0  0  0
  1  2  1  0
  2  3  1  0
  3  4  1  0
  4  5  1  0
  5  6  1  0
  6  7  1  0
  7  8  1  0
  7  9  1  0
  2 10  1  0
 10 11  1  0
 11 12  1  0
 12 13  1  0
 13 14  1  6
 13 15  1  0
 15 16  1  0
 16 17  1  0
 17 18  2  0
 18 19  1  0
 19 20  1  0
 20 21  1  0
 21 22  1  0
 22 23  1  0
 22 24  1  0
 24 25  1  0
 24 26  1  0
 19 27  1  0
 27 28  1  1
 27 29  1  0
 29 30  1  0
 30 31  1  0
 31 32  1  1
  7  5  1  0
 31 10  1  0
 31 13  1  0
 27 15  1  0
 24 18  1  0
  1 33  1  0
  1 34  1  0
  1 35  1  0
  2 36  1  1
  3 37  1  0
  3 38  1  0
  4 39  1  0
  4 40  1  0
  5 41  1  1
  8 42  1  0
  8 43  1  0
  8 44  1  0
  9 45  1  0
  9 46  1  0
  9 47  1  0
 10 48  1  6
 11 49  1  0
 11 50  1  0
 12 51  1  0
 12 52  1  0
 14 53  1  0
 14 54  1  0
 14 55  1  0
 15 56  1  1
 16 57  1  0
 16 58  1  0
 17 59  1  0
 19 60  1  6
 20 61  1  0
 20 62  1  0
 21 63  1  0
 21 64  1  0
 22 65  1  6
 23 66  1  0
 25 67  1  0
 25 68  1  0
 25 69  1  0
 26 70  1  0
 26 71  1  0
 26 72  1  0
 28 73  1  0
 28 74  1  0
 28 75  1  0
 29 76  1  0
 29 77  1  0
 30 78  1  0
 30 79  1  0
 32 80  1  0
 32 81  1  0
 32 82  1  0
M  END
>  <meeko>  (4) 
{"is_sidechain": [false], "intermolecular_energy": 2.731, "internal_energy": -0.839}

$$$$
EPH_relaxed_0001_pdb2pqr_Repair_261_r2_0001_out
     RDKit          3D

 82 86  0  0  0  0  0  0  0  0999 V2000
  -14.1320    9.7060    0.8260 C   0  0  0  0  0  0  0  0  0  0  0  0
  -13.4350    9.2670   -0.4640 C   0  0  2  0  0  0  0  0  0  0  0  0
  -14.3180    8.3300   -1.3110 C   0  0  0  0  0  0  0  0  0  0  0  0
  -14.5420    8.8230   -2.7440 C   0  0  0  0  0  0  0  0  0  0  0  0
  -15.2550   10.1410   -2.7710 C   0  0  2  0  0  0  0  0  0  0  0  0
  -15.0730   10.8950   -3.9770 O   0  0  0  0  0  0  0  0  0  0  0  0
  -14.5410   11.4790   -2.7770 C   0  0  0  0  0  0  0  0  0  0  0  0
  -13.0470   11.5660   -2.7540 C   0  0  0  0  0  0  0  0  0  0  0  0
  -15.2870   12.6910   -2.3140 C   0  0  0  0  0  0  0  0  0  0  0  0
  -12.1150    8.5800   -0.1340 C   0  0  1  0  0  0  0  0  0  0  0  0
  -12.2670    7.4840    0.9540 C   0  0  0  0  0  0  0  0  0  0  0  0
  -11.2660    6.3560    0.5960 C   0  0  0  0  0  0  0  0  0  0  0  0
  -10.3450    6.9790   -0.4800 C   0  0  1  0  0  0  0  0  0  0  0  0
   -9.3040    7.8210    0.3220 C   0  0  0  0  0  0  0  0  0  0  0  0
   -9.6480    5.9760   -1.4570 C   0  0  2  0  0  0  0  0  0  0  0  0
   -8.6810    4.9820   -0.7910 C   0  0  0  0  0  0  0  0  0  0  0  0
   -7.2630    5.4390   -0.6950 C   0  0  0  0  0  0  0  0  0  0  0  0
   -6.7260    6.4700   -1.3730 C   0  0  0  0  0  0  0  0  0  0  0  0
   -7.5440    7.2350   -2.4210 C   0  0  1  0  0  0  0  0  0  0  0  0
   -6.6960    7.4240   -3.7050 C   0  0  0  0  0  0  0  0  0  0  0  0
   -5.3470    8.0800   -3.4250 C   0  0  0  0  0  0  0  0  0  0  0  0
   -4.5390    7.2590   -2.4240 C   0  0  2  0  0  0  0  0  0  0  0  0
   -4.1850    6.0120   -3.0290 O   0  0  0  0  0  0  0  0  0  0  0  0
   -5.2970    6.9970   -1.0920 C   0  0  0  0  0  0  0  0  0  0  0  0
   -5.4150    8.3170   -0.2910 C   0  0  0  0  0  0  0  0  0  0  0  0
   -4.4290    6.0410   -0.2290 C   0  0  0  0  0  0  0  0  0  0  0  0
   -8.9930    6.6580   -2.7260 C   0  0  1  0  0  0  0  0  0  0  0  0
   -8.9060    5.5570   -3.8270 C   0  0  0  0  0  0  0  0  0  0  0  0
   -9.8910    7.8080   -3.3170 C   0  0  0  0  0  0  0  0  0  0  0  0
  -10.6490    8.6890   -2.3050 C   0  0  0  0  0  0  0  0  0  0  0  0
  -11.3970    7.8280   -1.2820 C   0  0  2  0  0  0  0  0  0  0  0  0
  -12.4670    6.9860   -2.0570 C   0  0  0  0  0  0  0  0  0  0  0  0
  -13.5594    9.3453    1.6932 H   0  0  0  0  0  0  0  0  0  0  0  0
  -14.1901   10.8041    0.8560 H   0  0  0  0  0  0  0  0  0  0  0  0
  -15.1474    9.2841    0.8560 H   0  0  0  0  0  0  0  0  0  0  0  0
  -13.2449   10.1711   -1.0610 H   0  0  0  0  0  0  0  0  0  0  0  0
  -13.8344    7.3430   -1.3550 H   0  0  0  0  0  0  0  0  0  0  0  0
  -15.3046    8.2930   -0.8260 H   0  0  0  0  0  0  0  0  0  0  0  0
  -13.5662    8.9352   -3.2391 H   0  0  0  0  0  0  0  0  0  0  0  0
  -15.1666    8.0841   -3.2674 H   0  0  0  0  0  0  0  0  0  0  0  0
  -16.0668    9.7412   -2.1456 H   0  0  0  0  0  0  0  0  0  0  0  0
  -12.6969   11.5864   -1.7114 H   0  0  0  0  0  0  0  0  0  0  0  0
  -12.6208   10.6912   -3.2668 H   0  0  0  0  0  0  0  0  0  0  0  0
  -12.7253   12.4844   -3.2668 H   0  0  0  0  0  0  0  0  0  0  0  0
  -15.3016   12.7147   -1.2144 H   0  0  0  0  0  0  0  0  0  0  0  0
  -14.7890   13.5953   -2.6937 H   0  0  0  0  0  0  0  0  0  0  0  0
  -16.3187   12.6538   -2.6937 H   0  0  0  0  0  0  0  0  0  0  0  0
  -11.5233    9.4563    0.1694 H   0  0  0  0  0  0  0  0  0  0  0  0
  -12.0314    7.8990    1.9451 H   0  0  0  0  0  0  0  0  0  0  0  0
  -13.2977    7.1012    0.9875 H   0  0  0  0  0  0  0  0  0  0  0  0
  -10.6838    6.0583    1.4805 H   0  0  0  0  0  0  0  0  0  0  0  0
  -11.7719    5.4476    0.2371 H   0  0  0  0  0  0  0  0  0  0  0  0
   -9.4738    7.6837    1.4001 H   0  0  0  0  0  0  0  0  0  0  0  0
   -8.2874    7.4881    0.0656 H   0  0  0  0  0  0  0  0  0  0  0  0
   -9.4171    8.8847    0.0656 H   0  0  0  0  0  0  0  0  0  0  0  0
  -10.4933    5.3725   -1.8192 H   0  0  0  0  0  0  0  0  0  0  0  0
   -9.0445    4.7853    0.2284 H   0  0  0  0  0  0  0  0  0  0  0  0
   -8.6704    4.0900   -1.4346 H   0  0  0  0  0  0  0  0  0  0  0  0
   -6.6011    4.8862   -0.0122 H   0  0  0  0  0  0  0  0  0  0  0  0
   -7.7673    8.2153   -1.9747 H   0  0  0  0  0  0  0  0  0  0  0  0
   -6.5208    6.4380   -4.1600 H   0  0  0  0  0  0  0  0  0  0  0  0
   -7.2561    8.0880   -4.3799 H   0  0  0  0  0  0  0  0  0  0  0  0
   -4.7823    8.1579   -4.3658 H   0  0  0  0  0  0  0  0  0  0  0  0
   -5.5237    9.0786   -2.9988 H   0  0  0  0  0  0  0  0  0  0  0  0
   -3.6436    7.8434   -2.1655 H   0  0  0  0  0  0  0  0  0  0  0  0
   -3.2210    5.9100   -2.9510 H   0  0  0  0  0  0  0  0  0  0  0  0
   -5.3952    8.0952    0.7862 H   0  0  0  0  0  0  0  0  0  0  0  0
   -4.5722    8.9767   -0.5451 H   0  0  0  0  0  0  0  0  0  0  0  0
   -6.3614    8.8167   -0.5451 H   0  0  0  0  0  0  0  0  0  0  0  0
   -4.6115    6.2420    0.8370 H   0  0  0  0  0  0  0  0  0  0  0  0
   -4.6953    4.9982   -0.4564 H   0  0  0  0  0  0  0  0  0  0  0  0
   -3.3654    6.2057   -0.4564 H   0  0  0  0  0  0  0  0  0  0  0  0
   -8.8279    4.5682   -3.3514 H   0  0  0  0  0  0  0  0  0  0  0  0
   -9.8097    5.5923   -4.4531 H   0  0  0  0  0  0  0  0  0  0  0  0
   -8.0190    5.7338   -4.4531 H   0  0  0  0  0  0  0  0  0  0  0  0
   -9.2397    8.4673   -3.9095 H   0  0  0  0  0  0  0  0  0  0  0  0
  -10.6742    7.2936   -3.8932 H   0  0  0  0  0  0  0  0  0  0  0  0
   -9.9291    9.3316   -1.7770 H   0  0  0  0  0  0  0  0  0  0  0  0
  -11.3817    9.3008   -2.8517 H   0  0  0  0  0  0  0  0  0  0  0  0
  -13.1206    6.4717   -1.3371 H   0  0  0  0  0  0  0  0  0  0  0  0
  -13.0713    7.6534   -2.6890 H   0  0  0  0  0  0  0  0  0  0  0  0
  -11.9604    6.2417   -2.6890 H   0  0  0  0  0  0  0  0  0  0  0  0
  1  2  1  0
  2  3  1  0
  3  4  1  0
  4  5  1  0
  5  6  1  0
  6  7  1  0
  7  8  1  0
  7  9  1  0
  2 10  1  0
 10 11  1  0
 11 12  1  0
 12 13  1  0
 13 14  1  1
 13 15  1  0
 15 16  1  0
 16 17  1  0
 17 18  2  0
 18 19  1  0
 19 20  1  0
 20 21  1  0
 21 22  1  0
 22 23  1  0
 22 24  1  0
 24 25  1  0
 24 26  1  0
 19 27  1  0
 27 28  1  6
 27 29  1  0
 29 30  1  0
 30 31  1  0
 31 32  1  6
  7  5  1  0
 31 10  1  0
 31 13  1  0
 27 15  1  0
 24 18  1  0
  1 33  1  0
  1 34  1  0
  1 35  1  0
  2 36  1  6
  3 37  1  0
  3 38  1  0
  4 39  1  0
  4 40  1  0
  5 41  1  1
  8 42  1  0
  8 43  1  0
  8 44  1  0
  9 45  1  0
  9 46  1  0
  9 47  1  0
 10 48  1  1
 11 49  1  0
 11 50  1  0
 12 51  1  0
 12 52  1  0
 14 53  1  0
 14 54  1  0
 14 55  1  0
 15 56  1  6
 16 57  1  0
 16 58  1  0
 17 59  1  0
 19 60  1  1
 20 61  1  0
 20 62  1  0
 21 63  1  0
 21 64  1  0
 22 65  1  1
 23 66  1  0
 25 67  1  0
 25 68  1  0
 25 69  1  0
 26 70  1  0
 26 71  1  0
 26 72  1  0
 28 73  1  0
 28 74  1  0
 28 75  1  0
 29 76  1  0
 29 77  1  0
 30 78  1  0
 30 79  1  0
 32 80  1  0
 32 81  1  0
 32 82  1  0
M  END
>  <meeko>  (5) 
{"is_sidechain": [false], "intermolecular_energy": 2.731, "internal_energy": -0.839}

$$$$
EPH_relaxed_0001_pdb2pqr_Repair_261_r2_0001_out
     RDKit          3D

 82 86  0  0  0  0  0  0  0  0999 V2000
   -5.2400    6.3230   -3.7410 C   0  0  0  0  0  0  0  0  0  0  0  0
   -5.9850    7.3620   -2.8980 C   0  0  2  0  0  0  0  0  0  0  0  0
   -5.2680    7.6490   -1.5630 C   0  0  0  0  0  0  0  0  0  0  0  0
   -3.7410    7.6420   -1.6710 C   0  0  0  0  0  0  0  0  0  0  0  0
   -3.1130    8.6080   -0.7120 C   0  0  2  0  0  0  0  0  0  0  0  0
   -2.6770    9.8400   -1.3030 O   0  0  0  0  0  0  0  0  0  0  0  0
   -1.6470    8.9980   -0.7580 C   0  0  0  0  0  0  0  0  0  0  0  0
   -0.7200    8.4290   -1.7840 C   0  0  0  0  0  0  0  0  0  0  0  0
   -1.0150    9.5470    0.4830 C   0  0  0  0  0  0  0  0  0  0  0  0
   -7.4100    6.8920   -2.6330 C   0  0  1  0  0  0  0  0  0  0  0  0
   -7.5710    5.3560   -2.7870 C   0  0  0  0  0  0  0  0  0  0  0  0
   -8.6140    4.9060   -1.7320 C   0  0  0  0  0  0  0  0  0  0  0  0
   -9.2590    6.2220   -1.2370 C   0  0  1  0  0  0  0  0  0  0  0  0
  -10.3240    6.5790   -2.3210 C   0  0  0  0  0  0  0  0  0  0  0  0
   -9.8840    6.1880    0.1960 C   0  0  2  0  0  0  0  0  0  0  0  0
  -11.0560    5.2070    0.3740 C   0  0  0  0  0  0  0  0  0  0  0  0
  -12.4100    5.7750    0.1030 C   0  0  0  0  0  0  0  0  0  0  0  0
  -12.7040    7.0850    0.0080 C   0  0  0  0  0  0  0  0  0  0  0  0
  -11.6360    8.1540    0.2790 C   0  0  1  0  0  0  0  0  0  0  0  0
  -12.2240    9.2500    1.2050 C   0  0  0  0  0  0  0  0  0  0  0  0
  -13.5190    9.8440    0.6600 C   0  0  0  0  0  0  0  0  0  0  0  0
  -14.5750    8.7600    0.4600 C   0  0  2  0  0  0  0  0  0  0  0  0
  -14.9550    8.2450    1.7400 O   0  0  0  0  0  0  0  0  0  0  0  0
  -14.0920    7.5960   -0.4500 C   0  0  0  0  0  0  0  0  0  0  0  0
  -13.9690    8.0940   -1.9110 C   0  0  0  0  0  0  0  0  0  0  0  0
  -15.1960    6.5040   -0.4550 C   0  0  0  0  0  0  0  0  0  0  0  0
  -10.2290    7.6150    0.7860 C   0  0  1  0  0  0  0  0  0  0  0  0
  -10.2460    7.4640    2.3380 C   0  0  0  0  0  0  0  0  0  0  0  0
   -9.1210    8.6840    0.4560 C   0  0  0  0  0  0  0  0  0  0  0  0
   -8.4570    8.5900   -0.9310 C   0  0  0  0  0  0  0  0  0  0  0  0
   -7.9970    7.1590   -1.2240 C   0  0  2  0  0  0  0  0  0  0  0  0
   -6.9100    6.7790   -0.1620 C   0  0  0  0  0  0  0  0  0  0  0  0
   -4.7290    5.6103   -3.0770 H   0  0  0  0  0  0  0  0  0  0  0  0
   -5.9579    5.7828   -4.3758 H   0  0  0  0  0  0  0  0  0  0  0  0
   -4.4981    6.8296   -4.3758 H   0  0  0  0  0  0  0  0  0  0  0  0
   -6.0039    8.3007   -3.4712 H   0  0  0  0  0  0  0  0  0  0  0  0
   -5.5862    8.6387   -1.2036 H   0  0  0  0  0  0  0  0  0  0  0  0
   -5.5450    6.8416   -0.8691 H   0  0  0  0  0  0  0  0  0  0  0  0
   -3.3726    6.6295   -1.4496 H   0  0  0  0  0  0  0  0  0  0  0  0
   -3.4680    7.9462   -2.6923 H   0  0  0  0  0  0  0  0  0  0  0  0
   -3.7563    8.2516    0.1060 H   0  0  0  0  0  0  0  0  0  0  0  0
    0.1138    7.9172   -1.2812 H   0  0  0  0  0  0  0  0  0  0  0  0
   -1.2658    7.7102   -2.4128 H   0  0  0  0  0  0  0  0  0  0  0  0
   -0.3261    9.2411   -2.4128 H   0  0  0  0  0  0  0  0  0  0  0  0
   -1.5093    9.1176    1.3669 H   0  0  0  0  0  0  0  0  0  0  0  0
    0.0533    9.2853    0.4970 H   0  0  0  0  0  0  0  0  0  0  0  0
   -1.1247   10.6414    0.4970 H   0  0  0  0  0  0  0  0  0  0  0  0
   -7.9443    7.4926   -3.3839 H   0  0  0  0  0  0  0  0  0  0  0  0
   -7.9268    5.1123   -3.7989 H   0  0  0  0  0  0  0  0  0  0  0  0
   -6.6104    4.8417   -2.6361 H   0  0  0  0  0  0  0  0  0  0  0  0
   -9.3702    4.2503   -2.1883 H   0  0  0  0  0  0  0  0  0  0  0  0
   -8.1581    4.3304   -0.9130 H   0  0  0  0  0  0  0  0  0  0  0  0
  -11.2570    6.8918   -1.8294 H   0  0  0  0  0  0  0  0  0  0  0  0
   -9.9473    7.4000   -2.9488 H   0  0  0  0  0  0  0  0  0  0  0  0
  -10.5182    5.6968   -2.9488 H   0  0  0  0  0  0  0  0  0  0  0  0
   -9.0612    5.7822    0.8029 H   0  0  0  0  0  0  0  0  0  0  0  0
  -10.8986    4.3615   -0.3118 H   0  0  0  0  0  0  0  0  0  0  0  0
  -11.0536    4.9195    1.4358 H   0  0  0  0  0  0  0  0  0  0  0  0
  -13.2373    5.0624   -0.0303 H   0  0  0  0  0  0  0  0  0  0  0  0
  -11.3848    8.5888   -0.6997 H   0  0  0  0  0  0  0  0  0  0  0  0
  -12.4271    8.8067    2.1910 H   0  0  0  0  0  0  0  0  0  0  0  0
  -11.4857   10.0628    1.2705 H   0  0  0  0  0  0  0  0  0  0  0  0
  -13.9001   10.5908    1.3721 H   0  0  0  0  0  0  0  0  0  0  0  0
  -13.3082   10.3124   -0.3127 H   0  0  0  0  0  0  0  0  0  0  0  0
  -15.4316    9.2233   -0.0515 H   0  0  0  0  0  0  0  0  0  0  0  0
  -15.8990    8.4380    1.8660 H   0  0  0  0  0  0  0  0  0  0  0  0
  -13.7052    9.1619   -1.9134 H   0  0  0  0  0  0  0  0  0  0  0  0
  -13.1852    7.5216   -2.4287 H   0  0  0  0  0  0  0  0  0  0  0  0
  -14.9291    7.9523   -2.4287 H   0  0  0  0  0  0  0  0  0  0  0  0
  -15.4591    6.2438    0.5809 H   0  0  0  0  0  0  0  0  0  0  0  0
  -16.0871    6.8859   -0.9747 H   0  0  0  0  0  0  0  0  0  0  0  0
  -14.8239    5.6088   -0.9747 H   0  0  0  0  0  0  0  0  0  0  0  0
  -10.1345    8.4542    2.8040 H   0  0  0  0  0  0  0  0  0  0  0  0
  -11.2002    7.0161    2.6524 H   0  0  0  0  0  0  0  0  0  0  0  0
   -9.4152    6.8152    2.6524 H   0  0  0  0  0  0  0  0  0  0  0  0
   -9.5836    9.6787    0.5369 H   0  0  0  0  0  0  0  0  0  0  0  0
   -8.3120    8.4922    1.1763 H   0  0  0  0  0  0  0  0  0  0  0  0
   -9.1820    8.8989   -1.6984 H   0  0  0  0  0  0  0  0  0  0  0  0
   -7.5772    9.2502   -0.9436 H   0  0  0  0  0  0  0  0  0  0  0  0
   -7.3193    6.9221    0.8489 H   0  0  0  0  0  0  0  0  0  0  0  0
   -6.6201    5.7262   -0.2946 H   0  0  0  0  0  0  0  0  0  0  0  0
   -6.0273    7.4219   -0.2946 H   0  0  0  0  0  0  0  0  0  0  0  0
  1  2  1  0
  2  3  1  0
  3  4  1  0
  4  5  1  0
  5  6  1  0
  6  7  1  0
  7  8  1  0
  7  9  1  0
  2 10  1  0
 10 11  1  0
 11 12  1  0
 12 13  1  0
 13 14  1  6
 13 15  1  0
 15 16  1  0
 16 17  1  0
 17 18  2  0
 18 19  1  0
 19 20  1  0
 20 21  1  0
 21 22  1  0
 22 23  1  0
 22 24  1  0
 24 25  1  0
 24 26  1  0
 19 27  1  0
 27 28  1  1
 27 29  1  0
 29 30  1  0
 30 31  1  0
 31 32  1  1
  7  5  1  0
 31 10  1  0
 31 13  1  0
 27 15  1  0
 24 18  1  0
  1 33  1  0
  1 34  1  0
  1 35  1  0
  2 36  1  6
  3 37  1  0
  3 38  1  0
  4 39  1  0
  4 40  1  0
  5 41  1  1
  8 42  1  0
  8 43  1  0
  8 44  1  0
  9 45  1  0
  9 46  1  0
  9 47  1  0
 10 48  1  6
 11 49  1  0
 11 50  1  0
 12 51  1  0
 12 52  1  0
 14 53  1  0
 14 54  1  0
 14 55  1  0
 15 56  1  1
 16 57  1  0
 16 58  1  0
 17 59  1  0
 19 60  1  6
 20 61  1  0
 20 62  1  0
 21 63  1  0
 21 64  1  0
 22 65  1  6
 23 66  1  0
 25 67  1  0
 25 68  1  0
 25 69  1  0
 26 70  1  0
 26 71  1  0
 26 72  1  0
 28 73  1  0
 28 74  1  0
 28 75  1  0
 29 76  1  0
 29 77  1  0
 30 78  1  0
 30 79  1  0
 32 80  1  0
 32 81  1  0
 32 82  1  0
M  END
>  <meeko>  (6) 
{"is_sidechain": [false], "intermolecular_energy": 2.731, "internal_energy": -0.839}

$$$$
EPH_relaxed_0001_pdb2pqr_Repair_261_r2_0001_out
     RDKit          3D

 82 86  0  0  0  0  0  0  0  0999 V2000
  -13.8660   10.1140   -0.4680 C   0  0  0  0  0  0  0  0  0  0  0  0
  -13.2270    9.0920   -1.4140 C   0  0  2  0  0  0  0  0  0  0  0  0
  -14.1320    7.8650   -1.6400 C   0  0  0  0  0  0  0  0  0  0  0  0
  -15.2830    8.1210   -2.6160 C   0  0  0  0  0  0  0  0  0  0  0  0
  -15.0500    7.4490   -3.9360 C   0  0  2  0  0  0  0  0  0  0  0  0
  -13.8230    7.8100   -4.5830 O   0  0  0  0  0  0  0  0  0  0  0  0
  -15.0310    8.1900   -5.2600 C   0  0  0  0  0  0  0  0  0  0  0  0
  -15.2500    9.6690   -5.3300 C   0  0  0  0  0  0  0  0  0  0  0  0
  -15.2870    7.4170   -6.5160 C   0  0  0  0  0  0  0  0  0  0  0  0
  -11.8760    8.6490   -0.8640 C   0  0  1  0  0  0  0  0  0  0  0  0
  -11.9980    7.9090    0.4940 C   0  0  0  0  0  0  0  0  0  0  0  0
  -10.8970    6.8170    0.5090 C   0  0  0  0  0  0  0  0  0  0  0  0
   -9.9760    7.1760   -0.6800 C   0  0  1  0  0  0  0  0  0  0  0  0
   -9.0420    8.3020   -0.1380 C   0  0  0  0  0  0  0  0  0  0  0  0
   -9.1580    5.9970   -1.3020 C   0  0  2  0  0  0  0  0  0  0  0  0
   -8.1520    5.3280   -0.3490 C   0  0  0  0  0  0  0  0  0  0  0  0
   -6.7790    5.9140   -0.3580 C   0  0  0  0  0  0  0  0  0  0  0  0
   -6.2890    6.7440   -1.2980 C   0  0  0  0  0  0  0  0  0  0  0  0
   -7.1120    7.0970   -2.5430 C   0  0  1  0  0  0  0  0  0  0  0  0
   -6.2180    6.9760   -3.8060 C   0  0  0  0  0  0  0  0  0  0  0  0
   -4.9390    7.8000   -3.6990 C   0  0  0  0  0  0  0  0  0  0  0  0
   -4.1200    7.3800   -2.4810 C   0  0  2  0  0  0  0  0  0  0  0  0
   -3.6430    6.0460   -2.6840 O   0  0  0  0  0  0  0  0  0  0  0  0
   -4.9200    7.4520   -1.1500 C   0  0  0  0  0  0  0  0  0  0  0  0
   -5.1760    8.9330   -0.7770 C   0  0  0  0  0  0  0  0  0  0  0  0
   -4.0250    6.8690   -0.0230 C   0  0  0  0  0  0  0  0  0  0  0  0
   -8.4960    6.3330   -2.6990 C   0  0  1  0  0  0  0  0  0  0  0  0
   -8.2730    4.9710   -3.4250 C   0  0  0  0  0  0  0  0  0  0  0  0
   -9.4490    7.1780   -3.6250 C   0  0  0  0  0  0  0  0  0  0  0  0
  -10.3190    8.2460   -2.9350 C   0  0  0  0  0  0  0  0  0  0  0  0
  -11.0490    7.6600   -1.7230 C   0  0  2  0  0  0  0  0  0  0  0  0
  -12.0130    6.5390   -2.2400 C   0  0  0  0  0  0  0  0  0  0  0  0
  -13.6795    9.8157    0.5742 H   0  0  0  0  0  0  0  0  0  0  0  0
  -13.4271   11.1062   -0.6495 H   0  0  0  0  0  0  0  0  0  0  0  0
  -14.9502   10.1539   -0.6495 H   0  0  0  0  0  0  0  0  0  0  0  0
  -13.0888    9.5837   -2.3882 H   0  0  0  0  0  0  0  0  0  0  0  0
  -13.5144    7.0466   -2.0384 H   0  0  0  0  0  0  0  0  0  0  0  0
  -14.5837    7.6153   -0.6686 H   0  0  0  0  0  0  0  0  0  0  0  0
  -16.2147    7.7334   -2.1781 H   0  0  0  0  0  0  0  0  0  0  0  0
  -15.3506    9.2050   -2.7900 H   0  0  0  0  0  0  0  0  0  0  0  0
  -15.5891    6.5507   -3.6007 H   0  0  0  0  0  0  0  0  0  0  0  0
  -15.3108   10.0793   -4.3112 H   0  0  0  0  0  0  0  0  0  0  0  0
  -14.4116   10.1389   -5.8651 H   0  0  0  0  0  0  0  0  0  0  0  0
  -16.1886    9.8758   -5.8651 H   0  0  0  0  0  0  0  0  0  0  0  0
  -15.6233    6.4016   -6.2595 H   0  0  0  0  0  0  0  0  0  0  0  0
  -16.0655    7.9231   -7.1058 H   0  0  0  0  0  0  0  0  0  0  0  0
  -14.3603    7.3583   -7.1058 H   0  0  0  0  0  0  0  0  0  0  0  0
  -11.3670    9.6230   -0.8169 H   0  0  0  0  0  0  0  0  0  0  0  0
  -11.8440    8.6136    1.3245 H   0  0  0  0  0  0  0  0  0  0  0  0
  -12.9970    7.4643    0.6131 H   0  0  0  0  0  0  0  0  0  0  0  0
  -10.3372    6.8429    1.4555 H   0  0  0  0  0  0  0  0  0  0  0  0
  -11.3140    5.8028    0.4225 H   0  0  0  0  0  0  0  0  0  0  0  0
   -9.0525    8.2893    0.9619 H   0  0  0  0  0  0  0  0  0  0  0  0
   -8.0162    8.1319   -0.4969 H   0  0  0  0  0  0  0  0  0  0  0  0
   -9.3988    9.2787   -0.4969 H   0  0  0  0  0  0  0  0  0  0  0  0
   -9.9366    5.2435   -1.4919 H   0  0  0  0  0  0  0  0  0  0  0  0
   -8.5486    5.4069    0.6740 H   0  0  0  0  0  0  0  0  0  0  0  0
   -8.0429    4.2913   -0.7003 H   0  0  0  0  0  0  0  0  0  0  0  0
   -6.1112    5.6449    0.4737 H   0  0  0  0  0  0  0  0  0  0  0  0
   -7.4315    8.1412   -2.4105 H   0  0  0  0  0  0  0  0  0  0  0  0
   -5.9459    5.9193   -3.9454 H   0  0  0  0  0  0  0  0  0  0  0  0
   -6.7933    7.3623   -4.6603 H   0  0  0  0  0  0  0  0  0  0  0  0
   -4.3368    7.6496   -4.6071 H   0  0  0  0  0  0  0  0  0  0  0  0
   -5.2122    8.8600   -3.5900 H   0  0  0  0  0  0  0  0  0  0  0  0
   -3.2855    8.0900   -2.3839 H   0  0  0  0  0  0  0  0  0  0  0  0
   -3.3280    5.9820   -3.6010 H   0  0  0  0  0  0  0  0  0  0  0  0
   -5.1941    9.0375    0.3179 H   0  0  0  0  0  0  0  0  0  0  0  0
   -4.3729    9.5597   -1.1920 H   0  0  0  0  0  0  0  0  0  0  0  0
   -6.1429    9.2538   -1.1920 H   0  0  0  0  0  0  0  0  0  0  0  0
   -4.4444    7.1422    0.9565 H   0  0  0  0  0  0  0  0  0  0  0  0
   -3.9885    5.7733   -0.1136 H   0  0  0  0  0  0  0  0  0  0  0  0
   -3.0081    7.2785   -0.1136 H   0  0  0  0  0  0  0  0  0  0  0  0
   -8.1426    4.1743   -2.6779 H   0  0  0  0  0  0  0  0  0  0  0  0
   -9.1459    4.7439   -4.0546 H   0  0  0  0  0  0  0  0  0  0  0  0
   -7.3732    5.0341   -4.0546 H   0  0  0  0  0  0  0  0  0  0  0  0
   -8.8217    7.6898   -4.3697 H   0  0  0  0  0  0  0  0  0  0  0  0
  -10.1617    6.4523   -4.0438 H   0  0  0  0  0  0  0  0  0  0  0  0
   -9.6757    9.0737   -2.6018 H   0  0  0  0  0  0  0  0  0  0  0  0
  -11.0685    8.6062   -3.6551 H   0  0  0  0  0  0  0  0  0  0  0  0
  -12.4619    6.0170   -1.3821 H   0  0  0  0  0  0  0  0  0  0  0  0
  -12.8081    6.9920   -2.8505 H   0  0  0  0  0  0  0  0  0  0  0  0
  -11.4461    5.8207   -2.8505 H   0  0  0  0  0  0  0  0  0  0  0  0
  1  2  1  0
  2  3  1  0
  3  4  1  0
  4  5  1  0
  5  6  1  0
  6  7  1  0
  7  8  1  0
  7  9  1  0
  2 10  1  0
 10 11  1  0
 11 12  1  0
 12 13  1  0
 13 14  1  1
 13 15  1  0
 15 16  1  0
 16 17  1  0
 17 18  2  0
 18 19  1  0
 19 20  1  0
 20 21  1  0
 21 22  1  0
 22 23  1  0
 22 24  1  0
 24 25  1  0
 24 26  1  0
 19 27  1  0
 27 28  1  6
 27 29  1  0
 29 30  1  0
 30 31  1  0
 31 32  1  6
  7  5  1  0
 31 10  1  0
 31 13  1  0
 27 15  1  0
 24 18  1  0
  1 33  1  0
  1 34  1  0
  1 35  1  0
  2 36  1  6
  3 37  1  0
  3 38  1  0
  4 39  1  0
  4 40  1  0
  5 41  1  6
  8 42  1  0
  8 43  1  0
  8 44  1  0
  9 45  1  0
  9 46  1  0
  9 47  1  0
 10 48  1  1
 11 49  1  0
 11 50  1  0
 12 51  1  0
 12 52  1  0
 14 53  1  0
 14 54  1  0
 14 55  1  0
 15 56  1  6
 16 57  1  0
 16 58  1  0
 17 59  1  0
 19 60  1  1
 20 61  1  0
 20 62  1  0
 21 63  1  0
 21 64  1  0
 22 65  1  1
 23 66  1  0
 25 67  1  0
 25 68  1  0
 25 69  1  0
 26 70  1  0
 26 71  1  0
 26 72  1  0
 28 73  1  0
 28 74  1  0
 28 75  1  0
 29 76  1  0
 29 77  1  0
 30 78  1  0
 30 79  1  0
 32 80  1  0
 32 81  1  0
 32 82  1  0
M  END
>  <meeko>  (7) 
{"is_sidechain": [false], "intermolecular_energy": 2.731, "internal_energy": -0.839}

$$$$
EPH_relaxed_0001_pdb2pqr_Repair_261_r2_0001_out
     RDKit          3D

 82 86  0  0  0  0  0  0  0  0999 V2000
  -12.8030   10.5160   -2.0650 C   0  0  0  0  0  0  0  0  0  0  0  0
  -13.0060    9.3650   -1.0750 C   0  0  2  0  0  0  0  0  0  0  0  0
  -13.8570    9.7870    0.1400 C   0  0  0  0  0  0  0  0  0  0  0  0
  -15.1690    9.0100    0.2720 C   0  0  0  0  0  0  0  0  0  0  0  0
  -14.9610    7.6760    0.9240 C   0  0  2  0  0  0  0  0  0  0  0  0
  -13.7690    6.9910    0.5180 O   0  0  0  0  0  0  0  0  0  0  0  0
  -15.0120    6.3600    0.1720 C   0  0  0  0  0  0  0  0  0  0  0  0
  -15.2810    6.3120   -1.3000 C   0  0  0  0  0  0  0  0  0  0  0  0
  -15.2870    5.1060    0.9420 C   0  0  0  0  0  0  0  0  0  0  0  0
  -11.6550    8.8370   -0.6070 C   0  0  1  0  0  0  0  0  0  0  0  0
  -11.7560    8.0210    0.7090 C   0  0  0  0  0  0  0  0  0  0  0  0
  -10.7020    6.8880    0.6150 C   0  0  0  0  0  0  0  0  0  0  0  0
   -9.8120    7.2820   -0.5870 C   0  0  1  0  0  0  0  0  0  0  0  0
   -8.8120    8.3360   -0.0170 C   0  0  0  0  0  0  0  0  0  0  0  0
   -9.0680    6.1110   -1.3090 C   0  0  2  0  0  0  0  0  0  0  0  0
   -8.0550    5.3470   -0.4390 C   0  0  0  0  0  0  0  0  0  0  0  0
   -6.6600    5.8790   -0.4690 C   0  0  0  0  0  0  0  0  0  0  0  0
   -6.1720    6.7450   -1.3760 C   0  0  0  0  0  0  0  0  0  0  0  0
   -7.0260    7.2040   -2.5650 C   0  0  1  0  0  0  0  0  0  0  0  0
   -6.1870    7.1240   -3.8670 C   0  0  0  0  0  0  0  0  0  0  0  0
   -4.8710    7.8900   -3.7630 C   0  0  0  0  0  0  0  0  0  0  0  0
   -4.0250    7.3650   -2.6060 C   0  0  2  0  0  0  0  0  0  0  0  0
   -3.6120    6.0280   -2.9060 O   0  0  0  0  0  0  0  0  0  0  0  0
   -4.7700    7.3880   -1.2420 C   0  0  0  0  0  0  0  0  0  0  0  0
   -4.9500    8.8530   -0.7730 C   0  0  0  0  0  0  0  0  0  0  0  0
   -3.8580    6.7040   -0.1890 C   0  0  0  0  0  0  0  0  0  0  0  0
   -8.4460    6.5050   -2.7100 C   0  0  1  0  0  0  0  0  0  0  0  0
   -8.3070    5.1820   -3.5230 C   0  0  0  0  0  0  0  0  0  0  0  0
   -9.3970    7.4410   -3.5450 C   0  0  0  0  0  0  0  0  0  0  0  0
  -10.1960    8.4990   -2.7600 C   0  0  0  0  0  0  0  0  0  0  0  0
  -10.9020    7.8700   -1.5550 C   0  0  2  0  0  0  0  0  0  0  0  0
  -11.9310    6.8200   -2.0990 C   0  0  0  0  0  0  0  0  0  0  0  0
  -12.6380   11.4517   -1.5106 H   0  0  0  0  0  0  0  0  0  0  0  0
  -11.9281   10.3055   -2.6977 H   0  0  0  0  0  0  0  0  0  0  0  0
  -13.6971   10.6175   -2.6977 H   0  0  0  0  0  0  0  0  0  0  0  0
  -13.5538    8.5692   -1.6010 H   0  0  0  0  0  0  0  0  0  0  0  0
  -13.2642    9.6250    1.0523 H   0  0  0  0  0  0  0  0  0  0  0  0
  -14.1229   10.8444   -0.0055 H   0  0  0  0  0  0  0  0  0  0  0  0
  -15.8719    9.5982    0.8802 H   0  0  0  0  0  0  0  0  0  0  0  0
  -15.5690    8.8389   -0.7383 H   0  0  0  0  0  0  0  0  0  0  0  0
  -15.4595    8.0207    1.8420 H   0  0  0  0  0  0  0  0  0  0  0  0
  -16.3507    6.1211   -1.4712 H   0  0  0  0  0  0  0  0  0  0  0  0
  -15.0027    7.2740   -1.7552 H   0  0  0  0  0  0  0  0  0  0  0  0
  -14.6872    5.5056   -1.7552 H   0  0  0  0  0  0  0  0  0  0  0  0
  -15.2401    5.3199    2.0200 H   0  0  0  0  0  0  0  0  0  0  0  0
  -16.2888    4.7307    0.6859 H   0  0  0  0  0  0  0  0  0  0  0  0
  -14.5342    4.3459    0.6859 H   0  0  0  0  0  0  0  0  0  0  0  0
  -11.1052    9.7861   -0.5234 H   0  0  0  0  0  0  0  0  0  0  0  0
  -11.5413    8.6673    1.5728 H   0  0  0  0  0  0  0  0  0  0  0  0
  -12.7674    7.6094    0.8418 H   0  0  0  0  0  0  0  0  0  0  0  0
  -10.1063    6.8342    1.5382 H   0  0  0  0  0  0  0  0  0  0  0  0
  -11.1639    5.8982    0.4853 H   0  0  0  0  0  0  0  0  0  0  0  0
   -8.8378    8.3088    1.0824 H   0  0  0  0  0  0  0  0  0  0  0  0
   -7.7952    8.1028   -0.3658 H   0  0  0  0  0  0  0  0  0  0  0  0
   -9.0983    9.3392   -0.3658 H   0  0  0  0  0  0  0  0  0  0  0  0
   -9.8838    5.4010   -1.5101 H   0  0  0  0  0  0  0  0  0  0  0  0
   -8.4087    5.3789    0.6021 H   0  0  0  0  0  0  0  0  0  0  0  0
   -8.0021    4.3301   -0.8551 H   0  0  0  0  0  0  0  0  0  0  0  0
   -5.9728    5.5335    0.3173 H   0  0  0  0  0  0  0  0  0  0  0  0
   -7.2962    8.2502   -2.3590 H   0  0  0  0  0  0  0  0  0  0  0  0
   -5.9645    6.0678   -4.0788 H   0  0  0  0  0  0  0  0  0  0  0  0
   -6.7776    7.5828   -4.6736 H   0  0  0  0  0  0  0  0  0  0  0  0
   -4.3102    7.7716   -4.7019 H   0  0  0  0  0  0  0  0  0  0  0  0
   -5.0956    8.9513   -3.5808 H   0  0  0  0  0  0  0  0  0  0  0  0
   -3.1585    8.0344   -2.5012 H   0  0  0  0  0  0  0  0  0  0  0  0
   -2.6500    6.0420   -3.0460 H   0  0  0  0  0  0  0  0  0  0  0  0
   -4.9543    8.8881    0.3264 H   0  0  0  0  0  0  0  0  0  0  0  0
   -4.1203    9.4652   -1.1562 H   0  0  0  0  0  0  0  0  0  0  0  0
   -5.9032    9.2462   -1.1562 H   0  0  0  0  0  0  0  0  0  0  0  0
   -4.2055    6.9646    0.8216 H   0  0  0  0  0  0  0  0  0  0  0  0
   -3.8999    5.6128   -0.3211 H   0  0  0  0  0  0  0  0  0  0  0  0
   -2.8222    7.0498   -0.3211 H   0  0  0  0  0  0  0  0  0  0  0  0
   -8.2178    4.3330   -2.8293 H   0  0  0  0  0  0  0  0  0  0  0  0
   -9.1958    5.0459   -4.1567 H   0  0  0  0  0  0  0  0  0  0  0  0
   -7.4093    5.2336   -4.1567 H   0  0  0  0  0  0  0  0  0  0  0  0
   -8.7773    7.9719   -4.2827 H   0  0  0  0  0  0  0  0  0  0  0  0
  -10.1546    6.7701   -3.9762 H   0  0  0  0  0  0  0  0  0  0  0  0
   -9.5075    9.2805   -2.4061 H   0  0  0  0  0  0  0  0  0  0  0  0
  -10.9572    8.9299   -3.4270 H   0  0  0  0  0  0  0  0  0  0  0  0
  -12.4236    6.3174   -1.2536 H   0  0  0  0  0  0  0  0  0  0  0  0
  -12.6872    7.3316   -2.7126 H   0  0  0  0  0  0  0  0  0  0  0  0
  -11.4043    6.0743   -2.7126 H   0  0  0  0  0  0  0  0  0  0  0  0
  1  2  1  0
  2  3  1  0
  3  4  1  0
  4  5  1  0
  5  6  1  0
  6  7  1  0
  7  8  1  0
  7  9  1  0
  2 10  1  0
 10 11  1  0
 11 12  1  0
 12 13  1  0
 13 14  1  1
 13 15  1  0
 15 16  1  0
 16 17  1  0
 17 18  2  0
 18 19  1  0
 19 20  1  0
 20 21  1  0
 21 22  1  0
 22 23  1  0
 22 24  1  0
 24 25  1  0
 24 26  1  0
 19 27  1  0
 27 28  1  6
 27 29  1  0
 29 30  1  0
 30 31  1  0
 31 32  1  6
  7  5  1  0
 31 10  1  0
 31 13  1  0
 27 15  1  0
 24 18  1  0
  1 33  1  0
  1 34  1  0
  1 35  1  0
  2 36  1  6
  3 37  1  0
  3 38  1  0
  4 39  1  0
  4 40  1  0
  5 41  1  1
  8 42  1  0
  8 43  1  0
  8 44  1  0
  9 45  1  0
  9 46  1  0
  9 47  1  0
 10 48  1  1
 11 49  1  0
 11 50  1  0
 12 51  1  0
 12 52  1  0
 14 53  1  0
 14 54  1  0
 14 55  1  0
 15 56  1  6
 16 57  1  0
 16 58  1  0
 17 59  1  0
 19 60  1  1
 20 61  1  0
 20 62  1  0
 21 63  1  0
 21 64  1  0
 22 65  1  1
 23 66  1  0
 25 67  1  0
 25 68  1  0
 25 69  1  0
 26 70  1  0
 26 71  1  0
 26 72  1  0
 28 73  1  0
 28 74  1  0
 28 75  1  0
 29 76  1  0
 29 77  1  0
 30 78  1  0
 30 79  1  0
 32 80  1  0
 32 81  1  0
 32 82  1  0
M  END
>  <meeko>  (8) 
{"is_sidechain": [false], "intermolecular_energy": 2.731, "internal_energy": -0.839}

$$$$
EPH_relaxed_0001_pdb2pqr_Repair_261_r2_0001_out
     RDKit          3D

 82 86  0  0  0  0  0  0  0  0999 V2000
  -14.6940    8.5360    0.3940 C   0  0  0  0  0  0  0  0  0  0  0  0
  -13.7420    9.4280   -0.4070 C   0  0  2  0  0  0  0  0  0  0  0  0
  -13.9380    9.2700   -1.9280 C   0  0  0  0  0  0  0  0  0  0  0  0
  -15.2500    8.5790   -2.3110 C   0  0  0  0  0  0  0  0  0  0  0  0
  -15.0290    7.4780   -3.3030 C   0  0  2  0  0  0  0  0  0  0  0  0
  -13.8040    7.5760   -4.0420 O   0  0  0  0  0  0  0  0  0  0  0  0
  -15.0160    7.6950   -4.8050 C   0  0  0  0  0  0  0  0  0  0  0  0
  -15.2290    9.0520   -5.3990 C   0  0  0  0  0  0  0  0  0  0  0  0
  -15.2830    6.5250   -5.6990 C   0  0  0  0  0  0  0  0  0  0  0  0
  -12.2980    9.1150   -0.0330 C   0  0  1  0  0  0  0  0  0  0  0  0
  -12.1280    8.7940    1.4760 C   0  0  0  0  0  0  0  0  0  0  0  0
  -11.0200    7.7150    1.5820 C   0  0  0  0  0  0  0  0  0  0  0  0
  -10.3630    7.6920    0.1820 C   0  0  1  0  0  0  0  0  0  0  0  0
   -9.3680    8.8950    0.1860 C   0  0  0  0  0  0  0  0  0  0  0  0
   -9.6560    6.3590   -0.2280 C   0  0  2  0  0  0  0  0  0  0  0  0
   -8.4630    5.9550    0.6560 C   0  0  0  0  0  0  0  0  0  0  0  0
   -7.1350    6.4690    0.2100 C   0  0  0  0  0  0  0  0  0  0  0  0
   -6.8630    6.9830   -1.0040 C   0  0  0  0  0  0  0  0  0  0  0  0
   -7.9250    6.9960   -2.1100 C   0  0  1  0  0  0  0  0  0  0  0  0
   -7.2980    6.4920   -3.4370 C   0  0  0  0  0  0  0  0  0  0  0  0
   -6.0440    7.2710   -3.8240 C   0  0  0  0  0  0  0  0  0  0  0  0
   -4.9890    7.1860   -2.7240 C   0  0  2  0  0  0  0  0  0  0  0  0
   -4.5290    5.8340   -2.6300 O   0  0  0  0  0  0  0  0  0  0  0  0
   -5.5100    7.6590   -1.3380 C   0  0  0  0  0  0  0  0  0  0  0  0
   -5.7240    9.1920   -1.3570 C   0  0  0  0  0  0  0  0  0  0  0  0
   -4.3940    7.3890   -0.2920 C   0  0  0  0  0  0  0  0  0  0  0  0
   -9.2940    6.2640   -1.7660 C   0  0  1  0  0  0  0  0  0  0  0  0
   -9.1850    4.7460   -2.1040 C   0  0  0  0  0  0  0  0  0  0  0  0
  -10.4320    6.8440   -2.6860 C   0  0  0  0  0  0  0  0  0  0  0  0
  -11.1750    8.0910   -2.1700 C   0  0  0  0  0  0  0  0  0  0  0  0
  -11.6330    7.8970   -0.7210 C   0  0  2  0  0  0  0  0  0  0  0  0
  -12.6530    6.7070   -0.6980 C   0  0  0  0  0  0  0  0  0  0  0  0
  -14.5260    8.6934    1.4696 H   0  0  0  0  0  0  0  0  0  0  0  0
  -15.7341    8.7922    0.1440 H   0  0  0  0  0  0  0  0  0  0  0  0
  -14.5059    7.4814    0.1440 H   0  0  0  0  0  0  0  0  0  0  0  0
  -13.9747   10.4723   -0.1514 H   0  0  0  0  0  0  0  0  0  0  0  0
  -13.9258   10.2703   -2.3855 H   0  0  0  0  0  0  0  0  0  0  0  0
  -13.1199    8.6317   -2.2930 H   0  0  0  0  0  0  0  0  0  0  0  0
  -15.7073    8.1554   -1.4047 H   0  0  0  0  0  0  0  0  0  0  0  0
  -15.9095    9.3285   -2.7728 H   0  0  0  0  0  0  0  0  0  0  0  0
  -15.5697    6.7628   -2.6658 H   0  0  0  0  0  0  0  0  0  0  0  0
  -15.3450    9.7911   -4.5926 H   0  0  0  0  0  0  0  0  0  0  0  0
  -14.3620    9.3204   -6.0205 H   0  0  0  0  0  0  0  0  0  0  0  0
  -16.1366    9.0419   -6.0205 H   0  0  0  0  0  0  0  0  0  0  0  0
  -15.4863    5.6343   -5.0864 H   0  0  0  0  0  0  0  0  0  0  0  0
  -16.1551    6.7402   -6.3339 H   0  0  0  0  0  0  0  0  0  0  0  0
  -14.4039    6.3405   -6.3339 H   0  0  0  0  0  0  0  0  0  0  0  0
  -11.8155   10.0454   -0.3668 H   0  0  0  0  0  0  0  0  0  0  0  0
  -11.8287    9.6993    2.0244 H   0  0  0  0  0  0  0  0  0  0  0  0
  -13.0719    8.4348    1.9120 H   0  0  0  0  0  0  0  0  0  0  0  0
  -10.2837    7.9887    2.3521 H   0  0  0  0  0  0  0  0  0  0  0  0
  -11.4209    6.7323    1.8710 H   0  0  0  0  0  0  0  0  0  0  0  0
   -9.1360    9.1755    1.2240 H   0  0  0  0  0  0  0  0  0  0  0  0
   -8.4414    8.6061   -0.3316 H   0  0  0  0  0  0  0  0  0  0  0  0
   -9.8256    9.7510   -0.3316 H   0  0  0  0  0  0  0  0  0  0  0  0
  -10.4373    5.6086   -0.0369 H   0  0  0  0  0  0  0  0  0  0  0  0
   -8.6497    6.3329    1.6720 H   0  0  0  0  0  0  0  0  0  0  0  0
   -8.3995    4.8584    0.5980 H   0  0  0  0  0  0  0  0  0  0  0  0
   -6.3085    6.4241    0.9345 H   0  0  0  0  0  0  0  0  0  0  0  0
   -8.2366    8.0453   -2.2191 H   0  0  0  0  0  0  0  0  0  0  0  0
   -7.0323    5.4309   -3.3209 H   0  0  0  0  0  0  0  0  0  0  0  0
   -8.0415    6.6380   -4.2345 H   0  0  0  0  0  0  0  0  0  0  0  0
   -5.6309    6.8502   -4.7526 H   0  0  0  0  0  0  0  0  0  0  0  0
   -6.3167    8.3268   -3.9687 H   0  0  0  0  0  0  0  0  0  0  0  0
   -4.1693    7.8659   -2.9993 H   0  0  0  0  0  0  0  0  0  0  0  0
   -3.7780    5.8210   -2.0120 H   0  0  0  0  0  0  0  0  0  0  0  0
   -5.7764    9.5677   -0.3245 H   0  0  0  0  0  0  0  0  0  0  0  0
   -4.8843    9.6730   -1.8800 H   0  0  0  0  0  0  0  0  0  0  0  0
   -6.6633    9.4246   -1.8800 H   0  0  0  0  0  0  0  0  0  0  0  0
   -4.8094    7.4895    0.7216 H   0  0  0  0  0  0  0  0  0  0  0  0
   -4.0023    6.3702   -0.4284 H   0  0  0  0  0  0  0  0  0  0  0  0
   -3.5799    8.1161   -0.4284 H   0  0  0  0  0  0  0  0  0  0  0  0
   -9.1433    4.1647   -1.1711 H   0  0  0  0  0  0  0  0  0  0  0  0
  -10.0633    4.4368   -2.6897 H   0  0  0  0  0  0  0  0  0  0  0  0
   -8.2716    4.5654   -2.6897 H   0  0  0  0  0  0  0  0  0  0  0  0
   -9.9776    7.1041   -3.6534 H   0  0  0  0  0  0  0  0  0  0  0  0
  -11.1952    6.0532   -2.7326 H   0  0  0  0  0  0  0  0  0  0  0  0
  -10.5004    8.9584   -2.2209 H   0  0  0  0  0  0  0  0  0  0  0  0
  -12.0624    8.2554   -2.7989 H   0  0  0  0  0  0  0  0  0  0  0  0
  -12.8817    6.4402    0.3444 H   0  0  0  0  0  0  0  0  0  0  0  0
  -13.5785    7.0074   -1.2111 H   0  0  0  0  0  0  0  0  0  0  0  0
  -12.2146    5.8384   -1.2111 H   0  0  0  0  0  0  0  0  0  0  0  0
  1  2  1  0
  2  3  1  0
  3  4  1  0
  4  5  1  0
  5  6  1  0
  6  7  1  0
  7  8  1  0
  7  9  1  0
  2 10  1  0
 10 11  1  0
 11 12  1  0
 12 13  1  0
 13 14  1  1
 13 15  1  0
 15 16  1  0
 16 17  1  0
 17 18  2  0
 18 19  1  0
 19 20  1  0
 20 21  1  0
 21 22  1  0
 22 23  1  0
 22 24  1  0
 24 25  1  0
 24 26  1  0
 19 27  1  0
 27 28  1  6
 27 29  1  0
 29 30  1  0
 30 31  1  0
 31 32  1  6
  7  5  1  0
 31 10  1  0
 31 13  1  0
 27 15  1  0
 24 18  1  0
  1 33  1  0
  1 34  1  0
  1 35  1  0
  2 36  1  1
  3 37  1  0
  3 38  1  0
  4 39  1  0
  4 40  1  0
  5 41  1  6
  8 42  1  0
  8 43  1  0
  8 44  1  0
  9 45  1  0
  9 46  1  0
  9 47  1  0
 10 48  1  1
 11 49  1  0
 11 50  1  0
 12 51  1  0
 12 52  1  0
 14 53  1  0
 14 54  1  0
 14 55  1  0
 15 56  1  6
 16 57  1  0
 16 58  1  0
 17 59  1  0
 19 60  1  6
 20 61  1  0
 20 62  1  0
 21 63  1  0
 21 64  1  0
 22 65  1  6
 23 66  1  0
 25 67  1  0
 25 68  1  0
 25 69  1  0
 26 70  1  0
 26 71  1  0
 26 72  1  0
 28 73  1  0
 28 74  1  0
 28 75  1  0
 29 76  1  0
 29 77  1  0
 30 78  1  0
 30 79  1  0
 32 80  1  0
 32 81  1  0
 32 82  1  0
M  END
>  <meeko>  (9) 
{"is_sidechain": [false], "intermolecular_energy": 2.731, "internal_energy": -0.839}

$$$$
EPH_relaxed_0001_pdb2pqr_Repair_261_r2_0001_out
     RDKit          3D

 82 86  0  0  0  0  0  0  0  0999 V2000
  -11.6710    8.7890   -2.6730 C   0  0  0  0  0  0  0  0  0  0  0  0
  -11.2790    7.5320   -1.8900 C   0  0  2  0  0  0  0  0  0  0  0  0
  -12.3630    7.1200   -0.8740 C   0  0  0  0  0  0  0  0  0  0  0  0
  -13.7610    7.6390   -1.2190 C   0  0  0  0  0  0  0  0  0  0  0  0
  -13.9210    9.0850   -0.8560 C   0  0  2  0  0  0  0  0  0  0  0  0
  -15.2750    9.5020   -0.6400 O   0  0  0  0  0  0  0  0  0  0  0  0
  -14.5970   10.1030   -1.7550 C   0  0  0  0  0  0  0  0  0  0  0  0
  -15.1580    9.7170   -3.0880 C   0  0  0  0  0  0  0  0  0  0  0  0
  -14.2820   11.5530   -1.5580 C   0  0  0  0  0  0  0  0  0  0  0  0
   -9.9530    7.7580   -1.1750 C   0  0  1  0  0  0  0  0  0  0  0  0
  -10.0410    7.4830    0.3500 C   0  0  0  0  0  0  0  0  0  0  0  0
   -8.6780    6.8810    0.7760 C   0  0  0  0  0  0  0  0  0  0  0  0
   -7.7450    7.1350   -0.4310 C   0  0  1  0  0  0  0  0  0  0  0  0
   -7.2820    8.6180   -0.2750 C   0  0  0  0  0  0  0  0  0  0  0  0
   -6.5290    6.1640   -0.5820 C   0  0  2  0  0  0  0  0  0  0  0  0
   -5.5170    6.2000    0.5760 C   0  0  0  0  0  0  0  0  0  0  0  0
   -4.3980    7.1750    0.4160 C   0  0  0  0  0  0  0  0  0  0  0  0
   -4.0500    7.7840   -0.7330 C   0  0  0  0  0  0  0  0  0  0  0  0
   -4.7520    7.4360   -2.0530 C   0  0  1  0  0  0  0  0  0  0  0  0
   -3.6900    7.2300   -3.1650 C   0  0  0  0  0  0  0  0  0  0  0  0
   -2.7470    8.4220   -3.3020 C   0  0  0  0  0  0  0  0  0  0  0  0
   -2.0260    8.7010   -1.9860 C   0  0  2  0  0  0  0  0  0  0  0  0
   -1.1450    7.6090   -1.7030 O   0  0  0  0  0  0  0  0  0  0  0  0
   -2.9940    8.9150   -0.7890 C   0  0  0  0  0  0  0  0  0  0  0  0
   -3.7360   10.2650   -0.9550 C   0  0  0  0  0  0  0  0  0  0  0  0
   -2.1390    9.0450    0.5000 C   0  0  0  0  0  0  0  0  0  0  0  0
   -5.8040    6.2460   -1.9860 C   0  0  1  0  0  0  0  0  0  0  0  0
   -5.0780    4.8820   -2.1930 C   0  0  0  0  0  0  0  0  0  0  0  0
   -6.8220    6.3930   -3.1780 C   0  0  0  0  0  0  0  0  0  0  0  0
   -8.0630    7.2700   -2.9270 C   0  0  0  0  0  0  0  0  0  0  0  0
   -8.7500    6.8850   -1.6140 C   0  0  2  0  0  0  0  0  0  0  0  0
   -9.2470    5.4050   -1.7490 C   0  0  0  0  0  0  0  0  0  0  0  0
  -11.9226    9.5959   -1.9690 H   0  0  0  0  0  0  0  0  0  0  0  0
  -10.8285    9.1042   -3.3061 H   0  0  0  0  0  0  0  0  0  0  0  0
  -12.5433    8.5695   -3.3061 H   0  0  0  0  0  0  0  0  0  0  0  0
  -11.1753    6.7098   -2.6133 H   0  0  0  0  0  0  0  0  0  0  0  0
  -12.4010    6.0214   -0.8335 H   0  0  0  0  0  0  0  0  0  0  0  0
  -12.0841    7.5671    0.0916 H   0  0  0  0  0  0  0  0  0  0  0  0
  -13.9279    7.5223   -2.3000 H   0  0  0  0  0  0  0  0  0  0  0  0
  -14.4948    7.0573   -0.6418 H   0  0  0  0  0  0  0  0  0  0  0  0
  -12.9502    9.0868   -0.3387 H   0  0  0  0  0  0  0  0  0  0  0  0
  -16.0563    9.0989   -2.9427 H   0  0  0  0  0  0  0  0  0  0  0  0
  -15.4241   10.6241   -3.6504 H   0  0  0  0  0  0  0  0  0  0  0  0
  -14.4059    9.1443   -3.6504 H   0  0  0  0  0  0  0  0  0  0  0  0
  -14.2338   11.7748   -0.4817 H   0  0  0  0  0  0  0  0  0  0  0  0
  -13.3127   11.7842   -2.0238 H   0  0  0  0  0  0  0  0  0  0  0  0
  -15.0680   12.1656   -2.0238 H   0  0  0  0  0  0  0  0  0  0  0  0
   -9.7745    8.8088   -1.4468 H   0  0  0  0  0  0  0  0  0  0  0  0
  -10.2272    8.4209    0.8938 H   0  0  0  0  0  0  0  0  0  0  0  0
  -10.8662    6.7929    0.5796 H   0  0  0  0  0  0  0  0  0  0  0  0
   -8.2951    7.3850    1.6756 H   0  0  0  0  0  0  0  0  0  0  0  0
   -8.7540    5.8127    1.0270 H   0  0  0  0  0  0  0  0  0  0  0  0
   -7.2042    8.8673    0.7935 H   0  0  0  0  0  0  0  0  0  0  0  0
   -6.3005    8.7480   -0.7543 H   0  0  0  0  0  0  0  0  0  0  0  0
   -8.0152    9.2834   -0.7543 H   0  0  0  0  0  0  0  0  0  0  0  0
   -7.0091    5.1758   -0.5281 H   0  0  0  0  0  0  0  0  0  0  0  0
   -6.0625    6.4569    1.4960 H   0  0  0  0  0  0  0  0  0  0  0  0
   -5.0508    5.2041    0.6032 H   0  0  0  0  0  0  0  0  0  0  0  0
   -3.8081    7.4162    1.3126 H   0  0  0  0  0  0  0  0  0  0  0  0
   -5.3862    8.3008   -2.2978 H   0  0  0  0  0  0  0  0  0  0  0  0
   -3.0958    6.3363   -2.9238 H   0  0  0  0  0  0  0  0  0  0  0  0
   -4.2243    7.1156   -4.1197 H   0  0  0  0  0  0  0  0  0  0  0  0
   -2.0021    8.2040   -4.0815 H   0  0  0  0  0  0  0  0  0  0  0  0
   -3.3389    9.3087   -3.5730 H   0  0  0  0  0  0  0  0  0  0  0  0
   -1.4680    9.6410   -2.1089 H   0  0  0  0  0  0  0  0  0  0  0  0
   -0.8920    7.6700   -0.7660 H   0  0  0  0  0  0  0  0  0  0  0  0
   -3.9651   10.6819    0.0368 H   0  0  0  0  0  0  0  0  0  0  0  0
   -3.0977   10.9684   -1.5098 H   0  0  0  0  0  0  0  0  0  0  0  0
   -4.6719   10.1032   -1.5098 H   0  0  0  0  0  0  0  0  0  0  0  0
   -2.7885    8.9463    1.3823 H   0  0  0  0  0  0  0  0  0  0  0  0
   -1.3763    8.2525    0.5156 H   0  0  0  0  0  0  0  0  0  0  0  0
   -1.6463   10.0284    0.5156 H   0  0  0  0  0  0  0  0  0  0  0  0
   -4.8425    4.4396   -1.2138 H   0  0  0  0  0  0  0  0  0  0  0  0
   -5.7324    4.2000   -2.7556 H   0  0  0  0  0  0  0  0  0  0  0  0
   -4.1468    5.0440   -2.7556 H   0  0  0  0  0  0  0  0  0  0  0  0
   -6.2765    6.8244   -4.0303 H   0  0  0  0  0  0  0  0  0  0  0  0
   -7.2151    5.3797   -3.3476 H   0  0  0  0  0  0  0  0  0  0  0  0
   -7.7540    8.3245   -2.8757 H   0  0  0  0  0  0  0  0  0  0  0  0
   -8.7735    7.1166   -3.7526 H   0  0  0  0  0  0  0  0  0  0  0  0
   -9.3917    4.9740   -0.7474 H   0  0  0  0  0  0  0  0  0  0  0  0
  -10.2005    5.3870   -2.2972 H   0  0  0  0  0  0  0  0  0  0  0  0
   -8.4976    4.8151   -2.2972 H   0  0  0  0  0  0  0  0  0  0  0  0
  1  2  1  0
  2  3  1  0
  3  4  1  0
  4  5  1  0
  5  6  1  0
  6  7  1  0
  7  8  1  0
  7  9  1  0
  2 10  1  0
 10 11  1  0
 11 12  1  0
 12 13  1  0
 13 14  1  1
 13 15  1  0
 15 16  1  0
 16 17  1  0
 17 18  2  0
 18 19  1  0
 19 20  1  0
 20 21  1  0
 21 22  1  0
 22 23  1  0
 22 24  1  0
 24 25  1  0
 24 26  1  0
 19 27  1  0
 27 28  1  6
 27 29  1  0
 29 30  1  0
 30 31  1  0
 31 32  1  6
  7  5  1  0
 31 10  1  0
 31 13  1  0
 27 15  1  0
 24 18  1  0
  1 33  1  0
  1 34  1  0
  1 35  1  0
  2 36  1  6
  3 37  1  0
  3 38  1  0
  4 39  1  0
  4 40  1  0
  5 41  1  1
  8 42  1  0
  8 43  1  0
  8 44  1  0
  9 45  1  0
  9 46  1  0
  9 47  1  0
 10 48  1  1
 11 49  1  0
 11 50  1  0
 12 51  1  0
 12 52  1  0
 14 53  1  0
 14 54  1  0
 14 55  1  0
 15 56  1  6
 16 57  1  0
 16 58  1  0
 17 59  1  0
 19 60  1  6
 20 61  1  0
 20 62  1  0
 21 63  1  0
 21 64  1  0
 22 65  1  6
 23 66  1  0
 25 67  1  0
 25 68  1  0
 25 69  1  0
 26 70  1  0
 26 71  1  0
 26 72  1  0
 28 73  1  0
 28 74  1  0
 28 75  1  0
 29 76  1  0
 29 77  1  0
 30 78  1  0
 30 79  1  0
 32 80  1  0
 32 81  1  0
 32 82  1  0
M  END
>  <meeko>  (10) 
{"is_sidechain": [false], "intermolecular_energy": 2.731, "internal_energy": -0.839}

$$$$
EPH_relaxed_0001_pdb2pqr_Repair_261_r2_0001_out
     RDKit          3D

 82 86  0  0  0  0  0  0  0  0999 V2000
   -5.1420    8.9030   -0.8420 C   0  0  0  0  0  0  0  0  0  0  0  0
   -5.4930    7.8740   -1.9190 C   0  0  2  0  0  0  0  0  0  0  0  0
   -4.6120    8.0240   -3.1750 C   0  0  0  0  0  0  0  0  0  0  0  0
   -3.6670    6.8430   -3.4090 C   0  0  0  0  0  0  0  0  0  0  0  0
   -3.9160    5.7320   -2.4340 C   0  0  2  0  0  0  0  0  0  0  0  0
   -3.6160    4.4210   -2.9300 O   0  0  0  0  0  0  0  0  0  0  0  0
   -4.9950    4.6810   -2.6200 C   0  0  0  0  0  0  0  0  0  0  0  0
   -5.8950    4.6910   -3.8160 C   0  0  0  0  0  0  0  0  0  0  0  0
   -5.4920    3.9450   -1.4160 C   0  0  0  0  0  0  0  0  0  0  0  0
   -6.9650    7.9990   -2.2980 C   0  0  1  0  0  0  0  0  0  0  0  0
   -7.3000    7.2870   -3.6350 C   0  0  0  0  0  0  0  0  0  0  0  0
   -8.7320    6.7100   -3.4880 C   0  0  0  0  0  0  0  0  0  0  0  0
   -9.2950    7.3850   -2.2160 C   0  0  1  0  0  0  0  0  0  0  0  0
   -9.7750    8.7940   -2.6880 C   0  0  0  0  0  0  0  0  0  0  0  0
  -10.4280    6.6110   -1.4660 C   0  0  2  0  0  0  0  0  0  0  0  0
  -11.7190    6.3990   -2.2760 C   0  0  0  0  0  0  0  0  0  0  0  0
  -12.7450    7.4740   -2.1320 C   0  0  0  0  0  0  0  0  0  0  0  0
  -12.7600    8.4180   -1.1730 C   0  0  0  0  0  0  0  0  0  0  0  0
  -11.7250    8.4060   -0.0400 C   0  0  1  0  0  0  0  0  0  0  0  0
  -12.4410    8.6270    1.3180 C   0  0  0  0  0  0  0  0  0  0  0  0
  -13.3030    9.8860    1.3280 C   0  0  0  0  0  0  0  0  0  0  0  0
  -14.3570    9.8330    0.2250 C   0  0  2  0  0  0  0  0  0  0  0  0
  -15.2870    8.7880    0.5260 O   0  0  0  0  0  0  0  0  0  0  0  0
  -13.7540    9.6050   -1.1890 C   0  0  0  0  0  0  0  0  0  0  0  0
  -12.9890   10.8740   -1.6400 C   0  0  0  0  0  0  0  0  0  0  0  0
  -14.9310    9.4310   -2.1880 C   0  0  0  0  0  0  0  0  0  0  0  0
  -10.7390    7.1610   -0.0150 C   0  0  1  0  0  0  0  0  0  0  0  0
  -11.3870    5.9850    0.7770 C   0  0  0  0  0  0  0  0  0  0  0  0
   -9.4310    7.5560    0.7680 C   0  0  0  0  0  0  0  0  0  0  0  0
   -8.3010    8.2090   -0.0520 C   0  0  0  0  0  0  0  0  0  0  0  0
   -8.0040    7.4000   -1.3180 C   0  0  2  0  0  0  0  0  0  0  0  0
   -7.4980    5.9860   -0.8740 C   0  0  0  0  0  0  0  0  0  0  0  0
   -5.2935    8.4588    0.1528 H   0  0  0  0  0  0  0  0  0  0  0  0
   -4.0900    9.2050   -0.9523 H   0  0  0  0  0  0  0  0  0  0  0  0
   -5.7901    9.7849   -0.9523 H   0  0  0  0  0  0  0  0  0  0  0  0
   -5.3005    6.8762   -1.4978 H   0  0  0  0  0  0  0  0  0  0  0  0
   -5.2701    8.1209   -4.0511 H   0  0  0  0  0  0  0  0  0  0  0  0
   -3.9829    8.9133   -3.0218 H   0  0  0  0  0  0  0  0  0  0  0  0
   -3.8185    6.4621   -4.4298 H   0  0  0  0  0  0  0  0  0  0  0  0
   -2.6349    7.1968   -3.2694 H   0  0  0  0  0  0  0  0  0  0  0  0
   -3.6622    6.3870   -1.5875 H   0  0  0  0  0  0  0  0  0  0  0  0
   -6.9441    4.7027   -3.4854 H   0  0  0  0  0  0  0  0  0  0  0  0
   -5.6912    5.5869   -4.4208 H   0  0  0  0  0  0  0  0  0  0  0  0
   -5.7111    3.7908   -4.4208 H   0  0  0  0  0  0  0  0  0  0  0  0
   -5.1467    4.4563   -0.5053 H   0  0  0  0  0  0  0  0  0  0  0  0
   -6.5917    3.9214   -1.4287 H   0  0  0  0  0  0  0  0  0  0  0  0
   -5.1030    2.9162   -1.4287 H   0  0  0  0  0  0  0  0  0  0  0  0
   -7.0576    9.0949   -2.3210 H   0  0  0  0  0  0  0  0  0  0  0  0
   -7.2650    8.0064   -4.4664 H   0  0  0  0  0  0  0  0  0  0  0  0
   -6.5733    6.4900   -3.8510 H   0  0  0  0  0  0  0  0  0  0  0  0
   -9.3448    6.9631   -4.3657 H   0  0  0  0  0  0  0  0  0  0  0  0
   -8.7343    5.6125   -3.4140 H   0  0  0  0  0  0  0  0  0  0  0  0
   -9.9888    9.4216   -1.8102 H   0  0  0  0  0  0  0  0  0  0  0  0
   -8.9870    9.2661   -3.2931 H   0  0  0  0  0  0  0  0  0  0  0  0
  -10.6873    8.6869   -3.2931 H   0  0  0  0  0  0  0  0  0  0  0  0
   -9.9869    5.6113   -1.3395 H   0  0  0  0  0  0  0  0  0  0  0  0
  -11.4458    6.3299   -3.3393 H   0  0  0  0  0  0  0  0  0  0  0  0
  -12.1803    5.4824   -1.8796 H   0  0  0  0  0  0  0  0  0  0  0  0
  -13.5578    7.4963   -2.8728 H   0  0  0  0  0  0  0  0  0  0  0  0
  -11.0428    9.2448   -0.2426 H   0  0  0  0  0  0  0  0  0  0  0  0
  -13.0837    7.7582    1.5230 H   0  0  0  0  0  0  0  0  0  0  0  0
  -11.6651    8.7480    2.0883 H   0  0  0  0  0  0  0  0  0  0  0  0
  -13.8057    9.9706    2.3028 H   0  0  0  0  0  0  0  0  0  0  0  0
  -12.6547   10.7573    1.1532 H   0  0  0  0  0  0  0  0  0  0  0  0
  -14.8557   10.8131    0.1982 H   0  0  0  0  0  0  0  0  0  0  0  0
  -14.7790    7.9700    0.6550 H   0  0  0  0  0  0  0  0  0  0  0  0
  -12.6520   11.4330   -0.7546 H   0  0  0  0  0  0  0  0  0  0  0  0
  -12.1167   10.5814   -2.2428 H   0  0  0  0  0  0  0  0  0  0  0  0
  -13.6550   11.5088   -2.2428 H   0  0  0  0  0  0  0  0  0  0  0  0
  -15.8685    9.2924   -1.6295 H   0  0  0  0  0  0  0  0  0  0  0  0
  -15.0103   10.3272   -2.8209 H   0  0  0  0  0  0  0  0  0  0  0  0
  -14.7476    8.5502   -2.8209 H   0  0  0  0  0  0  0  0  0  0  0  0
  -11.2851    6.1699    1.8566 H   0  0  0  0  0  0  0  0  0  0  0  0
  -12.4532    5.9111    0.5167 H   0  0  0  0  0  0  0  0  0  0  0  0
  -10.8799    5.0442    0.5167 H   0  0  0  0  0  0  0  0  0  0  0  0
   -9.7181    8.2626    1.5606 H   0  0  0  0  0  0  0  0  0  0  0  0
   -9.0126    6.6046    1.1282 H   0  0  0  0  0  0  0  0  0  0  0  0
   -8.6060    9.2263   -0.3384 H   0  0  0  0  0  0  0  0  0  0  0  0
   -7.3916    8.2391    0.5662 H   0  0  0  0  0  0  0  0  0  0  0  0
   -7.4786    5.9318    0.2245 H   0  0  0  0  0  0  0  0  0  0  0  0
   -8.1756    5.2139   -1.2673 H   0  0  0  0  0  0  0  0  0  0  0  0
   -6.4844    5.8191   -1.2673 H   0  0  0  0  0  0  0  0  0  0  0  0
  1  2  1  0
  2  3  1  0
  3  4  1  0
  4  5  1  0
  5  6  1  0
  6  7  1  0
  7  8  1  0
  7  9  1  0
  2 10  1  0
 10 11  1  0
 11 12  1  0
 12 13  1  0
 13 14  1  6
 13 15  1  0
 15 16  1  0
 16 17  1  0
 17 18  2  0
 18 19  1  0
 19 20  1  0
 20 21  1  0
 21 22  1  0
 22 23  1  0
 22 24  1  0
 24 25  1  0
 24 26  1  0
 19 27  1  0
 27 28  1  1
 27 29  1  0
 29 30  1  0
 30 31  1  0
 31 32  1  1
  7  5  1  0
 31 10  1  0
 31 13  1  0
 27 15  1  0
 24 18  1  0
  1 33  1  0
  1 34  1  0
  1 35  1  0
  2 36  1  1
  3 37  1  0
  3 38  1  0
  4 39  1  0
  4 40  1  0
  5 41  1  1
  8 42  1  0
  8 43  1  0
  8 44  1  0
  9 45  1  0
  9 46  1  0
  9 47  1  0
 10 48  1  6
 11 49  1  0
 11 50  1  0
 12 51  1  0
 12 52  1  0
 14 53  1  0
 14 54  1  0
 14 55  1  0
 15 56  1  1
 16 57  1  0
 16 58  1  0
 17 59  1  0
 19 60  1  6
 20 61  1  0
 20 62  1  0
 21 63  1  0
 21 64  1  0
 22 65  1  6
 23 66  1  0
 25 67  1  0
 25 68  1  0
 25 69  1  0
 26 70  1  0
 26 71  1  0
 26 72  1  0
 28 73  1  0
 28 74  1  0
 28 75  1  0
 29 76  1  0
 29 77  1  0
 30 78  1  0
 30 79  1  0
 32 80  1  0
 32 81  1  0
 32 82  1  0
M  END
>  <meeko>  (11) 
{"is_sidechain": [false], "intermolecular_energy": 2.731, "internal_energy": -0.839}

$$$$
EPH_relaxed_0001_pdb2pqr_Repair_261_r2_0001_out
     RDKit          3D

 82 86  0  0  0  0  0  0  0  0999 V2000
    3.9040   20.1930    2.3510 C   0  0  0  0  0  0  0  0  0  0  0  0
    2.4080   19.8800    2.4480 C   0  0  2  0  0  0  0  0  0  0  0  0
    1.9840   19.5080    3.8830 C   0  0  0  0  0  0  0  0  0  0  0  0
    2.8190   20.1930    4.9680 C   0  0  0  0  0  0  0  0  0  0  0  0
    4.2050   19.6270    5.0420 C   0  0  2  0  0  0  0  0  0  0  0  0
    4.3090   18.3890    5.7580 O   0  0  0  0  0  0  0  0  0  0  0  0
    4.9950   19.5130    6.3320 C   0  0  0  0  0  0  0  0  0  0  0  0
    4.4250   19.9710    7.6380 C   0  0  0  0  0  0  0  0  0  0  0  0
    6.4860   19.4150    6.2510 C   0  0  0  0  0  0  0  0  0  0  0  0
    2.0510   18.7500    1.4890 C   0  0  1  0  0  0  0  0  0  0  0  0
    0.5810   18.8270    0.9950 C   0  0  0  0  0  0  0  0  0  0  0  0
    0.5750   18.3220   -0.4700 C   0  0  0  0  0  0  0  0  0  0  0  0
    1.9620   17.6640   -0.6620 C   0  0  1  0  0  0  0  0  0  0  0  0
    1.8200   16.2400   -0.0380 C   0  0  0  0  0  0  0  0  0  0  0  0
    2.4990   17.6000   -2.1290 C   0  0  2  0  0  0  0  0  0  0  0  0
    1.6470   16.7650   -3.1000 C   0  0  0  0  0  0  0  0  0  0  0  0
    2.0220   15.3230   -3.1990 C   0  0  0  0  0  0  0  0  0  0  0  0
    3.1720   14.7820   -2.7570 C   0  0  0  0  0  0  0  0  0  0  0  0
    4.2840   15.6630   -2.1720 C   0  0  1  0  0  0  0  0  0  0  0  0
    5.6480   15.2490   -2.7850 C   0  0  0  0  0  0  0  0  0  0  0  0
    5.9360   13.7600   -2.6200 C   0  0  0  0  0  0  0  0  0  0  0  0
    4.8380   12.9180   -3.2650 C   0  0  2  0  0  0  0  0  0  0  0  0
    4.8800   13.1120   -4.6820 O   0  0  0  0  0  0  0  0  0  0  0  0
    3.4170   13.2530   -2.7330 C   0  0  0  0  0  0  0  0  0  0  0  0
    3.2790   12.7620   -1.2700 C   0  0  0  0  0  0  0  0  0  0  0  0
    2.3910   12.4350   -3.5630 C   0  0  0  0  0  0  0  0  0  0  0  0
    4.0340   17.2310   -2.2410 C   0  0  1  0  0  0  0  0  0  0  0  0
    4.5270   17.7890   -3.6110 C   0  0  0  0  0  0  0  0  0  0  0  0
    4.9020   17.9380   -1.1350 C   0  0  0  0  0  0  0  0  0  0  0  0
    4.2690   18.0770    0.2630 C   0  0  0  0  0  0  0  0  0  0  0  0
    2.8540   18.6570    0.1680 C   0  0  2  0  0  0  0  0  0  0  0  0
    2.9670   20.0980   -0.4360 C   0  0  0  0  0  0  0  0  0  0  0  0
    4.3265   20.2814    3.3628 H   0  0  0  0  0  0  0  0  0  0  0  0
    4.4140   19.3821    1.8103 H   0  0  0  0  0  0  0  0  0  0  0  0
    4.0461   21.1403    1.8103 H   0  0  0  0  0  0  0  0  0  0  0  0
    1.8599   20.7919    2.1687 H   0  0  0  0  0  0  0  0  0  0  0  0
    0.9316   19.7971    4.0202 H   0  0  0  0  0  0  0  0  0  0  0  0
    2.1392   18.4246    3.9936 H   0  0  0  0  0  0  0  0  0  0  0  0
    2.8845   21.2675    4.7420 H   0  0  0  0  0  0  0  0  0  0  0  0
    2.3273   20.0229    5.9372 H   0  0  0  0  0  0  0  0  0  0  0  0
    4.4556   20.0512    4.0585 H   0  0  0  0  0  0  0  0  0  0  0  0
    4.9908   19.5164    8.4646 H   0  0  0  0  0  0  0  0  0  0  0  0
    4.4952   21.0667    7.7046 H   0  0  0  0  0  0  0  0  0  0  0  0
    3.3701   19.6665    7.7046 H   0  0  0  0  0  0  0  0  0  0  0  0
    6.9074   19.3873    7.2667 H   0  0  0  0  0  0  0  0  0  0  0  0
    6.7644   18.4966    5.7134 H   0  0  0  0  0  0  0  0  0  0  0  0
    6.8822   20.2890    5.7134 H   0  0  0  0  0  0  0  0  0  0  0  0
    2.2805   17.8859    2.1299 H   0  0  0  0  0  0  0  0  0  0  0  0
   -0.0621   18.1885    1.6185 H   0  0  0  0  0  0  0  0  0  0  0  0
    0.1957   19.8553    1.0600 H   0  0  0  0  0  0  0  0  0  0  0  0
   -0.2283   17.5865   -0.6239 H   0  0  0  0  0  0  0  0  0  0  0  0
    0.3952   19.1338   -1.1902 H   0  0  0  0  0  0  0  0  0  0  0  0
    1.8278   16.3180    1.0592 H   0  0  0  0  0  0  0  0  0  0  0  0
    0.8724   15.7884   -0.3668 H   0  0  0  0  0  0  0  0  0  0  0  0
    2.6598   15.6102   -0.3668 H   0  0  0  0  0  0  0  0  0  0  0  0
    2.3962   18.6427   -2.4641 H   0  0  0  0  0  0  0  0  0  0  0  0
    0.5997   16.8219   -2.7685 H   0  0  0  0  0  0  0  0  0  0  0  0
    1.8166   17.1929   -4.0991 H   0  0  0  0  0  0  0  0  0  0  0  0
    1.2967   14.6456   -3.6735 H   0  0  0  0  0  0  0  0  0  0  0  0
    4.2878   15.4705   -1.0890 H   0  0  0  0  0  0  0  0  0  0  0  0
    5.6398   15.4897   -3.8583 H   0  0  0  0  0  0  0  0  0  0  0  0
    6.4352   15.8023   -2.2519 H   0  0  0  0  0  0  0  0  0  0  0  0
    6.8983   13.5242   -3.0979 H   0  0  0  0  0  0  0  0  0  0  0  0
    5.9730   13.5261   -1.5458 H   0  0  0  0  0  0  0  0  0  0  0  0
    5.0311   11.8674   -3.0026 H   0  0  0  0  0  0  0  0  0  0  0  0
    5.3720   12.3670   -5.0660 H   0  0  0  0  0  0  0  0  0  0  0  0
    3.5113   13.5886   -0.5824 H   0  0  0  0  0  0  0  0  0  0  0  0
    2.2492   12.4174   -1.0945 H   0  0  0  0  0  0  0  0  0  0  0  0
    3.9785   11.9314   -1.0945 H   0  0  0  0  0  0  0  0  0  0  0  0
    1.7152   11.8962   -2.8825 H   0  0  0  0  0  0  0  0  0  0  0  0
    1.8056   13.1169   -4.1972 H   0  0  0  0  0  0  0  0  0  0  0  0
    2.9253   11.7124   -4.1972 H   0  0  0  0  0  0  0  0  0  0  0  0
    5.2462   18.6031   -3.4379 H   0  0  0  0  0  0  0  0  0  0  0  0
    5.0143   16.9841   -4.1808 H   0  0  0  0  0  0  0  0  0  0  0  0
    3.6682   18.1735   -4.1808 H   0  0  0  0  0  0  0  0  0  0  0  0
    5.8321   17.3614   -1.0231 H   0  0  0  0  0  0  0  0  0  0  0  0
    5.0385   18.9693   -1.4925 H   0  0  0  0  0  0  0  0  0  0  0  0
    4.2206   17.0853    0.7365 H   0  0  0  0  0  0  0  0  0  0  0  0
    4.8888   18.7597    0.8628 H   0  0  0  0  0  0  0  0  0  0  0  0
    3.0247   20.8339    0.3795 H   0  0  0  0  0  0  0  0  0  0  0  0
    3.8732   20.1657   -1.0558 H   0  0  0  0  0  0  0  0  0  0  0  0
    2.0824   20.3062   -1.0558 H   0  0  0  0  0  0  0  0  0  0  0  0
  1  2  1  0
  2  3  1  0
  3  4  1  0
  4  5  1  0
  5  6  1  0
  6  7  1  0
  7  8  1  0
  7  9  1  0
  2 10  1  0
 10 11  1  0
 11 12  1  0
 12 13  1  0
 13 14  1  1
 13 15  1  0
 15 16  1  0
 16 17  1  0
 17 18  2  0
 18 19  1  0
 19 20  1  0
 20 21  1  0
 21 22  1  0
 22 23  1  0
 22 24  1  0
 24 25  1  0
 24 26  1  0
 19 27  1  0
 27 28  1  6
 27 29  1  0
 29 30  1  0
 30 31  1  0
 31 32  1  6
  7  5  1  0
 31 10  1  0
 31 13  1  0
 27 15  1  0
 24 18  1  0
  1 33  1  0
  1 34  1  0
  1 35  1  0
  2 36  1  6
  3 37  1  0
  3 38  1  0
  4 39  1  0
  4 40  1  0
  5 41  1  6
  8 42  1  0
  8 43  1  0
  8 44  1  0
  9 45  1  0
  9 46  1  0
  9 47  1  0
 10 48  1  1
 11 49  1  0
 11 50  1  0
 12 51  1  0
 12 52  1  0
 14 53  1  0
 14 54  1  0
 14 55  1  0
 15 56  1  6
 16 57  1  0
 16 58  1  0
 17 59  1  0
 19 60  1  1
 20 61  1  0
 20 62  1  0
 21 63  1  0
 21 64  1  0
 22 65  1  6
 23 66  1  0
 25 67  1  0
 25 68  1  0
 25 69  1  0
 26 70  1  0
 26 71  1  0
 26 72  1  0
 28 73  1  0
 28 74  1  0
 28 75  1  0
 29 76  1  0
 29 77  1  0
 30 78  1  0
 30 79  1  0
 32 80  1  0
 32 81  1  0
 32 82  1  0
M  END
>  <meeko>  (12) 
{"is_sidechain": [false], "intermolecular_energy": 2.731, "internal_energy": -0.839}

$$$$
EPH_relaxed_0001_pdb2pqr_Repair_261_r2_0001_out
     RDKit          3D

 82 86  0  0  0  0  0  0  0  0999 V2000
    2.9690   10.2180   -2.7550 C   0  0  0  0  0  0  0  0  0  0  0  0
    2.0430   10.0610   -1.5450 C   0  0  2  0  0  0  0  0  0  0  0  0
    0.6640    9.4960   -1.9390 C   0  0  0  0  0  0  0  0  0  0  0  0
    0.0840    8.5180   -0.9140 C   0  0  0  0  0  0  0  0  0  0  0  0
   -1.3660    8.2390   -1.1730 C   0  0  2  0  0  0  0  0  0  0  0  0
   -2.0690    9.2950   -1.8420 O   0  0  0  0  0  0  0  0  0  0  0  0
   -2.4960    8.9980   -0.5030 C   0  0  0  0  0  0  0  0  0  0  0  0
   -2.2260   10.0940    0.4800 C   0  0  0  0  0  0  0  0  0  0  0  0
   -3.8460    8.3540   -0.4290 C   0  0  0  0  0  0  0  0  0  0  0  0
    1.8750   11.4020   -0.8420 C   0  0  1  0  0  0  0  0  0  0  0  0
    2.1840   11.3230    0.6770 C   0  0  0  0  0  0  0  0  0  0  0  0
    2.8370   12.6720    1.0720 C   0  0  0  0  0  0  0  0  0  0  0  0
    2.5830   13.5980   -0.1400 C   0  0  1  0  0  0  0  0  0  0  0  0
    1.1200   14.1090    0.0450 C   0  0  0  0  0  0  0  0  0  0  0  0
    3.5870   14.7820   -0.3280 C   0  0  2  0  0  0  0  0  0  0  0  0
    3.6100   15.8070    0.8180 C   0  0  0  0  0  0  0  0  0  0  0  0
    2.6660   16.9540    0.6660 C   0  0  0  0  0  0  0  0  0  0  0  0
    2.0410   17.3070   -0.4730 C   0  0  0  0  0  0  0  0  0  0  0  0
    2.3360   16.5800   -1.7910 C   0  0  1  0  0  0  0  0  0  0  0  0
    2.5480   17.6220   -2.9210 C   0  0  0  0  0  0  0  0  0  0  0  0
    1.3830   18.6000   -3.0410 C   0  0  0  0  0  0  0  0  0  0  0  0
    1.1580   19.3450   -1.7280 C   0  0  2  0  0  0  0  0  0  0  0  0
    2.2830   20.1940   -1.4820 O   0  0  0  0  0  0  0  0  0  0  0  0
    0.9420   18.3970   -0.5150 C   0  0  0  0  0  0  0  0  0  0  0  0
   -0.4330   17.6960   -0.6400 C   0  0  0  0  0  0  0  0  0  0  0  0
    0.8690   19.2710    0.7660 C   0  0  0  0  0  0  0  0  0  0  0  0
    3.4940   15.4930   -1.7390 C   0  0  1  0  0  0  0  0  0  0  0  0
    4.8750   16.1730   -1.9870 C   0  0  0  0  0  0  0  0  0  0  0  0
    3.2880   14.4660   -2.9140 C   0  0  0  0  0  0  0  0  0  0  0  0
    2.3790   13.2550   -2.6280 C   0  0  0  0  0  0  0  0  0  0  0  0
    2.7740   12.5720   -1.3150 C   0  0  2  0  0  0  0  0  0  0  0  0
    4.2350   12.0280   -1.4790 C   0  0  0  0  0  0  0  0  0  0  0  0
    3.9984   10.3925   -2.4087 H   0  0  0  0  0  0  0  0  0  0  0  0
    2.9369    9.3016   -3.3626 H   0  0  0  0  0  0  0  0  0  0  0  0
    2.6367   11.0726   -3.3626 H   0  0  0  0  0  0  0  0  0  0  0  0
    2.5121    9.3389   -0.8606 H   0  0  0  0  0  0  0  0  0  0  0  0
   -0.0364   10.3367   -2.0519 H   0  0  0  0  0  0  0  0  0  0  0  0
    0.8018    8.9359   -2.8756 H   0  0  0  0  0  0  0  0  0  0  0  0
    0.6439    7.5726   -0.9667 H   0  0  0  0  0  0  0  0  0  0  0  0
    0.1729    8.9736    0.0833 H   0  0  0  0  0  0  0  0  0  0  0  0
   -1.1636    7.1636   -1.2848 H   0  0  0  0  0  0  0  0  0  0  0  0
   -2.3228    9.7012    1.5029 H   0  0  0  0  0  0  0  0  0  0  0  0
   -1.2063   10.4783    0.3298 H   0  0  0  0  0  0  0  0  0  0  0  0
   -2.9505   10.9080    0.3298 H   0  0  0  0  0  0  0  0  0  0  0  0
   -4.1303    8.2184    0.6249 H   0  0  0  0  0  0  0  0  0  0  0  0
   -4.5864    8.9959   -0.9288 H   0  0  0  0  0  0  0  0  0  0  0  0
   -3.8130    7.3747   -0.9288 H   0  0  0  0  0  0  0  0  0  0  0  0
    0.8242   11.6100   -1.0923 H   0  0  0  0  0  0  0  0  0  0  0  0
    1.2543   11.1716    1.2452 H   0  0  0  0  0  0  0  0  0  0  0  0
    2.8543   10.4798    0.9001 H   0  0  0  0  0  0  0  0  0  0  0  0
    2.3662   13.0807    1.9783 H   0  0  0  0  0  0  0  0  0  0  0  0
    3.9081   12.5663    1.2990 H   0  0  0  0  0  0  0  0  0  0  0  0
    0.8923   14.1885    1.1182 H   0  0  0  0  0  0  0  0  0  0  0  0
    1.0144   15.0972   -0.4264 H   0  0  0  0  0  0  0  0  0  0  0  0
    0.4221   13.4014   -0.4264 H   0  0  0  0  0  0  0  0  0  0  0  0
    4.5612   14.2726   -0.2911 H   0  0  0  0  0  0  0  0  0  0  0  0
    3.3579   15.2804    1.7503 H   0  0  0  0  0  0  0  0  0  0  0  0
    4.6204   16.2419    0.8175 H   0  0  0  0  0  0  0  0  0  0  0  0
    2.4642   17.5619    1.5603 H   0  0  0  0  0  0  0  0  0  0  0  0
    1.4465   15.9701   -2.0074 H   0  0  0  0  0  0  0  0  0  0  0  0
    3.4654   18.1907   -2.7087 H   0  0  0  0  0  0  0  0  0  0  0  0
    2.6227   17.0733   -3.8715 H   0  0  0  0  0  0  0  0  0  0  0  0
    1.6050   19.3285   -3.8347 H   0  0  0  0  0  0  0  0  0  0  0  0
    0.4722   18.0327   -3.2830 H   0  0  0  0  0  0  0  0  0  0  0  0
    0.2337   19.9317   -1.8350 H   0  0  0  0  0  0  0  0  0  0  0  0
    2.9670   19.9730   -2.1350 H   0  0  0  0  0  0  0  0  0  0  0  0
   -0.8332   17.4920    0.3641 H   0  0  0  0  0  0  0  0  0  0  0  0
   -1.1292   18.3492   -1.1865 H   0  0  0  0  0  0  0  0  0  0  0  0
   -0.3134   16.7489   -1.1865 H   0  0  0  0  0  0  0  0  0  0  0  0
    0.9230   18.6246    1.6544 H   0  0  0  0  0  0  0  0  0  0  0  0
    1.7112   19.9786    0.7756 H   0  0  0  0  0  0  0  0  0  0  0  0
   -0.0789   19.8291    0.7756 H   0  0  0  0  0  0  0  0  0  0  0  0
    5.3477   16.4058   -1.0214 H   0  0  0  0  0  0  0  0  0  0  0  0
    5.5225   15.4907   -2.5573 H   0  0  0  0  0  0  0  0  0  0  0  0
    4.7290   17.1022   -2.5573 H   0  0  0  0  0  0  0  0  0  0  0  0
    2.8540   15.0145   -3.7630 H   0  0  0  0  0  0  0  0  0  0  0  0
    4.2846   14.0396   -3.1011 H   0  0  0  0  0  0  0  0  0  0  0  0
    1.3359   13.5968   -2.5564 H   0  0  0  0  0  0  0  0  0  0  0  0
    2.4909   12.5305   -3.4481 H   0  0  0  0  0  0  0  0  0  0  0  0
    4.6784   11.8629   -0.4860 H   0  0  0  0  0  0  0  0  0  0  0  0
    4.2125   11.0780   -2.0331 H   0  0  0  0  0  0  0  0  0  0  0  0
    4.8393   12.7614   -2.0331 H   0  0  0  0  0  0  0  0  0  0  0  0
  1  2  1  0
  2  3  1  0
  3  4  1  0
  4  5  1  0
  5  6  1  0
  6  7  1  0
  7  8  1  0
  7  9  1  0
  2 10  1  0
 10 11  1  0
 11 12  1  0
 12 13  1  0
 13 14  1  1
 13 15  1  0
 15 16  1  0
 16 17  1  0
 17 18  2  0
 18 19  1  0
 19 20  1  0
 20 21  1  0
 21 22  1  0
 22 23  1  0
 22 24  1  0
 24 25  1  0
 24 26  1  0
 19 27  1  0
 27 28  1  6
 27 29  1  0
 29 30  1  0
 30 31  1  0
 31 32  1  6
  7  5  1  0
 31 10  1  0
 31 13  1  0
 27 15  1  0
 24 18  1  0
  1 33  1  0
  1 34  1  0
  1 35  1  0
  2 36  1  1
  3 37  1  0
  3 38  1  0
  4 39  1  0
  4 40  1  0
  5 41  1  6
  8 42  1  0
  8 43  1  0
  8 44  1  0
  9 45  1  0
  9 46  1  0
  9 47  1  0
 10 48  1  1
 11 49  1  0
 11 50  1  0
 12 51  1  0
 12 52  1  0
 14 53  1  0
 14 54  1  0
 14 55  1  0
 15 56  1  6
 16 57  1  0
 16 58  1  0
 17 59  1  0
 19 60  1  6
 20 61  1  0
 20 62  1  0
 21 63  1  0
 21 64  1  0
 22 65  1  6
 23 66  1  0
 25 67  1  0
 25 68  1  0
 25 69  1  0
 26 70  1  0
 26 71  1  0
 26 72  1  0
 28 73  1  0
 28 74  1  0
 28 75  1  0
 29 76  1  0
 29 77  1  0
 30 78  1  0
 30 79  1  0
 32 80  1  0
 32 81  1  0
 32 82  1  0
M  END
>  <meeko>  (13) 
{"is_sidechain": [false], "intermolecular_energy": 2.731, "internal_energy": -0.839}

$$$$
EPH_relaxed_0001_pdb2pqr_Repair_261_r2_0001_out
     RDKit          3D

 82 86  0  0  0  0  0  0  0  0999 V2000
   -2.2670    8.0230   -2.2540 C   0  0  0  0  0  0  0  0  0  0  0  0
   -2.5460    8.3660   -0.7880 C   0  0  2  0  0  0  0  0  0  0  0  0
   -4.0520    8.5380   -0.5090 C   0  0  0  0  0  0  0  0  0  0  0  0
   -4.8550    7.2410   -0.6410 C   0  0  0  0  0  0  0  0  0  0  0  0
   -5.7320    7.2540   -1.8570 C   0  0  2  0  0  0  0  0  0  0  0  0
   -6.5850    8.4000   -1.9690 O   0  0  0  0  0  0  0  0  0  0  0  0
   -7.2430    7.1350   -1.8000 C   0  0  0  0  0  0  0  0  0  0  0  0
   -7.9660    6.9940   -0.4970 C   0  0  0  0  0  0  0  0  0  0  0  0
   -7.9710    6.6660   -3.0210 C   0  0  0  0  0  0  0  0  0  0  0  0
   -1.7960    9.6350   -0.4000 C   0  0  1  0  0  0  0  0  0  0  0  0
   -2.0610   10.0590    1.0690 C   0  0  0  0  0  0  0  0  0  0  0  0
   -0.7410   10.6750    1.6020 C   0  0  0  0  0  0  0  0  0  0  0  0
    0.1270   10.8890    0.3400 C   0  0  1  0  0  0  0  0  0  0  0  0
   -0.3920   12.2230   -0.2830 C   0  0  0  0  0  0  0  0  0  0  0  0
    1.6740   10.9190    0.5620 C   0  0  2  0  0  0  0  0  0  0  0  0
    2.1820   12.0620    1.4580 C   0  0  0  0  0  0  0  0  0  0  0  0
    2.5430   13.3210    0.7420 C   0  0  0  0  0  0  0  0  0  0  0  0
    2.7350   13.4390   -0.5850 C   0  0  0  0  0  0  0  0  0  0  0  0
    2.6870   12.2080   -1.5000 C   0  0  1  0  0  0  0  0  0  0  0  0
    3.8970   12.2360   -2.4700 C   0  0  0  0  0  0  0  0  0  0  0  0
    3.9900   13.5420   -3.2530 C   0  0  0  0  0  0  0  0  0  0  0  0
    4.0950   14.7380   -2.3090 C   0  0  2  0  0  0  0  0  0  0  0  0
    5.3460   14.6720   -1.6190 O   0  0  0  0  0  0  0  0  0  0  0  0
    2.9330   14.8090   -1.2790 C   0  0  0  0  0  0  0  0  0  0  0  0
    1.6160   15.1810   -2.0040 C   0  0  0  0  0  0  0  0  0  0  0  0
    3.2340   15.9760   -0.3000 C   0  0  0  0  0  0  0  0  0  0  0  0
    2.5230   10.8070   -0.7690 C   0  0  1  0  0  0  0  0  0  0  0  0
    3.9220   10.2530   -0.3600 C   0  0  0  0  0  0  0  0  0  0  0  0
    1.9120    9.7670   -1.7820 C   0  0  0  0  0  0  0  0  0  0  0  0
    0.3760    9.7010   -1.8690 C   0  0  0  0  0  0  0  0  0  0  0  0
   -0.2490    9.5970   -0.4740 C   0  0  2  0  0  0  0  0  0  0  0  0
    0.2380    8.2530    0.1680 C   0  0  0  0  0  0  0  0  0  0  0  0
   -1.5736    7.1706   -2.3056 H   0  0  0  0  0  0  0  0  0  0  0  0
   -3.2102    7.7593   -2.7548 H   0  0  0  0  0  0  0  0  0  0  0  0
   -1.8167    8.8927   -2.7548 H   0  0  0  0  0  0  0  0  0  0  0  0
   -2.1914    7.5228   -0.1770 H   0  0  0  0  0  0  0  0  0  0  0  0
   -4.1740    8.9191    0.5156 H   0  0  0  0  0  0  0  0  0  0  0  0
   -4.4413    9.2352   -1.2655 H   0  0  0  0  0  0  0  0  0  0  0  0
   -4.1561    6.3947   -0.7144 H   0  0  0  0  0  0  0  0  0  0  0  0
   -5.4989    7.1442    0.2456 H   0  0  0  0  0  0  0  0  0  0  0  0
   -4.9706    6.7149   -2.4398 H   0  0  0  0  0  0  0  0  0  0  0  0
   -7.2570    7.1323    0.3326 H   0  0  0  0  0  0  0  0  0  0  0  0
   -8.7581    7.7546   -0.4330 H   0  0  0  0  0  0  0  0  0  0  0  0
   -8.4143    5.9915   -0.4330 H   0  0  0  0  0  0  0  0  0  0  0  0
   -8.8604    6.0930   -2.7201 H   0  0  0  0  0  0  0  0  0  0  0  0
   -8.2802    7.5352   -3.6201 H   0  0  0  0  0  0  0  0  0  0  0  0
   -7.3073    6.0252   -3.6201 H   0  0  0  0  0  0  0  0  0  0  0  0
   -2.1922   10.3240   -1.1604 H   0  0  0  0  0  0  0  0  0  0  0  0
   -2.8696   10.8038    1.1083 H   0  0  0  0  0  0  0  0  0  0  0  0
   -2.3694    9.1974    1.6793 H   0  0  0  0  0  0  0  0  0  0  0  0
   -0.9354   11.6329    2.1066 H   0  0  0  0  0  0  0  0  0  0  0  0
   -0.2480   10.0282    2.3427 H   0  0  0  0  0  0  0  0  0  0  0  0
   -0.6640   12.9220    0.5216 H   0  0  0  0  0  0  0  0  0  0  0  0
    0.3982   12.6691   -0.9048 H   0  0  0  0  0  0  0  0  0  0  0  0
   -1.2759   12.0178   -0.9048 H   0  0  0  0  0  0  0  0  0  0  0  0
    1.8485    9.9933    1.1300 H   0  0  0  0  0  0  0  0  0  0  0  0
    1.3926   12.2995    2.1863 H   0  0  0  0  0  0  0  0  0  0  0  0
    3.1115   11.6970    1.9193 H   0  0  0  0  0  0  0  0  0  0  0  0
    2.6623   14.2296    1.3505 H   0  0  0  0  0  0  0  0  0  0  0  0
    1.7499   12.2895   -2.0703 H   0  0  0  0  0  0  0  0  0  0  0  0
    4.8202   12.1089   -1.8856 H   0  0  0  0  0  0  0  0  0  0  0  0
    3.7614   11.4208   -3.1960 H   0  0  0  0  0  0  0  0  0  0  0  0
    4.8810   13.5127   -3.8974 H   0  0  0  0  0  0  0  0  0  0  0  0
    3.0796   13.6529   -3.8603 H   0  0  0  0  0  0  0  0  0  0  0  0
    4.0271   15.6490   -2.9217 H   0  0  0  0  0  0  0  0  0  0  0  0
    5.1650   14.7800   -0.6700 H   0  0  0  0  0  0  0  0  0  0  0  0
    0.8370   15.4010   -1.2592 H   0  0  0  0  0  0  0  0  0  0  0  0
    1.7819   16.0674   -2.6339 H   0  0  0  0  0  0  0  0  0  0  0  0
    1.2937   14.3388   -2.6339 H   0  0  0  0  0  0  0  0  0  0  0  0
    3.1418   15.6184    0.7362 H   0  0  0  0  0  0  0  0  0  0  0  0
    4.2564   16.3439   -0.4713 H   0  0  0  0  0  0  0  0  0  0  0  0
    2.5171   16.7925   -0.4713 H   0  0  0  0  0  0  0  0  0  0  0  0
    3.9981   10.2229    0.7370 H   0  0  0  0  0  0  0  0  0  0  0  0
    4.0468    9.2376   -0.7642 H   0  0  0  0  0  0  0  0  0  0  0  0
    4.7081   10.9077   -0.7642 H   0  0  0  0  0  0  0  0  0  0  0  0
    2.2914   10.0163   -2.7839 H   0  0  0  0  0  0  0  0  0  0  0  0
    2.2210    8.7815   -1.4034 H   0  0  0  0  0  0  0  0  0  0  0  0
    0.0042   10.6109   -2.3628 H   0  0  0  0  0  0  0  0  0  0  0  0
    0.0957    8.8074   -2.4461 H   0  0  0  0  0  0  0  0  0  0  0  0
    0.2072    8.3380    1.2643 H   0  0  0  0  0  0  0  0  0  0  0  0
   -0.4201    7.4328   -0.1548 H   0  0  0  0  0  0  0  0  0  0  0  0
    1.2687    8.0448   -0.1548 H   0  0  0  0  0  0  0  0  0  0  0  0
  1  2  1  0
  2  3  1  0
  3  4  1  0
  4  5  1  0
  5  6  1  0
  6  7  1  0
  7  8  1  0
  7  9  1  0
  2 10  1  0
 10 11  1  0
 11 12  1  0
 12 13  1  0
 13 14  1  6
 13 15  1  0
 15 16  1  0
 16 17  1  0
 17 18  2  0
 18 19  1  0
 19 20  1  0
 20 21  1  0
 21 22  1  0
 22 23  1  0
 22 24  1  0
 24 25  1  0
 24 26  1  0
 19 27  1  0
 27 28  1  1
 27 29  1  0
 29 30  1  0
 30 31  1  0
 31 32  1  1
  7  5  1  0
 31 10  1  0
 31 13  1  0
 27 15  1  0
 24 18  1  0
  1 33  1  0
  1 34  1  0
  1 35  1  0
  2 36  1  1
  3 37  1  0
  3 38  1  0
  4 39  1  0
  4 40  1  0
  5 41  1  6
  8 42  1  0
  8 43  1  0
  8 44  1  0
  9 45  1  0
  9 46  1  0
  9 47  1  0
 10 48  1  6
 11 49  1  0
 11 50  1  0
 12 51  1  0
 12 52  1  0
 14 53  1  0
 14 54  1  0
 14 55  1  0
 15 56  1  1
 16 57  1  0
 16 58  1  0
 17 59  1  0
 19 60  1  6
 20 61  1  0
 20 62  1  0
 21 63  1  0
 21 64  1  0
 22 65  1  6
 23 66  1  0
 25 67  1  0
 25 68  1  0
 25 69  1  0
 26 70  1  0
 26 71  1  0
 26 72  1  0
 28 73  1  0
 28 74  1  0
 28 75  1  0
 29 76  1  0
 29 77  1  0
 30 78  1  0
 30 79  1  0
 32 80  1  0
 32 81  1  0
 32 82  1  0
M  END
>  <meeko>  (14) 
{"is_sidechain": [false], "intermolecular_energy": 2.731, "internal_energy": -0.839}

$$$$
EPH_relaxed_0001_pdb2pqr_Repair_261_r2_0001_out
     RDKit          3D

 82 86  0  0  0  0  0  0  0  0999 V2000
   -0.4850   19.6020   -2.0230 C   0  0  0  0  0  0  0  0  0  0  0  0
    0.6330   19.0520   -1.1330 C   0  0  2  0  0  0  0  0  0  0  0  0
    1.4830   20.1760   -0.5060 C   0  0  0  0  0  0  0  0  0  0  0  0
    1.5430   20.1220    1.0220 C   0  0  0  0  0  0  0  0  0  0  0  0
    2.9430   19.9120    1.5150 C   0  0  2  0  0  0  0  0  0  0  0  0
    3.1470   18.6870    2.2310 O   0  0  0  0  0  0  0  0  0  0  0  0
    3.3190   19.8980    2.9850 C   0  0  0  0  0  0  0  0  0  0  0  0
    2.2930   20.0990    4.0550 C   0  0  0  0  0  0  0  0  0  0  0  0
    4.7410   20.1760    3.3620 C   0  0  0  0  0  0  0  0  0  0  0  0
    1.5240   18.1130   -1.9380 C   0  0  1  0  0  0  0  0  0  0  0  0
    2.7660   18.8300   -2.5320 C   0  0  0  0  0  0  0  0  0  0  0  0
    3.9290   17.8050   -2.5060 C   0  0  0  0  0  0  0  0  0  0  0  0
    3.2470   16.4480   -2.2150 C   0  0  1  0  0  0  0  0  0  0  0  0
    2.6910   15.9730   -3.5940 C   0  0  0  0  0  0  0  0  0  0  0  0
    4.1420   15.3550   -1.5450 C   0  0  2  0  0  0  0  0  0  0  0  0
    5.3480   14.8960   -2.3830 C   0  0  0  0  0  0  0  0  0  0  0  0
    5.0930   13.7350   -3.2860 C   0  0  0  0  0  0  0  0  0  0  0  0
    4.0340   12.9070   -3.2160 C   0  0  0  0  0  0  0  0  0  0  0  0
    3.0030   13.0420   -2.0880 C   0  0  1  0  0  0  0  0  0  0  0  0
    2.7000   11.6410   -1.4930 C   0  0  0  0  0  0  0  0  0  0  0  0
    2.2730   10.6340   -2.5570 C   0  0  0  0  0  0  0  0  0  0  0  0
    3.3490   10.4850   -3.6290 C   0  0  2  0  0  0  0  0  0  0  0  0
    4.5060    9.8810   -3.0410 O   0  0  0  0  0  0  0  0  0  0  0  0
    3.7440   11.8330   -4.2930 C   0  0  0  0  0  0  0  0  0  0  0  0
    2.5790   12.3370   -5.1810 C   0  0  0  0  0  0  0  0  0  0  0  0
    4.9340   11.5630   -5.2530 C   0  0  0  0  0  0  0  0  0  0  0  0
    3.3360   14.1210   -0.9690 C   0  0  1  0  0  0  0  0  0  0  0  0
    4.2300   13.4820    0.1370 C   0  0  0  0  0  0  0  0  0  0  0  0
    1.9980   14.5570   -0.2620 C   0  0  0  0  0  0  0  0  0  0  0  0
    1.2210   15.7220   -0.9040 C   0  0  0  0  0  0  0  0  0  0  0  0
    2.1470   16.9080   -1.1890 C   0  0  2  0  0  0  0  0  0  0  0  0
    2.7040   17.4210    0.1830 C   0  0  0  0  0  0  0  0  0  0  0  0
   -1.2936   19.9998   -1.3922 H   0  0  0  0  0  0  0  0  0  0  0  0
   -0.0858   20.4066   -2.6581 H   0  0  0  0  0  0  0  0  0  0  0  0
   -0.8787   18.7948   -2.6581 H   0  0  0  0  0  0  0  0  0  0  0  0
    0.1579   18.4990   -0.3094 H   0  0  0  0  0  0  0  0  0  0  0  0
    2.5080   20.0955   -0.8969 H   0  0  0  0  0  0  0  0  0  0  0  0
    1.0048   21.1292   -0.7755 H   0  0  0  0  0  0  0  0  0  0  0  0
    1.1608   21.0704    1.4275 H   0  0  0  0  0  0  0  0  0  0  0  0
    0.9298   19.2734    1.3594 H   0  0  0  0  0  0  0  0  0  0  0  0
    3.3541   20.4590    0.6537 H   0  0  0  0  0  0  0  0  0  0  0  0
    2.7695   20.0057    5.0420 H   0  0  0  0  0  0  0  0  0  0  0  0
    1.8502   21.1010    3.9549 H   0  0  0  0  0  0  0  0  0  0  0  0
    1.5049   19.3382    3.9549 H   0  0  0  0  0  0  0  0  0  0  0  0
    4.8330   20.1940    4.4580 H   0  0  0  0  0  0  0  0  0  0  0  0
    5.3897   19.3877    2.9525 H   0  0  0  0  0  0  0  0  0  0  0  0
    5.0451   21.1506    2.9525 H   0  0  0  0  0  0  0  0  0  0  0  0
    0.7943   17.7583   -2.6808 H   0  0  0  0  0  0  0  0  0  0  0  0
    2.5626   19.1460   -3.5658 H   0  0  0  0  0  0  0  0  0  0  0  0
    3.0187   19.7290   -1.9507 H   0  0  0  0  0  0  0  0  0  0  0  0
    4.4459   17.7795   -3.4767 H   0  0  0  0  0  0  0  0  0  0  0  0
    4.6913   18.0582   -1.7545 H   0  0  0  0  0  0  0  0  0  0  0  0
    1.8638   15.2663   -3.4321 H   0  0  0  0  0  0  0  0  0  0  0  0
    2.3253   16.8419   -4.1609 H   0  0  0  0  0  0  0  0  0  0  0  0
    3.4921   15.4761   -4.1609 H   0  0  0  0  0  0  0  0  0  0  0  0
    4.5639   15.8917   -0.6825 H   0  0  0  0  0  0  0  0  0  0  0  0
    5.6731   15.7441   -3.0035 H   0  0  0  0  0  0  0  0  0  0  0  0
    6.1083   14.5597   -1.6627 H   0  0  0  0  0  0  0  0  0  0  0  0
    5.8334   13.5395   -4.0757 H   0  0  0  0  0  0  0  0  0  0  0  0
    2.0957   13.4545   -2.5534 H   0  0  0  0  0  0  0  0  0  0  0  0
    3.6064   11.2655   -0.9955 H   0  0  0  0  0  0  0  0  0  0  0  0
    1.8661   11.7522   -0.7843 H   0  0  0  0  0  0  0  0  0  0  0  0
    2.1017    9.6575   -2.0805 H   0  0  0  0  0  0  0  0  0  0  0  0
    1.3501   10.9963   -3.0334 H   0  0  0  0  0  0  0  0  0  0  0  0
    2.9330    9.8527   -4.4272 H   0  0  0  0  0  0  0  0  0  0  0  0
    4.4160    9.9530   -2.0760 H   0  0  0  0  0  0  0  0  0  0  0  0
    1.7576   12.6923   -4.5414 H   0  0  0  0  0  0  0  0  0  0  0  0
    2.9327   13.1626   -5.8161 H   0  0  0  0  0  0  0  0  0  0  0  0
    2.2194   11.5140   -5.8161 H   0  0  0  0  0  0  0  0  0  0  0  0
    5.8404   11.3573   -4.6646 H   0  0  0  0  0  0  0  0  0  0  0  0
    4.7036   10.6943   -5.8873 H   0  0  0  0  0  0  0  0  0  0  0  0
    5.1011   12.4461   -5.8873 H   0  0  0  0  0  0  0  0  0  0  0  0
    3.8417   13.7595    1.1281 H   0  0  0  0  0  0  0  0  0  0  0  0
    4.2172   12.3871    0.0316 H   0  0  0  0  0  0  0  0  0  0  0  0
    5.2618   13.8485    0.0316 H   0  0  0  0  0  0  0  0  0  0  0  0
    1.3311   13.6824   -0.2434 H   0  0  0  0  0  0  0  0  0  0  0  0
    2.3027   14.9255    0.7287 H   0  0  0  0  0  0  0  0  0  0  0  0
    0.7744   15.3791   -1.8490 H   0  0  0  0  0  0  0  0  0  0  0  0
    0.4379   16.0490   -0.2041 H   0  0  0  0  0  0  0  0  0  0  0  0
    2.1665   16.9259    1.0052 H   0  0  0  0  0  0  0  0  0  0  0  0
    3.7767   17.1879    0.2535 H   0  0  0  0  0  0  0  0  0  0  0  0
    2.5598   18.5092    0.2535 H   0  0  0  0  0  0  0  0  0  0  0  0
  1  2  1  0
  2  3  1  0
  3  4  1  0
  4  5  1  0
  5  6  1  0
  6  7  1  0
  7  8  1  0
  7  9  1  0
  2 10  1  0
 10 11  1  0
 11 12  1  0
 12 13  1  0
 13 14  1  6
 13 15  1  0
 15 16  1  0
 16 17  1  0
 17 18  2  0
 18 19  1  0
 19 20  1  0
 20 21  1  0
 21 22  1  0
 22 23  1  0
 22 24  1  0
 24 25  1  0
 24 26  1  0
 19 27  1  0
 27 28  1  1
 27 29  1  0
 29 30  1  0
 30 31  1  0
 31 32  1  1
  7  5  1  0
 31 10  1  0
 31 13  1  0
 27 15  1  0
 24 18  1  0
  1 33  1  0
  1 34  1  0
  1 35  1  0
  2 36  1  1
  3 37  1  0
  3 38  1  0
  4 39  1  0
  4 40  1  0
  5 41  1  6
  8 42  1  0
  8 43  1  0
  8 44  1  0
  9 45  1  0
  9 46  1  0
  9 47  1  0
 10 48  1  6
 11 49  1  0
 11 50  1  0
 12 51  1  0
 12 52  1  0
 14 53  1  0
 14 54  1  0
 14 55  1  0
 15 56  1  1
 16 57  1  0
 16 58  1  0
 17 59  1  0
 19 60  1  6
 20 61  1  0
 20 62  1  0
 21 63  1  0
 21 64  1  0
 22 65  1  6
 23 66  1  0
 25 67  1  0
 25 68  1  0
 25 69  1  0
 26 70  1  0
 26 71  1  0
 26 72  1  0
 28 73  1  0
 28 74  1  0
 28 75  1  0
 29 76  1  0
 29 77  1  0
 30 78  1  0
 30 79  1  0
 32 80  1  0
 32 81  1  0
 32 82  1  0
M  END
>  <meeko>  (15) 
{"is_sidechain": [false], "intermolecular_energy": 2.731, "internal_energy": -0.839}

$$$$
EPH_relaxed_0001_pdb2pqr_Repair_261_r2_0001_out
     RDKit          3D

 82 86  0  0  0  0  0  0  0  0999 V2000
    0.9360   20.1940   -0.8880 C   0  0  0  0  0  0  0  0  0  0  0  0
    0.5490   19.7780   -2.3100 C   0  0  2  0  0  0  0  0  0  0  0  0
   -0.9400   19.3930   -2.4170 C   0  0  0  0  0  0  0  0  0  0  0  0
   -1.8230   20.0450   -1.3500 C   0  0  0  0  0  0  0  0  0  0  0  0
   -2.3810   19.0320   -0.3970 C   0  0  2  0  0  0  0  0  0  0  0  0
   -2.7500   19.5560    0.8860 O   0  0  0  0  0  0  0  0  0  0  0  0
   -1.6750   18.6030    0.8760 C   0  0  0  0  0  0  0  0  0  0  0  0
   -0.3490   19.1770    1.2640 C   0  0  0  0  0  0  0  0  0  0  0  0
   -2.0340   17.2820    1.4830 C   0  0  0  0  0  0  0  0  0  0  0  0
    1.4220   18.6160   -2.7680 C   0  0  1  0  0  0  0  0  0  0  0  0
    2.6870   19.0850   -3.5340 C   0  0  0  0  0  0  0  0  0  0  0  0
    3.8230   18.0940   -3.1720 C   0  0  0  0  0  0  0  0  0  0  0  0
    3.1030   16.9110   -2.4840 C   0  0  1  0  0  0  0  0  0  0  0  0
    2.5480   16.0420   -3.6570 C   0  0  0  0  0  0  0  0  0  0  0  0
    3.9630   16.0600   -1.4930 C   0  0  2  0  0  0  0  0  0  0  0  0
    5.1650   15.3370   -2.1270 C   0  0  0  0  0  0  0  0  0  0  0  0
    4.8880   13.9590   -2.6280 C   0  0  0  0  0  0  0  0  0  0  0  0
    3.8070   13.2170   -2.3210 C   0  0  0  0  0  0  0  0  0  0  0  0
    2.7700   13.7190   -1.3090 C   0  0  1  0  0  0  0  0  0  0  0  0
    2.4250   12.5800   -0.3130 C   0  0  0  0  0  0  0  0  0  0  0  0
    1.9820   11.3020   -1.0180 C   0  0  0  0  0  0  0  0  0  0  0  0
    3.0630   10.8020   -1.9730 C   0  0  2  0  0  0  0  0  0  0  0  0
    4.1980   10.3870   -1.2070 O   0  0  0  0  0  0  0  0  0  0  0  0
    3.4990   11.8680   -3.0160 C   0  0  0  0  0  0  0  0  0  0  0  0
    2.3550   12.0970   -4.0350 C   0  0  0  0  0  0  0  0  0  0  0  0
    4.6900   11.2870   -3.8240 C   0  0  0  0  0  0  0  0  0  0  0  0
    3.1200   15.0850   -0.5760 C   0  0  1  0  0  0  0  0  0  0  0  0
    3.9880   14.8030    0.6890 C   0  0  0  0  0  0  0  0  0  0  0  0
    1.7890   15.7490   -0.0610 C   0  0  0  0  0  0  0  0  0  0  0  0
    1.0480   16.6730   -1.0470 C   0  0  0  0  0  0  0  0  0  0  0  0
    2.0070   17.6910   -1.6710 C   0  0  2  0  0  0  0  0  0  0  0  0
    2.5640   18.5930   -0.5180 C   0  0  0  0  0  0  0  0  0  0  0  0
    0.3727   19.5885   -0.1627 H   0  0  0  0  0  0  0  0  0  0  0  0
    2.0142   20.0344   -0.7399 H   0  0  0  0  0  0  0  0  0  0  0  0
    0.6991   21.2579   -0.7399 H   0  0  0  0  0  0  0  0  0  0  0  0
    0.7134   20.6463   -2.9650 H   0  0  0  0  0  0  0  0  0  0  0  0
   -1.3077   19.7003   -3.4071 H   0  0  0  0  0  0  0  0  0  0  0  0
   -1.0023   18.3054   -2.2647 H   0  0  0  0  0  0  0  0  0  0  0  0
   -1.2213   20.7722   -0.7851 H   0  0  0  0  0  0  0  0  0  0  0  0
   -2.6650   20.5389   -1.8570 H   0  0  0  0  0  0  0  0  0  0  0  0
   -2.8197   18.4584   -1.2268 H   0  0  0  0  0  0  0  0  0  0  0  0
   -0.2709   19.2108    2.3607 H   0  0  0  0  0  0  0  0  0  0  0  0
    0.4562   18.5469    0.8583 H   0  0  0  0  0  0  0  0  0  0  0  0
   -0.2574   20.1953    0.8583 H   0  0  0  0  0  0  0  0  0  0  0  0
   -2.0117   17.3642    2.5797 H   0  0  0  0  0  0  0  0  0  0  0  0
   -3.0437   16.9912    1.1576 H   0  0  0  0  0  0  0  0  0  0  0  0
   -1.3103   16.5202    1.1576 H   0  0  0  0  0  0  0  0  0  0  0  0
    0.6901   18.0636   -3.3756 H   0  0  0  0  0  0  0  0  0  0  0  0
    2.5011   19.0684   -4.6181 H   0  0  0  0  0  0  0  0  0  0  0  0
    2.9577   20.1143   -3.2561 H   0  0  0  0  0  0  0  0  0  0  0  0
    4.3470   17.7559   -4.0782 H   0  0  0  0  0  0  0  0  0  0  0  0
    4.5858   18.5517   -2.5250 H   0  0  0  0  0  0  0  0  0  0  0  0
    1.9984   15.1815   -3.2477 H   0  0  0  0  0  0  0  0  0  0  0  0
    1.8704   16.6496   -4.2747 H   0  0  0  0  0  0  0  0  0  0  0  0
    3.3843   15.6828   -4.2747 H   0  0  0  0  0  0  0  0  0  0  0  0
    4.3912   16.8284   -0.8325 H   0  0  0  0  0  0  0  0  0  0  0  0
    5.5173   15.9426   -2.9750 H   0  0  0  0  0  0  0  0  0  0  0  0
    5.9103   15.2254   -1.3257 H   0  0  0  0  0  0  0  0  0  0  0  0
    5.6298   13.5113   -3.3057 H   0  0  0  0  0  0  0  0  0  0  0  0
    1.8782   13.9859   -1.8951 H   0  0  0  0  0  0  0  0  0  0  0  0
    3.3166   12.3583    0.2920 H   0  0  0  0  0  0  0  0  0  0  0  0
    1.5878   12.9245    0.3118 H   0  0  0  0  0  0  0  0  0  0  0  0
    1.7809   10.5264   -0.2643 H   0  0  0  0  0  0  0  0  0  0  0  0
    1.0736   11.5188   -1.5991 H   0  0  0  0  0  0  0  0  0  0  0  0
    2.6382    9.9617   -2.5417 H   0  0  0  0  0  0  0  0  0  0  0  0
    3.9200   10.3270   -0.2770 H   0  0  0  0  0  0  0  0  0  0  0  0
    1.4153   12.2851   -3.4951 H   0  0  0  0  0  0  0  0  0  0  0  0
    2.5950   12.9649   -4.6668 H   0  0  0  0  0  0  0  0  0  0  0  0
    2.2424   11.2036   -4.6668 H   0  0  0  0  0  0  0  0  0  0  0  0
    5.4566   10.9130   -3.1294 H   0  0  0  0  0  0  0  0  0  0  0  0
    4.3350   10.4609   -4.4576 H   0  0  0  0  0  0  0  0  0  0  0  0
    5.1225   12.0753   -4.4576 H   0  0  0  0  0  0  0  0  0  0  0  0
    3.3921   14.9966    1.5931 H   0  0  0  0  0  0  0  0  0  0  0  0
    4.3145   13.7526    0.6830 H   0  0  0  0  0  0  0  0  0  0  0  0
    4.8695   15.4610    0.6830 H   0  0  0  0  0  0  0  0  0  0  0  0
    1.0993   14.9390    0.2187 H   0  0  0  0  0  0  0  0  0  0  0  0
    2.0949   16.4008    0.7706 H   0  0  0  0  0  0  0  0  0  0  0  0
    0.6016   16.0626   -1.8458 H   0  0  0  0  0  0  0  0  0  0  0  0
    0.2670   17.2184   -0.4969 H   0  0  0  0  0  0  0  0  0  0  0  0
    2.2933   18.1546    0.4539 H   0  0  0  0  0  0  0  0  0  0  0  0
    3.6591   18.6570   -0.5991 H   0  0  0  0  0  0  0  0  0  0  0  0
    2.1308   19.6008   -0.5991 H   0  0  0  0  0  0  0  0  0  0  0  0
  1  2  1  0
  2  3  1  0
  3  4  1  0
  4  5  1  0
  5  6  1  0
  6  7  1  0
  7  8  1  0
  7  9  1  0
  2 10  1  0
 10 11  1  0
 11 12  1  0
 12 13  1  0
 13 14  1  6
 13 15  1  0
 15 16  1  0
 16 17  1  0
 17 18  2  0
 18 19  1  0
 19 20  1  0
 20 21  1  0
 21 22  1  0
 22 23  1  0
 22 24  1  0
 24 25  1  0
 24 26  1  0
 19 27  1  0
 27 28  1  1
 27 29  1  0
 29 30  1  0
 30 31  1  0
 31 32  1  1
  7  5  1  0
 31 10  1  0
 31 13  1  0
 27 15  1  0
 24 18  1  0
  1 33  1  0
  1 34  1  0
  1 35  1  0
  2 36  1  6
  3 37  1  0
  3 38  1  0
  4 39  1  0
  4 40  1  0
  5 41  1  6
  8 42  1  0
  8 43  1  0
  8 44  1  0
  9 45  1  0
  9 46  1  0
  9 47  1  0
 10 48  1  6
 11 49  1  0
 11 50  1  0
 12 51  1  0
 12 52  1  0
 14 53  1  0
 14 54  1  0
 14 55  1  0
 15 56  1  1
 16 57  1  0
 16 58  1  0
 17 59  1  0
 19 60  1  6
 20 61  1  0
 20 62  1  0
 21 63  1  0
 21 64  1  0
 22 65  1  6
 23 66  1  0
 25 67  1  0
 25 68  1  0
 25 69  1  0
 26 70  1  0
 26 71  1  0
 26 72  1  0
 28 73  1  0
 28 74  1  0
 28 75  1  0
 29 76  1  0
 29 77  1  0
 30 78  1  0
 30 79  1  0
 32 80  1  0
 32 81  1  0
 32 82  1  0
M  END
>  <meeko>  (16) 
{"is_sidechain": [false], "intermolecular_energy": 2.731, "internal_energy": -0.839}

$$$$
EPH_relaxed_0001_pdb2pqr_Repair_261_r2_0001_out
     RDKit          3D

 82 86  0  0  0  0  0  0  0  0999 V2000
   -4.7860    5.8380   -0.0300 C   0  0  0  0  0  0  0  0  0  0  0  0
   -5.3580    6.2010   -1.4030 C   0  0  2  0  0  0  0  0  0  0  0  0
   -4.2940    6.8230   -2.3290 C   0  0  0  0  0  0  0  0  0  0  0  0
   -3.3780    7.8290   -1.6260 C   0  0  0  0  0  0  0  0  0  0  0  0
   -2.1510    8.1220   -2.4350 C   0  0  2  0  0  0  0  0  0  0  0  0
   -1.1150    7.1370   -2.3300 O   0  0  0  0  0  0  0  0  0  0  0  0
   -0.8010    8.4430   -1.8210 C   0  0  0  0  0  0  0  0  0  0  0  0
   -0.6090    8.4880   -0.3380 C   0  0  0  0  0  0  0  0  0  0  0  0
    0.2020    9.1860   -2.6470 C   0  0  0  0  0  0  0  0  0  0  0  0
   -6.5310    7.1610   -1.2400 C   0  0  1  0  0  0  0  0  0  0  0  0
   -6.2390    8.5670   -1.8280 C   0  0  0  0  0  0  0  0  0  0  0  0
   -7.5750    9.0940   -2.4110 C   0  0  0  0  0  0  0  0  0  0  0  0
   -8.6510    8.1340   -1.8520 C   0  0  1  0  0  0  0  0  0  0  0  0
   -8.9350    8.6470   -0.4060 C   0  0  0  0  0  0  0  0  0  0  0  0
   -9.9660    8.0070   -2.6880 C   0  0  2  0  0  0  0  0  0  0  0  0
  -10.7810    9.3060   -2.8220 C   0  0  0  0  0  0  0  0  0  0  0  0
  -11.8090    9.5260   -1.7620 C   0  0  0  0  0  0  0  0  0  0  0  0
  -12.2650    8.5910   -0.9080 C   0  0  0  0  0  0  0  0  0  0  0  0
  -11.8110    7.1300   -1.0250 C   0  0  1  0  0  0  0  0  0  0  0  0
  -13.0450    6.1950   -0.9260 C   0  0  0  0  0  0  0  0  0  0  0  0
  -13.8740    6.4500    0.3300 C   0  0  0  0  0  0  0  0  0  0  0  0
  -14.3550    7.8980    0.3800 C   0  0  2  0  0  0  0  0  0  0  0  0
  -15.2870    8.1110   -0.6850 O   0  0  0  0  0  0  0  0  0  0  0  0
  -13.1990    8.9320    0.2790 C   0  0  0  0  0  0  0  0  0  0  0  0
  -12.3610    8.9050    1.5800 C   0  0  0  0  0  0  0  0  0  0  0  0
  -13.8310   10.3480    0.1990 C   0  0  0  0  0  0  0  0  0  0  0  0
  -10.8850    6.7890   -2.2700 C   0  0  1  0  0  0  0  0  0  0  0  0
  -11.7660    6.4500   -3.5110 C   0  0  0  0  0  0  0  0  0  0  0  0
  -10.0510    5.4920   -1.9510 C   0  0  0  0  0  0  0  0  0  0  0  0
   -8.7040    5.6930   -1.2300 C   0  0  0  0  0  0  0  0  0  0  0  0
   -7.8670    6.7730   -1.9220 C   0  0  2  0  0  0  0  0  0  0  0  0
   -7.5470    6.2740   -3.3720 C   0  0  0  0  0  0  0  0  0  0  0  0
   -5.4343    6.2494    0.7577 H   0  0  0  0  0  0  0  0  0  0  0  0
   -4.7376    4.7436    0.0694 H   0  0  0  0  0  0  0  0  0  0  0  0
   -3.7751    6.2602    0.0694 H   0  0  0  0  0  0  0  0  0  0  0  0
   -5.7026    5.2690   -1.8748 H   0  0  0  0  0  0  0  0  0  0  0  0
   -3.6718    6.0126   -2.7365 H   0  0  0  0  0  0  0  0  0  0  0  0
   -4.8333    7.3734   -3.1140 H   0  0  0  0  0  0  0  0  0  0  0  0
   -3.9325    8.7657   -1.4677 H   0  0  0  0  0  0  0  0  0  0  0  0
   -3.0603    7.3918   -0.6679 H   0  0  0  0  0  0  0  0  0  0  0  0
   -2.7512    8.6295   -3.2046 H   0  0  0  0  0  0  0  0  0  0  0  0
   -1.5629    8.2644    0.1622 H   0  0  0  0  0  0  0  0  0  0  0  0
    0.1435    7.7419   -0.0429 H   0  0  0  0  0  0  0  0  0  0  0  0
   -0.2664    9.4908   -0.0429 H   0  0  0  0  0  0  0  0  0  0  0  0
    0.9076    9.7087   -1.9845 H   0  0  0  0  0  0  0  0  0  0  0  0
    0.7524    8.4760   -3.2818 H   0  0  0  0  0  0  0  0  0  0  0  0
   -0.3169    9.9194   -3.2818 H   0  0  0  0  0  0  0  0  0  0  0  0
   -6.6436    7.1303   -0.1462 H   0  0  0  0  0  0  0  0  0  0  0  0
   -5.8788    9.2411   -1.0369 H   0  0  0  0  0  0  0  0  0  0  0  0
   -5.4616    8.5167   -2.6046 H   0  0  0  0  0  0  0  0  0  0  0  0
   -7.7640   10.1252   -2.0779 H   0  0  0  0  0  0  0  0  0  0  0  0
   -7.5691    9.1186   -3.5107 H   0  0  0  0  0  0  0  0  0  0  0  0
   -8.5362    7.9267    0.3235 H   0  0  0  0  0  0  0  0  0  0  0  0
   -8.4487    9.6230   -0.2611 H   0  0  0  0  0  0  0  0  0  0  0  0
  -10.0203    8.7530   -0.2611 H   0  0  0  0  0  0  0  0  0  0  0  0
   -9.5847    7.7872   -3.6961 H   0  0  0  0  0  0  0  0  0  0  0  0
  -10.0787   10.1522   -2.7952 H   0  0  0  0  0  0  0  0  0  0  0  0
  -11.3338    9.2221   -3.7693 H   0  0  0  0  0  0  0  0  0  0  0  0
  -12.2295   10.5384   -1.6712 H   0  0  0  0  0  0  0  0  0  0  0  0
  -11.1382    6.9516   -0.1733 H   0  0  0  0  0  0  0  0  0  0  0  0
  -13.6821    6.3575   -1.8079 H   0  0  0  0  0  0  0  0  0  0  0  0
  -12.6762    5.1598   -0.8779 H   0  0  0  0  0  0  0  0  0  0  0  0
  -14.7467    5.7804    0.3277 H   0  0  0  0  0  0  0  0  0  0  0  0
  -13.2449    6.2578    1.2116 H   0  0  0  0  0  0  0  0  0  0  0  0
  -14.8295    8.0544    1.3600 H   0  0  0  0  0  0  0  0  0  0  0  0
  -16.1160    7.6640   -0.4450 H   0  0  0  0  0  0  0  0  0  0  0  0
  -13.0338    8.9267    2.4500 H   0  0  0  0  0  0  0  0  0  0  0  0
  -11.7558    7.9869    1.6073 H   0  0  0  0  0  0  0  0  0  0  0  0
  -11.6979    9.7822    1.6073 H   0  0  0  0  0  0  0  0  0  0  0  0
  -14.0020   10.7312    1.2158 H   0  0  0  0  0  0  0  0  0  0  0  0
  -13.1492   11.0240   -0.3377 H   0  0  0  0  0  0  0  0  0  0  0  0
  -14.7895   10.2919   -0.3377 H   0  0  0  0  0  0  0  0  0  0  0  0
  -12.7435    6.0739   -3.1750 H   0  0  0  0  0  0  0  0  0  0  0  0
  -11.9105    7.3567   -4.1168 H   0  0  0  0  0  0  0  0  0  0  0  0
  -11.2654    5.6803   -4.1168 H   0  0  0  0  0  0  0  0  0  0  0  0
  -10.6739    4.8429   -1.3180 H   0  0  0  0  0  0  0  0  0  0  0  0
   -9.7922    5.0672   -2.9321 H   0  0  0  0  0  0  0  0  0  0  0  0
   -8.8944    5.9967   -0.1901 H   0  0  0  0  0  0  0  0  0  0  0  0
   -8.1463    4.7453   -1.2586 H   0  0  0  0  0  0  0  0  0  0  0  0
   -6.9539    5.3491   -3.3189 H   0  0  0  0  0  0  0  0  0  0  0  0
   -8.4872    6.0764   -3.9076 H   0  0  0  0  0  0  0  0  0  0  0  0
   -6.9752    7.0461   -3.9076 H   0  0  0  0  0  0  0  0  0  0  0  0
  1  2  1  0
  2  3  1  0
  3  4  1  0
  4  5  1  0
  5  6  1  0
  6  7  1  0
  7  8  1  0
  7  9  1  0
  2 10  1  0
 10 11  1  0
 11 12  1  0
 12 13  1  0
 13 14  1  1
 13 15  1  0
 15 16  1  0
 16 17  1  0
 17 18  2  0
 18 19  1  0
 19 20  1  0
 20 21  1  0
 21 22  1  0
 22 23  1  0
 22 24  1  0
 24 25  1  0
 24 26  1  0
 19 27  1  0
 27 28  1  6
 27 29  1  0
 29 30  1  0
 30 31  1  0
 31 32  1  6
  7  5  1  0
 31 10  1  0
 31 13  1  0
 27 15  1  0
 24 18  1  0
  1 33  1  0
  1 34  1  0
  1 35  1  0
  2 36  1  6
  3 37  1  0
  3 38  1  0
  4 39  1  0
  4 40  1  0
  5 41  1  6
  8 42  1  0
  8 43  1  0
  8 44  1  0
  9 45  1  0
  9 46  1  0
  9 47  1  0
 10 48  1  1
 11 49  1  0
 11 50  1  0
 12 51  1  0
 12 52  1  0
 14 53  1  0
 14 54  1  0
 14 55  1  0
 15 56  1  6
 16 57  1  0
 16 58  1  0
 17 59  1  0
 19 60  1  1
 20 61  1  0
 20 62  1  0
 21 63  1  0
 21 64  1  0
 22 65  1  1
 23 66  1  0
 25 67  1  0
 25 68  1  0
 25 69  1  0
 26 70  1  0
 26 71  1  0
 26 72  1  0
 28 73  1  0
 28 74  1  0
 28 75  1  0
 29 76  1  0
 29 77  1  0
 30 78  1  0
 30 79  1  0
 32 80  1  0
 32 81  1  0
 32 82  1  0
M  END
>  <meeko>  (17) 
{"is_sidechain": [false], "intermolecular_energy": 2.731, "internal_energy": -0.839}

$$$$
EPH_relaxed_0001_pdb2pqr_Repair_261_r2_0001_out
     RDKit          3D

 82 86  0  0  0  0  0  0  0  0999 V2000
  -13.9790    6.4400    0.7410 C   0  0  0  0  0  0  0  0  0  0  0  0
  -13.3790    7.4270   -0.2650 C   0  0  2  0  0  0  0  0  0  0  0  0
  -14.4090    7.8800   -1.3190 C   0  0  0  0  0  0  0  0  0  0  0  0
  -14.9970    9.2680   -1.0480 C   0  0  0  0  0  0  0  0  0  0  0  0
  -15.2870   10.0040   -2.3210 C   0  0  2  0  0  0  0  0  0  0  0  0
  -14.2300    9.9680   -3.2890 O   0  0  0  0  0  0  0  0  0  0  0  0
  -14.5510   11.2600   -2.7480 C   0  0  0  0  0  0  0  0  0  0  0  0
  -13.4660   11.8530   -1.9050 C   0  0  0  0  0  0  0  0  0  0  0  0
  -15.2110   12.1780   -3.7290 C   0  0  0  0  0  0  0  0  0  0  0  0
  -12.1730    6.7980   -0.9530 C   0  0  1  0  0  0  0  0  0  0  0  0
  -12.5510    6.0550   -2.2620 C   0  0  0  0  0  0  0  0  0  0  0  0
  -11.3690    6.2530   -3.2460 C   0  0  0  0  0  0  0  0  0  0  0  0
  -10.2220    6.8100   -2.3710 C   0  0  1  0  0  0  0  0  0  0  0  0
   -9.6010    5.5570   -1.6790 C   0  0  0  0  0  0  0  0  0  0  0  0
   -9.1370    7.6580   -3.1120 C   0  0  2  0  0  0  0  0  0  0  0  0
   -8.3380    6.8990   -4.1860 C   0  0  0  0  0  0  0  0  0  0  0  0
   -7.0890    6.2390   -3.7030 C   0  0  0  0  0  0  0  0  0  0  0  0
   -6.4760    6.4850   -2.5300 C   0  0  0  0  0  0  0  0  0  0  0  0
   -6.9860    7.5860   -1.5920 C   0  0  1  0  0  0  0  0  0  0  0  0
   -5.7900    8.4420   -1.0990 C   0  0  0  0  0  0  0  0  0  0  0  0
   -4.6890    7.5970   -0.4640 C   0  0  0  0  0  0  0  0  0  0  0  0
   -4.1680    6.5530   -1.4470 C   0  0  2  0  0  0  0  0  0  0  0  0
   -3.4990    7.2230   -2.5200 O   0  0  0  0  0  0  0  0  0  0  0  0
   -5.2860    5.6370   -2.0190 C   0  0  0  0  0  0  0  0  0  0  0  0
   -5.8050    4.6930   -0.9060 C   0  0  0  0  0  0  0  0  0  0  0  0
   -4.6490    4.7240   -3.1010 C   0  0  0  0  0  0  0  0  0  0  0  0
   -8.1820    8.4730   -2.1480 C   0  0  1  0  0  0  0  0  0  0  0  0
   -7.6180    9.6630   -2.9830 C   0  0  0  0  0  0  0  0  0  0  0  0
   -8.9580    9.1100   -0.9350 C   0  0  0  0  0  0  0  0  0  0  0  0
  -10.0980    8.2730   -0.3230 C   0  0  0  0  0  0  0  0  0  0  0  0
  -11.0400    7.7500   -1.4120 C   0  0  2  0  0  0  0  0  0  0  0  0
  -11.6970    8.9880   -2.1110 C   0  0  0  0  0  0  0  0  0  0  0  0
  -13.7688    6.7858    1.7639 H   0  0  0  0  0  0  0  0  0  0  0  0
  -15.0670    6.3793    0.5908 H   0  0  0  0  0  0  0  0  0  0  0  0
  -13.5321    5.4462    0.5908 H   0  0  0  0  0  0  0  0  0  0  0  0
  -13.0646    8.3203    0.2947 H   0  0  0  0  0  0  0  0  0  0  0  0
  -13.9153    7.8978   -2.3018 H   0  0  0  0  0  0  0  0  0  0  0  0
  -15.2435    7.1643   -1.2815 H   0  0  0  0  0  0  0  0  0  0  0  0
  -15.9325    9.1545   -0.4805 H   0  0  0  0  0  0  0  0  0  0  0  0
  -14.2579    9.8485   -0.4764 H   0  0  0  0  0  0  0  0  0  0  0  0
  -16.3583    9.7681   -2.2398 H   0  0  0  0  0  0  0  0  0  0  0  0
  -13.7128   11.7181   -0.8416 H   0  0  0  0  0  0  0  0  0  0  0  0
  -12.5131   11.3503   -2.1269 H   0  0  0  0  0  0  0  0  0  0  0  0
  -13.3746   12.9265   -2.1269 H   0  0  0  0  0  0  0  0  0  0  0  0
  -15.7694   12.9547   -3.1860 H   0  0  0  0  0  0  0  0  0  0  0  0
  -14.4451   12.6512   -4.3610 H   0  0  0  0  0  0  0  0  0  0  0  0
  -15.9035   11.6027   -4.3610 H   0  0  0  0  0  0  0  0  0  0  0  0
  -11.8144    6.1501   -0.1396 H   0  0  0  0  0  0  0  0  0  0  0  0
  -12.7005    4.9841   -2.0601 H   0  0  0  0  0  0  0  0  0  0  0  0
  -13.4868    6.4499   -2.6842 H   0  0  0  0  0  0  0  0  0  0  0  0
  -11.0791    5.2951   -3.7025 H   0  0  0  0  0  0  0  0  0  0  0  0
  -11.6258    6.9276   -4.0760 H   0  0  0  0  0  0  0  0  0  0  0  0
   -9.6593    5.6747   -0.5869 H   0  0  0  0  0  0  0  0  0  0  0  0
  -10.1577    4.6577   -1.9811 H   0  0  0  0  0  0  0  0  0  0  0  0
   -8.5482    5.4553   -1.9811 H   0  0  0  0  0  0  0  0  0  0  0  0
   -9.7443    8.3955   -3.6573 H   0  0  0  0  0  0  0  0  0  0  0  0
   -8.9911    6.1220   -4.6100 H   0  0  0  0  0  0  0  0  0  0  0  0
   -8.0194    7.6544   -4.9193 H   0  0  0  0  0  0  0  0  0  0  0  0
   -6.6303    5.4872   -4.3621 H   0  0  0  0  0  0  0  0  0  0  0  0
   -7.4505    7.0673   -0.7404 H   0  0  0  0  0  0  0  0  0  0  0  0
   -5.3673    8.9850   -1.9572 H   0  0  0  0  0  0  0  0  0  0  0  0
   -6.1673    9.1320   -0.3299 H   0  0  0  0  0  0  0  0  0  0  0  0
   -3.8595    8.2537   -0.1630 H   0  0  0  0  0  0  0  0  0  0  0  0
   -5.1056    7.0778    0.4117 H   0  0  0  0  0  0  0  0  0  0  0  0
   -3.4776    5.8975   -0.8959 H   0  0  0  0  0  0  0  0  0  0  0  0
   -2.6650    7.5780   -2.1700 H   0  0  0  0  0  0  0  0  0  0  0  0
   -5.5688    5.1226    0.0787 H   0  0  0  0  0  0  0  0  0  0  0  0
   -6.8944    4.5757   -1.0032 H   0  0  0  0  0  0  0  0  0  0  0  0
   -5.3203    3.7103   -1.0032 H   0  0  0  0  0  0  0  0  0  0  0  0
   -4.0850    3.9156   -2.6129 H   0  0  0  0  0  0  0  0  0  0  0  0
   -5.4419    4.2908   -3.7284 H   0  0  0  0  0  0  0  0  0  0  0  0
   -3.9688    5.3187   -3.7284 H   0  0  0  0  0  0  0  0  0  0  0  0
   -7.2475   10.4447   -2.3035 H   0  0  0  0  0  0  0  0  0  0  0  0
   -6.7927    9.3072   -3.6173 H   0  0  0  0  0  0  0  0  0  0  0  0
   -8.4159   10.0766   -3.6173 H   0  0  0  0  0  0  0  0  0  0  0  0
   -8.2257    9.3078   -0.1384 H   0  0  0  0  0  0  0  0  0  0  0  0
   -9.4468   10.0063   -1.3447 H   0  0  0  0  0  0  0  0  0  0  0  0
   -9.6662    7.4192    0.2197 H   0  0  0  0  0  0  0  0  0  0  0  0
  -10.6743    8.9128    0.3615 H   0  0  0  0  0  0  0  0  0  0  0  0
  -12.0678    9.6867   -1.3466 H   0  0  0  0  0  0  0  0  0  0  0  0
  -10.9490    9.4944   -2.7387 H   0  0  0  0  0  0  0  0  0  0  0  0
  -12.5357    8.6524   -2.7387 H   0  0  0  0  0  0  0  0  0  0  0  0
  1  2  1  0
  2  3  1  0
  3  4  1  0
  4  5  1  0
  5  6  1  0
  6  7  1  0
  7  8  1  0
  7  9  1  0
  2 10  1  0
 10 11  1  0
 11 12  1  0
 12 13  1  0
 13 14  1  1
 13 15  1  0
 15 16  1  0
 16 17  1  0
 17 18  2  0
 18 19  1  0
 19 20  1  0
 20 21  1  0
 21 22  1  0
 22 23  1  0
 22 24  1  0
 24 25  1  0
 24 26  1  0
 19 27  1  0
 27 28  1  6
 27 29  1  0
 29 30  1  0
 30 31  1  0
 31 32  1  6
  7  5  1  0
 31 10  1  0
 31 13  1  0
 27 15  1  0
 24 18  1  0
  1 33  1  0
  1 34  1  0
  1 35  1  0
  2 36  1  1
  3 37  1  0
  3 38  1  0
  4 39  1  0
  4 40  1  0
  5 41  1  6
  8 42  1  0
  8 43  1  0
  8 44  1  0
  9 45  1  0
  9 46  1  0
  9 47  1  0
 10 48  1  1
 11 49  1  0
 11 50  1  0
 12 51  1  0
 12 52  1  0
 14 53  1  0
 14 54  1  0
 14 55  1  0
 15 56  1  6
 16 57  1  0
 16 58  1  0
 17 59  1  0
 19 60  1  1
 20 61  1  0
 20 62  1  0
 21 63  1  0
 21 64  1  0
 22 65  1  1
 23 66  1  0
 25 67  1  0
 25 68  1  0
 25 69  1  0
 26 70  1  0
 26 71  1  0
 26 72  1  0
 28 73  1  0
 28 74  1  0
 28 75  1  0
 29 76  1  0
 29 77  1  0
 30 78  1  0
 30 79  1  0
 32 80  1  0
 32 81  1  0
 32 82  1  0
M  END
>  <meeko>  (18) 
{"is_sidechain": [false], "intermolecular_energy": 2.731, "internal_energy": -0.839}

$$$$
EPH_relaxed_0001_pdb2pqr_Repair_261_r2_0001_out
     RDKit          3D

 82 86  0  0  0  0  0  0  0  0999 V2000
    4.5310   17.2970   -2.1300 C   0  0  0  0  0  0  0  0  0  0  0  0
    3.1080   16.8080   -1.8450 C   0  0  2  0  0  0  0  0  0  0  0  0
    2.6530   17.1470   -0.4120 C   0  0  0  0  0  0  0  0  0  0  0  0
    2.5260   18.6500   -0.1460 C   0  0  0  0  0  0  0  0  0  0  0  0
    1.1740   19.0040    0.3980 C   0  0  2  0  0  0  0  0  0  0  0  0
    0.1720   17.9960    0.2120 O   0  0  0  0  0  0  0  0  0  0  0  0
   -0.0430   19.2390   -0.4760 C   0  0  0  0  0  0  0  0  0  0  0  0
    0.0330   19.1310   -1.9670 C   0  0  0  0  0  0  0  0  0  0  0  0
   -1.1760   20.0470    0.0770 C   0  0  0  0  0  0  0  0  0  0  0  0
    3.0200   15.3040   -2.0780 C   0  0  1  0  0  0  0  0  0  0  0  0
    4.3500   14.7020   -2.6040 C   0  0  0  0  0  0  0  0  0  0  0  0
    4.4730   13.2840   -1.9890 C   0  0  0  0  0  0  0  0  0  0  0  0
    3.0710   12.9890   -1.4060 C   0  0  1  0  0  0  0  0  0  0  0  0
    2.2180   12.5220   -2.6270 C   0  0  0  0  0  0  0  0  0  0  0  0
    3.0150   11.9560   -0.2330 C   0  0  2  0  0  0  0  0  0  0  0  0
    3.4820   10.5350   -0.5930 C   0  0  0  0  0  0  0  0  0  0  0  0
    2.4110    9.6160   -1.0810 C   0  0  0  0  0  0  0  0  0  0  0  0
    1.0870    9.8230   -0.9590 C   0  0  0  0  0  0  0  0  0  0  0  0
    0.5470   11.0340   -0.1870 C   0  0  1  0  0  0  0  0  0  0  0  0
   -0.5850   10.5760    0.7690 C   0  0  0  0  0  0  0  0  0  0  0  0
   -1.6870    9.8070    0.0460 C   0  0  0  0  0  0  0  0  0  0  0  0
   -1.1200    8.5790   -0.6610 C   0  0  2  0  0  0  0  0  0  0  0  0
   -0.6580    7.6510    0.3260 O   0  0  0  0  0  0  0  0  0  0  0  0
    0.0360    8.9160   -1.6440 C   0  0  0  0  0  0  0  0  0  0  0  0
   -0.5290    9.6690   -2.8730 C   0  0  0  0  0  0  0  0  0  0  0  0
    0.6110    7.5780   -2.1820 C   0  0  0  0  0  0  0  0  0  0  0  0
    1.6360   11.9320    0.5430 C   0  0  1  0  0  0  0  0  0  0  0  0
    1.9340   11.3590    1.9620 C   0  0  0  0  0  0  0  0  0  0  0  0
    1.0480   13.3760    0.7630 C   0  0  0  0  0  0  0  0  0  0  0  0
    1.2410   14.3870   -0.3840 C   0  0  0  0  0  0  0  0  0  0  0  0
    2.6990   14.4130   -0.8520 C   0  0  2  0  0  0  0  0  0  0  0  0
    3.5790   14.9000    0.3490 C   0  0  0  0  0  0  0  0  0  0  0  0
    5.0542   17.4768   -1.1793 H   0  0  0  0  0  0  0  0  0  0  0  0
    5.0723   16.5333   -2.7077 H   0  0  0  0  0  0  0  0  0  0  0  0
    4.4886   18.2321   -2.7077 H   0  0  0  0  0  0  0  0  0  0  0  0
    2.4328   17.3321   -2.5373 H   0  0  0  0  0  0  0  0  0  0  0  0
    1.6723   16.6796   -0.2392 H   0  0  0  0  0  0  0  0  0  0  0  0
    3.4263   16.7639    0.2701 H   0  0  0  0  0  0  0  0  0  0  0  0
    3.2933   18.9492    0.5832 H   0  0  0  0  0  0  0  0  0  0  0  0
    2.6616   19.1801   -1.1003 H   0  0  0  0  0  0  0  0  0  0  0  0
    1.6275   19.5969    1.2059 H   0  0  0  0  0  0  0  0  0  0  0  0
    0.6461   18.2597   -2.2407 H   0  0  0  0  0  0  0  0  0  0  0  0
   -0.9801   19.0101   -2.3780 H   0  0  0  0  0  0  0  0  0  0  0  0
    0.4889   20.0438   -2.3780 H   0  0  0  0  0  0  0  0  0  0  0  0
   -1.1416   20.0225    1.1762 H   0  0  0  0  0  0  0  0  0  0  0  0
   -1.0879   21.0873   -0.2695 H   0  0  0  0  0  0  0  0  0  0  0  0
   -2.1308   19.6248   -0.2695 H   0  0  0  0  0  0  0  0  0  0  0  0
    2.1843   15.2763   -2.7928 H   0  0  0  0  0  0  0  0  0  0  0  0
    4.3289   14.6382   -3.7019 H   0  0  0  0  0  0  0  0  0  0  0  0
    5.2072   15.3308   -2.3216 H   0  0  0  0  0  0  0  0  0  0  0  0
    4.7351   12.5467   -2.7621 H   0  0  0  0  0  0  0  0  0  0  0  0
    5.2628   13.2274   -1.2255 H   0  0  0  0  0  0  0  0  0  0  0  0
    1.3061   12.0227   -2.2677 H   0  0  0  0  0  0  0  0  0  0  0  0
    1.9421   13.3949   -3.2369 H   0  0  0  0  0  0  0  0  0  0  0  0
    2.8047   11.8193   -3.2369 H   0  0  0  0  0  0  0  0  0  0  0  0
    3.7679   12.3499    0.4656 H   0  0  0  0  0  0  0  0  0  0  0  0
    4.2445   10.6174   -1.3816 H   0  0  0  0  0  0  0  0  0  0  0  0
    3.8598   10.0932    0.3408 H   0  0  0  0  0  0  0  0  0  0  0  0
    2.7316    8.6912   -1.5829 H   0  0  0  0  0  0  0  0  0  0  0  0
    0.1407   11.7208   -0.9441 H   0  0  0  0  0  0  0  0  0  0  0  0
   -0.1512    9.9260    1.5431 H   0  0  0  0  0  0  0  0  0  0  0  0
   -1.0387   11.4782    1.2051 H   0  0  0  0  0  0  0  0  0  0  0  0
   -2.4414    9.4845    0.7787 H   0  0  0  0  0  0  0  0  0  0  0  0
   -2.1409   10.4679   -0.7071 H   0  0  0  0  0  0  0  0  0  0  0  0
   -1.9290    8.1447   -1.2668 H   0  0  0  0  0  0  0  0  0  0  0  0
   -0.1950    8.1600    1.0130 H   0  0  0  0  0  0  0  0  0  0  0  0
   -1.1569   10.5059   -2.5334 H   0  0  0  0  0  0  0  0  0  0  0  0
    0.3026   10.0571   -3.4794 H   0  0  0  0  0  0  0  0  0  0  0  0
   -1.1342    8.9790   -3.4794 H   0  0  0  0  0  0  0  0  0  0  0  0
    0.8887    6.9318   -1.3362 H   0  0  0  0  0  0  0  0  0  0  0  0
   -0.1493    7.0725   -2.7955 H   0  0  0  0  0  0  0  0  0  0  0  0
    1.5010    7.7817   -2.7955 H   0  0  0  0  0  0  0  0  0  0  0  0
    1.5686   12.0617    2.7253 H   0  0  0  0  0  0  0  0  0  0  0  0
    1.4250   10.3911    2.0809 H   0  0  0  0  0  0  0  0  0  0  0  0
    3.0187   11.2199    2.0809 H   0  0  0  0  0  0  0  0  0  0  0  0
   -0.0332   13.2721    0.9366 H   0  0  0  0  0  0  0  0  0  0  0  0
    1.6132   13.7909    1.6106 H   0  0  0  0  0  0  0  0  0  0  0  0
    0.5970   14.1004   -1.2285 H   0  0  0  0  0  0  0  0  0  0  0  0
    0.9722   15.3888   -0.0176 H   0  0  0  0  0  0  0  0  0  0  0  0
    3.0893   14.6290    1.2960 H   0  0  0  0  0  0  0  0  0  0  0  0
    4.5677   14.4207    0.2972 H   0  0  0  0  0  0  0  0  0  0  0  0
    3.6979   15.9923    0.2972 H   0  0  0  0  0  0  0  0  0  0  0  0
  1  2  1  0
  2  3  1  0
  3  4  1  0
  4  5  1  0
  5  6  1  0
  6  7  1  0
  7  8  1  0
  7  9  1  0
  2 10  1  0
 10 11  1  0
 11 12  1  0
 12 13  1  0
 13 14  1  6
 13 15  1  0
 15 16  1  0
 16 17  1  0
 17 18  2  0
 18 19  1  0
 19 20  1  0
 20 21  1  0
 21 22  1  0
 22 23  1  0
 22 24  1  0
 24 25  1  0
 24 26  1  0
 19 27  1  0
 27 28  1  1
 27 29  1  0
 29 30  1  0
 30 31  1  0
 31 32  1  1
  7  5  1  0
 31 10  1  0
 31 13  1  0
 27 15  1  0
 24 18  1  0
  1 33  1  0
  1 34  1  0
  1 35  1  0
  2 36  1  6
  3 37  1  0
  3 38  1  0
  4 39  1  0
  4 40  1  0
  5 41  1  1
  8 42  1  0
  8 43  1  0
  8 44  1  0
  9 45  1  0
  9 46  1  0
  9 47  1  0
 10 48  1  6
 11 49  1  0
 11 50  1  0
 12 51  1  0
 12 52  1  0
 14 53  1  0
 14 54  1  0
 14 55  1  0
 15 56  1  1
 16 57  1  0
 16 58  1  0
 17 59  1  0
 19 60  1  6
 20 61  1  0
 20 62  1  0
 21 63  1  0
 21 64  1  0
 22 65  1  6
 23 66  1  0
 25 67  1  0
 25 68  1  0
 25 69  1  0
 26 70  1  0
 26 71  1  0
 26 72  1  0
 28 73  1  0
 28 74  1  0
 28 75  1  0
 29 76  1  0
 29 77  1  0
 30 78  1  0
 30 79  1  0
 32 80  1  0
 32 81  1  0
 32 82  1  0
M  END
>  <meeko>  (19) 
{"is_sidechain": [false], "intermolecular_energy": 2.731, "internal_energy": -0.839}

$$$$
EPH_relaxed_0001_pdb2pqr_Repair_261_r2_0001_out
     RDKit          3D

 82 86  0  0  0  0  0  0  0  0999 V2000
  -14.9790    9.1570    0.7750 C   0  0  0  0  0  0  0  0  0  0  0  0
  -14.0960    9.2370   -0.4740 C   0  0  2  0  0  0  0  0  0  0  0  0
  -14.5080    8.2040   -1.5420 C   0  0  0  0  0  0  0  0  0  0  0  0
  -14.6100    8.7870   -2.9540 C   0  0  0  0  0  0  0  0  0  0  0  0
  -15.2870   10.1240   -2.9550 C   0  0  2  0  0  0  0  0  0  0  0  0
  -15.0060   10.9370   -4.1010 O   0  0  0  0  0  0  0  0  0  0  0  0
  -14.5410   11.4400   -2.8380 C   0  0  0  0  0  0  0  0  0  0  0  0
  -13.0510   11.4830   -2.7120 C   0  0  0  0  0  0  0  0  0  0  0  0
  -15.2880   12.6450   -2.3580 C   0  0  0  0  0  0  0  0  0  0  0  0
  -12.6350    9.0360   -0.0910 C   0  0  1  0  0  0  0  0  0  0  0  0
  -12.4320    8.9030    1.4420 C   0  0  0  0  0  0  0  0  0  0  0  0
  -11.2720    7.8960    1.6540 C   0  0  0  0  0  0  0  0  0  0  0  0
  -10.6320    7.7380    0.2550 C   0  0  1  0  0  0  0  0  0  0  0  0
   -9.6950    8.9770    0.1010 C   0  0  0  0  0  0  0  0  0  0  0  0
   -9.8670    6.4000   -0.0080 C   0  0  2  0  0  0  0  0  0  0  0  0
   -8.6460    6.1580    0.8960 C   0  0  0  0  0  0  0  0  0  0  0  0
   -7.3490    6.6760    0.3690 C   0  0  0  0  0  0  0  0  0  0  0  0
   -7.1170    7.0550   -0.9010 C   0  0  0  0  0  0  0  0  0  0  0  0
   -8.1920    6.8880   -1.9820 C   0  0  1  0  0  0  0  0  0  0  0  0
   -7.5580    6.2610   -3.2520 C   0  0  0  0  0  0  0  0  0  0  0  0
   -6.3470    7.0450   -3.7490 C   0  0  0  0  0  0  0  0  0  0  0  0
   -5.2760    7.1390   -2.6660 C   0  0  2  0  0  0  0  0  0  0  0  0
   -4.7510    5.8300   -2.4220 O   0  0  0  0  0  0  0  0  0  0  0  0
   -5.8010    7.7470   -1.3360 C   0  0  0  0  0  0  0  0  0  0  0  0
   -6.0880    9.2570   -1.5310 C   0  0  0  0  0  0  0  0  0  0  0  0
   -4.6620    7.6550   -0.2850 C   0  0  0  0  0  0  0  0  0  0  0  0
   -9.5200    6.1410   -1.5300 C   0  0  1  0  0  0  0  0  0  0  0  0
   -9.3430    4.6000   -1.6900 C   0  0  0  0  0  0  0  0  0  0  0  0
  -10.6960    6.5550   -2.4910 C   0  0  0  0  0  0  0  0  0  0  0  0
  -11.4900    7.8190   -2.1130 C   0  0  0  0  0  0  0  0  0  0  0  0
  -11.9210    7.7760   -0.6430 C   0  0  2  0  0  0  0  0  0  0  0  0
  -12.8830    6.5530   -0.4620 C   0  0  0  0  0  0  0  0  0  0  0  0
  -14.3481    9.2142    1.6743 H   0  0  0  0  0  0  0  0  0  0  0  0
  -15.6925    9.9942    0.7738 H   0  0  0  0  0  0  0  0  0  0  0  0
  -15.5305    8.2052    0.7738 H   0  0  0  0  0  0  0  0  0  0  0  0
  -14.2308   10.2370   -0.9120 H   0  0  0  0  0  0  0  0  0  0  0  0
  -13.7599    7.3977   -1.5523 H   0  0  0  0  0  0  0  0  0  0  0  0
  -15.5106    7.8423   -1.2700 H   0  0  0  0  0  0  0  0  0  0  0  0
  -13.5967    8.9004   -3.3667 H   0  0  0  0  0  0  0  0  0  0  0  0
  -15.2108    8.0984   -3.5663 H   0  0  0  0  0  0  0  0  0  0  0  0
  -16.1491    9.7135   -2.4088 H   0  0  0  0  0  0  0  0  0  0  0  0
  -12.7731   11.4910   -1.6477 H   0  0  0  0  0  0  0  0  0  0  0  0
  -12.6162   10.5970   -3.1978 H   0  0  0  0  0  0  0  0  0  0  0  0
  -12.6680   12.3926   -3.1978 H   0  0  0  0  0  0  0  0  0  0  0  0
  -15.2958   12.6575   -1.2581 H   0  0  0  0  0  0  0  0  0  0  0  0
  -14.7952   13.5547   -2.7316 H   0  0  0  0  0  0  0  0  0  0  0  0
  -16.3220   12.6083   -2.7316 H   0  0  0  0  0  0  0  0  0  0  0  0
  -12.2011    9.9416   -0.5400 H   0  0  0  0  0  0  0  0  0  0  0  0
  -12.1700    9.8794    1.8755 H   0  0  0  0  0  0  0  0  0  0  0  0
  -13.3523    8.5545    1.9335 H   0  0  0  0  0  0  0  0  0  0  0  0
  -10.5402    8.2924    2.3733 H   0  0  0  0  0  0  0  0  0  0  0  0
  -11.6218    6.9368    2.0634 H   0  0  0  0  0  0  0  0  0  0  0  0
   -9.4132    9.3496    1.0969 H   0  0  0  0  0  0  0  0  0  0  0  0
   -8.7894    8.6855   -0.4512 H   0  0  0  0  0  0  0  0  0  0  0  0
  -10.2221    9.7690   -0.4512 H   0  0  0  0  0  0  0  0  0  0  0  0
  -10.6091    5.6423    0.2839 H   0  0  0  0  0  0  0  0  0  0  0  0
   -8.8380    6.6443    1.8638 H   0  0  0  0  0  0  0  0  0  0  0  0
   -8.5313    5.0662    0.9662 H   0  0  0  0  0  0  0  0  0  0  0  0
   -6.5123    6.7545    1.0788 H   0  0  0  0  0  0  0  0  0  0  0  0
   -8.5548    7.9015   -2.2083 H   0  0  0  0  0  0  0  0  0  0  0  0
   -7.2413    5.2339   -3.0178 H   0  0  0  0  0  0  0  0  0  0  0  0
   -8.3171    6.2788   -4.0479 H   0  0  0  0  0  0  0  0  0  0  0  0
   -5.9256    6.5368   -4.6289 H   0  0  0  0  0  0  0  0  0  0  0  0
   -6.6713    8.0629   -4.0112 H   0  0  0  0  0  0  0  0  0  0  0  0
   -4.4937    7.8189   -3.0343 H   0  0  0  0  0  0  0  0  0  0  0  0
   -5.0370    5.2570   -3.1540 H   0  0  0  0  0  0  0  0  0  0  0  0
   -6.1803    9.7426   -0.5483 H   0  0  0  0  0  0  0  0  0  0  0  0
   -5.2614    9.7179   -2.0916 H   0  0  0  0  0  0  0  0  0  0  0  0
   -7.0261    9.3825   -2.0916 H   0  0  0  0  0  0  0  0  0  0  0  0
   -5.0928    7.6898    0.7265 H   0  0  0  0  0  0  0  0  0  0  0  0
   -4.1154    6.7098   -0.4184 H   0  0  0  0  0  0  0  0  0  0  0  0
   -3.9708    8.5002   -0.4184 H   0  0  0  0  0  0  0  0  0  0  0  0
   -9.2892    4.1319   -0.6960 H   0  0  0  0  0  0  0  0  0  0  0  0
  -10.1997    4.1880   -2.2434 H   0  0  0  0  0  0  0  0  0  0  0  0
   -8.4152    4.3930   -2.2434 H   0  0  0  0  0  0  0  0  0  0  0  0
  -10.2669    6.7182   -3.4906 H   0  0  0  0  0  0  0  0  0  0  0  0
  -11.4215    5.7305   -2.4294 H   0  0  0  0  0  0  0  0  0  0  0  0
  -10.8575    8.7039   -2.2769 H   0  0  0  0  0  0  0  0  0  0  0  0
  -12.3912    7.8685   -2.7418 H   0  0  0  0  0  0  0  0  0  0  0  0
  -13.0341    6.3609    0.6105 H   0  0  0  0  0  0  0  0  0  0  0  0
  -13.8511    6.7749   -0.9347 H   0  0  0  0  0  0  0  0  0  0  0  0
  -12.4393    5.6644   -0.9347 H   0  0  0  0  0  0  0  0  0  0  0  0
  1  2  1  0
  2  3  1  0
  3  4  1  0
  4  5  1  0
  5  6  1  0
  6  7  1  0
  7  8  1  0
  7  9  1  0
  2 10  1  0
 10 11  1  0
 11 12  1  0
 12 13  1  0
 13 14  1  6
 13 15  1  0
 15 16  1  0
 16 17  1  0
 17 18  2  0
 18 19  1  0
 19 20  1  0
 20 21  1  0
 21 22  1  0
 22 23  1  0
 22 24  1  0
 24 25  1  0
 24 26  1  0
 19 27  1  0
 27 28  1  1
 27 29  1  0
 29 30  1  0
 30 31  1  0
 31 32  1  6
  7  5  1  0
 31 10  1  0
 31 13  1  0
 27 15  1  0
 24 18  1  0
  1 33  1  0
  1 34  1  0
  1 35  1  0
  2 36  1  6
  3 37  1  0
  3 38  1  0
  4 39  1  0
  4 40  1  0
  5 41  1  1
  8 42  1  0
  8 43  1  0
  8 44  1  0
  9 45  1  0
  9 46  1  0
  9 47  1  0
 10 48  1  6
 11 49  1  0
 11 50  1  0
 12 51  1  0
 12 52  1  0
 14 53  1  0
 14 54  1  0
 14 55  1  0
 15 56  1  1
 16 57  1  0
 16 58  1  0
 17 59  1  0
 19 60  1  6
 20 61  1  0
 20 62  1  0
 21 63  1  0
 21 64  1  0
 22 65  1  6
 23 66  1  0
 25 67  1  0
 25 68  1  0
 25 69  1  0
 26 70  1  0
 26 71  1  0
 26 72  1  0
 28 73  1  0
 28 74  1  0
 28 75  1  0
 29 76  1  0
 29 77  1  0
 30 78  1  0
 30 79  1  0
 32 80  1  0
 32 81  1  0
 32 82  1  0
M  END
>  <meeko>  (20) 
{"is_sidechain": [false], "intermolecular_energy": 2.731, "internal_energy": -0.839}

$$$$
