EPH_relaxed_0001_pdb2pqr_Repair_216_r2_0001_out
     RDKit          3D

 82 86  0  0  0  0  0  0  0  0999 V2000
   -1.7530    8.6400   -1.7740 C   0  0  0  0  0  0  0  0  0  0  0  0
   -1.7820    9.0340   -0.2950 C   0  0  2  0  0  0  0  0  0  0  0  0
   -3.2200    9.2350    0.2240 C   0  0  0  0  0  0  0  0  0  0  0  0
   -4.2910    9.0970   -0.8610 C   0  0  0  0  0  0  0  0  0  0  0  0
   -4.8750    7.7170   -0.8920 C   0  0  2  0  0  0  0  0  0  0  0  0
   -5.0000    7.1500   -2.2030 O   0  0  0  0  0  0  0  0  0  0  0  0
   -6.2280    7.3940   -1.4980 C   0  0  0  0  0  0  0  0  0  0  0  0
   -7.0810    8.4590   -2.1140 C   0  0  0  0  0  0  0  0  0  0  0  0
   -6.9300    6.1470   -1.0580 C   0  0  0  0  0  0  0  0  0  0  0  0
   -0.9680   10.3040   -0.0800 C   0  0  1  0  0  0  0  0  0  0  0  0
    0.1060   10.1450    1.0280 C   0  0  0  0  0  0  0  0  0  0  0  0
    1.3290   10.9920    0.5910 C   0  0  0  0  0  0  0  0  0  0  0  0
    0.8020   11.8670   -0.5700 C   0  0  1  0  0  0  0  0  0  0  0  0
    0.0660   13.0560    0.1240 C   0  0  0  0  0  0  0  0  0  0  0  0
    1.8690   12.3690   -1.5970 C   0  0  2  0  0  0  0  0  0  0  0  0
    2.9540   13.2900   -1.0120 C   0  0  0  0  0  0  0  0  0  0  0  0
    2.6400   14.7490   -1.0510 C   0  0  0  0  0  0  0  0  0  0  0  0
    1.6680   15.3210   -1.7860 C   0  0  0  0  0  0  0  0  0  0  0  0
    0.8260   14.4890   -2.7620 C   0  0  1  0  0  0  0  0  0  0  0  0
    0.7240   15.2310   -4.1200 C   0  0  0  0  0  0  0  0  0  0  0  0
    0.2050   16.6580   -3.9710 C   0  0  0  0  0  0  0  0  0  0  0  0
    1.1010   17.4700   -3.0390 C   0  0  2  0  0  0  0  0  0  0  0  0
    2.3780   17.6420   -3.6620 O   0  0  0  0  0  0  0  0  0  0  0  0
    1.2860   16.8150   -1.6420 C   0  0  0  0  0  0  0  0  0  0  0  0
   -0.0400   16.9020   -0.8470 C   0  0  0  0  0  0  0  0  0  0  0  0
    2.3220   17.6590   -0.8520 C   0  0  0  0  0  0  0  0  0  0  0  0
    1.2570   12.9690   -2.9270 C   0  0  1  0  0  0  0  0  0  0  0  0
    2.3610   12.8450   -4.0210 C   0  0  0  0  0  0  0  0  0  0  0  0
    0.0240   12.1380   -3.4460 C   0  0  0  0  0  0  0  0  0  0  0  0
   -0.9290   11.5680   -2.3770 C   0  0  0  0  0  0  0  0  0  0  0  0
   -0.1480   10.8360   -1.2820 C   0  0  2  0  0  0  0  0  0  0  0  0
    0.5850    9.6210   -1.9470 C   0  0  0  0  0  0  0  0  0  0  0  0
   -1.6725    7.5464   -1.8606 H   0  0  0  0  0  0  0  0  0  0  0  0
   -2.6786    8.9793   -2.2621 H   0  0  0  0  0  0  0  0  0  0  0  0
   -0.8871    9.1112   -2.2621 H   0  0  0  0  0  0  0  0  0  0  0  0
   -1.3375    8.2064    0.2772 H   0  0  0  0  0  0  0  0  0  0  0  0
   -3.4162    8.4836    1.0031 H   0  0  0  0  0  0  0  0  0  0  0  0
   -3.2822   10.2640    0.6079 H   0  0  0  0  0  0  0  0  0  0  0  0
   -5.0956    9.8201   -0.6615 H   0  0  0  0  0  0  0  0  0  0  0  0
   -3.8187    9.2911   -1.8353 H   0  0  0  0  0  0  0  0  0  0  0  0
   -4.4295    7.4808    0.0856 H   0  0  0  0  0  0  0  0  0  0  0  0
   -7.5567    9.0529   -1.3196 H   0  0  0  0  0  0  0  0  0  0  0  0
   -6.4555    9.1148   -2.7375 H   0  0  0  0  0  0  0  0  0  0  0  0
   -7.8575    7.9918   -2.7375 H   0  0  0  0  0  0  0  0  0  0  0  0
   -6.9524    6.1072    0.0411 H   0  0  0  0  0  0  0  0  0  0  0  0
   -7.9593    6.1494   -1.4459 H   0  0  0  0  0  0  0  0  0  0  0  0
   -6.3940    5.2682   -1.4459 H   0  0  0  0  0  0  0  0  0  0  0  0
   -1.7811   11.0050    0.1598 H   0  0  0  0  0  0  0  0  0  0  0  0
   -0.2843   10.5111    1.9891 H   0  0  0  0  0  0  0  0  0  0  0  0
    0.3840    9.0889    1.1597 H   0  0  0  0  0  0  0  0  0  0  0  0
    1.6828   11.6206    1.4215 H   0  0  0  0  0  0  0  0  0  0  0  0
    2.1826   10.3675    0.2888 H   0  0  0  0  0  0  0  0  0  0  0  0
    0.1358   12.9432    1.2160 H   0  0  0  0  0  0  0  0  0  0  0  0
    0.5355   14.0040   -0.1775 H   0  0  0  0  0  0  0  0  0  0  0  0
   -0.9919   13.0586   -0.1775 H   0  0  0  0  0  0  0  0  0  0  0  0
    2.3849   11.4382   -1.8753 H   0  0  0  0  0  0  0  0  0  0  0  0
    3.1124   13.0043    0.0384 H   0  0  0  0  0  0  0  0  0  0  0  0
    3.8435   13.1528   -1.6445 H   0  0  0  0  0  0  0  0  0  0  0  0
    3.2552   15.4131   -0.4260 H   0  0  0  0  0  0  0  0  0  0  0  0
   -0.1722   14.4045   -2.3077 H   0  0  0  0  0  0  0  0  0  0  0  0
    1.7233   15.2656   -4.5786 H   0  0  0  0  0  0  0  0  0  0  0  0
    0.0085   14.6800   -4.7480 H   0  0  0  0  0  0  0  0  0  0  0  0
    0.1848   17.1388   -4.9601 H   0  0  0  0  0  0  0  0  0  0  0  0
   -0.8067   16.6205   -3.5408 H   0  0  0  0  0  0  0  0  0  0  0  0
    0.6078   18.4383   -2.8684 H   0  0  0  0  0  0  0  0  0  0  0  0
    3.0590   17.4300   -3.0020 H   0  0  0  0  0  0  0  0  0  0  0  0
    0.1773   16.8877    0.2312 H   0  0  0  0  0  0  0  0  0  0  0  0
   -0.5608   17.8362   -1.1037 H   0  0  0  0  0  0  0  0  0  0  0  0
   -0.6784   16.0438   -1.1037 H   0  0  0  0  0  0  0  0  0  0  0  0
    2.1575   17.5250    0.2273 H   0  0  0  0  0  0  0  0  0  0  0  0
    3.3386   17.3287   -1.1118 H   0  0  0  0  0  0  0  0  0  0  0  0
    2.2040   18.7214   -1.1118 H   0  0  0  0  0  0  0  0  0  0  0  0
    3.3438   12.7346   -3.5393 H   0  0  0  0  0  0  0  0  0  0  0  0
    2.1588   11.9639   -4.6477 H   0  0  0  0  0  0  0  0  0  0  0  0
    2.3593   13.7490   -4.6477 H   0  0  0  0  0  0  0  0  0  0  0  0
   -0.5665   12.7936   -4.1028 H   0  0  0  0  0  0  0  0  0  0  0  0
    0.4584   11.2581   -3.9432 H   0  0  0  0  0  0  0  0  0  0  0  0
   -1.4966   12.3940   -1.9235 H   0  0  0  0  0  0  0  0  0  0  0  0
   -1.6108   10.8525   -2.8600 H   0  0  0  0  0  0  0  0  0  0  0  0
    0.9838    8.9599   -1.1635 H   0  0  0  0  0  0  0  0  0  0  0  0
   -0.1262    9.0612   -2.5721 H   0  0  0  0  0  0  0  0  0  0  0  0
    1.4119    9.9891   -2.5721 H   0  0  0  0  0  0  0  0  0  0  0  0
  1  2  1  0
  2  3  1  0
  3  4  1  0
  4  5  1  0
  5  6  1  0
  6  7  1  0
  7  8  1  0
  7  9  1  0
  2 10  1  0
 10 11  1  0
 11 12  1  0
 12 13  1  0
 13 14  1  1
 13 15  1  0
 15 16  1  0
 16 17  1  0
 17 18  2  0
 18 19  1  0
 19 20  1  0
 20 21  1  0
 21 22  1  0
 22 23  1  0
 22 24  1  0
 24 25  1  0
 24 26  1  0
 19 27  1  0
 27 28  1  6
 27 29  1  0
 29 30  1  0
 30 31  1  0
 31 32  1  6
  7  5  1  0
 31 10  1  0
 31 13  1  0
 27 15  1  0
 24 18  1  0
  1 33  1  0
  1 34  1  0
  1 35  1  0
  2 36  1  1
  3 37  1  0
  3 38  1  0
  4 39  1  0
  4 40  1  0
  5 41  1  1
  8 42  1  0
  8 43  1  0
  8 44  1  0
  9 45  1  0
  9 46  1  0
  9 47  1  0
 10 48  1  1
 11 49  1  0
 11 50  1  0
 12 51  1  0
 12 52  1  0
 14 53  1  0
 14 54  1  0
 14 55  1  0
 15 56  1  6
 16 57  1  0
 16 58  1  0
 17 59  1  0
 19 60  1  1
 20 61  1  0
 20 62  1  0
 21 63  1  0
 21 64  1  0
 22 65  1  1
 23 66  1  0
 25 67  1  0
 25 68  1  0
 25 69  1  0
 26 70  1  0
 26 71  1  0
 26 72  1  0
 28 73  1  0
 28 74  1  0
 28 75  1  0
 29 76  1  0
 29 77  1  0
 30 78  1  0
 30 79  1  0
 32 80  1  0
 32 81  1  0
 32 82  1  0
M  END
>  <meeko>  (1) 
{"is_sidechain": [false], "intermolecular_energy": 2.731, "internal_energy": -0.839}

$$$$
EPH_relaxed_0001_pdb2pqr_Repair_216_r2_0001_out
     RDKit          3D

 82 86  0  0  0  0  0  0  0  0999 V2000
    2.1380   18.0920   -3.2360 C   0  0  0  0  0  0  0  0  0  0  0  0
    0.8420   17.7240   -2.5080 C   0  0  2  0  0  0  0  0  0  0  0  0
    0.9610   17.9090   -0.9820 C   0  0  0  0  0  0  0  0  0  0  0  0
    0.6250   19.3250   -0.5050 C   0  0  0  0  0  0  0  0  0  0  0  0
   -0.5600   19.3340    0.4130 C   0  0  2  0  0  0  0  0  0  0  0  0
   -1.5690   18.3660    0.0970 O   0  0  0  0  0  0  0  0  0  0  0  0
   -1.9530   19.7460   -0.0250 C   0  0  0  0  0  0  0  0  0  0  0  0
   -2.2340   20.1770   -1.4300 C   0  0  0  0  0  0  0  0  0  0  0  0
   -2.9270   20.1940    1.0190 C   0  0  0  0  0  0  0  0  0  0  0  0
    0.4550   16.2860   -2.8300 C   0  0  1  0  0  0  0  0  0  0  0  0
    0.5790   15.9580   -4.3420 C   0  0  0  0  0  0  0  0  0  0  0  0
    1.0400   14.4820   -4.4430 C   0  0  0  0  0  0  0  0  0  0  0  0
    0.8470   13.9140   -3.0180 C   0  0  1  0  0  0  0  0  0  0  0  0
   -0.6720   13.5650   -2.9280 C   0  0  0  0  0  0  0  0  0  0  0  0
    1.7430   12.6920   -2.6320 C   0  0  2  0  0  0  0  0  0  0  0  0
    1.5200   11.4270   -3.4790 C   0  0  0  0  0  0  0  0  0  0  0  0
    0.4930   10.4810   -2.9530 C   0  0  0  0  0  0  0  0  0  0  0  0
   -0.0180   10.4940   -1.7080 C   0  0  0  0  0  0  0  0  0  0  0  0
    0.5090   11.4730   -0.6500 C   0  0  1  0  0  0  0  0  0  0  0  0
    0.7530   10.7140    0.6810 C   0  0  0  0  0  0  0  0  0  0  0  0
   -0.4800    9.9520    1.1550 C   0  0  0  0  0  0  0  0  0  0  0  0
   -0.9390    8.9480    0.1010 C   0  0  2  0  0  0  0  0  0  0  0  0
    0.0560    7.9280   -0.0290 O   0  0  0  0  0  0  0  0  0  0  0  0
   -1.2070    9.5960   -1.2860 C   0  0  0  0  0  0  0  0  0  0  0  0
   -2.4790   10.4760   -1.2130 C   0  0  0  0  0  0  0  0  0  0  0  0
   -1.5260    8.4560   -2.2920 C   0  0  0  0  0  0  0  0  0  0  0  0
    1.7540   12.3590   -1.0860 C   0  0  1  0  0  0  0  0  0  0  0  0
    3.0800   11.5870   -0.8060 C   0  0  0  0  0  0  0  0  0  0  0  0
    1.7990   13.6560   -0.1940 C   0  0  0  0  0  0  0  0  0  0  0  0
    0.9880   14.8680   -0.6900 C   0  0  0  0  0  0  0  0  0  0  0  0
    1.2840   15.1600   -2.1640 C   0  0  2  0  0  0  0  0  0  0  0  0
    2.8000   15.5360   -2.2820 C   0  0  0  0  0  0  0  0  0  0  0  0
    2.9226   18.3148   -2.4979 H   0  0  0  0  0  0  0  0  0  0  0  0
    2.4565   17.2488   -3.8665 H   0  0  0  0  0  0  0  0  0  0  0  0
    1.9658   18.9768   -3.8665 H   0  0  0  0  0  0  0  0  0  0  0  0
    0.0572   18.4080   -2.8632 H   0  0  0  0  0  0  0  0  0  0  0  0
    0.2722   17.2050   -0.4922 H   0  0  0  0  0  0  0  0  0  0  0  0
    2.0119   17.7215   -0.7166 H   0  0  0  0  0  0  0  0  0  0  0  0
    1.4936   19.7365    0.0300 H   0  0  0  0  0  0  0  0  0  0  0  0
    0.3802   19.9350   -1.3870 H   0  0  0  0  0  0  0  0  0  0  0  0
    0.0686   19.6438    1.2609 H   0  0  0  0  0  0  0  0  0  0  0  0
   -2.8347   21.0984   -1.4177 H   0  0  0  0  0  0  0  0  0  0  0  0
   -1.2846   20.3653   -1.9526 H   0  0  0  0  0  0  0  0  0  0  0  0
   -2.7893   19.3842   -1.9526 H   0  0  0  0  0  0  0  0  0  0  0  0
   -2.5083   20.0014    2.0178 H   0  0  0  0  0  0  0  0  0  0  0  0
   -3.1190   21.2709    0.9033 H   0  0  0  0  0  0  0  0  0  0  0  0
   -3.8696   19.6390    0.9033 H   0  0  0  0  0  0  0  0  0  0  0  0
   -0.5723   16.2795   -2.4367 H   0  0  0  0  0  0  0  0  0  0  0  0
   -0.3943   16.0856   -4.8383 H   0  0  0  0  0  0  0  0  0  0  0  0
    1.2968   16.6305   -4.8344 H   0  0  0  0  0  0  0  0  0  0  0  0
    0.4223   13.9311   -5.1675 H   0  0  0  0  0  0  0  0  0  0  0  0
    2.0800   14.3929   -4.7900 H   0  0  0  0  0  0  0  0  0  0  0  0
   -0.9705   13.4964   -1.8715 H   0  0  0  0  0  0  0  0  0  0  0  0
   -1.2590   14.3517   -3.4245 H   0  0  0  0  0  0  0  0  0  0  0  0
   -0.8568   12.6010   -3.4245 H   0  0  0  0  0  0  0  0  0  0  0  0
    2.7517   13.0485   -2.8877 H   0  0  0  0  0  0  0  0  0  0  0  0
    1.2078   11.7425   -4.4855 H   0  0  0  0  0  0  0  0  0  0  0  0
    2.4739   10.8793   -3.4652 H   0  0  0  0  0  0  0  0  0  0  0  0
    0.1220    9.7072   -3.6412 H   0  0  0  0  0  0  0  0  0  0  0  0
   -0.2807   12.2259   -0.5101 H   0  0  0  0  0  0  0  0  0  0  0  0
    1.5746    9.9978    0.5328 H   0  0  0  0  0  0  0  0  0  0  0  0
    1.0000   11.4605    1.4503 H   0  0  0  0  0  0  0  0  0  0  0  0
   -0.2360    9.4138    2.0828 H   0  0  0  0  0  0  0  0  0  0  0  0
   -1.2922   10.6727    1.3308 H   0  0  0  0  0  0  0  0  0  0  0  0
   -1.8967    8.5273    0.4413 H   0  0  0  0  0  0  0  0  0  0  0  0
    0.8890    8.2840    0.3230 H   0  0  0  0  0  0  0  0  0  0  0  0
   -2.7400   10.6566   -0.1598 H   0  0  0  0  0  0  0  0  0  0  0  0
   -2.2893   11.4369   -1.7137 H   0  0  0  0  0  0  0  0  0  0  0  0
   -3.3113    9.9597   -1.7137 H   0  0  0  0  0  0  0  0  0  0  0  0
   -1.7823    7.5402   -1.7392 H   0  0  0  0  0  0  0  0  0  0  0  0
   -2.3757    8.7523   -2.9246 H   0  0  0  0  0  0  0  0  0  0  0  0
   -0.6459    8.2683   -2.9246 H   0  0  0  0  0  0  0  0  0  0  0  0
    3.2308   11.4992    0.2801 H   0  0  0  0  0  0  0  0  0  0  0  0
    3.0203   10.5825   -1.2503 H   0  0  0  0  0  0  0  0  0  0  0  0
    3.9241   12.1349   -1.2503 H   0  0  0  0  0  0  0  0  0  0  0  0
    1.4201   13.3875    0.8032 H   0  0  0  0  0  0  0  0  0  0  0  0
    2.8488   13.9838   -0.2151 H   0  0  0  0  0  0  0  0  0  0  0  0
   -0.0849   14.6549   -0.5739 H   0  0  0  0  0  0  0  0  0  0  0  0
    1.2727   15.7478   -0.0943 H   0  0  0  0  0  0  0  0  0  0  0  0
    3.2307   15.6428   -1.2755 H   0  0  0  0  0  0  0  0  0  0  0  0
    3.3332   14.7429   -2.8267 H   0  0  0  0  0  0  0  0  0  0  0  0
    2.9008   16.4863   -2.8267 H   0  0  0  0  0  0  0  0  0  0  0  0
  1  2  1  0
  2  3  1  0
  3  4  1  0
  4  5  1  0
  5  6  1  0
  6  7  1  0
  7  8  1  0
  7  9  1  0
  2 10  1  0
 10 11  1  0
 11 12  1  0
 12 13  1  0
 13 14  1  1
 13 15  1  0
 15 16  1  0
 16 17  1  0
 17 18  2  0
 18 19  1  0
 19 20  1  0
 20 21  1  0
 21 22  1  0
 22 23  1  0
 22 24  1  0
 24 25  1  0
 24 26  1  0
 19 27  1  0
 27 28  1  6
 27 29  1  0
 29 30  1  0
 30 31  1  0
 31 32  1  1
  7  5  1  0
 31 10  1  0
 31 13  1  0
 27 15  1  0
 24 18  1  0
  1 33  1  0
  1 34  1  0
  1 35  1  0
  2 36  1  6
  3 37  1  0
  3 38  1  0
  4 39  1  0
  4 40  1  0
  5 41  1  1
  8 42  1  0
  8 43  1  0
  8 44  1  0
  9 45  1  0
  9 46  1  0
  9 47  1  0
 10 48  1  1
 11 49  1  0
 11 50  1  0
 12 51  1  0
 12 52  1  0
 14 53  1  0
 14 54  1  0
 14 55  1  0
 15 56  1  6
 16 57  1  0
 16 58  1  0
 17 59  1  0
 19 60  1  1
 20 61  1  0
 20 62  1  0
 21 63  1  0
 21 64  1  0
 22 65  1  1
 23 66  1  0
 25 67  1  0
 25 68  1  0
 25 69  1  0
 26 70  1  0
 26 71  1  0
 26 72  1  0
 28 73  1  0
 28 74  1  0
 28 75  1  0
 29 76  1  0
 29 77  1  0
 30 78  1  0
 30 79  1  0
 32 80  1  0
 32 81  1  0
 32 82  1  0
M  END
>  <meeko>  (2) 
{"is_sidechain": [false], "intermolecular_energy": 2.731, "internal_energy": -0.839}

$$$$
EPH_relaxed_0001_pdb2pqr_Repair_216_r2_0001_out
     RDKit          3D

 82 86  0  0  0  0  0  0  0  0999 V2000
    0.1120   18.7170   -2.3730 C   0  0  0  0  0  0  0  0  0  0  0  0
    0.9290   17.6560   -1.6310 C   0  0  2  0  0  0  0  0  0  0  0  0
    2.4470   17.8860   -1.7760 C   0  0  0  0  0  0  0  0  0  0  0  0
    2.9930   18.9890   -0.8650 C   0  0  0  0  0  0  0  0  0  0  0  0
    4.2670   18.5720   -0.1940 C   0  0  2  0  0  0  0  0  0  0  0  0
    4.0950   17.6770    0.9120 O   0  0  0  0  0  0  0  0  0  0  0  0
    4.6340   18.9720    1.2230 C   0  0  0  0  0  0  0  0  0  0  0  0
    3.7270   19.8250    2.0540 C   0  0  0  0  0  0  0  0  0  0  0  0
    6.0760   18.9440    1.6230 C   0  0  0  0  0  0  0  0  0  0  0  0
    0.5610   16.2670   -2.1390 C   0  0  1  0  0  0  0  0  0  0  0  0
    0.7950   16.1080   -3.6650 C   0  0  0  0  0  0  0  0  0  0  0  0
    1.2570   14.6460   -3.8960 C   0  0  0  0  0  0  0  0  0  0  0  0
    0.9570   13.9260   -2.5600 C   0  0  1  0  0  0  0  0  0  0  0  0
   -0.5650   13.5870   -2.6200 C   0  0  0  0  0  0  0  0  0  0  0  0
    1.8190   12.6590   -2.2500 C   0  0  2  0  0  0  0  0  0  0  0  0
    1.6540   11.4980   -3.2460 C   0  0  0  0  0  0  0  0  0  0  0  0
    0.5870   10.5110   -2.9040 C   0  0  0  0  0  0  0  0  0  0  0  0
   -0.0140   10.3920   -1.7060 C   0  0  0  0  0  0  0  0  0  0  0  0
    0.4380   11.2410   -0.5110 C   0  0  1  0  0  0  0  0  0  0  0  0
    0.5810   10.3370    0.7420 C   0  0  0  0  0  0  0  0  0  0  0  0
   -0.6870    9.5410    1.0370 C   0  0  0  0  0  0  0  0  0  0  0  0
   -1.0710    8.6660   -0.1530 C   0  0  2  0  0  0  0  0  0  0  0  0
   -0.0730    7.6550   -0.3230 O   0  0  0  0  0  0  0  0  0  0  0  0
   -1.2340    9.4670   -1.4750 C   0  0  0  0  0  0  0  0  0  0  0  0
   -2.5050   10.3490   -1.3960 C   0  0  0  0  0  0  0  0  0  0  0  0
   -1.4820    8.4500   -2.6220 C   0  0  0  0  0  0  0  0  0  0  0  0
    1.7150   12.1550   -0.7530 C   0  0  1  0  0  0  0  0  0  0  0  0
    3.0140   11.3420   -0.4660 C   0  0  0  0  0  0  0  0  0  0  0  0
    1.6990   13.3450    0.2790 C   0  0  0  0  0  0  0  0  0  0  0  0
    0.9310   14.6140   -0.1360 C   0  0  0  0  0  0  0  0  0  0  0  0
    1.3350   15.0640   -1.5440 C   0  0  2  0  0  0  0  0  0  0  0  0
    2.8580   15.4330   -1.5090 C   0  0  0  0  0  0  0  0  0  0  0  0
   -0.3903   19.3694   -1.6436 H   0  0  0  0  0  0  0  0  0  0  0  0
    0.7813   19.3200   -3.0043 H   0  0  0  0  0  0  0  0  0  0  0  0
   -0.6420   18.2240   -3.0043 H   0  0  0  0  0  0  0  0  0  0  0  0
    0.6837   17.7371   -0.5618 H   0  0  0  0  0  0  0  0  0  0  0  0
    2.9652   16.9467   -1.5328 H   0  0  0  0  0  0  0  0  0  0  0  0
    2.6254   18.2080   -2.8126 H   0  0  0  0  0  0  0  0  0  0  0  0
    3.1856   19.8878   -1.4691 H   0  0  0  0  0  0  0  0  0  0  0  0
    2.2445   19.1921   -0.0850 H   0  0  0  0  0  0  0  0  0  0  0  0
    4.8171   18.6345   -1.1445 H   0  0  0  0  0  0  0  0  0  0  0  0
    3.9242   19.6395    3.1202 H   0  0  0  0  0  0  0  0  0  0  0  0
    3.9104   20.8854    1.8262 H   0  0  0  0  0  0  0  0  0  0  0  0
    2.6798   19.5769    1.8262 H   0  0  0  0  0  0  0  0  0  0  0  0
    6.1521   18.9425    2.7204 H   0  0  0  0  0  0  0  0  0  0  0  0
    6.5504   18.0365    1.2213 H   0  0  0  0  0  0  0  0  0  0  0  0
    6.5853   19.8324    1.2213 H   0  0  0  0  0  0  0  0  0  0  0  0
   -0.4925   16.2287   -1.8249 H   0  0  0  0  0  0  0  0  0  0  0  0
   -0.1385   16.3016   -4.2137 H   0  0  0  0  0  0  0  0  0  0  0  0
    1.5494   16.8226   -4.0258 H   0  0  0  0  0  0  0  0  0  0  0  0
    0.6923   14.1860   -4.7203 H   0  0  0  0  0  0  0  0  0  0  0  0
    2.3194   14.5833   -4.1741 H   0  0  0  0  0  0  0  0  0  0  0  0
   -0.9616   13.4987   -1.5978 H   0  0  0  0  0  0  0  0  0  0  0  0
   -1.0984   14.3883   -3.1523 H   0  0  0  0  0  0  0  0  0  0  0  0
   -0.7079   12.6350   -3.1523 H   0  0  0  0  0  0  0  0  0  0  0  0
    2.8445   13.0308   -2.3917 H   0  0  0  0  0  0  0  0  0  0  0  0
    1.4176   11.9264   -4.2312 H   0  0  0  0  0  0  0  0  0  0  0  0
    2.6023   10.9409   -3.2238 H   0  0  0  0  0  0  0  0  0  0  0  0
    0.2648    9.8225   -3.6991 H   0  0  0  0  0  0  0  0  0  0  0  0
   -0.3574   11.9830   -0.3472 H   0  0  0  0  0  0  0  0  0  0  0  0
    1.4091    9.6323    0.5757 H   0  0  0  0  0  0  0  0  0  0  0  0
    0.7732   10.9910    1.6054 H   0  0  0  0  0  0  0  0  0  0  0  0
   -0.5138    8.9001    1.9141 H   0  0  0  0  0  0  0  0  0  0  0  0
   -1.5073   10.2473    1.2327 H   0  0  0  0  0  0  0  0  0  0  0  0
   -2.0528    8.2217    0.0675 H   0  0  0  0  0  0  0  0  0  0  0  0
    0.7300    7.9540    0.1360 H   0  0  0  0  0  0  0  0  0  0  0  0
   -2.7624   10.5276   -0.3416 H   0  0  0  0  0  0  0  0  0  0  0  0
   -2.3155   11.3107   -1.8952 H   0  0  0  0  0  0  0  0  0  0  0  0
   -3.3396    9.8350   -1.8952 H   0  0  0  0  0  0  0  0  0  0  0  0
   -1.7220    7.4656   -2.1937 H   0  0  0  0  0  0  0  0  0  0  0  0
   -2.3224    8.7948   -3.2424 H   0  0  0  0  0  0  0  0  0  0  0  0
   -0.5772    8.3692   -3.2424 H   0  0  0  0  0  0  0  0  0  0  0  0
    3.1577   11.2521    0.6209 H   0  0  0  0  0  0  0  0  0  0  0  0
    2.9239   10.3388   -0.9082 H   0  0  0  0  0  0  0  0  0  0  0  0
    3.8769   11.8615   -0.9082 H   0  0  0  0  0  0  0  0  0  0  0  0
    1.2471   12.9721    1.2100 H   0  0  0  0  0  0  0  0  0  0  0  0
    2.7487   13.6609    0.3703 H   0  0  0  0  0  0  0  0  0  0  0  0
   -0.1483   14.4022   -0.1218 H   0  0  0  0  0  0  0  0  0  0  0  0
    1.1748   15.4190    0.5729 H   0  0  0  0  0  0  0  0  0  0  0  0
    3.1918   15.5139   -0.4640 H   0  0  0  0  0  0  0  0  0  0  0  0
    3.4370   14.6492   -2.0192 H   0  0  0  0  0  0  0  0  0  0  0  0
    3.0140   16.3949   -2.0192 H   0  0  0  0  0  0  0  0  0  0  0  0
  1  2  1  0
  2  3  1  0
  3  4  1  0
  4  5  1  0
  5  6  1  0
  6  7  1  0
  7  8  1  0
  7  9  1  0
  2 10  1  0
 10 11  1  0
 11 12  1  0
 12 13  1  0
 13 14  1  6
 13 15  1  0
 15 16  1  0
 16 17  1  0
 17 18  2  0
 18 19  1  0
 19 20  1  0
 20 21  1  0
 21 22  1  0
 22 23  1  0
 22 24  1  0
 24 25  1  0
 24 26  1  0
 19 27  1  0
 27 28  1  1
 27 29  1  0
 29 30  1  0
 30 31  1  0
 31 32  1  1
  7  5  1  0
 31 10  1  0
 31 13  1  0
 27 15  1  0
 24 18  1  0
  1 33  1  0
  1 34  1  0
  1 35  1  0
  2 36  1  1
  3 37  1  0
  3 38  1  0
  4 39  1  0
  4 40  1  0
  5 41  1  6
  8 42  1  0
  8 43  1  0
  8 44  1  0
  9 45  1  0
  9 46  1  0
  9 47  1  0
 10 48  1  6
 11 49  1  0
 11 50  1  0
 12 51  1  0
 12 52  1  0
 14 53  1  0
 14 54  1  0
 14 55  1  0
 15 56  1  1
 16 57  1  0
 16 58  1  0
 17 59  1  0
 19 60  1  1
 20 61  1  0
 20 62  1  0
 21 63  1  0
 21 64  1  0
 22 65  1  1
 23 66  1  0
 25 67  1  0
 25 68  1  0
 25 69  1  0
 26 70  1  0
 26 71  1  0
 26 72  1  0
 28 73  1  0
 28 74  1  0
 28 75  1  0
 29 76  1  0
 29 77  1  0
 30 78  1  0
 30 79  1  0
 32 80  1  0
 32 81  1  0
 32 82  1  0
M  END
>  <meeko>  (3) 
{"is_sidechain": [false], "intermolecular_energy": 2.731, "internal_energy": -0.839}

$$$$
EPH_relaxed_0001_pdb2pqr_Repair_216_r2_0001_out
     RDKit          3D

 82 86  0  0  0  0  0  0  0  0999 V2000
   -5.1450    5.8620   -1.8690 C   0  0  0  0  0  0  0  0  0  0  0  0
   -5.4690    7.3590   -1.8580 C   0  0  2  0  0  0  0  0  0  0  0  0
   -5.2510    7.9900   -0.4680 C   0  0  0  0  0  0  0  0  0  0  0  0
   -4.2090    9.1110   -0.4580 C   0  0  0  0  0  0  0  0  0  0  0  0
   -2.8380    8.5970   -0.7800 C   0  0  2  0  0  0  0  0  0  0  0  0
   -1.8330    8.9230    0.1890 O   0  0  0  0  0  0  0  0  0  0  0  0
   -1.6650    9.4980   -1.1170 C   0  0  0  0  0  0  0  0  0  0  0  0
   -1.8080   10.9870   -1.1490 C   0  0  0  0  0  0  0  0  0  0  0  0
   -0.5170    8.9210   -1.8860 C   0  0  0  0  0  0  0  0  0  0  0  0
   -6.9060    7.5830   -2.3120 C   0  0  1  0  0  0  0  0  0  0  0  0
   -7.2220    6.8840   -3.6620 C   0  0  0  0  0  0  0  0  0  0  0  0
   -8.6960    6.4100   -3.5850 C   0  0  0  0  0  0  0  0  0  0  0  0
   -9.2750    7.1340   -2.3470 C   0  0  1  0  0  0  0  0  0  0  0  0
   -9.6310    8.5680   -2.8510 C   0  0  0  0  0  0  0  0  0  0  0  0
  -10.4960    6.4460   -1.6530 C   0  0  2  0  0  0  0  0  0  0  0  0
  -11.7560    6.3180   -2.5270 C   0  0  0  0  0  0  0  0  0  0  0  0
  -12.7110    7.4630   -2.4420 C   0  0  0  0  0  0  0  0  0  0  0  0
  -12.7080    8.4140   -1.4900 C   0  0  0  0  0  0  0  0  0  0  0  0
  -11.7360    8.3400   -0.3060 C   0  0  1  0  0  0  0  0  0  0  0  0
  -12.5030    8.6220    1.0130 C   0  0  0  0  0  0  0  0  0  0  0  0
  -13.2740    9.9380    0.9720 C   0  0  0  0  0  0  0  0  0  0  0  0
  -14.2720    9.9500   -0.1840 C   0  0  2  0  0  0  0  0  0  0  0  0
  -15.2870    8.9750    0.0740 O   0  0  0  0  0  0  0  0  0  0  0  0
  -13.6150    9.6680   -1.5640 C   0  0  0  0  0  0  0  0  0  0  0  0
  -12.7400   10.8760   -1.9800 C   0  0  0  0  0  0  0  0  0  0  0  0
  -14.7480    9.5670   -2.6200 C   0  0  0  0  0  0  0  0  0  0  0  0
  -10.8420    7.0290   -0.2230 C   0  0  1  0  0  0  0  0  0  0  0  0
  -11.6100    5.9080    0.5410 C   0  0  0  0  0  0  0  0  0  0  0  0
   -9.5510    7.3390    0.6240 C   0  0  0  0  0  0  0  0  0  0  0  0
   -8.3380    7.9050   -0.1390 C   0  0  0  0  0  0  0  0  0  0  0  0
   -8.0340    7.0660   -1.3840 C   0  0  2  0  0  0  0  0  0  0  0  0
   -7.6520    5.6240   -0.9080 C   0  0  0  0  0  0  0  0  0  0  0  0
   -5.0659    5.4964   -0.8346 H   0  0  0  0  0  0  0  0  0  0  0  0
   -5.9460    5.3173   -2.3902 H   0  0  0  0  0  0  0  0  0  0  0  0
   -4.1904    5.6973   -2.3902 H   0  0  0  0  0  0  0  0  0  0  0  0
   -4.7773    7.8524   -2.5567 H   0  0  0  0  0  0  0  0  0  0  0  0
   -6.2092    8.4033   -0.1201 H   0  0  0  0  0  0  0  0  0  0  0  0
   -4.8734    7.1941    0.1908 H   0  0  0  0  0  0  0  0  0  0  0  0
   -4.4912    9.8666   -1.2060 H   0  0  0  0  0  0  0  0  0  0  0  0
   -4.1834    9.5462    0.5519 H   0  0  0  0  0  0  0  0  0  0  0  0
   -3.2613    7.7166   -1.2856 H   0  0  0  0  0  0  0  0  0  0  0  0
   -1.8452   11.3740   -0.1200 H   0  0  0  0  0  0  0  0  0  0  0  0
   -0.9480   11.4267   -1.6753 H   0  0  0  0  0  0  0  0  0  0  0  0
   -2.7360   11.2550   -1.6753 H   0  0  0  0  0  0  0  0  0  0  0  0
    0.2400    8.5405   -1.1844 H   0  0  0  0  0  0  0  0  0  0  0  0
   -0.8772    8.0968   -2.5192 H   0  0  0  0  0  0  0  0  0  0  0  0
   -0.0705    9.7018   -2.5192 H   0  0  0  0  0  0  0  0  0  0  0  0
   -6.9198    8.6824   -2.3444 H   0  0  0  0  0  0  0  0  0  0  0  0
   -7.0946    7.5919   -4.4942 H   0  0  0  0  0  0  0  0  0  0  0  0
   -6.5429    6.0365   -3.8368 H   0  0  0  0  0  0  0  0  0  0  0  0
   -9.2442    6.6972   -4.4944 H   0  0  0  0  0  0  0  0  0  0  0  0
   -8.7785    5.3160   -3.5047 H   0  0  0  0  0  0  0  0  0  0  0  0
   -9.7953    9.2298   -1.9878 H   0  0  0  0  0  0  0  0  0  0  0  0
   -8.8026    8.9587   -3.4602 H   0  0  0  0  0  0  0  0  0  0  0  0
  -10.5460    8.5259   -3.4602 H   0  0  0  0  0  0  0  0  0  0  0  0
  -10.1325    5.4192   -1.4999 H   0  0  0  0  0  0  0  0  0  0  0  0
  -11.4345    6.2207   -3.5745 H   0  0  0  0  0  0  0  0  0  0  0  0
  -12.3000    5.4397   -2.1494 H   0  0  0  0  0  0  0  0  0  0  0  0
  -13.4818    7.5350   -3.2234 H   0  0  0  0  0  0  0  0  0  0  0  0
  -10.9876    9.1275   -0.4784 H   0  0  0  0  0  0  0  0  0  0  0  0
  -13.2146    7.8019    1.1893 H   0  0  0  0  0  0  0  0  0  0  0  0
  -11.7608    8.6951    1.8216 H   0  0  0  0  0  0  0  0  0  0  0  0
  -13.8186   10.0658    1.9191 H   0  0  0  0  0  0  0  0  0  0  0  0
  -12.5579   10.7601    0.8262 H   0  0  0  0  0  0  0  0  0  0  0  0
  -14.6985   10.9623   -0.2413 H   0  0  0  0  0  0  0  0  0  0  0  0
  -14.8480    8.1140    0.1800 H   0  0  0  0  0  0  0  0  0  0  0  0
  -12.3694   11.3877   -1.0795 H   0  0  0  0  0  0  0  0  0  0  0  0
  -11.8872   10.5224   -2.5780 H   0  0  0  0  0  0  0  0  0  0  0  0
  -13.3419   11.5761   -2.5780 H   0  0  0  0  0  0  0  0  0  0  0  0
  -15.7185    9.4805   -2.1094 H   0  0  0  0  0  0  0  0  0  0  0  0
  -14.7440   10.4691   -3.2495 H   0  0  0  0  0  0  0  0  0  0  0  0
  -14.5845    8.6799   -3.2495 H   0  0  0  0  0  0  0  0  0  0  0  0
  -11.5034    6.0636    1.6247 H   0  0  0  0  0  0  0  0  0  0  0  0
  -12.6752    5.9423    0.2687 H   0  0  0  0  0  0  0  0  0  0  0  0
  -11.1933    4.9271    0.2687 H   0  0  0  0  0  0  0  0  0  0  0  0
   -9.8283    8.0704    1.3974 H   0  0  0  0  0  0  0  0  0  0  0  0
   -9.2188    6.3637    1.0092 H   0  0  0  0  0  0  0  0  0  0  0  0
   -8.5561    8.9386   -0.4459 H   0  0  0  0  0  0  0  0  0  0  0  0
   -7.4616    7.8777    0.5252 H   0  0  0  0  0  0  0  0  0  0  0  0
   -7.6433    5.5911    0.1915 H   0  0  0  0  0  0  0  0  0  0  0  0
   -8.3904    4.9040   -1.2905 H   0  0  0  0  0  0  0  0  0  0  0  0
   -6.6540    5.3639   -1.2905 H   0  0  0  0  0  0  0  0  0  0  0  0
  1  2  1  0
  2  3  1  0
  3  4  1  0
  4  5  1  0
  5  6  1  0
  6  7  1  0
  7  8  1  0
  7  9  1  0
  2 10  1  0
 10 11  1  0
 11 12  1  0
 12 13  1  0
 13 14  1  6
 13 15  1  0
 15 16  1  0
 16 17  1  0
 17 18  2  0
 18 19  1  0
 19 20  1  0
 20 21  1  0
 21 22  1  0
 22 23  1  0
 22 24  1  0
 24 25  1  0
 24 26  1  0
 19 27  1  0
 27 28  1  1
 27 29  1  0
 29 30  1  0
 30 31  1  0
 31 32  1  1
  7  5  1  0
 31 10  1  0
 31 13  1  0
 27 15  1  0
 24 18  1  0
  1 33  1  0
  1 34  1  0
  1 35  1  0
  2 36  1  6
  3 37  1  0
  3 38  1  0
  4 39  1  0
  4 40  1  0
  5 41  1  6
  8 42  1  0
  8 43  1  0
  8 44  1  0
  9 45  1  0
  9 46  1  0
  9 47  1  0
 10 48  1  6
 11 49  1  0
 11 50  1  0
 12 51  1  0
 12 52  1  0
 14 53  1  0
 14 54  1  0
 14 55  1  0
 15 56  1  1
 16 57  1  0
 16 58  1  0
 17 59  1  0
 19 60  1  6
 20 61  1  0
 20 62  1  0
 21 63  1  0
 21 64  1  0
 22 65  1  6
 23 66  1  0
 25 67  1  0
 25 68  1  0
 25 69  1  0
 26 70  1  0
 26 71  1  0
 26 72  1  0
 28 73  1  0
 28 74  1  0
 28 75  1  0
 29 76  1  0
 29 77  1  0
 30 78  1  0
 30 79  1  0
 32 80  1  0
 32 81  1  0
 32 82  1  0
M  END
>  <meeko>  (4) 
{"is_sidechain": [false], "intermolecular_energy": 2.731, "internal_energy": -0.839}

$$$$
EPH_relaxed_0001_pdb2pqr_Repair_216_r2_0001_out
     RDKit          3D

 82 86  0  0  0  0  0  0  0  0999 V2000
    4.2170   17.6060   -0.6690 C   0  0  0  0  0  0  0  0  0  0  0  0
    2.8140   18.1780   -0.8880 C   0  0  2  0  0  0  0  0  0  0  0  0
    2.4900   19.3150    0.1020 C   0  0  0  0  0  0  0  0  0  0  0  0
    3.7270   19.9260    0.7640 C   0  0  0  0  0  0  0  0  0  0  0  0
    3.9950   19.3170    2.1070 C   0  0  2  0  0  0  0  0  0  0  0  0
    4.6300   20.1940    3.0470 O   0  0  0  0  0  0  0  0  0  0  0  0
    5.3900   19.0460    2.6390 C   0  0  0  0  0  0  0  0  0  0  0  0
    6.6090   19.3770    1.8360 C   0  0  0  0  0  0  0  0  0  0  0  0
    5.5580   18.0200    3.7160 C   0  0  0  0  0  0  0  0  0  0  0  0
    1.7760   17.0690   -0.7670 C   0  0  1  0  0  0  0  0  0  0  0  0
    0.3470   17.5460   -1.1410 C   0  0  0  0  0  0  0  0  0  0  0  0
   -0.3590   16.3480   -1.8270 C   0  0  0  0  0  0  0  0  0  0  0  0
    0.5540   15.1350   -1.5300 C   0  0  1  0  0  0  0  0  0  0  0  0
    0.1750   14.6920   -0.0820 C   0  0  0  0  0  0  0  0  0  0  0  0
    0.4710   13.9440   -2.5390 C   0  0  2  0  0  0  0  0  0  0  0  0
   -0.9030   13.2560   -2.6240 C   0  0  0  0  0  0  0  0  0  0  0  0
   -1.1010   12.1100   -1.6870 C   0  0  0  0  0  0  0  0  0  0  0  0
   -0.1250   11.4700   -1.0180 C   0  0  0  0  0  0  0  0  0  0  0  0
    1.3510   11.8240   -1.2460 C   0  0  1  0  0  0  0  0  0  0  0  0
    2.1750   10.5210   -1.4200 C   0  0  0  0  0  0  0  0  0  0  0  0
    1.9820    9.5470   -0.2620 C   0  0  0  0  0  0  0  0  0  0  0  0
    0.5100    9.1740   -0.1030 C   0  0  2  0  0  0  0  0  0  0  0  0
    0.1000    8.4190   -1.2480 O   0  0  0  0  0  0  0  0  0  0  0  0
   -0.4200   10.4070    0.0700 C   0  0  0  0  0  0  0  0  0  0  0  0
   -0.1780   11.0510    1.4570 C   0  0  0  0  0  0  0  0  0  0  0  0
   -1.8880    9.9010    0.0770 C   0  0  0  0  0  0  0  0  0  0  0  0
    1.6390   12.8870   -2.3920 C   0  0  1  0  0  0  0  0  0  0  0  0
    1.7610   12.1640   -3.7690 C   0  0  0  0  0  0  0  0  0  0  0  0
    3.0320   13.5680   -2.1230 C   0  0  0  0  0  0  0  0  0  0  0  0
    3.0330   14.8120   -1.2140 C   0  0  0  0  0  0  0  0  0  0  0  0
    1.9650   15.8160   -1.6580 C   0  0  2  0  0  0  0  0  0  0  0  0
    2.3330   16.2970   -3.1030 C   0  0  0  0  0  0  0  0  0  0  0  0
    4.4157   17.5250    0.4099 H   0  0  0  0  0  0  0  0  0  0  0  0
    4.2827   16.6093   -1.1298 H   0  0  0  0  0  0  0  0  0  0  0  0
    4.9608   18.2727   -1.1298 H   0  0  0  0  0  0  0  0  0  0  0  0
    2.7845   18.6048   -1.9014 H   0  0  0  0  0  0  0  0  0  0  0  0
    1.9599   20.1097   -0.4434 H   0  0  0  0  0  0  0  0  0  0  0  0
    1.8790   18.8773    0.9051 H   0  0  0  0  0  0  0  0  0  0  0  0
    4.5990   19.7563    0.1152 H   0  0  0  0  0  0  0  0  0  0  0  0
    3.5442   21.0014    0.9055 H   0  0  0  0  0  0  0  0  0  0  0  0
    3.1004   18.6824    2.0238 H   0  0  0  0  0  0  0  0  0  0  0  0
    7.4446   19.6039    2.5145 H   0  0  0  0  0  0  0  0  0  0  0  0
    6.8745   18.5184    1.2017 H   0  0  0  0  0  0  0  0  0  0  0  0
    6.4038   20.2519    1.2017 H   0  0  0  0  0  0  0  0  0  0  0  0
    5.4786   18.5050    4.7001 H   0  0  0  0  0  0  0  0  0  0  0  0
    4.7731   17.2554    3.6197 H   0  0  0  0  0  0  0  0  0  0  0  0
    6.5458   17.5456    3.6197 H   0  0  0  0  0  0  0  0  0  0  0  0
    1.9147   16.8018    0.2910 H   0  0  0  0  0  0  0  0  0  0  0  0
   -0.2028   17.8417   -0.2353 H   0  0  0  0  0  0  0  0  0  0  0  0
    0.3842   18.4184   -1.8099 H   0  0  0  0  0  0  0  0  0  0  0  0
   -1.3616   16.1928   -1.4019 H   0  0  0  0  0  0  0  0  0  0  0  0
   -0.5007   16.5093   -2.9058 H   0  0  0  0  0  0  0  0  0  0  0  0
    0.7114   15.3190    0.6455 H   0  0  0  0  0  0  0  0  0  0  0  0
   -0.9092   14.8063    0.0645 H   0  0  0  0  0  0  0  0  0  0  0  0
    0.4557   13.6386    0.0645 H   0  0  0  0  0  0  0  0  0  0  0  0
    0.6149   14.4449   -3.5077 H   0  0  0  0  0  0  0  0  0  0  0  0
   -1.6745   14.0095   -2.4074 H   0  0  0  0  0  0  0  0  0  0  0  0
   -0.9708   12.8354   -3.6382 H   0  0  0  0  0  0  0  0  0  0  0  0
   -2.1319   11.7597   -1.5307 H   0  0  0  0  0  0  0  0  0  0  0  0
    1.6806   12.3551   -0.3408 H   0  0  0  0  0  0  0  0  0  0  0  0
    1.8615   10.0274   -2.3517 H   0  0  0  0  0  0  0  0  0  0  0  0
    3.2387   10.8001   -1.4474 H   0  0  0  0  0  0  0  0  0  0  0  0
    2.5655    8.6352   -0.4573 H   0  0  0  0  0  0  0  0  0  0  0  0
    2.3239   10.0309    0.6648 H   0  0  0  0  0  0  0  0  0  0  0  0
    0.4179    8.5807    0.8187 H   0  0  0  0  0  0  0  0  0  0  0  0
    0.8990    8.0400   -1.6520 H   0  0  0  0  0  0  0  0  0  0  0  0
   -0.4475   10.3338    2.2463 H   0  0  0  0  0  0  0  0  0  0  0  0
    0.8835   11.3224    1.5551 H   0  0  0  0  0  0  0  0  0  0  0  0
   -0.7980   11.9543    1.5551 H   0  0  0  0  0  0  0  0  0  0  0  0
   -2.2302    9.7830    1.1157 H   0  0  0  0  0  0  0  0  0  0  0  0
   -2.5295   10.6299   -0.4399 H   0  0  0  0  0  0  0  0  0  0  0  0
   -1.9442    8.9316   -0.4399 H   0  0  0  0  0  0  0  0  0  0  0  0
    1.9420   11.0914   -3.6052 H   0  0  0  0  0  0  0  0  0  0  0  0
    0.8279   12.2959   -4.3364 H   0  0  0  0  0  0  0  0  0  0  0  0
    2.5991   12.5948   -4.3364 H   0  0  0  0  0  0  0  0  0  0  0  0
    3.6860   12.8156   -1.6581 H   0  0  0  0  0  0  0  0  0  0  0  0
    3.3704   13.9290   -3.1054 H   0  0  0  0  0  0  0  0  0  0  0  0
    2.8270   14.5016   -0.1790 H   0  0  0  0  0  0  0  0  0  0  0  0
    4.0188   15.2954   -1.2820 H   0  0  0  0  0  0  0  0  0  0  0  0
    3.0003   17.1692   -3.0403 H   0  0  0  0  0  0  0  0  0  0  0  0
    2.8418   15.4840   -3.6416 H   0  0  0  0  0  0  0  0  0  0  0  0
    1.4152   16.5755   -3.6416 H   0  0  0  0  0  0  0  0  0  0  0  0
  1  2  1  0
  2  3  1  0
  3  4  1  0
  4  5  1  0
  5  6  1  0
  6  7  1  0
  7  8  1  0
  7  9  1  0
  2 10  1  0
 10 11  1  0
 11 12  1  0
 12 13  1  0
 13 14  1  1
 13 15  1  0
 15 16  1  0
 16 17  1  0
 17 18  2  0
 18 19  1  0
 19 20  1  0
 20 21  1  0
 21 22  1  0
 22 23  1  0
 22 24  1  0
 24 25  1  0
 24 26  1  0
 19 27  1  0
 27 28  1  6
 27 29  1  0
 29 30  1  0
 30 31  1  0
 31 32  1  6
  7  5  1  0
 31 10  1  0
 31 13  1  0
 27 15  1  0
 24 18  1  0
  1 33  1  0
  1 34  1  0
  1 35  1  0
  2 36  1  6
  3 37  1  0
  3 38  1  0
  4 39  1  0
  4 40  1  0
  5 41  1  1
  8 42  1  0
  8 43  1  0
  8 44  1  0
  9 45  1  0
  9 46  1  0
  9 47  1  0
 10 48  1  1
 11 49  1  0
 11 50  1  0
 12 51  1  0
 12 52  1  0
 14 53  1  0
 14 54  1  0
 14 55  1  0
 15 56  1  6
 16 57  1  0
 16 58  1  0
 17 59  1  0
 19 60  1  1
 20 61  1  0
 20 62  1  0
 21 63  1  0
 21 64  1  0
 22 65  1  1
 23 66  1  0
 25 67  1  0
 25 68  1  0
 25 69  1  0
 26 70  1  0
 26 71  1  0
 26 72  1  0
 28 73  1  0
 28 74  1  0
 28 75  1  0
 29 76  1  0
 29 77  1  0
 30 78  1  0
 30 79  1  0
 32 80  1  0
 32 81  1  0
 32 82  1  0
M  END
>  <meeko>  (5) 
{"is_sidechain": [false], "intermolecular_energy": 2.731, "internal_energy": -0.839}

$$$$
EPH_relaxed_0001_pdb2pqr_Repair_216_r2_0001_out
     RDKit          3D

 82 86  0  0  0  0  0  0  0  0999 V2000
    3.8970   17.7800   -0.4140 C   0  0  0  0  0  0  0  0  0  0  0  0
    2.6950   18.0860   -1.3120 C   0  0  2  0  0  0  0  0  0  0  0  0
    2.0540   19.4490   -0.9810 C   0  0  0  0  0  0  0  0  0  0  0  0
    1.2560   19.4530    0.3260 C   0  0  0  0  0  0  0  0  0  0  0  0
   -0.0810   20.1070    0.1560 C   0  0  2  0  0  0  0  0  0  0  0  0
   -0.8610   20.1940    1.3560 O   0  0  0  0  0  0  0  0  0  0  0  0
   -1.3990   19.3700    0.3090 C   0  0  0  0  0  0  0  0  0  0  0  0
   -1.4430   17.9120    0.6450 C   0  0  0  0  0  0  0  0  0  0  0  0
   -2.6190   19.9420   -0.3430 C   0  0  0  0  0  0  0  0  0  0  0  0
    1.6560   16.9780   -1.1850 C   0  0  1  0  0  0  0  0  0  0  0  0
    0.2680   17.3940   -1.7400 C   0  0  0  0  0  0  0  0  0  0  0  0
   -0.3600   16.1250   -2.3720 C   0  0  0  0  0  0  0  0  0  0  0  0
    0.5270   14.9610   -1.8730 C   0  0  1  0  0  0  0  0  0  0  0  0
    0.0110   14.6520   -0.4330 C   0  0  0  0  0  0  0  0  0  0  0  0
    0.5500   13.6770   -2.7650 C   0  0  2  0  0  0  0  0  0  0  0  0
   -0.8050   12.9630   -2.9160 C   0  0  0  0  0  0  0  0  0  0  0  0
   -1.0860   11.9090   -1.8970 C   0  0  0  0  0  0  0  0  0  0  0  0
   -0.1770   11.3510   -1.0770 C   0  0  0  0  0  0  0  0  0  0  0  0
    1.3110   11.7040   -1.1940 C   0  0  1  0  0  0  0  0  0  0  0  0
    2.1570   10.4040   -1.1610 C   0  0  0  0  0  0  0  0  0  0  0  0
    1.8570    9.5420    0.0620 C   0  0  0  0  0  0  0  0  0  0  0  0
    0.3790    9.1630    0.1120 C   0  0  2  0  0  0  0  0  0  0  0  0
    0.0880    8.2960   -0.9880 O   0  0  0  0  0  0  0  0  0  0  0  0
   -0.5710   10.3930    0.0740 C   0  0  0  0  0  0  0  0  0  0  0  0
   -0.4700   11.1700    1.4100 C   0  0  0  0  0  0  0  0  0  0  0  0
   -2.0290    9.8670   -0.0120 C   0  0  0  0  0  0  0  0  0  0  0  0
    1.7040   12.6570   -2.4040 C   0  0  1  0  0  0  0  0  0  0  0  0
    1.9660   11.8080   -3.6860 C   0  0  0  0  0  0  0  0  0  0  0  0
    3.0610   13.3830   -2.0680 C   0  0  0  0  0  0  0  0  0  0  0  0
    2.9650   14.7080   -1.2880 C   0  0  0  0  0  0  0  0  0  0  0  0
    1.9400   15.6480   -1.9280 C   0  0  2  0  0  0  0  0  0  0  0  0
    2.4440   15.9940   -3.3710 C   0  0  0  0  0  0  0  0  0  0  0  0
    3.5954   17.8568    0.6411 H   0  0  0  0  0  0  0  0  0  0  0  0
    4.2579   16.7613   -0.6190 H   0  0  0  0  0  0  0  0  0  0  0  0
    4.7011   18.5021   -0.6190 H   0  0  0  0  0  0  0  0  0  0  0  0
    3.0609   18.1363   -2.3481 H   0  0  0  0  0  0  0  0  0  0  0  0
    2.8547   20.1991   -0.9013 H   0  0  0  0  0  0  0  0  0  0  0  0
    1.3452   19.6760   -1.7910 H   0  0  0  0  0  0  0  0  0  0  0  0
    1.1056   18.4142    0.6552 H   0  0  0  0  0  0  0  0  0  0  0  0
    1.8251   20.0247    1.0739 H   0  0  0  0  0  0  0  0  0  0  0  0
    0.3120   20.7582   -0.6386 H   0  0  0  0  0  0  0  0  0  0  0  0
   -1.4468   17.7875    1.7379 H   0  0  0  0  0  0  0  0  0  0  0  0
   -2.3550   17.4656    0.2220 H   0  0  0  0  0  0  0  0  0  0  0  0
   -0.5596   17.4114    0.2220 H   0  0  0  0  0  0  0  0  0  0  0  0
   -3.3268   20.2739    0.4308 H   0  0  0  0  0  0  0  0  0  0  0  0
   -2.3321   20.7994   -0.9695 H   0  0  0  0  0  0  0  0  0  0  0  0
   -3.0946   19.1730   -0.9695 H   0  0  0  0  0  0  0  0  0  0  0  0
    1.6910   16.8164   -0.0975 H   0  0  0  0  0  0  0  0  0  0  0  0
   -0.3698   17.7664   -0.9248 H   0  0  0  0  0  0  0  0  0  0  0  0
    0.3651   18.1987   -2.4836 H   0  0  0  0  0  0  0  0  0  0  0  0
   -1.3982   15.9952   -2.0325 H   0  0  0  0  0  0  0  0  0  0  0  0
   -0.3968   16.1804   -3.4700 H   0  0  0  0  0  0  0  0  0  0  0  0
    0.7108   15.0711    0.3050 H   0  0  0  0  0  0  0  0  0  0  0  0
   -0.9822   15.1041   -0.2945 H   0  0  0  0  0  0  0  0  0  0  0  0
   -0.0593   13.5630   -0.2945 H   0  0  0  0  0  0  0  0  0  0  0  0
    0.7850   14.0850   -3.7591 H   0  0  0  0  0  0  0  0  0  0  0  0
   -1.5986   13.7217   -2.8484 H   0  0  0  0  0  0  0  0  0  0  0  0
   -0.7712   12.4471   -3.8869 H   0  0  0  0  0  0  0  0  0  0  0  0
   -2.1250   11.5586   -1.8090 H   0  0  0  0  0  0  0  0  0  0  0  0
    1.5459   12.3238   -0.3161 H   0  0  0  0  0  0  0  0  0  0  0  0
    1.9399    9.8188   -2.0668 H   0  0  0  0  0  0  0  0  0  0  0  0
    3.2164   10.6960   -1.1122 H   0  0  0  0  0  0  0  0  0  0  0  0
    2.4625    8.6249    0.0136 H   0  0  0  0  0  0  0  0  0  0  0  0
    2.1031   10.1175    0.9666 H   0  0  0  0  0  0  0  0  0  0  0  0
    0.2003    8.6588    1.0732 H   0  0  0  0  0  0  0  0  0  0  0  0
    0.2350    7.3830   -0.6900 H   0  0  0  0  0  0  0  0  0  0  0  0
   -0.5614   10.4668    2.2509 H   0  0  0  0  0  0  0  0  0  0  0  0
    0.5022   11.6817    1.4640 H   0  0  0  0  0  0  0  0  0  0  0  0
   -1.2791   11.9133    1.4640 H   0  0  0  0  0  0  0  0  0  0  0  0
   -2.4274    9.7233    1.0032 H   0  0  0  0  0  0  0  0  0  0  0  0
   -2.6512   10.5974   -0.5501 H   0  0  0  0  0  0  0  0  0  0  0  0
   -2.0416    8.9077   -0.5501 H   0  0  0  0  0  0  0  0  0  0  0  0
    2.2789   10.7939   -3.3966 H   0  0  0  0  0  0  0  0  0  0  0  0
    1.0437   11.7508   -4.2827 H   0  0  0  0  0  0  0  0  0  0  0  0
    2.7601   12.2805   -4.2827 H   0  0  0  0  0  0  0  0  0  0  0  0
    3.6709   12.6889   -1.4712 H   0  0  0  0  0  0  0  0  0  0  0  0
    3.4920   13.6535   -3.0432 H   0  0  0  0  0  0  0  0  0  0  0  0
    2.6604   14.4948   -0.2527 H   0  0  0  0  0  0  0  0  0  0  0  0
    3.9497   15.1980   -1.3067 H   0  0  0  0  0  0  0  0  0  0  0  0
    3.3492   16.6154   -3.3041 H   0  0  0  0  0  0  0  0  0  0  0  0
    2.6766   15.0643   -3.9109 H   0  0  0  0  0  0  0  0  0  0  0  0
    1.6600   16.5452   -3.9109 H   0  0  0  0  0  0  0  0  0  0  0  0
  1  2  1  0
  2  3  1  0
  3  4  1  0
  4  5  1  0
  5  6  1  0
  6  7  1  0
  7  8  1  0
  7  9  1  0
  2 10  1  0
 10 11  1  0
 11 12  1  0
 12 13  1  0
 13 14  1  1
 13 15  1  0
 15 16  1  0
 16 17  1  0
 17 18  2  0
 18 19  1  0
 19 20  1  0
 20 21  1  0
 21 22  1  0
 22 23  1  0
 22 24  1  0
 24 25  1  0
 24 26  1  0
 19 27  1  0
 27 28  1  6
 27 29  1  0
 29 30  1  0
 30 31  1  0
 31 32  1  6
  7  5  1  0
 31 10  1  0
 31 13  1  0
 27 15  1  0
 24 18  1  0
  1 33  1  0
  1 34  1  0
  1 35  1  0
  2 36  1  6
  3 37  1  0
  3 38  1  0
  4 39  1  0
  4 40  1  0
  5 41  1  6
  8 42  1  0
  8 43  1  0
  8 44  1  0
  9 45  1  0
  9 46  1  0
  9 47  1  0
 10 48  1  1
 11 49  1  0
 11 50  1  0
 12 51  1  0
 12 52  1  0
 14 53  1  0
 14 54  1  0
 14 55  1  0
 15 56  1  6
 16 57  1  0
 16 58  1  0
 17 59  1  0
 19 60  1  1
 20 61  1  0
 20 62  1  0
 21 63  1  0
 21 64  1  0
 22 65  1  1
 23 66  1  0
 25 67  1  0
 25 68  1  0
 25 69  1  0
 26 70  1  0
 26 71  1  0
 26 72  1  0
 28 73  1  0
 28 74  1  0
 28 75  1  0
 29 76  1  0
 29 77  1  0
 30 78  1  0
 30 79  1  0
 32 80  1  0
 32 81  1  0
 32 82  1  0
M  END
>  <meeko>  (6) 
{"is_sidechain": [false], "intermolecular_energy": 2.731, "internal_energy": -0.839}

$$$$
EPH_relaxed_0001_pdb2pqr_Repair_216_r2_0001_out
     RDKit          3D

 82 86  0  0  0  0  0  0  0  0999 V2000
   -1.2930   16.4870   -5.8640 C   0  0  0  0  0  0  0  0  0  0  0  0
   -0.0500   15.7700   -6.3980 C   0  0  2  0  0  0  0  0  0  0  0  0
   -0.1990   15.3760   -7.8810 C   0  0  0  0  0  0  0  0  0  0  0  0
    0.3660   16.4160   -8.8540 C   0  0  0  0  0  0  0  0  0  0  0  0
    1.7730   16.0930   -9.2540 C   0  0  2  0  0  0  0  0  0  0  0  0
    2.2120   16.7280  -10.4630 O   0  0  0  0  0  0  0  0  0  0  0  0
    2.1280   15.2940  -10.4940 C   0  0  0  0  0  0  0  0  0  0  0  0
    1.0690   14.7660  -11.4120 C   0  0  0  0  0  0  0  0  0  0  0  0
    3.4590   14.6120  -10.5500 C   0  0  0  0  0  0  0  0  0  0  0  0
    0.2380   14.5320   -5.5570 C   0  0  1  0  0  0  0  0  0  0  0  0
    1.1640   13.5190   -6.2820 C   0  0  0  0  0  0  0  0  0  0  0  0
    2.0540   12.8690   -5.1920 C   0  0  0  0  0  0  0  0  0  0  0  0
    1.3940   13.2760   -3.8540 C   0  0  1  0  0  0  0  0  0  0  0  0
    0.2140   12.2710   -3.6680 C   0  0  0  0  0  0  0  0  0  0  0  0
    2.3300   13.3050   -2.6020 C   0  0  2  0  0  0  0  0  0  0  0  0
    2.9480   11.9500   -2.2180 C   0  0  0  0  0  0  0  0  0  0  0  0
    2.1510   11.1360   -1.2530 C   0  0  0  0  0  0  0  0  0  0  0  0
    1.1330   11.5910   -0.4990 C   0  0  0  0  0  0  0  0  0  0  0  0
    0.7550   13.0780   -0.5030 C   0  0  1  0  0  0  0  0  0  0  0  0
    0.5590   13.5660    0.9570 C   0  0  0  0  0  0  0  0  0  0  0  0
   -0.4400   12.7110    1.7300 C   0  0  0  0  0  0  0  0  0  0  0  0
    0.0010   11.2500    1.7610 C   0  0  2  0  0  0  0  0  0  0  0  0
    1.2000   11.1470    2.5350 O   0  0  0  0  0  0  0  0  0  0  0  0
    0.2390   10.6520    0.3470 C   0  0  0  0  0  0  0  0  0  0  0  0
   -1.1170   10.4850   -0.3830 C   0  0  0  0  0  0  0  0  0  0  0  0
    0.8150    9.2210    0.5240 C   0  0  0  0  0  0  0  0  0  0  0  0
    1.7060   14.0340   -1.3440 C   0  0  1  0  0  0  0  0  0  0  0  0
    2.9040   14.5020   -0.4610 C   0  0  0  0  0  0  0  0  0  0  0  0
    0.9100   15.3340   -1.7380 C   0  0  0  0  0  0  0  0  0  0  0  0
    0.1000   15.2820   -3.0480 C   0  0  0  0  0  0  0  0  0  0  0  0
    0.9540   14.7450   -4.2000 C   0  0  2  0  0  0  0  0  0  0  0  0
    2.1380   15.7470   -4.4260 C   0  0  0  0  0  0  0  0  0  0  0  0
   -1.2774   16.4780   -4.7641 H   0  0  0  0  0  0  0  0  0  0  0  0
   -1.2986   17.5271   -6.2221 H   0  0  0  0  0  0  0  0  0  0  0  0
   -2.1961   15.9711   -6.2221 H   0  0  0  0  0  0  0  0  0  0  0  0
    0.7933   16.4727   -6.3261 H   0  0  0  0  0  0  0  0  0  0  0  0
    0.3304   14.4254   -8.0427 H   0  0  0  0  0  0  0  0  0  0  0  0
   -1.2768   15.2961   -8.0858 H   0  0  0  0  0  0  0  0  0  0  0  0
   -0.2642   16.4405   -9.7552 H   0  0  0  0  0  0  0  0  0  0  0  0
    0.3687   17.3930   -8.3485 H   0  0  0  0  0  0  0  0  0  0  0  0
    2.0748   15.9935   -8.2009 H   0  0  0  0  0  0  0  0  0  0  0  0
    0.2408   14.3531  -10.8173 H   0  0  0  0  0  0  0  0  0  0  0  0
    0.6934   15.5823  -12.0465 H   0  0  0  0  0  0  0  0  0  0  0  0
    1.4949   13.9748  -12.0465 H   0  0  0  0  0  0  0  0  0  0  0  0
    3.8196   14.4272   -9.5274 H   0  0  0  0  0  0  0  0  0  0  0  0
    3.3583   13.6544  -11.0819 H   0  0  0  0  0  0  0  0  0  0  0  0
    4.1774   15.2531  -11.0819 H   0  0  0  0  0  0  0  0  0  0  0  0
   -0.7906   14.1806   -5.3881 H   0  0  0  0  0  0  0  0  0  0  0  0
    0.5619   12.7499   -6.7879 H   0  0  0  0  0  0  0  0  0  0  0  0
    1.7768   14.0200   -7.0459 H   0  0  0  0  0  0  0  0  0  0  0  0
    2.0655   11.7746   -5.3020 H   0  0  0  0  0  0  0  0  0  0  0  0
    3.1012   13.1993   -5.2575 H   0  0  0  0  0  0  0  0  0  0  0  0
    0.0309   12.1151   -2.5946 H   0  0  0  0  0  0  0  0  0  0  0  0
   -0.6925   12.6786   -4.1392 H   0  0  0  0  0  0  0  0  0  0  0  0
    0.4722   11.3111   -4.1392 H   0  0  0  0  0  0  0  0  0  0  0  0
    3.1685   13.9273   -2.9480 H   0  0  0  0  0  0  0  0  0  0  0  0
    3.0727   11.3603   -3.1382 H   0  0  0  0  0  0  0  0  0  0  0  0
    3.8963   12.1809   -1.7107 H   0  0  0  0  0  0  0  0  0  0  0  0
    2.4185   10.0741   -1.1494 H   0  0  0  0  0  0  0  0  0  0  0  0
   -0.1960   13.1484   -1.0513 H   0  0  0  0  0  0  0  0  0  0  0  0
    1.5291   13.5294    1.4743 H   0  0  0  0  0  0  0  0  0  0  0  0
    0.1606   14.5905    0.9161 H   0  0  0  0  0  0  0  0  0  0  0  0
   -0.5133   13.0868    2.7612 H   0  0  0  0  0  0  0  0  0  0  0  0
   -1.4168   12.7722    1.2278 H   0  0  0  0  0  0  0  0  0  0  0  0
   -0.8155   10.6684    2.2139 H   0  0  0  0  0  0  0  0  0  0  0  0
    1.8480   10.6480    2.0090 H   0  0  0  0  0  0  0  0  0  0  0  0
   -1.9230   10.3857    0.3589 H   0  0  0  0  0  0  0  0  0  0  0  0
   -1.3052   11.3667   -1.0132 H   0  0  0  0  0  0  0  0  0  0  0  0
   -1.0857    9.5839   -1.0132 H   0  0  0  0  0  0  0  0  0  0  0  0
    0.9069    8.9927    1.5961 H   0  0  0  0  0  0  0  0  0  0  0  0
    0.1399    8.4929    0.0506 H   0  0  0  0  0  0  0  0  0  0  0  0
    1.8063    9.1636    0.0506 H   0  0  0  0  0  0  0  0  0  0  0  0
    2.6388   14.3984    0.6015 H   0  0  0  0  0  0  0  0  0  0  0  0
    3.7857   13.8822   -0.6810 H   0  0  0  0  0  0  0  0  0  0  0  0
    3.1321   15.5554   -0.6810 H   0  0  0  0  0  0  0  0  0  0  0  0
    0.2075   15.5547   -0.9208 H   0  0  0  0  0  0  0  0  0  0  0  0
    1.6787   16.1029   -1.9050 H   0  0  0  0  0  0  0  0  0  0  0  0
   -0.7696   14.6232   -2.9074 H   0  0  0  0  0  0  0  0  0  0  0  0
   -0.2261   16.3021   -3.2993 H   0  0  0  0  0  0  0  0  0  0  0  0
    2.5291   16.0780   -3.4526 H   0  0  0  0  0  0  0  0  0  0  0  0
    2.9381   15.2475   -4.9920 H   0  0  0  0  0  0  0  0  0  0  0  0
    1.7777   16.6187   -4.9920 H   0  0  0  0  0  0  0  0  0  0  0  0
  1  2  1  0
  2  3  1  0
  3  4  1  0
  4  5  1  0
  5  6  1  0
  6  7  1  0
  7  8  1  0
  7  9  1  0
  2 10  1  0
 10 11  1  0
 11 12  1  0
 12 13  1  0
 13 14  1  1
 13 15  1  0
 15 16  1  0
 16 17  1  0
 17 18  2  0
 18 19  1  0
 19 20  1  0
 20 21  1  0
 21 22  1  0
 22 23  1  0
 22 24  1  0
 24 25  1  0
 24 26  1  0
 19 27  1  0
 27 28  1  1
 27 29  1  0
 29 30  1  0
 30 31  1  0
 31 32  1  6
  7  5  1  0
 31 10  1  0
 31 13  1  0
 27 15  1  0
 24 18  1  0
  1 33  1  0
  1 34  1  0
  1 35  1  0
  2 36  1  6
  3 37  1  0
  3 38  1  0
  4 39  1  0
  4 40  1  0
  5 41  1  1
  8 42  1  0
  8 43  1  0
  8 44  1  0
  9 45  1  0
  9 46  1  0
  9 47  1  0
 10 48  1  1
 11 49  1  0
 11 50  1  0
 12 51  1  0
 12 52  1  0
 14 53  1  0
 14 54  1  0
 14 55  1  0
 15 56  1  6
 16 57  1  0
 16 58  1  0
 17 59  1  0
 19 60  1  6
 20 61  1  0
 20 62  1  0
 21 63  1  0
 21 64  1  0
 22 65  1  1
 23 66  1  0
 25 67  1  0
 25 68  1  0
 25 69  1  0
 26 70  1  0
 26 71  1  0
 26 72  1  0
 28 73  1  0
 28 74  1  0
 28 75  1  0
 29 76  1  0
 29 77  1  0
 30 78  1  0
 30 79  1  0
 32 80  1  0
 32 81  1  0
 32 82  1  0
M  END
>  <meeko>  (7) 
{"is_sidechain": [false], "intermolecular_energy": 2.731, "internal_energy": -0.839}

$$$$
EPH_relaxed_0001_pdb2pqr_Repair_216_r2_0001_out
     RDKit          3D

 82 86  0  0  0  0  0  0  0  0999 V2000
   -0.9430   14.0020    3.2890 C   0  0  0  0  0  0  0  0  0  0  0  0
   -0.2990   14.7140    2.0960 C   0  0  2  0  0  0  0  0  0  0  0  0
   -1.3490   15.2190    1.0850 C   0  0  0  0  0  0  0  0  0  0  0  0
   -1.6560   16.7130    1.2120 C   0  0  0  0  0  0  0  0  0  0  0  0
   -0.8500   17.5290    0.2480 C   0  0  2  0  0  0  0  0  0  0  0  0
   -0.3150   18.7430    0.7920 O   0  0  0  0  0  0  0  0  0  0  0  0
   -1.2820   18.8920   -0.2610 C   0  0  0  0  0  0  0  0  0  0  0  0
   -2.5690   19.5160    0.1780 C   0  0  0  0  0  0  0  0  0  0  0  0
   -0.7010   19.3920   -1.5460 C   0  0  0  0  0  0  0  0  0  0  0  0
    0.6850   13.7790    1.4030 C   0  0  1  0  0  0  0  0  0  0  0  0
    1.0740   12.5620    2.2830 C   0  0  0  0  0  0  0  0  0  0  0  0
    1.2650   11.3590    1.3230 C   0  0  0  0  0  0  0  0  0  0  0  0
    1.3080   11.9900   -0.0890 C   0  0  1  0  0  0  0  0  0  0  0  0
    2.7700   12.5130   -0.2500 C   0  0  0  0  0  0  0  0  0  0  0  0
    0.8940   11.0580   -1.2740 C   0  0  2  0  0  0  0  0  0  0  0  0
    1.7940    9.8270   -1.4810 C   0  0  0  0  0  0  0  0  0  0  0  0
    2.9450   10.0270   -2.4100 C   0  0  0  0  0  0  0  0  0  0  0  0
    3.0870   11.0530   -3.2690 C   0  0  0  0  0  0  0  0  0  0  0  0
    1.9780   12.0990   -3.4380 C   0  0  1  0  0  0  0  0  0  0  0  0
    1.7290   12.3520   -4.9480 C   0  0  0  0  0  0  0  0  0  0  0  0
    3.0050   12.7280   -5.6960 C   0  0  0  0  0  0  0  0  0  0  0  0
    4.0630   11.6370   -5.5530 C   0  0  2  0  0  0  0  0  0  0  0  0
    3.6100   10.4630   -6.2340 O   0  0  0  0  0  0  0  0  0  0  0  0
    4.3890   11.2910   -4.0740 C   0  0  0  0  0  0  0  0  0  0  0  0
    5.1570   12.4670   -3.4200 C   0  0  0  0  0  0  0  0  0  0  0  0
    5.3640   10.0820   -4.0700 C   0  0  0  0  0  0  0  0  0  0  0  0
    0.6340   11.8200   -2.6370 C   0  0  1  0  0  0  0  0  0  0  0  0
   -0.3100   10.9110   -3.4820 C   0  0  0  0  0  0  0  0  0  0  0  0
   -0.1310   13.1800   -2.4250 C   0  0  0  0  0  0  0  0  0  0  0  0
    0.2380   13.9970   -1.1720 C   0  0  0  0  0  0  0  0  0  0  0  0
    0.2240   13.1160    0.0810 C   0  0  2  0  0  0  0  0  0  0  0  0
   -1.2390   12.5930    0.2810 C   0  0  0  0  0  0  0  0  0  0  0  0
   -0.5552   14.4307    4.2248 H   0  0  0  0  0  0  0  0  0  0  0  0
   -2.0343   14.1344    3.2496 H   0  0  0  0  0  0  0  0  0  0  0  0
   -0.7021   12.9294    3.2496 H   0  0  0  0  0  0  0  0  0  0  0  0
    0.2348   15.5941    2.4839 H   0  0  0  0  0  0  0  0  0  0  0  0
   -0.9736   15.0267    0.0691 H   0  0  0  0  0  0  0  0  0  0  0  0
   -2.2841   14.6794    1.2959 H   0  0  0  0  0  0  0  0  0  0  0  0
   -2.7249   16.8756    1.0097 H   0  0  0  0  0  0  0  0  0  0  0  0
   -1.3946   17.0309    2.2321 H   0  0  0  0  0  0  0  0  0  0  0  0
   -0.5100   16.6212   -0.2720 H   0  0  0  0  0  0  0  0  0  0  0  0
   -2.6106   19.5362    1.2770 H   0  0  0  0  0  0  0  0  0  0  0  0
   -2.6295   20.5435   -0.2101 H   0  0  0  0  0  0  0  0  0  0  0  0
   -3.4132   18.9271   -0.2101 H   0  0  0  0  0  0  0  0  0  0  0  0
    0.1165   20.0955   -1.3296 H   0  0  0  0  0  0  0  0  0  0  0  0
   -0.3103   18.5433   -2.1265 H   0  0  0  0  0  0  0  0  0  0  0  0
   -1.4820   19.9048   -2.1265 H   0  0  0  0  0  0  0  0  0  0  0  0
    1.5032   14.4867    1.2038 H   0  0  0  0  0  0  0  0  0  0  0  0
    2.0101   12.7684    2.8226 H   0  0  0  0  0  0  0  0  0  0  0  0
    0.2959   12.3507    3.0313 H   0  0  0  0  0  0  0  0  0  0  0  0
    2.2058   10.8328    1.5421 H   0  0  0  0  0  0  0  0  0  0  0  0
    0.4620   10.6139    1.4228 H   0  0  0  0  0  0  0  0  0  0  0  0
    3.2141   12.6719    0.7437 H   0  0  0  0  0  0  0  0  0  0  0  0
    3.3656   11.7722   -0.8036 H   0  0  0  0  0  0  0  0  0  0  0  0
    2.7605   13.4635   -0.8036 H   0  0  0  0  0  0  0  0  0  0  0  0
   -0.0767   10.6649   -0.9376 H   0  0  0  0  0  0  0  0  0  0  0  0
    2.1960    9.5313   -0.5007 H   0  0  0  0  0  0  0  0  0  0  0  0
    1.1576    9.0598   -1.9462 H   0  0  0  0  0  0  0  0  0  0  0  0
    3.7447    9.2719   -2.3908 H   0  0  0  0  0  0  0  0  0  0  0  0
    2.3526   13.0176   -2.9627 H   0  0  0  0  0  0  0  0  0  0  0  0
    1.3146   11.4365   -5.3954 H   0  0  0  0  0  0  0  0  0  0  0  0
    1.0298   13.1968   -5.0344 H   0  0  0  0  0  0  0  0  0  0  0  0
    2.7704   12.8644   -6.7620 H   0  0  0  0  0  0  0  0  0  0  0  0
    3.4017   13.6600   -5.2670 H   0  0  0  0  0  0  0  0  0  0  0  0
    4.9936   12.0192   -5.9979 H   0  0  0  0  0  0  0  0  0  0  0  0
    2.9900   10.7460   -6.9280 H   0  0  0  0  0  0  0  0  0  0  0  0
    5.0994   12.3788   -2.3251 H   0  0  0  0  0  0  0  0  0  0  0  0
    6.2104   12.4375   -3.7353 H   0  0  0  0  0  0  0  0  0  0  0  0
    4.7064   13.4197   -3.7353 H   0  0  0  0  0  0  0  0  0  0  0  0
    5.5925    9.7987   -3.0320 H   0  0  0  0  0  0  0  0  0  0  0  0
    4.8959    9.2317   -4.5876 H   0  0  0  0  0  0  0  0  0  0  0  0
    6.2941   10.3594   -4.5876 H   0  0  0  0  0  0  0  0  0  0  0  0
   -0.9368   10.3074   -2.8091 H   0  0  0  0  0  0  0  0  0  0  0  0
   -0.9525   11.5391   -4.1165 H   0  0  0  0  0  0  0  0  0  0  0  0
    0.2934   10.2452   -4.1165 H   0  0  0  0  0  0  0  0  0  0  0  0
    0.0644   13.8121   -3.3038 H   0  0  0  0  0  0  0  0  0  0  0  0
   -1.1850   12.8983   -2.2846 H   0  0  0  0  0  0  0  0  0  0  0  0
    1.2446   14.4210   -1.3025 H   0  0  0  0  0  0  0  0  0  0  0  0
   -0.5042   14.7989   -1.0451 H   0  0  0  0  0  0  0  0  0  0  0  0
   -1.4568   12.5152    1.3564 H   0  0  0  0  0  0  0  0  0  0  0  0
   -1.9461   13.2940   -0.1865 H   0  0  0  0  0  0  0  0  0  0  0  0
   -1.3415   11.6026   -0.1865 H   0  0  0  0  0  0  0  0  0  0  0  0
  1  2  1  0
  2  3  1  0
  3  4  1  0
  4  5  1  0
  5  6  1  0
  6  7  1  0
  7  8  1  0
  7  9  1  0
  2 10  1  0
 10 11  1  0
 11 12  1  0
 12 13  1  0
 13 14  1  6
 13 15  1  0
 15 16  1  0
 16 17  1  0
 17 18  2  0
 18 19  1  0
 19 20  1  0
 20 21  1  0
 21 22  1  0
 22 23  1  0
 22 24  1  0
 24 25  1  0
 24 26  1  0
 19 27  1  0
 27 28  1  6
 27 29  1  0
 29 30  1  0
 30 31  1  0
 31 32  1  1
  7  5  1  0
 31 10  1  0
 31 13  1  0
 27 15  1  0
 24 18  1  0
  1 33  1  0
  1 34  1  0
  1 35  1  0
  2 36  1  1
  3 37  1  0
  3 38  1  0
  4 39  1  0
  4 40  1  0
  5 41  1  6
  8 42  1  0
  8 43  1  0
  8 44  1  0
  9 45  1  0
  9 46  1  0
  9 47  1  0
 10 48  1  6
 11 49  1  0
 11 50  1  0
 12 51  1  0
 12 52  1  0
 14 53  1  0
 14 54  1  0
 14 55  1  0
 15 56  1  1
 16 57  1  0
 16 58  1  0
 17 59  1  0
 19 60  1  1
 20 61  1  0
 20 62  1  0
 21 63  1  0
 21 64  1  0
 22 65  1  6
 23 66  1  0
 25 67  1  0
 25 68  1  0
 25 69  1  0
 26 70  1  0
 26 71  1  0
 26 72  1  0
 28 73  1  0
 28 74  1  0
 28 75  1  0
 29 76  1  0
 29 77  1  0
 30 78  1  0
 30 79  1  0
 32 80  1  0
 32 81  1  0
 32 82  1  0
M  END
>  <meeko>  (8) 
{"is_sidechain": [false], "intermolecular_energy": 2.731, "internal_energy": -0.839}

$$$$
EPH_relaxed_0001_pdb2pqr_Repair_216_r2_0001_out
     RDKit          3D

 82 86  0  0  0  0  0  0  0  0999 V2000
   -0.8780   16.3620   -5.8440 C   0  0  0  0  0  0  0  0  0  0  0  0
    0.2140   15.6620   -6.6570 C   0  0  2  0  0  0  0  0  0  0  0  0
   -0.1870   15.4810   -8.1350 C   0  0  0  0  0  0  0  0  0  0  0  0
    0.4540   16.5040   -9.0760 C   0  0  0  0  0  0  0  0  0  0  0  0
    1.8570   16.1190   -9.4400 C   0  0  2  0  0  0  0  0  0  0  0  0
    2.3320   16.6820  -10.6700 O   0  0  0  0  0  0  0  0  0  0  0  0
    2.2030   15.2520  -10.6360 C   0  0  0  0  0  0  0  0  0  0  0  0
    1.1410   14.7150  -11.5440 C   0  0  0  0  0  0  0  0  0  0  0  0
    3.5130   14.5280  -10.6390 C   0  0  0  0  0  0  0  0  0  0  0  0
    0.5370   14.3080   -6.0360 C   0  0  1  0  0  0  0  0  0  0  0  0
    1.7910   13.6450   -6.6650 C   0  0  0  0  0  0  0  0  0  0  0  0
    2.5110   12.8780   -5.5270 C   0  0  0  0  0  0  0  0  0  0  0  0
    1.4860   12.8460   -4.3690 C   0  0  1  0  0  0  0  0  0  0  0  0
    0.5210   11.6710   -4.7210 C   0  0  0  0  0  0  0  0  0  0  0  0
    2.0750   12.6980   -2.9280 C   0  0  2  0  0  0  0  0  0  0  0  0
    2.8430   11.3910   -2.6690 C   0  0  0  0  0  0  0  0  0  0  0  0
    2.0200   10.2600   -2.1450 C   0  0  0  0  0  0  0  0  0  0  0  0
    0.7830   10.3680   -1.6250 C   0  0  0  0  0  0  0  0  0  0  0  0
    0.1270   11.7420   -1.4350 C   0  0  1  0  0  0  0  0  0  0  0  0
   -0.5020   11.8230   -0.0190 C   0  0  0  0  0  0  0  0  0  0  0  0
   -1.4630   10.6720    0.2620 C   0  0  0  0  0  0  0  0  0  0  0  0
   -0.7590    9.3250    0.1190 C   0  0  2  0  0  0  0  0  0  0  0  0
    0.2190    9.2050    1.1560 O   0  0  0  0  0  0  0  0  0  0  0  0
   -0.0790    9.1330   -1.2660 C   0  0  0  0  0  0  0  0  0  0  0  0
   -1.1630    8.9620   -2.3590 C   0  0  0  0  0  0  0  0  0  0  0  0
    0.7130    7.7990   -1.2280 C   0  0  0  0  0  0  0  0  0  0  0  0
    1.0390   12.9990   -1.7710 C   0  0  1  0  0  0  0  0  0  0  0  0
    1.8750   13.4000   -0.5170 C   0  0  0  0  0  0  0  0  0  0  0  0
    0.1150   14.2310   -2.1000 C   0  0  0  0  0  0  0  0  0  0  0  0
   -0.3360   14.3890   -3.5650 C   0  0  0  0  0  0  0  0  0  0  0  0
    0.8560   14.2780   -4.5200 C   0  0  2  0  0  0  0  0  0  0  0  0
    1.8330   15.4610   -4.2050 C   0  0  0  0  0  0  0  0  0  0  0  0
   -0.6759   16.2324   -4.7705 H   0  0  0  0  0  0  0  0  0  0  0  0
   -0.8867   17.4344   -6.0886 H   0  0  0  0  0  0  0  0  0  0  0  0
   -1.8561   15.9222   -6.0886 H   0  0  0  0  0  0  0  0  0  0  0  0
    1.1064   16.3047   -6.6336 H   0  0  0  0  0  0  0  0  0  0  0  0
    0.1179   14.4743   -8.4568 H   0  0  0  0  0  0  0  0  0  0  0  0
   -1.2755   15.6284   -8.1932 H   0  0  0  0  0  0  0  0  0  0  0  0
   -0.1475   16.5695   -9.9946 H   0  0  0  0  0  0  0  0  0  0  0  0
    0.4877   17.4735   -8.5573 H   0  0  0  0  0  0  0  0  0  0  0  0
    2.1413   16.0601   -8.3790 H   0  0  0  0  0  0  0  0  0  0  0  0
    0.3195   14.2996  -10.9419 H   0  0  0  0  0  0  0  0  0  0  0  0
    0.7563   15.5269  -12.1787 H   0  0  0  0  0  0  0  0  0  0  0  0
    1.5668   13.9239  -12.1787 H   0  0  0  0  0  0  0  0  0  0  0  0
    3.8357   14.3496   -9.6026 H   0  0  0  0  0  0  0  0  0  0  0  0
    3.3986   13.5651  -11.1583 H   0  0  0  0  0  0  0  0  0  0  0  0
    4.2675   15.1372  -11.1583 H   0  0  0  0  0  0  0  0  0  0  0  0
   -0.4112   13.7859   -6.2318 H   0  0  0  0  0  0  0  0  0  0  0  0
    1.4914   12.9475   -7.4611 H   0  0  0  0  0  0  0  0  0  0  0  0
    2.4539   14.4002   -7.1126 H   0  0  0  0  0  0  0  0  0  0  0  0
    2.7666   11.8573   -5.8477 H   0  0  0  0  0  0  0  0  0  0  0  0
    3.4567   13.3574   -5.2340 H   0  0  0  0  0  0  0  0  0  0  0  0
    0.1458   11.2142   -3.7933 H   0  0  0  0  0  0  0  0  0  0  0  0
   -0.3256   12.0553   -5.3089 H   0  0  0  0  0  0  0  0  0  0  0  0
    1.0626   10.9153   -5.3089 H   0  0  0  0  0  0  0  0  0  0  0  0
    2.8290   13.4984   -2.8972 H   0  0  0  0  0  0  0  0  0  0  0  0
    3.2969   11.0698   -3.6181 H   0  0  0  0  0  0  0  0  0  0  0  0
    3.5786   11.6210   -1.8842 H   0  0  0  0  0  0  0  0  0  0  0  0
    2.4621    9.2537   -2.1876 H   0  0  0  0  0  0  0  0  0  0  0  0
   -0.6616   11.8110   -2.1988 H   0  0  0  0  0  0  0  0  0  0  0  0
    0.3057   11.7980    0.7274 H   0  0  0  0  0  0  0  0  0  0  0  0
   -1.0772   12.7590    0.0373 H   0  0  0  0  0  0  0  0  0  0  0  0
   -1.8502   10.7686    1.2871 H   0  0  0  0  0  0  0  0  0  0  0  0
   -2.2861   10.7166   -0.4663 H   0  0  0  0  0  0  0  0  0  0  0  0
   -1.5257    8.5407    0.2029 H   0  0  0  0  0  0  0  0  0  0  0  0
    0.7810    9.9970    1.1240 H   0  0  0  0  0  0  0  0  0  0  0  0
   -2.1425    8.8075   -1.8829 H   0  0  0  0  0  0  0  0  0  0  0  0
   -1.1981    9.8657   -2.9852 H   0  0  0  0  0  0  0  0  0  0  0  0
   -0.9182    8.0914   -2.9852 H   0  0  0  0  0  0  0  0  0  0  0  0
    0.8872    7.5056   -0.1822 H   0  0  0  0  0  0  0  0  0  0  0  0
    0.1343    7.0144   -1.7374 H   0  0  0  0  0  0  0  0  0  0  0  0
    1.6789    7.9314   -1.7374 H   0  0  0  0  0  0  0  0  0  0  0  0
    1.3197   13.1336    0.3944 H   0  0  0  0  0  0  0  0  0  0  0  0
    2.8359   12.8648   -0.5305 H   0  0  0  0  0  0  0  0  0  0  0  0
    2.0591   14.4844   -0.5305 H   0  0  0  0  0  0  0  0  0  0  0  0
   -0.7899   14.1432   -1.4808 H   0  0  0  0  0  0  0  0  0  0  0  0
    0.7318   15.1175   -1.8913 H   0  0  0  0  0  0  0  0  0  0  0  0
   -1.0639   13.5998   -3.8046 H   0  0  0  0  0  0  0  0  0  0  0  0
   -0.7918   15.3827   -3.6866 H   0  0  0  0  0  0  0  0  0  0  0  0
    1.9289   15.5771   -3.1154 H   0  0  0  0  0  0  0  0  0  0  0  0
    2.8206   15.2464   -4.6392 H   0  0  0  0  0  0  0  0  0  0  0  0
    1.4356   16.3903   -4.6392 H   0  0  0  0  0  0  0  0  0  0  0  0
  1  2  1  0
  2  3  1  0
  3  4  1  0
  4  5  1  0
  5  6  1  0
  6  7  1  0
  7  8  1  0
  7  9  1  0
  2 10  1  0
 10 11  1  0
 11 12  1  0
 12 13  1  0
 13 14  1  6
 13 15  1  0
 15 16  1  0
 16 17  1  0
 17 18  2  0
 18 19  1  0
 19 20  1  0
 20 21  1  0
 21 22  1  0
 22 23  1  0
 22 24  1  0
 24 25  1  0
 24 26  1  0
 19 27  1  0
 27 28  1  1
 27 29  1  0
 29 30  1  0
 30 31  1  0
 31 32  1  1
  7  5  1  0
 31 10  1  0
 31 13  1  0
 27 15  1  0
 24 18  1  0
  1 33  1  0
  1 34  1  0
  1 35  1  0
  2 36  1  6
  3 37  1  0
  3 38  1  0
  4 39  1  0
  4 40  1  0
  5 41  1  1
  8 42  1  0
  8 43  1  0
  8 44  1  0
  9 45  1  0
  9 46  1  0
  9 47  1  0
 10 48  1  1
 11 49  1  0
 11 50  1  0
 12 51  1  0
 12 52  1  0
 14 53  1  0
 14 54  1  0
 14 55  1  0
 15 56  1  6
 16 57  1  0
 16 58  1  0
 17 59  1  0
 19 60  1  6
 20 61  1  0
 20 62  1  0
 21 63  1  0
 21 64  1  0
 22 65  1  1
 23 66  1  0
 25 67  1  0
 25 68  1  0
 25 69  1  0
 26 70  1  0
 26 71  1  0
 26 72  1  0
 28 73  1  0
 28 74  1  0
 28 75  1  0
 29 76  1  0
 29 77  1  0
 30 78  1  0
 30 79  1  0
 32 80  1  0
 32 81  1  0
 32 82  1  0
M  END
>  <meeko>  (9) 
{"is_sidechain": [false], "intermolecular_energy": 2.731, "internal_energy": -0.839}

$$$$
EPH_relaxed_0001_pdb2pqr_Repair_216_r2_0001_out
     RDKit          3D

 82 86  0  0  0  0  0  0  0  0999 V2000
   -0.2950   15.1070   -7.6320 C   0  0  0  0  0  0  0  0  0  0  0  0
    1.0800   15.0860   -6.9570 C   0  0  2  0  0  0  0  0  0  0  0  0
    2.2300   15.1740   -7.9800 C   0  0  0  0  0  0  0  0  0  0  0  0
    2.2570   16.4900   -8.7640 C   0  0  0  0  0  0  0  0  0  0  0  0
    1.8560   16.2910  -10.1940 C   0  0  2  0  0  0  0  0  0  0  0  0
    1.1940   15.0480  -10.4630 O   0  0  0  0  0  0  0  0  0  0  0  0
    2.4700   15.2370  -11.0970 C   0  0  0  0  0  0  0  0  0  0  0  0
    3.5380   14.3120  -10.6020 C   0  0  0  0  0  0  0  0  0  0  0  0
    2.3850   15.4270  -12.5790 C   0  0  0  0  0  0  0  0  0  0  0  0
    1.2270   13.8230   -6.1160 C   0  0  1  0  0  0  0  0  0  0  0  0
    2.6590   13.2290   -6.1760 C   0  0  0  0  0  0  0  0  0  0  0  0
    2.9520   12.6280   -4.7770 C   0  0  0  0  0  0  0  0  0  0  0  0
    1.5770   12.5970   -4.0690 C   0  0  1  0  0  0  0  0  0  0  0  0
    0.8750   11.3140   -4.6130 C   0  0  0  0  0  0  0  0  0  0  0  0
    1.6030   12.6230   -2.5060 C   0  0  2  0  0  0  0  0  0  0  0  0
    2.2940   11.4180   -1.8450 C   0  0  0  0  0  0  0  0  0  0  0  0
    1.4010   10.2640   -1.5310 C   0  0  0  0  0  0  0  0  0  0  0  0
    0.0550   10.3010   -1.5060 C   0  0  0  0  0  0  0  0  0  0  0  0
   -0.7010   11.6190   -1.7170 C   0  0  1  0  0  0  0  0  0  0  0  0
   -1.8080   11.7580   -0.6400 C   0  0  0  0  0  0  0  0  0  0  0  0
   -2.7400   10.5510   -0.5990 C   0  0  0  0  0  0  0  0  0  0  0  0
   -1.9590    9.2680   -0.3300 C   0  0  2  0  0  0  0  0  0  0  0  0
   -1.4250    9.3230    0.9960 O   0  0  0  0  0  0  0  0  0  0  0  0
   -0.8090    9.0260   -1.3470 C   0  0  0  0  0  0  0  0  0  0  0  0
   -1.4050    8.6660   -2.7310 C   0  0  0  0  0  0  0  0  0  0  0  0
   -0.0140    7.7770   -0.8800 C   0  0  0  0  0  0  0  0  0  0  0  0
    0.2000   12.9230   -1.8390 C   0  0  1  0  0  0  0  0  0  0  0  0
    0.4950   13.5000   -0.4210 C   0  0  0  0  0  0  0  0  0  0  0  0
   -0.6050   14.0330   -2.6130 C   0  0  0  0  0  0  0  0  0  0  0  0
   -0.4950   14.0280   -4.1490 C   0  0  0  0  0  0  0  0  0  0  0  0
    0.9680   13.9490   -4.5940 C   0  0  2  0  0  0  0  0  0  0  0  0
    1.6950   15.2380   -4.0810 C   0  0  0  0  0  0  0  0  0  0  0  0
   -1.0810   15.1190   -6.8626 H   0  0  0  0  0  0  0  0  0  0  0  0
   -0.3819   16.0066   -8.2591 H   0  0  0  0  0  0  0  0  0  0  0  0
   -0.4094   14.2105   -8.2591 H   0  0  0  0  0  0  0  0  0  0  0  0
    1.1447   15.9732   -6.3100 H   0  0  0  0  0  0  0  0  0  0  0  0
    3.1832   15.0713   -7.4407 H   0  0  0  0  0  0  0  0  0  0  0  0
    2.0726   14.3673   -8.7110 H   0  0  0  0  0  0  0  0  0  0  0  0
    1.5603   17.1996   -8.2937 H   0  0  0  0  0  0  0  0  0  0  0  0
    3.2860   16.8784   -8.7471 H   0  0  0  0  0  0  0  0  0  0  0  0
    1.6968   17.3716  -10.3239 H   0  0  0  0  0  0  0  0  0  0  0  0
    3.5404   14.3099   -9.5020 H   0  0  0  0  0  0  0  0  0  0  0  0
    3.3412   13.2943  -10.9701 H   0  0  0  0  0  0  0  0  0  0  0  0
    4.5172   14.6521  -10.9701 H   0  0  0  0  0  0  0  0  0  0  0  0
    1.9448   16.4110  -12.7979 H   0  0  0  0  0  0  0  0  0  0  0  0
    3.3937   15.3716  -13.0142 H   0  0  0  0  0  0  0  0  0  0  0  0
    1.7540   14.6380  -13.0142 H   0  0  0  0  0  0  0  0  0  0  0  0
    0.4477   13.2002   -6.5796 H   0  0  0  0  0  0  0  0  0  0  0  0
    2.7116   12.4436   -6.9444 H   0  0  0  0  0  0  0  0  0  0  0  0
    3.3970   14.0019   -6.4367 H   0  0  0  0  0  0  0  0  0  0  0  0
    3.3640   11.6123   -4.8694 H   0  0  0  0  0  0  0  0  0  0  0  0
    3.6954   13.2155   -4.2183 H   0  0  0  0  0  0  0  0  0  0  0  0
    0.5365   10.6953   -3.7688 H   0  0  0  0  0  0  0  0  0  0  0  0
    0.0089   11.6022   -5.2268 H   0  0  0  0  0  0  0  0  0  0  0  0
    1.5847   10.7400   -5.2268 H   0  0  0  0  0  0  0  0  0  0  0  0
    2.2475   13.4891   -2.2953 H   0  0  0  0  0  0  0  0  0  0  0  0
    3.0819   11.0627   -2.5254 H   0  0  0  0  0  0  0  0  0  0  0  0
    2.6760   11.7788   -0.8786 H   0  0  0  0  0  0  0  0  0  0  0  0
    1.8828    9.3024   -1.3006 H   0  0  0  0  0  0  0  0  0  0  0  0
   -1.1580   11.5519   -2.7153 H   0  0  0  0  0  0  0  0  0  0  0  0
   -1.3300   11.8679    0.3446 H   0  0  0  0  0  0  0  0  0  0  0  0
   -2.4144   12.6392   -0.8967 H   0  0  0  0  0  0  0  0  0  0  0  0
   -3.4813   10.6956    0.2007 H   0  0  0  0  0  0  0  0  0  0  0  0
   -3.2397   10.4599   -1.5747 H   0  0  0  0  0  0  0  0  0  0  0  0
   -2.6585    8.4265   -0.4419 H   0  0  0  0  0  0  0  0  0  0  0  0
   -0.8350   10.0950    1.0440 H   0  0  0  0  0  0  0  0  0  0  0  0
   -2.3391    8.1018   -2.5925 H   0  0  0  0  0  0  0  0  0  0  0  0
   -1.6139    9.5891   -3.2916 H   0  0  0  0  0  0  0  0  0  0  0  0
   -0.6852    8.0515   -3.2916 H   0  0  0  0  0  0  0  0  0  0  0  0
    0.0062    7.7452    0.2194 H   0  0  0  0  0  0  0  0  0  0  0  0
   -0.5002    6.8681   -1.2642 H   0  0  0  0  0  0  0  0  0  0  0  0
    1.0152    7.8327   -1.2642 H   0  0  0  0  0  0  0  0  0  0  0  0
    0.1350   12.7958    0.3436 H   0  0  0  0  0  0  0  0  0  0  0  0
    1.5788   13.6468   -0.3030 H   0  0  0  0  0  0  0  0  0  0  0  0
   -0.0206   14.4645   -0.3030 H   0  0  0  0  0  0  0  0  0  0  0  0
   -1.6677   13.9138   -2.3553 H   0  0  0  0  0  0  0  0  0  0  0  0
   -0.1573   14.9864   -2.2959 H   0  0  0  0  0  0  0  0  0  0  0  0
   -1.0392   13.1583   -4.5458 H   0  0  0  0  0  0  0  0  0  0  0  0
   -0.9286   14.9625   -4.5345 H   0  0  0  0  0  0  0  0  0  0  0  0
    1.6983   15.2439   -2.9810 H   0  0  0  0  0  0  0  0  0  0  0  0
    2.7309   15.2465   -4.4508 H   0  0  0  0  0  0  0  0  0  0  0  0
    1.1663   16.1289   -4.4508 H   0  0  0  0  0  0  0  0  0  0  0  0
  1  2  1  0
  2  3  1  0
  3  4  1  0
  4  5  1  0
  5  6  1  0
  6  7  1  0
  7  8  1  0
  7  9  1  0
  2 10  1  0
 10 11  1  0
 11 12  1  0
 12 13  1  0
 13 14  1  1
 13 15  1  0
 15 16  1  0
 16 17  1  0
 17 18  2  0
 18 19  1  0
 19 20  1  0
 20 21  1  0
 21 22  1  0
 22 23  1  0
 22 24  1  0
 24 25  1  0
 24 26  1  0
 19 27  1  0
 27 28  1  1
 27 29  1  0
 29 30  1  0
 30 31  1  0
 31 32  1  1
  7  5  1  0
 31 10  1  0
 31 13  1  0
 27 15  1  0
 24 18  1  0
  1 33  1  0
  1 34  1  0
  1 35  1  0
  2 36  1  1
  3 37  1  0
  3 38  1  0
  4 39  1  0
  4 40  1  0
  5 41  1  6
  8 42  1  0
  8 43  1  0
  8 44  1  0
  9 45  1  0
  9 46  1  0
  9 47  1  0
 10 48  1  6
 11 49  1  0
 11 50  1  0
 12 51  1  0
 12 52  1  0
 14 53  1  0
 14 54  1  0
 14 55  1  0
 15 56  1  6
 16 57  1  0
 16 58  1  0
 17 59  1  0
 19 60  1  6
 20 61  1  0
 20 62  1  0
 21 63  1  0
 21 64  1  0
 22 65  1  1
 23 66  1  0
 25 67  1  0
 25 68  1  0
 25 69  1  0
 26 70  1  0
 26 71  1  0
 26 72  1  0
 28 73  1  0
 28 74  1  0
 28 75  1  0
 29 76  1  0
 29 77  1  0
 30 78  1  0
 30 79  1  0
 32 80  1  0
 32 81  1  0
 32 82  1  0
M  END
>  <meeko>  (10) 
{"is_sidechain": [false], "intermolecular_energy": 2.731, "internal_energy": -0.839}

$$$$
EPH_relaxed_0001_pdb2pqr_Repair_216_r2_0001_out
     RDKit          3D

 82 86  0  0  0  0  0  0  0  0999 V2000
   -2.2590    7.8440   -2.1650 C   0  0  0  0  0  0  0  0  0  0  0  0
   -2.1920    8.4450   -0.7580 C   0  0  2  0  0  0  0  0  0  0  0  0
   -3.5600    8.4150   -0.0480 C   0  0  0  0  0  0  0  0  0  0  0  0
   -4.7520    8.5010   -1.0040 C   0  0  0  0  0  0  0  0  0  0  0  0
   -5.5870    7.2580   -0.9630 C   0  0  2  0  0  0  0  0  0  0  0  0
   -5.6580    6.5420   -2.2030 O   0  0  0  0  0  0  0  0  0  0  0  0
   -6.8920    7.1000   -1.7210 C   0  0  0  0  0  0  0  0  0  0  0  0
   -7.4360    8.2020   -2.5750 C   0  0  0  0  0  0  0  0  0  0  0  0
   -7.8740    6.0730   -1.2500 C   0  0  0  0  0  0  0  0  0  0  0  0
   -1.6730    9.8770   -0.8300 C   0  0  1  0  0  0  0  0  0  0  0  0
   -1.2430   10.4260    0.5560 C   0  0  0  0  0  0  0  0  0  0  0  0
   -0.0260   11.3550    0.3110 C   0  0  0  0  0  0  0  0  0  0  0  0
   -0.0030   11.5720   -1.2200 C   0  0  1  0  0  0  0  0  0  0  0  0
   -1.0650   12.6850   -1.4830 C   0  0  0  0  0  0  0  0  0  0  0  0
    1.3830   11.9370   -1.8450 C   0  0  2  0  0  0  0  0  0  0  0  0
    1.9900   13.2640   -1.3570 C   0  0  0  0  0  0  0  0  0  0  0  0
    1.6250   14.4670   -2.1630 C   0  0  0  0  0  0  0  0  0  0  0  0
    1.0780   14.4480   -3.3930 C   0  0  0  0  0  0  0  0  0  0  0  0
    0.8630   13.1240   -4.1390 C   0  0  1  0  0  0  0  0  0  0  0  0
    1.3620   13.2660   -5.6010 C   0  0  0  0  0  0  0  0  0  0  0  0
    0.7300   14.4530   -6.3220 C   0  0  0  0  0  0  0  0  0  0  0  0
    1.0150   15.7570   -5.5820 C   0  0  2  0  0  0  0  0  0  0  0  0
    2.4180   16.0300   -5.6540 O   0  0  0  0  0  0  0  0  0  0  0  0
    0.5640   15.7290   -4.0950 C   0  0  0  0  0  0  0  0  0  0  0  0
   -0.9830   15.7360   -4.0200 C   0  0  0  0  0  0  0  0  0  0  0  0
    1.0370   17.0480   -3.4270 C   0  0  0  0  0  0  0  0  0  0  0  0
    1.4320   11.8240   -3.4230 C   0  0  1  0  0  0  0  0  0  0  0  0
    2.9280   11.6170   -3.8090 C   0  0  0  0  0  0  0  0  0  0  0  0
    0.6560   10.5620   -3.9570 C   0  0  0  0  0  0  0  0  0  0  0  0
   -0.6430   10.1830   -3.2220 C   0  0  0  0  0  0  0  0  0  0  0  0
   -0.4230   10.1370   -1.7070 C   0  0  2  0  0  0  0  0  0  0  0  0
    0.6250    9.0110   -1.4090 C   0  0  0  0  0  0  0  0  0  0  0  0
   -2.3806    6.7532   -2.0924 H   0  0  0  0  0  0  0  0  0  0  0  0
   -3.1149    8.2731   -2.7066 H   0  0  0  0  0  0  0  0  0  0  0  0
   -1.3296    8.0741   -2.7066 H   0  0  0  0  0  0  0  0  0  0  0  0
   -1.5002    7.8276   -0.1662 H   0  0  0  0  0  0  0  0  0  0  0  0
   -3.6365    7.4753    0.5186 H   0  0  0  0  0  0  0  0  0  0  0  0
   -3.6044    9.3018    0.6013 H   0  0  0  0  0  0  0  0  0  0  0  0
   -5.3770    9.3597   -0.7178 H   0  0  0  0  0  0  0  0  0  0  0  0
   -4.3634    8.6190   -2.0263 H   0  0  0  0  0  0  0  0  0  0  0  0
   -5.3205    7.0868    0.0904 H   0  0  0  0  0  0  0  0  0  0  0  0
   -7.8312    9.0027   -1.9326 H   0  0  0  0  0  0  0  0  0  0  0  0
   -6.6329    8.6042   -3.2101 H   0  0  0  0  0  0  0  0  0  0  0  0
   -8.2437    7.8091   -3.2101 H   0  0  0  0  0  0  0  0  0  0  0  0
   -7.8890    6.0573   -0.1502 H   0  0  0  0  0  0  0  0  0  0  0  0
   -8.8764    6.3242   -1.6268 H   0  0  0  0  0  0  0  0  0  0  0  0
   -7.5781    5.0828   -1.6268 H   0  0  0  0  0  0  0  0  0  0  0  0
   -2.5514   10.3700   -1.2721 H   0  0  0  0  0  0  0  0  0  0  0  0
   -2.0678   10.9942    1.0109 H   0  0  0  0  0  0  0  0  0  0  0  0
   -0.9826    9.6065    1.2420 H   0  0  0  0  0  0  0  0  0  0  0  0
   -0.1561   12.3123    0.8370 H   0  0  0  0  0  0  0  0  0  0  0  0
    0.9127   10.9202    0.6849 H   0  0  0  0  0  0  0  0  0  0  0  0
   -1.4351   13.0729   -0.5225 H   0  0  0  0  0  0  0  0  0  0  0  0
   -0.6044   13.5033   -2.0559 H   0  0  0  0  0  0  0  0  0  0  0  0
   -1.9040   12.2632   -2.0559 H   0  0  0  0  0  0  0  0  0  0  0  0
    2.0366   11.1464   -1.4479 H   0  0  0  0  0  0  0  0  0  0  0  0
    1.6529   13.4322   -0.3235 H   0  0  0  0  0  0  0  0  0  0  0  0
    3.0802   13.1532   -1.4523 H   0  0  0  0  0  0  0  0  0  0  0  0
    1.8195   15.4520   -1.7137 H   0  0  0  0  0  0  0  0  0  0  0  0
   -0.2221   12.9436   -4.1312 H   0  0  0  0  0  0  0  0  0  0  0  0
    2.4536   13.4009   -5.5895 H   0  0  0  0  0  0  0  0  0  0  0  0
    1.0726   12.3535   -6.1428 H   0  0  0  0  0  0  0  0  0  0  0  0
    1.1444   14.5184   -7.3389 H   0  0  0  0  0  0  0  0  0  0  0  0
   -0.3589   14.3015   -6.3587 H   0  0  0  0  0  0  0  0  0  0  0  0
    0.4299   16.5492   -6.0720 H   0  0  0  0  0  0  0  0  0  0  0  0
    2.5680   16.9040   -5.2560 H   0  0  0  0  0  0  0  0  0  0  0  0
   -1.2990   15.7374   -2.9664 H   0  0  0  0  0  0  0  0  0  0  0  0
   -1.3703   16.6359   -4.5202 H   0  0  0  0  0  0  0  0  0  0  0  0
   -1.3784   14.8396   -4.5202 H   0  0  0  0  0  0  0  0  0  0  0  0
    0.9981   16.9395   -2.3331 H   0  0  0  0  0  0  0  0  0  0  0  0
    2.0695   17.2664   -3.7373 H   0  0  0  0  0  0  0  0  0  0  0  0
    0.3786   17.8728   -3.7373 H   0  0  0  0  0  0  0  0  0  0  0  0
    3.5343   11.5331   -2.8950 H   0  0  0  0  0  0  0  0  0  0  0  0
    3.0296   10.6962   -4.4022 H   0  0  0  0  0  0  0  0  0  0  0  0
    3.2758   12.4756   -4.4022 H   0  0  0  0  0  0  0  0  0  0  0  0
    0.3997   10.7500   -5.0101 H   0  0  0  0  0  0  0  0  0  0  0  0
    1.3375    9.7143   -3.7925 H   0  0  0  0  0  0  0  0  0  0  0  0
   -1.4169   10.9306   -3.4506 H   0  0  0  0  0  0  0  0  0  0  0  0
   -0.9590    9.1853   -3.5607 H   0  0  0  0  0  0  0  0  0  0  0  0
    0.7359    8.8919   -0.3211 H   0  0  0  0  0  0  0  0  0  0  0  0
    0.2800    8.0634   -1.8483 H   0  0  0  0  0  0  0  0  0  0  0  0
    1.5949    9.2872   -1.8483 H   0  0  0  0  0  0  0  0  0  0  0  0
  1  2  1  0
  2  3  1  0
  3  4  1  0
  4  5  1  0
  5  6  1  0
  6  7  1  0
  7  8  1  0
  7  9  1  0
  2 10  1  0
 10 11  1  0
 11 12  1  0
 12 13  1  0
 13 14  1  1
 13 15  1  0
 15 16  1  0
 16 17  1  0
 17 18  2  0
 18 19  1  0
 19 20  1  0
 20 21  1  0
 21 22  1  0
 22 23  1  0
 22 24  1  0
 24 25  1  0
 24 26  1  0
 19 27  1  0
 27 28  1  6
 27 29  1  0
 29 30  1  0
 30 31  1  0
 31 32  1  6
  7  5  1  0
 31 10  1  0
 31 13  1  0
 27 15  1  0
 24 18  1  0
  1 33  1  0
  1 34  1  0
  1 35  1  0
  2 36  1  1
  3 37  1  0
  3 38  1  0
  4 39  1  0
  4 40  1  0
  5 41  1  1
  8 42  1  0
  8 43  1  0
  8 44  1  0
  9 45  1  0
  9 46  1  0
  9 47  1  0
 10 48  1  6
 11 49  1  0
 11 50  1  0
 12 51  1  0
 12 52  1  0
 14 53  1  0
 14 54  1  0
 14 55  1  0
 15 56  1  1
 16 57  1  0
 16 58  1  0
 17 59  1  0
 19 60  1  6
 20 61  1  0
 20 62  1  0
 21 63  1  0
 21 64  1  0
 22 65  1  6
 23 66  1  0
 25 67  1  0
 25 68  1  0
 25 69  1  0
 26 70  1  0
 26 71  1  0
 26 72  1  0
 28 73  1  0
 28 74  1  0
 28 75  1  0
 29 76  1  0
 29 77  1  0
 30 78  1  0
 30 79  1  0
 32 80  1  0
 32 81  1  0
 32 82  1  0
M  END
>  <meeko>  (11) 
{"is_sidechain": [false], "intermolecular_energy": 2.731, "internal_energy": -0.839}

$$$$
EPH_relaxed_0001_pdb2pqr_Repair_216_r2_0001_out
     RDKit          3D

 82 86  0  0  0  0  0  0  0  0999 V2000
    0.1900    8.5830   -2.3190 C   0  0  0  0  0  0  0  0  0  0  0  0
    0.9140    9.7080   -3.0620 C   0  0  2  0  0  0  0  0  0  0  0  0
    2.4310    9.7040   -2.7860 C   0  0  0  0  0  0  0  0  0  0  0  0
    3.2530   10.4340   -3.8520 C   0  0  0  0  0  0  0  0  0  0  0  0
    4.6390   10.7390   -3.3710 C   0  0  2  0  0  0  0  0  0  0  0  0
    5.2010   11.9500   -3.8920 O   0  0  0  0  0  0  0  0  0  0  0  0
    5.8590   10.7310   -4.2730 C   0  0  0  0  0  0  0  0  0  0  0  0
    5.7490   10.4110   -5.7310 C   0  0  0  0  0  0  0  0  0  0  0  0
    7.2090   10.5550   -3.6510 C   0  0  0  0  0  0  0  0  0  0  0  0
    0.3180   11.0560   -2.6740 C   0  0  1  0  0  0  0  0  0  0  0  0
   -1.0310   10.9160   -1.9180 C   0  0  0  0  0  0  0  0  0  0  0  0
   -1.0800   12.0620   -0.8750 C   0  0  0  0  0  0  0  0  0  0  0  0
    0.0720   13.0100   -1.2820 C   0  0  1  0  0  0  0  0  0  0  0  0
   -0.5120   13.8740   -2.4440 C   0  0  0  0  0  0  0  0  0  0  0  0
    0.6690   13.9010   -0.1450 C   0  0  2  0  0  0  0  0  0  0  0  0
   -0.3160   14.8990    0.4880 C   0  0  0  0  0  0  0  0  0  0  0  0
   -0.3610   16.2450   -0.1570 C   0  0  0  0  0  0  0  0  0  0  0  0
    0.5540   16.7330   -1.0150 C   0  0  0  0  0  0  0  0  0  0  0  0
    1.8270   15.9420   -1.3420 C   0  0  1  0  0  0  0  0  0  0  0  0
    3.0560   16.8860   -1.2690 C   0  0  0  0  0  0  0  0  0  0  0  0
    2.8960   18.1230   -2.1460 C   0  0  0  0  0  0  0  0  0  0  0  0
    1.6520   18.9140   -1.7530 C   0  0  2  0  0  0  0  0  0  0  0  0
    1.8450   19.4560   -0.4420 O   0  0  0  0  0  0  0  0  0  0  0  0
    0.3510   18.0640   -1.7810 C   0  0  0  0  0  0  0  0  0  0  0  0
   -0.0210   17.7300   -3.2460 C   0  0  0  0  0  0  0  0  0  0  0  0
   -0.8050   18.9410   -1.2280 C   0  0  0  0  0  0  0  0  0  0  0  0
    2.0390   14.5990   -0.5190 C   0  0  1  0  0  0  0  0  0  0  0  0
    2.7640   14.9080    0.8260 C   0  0  0  0  0  0  0  0  0  0  0  0
    2.9950   13.6450   -1.3300 C   0  0  0  0  0  0  0  0  0  0  0  0
    2.3320   12.7040   -2.3540 C   0  0  0  0  0  0  0  0  0  0  0  0
    1.1510   11.9570   -1.7280 C   0  0  2  0  0  0  0  0  0  0  0  0
    1.7110   11.0620   -0.5700 C   0  0  0  0  0  0  0  0  0  0  0  0
    0.2890    8.7369   -1.2343 H   0  0  0  0  0  0  0  0  0  0  0  0
   -0.8750    8.5878   -2.5943 H   0  0  0  0  0  0  0  0  0  0  0  0
    0.6355    7.6157   -2.5943 H   0  0  0  0  0  0  0  0  0  0  0  0
    0.7737    9.5360   -4.1394 H   0  0  0  0  0  0  0  0  0  0  0  0
    2.6087   10.1917   -1.8162 H   0  0  0  0  0  0  0  0  0  0  0  0
    2.7561    8.6532   -2.7934 H   0  0  0  0  0  0  0  0  0  0  0  0
    3.3183    9.7995   -4.7482 H   0  0  0  0  0  0  0  0  0  0  0  0
    2.7516   11.3864   -4.0788 H   0  0  0  0  0  0  0  0  0  0  0  0
    4.4338   10.2577   -2.4034 H   0  0  0  0  0  0  0  0  0  0  0  0
    5.3936    9.3772   -5.8537 H   0  0  0  0  0  0  0  0  0  0  0  0
    5.0369   11.1023   -6.2054 H   0  0  0  0  0  0  0  0  0  0  0  0
    6.7356   10.5183   -6.2054 H   0  0  0  0  0  0  0  0  0  0  0  0
    7.1124   10.5676   -2.5553 H   0  0  0  0  0  0  0  0  0  0  0  0
    7.6373    9.5934   -3.9703 H   0  0  0  0  0  0  0  0  0  0  0  0
    7.8695   11.3746   -3.9703 H   0  0  0  0  0  0  0  0  0  0  0  0
    0.2473   11.5200   -3.6688 H   0  0  0  0  0  0  0  0  0  0  0  0
   -1.8712   11.0083   -2.6220 H   0  0  0  0  0  0  0  0  0  0  0  0
   -1.1100    9.9336   -1.4295 H   0  0  0  0  0  0  0  0  0  0  0  0
   -2.0468   12.5850   -0.9180 H   0  0  0  0  0  0  0  0  0  0  0  0
   -0.9718   11.6928    0.1555 H   0  0  0  0  0  0  0  0  0  0  0  0
   -1.0814   14.7164   -2.0242 H   0  0  0  0  0  0  0  0  0  0  0  0
    0.3111   14.2601   -3.0632 H   0  0  0  0  0  0  0  0  0  0  0  0
   -1.1771   13.2542   -3.0632 H   0  0  0  0  0  0  0  0  0  0  0  0
    0.8912   13.1627    0.6396 H   0  0  0  0  0  0  0  0  0  0  0  0
   -1.3242   14.4623    0.4344 H   0  0  0  0  0  0  0  0  0  0  0  0
    0.0372   15.0654    1.5164 H   0  0  0  0  0  0  0  0  0  0  0  0
   -1.2148   16.8930    0.0902 H   0  0  0  0  0  0  0  0  0  0  0  0
    1.7005   15.5730   -2.3705 H   0  0  0  0  0  0  0  0  0  0  0  0
    3.1916   17.2083   -0.2261 H   0  0  0  0  0  0  0  0  0  0  0  0
    3.9289   16.3267   -1.6366 H   0  0  0  0  0  0  0  0  0  0  0  0
    3.7820   18.7642   -2.0288 H   0  0  0  0  0  0  0  0  0  0  0  0
    2.7901   17.7999   -3.1921 H   0  0  0  0  0  0  0  0  0  0  0  0
    1.5204   19.7129   -2.4976 H   0  0  0  0  0  0  0  0  0  0  0  0
    2.6970   19.9240   -0.4400 H   0  0  0  0  0  0  0  0  0  0  0  0
   -0.8394   16.9952   -3.2581 H   0  0  0  0  0  0  0  0  0  0  0  0
   -0.3440   18.6470   -3.7605 H   0  0  0  0  0  0  0  0  0  0  0  0
    0.8561   17.3104   -3.7605 H   0  0  0  0  0  0  0  0  0  0  0  0
   -0.7837   18.9249   -0.1283 H   0  0  0  0  0  0  0  0  0  0  0  0
   -0.6822   19.9752   -1.5820 H   0  0  0  0  0  0  0  0  0  0  0  0
   -1.7679   18.5442   -1.5820 H   0  0  0  0  0  0  0  0  0  0  0  0
    2.1114   14.6298    1.6667 H   0  0  0  0  0  0  0  0  0  0  0  0
    3.6982   14.3299    0.8802 H   0  0  0  0  0  0  0  0  0  0  0  0
    2.9940   15.9823    0.8802 H   0  0  0  0  0  0  0  0  0  0  0  0
    3.7122   14.2769   -1.8744 H   0  0  0  0  0  0  0  0  0  0  0  0
    3.4446   12.9805   -0.5775 H   0  0  0  0  0  0  0  0  0  0  0  0
    1.9710   13.2975   -3.2069 H   0  0  0  0  0  0  0  0  0  0  0  0
    3.0773   11.9662   -2.6860 H   0  0  0  0  0  0  0  0  0  0  0  0
    1.4355   11.5023    0.3997 H   0  0  0  0  0  0  0  0  0  0  0  0
    1.2839   10.0513   -0.6484 H   0  0  0  0  0  0  0  0  0  0  0  0
    2.8067   11.0041   -0.6484 H   0  0  0  0  0  0  0  0  0  0  0  0
  1  2  1  0
  2  3  1  0
  3  4  1  0
  4  5  1  0
  5  6  1  0
  6  7  1  0
  7  8  1  0
  7  9  1  0
  2 10  1  0
 10 11  1  0
 11 12  1  0
 12 13  1  0
 13 14  1  6
 13 15  1  0
 15 16  1  0
 16 17  1  0
 17 18  2  0
 18 19  1  0
 19 20  1  0
 20 21  1  0
 21 22  1  0
 22 23  1  0
 22 24  1  0
 24 25  1  0
 24 26  1  0
 19 27  1  0
 27 28  1  1
 27 29  1  0
 29 30  1  0
 30 31  1  0
 31 32  1  1
  7  5  1  0
 31 10  1  0
 31 13  1  0
 27 15  1  0
 24 18  1  0
  1 33  1  0
  1 34  1  0
  1 35  1  0
  2 36  1  6
  3 37  1  0
  3 38  1  0
  4 39  1  0
  4 40  1  0
  5 41  1  1
  8 42  1  0
  8 43  1  0
  8 44  1  0
  9 45  1  0
  9 46  1  0
  9 47  1  0
 10 48  1  6
 11 49  1  0
 11 50  1  0
 12 51  1  0
 12 52  1  0
 14 53  1  0
 14 54  1  0
 14 55  1  0
 15 56  1  1
 16 57  1  0
 16 58  1  0
 17 59  1  0
 19 60  1  6
 20 61  1  0
 20 62  1  0
 21 63  1  0
 21 64  1  0
 22 65  1  6
 23 66  1  0
 25 67  1  0
 25 68  1  0
 25 69  1  0
 26 70  1  0
 26 71  1  0
 26 72  1  0
 28 73  1  0
 28 74  1  0
 28 75  1  0
 29 76  1  0
 29 77  1  0
 30 78  1  0
 30 79  1  0
 32 80  1  0
 32 81  1  0
 32 82  1  0
M  END
>  <meeko>  (12) 
{"is_sidechain": [false], "intermolecular_energy": 2.731, "internal_energy": -0.839}

$$$$
EPH_relaxed_0001_pdb2pqr_Repair_216_r2_0001_out
     RDKit          3D

 82 86  0  0  0  0  0  0  0  0999 V2000
   -4.0330    7.0200   -3.2100 C   0  0  0  0  0  0  0  0  0  0  0  0
   -4.0880    7.2520   -1.6970 C   0  0  2  0  0  0  0  0  0  0  0  0
   -5.5300    7.1930   -1.1530 C   0  0  0  0  0  0  0  0  0  0  0  0
   -6.5900    7.6160   -2.1740 C   0  0  0  0  0  0  0  0  0  0  0  0
   -7.9530    7.6990   -1.5550 C   0  0  2  0  0  0  0  0  0  0  0  0
   -8.4490    6.4610   -1.0300 O   0  0  0  0  0  0  0  0  0  0  0  0
   -9.1780    7.0190   -2.1350 C   0  0  0  0  0  0  0  0  0  0  0  0
   -9.0990    6.2060   -3.3900 C   0  0  0  0  0  0  0  0  0  0  0  0
  -10.5310    7.5410   -1.7630 C   0  0  0  0  0  0  0  0  0  0  0  0
   -3.4560    8.5960   -1.3540 C   0  0  1  0  0  0  0  0  0  0  0  0
   -4.0100    9.1960   -0.0340 C   0  0  0  0  0  0  0  0  0  0  0  0
   -2.8330    9.9410    0.6470 C   0  0  0  0  0  0  0  0  0  0  0  0
   -1.7420   10.0290   -0.4460 C   0  0  1  0  0  0  0  0  0  0  0  0
   -2.1610   11.2420   -1.3340 C   0  0  0  0  0  0  0  0  0  0  0  0
   -0.2680   10.1630    0.0580 C   0  0  2  0  0  0  0  0  0  0  0  0
    0.0310   11.4380    0.8660 C   0  0  0  0  0  0  0  0  0  0  0  0
    0.4950   12.6080    0.0630 C   0  0  0  0  0  0  0  0  0  0  0  0
    0.9370   12.5590   -1.2070 C   0  0  0  0  0  0  0  0  0  0  0  0
    1.0950   11.2180   -1.9350 C   0  0  1  0  0  0  0  0  0  0  0  0
    2.4690   11.1770   -2.6530 C   0  0  0  0  0  0  0  0  0  0  0  0
    2.6820   12.3710   -3.5780 C   0  0  0  0  0  0  0  0  0  0  0  0
    2.5750   13.6840   -2.8070 C   0  0  2  0  0  0  0  0  0  0  0  0
    3.6710   13.7710   -1.8910 O   0  0  0  0  0  0  0  0  0  0  0  0
    1.2350   13.8340   -2.0340 C   0  0  0  0  0  0  0  0  0  0  0  0
    0.0750   14.0430   -3.0390 C   0  0  0  0  0  0  0  0  0  0  0  0
    1.3140   15.1330   -1.1870 C   0  0  0  0  0  0  0  0  0  0  0  0
    0.8240    9.9180   -1.0610 C   0  0  1  0  0  0  0  0  0  0  0  0
    2.1300    9.4920   -0.3220 C   0  0  0  0  0  0  0  0  0  0  0  0
    0.4450    8.7260   -2.0160 C   0  0  0  0  0  0  0  0  0  0  0  0
   -1.0440    8.5740   -2.3820 C   0  0  0  0  0  0  0  0  0  0  0  0
   -1.9240    8.6240   -1.1290 C   0  0  2  0  0  0  0  0  0  0  0  0
   -1.5410    7.4020   -0.2260 C   0  0  0  0  0  0  0  0  0  0  0  0
   -3.7835    5.9676   -3.4108 H   0  0  0  0  0  0  0  0  0  0  0  0
   -5.0119    7.2557   -3.6529 H   0  0  0  0  0  0  0  0  0  0  0  0
   -3.2641    7.6701   -3.6529 H   0  0  0  0  0  0  0  0  0  0  0  0
   -3.5205    6.4413   -1.2166 H   0  0  0  0  0  0  0  0  0  0  0  0
   -5.7414    6.1597   -0.8405 H   0  0  0  0  0  0  0  0  0  0  0  0
   -5.5875    7.9043   -0.3159 H   0  0  0  0  0  0  0  0  0  0  0  0
   -6.3215    8.6029   -2.5788 H   0  0  0  0  0  0  0  0  0  0  0  0
   -6.6205    6.8585   -2.9710 H   0  0  0  0  0  0  0  0  0  0  0  0
   -7.7678    8.7336   -1.2304 H   0  0  0  0  0  0  0  0  0  0  0  0
   -8.9956    5.1418   -3.1316 H   0  0  0  0  0  0  0  0  0  0  0  0
  -10.0156    6.3526   -3.9802 H   0  0  0  0  0  0  0  0  0  0  0  0
   -8.2278    6.5263   -3.9802 H   0  0  0  0  0  0  0  0  0  0  0  0
  -10.6219    7.5761   -0.6673 H   0  0  0  0  0  0  0  0  0  0  0  0
  -10.6593    8.5532   -2.1742 H   0  0  0  0  0  0  0  0  0  0  0  0
  -11.3059    6.8773   -2.1742 H   0  0  0  0  0  0  0  0  0  0  0  0
   -3.7129    9.1590   -2.2634 H   0  0  0  0  0  0  0  0  0  0  0  0
   -4.8281    9.8985   -0.2512 H   0  0  0  0  0  0  0  0  0  0  0  0
   -4.4105    8.4080    0.6207 H   0  0  0  0  0  0  0  0  0  0  0  0
   -3.1434   10.9464    0.9676 H   0  0  0  0  0  0  0  0  0  0  0  0
   -2.4779    9.4227    1.5499 H   0  0  0  0  0  0  0  0  0  0  0  0
   -2.4521   12.0848   -0.6898 H   0  0  0  0  0  0  0  0  0  0  0  0
   -1.3142   11.5413   -1.9691 H   0  0  0  0  0  0  0  0  0  0  0  0
   -3.0120   10.9549   -1.9691 H   0  0  0  0  0  0  0  0  0  0  0  0
   -0.1853    9.3304    0.7721 H   0  0  0  0  0  0  0  0  0  0  0  0
   -0.8896   11.7306    1.3922 H   0  0  0  0  0  0  0  0  0  0  0  0
    0.8619   11.1830    1.5402 H   0  0  0  0  0  0  0  0  0  0  0  0
    0.4737   13.5936    0.5509 H   0  0  0  0  0  0  0  0  0  0  0  0
    0.2846   11.1783   -2.6777 H   0  0  0  0  0  0  0  0  0  0  0  0
    3.2640   11.1738   -1.8928 H   0  0  0  0  0  0  0  0  0  0  0  0
    2.4956   10.2673   -3.2709 H   0  0  0  0  0  0  0  0  0  0  0  0
    3.6813   12.3007   -4.0323 H   0  0  0  0  0  0  0  0  0  0  0  0
    1.9041   12.3560   -4.3556 H   0  0  0  0  0  0  0  0  0  0  0  0
    2.6054   14.5015   -3.5424 H   0  0  0  0  0  0  0  0  0  0  0  0
    4.0490   12.8800   -1.8000 H   0  0  0  0  0  0  0  0  0  0  0  0
   -0.8618   14.2118   -2.4877 H   0  0  0  0  0  0  0  0  0  0  0  0
    0.2908   14.9167   -3.6715 H   0  0  0  0  0  0  0  0  0  0  0  0
   -0.0277   13.1489   -3.6715 H   0  0  0  0  0  0  0  0  0  0  0  0
    1.2983   14.8751   -0.1178 H   0  0  0  0  0  0  0  0  0  0  0  0
    2.2463   15.6676   -1.4216 H   0  0  0  0  0  0  0  0  0  0  0  0
    0.4533   15.7766   -1.4216 H   0  0  0  0  0  0  0  0  0  0  0  0
    1.9699    9.5442    0.7650 H   0  0  0  0  0  0  0  0  0  0  0  0
    2.3920    8.4618   -0.6050 H   0  0  0  0  0  0  0  0  0  0  0  0
    2.9491   10.1695   -0.6050 H   0  0  0  0  0  0  0  0  0  0  0  0
    1.0058    8.8592   -2.9529 H   0  0  0  0  0  0  0  0  0  0  0  0
    0.6968    7.8153   -1.4527 H   0  0  0  0  0  0  0  0  0  0  0  0
   -1.3337    9.3918   -3.0582 H   0  0  0  0  0  0  0  0  0  0  0  0
   -1.1871    7.6000   -2.8727 H   0  0  0  0  0  0  0  0  0  0  0  0
   -1.6301    7.6864    0.8329 H   0  0  0  0  0  0  0  0  0  0  0  0
   -2.2190    6.5623   -0.4385 H   0  0  0  0  0  0  0  0  0  0  0  0
   -0.5050    7.0995   -0.4385 H   0  0  0  0  0  0  0  0  0  0  0  0
  1  2  1  0
  2  3  1  0
  3  4  1  0
  4  5  1  0
  5  6  1  0
  6  7  1  0
  7  8  1  0
  7  9  1  0
  2 10  1  0
 10 11  1  0
 11 12  1  0
 12 13  1  0
 13 14  1  6
 13 15  1  0
 15 16  1  0
 16 17  1  0
 17 18  2  0
 18 19  1  0
 19 20  1  0
 20 21  1  0
 21 22  1  0
 22 23  1  0
 22 24  1  0
 24 25  1  0
 24 26  1  0
 19 27  1  0
 27 28  1  1
 27 29  1  0
 29 30  1  0
 30 31  1  0
 31 32  1  1
  7  5  1  0
 31 10  1  0
 31 13  1  0
 27 15  1  0
 24 18  1  0
  1 33  1  0
  1 34  1  0
  1 35  1  0
  2 36  1  1
  3 37  1  0
  3 38  1  0
  4 39  1  0
  4 40  1  0
  5 41  1  1
  8 42  1  0
  8 43  1  0
  8 44  1  0
  9 45  1  0
  9 46  1  0
  9 47  1  0
 10 48  1  6
 11 49  1  0
 11 50  1  0
 12 51  1  0
 12 52  1  0
 14 53  1  0
 14 54  1  0
 14 55  1  0
 15 56  1  1
 16 57  1  0
 16 58  1  0
 17 59  1  0
 19 60  1  6
 20 61  1  0
 20 62  1  0
 21 63  1  0
 21 64  1  0
 22 65  1  6
 23 66  1  0
 25 67  1  0
 25 68  1  0
 25 69  1  0
 26 70  1  0
 26 71  1  0
 26 72  1  0
 28 73  1  0
 28 74  1  0
 28 75  1  0
 29 76  1  0
 29 77  1  0
 30 78  1  0
 30 79  1  0
 32 80  1  0
 32 81  1  0
 32 82  1  0
M  END
>  <meeko>  (13) 
{"is_sidechain": [false], "intermolecular_energy": 2.731, "internal_energy": -0.839}

$$$$
EPH_relaxed_0001_pdb2pqr_Repair_216_r2_0001_out
     RDKit          3D

 82 86  0  0  0  0  0  0  0  0999 V2000
   -0.6250   16.5190   -0.1480 C   0  0  0  0  0  0  0  0  0  0  0  0
   -0.8210   15.1710    0.5510 C   0  0  2  0  0  0  0  0  0  0  0  0
   -0.9950   15.3270    2.0750 C   0  0  0  0  0  0  0  0  0  0  0  0
   -0.8130   14.0210    2.8520 C   0  0  0  0  0  0  0  0  0  0  0  0
   -0.5880   14.2710    4.3130 C   0  0  2  0  0  0  0  0  0  0  0  0
    0.0380   13.1900    5.0160 O   0  0  0  0  0  0  0  0  0  0  0  0
   -1.3060   13.5100    5.4120 C   0  0  0  0  0  0  0  0  0  0  0  0
   -2.3040   12.4410    5.0970 C   0  0  0  0  0  0  0  0  0  0  0  0
   -1.4010   14.1350    6.7690 C   0  0  0  0  0  0  0  0  0  0  0  0
    0.3590   14.2540    0.2520 C   0  0  1  0  0  0  0  0  0  0  0  0
    0.6650   13.2760    1.4170 C   0  0  0  0  0  0  0  0  0  0  0  0
    1.1490   11.9510    0.7730 C   0  0  0  0  0  0  0  0  0  0  0  0
    1.4220   12.3130   -0.7050 C   0  0  1  0  0  0  0  0  0  0  0  0
    2.8360   12.9750   -0.7010 C   0  0  0  0  0  0  0  0  0  0  0  0
    1.3380   11.1370   -1.7320 C   0  0  2  0  0  0  0  0  0  0  0  0
    2.3630   10.0090   -1.5170 C   0  0  0  0  0  0  0  0  0  0  0  0
    3.6570   10.1780   -2.2420 C   0  0  0  0  0  0  0  0  0  0  0  0
    3.8820   11.0390   -3.2520 C   0  0  0  0  0  0  0  0  0  0  0  0
    2.7440   11.8910   -3.8280 C   0  0  1  0  0  0  0  0  0  0  0  0
    2.7860   11.8300   -5.3780 C   0  0  0  0  0  0  0  0  0  0  0  0
    4.1490   12.2190   -5.9420 C   0  0  0  0  0  0  0  0  0  0  0  0
    5.2460   11.3120   -5.3900 C   0  0  2  0  0  0  0  0  0  0  0  0
    5.0420    9.9860   -5.8890 O   0  0  0  0  0  0  0  0  0  0  0  0
    5.2950   11.2840   -3.8370 C   0  0  0  0  0  0  0  0  0  0  0  0
    5.8100   12.6450   -3.3080 C   0  0  0  0  0  0  0  0  0  0  0  0
    6.3480   10.2260   -3.4110 C   0  0  0  0  0  0  0  0  0  0  0  0
    1.2950   11.5990   -3.2450 C   0  0  1  0  0  0  0  0  0  0  0  0
    0.6230   10.4410   -4.0440 C   0  0  0  0  0  0  0  0  0  0  0  0
    0.3900   12.8690   -3.4570 C   0  0  0  0  0  0  0  0  0  0  0  0
    0.4260   13.9410   -2.3500 C   0  0  0  0  0  0  0  0  0  0  0  0
    0.2340   13.3090   -0.9680 C   0  0  2  0  0  0  0  0  0  0  0  0
   -1.1890   12.6540   -0.9350 C   0  0  0  0  0  0  0  0  0  0  0  0
   -0.5099   17.3104    0.6073 H   0  0  0  0  0  0  0  0  0  0  0  0
    0.2767   16.4783   -0.7768 H   0  0  0  0  0  0  0  0  0  0  0  0
   -1.5009   16.7368   -0.7768 H   0  0  0  0  0  0  0  0  0  0  0  0
   -1.7466   14.7256    0.1574 H   0  0  0  0  0  0  0  0  0  0  0  0
   -0.2519   16.0528    2.4369 H   0  0  0  0  0  0  0  0  0  0  0  0
   -2.0282   15.6625    2.2479 H   0  0  0  0  0  0  0  0  0  0  0  0
   -1.7165   13.4054    2.7308 H   0  0  0  0  0  0  0  0  0  0  0  0
    0.0725   13.5051    2.4523 H   0  0  0  0  0  0  0  0  0  0  0  0
   -0.4469   15.3467    4.1313 H   0  0  0  0  0  0  0  0  0  0  0  0
   -2.6976   12.0194    6.0336 H   0  0  0  0  0  0  0  0  0  0  0  0
   -3.1306   12.8717    4.5129 H   0  0  0  0  0  0  0  0  0  0  0  0
   -1.8176   11.6459    4.5129 H   0  0  0  0  0  0  0  0  0  0  0  0
   -1.2830   13.3587    7.5393 H   0  0  0  0  0  0  0  0  0  0  0  0
   -0.6070   14.8878    6.8824 H   0  0  0  0  0  0  0  0  0  0  0  0
   -2.3828   14.6178    6.8824 H   0  0  0  0  0  0  0  0  0  0  0  0
    1.1364   15.0092    0.0640 H   0  0  0  0  0  0  0  0  0  0  0  0
    1.4512   13.6920    2.0642 H   0  0  0  0  0  0  0  0  0  0  0  0
   -0.2274   13.1103    2.0385 H   0  0  0  0  0  0  0  0  0  0  0  0
    2.0678   11.5946    1.2617 H   0  0  0  0  0  0  0  0  0  0  0  0
    0.4096   11.1430    0.8750 H   0  0  0  0  0  0  0  0  0  0  0  0
    3.1657   13.1293    0.3370 H   0  0  0  0  0  0  0  0  0  0  0  0
    3.5501   12.3176   -1.2186 H   0  0  0  0  0  0  0  0  0  0  0  0
    2.7885   13.9444   -1.2186 H   0  0  0  0  0  0  0  0  0  0  0  0
    0.3561   10.6957   -1.5058 H   0  0  0  0  0  0  0  0  0  0  0  0
    2.5816    9.9487   -0.4406 H   0  0  0  0  0  0  0  0  0  0  0  0
    1.9023    9.0969   -1.9242 H   0  0  0  0  0  0  0  0  0  0  0  0
    4.4984    9.5449   -1.9237 H   0  0  0  0  0  0  0  0  0  0  0  0
    2.9330   12.9203   -3.4890 H   0  0  0  0  0  0  0  0  0  0  0  0
    2.5523   10.8035   -5.6970 H   0  0  0  0  0  0  0  0  0  0  0  0
    2.0483   12.5507   -5.7606 H   0  0  0  0  0  0  0  0  0  0  0  0
    4.1244   12.1285   -7.0380 H   0  0  0  0  0  0  0  0  0  0  0  0
    4.3686   13.2557   -5.6470 H   0  0  0  0  0  0  0  0  0  0  0  0
    6.2108   11.7194   -5.7263 H   0  0  0  0  0  0  0  0  0  0  0  0
    5.3900    9.3660   -5.2270 H   0  0  0  0  0  0  0  0  0  0  0  0
    5.8066   12.6359   -2.2080 H   0  0  0  0  0  0  0  0  0  0  0  0
    6.8347   12.8151   -3.6701 H   0  0  0  0  0  0  0  0  0  0  0  0
    5.1546   13.4509   -3.6701 H   0  0  0  0  0  0  0  0  0  0  0  0
    6.3960   10.1778   -2.3131 H   0  0  0  0  0  0  0  0  0  0  0  0
    6.0605    9.2416   -3.8090 H   0  0  0  0  0  0  0  0  0  0  0  0
    7.3337   10.5088   -3.8090 H   0  0  0  0  0  0  0  0  0  0  0  0
    0.1982    9.7090   -3.3413 H   0  0  0  0  0  0  0  0  0  0  0  0
   -0.1785   10.8493   -4.6772 H   0  0  0  0  0  0  0  0  0  0  0  0
    1.3752    9.9477   -4.6772 H   0  0  0  0  0  0  0  0  0  0  0  0
    0.7048   13.3490   -4.3954 H   0  0  0  0  0  0  0  0  0  0  0  0
   -0.6426   12.4898   -3.4568 H   0  0  0  0  0  0  0  0  0  0  0  0
    1.3980   14.4552   -2.3786 H   0  0  0  0  0  0  0  0  0  0  0  0
   -0.3925   14.6545   -2.5261 H   0  0  0  0  0  0  0  0  0  0  0  0
   -1.5022   12.5099    0.1096 H   0  0  0  0  0  0  0  0  0  0  0  0
   -1.9075   13.3120   -1.4457 H   0  0  0  0  0  0  0  0  0  0  0  0
   -1.1564   11.6803   -1.4457 H   0  0  0  0  0  0  0  0  0  0  0  0
  1  2  1  0
  2  3  1  0
  3  4  1  0
  4  5  1  0
  5  6  1  0
  6  7  1  0
  7  8  1  0
  7  9  1  0
  2 10  1  0
 10 11  1  0
 11 12  1  0
 12 13  1  0
 13 14  1  1
 13 15  1  0
 15 16  1  0
 16 17  1  0
 17 18  2  0
 18 19  1  0
 19 20  1  0
 20 21  1  0
 21 22  1  0
 22 23  1  0
 22 24  1  0
 24 25  1  0
 24 26  1  0
 19 27  1  0
 27 28  1  6
 27 29  1  0
 29 30  1  0
 30 31  1  0
 31 32  1  6
  7  5  1  0
 31 10  1  0
 31 13  1  0
 27 15  1  0
 24 18  1  0
  1 33  1  0
  1 34  1  0
  1 35  1  0
  2 36  1  6
  3 37  1  0
  3 38  1  0
  4 39  1  0
  4 40  1  0
  5 41  1  6
  8 42  1  0
  8 43  1  0
  8 44  1  0
  9 45  1  0
  9 46  1  0
  9 47  1  0
 10 48  1  6
 11 49  1  0
 11 50  1  0
 12 51  1  0
 12 52  1  0
 14 53  1  0
 14 54  1  0
 14 55  1  0
 15 56  1  1
 16 57  1  0
 16 58  1  0
 17 59  1  0
 19 60  1  6
 20 61  1  0
 20 62  1  0
 21 63  1  0
 21 64  1  0
 22 65  1  6
 23 66  1  0
 25 67  1  0
 25 68  1  0
 25 69  1  0
 26 70  1  0
 26 71  1  0
 26 72  1  0
 28 73  1  0
 28 74  1  0
 28 75  1  0
 29 76  1  0
 29 77  1  0
 30 78  1  0
 30 79  1  0
 32 80  1  0
 32 81  1  0
 32 82  1  0
M  END
>  <meeko>  (14) 
{"is_sidechain": [false], "intermolecular_energy": 2.731, "internal_energy": -0.839}

$$$$
EPH_relaxed_0001_pdb2pqr_Repair_216_r2_0001_out
     RDKit          3D

 82 86  0  0  0  0  0  0  0  0999 V2000
   -1.5770   15.2520    0.8900 C   0  0  0  0  0  0  0  0  0  0  0  0
   -0.3390   15.8790    0.2430 C   0  0  2  0  0  0  0  0  0  0  0  0
   -0.6720   16.5830   -1.0870 C   0  0  0  0  0  0  0  0  0  0  0  0
   -0.2760   18.0610   -1.1180 C   0  0  0  0  0  0  0  0  0  0  0  0
    1.1180   18.2720   -0.6080 C   0  0  2  0  0  0  0  0  0  0  0  0
    1.7630   19.4530   -1.1000 O   0  0  0  0  0  0  0  0  0  0  0  0
    2.3510   18.2020   -1.4900 C   0  0  0  0  0  0  0  0  0  0  0  0
    2.2470   17.9110   -2.9540 C   0  0  0  0  0  0  0  0  0  0  0  0
    3.6760   17.9310   -0.8480 C   0  0  0  0  0  0  0  0  0  0  0  0
    0.7250   14.8110    0.0150 C   0  0  1  0  0  0  0  0  0  0  0  0
    0.8580   13.8340    1.2140 C   0  0  0  0  0  0  0  0  0  0  0  0
    1.1920   12.4420    0.6210 C   0  0  0  0  0  0  0  0  0  0  0  0
    1.5670   12.7240   -0.8530 C   0  0  1  0  0  0  0  0  0  0  0  0
    3.0520   13.2010   -0.8050 C   0  0  0  0  0  0  0  0  0  0  0  0
    1.3720   11.5400   -1.8550 C   0  0  2  0  0  0  0  0  0  0  0  0
    2.2350   10.2980   -1.5720 C   0  0  0  0  0  0  0  0  0  0  0  0
    3.5670   10.2800   -2.2460 C   0  0  0  0  0  0  0  0  0  0  0  0
    3.9390   11.0770   -3.2650 C   0  0  0  0  0  0  0  0  0  0  0  0
    2.9420   12.0500   -3.9070 C   0  0  1  0  0  0  0  0  0  0  0  0
    3.0350   11.9420   -5.4520 C   0  0  0  0  0  0  0  0  0  0  0  0
    4.4580   12.1370   -5.9680 C   0  0  0  0  0  0  0  0  0  0  0  0
    5.4070   11.1140   -5.3500 C   0  0  2  0  0  0  0  0  0  0  0  0
    5.0550    9.8120   -5.8270 O   0  0  0  0  0  0  0  0  0  0  0  0
    5.3920   11.1240   -3.7960 C   0  0  0  0  0  0  0  0  0  0  0  0
    6.0580   12.4230   -3.2780 C   0  0  0  0  0  0  0  0  0  0  0  0
    6.2840    9.9530   -3.3030 C   0  0  0  0  0  0  0  0  0  0  0  0
    1.4460   11.9610   -3.3780 C   0  0  1  0  0  0  0  0  0  0  0  0
    0.6630   10.8760   -4.1790 C   0  0  0  0  0  0  0  0  0  0  0  0
    0.7200   13.3300   -3.6570 C   0  0  0  0  0  0  0  0  0  0  0  0
    0.8510   14.4190   -2.5750 C   0  0  0  0  0  0  0  0  0  0  0  0
    0.5270   13.8550   -1.1880 C   0  0  2  0  0  0  0  0  0  0  0  0
   -0.9690   13.3880   -1.1990 C   0  0  0  0  0  0  0  0  0  0  0  0
   -1.4825   15.2999    1.9849 H   0  0  0  0  0  0  0  0  0  0  0  0
   -2.4747   15.8041    0.5750 H   0  0  0  0  0  0  0  0  0  0  0  0
   -1.6631   14.2016    0.5750 H   0  0  0  0  0  0  0  0  0  0  0  0
    0.0439   16.6443    0.9342 H   0  0  0  0  0  0  0  0  0  0  0  0
   -0.1392   16.0639   -1.8974 H   0  0  0  0  0  0  0  0  0  0  0  0
   -1.7645   16.5408   -1.2077 H   0  0  0  0  0  0  0  0  0  0  0  0
   -0.3352   18.4243   -2.1546 H   0  0  0  0  0  0  0  0  0  0  0  0
   -0.9674   18.6152   -0.4661 H   0  0  0  0  0  0  0  0  0  0  0  0
    0.8663   17.7901    0.3482 H   0  0  0  0  0  0  0  0  0  0  0  0
    1.8800   16.8841   -3.0986 H   0  0  0  0  0  0  0  0  0  0  0  0
    1.5465   18.6197   -3.4199 H   0  0  0  0  0  0  0  0  0  0  0  0
    3.2380   18.0152   -3.4199 H   0  0  0  0  0  0  0  0  0  0  0  0
    3.5648   17.9537    0.2461 H   0  0  0  0  0  0  0  0  0  0  0  0
    4.0384   16.9401   -1.1592 H   0  0  0  0  0  0  0  0  0  0  0  0
    4.3984   18.7000   -1.1592 H   0  0  0  0  0  0  0  0  0  0  0  0
    1.5993   15.4561   -0.1568 H   0  0  0  0  0  0  0  0  0  0  0  0
    1.6656   14.1641    1.8839 H   0  0  0  0  0  0  0  0  0  0  0  0
   -0.0714   13.8006    1.8014 H   0  0  0  0  0  0  0  0  0  0  0  0
    2.0376   11.9850    1.1560 H   0  0  0  0  0  0  0  0  0  0  0  0
    0.3509   11.7387    0.7097 H   0  0  0  0  0  0  0  0  0  0  0  0
    3.3706   13.3033    0.2429 H   0  0  0  0  0  0  0  0  0  0  0  0
    3.6908   12.4628   -1.3120 H   0  0  0  0  0  0  0  0  0  0  0  0
    3.1414   14.1731   -1.3120 H   0  0  0  0  0  0  0  0  0  0  0  0
    0.3338   11.2334   -1.6595 H   0  0  0  0  0  0  0  0  0  0  0  0
    2.4026   10.2408   -0.4864 H   0  0  0  0  0  0  0  0  0  0  0  0
    1.6772    9.4410   -1.9774 H   0  0  0  0  0  0  0  0  0  0  0  0
    4.3072    9.5539   -1.8788 H   0  0  0  0  0  0  0  0  0  0  0  0
    3.2483   13.0558   -3.5836 H   0  0  0  0  0  0  0  0  0  0  0  0
    2.6826   10.9458   -5.7576 H   0  0  0  0  0  0  0  0  0  0  0  0
    2.4122   12.7410   -5.8805 H   0  0  0  0  0  0  0  0  0  0  0  0
    4.4638   12.0188   -7.0616 H   0  0  0  0  0  0  0  0  0  0  0  0
    4.7979   13.1451   -5.6884 H   0  0  0  0  0  0  0  0  0  0  0  0
    6.4285   11.3856   -5.6545 H   0  0  0  0  0  0  0  0  0  0  0  0
    4.1030    9.8190   -6.0260 H   0  0  0  0  0  0  0  0  0  0  0  0
    6.0574   12.4219   -2.1780 H   0  0  0  0  0  0  0  0  0  0  0  0
    7.0940   12.4750   -3.6441 H   0  0  0  0  0  0  0  0  0  0  0  0
    5.4955   13.2946   -3.6441 H   0  0  0  0  0  0  0  0  0  0  0  0
    6.2951    9.9384   -2.2032 H   0  0  0  0  0  0  0  0  0  0  0  0
    5.8800    9.0012   -3.6783 H   0  0  0  0  0  0  0  0  0  0  0  0
    7.3089   10.0897   -3.6783 H   0  0  0  0  0  0  0  0  0  0  0  0
    0.1672   10.1889   -3.4775 H   0  0  0  0  0  0  0  0  0  0  0  0
   -0.0935   11.3625   -4.8123 H   0  0  0  0  0  0  0  0  0  0  0  0
    1.3631   10.3113   -4.8123 H   0  0  0  0  0  0  0  0  0  0  0  0
    1.1295   13.7393   -4.5923 H   0  0  0  0  0  0  0  0  0  0  0  0
   -0.3520   13.0856   -3.6911 H   0  0  0  0  0  0  0  0  0  0  0  0
    1.8813   14.8044   -2.5751 H   0  0  0  0  0  0  0  0  0  0  0  0
    0.1383   15.2258   -2.8010 H   0  0  0  0  0  0  0  0  0  0  0  0
   -1.3259   13.2766   -0.1645 H   0  0  0  0  0  0  0  0  0  0  0  0
   -1.5832   14.1372   -1.7201 H   0  0  0  0  0  0  0  0  0  0  0  0
   -1.0479   12.4225   -1.7201 H   0  0  0  0  0  0  0  0  0  0  0  0
  1  2  1  0
  2  3  1  0
  3  4  1  0
  4  5  1  0
  5  6  1  0
  6  7  1  0
  7  8  1  0
  7  9  1  0
  2 10  1  0
 10 11  1  0
 11 12  1  0
 12 13  1  0
 13 14  1  1
 13 15  1  0
 15 16  1  0
 16 17  1  0
 17 18  2  0
 18 19  1  0
 19 20  1  0
 20 21  1  0
 21 22  1  0
 22 23  1  0
 22 24  1  0
 24 25  1  0
 24 26  1  0
 19 27  1  0
 27 28  1  6
 27 29  1  0
 29 30  1  0
 30 31  1  0
 31 32  1  6
  7  5  1  0
 31 10  1  0
 31 13  1  0
 27 15  1  0
 24 18  1  0
  1 33  1  0
  1 34  1  0
  1 35  1  0
  2 36  1  1
  3 37  1  0
  3 38  1  0
  4 39  1  0
  4 40  1  0
  5 41  1  1
  8 42  1  0
  8 43  1  0
  8 44  1  0
  9 45  1  0
  9 46  1  0
  9 47  1  0
 10 48  1  6
 11 49  1  0
 11 50  1  0
 12 51  1  0
 12 52  1  0
 14 53  1  0
 14 54  1  0
 14 55  1  0
 15 56  1  6
 16 57  1  0
 16 58  1  0
 17 59  1  0
 19 60  1  6
 20 61  1  0
 20 62  1  0
 21 63  1  0
 21 64  1  0
 22 65  1  1
 23 66  1  0
 25 67  1  0
 25 68  1  0
 25 69  1  0
 26 70  1  0
 26 71  1  0
 26 72  1  0
 28 73  1  0
 28 74  1  0
 28 75  1  0
 29 76  1  0
 29 77  1  0
 30 78  1  0
 30 79  1  0
 32 80  1  0
 32 81  1  0
 32 82  1  0
M  END
>  <meeko>  (15) 
{"is_sidechain": [false], "intermolecular_energy": 2.731, "internal_energy": -0.839}

$$$$
EPH_relaxed_0001_pdb2pqr_Repair_216_r2_0001_out
     RDKit          3D

 82 86  0  0  0  0  0  0  0  0999 V2000
    3.0910   14.8260   -7.5580 C   0  0  0  0  0  0  0  0  0  0  0  0
    1.5680   14.8510   -7.4070 C   0  0  2  0  0  0  0  0  0  0  0  0
    0.9330   16.0580   -8.1260 C   0  0  0  0  0  0  0  0  0  0  0  0
    1.8750   16.7530   -9.1130 C   0  0  0  0  0  0  0  0  0  0  0  0
    1.5820   16.3610  -10.5290 C   0  0  2  0  0  0  0  0  0  0  0  0
    1.0230   15.0500  -10.6850 O   0  0  0  0  0  0  0  0  0  0  0  0
    2.3220   15.2590  -11.2630 C   0  0  0  0  0  0  0  0  0  0  0  0
    3.4150   14.4790  -10.6030 C   0  0  0  0  0  0  0  0  0  0  0  0
    2.3200   15.2700  -12.7600 C   0  0  0  0  0  0  0  0  0  0  0  0
    1.1920   14.8670   -5.9300 C   0  0  1  0  0  0  0  0  0  0  0  0
   -0.0560   15.7440   -5.6410 C   0  0  0  0  0  0  0  0  0  0  0  0
   -0.8330   15.0520   -4.4920 C   0  0  0  0  0  0  0  0  0  0  0  0
    0.1510   13.9950   -3.9370 C   0  0  1  0  0  0  0  0  0  0  0  0
    1.0990   14.7900   -2.9860 C   0  0  0  0  0  0  0  0  0  0  0  0
   -0.4910   12.7650   -3.2170 C   0  0  2  0  0  0  0  0  0  0  0  0
   -1.2980   13.0990   -1.9500 C   0  0  0  0  0  0  0  0  0  0  0  0
   -0.5210   13.0850   -0.6760 C   0  0  0  0  0  0  0  0  0  0  0  0
    0.6990   12.5420   -0.5100 C   0  0  0  0  0  0  0  0  0  0  0  0
    1.3810   11.7740   -1.6500 C   0  0  1  0  0  0  0  0  0  0  0  0
    1.9620   10.4440   -1.1030 C   0  0  0  0  0  0  0  0  0  0  0  0
    2.8860   10.6560    0.0920 C   0  0  0  0  0  0  0  0  0  0  0  0
    2.1550   11.3700    1.2270 C   0  0  2  0  0  0  0  0  0  0  0  0
    1.1390   10.5020    1.7380 O   0  0  0  0  0  0  0  0  0  0  0  0
    1.5190   12.7200    0.7920 C   0  0  0  0  0  0  0  0  0  0  0  0
    2.6360   13.7590    0.5250 C   0  0  0  0  0  0  0  0  0  0  0  0
    0.6940   13.2660    1.9880 C   0  0  0  0  0  0  0  0  0  0  0  0
    0.5120   11.5670   -2.9640 C   0  0  1  0  0  0  0  0  0  0  0  0
   -0.3580   10.2800   -2.8280 C   0  0  0  0  0  0  0  0  0  0  0  0
    1.4750   11.3250   -4.1850 C   0  0  0  0  0  0  0  0  0  0  0  0
    1.9800   12.5750   -4.9300 C   0  0  0  0  0  0  0  0  0  0  0  0
    0.8200   13.5130   -5.2760 C   0  0  2  0  0  0  0  0  0  0  0  0
   -0.1400   12.7480   -6.2500 C   0  0  0  0  0  0  0  0  0  0  0  0
    3.5581   14.8183   -6.5621 H   0  0  0  0  0  0  0  0  0  0  0  0
    3.3899   13.9228   -8.1102 H   0  0  0  0  0  0  0  0  0  0  0  0
    3.4194   15.7189   -8.1102 H   0  0  0  0  0  0  0  0  0  0  0  0
    1.1735   13.9400   -7.8807 H   0  0  0  0  0  0  0  0  0  0  0  0
    0.0488   15.7072   -8.6784 H   0  0  0  0  0  0  0  0  0  0  0  0
    0.6787   16.7960   -7.3510 H   0  0  0  0  0  0  0  0  0  0  0  0
    1.7560   17.8419   -9.0127 H   0  0  0  0  0  0  0  0  0  0  0  0
    2.9048   16.4455   -8.8784 H   0  0  0  0  0  0  0  0  0  0  0  0
    1.3599   17.4048  -10.7957 H   0  0  0  0  0  0  0  0  0  0  0  0
    3.3105   14.5536   -9.5105 H   0  0  0  0  0  0  0  0  0  0  0  0
    3.3473   13.4239  -10.9066 H   0  0  0  0  0  0  0  0  0  0  0  0
    4.3908   14.8861  -10.9066 H   0  0  0  0  0  0  0  0  0  0  0  0
    2.1340   16.2930  -13.1189 H   0  0  0  0  0  0  0  0  0  0  0  0
    3.2959   14.9232  -13.1305 H   0  0  0  0  0  0  0  0  0  0  0  0
    1.5286   14.6019  -13.1305 H   0  0  0  0  0  0  0  0  0  0  0  0
    2.1334   15.2444   -5.5042 H   0  0  0  0  0  0  0  0  0  0  0  0
    0.2536   16.7540   -5.3343 H   0  0  0  0  0  0  0  0  0  0  0  0
   -0.6844   15.8442   -6.5382 H   0  0  0  0  0  0  0  0  0  0  0  0
   -1.1022   15.7794   -3.7120 H   0  0  0  0  0  0  0  0  0  0  0  0
   -1.7762   14.6034   -4.8371 H   0  0  0  0  0  0  0  0  0  0  0  0
    0.8375   14.5707   -1.9403 H   0  0  0  0  0  0  0  0  0  0  0  0
    2.1410   14.4917   -3.1737 H   0  0  0  0  0  0  0  0  0  0  0  0
    0.9868   15.8680   -3.1737 H   0  0  0  0  0  0  0  0  0  0  0  0
   -1.2267   12.4155   -3.9563 H   0  0  0  0  0  0  0  0  0  0  0  0
   -1.7266   14.1043   -2.0754 H   0  0  0  0  0  0  0  0  0  0  0  0
   -2.0541   12.3059   -1.8535 H   0  0  0  0  0  0  0  0  0  0  0  0
   -0.9848   13.5587    0.2018 H   0  0  0  0  0  0  0  0  0  0  0  0
    2.1978   12.4193   -2.0057 H   0  0  0  0  0  0  0  0  0  0  0  0
    1.1286    9.7962   -0.7936 H   0  0  0  0  0  0  0  0  0  0  0  0
    2.5561    9.9841   -1.9065 H   0  0  0  0  0  0  0  0  0  0  0  0
    3.2405    9.6785    0.4508 H   0  0  0  0  0  0  0  0  0  0  0  0
    3.7344   11.2796   -0.2264 H   0  0  0  0  0  0  0  0  0  0  0  0
    2.8995   11.6091    2.0007 H   0  0  0  0  0  0  0  0  0  0  0  0
    0.3890   11.0560    2.0120 H   0  0  0  0  0  0  0  0  0  0  0  0
    3.0314   14.1268    1.4833 H   0  0  0  0  0  0  0  0  0  0  0  0
    3.4467   13.2865   -0.0490 H   0  0  0  0  0  0  0  0  0  0  0  0
    2.2233   14.6017   -0.0490 H   0  0  0  0  0  0  0  0  0  0  0  0
    1.1655   12.9539    2.9316 H   0  0  0  0  0  0  0  0  0  0  0  0
    0.6616   14.3645    1.9400 H   0  0  0  0  0  0  0  0  0  0  0  0
   -0.3298   12.8665    1.9400 H   0  0  0  0  0  0  0  0  0  0  0  0
   -0.5119   10.0523   -1.7629 H   0  0  0  0  0  0  0  0  0  0  0  0
   -1.3320   10.4429   -3.3126 H   0  0  0  0  0  0  0  0  0  0  0  0
    0.1562    9.4369   -3.3126 H   0  0  0  0  0  0  0  0  0  0  0  0
    2.3556   10.7818   -3.8116 H   0  0  0  0  0  0  0  0  0  0  0  0
    0.8721   10.7747   -4.9223 H   0  0  0  0  0  0  0  0  0  0  0  0
    2.6969   13.1102   -4.2900 H   0  0  0  0  0  0  0  0  0  0  0  0
    2.4629   12.2548   -5.8650 H   0  0  0  0  0  0  0  0  0  0  0  0
   -0.8688   12.1673   -5.6655 H   0  0  0  0  0  0  0  0  0  0  0  0
   -0.6723   13.4723   -6.8841 H   0  0  0  0  0  0  0  0  0  0  0  0
    0.4472   12.0675   -6.8841 H   0  0  0  0  0  0  0  0  0  0  0  0
  1  2  1  0
  2  3  1  0
  3  4  1  0
  4  5  1  0
  5  6  1  0
  6  7  1  0
  7  8  1  0
  7  9  1  0
  2 10  1  0
 10 11  1  0
 11 12  1  0
 12 13  1  0
 13 14  1  1
 13 15  1  0
 15 16  1  0
 16 17  1  0
 17 18  2  0
 18 19  1  0
 19 20  1  0
 20 21  1  0
 21 22  1  0
 22 23  1  0
 22 24  1  0
 24 25  1  0
 24 26  1  0
 19 27  1  0
 27 28  1  1
 27 29  1  0
 29 30  1  0
 30 31  1  0
 31 32  1  6
  7  5  1  0
 31 10  1  0
 31 13  1  0
 27 15  1  0
 24 18  1  0
  1 33  1  0
  1 34  1  0
  1 35  1  0
  2 36  1  6
  3 37  1  0
  3 38  1  0
  4 39  1  0
  4 40  1  0
  5 41  1  6
  8 42  1  0
  8 43  1  0
  8 44  1  0
  9 45  1  0
  9 46  1  0
  9 47  1  0
 10 48  1  1
 11 49  1  0
 11 50  1  0
 12 51  1  0
 12 52  1  0
 14 53  1  0
 14 54  1  0
 14 55  1  0
 15 56  1  6
 16 57  1  0
 16 58  1  0
 17 59  1  0
 19 60  1  6
 20 61  1  0
 20 62  1  0
 21 63  1  0
 21 64  1  0
 22 65  1  1
 23 66  1  0
 25 67  1  0
 25 68  1  0
 25 69  1  0
 26 70  1  0
 26 71  1  0
 26 72  1  0
 28 73  1  0
 28 74  1  0
 28 75  1  0
 29 76  1  0
 29 77  1  0
 30 78  1  0
 30 79  1  0
 32 80  1  0
 32 81  1  0
 32 82  1  0
M  END
>  <meeko>  (16) 
{"is_sidechain": [false], "intermolecular_energy": 2.731, "internal_energy": -0.839}

$$$$
EPH_relaxed_0001_pdb2pqr_Repair_216_r2_0001_out
     RDKit          3D

 82 86  0  0  0  0  0  0  0  0999 V2000
   -0.2000    9.1850   -4.2170 C   0  0  0  0  0  0  0  0  0  0  0  0
   -0.0540    9.3290   -2.6990 C   0  0  2  0  0  0  0  0  0  0  0  0
   -0.8870    8.2820   -1.9330 C   0  0  0  0  0  0  0  0  0  0  0  0
   -2.3940    8.3990   -2.1750 C   0  0  0  0  0  0  0  0  0  0  0  0
   -2.9590    7.1460   -2.7730 C   0  0  2  0  0  0  0  0  0  0  0  0
   -4.0250    7.3560   -3.7080 O   0  0  0  0  0  0  0  0  0  0  0  0
   -4.3680    6.6510   -2.5040 C   0  0  0  0  0  0  0  0  0  0  0  0
   -5.2990    7.4000   -1.6030 C   0  0  0  0  0  0  0  0  0  0  0  0
   -4.6700    5.2010   -2.7200 C   0  0  0  0  0  0  0  0  0  0  0  0
   -0.4590   10.7340   -2.2690 C   0  0  1  0  0  0  0  0  0  0  0  0
   -1.6300   10.7320   -1.2510 C   0  0  0  0  0  0  0  0  0  0  0  0
   -1.3810   11.9150   -0.2800 C   0  0  0  0  0  0  0  0  0  0  0  0
   -0.2720   12.7510   -0.9610 C   0  0  1  0  0  0  0  0  0  0  0  0
   -1.0190   13.6160   -2.0240 C   0  0  0  0  0  0  0  0  0  0  0  0
    0.6090   13.6310   -0.0160 C   0  0  2  0  0  0  0  0  0  0  0  0
   -0.1510   14.7290    0.7490 C   0  0  0  0  0  0  0  0  0  0  0  0
   -0.2320   16.0490    0.0570 C   0  0  0  0  0  0  0  0  0  0  0  0
    0.5200   16.4290   -0.9930 C   0  0  0  0  0  0  0  0  0  0  0  0
    1.6390   15.5270   -1.5280 C   0  0  1  0  0  0  0  0  0  0  0  0
    2.9210   16.3700   -1.7540 C   0  0  0  0  0  0  0  0  0  0  0  0
    2.6740   17.5830   -2.6450 C   0  0  0  0  0  0  0  0  0  0  0  0
    1.5970   18.4860   -2.0500 C   0  0  2  0  0  0  0  0  0  0  0  0
    2.0940   19.0580   -0.8360 O   0  0  0  0  0  0  0  0  0  0  0  0
    0.2610   17.7430   -1.7700 C   0  0  0  0  0  0  0  0  0  0  0  0
   -0.4280   17.3870   -3.1100 C   0  0  0  0  0  0  0  0  0  0  0  0
   -0.6910   18.7310   -1.0420 C   0  0  0  0  0  0  0  0  0  0  0  0
    1.9190   14.2020   -0.6960 C   0  0  1  0  0  0  0  0  0  0  0  0
    2.9250   14.5000    0.4570 C   0  0  0  0  0  0  0  0  0  0  0  0
    2.6160   13.1450   -1.6320 C   0  0  0  0  0  0  0  0  0  0  0  0
    1.6910   12.2240   -2.4500 C   0  0  0  0  0  0  0  0  0  0  0  0
    0.6130   11.5980   -1.5600 C   0  0  2  0  0  0  0  0  0  0  0  0
    1.3330   10.7040   -0.4940 C   0  0  0  0  0  0  0  0  0  0  0  0
   -0.9667    8.4288   -4.4415 H   0  0  0  0  0  0  0  0  0  0  0  0
   -0.4998   10.1508   -4.6498 H   0  0  0  0  0  0  0  0  0  0  0  0
    0.7616    8.8719   -4.6498 H   0  0  0  0  0  0  0  0  0  0  0  0
    1.0032    9.1546   -2.4503 H   0  0  0  0  0  0  0  0  0  0  0  0
   -0.5611    7.2800   -2.2490 H   0  0  0  0  0  0  0  0  0  0  0  0
   -0.7186    8.4589   -0.8604 H   0  0  0  0  0  0  0  0  0  0  0  0
   -2.8951    8.5932   -1.2152 H   0  0  0  0  0  0  0  0  0  0  0  0
   -2.5644    9.2236   -2.8829 H   0  0  0  0  0  0  0  0  0  0  0  0
   -1.9791    6.6496   -2.7155 H   0  0  0  0  0  0  0  0  0  0  0  0
   -5.0406    7.1921   -0.5542 H   0  0  0  0  0  0  0  0  0  0  0  0
   -5.2074    8.4790   -1.7963 H   0  0  0  0  0  0  0  0  0  0  0  0
   -6.3333    7.0794   -1.7963 H   0  0  0  0  0  0  0  0  0  0  0  0
   -4.7745    4.6993   -1.7467 H   0  0  0  0  0  0  0  0  0  0  0  0
   -5.6080    5.1022   -3.2860 H   0  0  0  0  0  0  0  0  0  0  0  0
   -3.8494    4.7359   -3.2860 H   0  0  0  0  0  0  0  0  0  0  0  0
   -0.6992   11.1656   -3.2519 H   0  0  0  0  0  0  0  0  0  0  0  0
   -2.5877   10.8673   -1.7750 H   0  0  0  0  0  0  0  0  0  0  0  0
   -1.6781    9.7775   -0.7063 H   0  0  0  0  0  0  0  0  0  0  0  0
   -2.2957   12.5128   -0.1534 H   0  0  0  0  0  0  0  0  0  0  0  0
   -1.0903   11.5759    0.7252 H   0  0  0  0  0  0  0  0  0  0  0  0
   -1.6561   14.3538   -1.5143 H   0  0  0  0  0  0  0  0  0  0  0  0
   -0.2839   14.1389   -2.6534 H   0  0  0  0  0  0  0  0  0  0  0  0
   -1.6434   12.9649   -2.6534 H   0  0  0  0  0  0  0  0  0  0  0  0
    0.9344   12.9065    0.7451 H   0  0  0  0  0  0  0  0  0  0  0  0
   -1.1772   14.3733    0.9237 H   0  0  0  0  0  0  0  0  0  0  0  0
    0.4180   14.9048    1.6739 H   0  0  0  0  0  0  0  0  0  0  0  0
   -0.9683   16.7724    0.4371 H   0  0  0  0  0  0  0  0  0  0  0  0
    1.2777   15.1327   -2.4892 H   0  0  0  0  0  0  0  0  0  0  0  0
    3.2903   16.7186   -0.7783 H   0  0  0  0  0  0  0  0  0  0  0  0
    3.6575   15.7285   -2.2601 H   0  0  0  0  0  0  0  0  0  0  0  0
    3.6090   18.1541   -2.7430 H   0  0  0  0  0  0  0  0  0  0  0  0
    2.3331   17.2317   -3.6301 H   0  0  0  0  0  0  0  0  0  0  0  0
    1.3721   19.2654   -2.7929 H   0  0  0  0  0  0  0  0  0  0  0  0
    1.3620   19.5440   -0.4190 H   0  0  0  0  0  0  0  0  0  0  0  0
   -1.3886   16.8907   -2.9079 H   0  0  0  0  0  0  0  0  0  0  0  0
   -0.6047   18.3066   -3.6871 H   0  0  0  0  0  0  0  0  0  0  0  0
    0.2198   16.7108   -3.6871 H   0  0  0  0  0  0  0  0  0  0  0  0
   -0.5785   18.6142    0.0460 H   0  0  0  0  0  0  0  0  0  0  0  0
   -0.4376   19.7625   -1.3282 H   0  0  0  0  0  0  0  0  0  0  0  0
   -1.7311   18.5161   -1.3282 H   0  0  0  0  0  0  0  0  0  0  0  0
    2.4262   14.3522    1.4262 H   0  0  0  0  0  0  0  0  0  0  0  0
    3.7844   13.8179    0.3792 H   0  0  0  0  0  0  0  0  0  0  0  0
    3.2743   15.5402    0.3792 H   0  0  0  0  0  0  0  0  0  0  0  0
    3.2494   13.6963   -2.3425 H   0  0  0  0  0  0  0  0  0  0  0  0
    3.1615   12.4742   -0.9520 H   0  0  0  0  0  0  0  0  0  0  0  0
    1.2059   12.8132   -3.2422 H   0  0  0  0  0  0  0  0  0  0  0  0
    2.2973   11.4167   -2.8865 H   0  0  0  0  0  0  0  0  0  0  0  0
    1.0589   11.0444    0.5154 H   0  0  0  0  0  0  0  0  0  0  0  0
    1.0234    9.6566   -0.6245 H   0  0  0  0  0  0  0  0  0  0  0  0
    2.4224   10.7833   -0.6245 H   0  0  0  0  0  0  0  0  0  0  0  0
  1  2  1  0
  2  3  1  0
  3  4  1  0
  4  5  1  0
  5  6  1  0
  6  7  1  0
  7  8  1  0
  7  9  1  0
  2 10  1  0
 10 11  1  0
 11 12  1  0
 12 13  1  0
 13 14  1  6
 13 15  1  0
 15 16  1  0
 16 17  1  0
 17 18  2  0
 18 19  1  0
 19 20  1  0
 20 21  1  0
 21 22  1  0
 22 23  1  0
 22 24  1  0
 24 25  1  0
 24 26  1  0
 19 27  1  0
 27 28  1  1
 27 29  1  0
 29 30  1  0
 30 31  1  0
 31 32  1  1
  7  5  1  0
 31 10  1  0
 31 13  1  0
 27 15  1  0
 24 18  1  0
  1 33  1  0
  1 34  1  0
  1 35  1  0
  2 36  1  6
  3 37  1  0
  3 38  1  0
  4 39  1  0
  4 40  1  0
  5 41  1  6
  8 42  1  0
  8 43  1  0
  8 44  1  0
  9 45  1  0
  9 46  1  0
  9 47  1  0
 10 48  1  6
 11 49  1  0
 11 50  1  0
 12 51  1  0
 12 52  1  0
 14 53  1  0
 14 54  1  0
 14 55  1  0
 15 56  1  1
 16 57  1  0
 16 58  1  0
 17 59  1  0
 19 60  1  6
 20 61  1  0
 20 62  1  0
 21 63  1  0
 21 64  1  0
 22 65  1  6
 23 66  1  0
 25 67  1  0
 25 68  1  0
 25 69  1  0
 26 70  1  0
 26 71  1  0
 26 72  1  0
 28 73  1  0
 28 74  1  0
 28 75  1  0
 29 76  1  0
 29 77  1  0
 30 78  1  0
 30 79  1  0
 32 80  1  0
 32 81  1  0
 32 82  1  0
M  END
>  <meeko>  (17) 
{"is_sidechain": [false], "intermolecular_energy": 2.731, "internal_energy": -0.839}

$$$$
EPH_relaxed_0001_pdb2pqr_Repair_216_r2_0001_out
     RDKit          3D

 82 86  0  0  0  0  0  0  0  0999 V2000
    0.9220   14.9030   -2.6350 C   0  0  0  0  0  0  0  0  0  0  0  0
    1.1930   14.2240   -3.9800 C   0  0  2  0  0  0  0  0  0  0  0  0
    0.4970   14.9510   -5.1480 C   0  0  0  0  0  0  0  0  0  0  0  0
    1.0910   14.6200   -6.5200 C   0  0  0  0  0  0  0  0  0  0  0  0
    0.8680   15.7290   -7.5030 C   0  0  2  0  0  0  0  0  0  0  0  0
    0.3950   15.3050   -8.7880 O   0  0  0  0  0  0  0  0  0  0  0  0
    1.6970   15.9110   -8.7610 C   0  0  0  0  0  0  0  0  0  0  0  0
    2.8120   14.9740   -9.1030 C   0  0  0  0  0  0  0  0  0  0  0  0
    1.7440   17.2660   -9.3970 C   0  0  0  0  0  0  0  0  0  0  0  0
    0.7400   12.7690   -3.9290 C   0  0  1  0  0  0  0  0  0  0  0  0
    1.8700   11.7780   -4.3130 C   0  0  0  0  0  0  0  0  0  0  0  0
    1.6700   10.5110   -3.4420 C   0  0  0  0  0  0  0  0  0  0  0  0
    0.2570   10.6750   -2.8340 C   0  0  1  0  0  0  0  0  0  0  0  0
   -0.7200   10.2100   -3.9590 C   0  0  0  0  0  0  0  0  0  0  0  0
   -0.0090    9.9220   -1.4910 C   0  0  2  0  0  0  0  0  0  0  0  0
    0.0930    8.3890   -1.5710 C   0  0  0  0  0  0  0  0  0  0  0  0
   -1.1800    7.6810   -1.8950 C   0  0  0  0  0  0  0  0  0  0  0  0
   -2.4120    8.2200   -1.8330 C   0  0  0  0  0  0  0  0  0  0  0  0
   -2.6230    9.6460   -1.3090 C   0  0  1  0  0  0  0  0  0  0  0  0
   -3.8020    9.6590   -0.3010 C   0  0  0  0  0  0  0  0  0  0  0  0
   -5.0770    9.0580   -0.8840 C   0  0  0  0  0  0  0  0  0  0  0  0
   -4.8430    7.6200   -1.3400 C   0  0  2  0  0  0  0  0  0  0  0  0
   -4.5850    6.8080   -0.1910 O   0  0  0  0  0  0  0  0  0  0  0  0
   -3.6710    7.4810   -2.3520 C   0  0  0  0  0  0  0  0  0  0  0  0
   -4.0770    8.1080   -3.7090 C   0  0  0  0  0  0  0  0  0  0  0  0
   -3.4490    5.9680   -2.6210 C   0  0  0  0  0  0  0  0  0  0  0  0
   -1.3280   10.3750   -0.7440 C   0  0  1  0  0  0  0  0  0  0  0  0
   -1.1320   10.0190    0.7620 C   0  0  0  0  0  0  0  0  0  0  0  0
   -1.5470   11.9330   -0.8070 C   0  0  0  0  0  0  0  0  0  0  0  0
   -1.1530   12.6370   -2.1190 C   0  0  0  0  0  0  0  0  0  0  0  0
    0.2530   12.2240   -2.5630 C   0  0  2  0  0  0  0  0  0  0  0  0
    1.2610   12.6990   -1.4610 C   0  0  0  0  0  0  0  0  0  0  0  0
    1.1949   14.2194   -1.8176 H   0  0  0  0  0  0  0  0  0  0  0  0
    1.5224   15.8217   -2.5605 H   0  0  0  0  0  0  0  0  0  0  0  0
   -0.1460   15.1558   -2.5605 H   0  0  0  0  0  0  0  0  0  0  0  0
    2.2770   14.2699   -4.1609 H   0  0  0  0  0  0  0  0  0  0  0  0
   -0.5653   14.6654   -5.1513 H   0  0  0  0  0  0  0  0  0  0  0  0
    0.6409   16.0296   -4.9870 H   0  0  0  0  0  0  0  0  0  0  0  0
    2.1727   14.4539   -6.4094 H   0  0  0  0  0  0  0  0  0  0  0  0
    0.5905   13.7179   -6.9016 H   0  0  0  0  0  0  0  0  0  0  0  0
    0.5919   16.4216   -6.6942 H   0  0  0  0  0  0  0  0  0  0  0  0
    3.2668   14.5918   -8.1772 H   0  0  0  0  0  0  0  0  0  0  0  0
    2.4167   14.1330   -9.6916 H   0  0  0  0  0  0  0  0  0  0  0  0
    3.5724   15.5082   -9.6916 H   0  0  0  0  0  0  0  0  0  0  0  0
    1.7708   18.0379   -8.6138 H   0  0  0  0  0  0  0  0  0  0  0  0
    2.6455   17.3465  -10.0222 H   0  0  0  0  0  0  0  0  0  0  0  0
    0.8503   17.4088  -10.0222 H   0  0  0  0  0  0  0  0  0  0  0  0
   -0.0997   12.8119   -4.6383 H   0  0  0  0  0  0  0  0  0  0  0  0
    1.8002   11.5190   -5.3798 H   0  0  0  0  0  0  0  0  0  0  0  0
    2.8609   12.2232   -4.1403 H   0  0  0  0  0  0  0  0  0  0  0  0
    1.7239    9.6025   -4.0598 H   0  0  0  0  0  0  0  0  0  0  0  0
    2.4470   10.4082   -2.6702 H   0  0  0  0  0  0  0  0  0  0  0  0
   -1.6244    9.7795   -3.5044 H   0  0  0  0  0  0  0  0  0  0  0  0
   -0.9980   11.0724   -4.5827 H   0  0  0  0  0  0  0  0  0  0  0  0
   -0.2261    9.4504   -4.5827 H   0  0  0  0  0  0  0  0  0  0  0  0
    0.8378   10.2456   -0.8680 H   0  0  0  0  0  0  0  0  0  0  0  0
    0.8291    8.1376   -2.3488 H   0  0  0  0  0  0  0  0  0  0  0  0
    0.3816    8.0506   -0.5649 H   0  0  0  0  0  0  0  0  0  0  0  0
   -1.1054    6.6301   -2.2112 H   0  0  0  0  0  0  0  0  0  0  0  0
   -2.8771   10.2583   -2.1868 H   0  0  0  0  0  0  0  0  0  0  0  0
   -3.5127    9.0784    0.5874 H   0  0  0  0  0  0  0  0  0  0  0  0
   -4.0131   10.7084   -0.0478 H   0  0  0  0  0  0  0  0  0  0  0  0
   -5.8641    9.0685   -0.1156 H   0  0  0  0  0  0  0  0  0  0  0  0
   -5.3816    9.6574   -1.7546 H   0  0  0  0  0  0  0  0  0  0  0  0
   -5.7513    7.2887   -1.8646 H   0  0  0  0  0  0  0  0  0  0  0  0
   -3.6780    6.9960    0.1050 H   0  0  0  0  0  0  0  0  0  0  0  0
   -4.6669    9.0190   -3.5301 H   0  0  0  0  0  0  0  0  0  0  0  0
   -3.1723    8.3633   -4.2803 H   0  0  0  0  0  0  0  0  0  0  0  0
   -4.6801    7.3869   -4.2803 H   0  0  0  0  0  0  0  0  0  0  0  0
   -3.3705    5.4329   -1.6631 H   0  0  0  0  0  0  0  0  0  0  0  0
   -4.2982    5.5692   -3.1952 H   0  0  0  0  0  0  0  0  0  0  0  0
   -2.5210    5.8300   -3.1952 H   0  0  0  0  0  0  0  0  0  0  0  0
   -1.5688   10.8124    1.3862 H   0  0  0  0  0  0  0  0  0  0  0  0
   -1.6313    9.0636    0.9809 H   0  0  0  0  0  0  0  0  0  0  0  0
   -0.0577    9.9299    0.9809 H   0  0  0  0  0  0  0  0  0  0  0  0
   -2.6160   12.1261   -0.6337 H   0  0  0  0  0  0  0  0  0  0  0  0
   -0.8737   12.3495   -0.0433 H   0  0  0  0  0  0  0  0  0  0  0  0
   -1.8730   12.3633   -2.9043 H   0  0  0  0  0  0  0  0  0  0  0  0
   -1.1617   13.7239   -1.9496 H   0  0  0  0  0  0  0  0  0  0  0  0
    0.8372   12.4993   -0.4658 H   0  0  0  0  0  0  0  0  0  0  0  0
    2.2095   12.1531   -1.5719 H   0  0  0  0  0  0  0  0  0  0  0  0
    1.4438   13.7780   -1.5719 H   0  0  0  0  0  0  0  0  0  0  0  0
  1  2  1  0
  2  3  1  0
  3  4  1  0
  4  5  1  0
  5  6  1  0
  6  7  1  0
  7  8  1  0
  7  9  1  0
  2 10  1  0
 10 11  1  0
 11 12  1  0
 12 13  1  0
 13 14  1  6
 13 15  1  0
 15 16  1  0
 16 17  1  0
 17 18  2  0
 18 19  1  0
 19 20  1  0
 20 21  1  0
 21 22  1  0
 22 23  1  0
 22 24  1  0
 24 25  1  0
 24 26  1  0
 19 27  1  0
 27 28  1  1
 27 29  1  0
 29 30  1  0
 30 31  1  0
 31 32  1  1
  7  5  1  0
 31 10  1  0
 31 13  1  0
 27 15  1  0
 24 18  1  0
  1 33  1  0
  1 34  1  0
  1 35  1  0
  2 36  1  6
  3 37  1  0
  3 38  1  0
  4 39  1  0
  4 40  1  0
  5 41  1  1
  8 42  1  0
  8 43  1  0
  8 44  1  0
  9 45  1  0
  9 46  1  0
  9 47  1  0
 10 48  1  6
 11 49  1  0
 11 50  1  0
 12 51  1  0
 12 52  1  0
 14 53  1  0
 14 54  1  0
 14 55  1  0
 15 56  1  1
 16 57  1  0
 16 58  1  0
 17 59  1  0
 19 60  1  6
 20 61  1  0
 20 62  1  0
 21 63  1  0
 21 64  1  0
 22 65  1  6
 23 66  1  0
 25 67  1  0
 25 68  1  0
 25 69  1  0
 26 70  1  0
 26 71  1  0
 26 72  1  0
 28 73  1  0
 28 74  1  0
 28 75  1  0
 29 76  1  0
 29 77  1  0
 30 78  1  0
 30 79  1  0
 32 80  1  0
 32 81  1  0
 32 82  1  0
M  END
>  <meeko>  (18) 
{"is_sidechain": [false], "intermolecular_energy": 2.731, "internal_energy": -0.839}

$$$$
EPH_relaxed_0001_pdb2pqr_Repair_216_r2_0001_out
     RDKit          3D

 82 86  0  0  0  0  0  0  0  0999 V2000
   -2.4170    7.7540   -0.0250 C   0  0  0  0  0  0  0  0  0  0  0  0
   -3.0740    9.1370   -0.0540 C   0  0  2  0  0  0  0  0  0  0  0  0
   -4.5570    9.0670   -0.4690 C   0  0  0  0  0  0  0  0  0  0  0  0
   -5.1060    7.6400   -0.5510 C   0  0  0  0  0  0  0  0  0  0  0  0
   -5.8470    7.4040   -1.8330 C   0  0  2  0  0  0  0  0  0  0  0  0
   -6.7750    8.4380   -2.1860 O   0  0  0  0  0  0  0  0  0  0  0  0
   -7.3410    7.1480   -1.9000 C   0  0  0  0  0  0  0  0  0  0  0  0
   -8.1830    7.1140   -0.6640 C   0  0  0  0  0  0  0  0  0  0  0  0
   -7.8940    6.4520   -3.1040 C   0  0  0  0  0  0  0  0  0  0  0  0
   -2.3110   10.0550   -1.0010 C   0  0  1  0  0  0  0  0  0  0  0  0
   -2.9610   11.4590   -1.1250 C   0  0  0  0  0  0  0  0  0  0  0  0
   -1.8020   12.4750   -1.2950 C   0  0  0  0  0  0  0  0  0  0  0  0
   -0.5600   11.6040   -1.5950 C   0  0  1  0  0  0  0  0  0  0  0  0
   -0.6610   11.2730   -3.1170 C   0  0  0  0  0  0  0  0  0  0  0  0
    0.8260   12.2280   -1.2310 C   0  0  2  0  0  0  0  0  0  0  0  0
    1.1840   13.5140   -1.9960 C   0  0  0  0  0  0  0  0  0  0  0  0
    1.9280   13.3090   -3.2740 C   0  0  0  0  0  0  0  0  0  0  0  0
    2.5420   12.1710   -3.6480 C   0  0  0  0  0  0  0  0  0  0  0  0
    2.6090   10.9650   -2.7020 C   0  0  1  0  0  0  0  0  0  0  0  0
    4.0540   10.4010   -2.6830 C   0  0  0  0  0  0  0  0  0  0  0  0
    4.5740   10.0760   -4.0800 C   0  0  0  0  0  0  0  0  0  0  0  0
    4.5460   11.3140   -4.9740 C   0  0  2  0  0  0  0  0  0  0  0  0
    5.4940   12.2630   -4.4760 O   0  0  0  0  0  0  0  0  0  0  0  0
    3.1420   11.9740   -5.0620 C   0  0  0  0  0  0  0  0  0  0  0  0
    2.1880   11.0630   -5.8730 C   0  0  0  0  0  0  0  0  0  0  0  0
    3.2830   13.2890   -5.8770 C   0  0  0  0  0  0  0  0  0  0  0  0
    2.0250   11.1960   -1.2420 C   0  0  1  0  0  0  0  0  0  0  0  0
    3.1300   11.7860   -0.3140 C   0  0  0  0  0  0  0  0  0  0  0  0
    1.6230    9.8050   -0.6240 C   0  0  0  0  0  0  0  0  0  0  0  0
    0.1990    9.2980   -0.9210 C   0  0  0  0  0  0  0  0  0  0  0  0
   -0.8410   10.3870   -0.6400 C   0  0  2  0  0  0  0  0  0  0  0  0
   -0.7790   10.7250    0.8880 C   0  0  0  0  0  0  0  0  0  0  0  0
   -2.2681    7.4406    1.0188 H   0  0  0  0  0  0  0  0  0  0  0  0
   -3.0667    7.0286   -0.5365 H   0  0  0  0  0  0  0  0  0  0  0  0
   -1.4442    7.7994   -0.5365 H   0  0  0  0  0  0  0  0  0  0  0  0
   -3.0362    9.5426    0.9678 H   0  0  0  0  0  0  0  0  0  0  0  0
   -5.1510    9.6258    0.2691 H   0  0  0  0  0  0  0  0  0  0  0  0
   -4.6292    9.4980   -1.4785 H   0  0  0  0  0  0  0  0  0  0  0  0
   -4.2672    6.9311   -0.4883 H   0  0  0  0  0  0  0  0  0  0  0  0
   -5.8083    7.4942    0.2830 H   0  0  0  0  0  0  0  0  0  0  0  0
   -4.9869    6.8673   -2.2598 H   0  0  0  0  0  0  0  0  0  0  0  0
   -7.5332    7.1402    0.2232 H   0  0  0  0  0  0  0  0  0  0  0  0
   -8.8537    7.9858   -0.6531 H   0  0  0  0  0  0  0  0  0  0  0  0
   -8.7812    6.1910   -0.6531 H   0  0  0  0  0  0  0  0  0  0  0  0
   -8.5485    5.6282   -2.7830 H   0  0  0  0  0  0  0  0  0  0  0  0
   -8.4732    7.1668   -3.7070 H   0  0  0  0  0  0  0  0  0  0  0  0
   -7.0668    6.0494   -3.7070 H   0  0  0  0  0  0  0  0  0  0  0  0
   -2.3453    9.4452   -1.9158 H   0  0  0  0  0  0  0  0  0  0  0  0
   -3.6258   11.4927   -2.0007 H   0  0  0  0  0  0  0  0  0  0  0  0
   -3.5654   11.6943   -0.2366 H   0  0  0  0  0  0  0  0  0  0  0  0
   -2.0063   13.1608   -2.1305 H   0  0  0  0  0  0  0  0  0  0  0  0
   -1.6646   13.1039   -0.4031 H   0  0  0  0  0  0  0  0  0  0  0  0
   -0.9799   10.2280   -3.2446 H   0  0  0  0  0  0  0  0  0  0  0  0
   -1.3962   11.9410   -3.5895 H   0  0  0  0  0  0  0  0  0  0  0  0
    0.3219   11.4167   -3.5895 H   0  0  0  0  0  0  0  0  0  0  0  0
    0.6787   12.5342   -0.1848 H   0  0  0  0  0  0  0  0  0  0  0  0
    0.2480   14.0430   -2.2286 H   0  0  0  0  0  0  0  0  0  0  0  0
    1.8588   14.0816   -1.3384 H   0  0  0  0  0  0  0  0  0  0  0  0
    1.9787   14.1601   -3.9690 H   0  0  0  0  0  0  0  0  0  0  0  0
    1.9209   10.2141   -3.1176 H   0  0  0  0  0  0  0  0  0  0  0  0
    4.7182   11.1485   -2.2247 H   0  0  0  0  0  0  0  0  0  0  0  0
    4.0391    9.4645   -2.1062 H   0  0  0  0  0  0  0  0  0  0  0  0
    5.6087    9.7107   -4.0031 H   0  0  0  0  0  0  0  0  0  0  0  0
    3.9267    9.3062   -4.5255 H   0  0  0  0  0  0  0  0  0  0  0  0
    4.8049   10.9915   -5.9933 H   0  0  0  0  0  0  0  0  0  0  0  0
    6.3720   12.0000   -4.8020 H   0  0  0  0  0  0  0  0  0  0  0  0
    1.5693   10.4722   -5.1816 H   0  0  0  0  0  0  0  0  0  0  0  0
    1.5382   11.6844   -6.5068 H   0  0  0  0  0  0  0  0  0  0  0  0
    2.7788   10.3853   -6.5068 H   0  0  0  0  0  0  0  0  0  0  0  0
    3.3743   14.1404   -5.1865 H   0  0  0  0  0  0  0  0  0  0  0  0
    4.1803   13.2331   -6.5108 H   0  0  0  0  0  0  0  0  0  0  0  0
    2.3943   13.4246   -6.5108 H   0  0  0  0  0  0  0  0  0  0  0  0
    2.8453   11.6340    0.7376 H   0  0  0  0  0  0  0  0  0  0  0  0
    4.0852   11.2779   -0.5124 H   0  0  0  0  0  0  0  0  0  0  0  0
    3.2392   12.8624   -0.5124 H   0  0  0  0  0  0  0  0  0  0  0  0
    2.3300    9.0542   -1.0066 H   0  0  0  0  0  0  0  0  0  0  0  0
    1.6537    9.9546    0.4654 H   0  0  0  0  0  0  0  0  0  0  0  0
    0.1352    9.0040   -1.9791 H   0  0  0  0  0  0  0  0  0  0  0  0
   -0.0098    8.4372   -0.2687 H   0  0  0  0  0  0  0  0  0  0  0  0
   -0.9470    9.8089    1.4733 H   0  0  0  0  0  0  0  0  0  0  0  0
    0.2102   11.1397    1.1320 H   0  0  0  0  0  0  0  0  0  0  0  0
   -1.5566   11.4638    1.1320 H   0  0  0  0  0  0  0  0  0  0  0  0
  1  2  1  0
  2  3  1  0
  3  4  1  0
  4  5  1  0
  5  6  1  0
  6  7  1  0
  7  8  1  0
  7  9  1  0
  2 10  1  0
 10 11  1  0
 11 12  1  0
 12 13  1  0
 13 14  1  6
 13 15  1  0
 15 16  1  0
 16 17  1  0
 17 18  2  0
 18 19  1  0
 19 20  1  0
 20 21  1  0
 21 22  1  0
 22 23  1  0
 22 24  1  0
 24 25  1  0
 24 26  1  0
 19 27  1  0
 27 28  1  1
 27 29  1  0
 29 30  1  0
 30 31  1  0
 31 32  1  1
  7  5  1  0
 31 10  1  0
 31 13  1  0
 27 15  1  0
 24 18  1  0
  1 33  1  0
  1 34  1  0
  1 35  1  0
  2 36  1  1
  3 37  1  0
  3 38  1  0
  4 39  1  0
  4 40  1  0
  5 41  1  6
  8 42  1  0
  8 43  1  0
  8 44  1  0
  9 45  1  0
  9 46  1  0
  9 47  1  0
 10 48  1  6
 11 49  1  0
 11 50  1  0
 12 51  1  0
 12 52  1  0
 14 53  1  0
 14 54  1  0
 14 55  1  0
 15 56  1  1
 16 57  1  0
 16 58  1  0
 17 59  1  0
 19 60  1  6
 20 61  1  0
 20 62  1  0
 21 63  1  0
 21 64  1  0
 22 65  1  6
 23 66  1  0
 25 67  1  0
 25 68  1  0
 25 69  1  0
 26 70  1  0
 26 71  1  0
 26 72  1  0
 28 73  1  0
 28 74  1  0
 28 75  1  0
 29 76  1  0
 29 77  1  0
 30 78  1  0
 30 79  1  0
 32 80  1  0
 32 81  1  0
 32 82  1  0
M  END
>  <meeko>  (19) 
{"is_sidechain": [false], "intermolecular_energy": 2.731, "internal_energy": -0.839}

$$$$
EPH_relaxed_0001_pdb2pqr_Repair_216_r2_0001_out
     RDKit          3D

 82 86  0  0  0  0  0  0  0  0999 V2000
    4.0630   11.2170   -5.3070 C   0  0  0  0  0  0  0  0  0  0  0  0
    2.8850   12.0510   -5.8180 C   0  0  2  0  0  0  0  0  0  0  0  0
    3.3280   13.1180   -6.8390 C   0  0  0  0  0  0  0  0  0  0  0  0
    2.2410   14.1460   -7.1660 C   0  0  0  0  0  0  0  0  0  0  0  0
    2.4820   14.8050   -8.4900 C   0  0  2  0  0  0  0  0  0  0  0  0
    2.4590   16.2380   -8.4590 O   0  0  0  0  0  0  0  0  0  0  0  0
    1.4260   15.6040   -9.2310 C   0  0  0  0  0  0  0  0  0  0  0  0
    0.0500   15.7850   -8.6720 C   0  0  0  0  0  0  0  0  0  0  0  0
    1.5770   15.7920  -10.7090 C   0  0  0  0  0  0  0  0  0  0  0  0
    2.1720   12.7150   -4.6470 C   0  0  1  0  0  0  0  0  0  0  0  0
    1.1520   13.7930   -5.1020 C   0  0  0  0  0  0  0  0  0  0  0  0
   -0.0330   13.7370   -4.1030 C   0  0  0  0  0  0  0  0  0  0  0  0
    0.4870   12.8750   -2.9290 C   0  0  1  0  0  0  0  0  0  0  0  0
    1.3390   13.8530   -2.0590 C   0  0  0  0  0  0  0  0  0  0  0  0
   -0.5990   12.1410   -2.0760 C   0  0  2  0  0  0  0  0  0  0  0  0
   -1.5850   13.0650   -1.3410 C   0  0  0  0  0  0  0  0  0  0  0  0
   -1.1760   13.4650    0.0380 C   0  0  0  0  0  0  0  0  0  0  0  0
   -0.2100   12.8780    0.7690 C   0  0  0  0  0  0  0  0  0  0  0  0
    0.5190   11.6310    0.2540 C   0  0  1  0  0  0  0  0  0  0  0  0
    0.5950   10.5710    1.3850 C   0  0  0  0  0  0  0  0  0  0  0  0
    1.2170   11.1240    2.6630 C   0  0  0  0  0  0  0  0  0  0  0  0
    0.4310   12.3280    3.1760 C   0  0  2  0  0  0  0  0  0  0  0  0
   -0.8640   11.8870    3.5970 O   0  0  0  0  0  0  0  0  0  0  0  0
    0.2800   13.4570    2.1190 C   0  0  0  0  0  0  0  0  0  0  0  0
    1.6510   14.1390    1.8870 C   0  0  0  0  0  0  0  0  0  0  0  0
   -0.6510   14.5480    2.7150 C   0  0  0  0  0  0  0  0  0  0  0  0
   -0.0220   11.0260   -1.1130 C   0  0  1  0  0  0  0  0  0  0  0  0
   -1.1920   10.0340   -0.8300 C   0  0  0  0  0  0  0  0  0  0  0  0
    1.1210   10.1830   -1.7900 C   0  0  0  0  0  0  0  0  0  0  0  0
    2.0900   10.9430   -2.7160 C   0  0  0  0  0  0  0  0  0  0  0  0
    1.3240   11.8060   -3.7220 C   0  0  2  0  0  0  0  0  0  0  0  0
    0.4750   10.8480   -4.6260 C   0  0  0  0  0  0  0  0  0  0  0  0
    4.0626   11.2173   -4.2070 H   0  0  0  0  0  0  0  0  0  0  0  0
    3.9674   10.1842   -5.6734 H   0  0  0  0  0  0  0  0  0  0  0  0
    5.0053   11.6503   -5.6734 H   0  0  0  0  0  0  0  0  0  0  0  0
    2.1950   11.3673   -6.3341 H   0  0  0  0  0  0  0  0  0  0  0  0
    4.1981   13.6513   -6.4286 H   0  0  0  0  0  0  0  0  0  0  0  0
    3.5627   12.5896   -7.7748 H   0  0  0  0  0  0  0  0  0  0  0  0
    1.2660   13.6375   -7.1931 H   0  0  0  0  0  0  0  0  0  0  0  0
    2.2587   14.9232   -6.3878 H   0  0  0  0  0  0  0  0  0  0  0  0
    3.1420   13.9834   -8.8053 H   0  0  0  0  0  0  0  0  0  0  0  0
    0.0970   15.7788   -7.5730 H   0  0  0  0  0  0  0  0  0  0  0  0
   -0.3622   16.7451   -9.0160 H   0  0  0  0  0  0  0  0  0  0  0  0
   -0.5964   14.9641   -9.0160 H   0  0  0  0  0  0  0  0  0  0  0  0
    2.2549   16.6361  -10.9039 H   0  0  0  0  0  0  0  0  0  0  0  0
    1.9937   14.8766  -11.1544 H   0  0  0  0  0  0  0  0  0  0  0  0
    0.5932   16.0014  -11.1544 H   0  0  0  0  0  0  0  0  0  0  0  0
    3.0424   13.1028   -4.0975 H   0  0  0  0  0  0  0  0  0  0  0  0
    1.6186   14.7889   -5.0809 H   0  0  0  0  0  0  0  0  0  0  0  0
    0.8108   13.6050   -6.1307 H   0  0  0  0  0  0  0  0  0  0  0  0
   -0.2966   14.7471   -3.7562 H   0  0  0  0  0  0  0  0  0  0  0  0
   -0.9425   13.3175   -4.5577 H   0  0  0  0  0  0  0  0  0  0  0  0
    1.1595   13.6470   -0.9935 H   0  0  0  0  0  0  0  0  0  0  0  0
    2.4060   13.7104   -2.2854 H   0  0  0  0  0  0  0  0  0  0  0  0
    1.0516   14.8904   -2.2854 H   0  0  0  0  0  0  0  0  0  0  0  0
   -1.1923   11.6226   -2.8437 H   0  0  0  0  0  0  0  0  0  0  0  0
   -1.7038   13.9803   -1.9394 H   0  0  0  0  0  0  0  0  0  0  0  0
   -2.5154   12.4892   -1.2278 H   0  0  0  0  0  0  0  0  0  0  0  0
   -1.7093   14.3113    0.4956 H   0  0  0  0  0  0  0  0  0  0  0  0
    1.5325   11.9620   -0.0166 H   0  0  0  0  0  0  0  0  0  0  0  0
   -0.4236   10.2223    1.6107 H   0  0  0  0  0  0  0  0  0  0  0  0
    1.2346    9.7493    1.0305 H   0  0  0  0  0  0  0  0  0  0  0  0
    1.2156   10.3385    3.4331 H   0  0  0  0  0  0  0  0  0  0  0  0
    2.2458   11.4446    2.4424 H   0  0  0  0  0  0  0  0  0  0  0  0
    0.9971   12.7583    4.0153 H   0  0  0  0  0  0  0  0  0  0  0  0
   -1.1780   12.5050    4.2790 H   0  0  0  0  0  0  0  0  0  0  0  0
    2.1147   14.3697    2.8575 H   0  0  0  0  0  0  0  0  0  0  0  0
    2.3061   13.4617    1.3194 H   0  0  0  0  0  0  0  0  0  0  0  0
    1.5060   15.0700    1.3194 H   0  0  0  0  0  0  0  0  0  0  0  0
   -0.6125   14.5028    3.8134 H   0  0  0  0  0  0  0  0  0  0  0  0
   -0.3168   15.5399    2.3769 H   0  0  0  0  0  0  0  0  0  0  0  0
   -1.6832   14.3739    2.3769 H   0  0  0  0  0  0  0  0  0  0  0  0
   -1.3235    9.9225    0.2564 H   0  0  0  0  0  0  0  0  0  0  0  0
   -2.1196   10.4250   -1.2734 H   0  0  0  0  0  0  0  0  0  0  0  0
   -0.9580    9.0549   -1.2734 H   0  0  0  0  0  0  0  0  0  0  0  0
    1.7178    9.7263   -0.9868 H   0  0  0  0  0  0  0  0  0  0  0  0
    0.6015    9.4664   -2.4432 H   0  0  0  0  0  0  0  0  0  0  0  0
    2.7372   11.5904   -2.1060 H   0  0  0  0  0  0  0  0  0  0  0  0
    2.6925   10.2090   -3.2711 H   0  0  0  0  0  0  0  0  0  0  0  0
   -0.1204   10.1761   -3.9904 H   0  0  0  0  0  0  0  0  0  0  0  0
   -0.1974   11.4434   -5.2611 H   0  0  0  0  0  0  0  0  0  0  0  0
    1.1469   10.2520   -5.2611 H   0  0  0  0  0  0  0  0  0  0  0  0
  1  2  1  0
  2  3  1  0
  3  4  1  0
  4  5  1  0
  5  6  1  0
  6  7  1  0
  7  8  1  0
  7  9  1  0
  2 10  1  0
 10 11  1  0
 11 12  1  0
 12 13  1  0
 13 14  1  1
 13 15  1  0
 15 16  1  0
 16 17  1  0
 17 18  2  0
 18 19  1  0
 19 20  1  0
 20 21  1  0
 21 22  1  0
 22 23  1  0
 22 24  1  0
 24 25  1  0
 24 26  1  0
 19 27  1  0
 27 28  1  1
 27 29  1  0
 29 30  1  0
 30 31  1  0
 31 32  1  6
  7  5  1  0
 31 10  1  0
 31 13  1  0
 27 15  1  0
 24 18  1  0
  1 33  1  0
  1 34  1  0
  1 35  1  0
  2 36  1  6
  3 37  1  0
  3 38  1  0
  4 39  1  0
  4 40  1  0
  5 41  1  6
  8 42  1  0
  8 43  1  0
  8 44  1  0
  9 45  1  0
  9 46  1  0
  9 47  1  0
 10 48  1  1
 11 49  1  0
 11 50  1  0
 12 51  1  0
 12 52  1  0
 14 53  1  0
 14 54  1  0
 14 55  1  0
 15 56  1  6
 16 57  1  0
 16 58  1  0
 17 59  1  0
 19 60  1  6
 20 61  1  0
 20 62  1  0
 21 63  1  0
 21 64  1  0
 22 65  1  1
 23 66  1  0
 25 67  1  0
 25 68  1  0
 25 69  1  0
 26 70  1  0
 26 71  1  0
 26 72  1  0
 28 73  1  0
 28 74  1  0
 28 75  1  0
 29 76  1  0
 29 77  1  0
 30 78  1  0
 30 79  1  0
 32 80  1  0
 32 81  1  0
 32 82  1  0
M  END
>  <meeko>  (20) 
{"is_sidechain": [false], "intermolecular_energy": 2.731, "internal_energy": -0.839}

$$$$
