EPH_relaxed_0001_pdb2pqr_Repair_411_r2_0001_out
     RDKit          3D

 82 86  0  0  0  0  0  0  0  0999 V2000
   -1.6810    8.5660   -1.8710 C   0  0  0  0  0  0  0  0  0  0  0  0
   -2.0580    9.0940   -0.4840 C   0  0  2  0  0  0  0  0  0  0  0  0
   -3.5510    9.4670   -0.3910 C   0  0  0  0  0  0  0  0  0  0  0  0
   -4.4820    8.2580   -0.2640 C   0  0  0  0  0  0  0  0  0  0  0  0
   -5.1720    7.9500   -1.5580 C   0  0  2  0  0  0  0  0  0  0  0  0
   -6.3440    8.7350   -1.8130 O   0  0  0  0  0  0  0  0  0  0  0  0
   -6.5510    7.3230   -1.6420 C   0  0  0  0  0  0  0  0  0  0  0  0
   -7.3220    6.9650   -0.4110 C   0  0  0  0  0  0  0  0  0  0  0  0
   -6.9390    6.6150   -2.9030 C   0  0  0  0  0  0  0  0  0  0  0  0
   -1.1960   10.3010   -0.1350 C   0  0  1  0  0  0  0  0  0  0  0  0
   -0.1560    9.9920    0.9740 C   0  0  0  0  0  0  0  0  0  0  0  0
    1.1110   10.8220    0.6420 C   0  0  0  0  0  0  0  0  0  0  0  0
    0.6490   11.8220   -0.4430 C   0  0  1  0  0  0  0  0  0  0  0  0
   -0.0510   12.9740    0.3450 C   0  0  0  0  0  0  0  0  0  0  0  0
    1.7610   12.3690   -1.3970 C   0  0  2  0  0  0  0  0  0  0  0  0
    2.8700   13.1830   -0.7080 C   0  0  0  0  0  0  0  0  0  0  0  0
    2.6190   14.6520   -0.6170 C   0  0  0  0  0  0  0  0  0  0  0  0
    1.6900   15.3320   -1.3140 C   0  0  0  0  0  0  0  0  0  0  0  0
    0.8360   14.6320   -2.3800 C   0  0  1  0  0  0  0  0  0  0  0  0
    0.7980   15.5000   -3.6650 C   0  0  0  0  0  0  0  0  0  0  0  0
    0.3360   16.9280   -3.3930 C   0  0  0  0  0  0  0  0  0  0  0  0
    1.2440   17.6100   -2.3730 C   0  0  2  0  0  0  0  0  0  0  0  0
    2.5410   17.7820   -2.9520 O   0  0  0  0  0  0  0  0  0  0  0  0
    1.3680   16.8220   -1.0390 C   0  0  0  0  0  0  0  0  0  0  0  0
    0.0280   16.8940   -0.2660 C   0  0  0  0  0  0  0  0  0  0  0  0
    2.4200   17.5430   -0.1540 C   0  0  0  0  0  0  0  0  0  0  0  0
    1.2060   13.1160   -2.6780 C   0  0  1  0  0  0  0  0  0  0  0  0
    2.3300   13.0440   -3.7560 C   0  0  0  0  0  0  0  0  0  0  0  0
   -0.0480   12.3920   -3.2960 C   0  0  0  0  0  0  0  0  0  0  0  0
   -1.0490   11.7690   -2.3040 C   0  0  0  0  0  0  0  0  0  0  0  0
   -0.3260   10.9040   -1.2660 C   0  0  2  0  0  0  0  0  0  0  0  0
    0.3700    9.7250   -2.0280 C   0  0  0  0  0  0  0  0  0  0  0  0
   -1.0448    7.6750   -1.7637 H   0  0  0  0  0  0  0  0  0  0  0  0
   -2.5946    8.2999   -2.4228 H   0  0  0  0  0  0  0  0  0  0  0  0
   -1.1327    9.3437   -2.4228 H   0  0  0  0  0  0  0  0  0  0  0  0
   -1.8745    8.2856    0.2390 H   0  0  0  0  0  0  0  0  0  0  0  0
   -3.6940   10.1092    0.4905 H   0  0  0  0  0  0  0  0  0  0  0  0
   -3.8135    9.9769   -1.3297 H   0  0  0  0  0  0  0  0  0  0  0  0
   -3.8897    7.3827    0.0410 H   0  0  0  0  0  0  0  0  0  0  0  0
   -5.2509    8.4952    0.4860 H   0  0  0  0  0  0  0  0  0  0  0  0
   -4.2145    7.6930   -2.0347 H   0  0  0  0  0  0  0  0  0  0  0  0
   -6.7370    7.2367    0.4800 H   0  0  0  0  0  0  0  0  0  0  0  0
   -8.2762    7.5122   -0.4039 H   0  0  0  0  0  0  0  0  0  0  0  0
   -7.5197    5.8829   -0.4039 H   0  0  0  0  0  0  0  0  0  0  0  0
   -7.4538    5.6757   -2.6526 H   0  0  0  0  0  0  0  0  0  0  0  0
   -7.6118    7.2562   -3.4914 H   0  0  0  0  0  0  0  0  0  0  0  0
   -6.0365    6.3930   -3.4914 H   0  0  0  0  0  0  0  0  0  0  0  0
   -1.9835   11.0126    0.1538 H   0  0  0  0  0  0  0  0  0  0  0  0
   -0.5530   10.2835    1.9576 H   0  0  0  0  0  0  0  0  0  0  0  0
    0.0743    8.9170    1.0114 H   0  0  0  0  0  0  0  0  0  0  0  0
    1.4704   11.3557    1.5342 H   0  0  0  0  0  0  0  0  0  0  0  0
    1.9450   10.1914    0.3002 H   0  0  0  0  0  0  0  0  0  0  0  0
    0.0564   12.7972    1.4254 H   0  0  0  0  0  0  0  0  0  0  0  0
    0.4163   13.9346    0.0824 H   0  0  0  0  0  0  0  0  0  0  0  0
   -1.1188   13.0018    0.0824 H   0  0  0  0  0  0  0  0  0  0  0  0
    2.2441   11.4459   -1.7497 H   0  0  0  0  0  0  0  0  0  0  0  0
    2.9917   12.7949    0.3140 H   0  0  0  0  0  0  0  0  0  0  0  0
    3.7674   13.0654   -1.3332 H   0  0  0  0  0  0  0  0  0  0  0  0
    3.2469   15.2275    0.0791 H   0  0  0  0  0  0  0  0  0  0  0  0
   -0.1753   14.5508   -1.9550 H   0  0  0  0  0  0  0  0  0  0  0  0
    1.8085   15.5329   -4.0983 H   0  0  0  0  0  0  0  0  0  0  0  0
    0.0757   15.0414   -4.3564 H   0  0  0  0  0  0  0  0  0  0  0  0
    0.3581   17.4988   -4.3331 H   0  0  0  0  0  0  0  0  0  0  0  0
   -0.6858   16.8952   -2.9870 H   0  0  0  0  0  0  0  0  0  0  0  0
    0.7886   18.5797   -2.1233 H   0  0  0  0  0  0  0  0  0  0  0  0
    3.1540   17.1900   -2.4840 H   0  0  0  0  0  0  0  0  0  0  0  0
    0.2277   16.8833    0.8157 H   0  0  0  0  0  0  0  0  0  0  0  0
   -0.4995   17.8218   -0.5323 H   0  0  0  0  0  0  0  0  0  0  0  0
   -0.5959   16.0281   -0.5323 H   0  0  0  0  0  0  0  0  0  0  0  0
    2.1808   17.3790    0.9071 H   0  0  0  0  0  0  0  0  0  0  0  0
    3.4201   17.1396   -0.3710 H   0  0  0  0  0  0  0  0  0  0  0  0
    2.4046   18.6213   -0.3710 H   0  0  0  0  0  0  0  0  0  0  0  0
    3.3100   12.9812   -3.2603 H   0  0  0  0  0  0  0  0  0  0  0  0
    2.1791   12.1537   -4.3841 H   0  0  0  0  0  0  0  0  0  0  0  0
    2.2940   13.9463   -4.3841 H   0  0  0  0  0  0  0  0  0  0  0  0
   -0.5945   13.1308   -3.9005 H   0  0  0  0  0  0  0  0  0  0  0  0
    0.3605   11.5433   -3.8642 H   0  0  0  0  0  0  0  0  0  0  0  0
   -1.5913   12.5741   -1.7866 H   0  0  0  0  0  0  0  0  0  0  0  0
   -1.7488   11.1323   -2.8651 H   0  0  0  0  0  0  0  0  0  0  0  0
    0.7893    9.0148   -1.3001 H   0  0  0  0  0  0  0  0  0  0  0  0
   -0.3688    9.2097   -2.6594 H   0  0  0  0  0  0  0  0  0  0  0  0
    1.1781   10.1228   -2.6594 H   0  0  0  0  0  0  0  0  0  0  0  0
  1  2  1  0
  2  3  1  0
  3  4  1  0
  4  5  1  0
  5  6  1  0
  6  7  1  0
  7  8  1  0
  7  9  1  0
  2 10  1  0
 10 11  1  0
 11 12  1  0
 12 13  1  0
 13 14  1  1
 13 15  1  0
 15 16  1  0
 16 17  1  0
 17 18  2  0
 18 19  1  0
 19 20  1  0
 20 21  1  0
 21 22  1  0
 22 23  1  0
 22 24  1  0
 24 25  1  0
 24 26  1  0
 19 27  1  0
 27 28  1  6
 27 29  1  0
 29 30  1  0
 30 31  1  0
 31 32  1  6
  7  5  1  0
 31 10  1  0
 31 13  1  0
 27 15  1  0
 24 18  1  0
  1 33  1  0
  1 34  1  0
  1 35  1  0
  2 36  1  1
  3 37  1  0
  3 38  1  0
  4 39  1  0
  4 40  1  0
  5 41  1  6
  8 42  1  0
  8 43  1  0
  8 44  1  0
  9 45  1  0
  9 46  1  0
  9 47  1  0
 10 48  1  1
 11 49  1  0
 11 50  1  0
 12 51  1  0
 12 52  1  0
 14 53  1  0
 14 54  1  0
 14 55  1  0
 15 56  1  6
 16 57  1  0
 16 58  1  0
 17 59  1  0
 19 60  1  1
 20 61  1  0
 20 62  1  0
 21 63  1  0
 21 64  1  0
 22 65  1  1
 23 66  1  0
 25 67  1  0
 25 68  1  0
 25 69  1  0
 26 70  1  0
 26 71  1  0
 26 72  1  0
 28 73  1  0
 28 74  1  0
 28 75  1  0
 29 76  1  0
 29 77  1  0
 30 78  1  0
 30 79  1  0
 32 80  1  0
 32 81  1  0
 32 82  1  0
M  END
>  <meeko>  (1) 
{"is_sidechain": [false], "intermolecular_energy": 2.731, "internal_energy": -0.839}

$$$$
EPH_relaxed_0001_pdb2pqr_Repair_411_r2_0001_out
     RDKit          3D

 82 86  0  0  0  0  0  0  0  0999 V2000
    1.7620   12.5490   -5.6860 C   0  0  0  0  0  0  0  0  0  0  0  0
    0.9010   13.3500   -4.7050 C   0  0  2  0  0  0  0  0  0  0  0  0
    0.8960   14.8570   -5.0320 C   0  0  0  0  0  0  0  0  0  0  0  0
    0.5090   15.1710   -6.4800 C   0  0  0  0  0  0  0  0  0  0  0  0
    1.6930   15.1120   -7.3960 C   0  0  2  0  0  0  0  0  0  0  0  0
    2.2030   16.3900   -7.7990 O   0  0  0  0  0  0  0  0  0  0  0  0
    1.6560   15.5670   -8.8430 C   0  0  0  0  0  0  0  0  0  0  0  0
    0.4050   16.1150   -9.4560 C   0  0  0  0  0  0  0  0  0  0  0  0
    2.6840   15.0300   -9.7890 C   0  0  0  0  0  0  0  0  0  0  0  0
    1.3930   13.1280   -3.2800 C   0  0  1  0  0  0  0  0  0  0  0  0
    1.4040   14.4340   -2.4410 C   0  0  0  0  0  0  0  0  0  0  0  0
    1.0370   14.0360   -0.9880 C   0  0  0  0  0  0  0  0  0  0  0  0
    1.1520   12.4930   -0.9660 C   0  0  1  0  0  0  0  0  0  0  0  0
    2.6770   12.2080   -0.7920 C   0  0  0  0  0  0  0  0  0  0  0  0
    0.3000   11.7520    0.1150 C   0  0  2  0  0  0  0  0  0  0  0  0
    0.6590   12.0900    1.5730 C   0  0  0  0  0  0  0  0  0  0  0  0
    1.6950   11.2130    2.1940 C   0  0  0  0  0  0  0  0  0  0  0  0
    2.1070   10.0260    1.7100 C   0  0  0  0  0  0  0  0  0  0  0  0
    1.4460    9.4070    0.4720 C   0  0  1  0  0  0  0  0  0  0  0  0
    1.1430    7.9100    0.7410 C   0  0  0  0  0  0  0  0  0  0  0  0
    2.3780    7.1350    1.1910 C   0  0  0  0  0  0  0  0  0  0  0  0
    2.9730    7.7460    2.4570 C   0  0  2  0  0  0  0  0  0  0  0  0
    2.0510    7.5620    3.5360 O   0  0  0  0  0  0  0  0  0  0  0  0
    3.3100    9.2560    2.3090 C   0  0  0  0  0  0  0  0  0  0  0  0
    4.5200    9.4280    1.3590 C   0  0  0  0  0  0  0  0  0  0  0  0
    3.7690    9.7810    3.6970 C   0  0  0  0  0  0  0  0  0  0  0  0
    0.1890   10.1890   -0.1060 C   0  0  1  0  0  0  0  0  0  0  0  0
   -1.1080    9.7270    0.6250 C   0  0  0  0  0  0  0  0  0  0  0  0
    0.0020    9.8120   -1.6230 C   0  0  0  0  0  0  0  0  0  0  0  0
    0.7780   10.6580   -2.6510 C   0  0  0  0  0  0  0  0  0  0  0  0
    0.5800   12.1540   -2.3900 C   0  0  2  0  0  0  0  0  0  0  0  0
   -0.9410   12.4750   -2.5790 C   0  0  0  0  0  0  0  0  0  0  0  0
    2.4545   11.9047   -5.1245 H   0  0  0  0  0  0  0  0  0  0  0  0
    1.1132   11.9259   -6.3191 H   0  0  0  0  0  0  0  0  0  0  0  0
    2.3367   13.2411   -6.3191 H   0  0  0  0  0  0  0  0  0  0  0  0
   -0.1333   12.9882   -4.8018 H   0  0  0  0  0  0  0  0  0  0  0  0
    0.1772   15.3549   -4.3646 H   0  0  0  0  0  0  0  0  0  0  0  0
    1.9240   15.2209   -4.8877 H   0  0  0  0  0  0  0  0  0  0  0  0
   -0.2385   14.4374   -6.8162 H   0  0  0  0  0  0  0  0  0  0  0  0
    0.1017   16.1923   -6.5120 H   0  0  0  0  0  0  0  0  0  0  0  0
    2.0403   14.1809   -6.9244 H   0  0  0  0  0  0  0  0  0  0  0  0
   -0.2904   16.4196   -8.6600 H   0  0  0  0  0  0  0  0  0  0  0  0
    0.6535   16.9867  -10.0792 H   0  0  0  0  0  0  0  0  0  0  0  0
   -0.0673   15.3413  -10.0792 H   0  0  0  0  0  0  0  0  0  0  0  0
    3.5169   14.5949   -9.2171 H   0  0  0  0  0  0  0  0  0  0  0  0
    2.2295   14.2541  -10.4226 H   0  0  0  0  0  0  0  0  0  0  0  0
    3.0612   15.8463  -10.4226 H   0  0  0  0  0  0  0  0  0  0  0  0
    2.3858   12.7045   -3.4922 H   0  0  0  0  0  0  0  0  0  0  0  0
    2.4036   14.8925   -2.4671 H   0  0  0  0  0  0  0  0  0  0  0  0
    0.6886   15.1670   -2.8422 H   0  0  0  0  0  0  0  0  0  0  0  0
    1.7393   14.4881   -0.2722 H   0  0  0  0  0  0  0  0  0  0  0  0
    0.0339   14.3840   -0.7005 H   0  0  0  0  0  0  0  0  0  0  0  0
    2.9216   12.1623    0.2795 H   0  0  0  0  0  0  0  0  0  0  0  0
    2.9270   11.2476   -1.2664 H   0  0  0  0  0  0  0  0  0  0  0  0
    3.2570   13.0133   -1.2664 H   0  0  0  0  0  0  0  0  0  0  0  0
   -0.7044   12.1691   -0.0497 H   0  0  0  0  0  0  0  0  0  0  0  0
    1.0292   13.1255    1.6007 H   0  0  0  0  0  0  0  0  0  0  0  0
   -0.2605   11.9353    2.1566 H   0  0  0  0  0  0  0  0  0  0  0  0
    2.1612   11.5662    3.1256 H   0  0  0  0  0  0  0  0  0  0  0  0
    2.1794    9.4990   -0.3426 H   0  0  0  0  0  0  0  0  0  0  0  0
    0.3773    7.8410    1.5277 H   0  0  0  0  0  0  0  0  0  0  0  0
    0.7949    7.4649   -0.2027 H   0  0  0  0  0  0  0  0  0  0  0  0
    2.0945    6.0916    1.3935 H   0  0  0  0  0  0  0  0  0  0  0  0
    3.1319    7.1799    0.3912 H   0  0  0  0  0  0  0  0  0  0  0  0
    3.9243    7.2306    2.6557 H   0  0  0  0  0  0  0  0  0  0  0  0
    1.7460    8.4420    3.8150 H   0  0  0  0  0  0  0  0  0  0  0  0
    5.4367    9.5583    1.9528 H   0  0  0  0  0  0  0  0  0  0  0  0
    4.6179    8.5347    0.7246 H   0  0  0  0  0  0  0  0  0  0  0  0
    4.3651   10.3132    0.7246 H   0  0  0  0  0  0  0  0  0  0  0  0
    3.2674    9.2073    4.4902 H   0  0  0  0  0  0  0  0  0  0  0  0
    4.8585    9.6626    3.7918 H   0  0  0  0  0  0  0  0  0  0  0  0
    3.5062   10.8449    3.7918 H   0  0  0  0  0  0  0  0  0  0  0  0
   -0.9549    9.7815    1.7129 H   0  0  0  0  0  0  0  0  0  0  0  0
   -1.9435   10.3828    0.3389 H   0  0  0  0  0  0  0  0  0  0  0  0
   -1.3408    8.6907    0.3389 H   0  0  0  0  0  0  0  0  0  0  0  0
    0.3179    8.7657   -1.7471 H   0  0  0  0  0  0  0  0  0  0  0  0
   -1.0600   10.0020   -1.8375 H   0  0  0  0  0  0  0  0  0  0  0  0
    1.8492   10.4187   -2.5789 H   0  0  0  0  0  0  0  0  0  0  0  0
    0.3983   10.4238   -3.6565 H   0  0  0  0  0  0  0  0  0  0  0  0
   -1.4196   12.5760   -1.5937 H   0  0  0  0  0  0  0  0  0  0  0  0
   -1.0504   13.4160   -3.1380 H   0  0  0  0  0  0  0  0  0  0  0  0
   -1.4214   11.6585   -3.1380 H   0  0  0  0  0  0  0  0  0  0  0  0
  1  2  1  0
  2  3  1  0
  3  4  1  0
  4  5  1  0
  5  6  1  0
  6  7  1  0
  7  8  1  0
  7  9  1  0
  2 10  1  0
 10 11  1  0
 11 12  1  0
 12 13  1  0
 13 14  1  6
 13 15  1  0
 15 16  1  0
 16 17  1  0
 17 18  2  0
 18 19  1  0
 19 20  1  0
 20 21  1  0
 21 22  1  0
 22 23  1  0
 22 24  1  0
 24 25  1  0
 24 26  1  0
 19 27  1  0
 27 28  1  1
 27 29  1  0
 29 30  1  0
 30 31  1  0
 31 32  1  1
  7  5  1  0
 31 10  1  0
 31 13  1  0
 27 15  1  0
 24 18  1  0
  1 33  1  0
  1 34  1  0
  1 35  1  0
  2 36  1  1
  3 37  1  0
  3 38  1  0
  4 39  1  0
  4 40  1  0
  5 41  1  6
  8 42  1  0
  8 43  1  0
  8 44  1  0
  9 45  1  0
  9 46  1  0
  9 47  1  0
 10 48  1  6
 11 49  1  0
 11 50  1  0
 12 51  1  0
 12 52  1  0
 14 53  1  0
 14 54  1  0
 14 55  1  0
 15 56  1  6
 16 57  1  0
 16 58  1  0
 17 59  1  0
 19 60  1  6
 20 61  1  0
 20 62  1  0
 21 63  1  0
 21 64  1  0
 22 65  1  1
 23 66  1  0
 25 67  1  0
 25 68  1  0
 25 69  1  0
 26 70  1  0
 26 71  1  0
 26 72  1  0
 28 73  1  0
 28 74  1  0
 28 75  1  0
 29 76  1  0
 29 77  1  0
 30 78  1  0
 30 79  1  0
 32 80  1  0
 32 81  1  0
 32 82  1  0
M  END
>  <meeko>  (2) 
{"is_sidechain": [false], "intermolecular_energy": 2.731, "internal_energy": -0.839}

$$$$
EPH_relaxed_0001_pdb2pqr_Repair_411_r2_0001_out
     RDKit          3D

 82 86  0  0  0  0  0  0  0  0999 V2000
    2.3840   19.6290   -1.0570 C   0  0  0  0  0  0  0  0  0  0  0  0
    2.1660   18.8060    0.2150 C   0  0  2  0  0  0  0  0  0  0  0  0
    3.4960   18.3570    0.8520 C   0  0  0  0  0  0  0  0  0  0  0  0
    3.7800   19.0070    2.2080 C   0  0  0  0  0  0  0  0  0  0  0  0
    5.2410   18.9790    2.5410 C   0  0  2  0  0  0  0  0  0  0  0  0
    5.6240   17.9550    3.4690 O   0  0  0  0  0  0  0  0  0  0  0  0
    5.7920   19.3110    3.9150 C   0  0  0  0  0  0  0  0  0  0  0  0
    4.8910   19.6950    5.0460 C   0  0  0  0  0  0  0  0  0  0  0  0
    7.2240   19.7350    4.0290 C   0  0  0  0  0  0  0  0  0  0  0  0
    1.3000   17.5910   -0.0940 C   0  0  1  0  0  0  0  0  0  0  0  0
    0.1040   17.9300   -1.0240 C   0  0  0  0  0  0  0  0  0  0  0  0
   -0.1210   16.6940   -1.9330 C   0  0  0  0  0  0  0  0  0  0  0  0
    0.7220   15.5730   -1.2820 C   0  0  1  0  0  0  0  0  0  0  0  0
   -0.1630   15.0330   -0.1150 C   0  0  0  0  0  0  0  0  0  0  0  0
    1.1910   14.4220   -2.2310 C   0  0  2  0  0  0  0  0  0  0  0  0
    0.0590   13.5980   -2.8680 C   0  0  0  0  0  0  0  0  0  0  0  0
   -0.3740   12.4000   -2.0890 C   0  0  0  0  0  0  0  0  0  0  0  0
    0.3090   11.8380   -1.0750 C   0  0  0  0  0  0  0  0  0  0  0  0
    1.6990   12.3540   -0.6800 C   0  0  1  0  0  0  0  0  0  0  0  0
    2.6630   11.1530   -0.4940 C   0  0  0  0  0  0  0  0  0  0  0  0
    2.1250   10.1170    0.4880 C   0  0  0  0  0  0  0  0  0  0  0  0
    0.7690    9.5850    0.0310 C   0  0  2  0  0  0  0  0  0  0  0  0
    0.9490    8.8400   -1.1780 O   0  0  0  0  0  0  0  0  0  0  0  0
   -0.2830   10.7060   -0.1990 C   0  0  0  0  0  0  0  0  0  0  0  0
   -0.7020   11.3140    1.1620 C   0  0  0  0  0  0  0  0  0  0  0  0
   -1.5590   10.0500   -0.7930 C   0  0  0  0  0  0  0  0  0  0  0  0
    2.3090   13.4870   -1.6120 C   0  0  1  0  0  0  0  0  0  0  0  0
    3.0630   12.8400   -2.8140 C   0  0  0  0  0  0  0  0  0  0  0  0
    3.3850   14.2990   -0.7980 C   0  0  0  0  0  0  0  0  0  0  0  0
    2.8750   15.4970    0.0250 C   0  0  0  0  0  0  0  0  0  0  0  0
    1.9760   16.4020   -0.8230 C   0  0  2  0  0  0  0  0  0  0  0  0
    2.8450   16.9780   -1.9930 C   0  0  0  0  0  0  0  0  0  0  0  0
    2.6569   20.6593   -0.7848 H   0  0  0  0  0  0  0  0  0  0  0  0
    3.1941   19.1796   -1.6501 H   0  0  0  0  0  0  0  0  0  0  0  0
    1.4577   19.6396   -1.6501 H   0  0  0  0  0  0  0  0  0  0  0  0
    1.6536   19.4522    0.9429 H   0  0  0  0  0  0  0  0  0  0  0  0
    3.4640   17.2661    0.9899 H   0  0  0  0  0  0  0  0  0  0  0  0
    4.3005   18.6710    0.1706 H   0  0  0  0  0  0  0  0  0  0  0  0
    3.4407   20.0530    2.1800 H   0  0  0  0  0  0  0  0  0  0  0  0
    3.2413   18.4384    2.9804 H   0  0  0  0  0  0  0  0  0  0  0  0
    5.5015   19.3393    1.5349 H   0  0  0  0  0  0  0  0  0  0  0  0
    5.3914   19.4817    6.0021 H   0  0  0  0  0  0  0  0  0  0  0  0
    4.6617   20.7690    4.9837 H   0  0  0  0  0  0  0  0  0  0  0  0
    3.9574   19.1166    4.9837 H   0  0  0  0  0  0  0  0  0  0  0  0
    7.4989   19.8164    5.0910 H   0  0  0  0  0  0  0  0  0  0  0  0
    7.8674   18.9888    3.5399 H   0  0  0  0  0  0  0  0  0  0  0  0
    7.3574   20.7112    3.5399 H   0  0  0  0  0  0  0  0  0  0  0  0
    1.0235   17.2974    0.9294 H   0  0  0  0  0  0  0  0  0  0  0  0
   -0.7970   18.1286   -0.4251 H   0  0  0  0  0  0  0  0  0  0  0  0
    0.3125   18.8283   -1.6237 H   0  0  0  0  0  0  0  0  0  0  0  0
   -1.1852   16.4167   -1.9550 H   0  0  0  0  0  0  0  0  0  0  0  0
    0.1719   16.8842   -2.9761 H   0  0  0  0  0  0  0  0  0  0  0  0
    0.2910   15.3100    0.8479 H   0  0  0  0  0  0  0  0  0  0  0  0
   -1.1696   15.4709   -0.1853 H   0  0  0  0  0  0  0  0  0  0  0  0
   -0.2340   13.9375   -0.1853 H   0  0  0  0  0  0  0  0  0  0  0  0
    1.6587   14.9753   -3.0588 H   0  0  0  0  0  0  0  0  0  0  0  0
   -0.8132   14.2569   -2.9911 H   0  0  0  0  0  0  0  0  0  0  0  0
    0.4592   13.2147   -3.8182 H   0  0  0  0  0  0  0  0  0  0  0  0
   -1.3325   11.9378   -2.3677 H   0  0  0  0  0  0  0  0  0  0  0  0
    1.5675   12.8794    0.2774 H   0  0  0  0  0  0  0  0  0  0  0  0
    2.8147   10.6684   -1.4698 H   0  0  0  0  0  0  0  0  0  0  0  0
    3.6065   11.5428   -0.0842 H   0  0  0  0  0  0  0  0  0  0  0  0
    2.8362    9.2804    0.5544 H   0  0  0  0  0  0  0  0  0  0  0  0
    2.0015   10.5955    1.4707 H   0  0  0  0  0  0  0  0  0  0  0  0
    0.3771    8.9467    0.8366 H   0  0  0  0  0  0  0  0  0  0  0  0
    0.4210    8.0270   -1.1040 H   0  0  0  0  0  0  0  0  0  0  0  0
   -0.2839   10.7074    1.9788 H   0  0  0  0  0  0  0  0  0  0  0  0
   -0.3203   12.3429    1.2370 H   0  0  0  0  0  0  0  0  0  0  0  0
   -1.7994   11.3236    1.2370 H   0  0  0  0  0  0  0  0  0  0  0  0
   -2.2131    9.7137    0.0250 H   0  0  0  0  0  0  0  0  0  0  0  0
   -2.0945   10.7846   -1.4124 H   0  0  0  0  0  0  0  0  0  0  0  0
   -1.2732    9.1870   -1.4124 H   0  0  0  0  0  0  0  0  0  0  0  0
    3.8469   12.1673   -2.4359 H   0  0  0  0  0  0  0  0  0  0  0  0
    2.3521   12.2665   -3.4270 H   0  0  0  0  0  0  0  0  0  0  0  0
    3.5218   13.6298   -3.4270 H   0  0  0  0  0  0  0  0  0  0  0  0
    3.8725   13.6005   -0.1019 H   0  0  0  0  0  0  0  0  0  0  0  0
    4.0518   14.7342   -1.5569 H   0  0  0  0  0  0  0  0  0  0  0  0
    2.3006   15.1238    0.8857 H   0  0  0  0  0  0  0  0  0  0  0  0
    3.7415   16.0830    0.3652 H   0  0  0  0  0  0  0  0  0  0  0  0
    3.6937   17.5406   -1.5768 H   0  0  0  0  0  0  0  0  0  0  0  0
    3.2218   16.1503   -2.6117 H   0  0  0  0  0  0  0  0  0  0  0  0
    2.2294   17.6475   -2.6117 H   0  0  0  0  0  0  0  0  0  0  0  0
  1  2  1  0
  2  3  1  0
  3  4  1  0
  4  5  1  0
  5  6  1  0
  6  7  1  0
  7  8  1  0
  7  9  1  0
  2 10  1  0
 10 11  1  0
 11 12  1  0
 12 13  1  0
 13 14  1  1
 13 15  1  0
 15 16  1  0
 16 17  1  0
 17 18  2  0
 18 19  1  0
 19 20  1  0
 20 21  1  0
 21 22  1  0
 22 23  1  0
 22 24  1  0
 24 25  1  0
 24 26  1  0
 19 27  1  0
 27 28  1  6
 27 29  1  0
 29 30  1  0
 30 31  1  0
 31 32  1  6
  7  5  1  0
 31 10  1  0
 31 13  1  0
 27 15  1  0
 24 18  1  0
  1 33  1  0
  1 34  1  0
  1 35  1  0
  2 36  1  1
  3 37  1  0
  3 38  1  0
  4 39  1  0
  4 40  1  0
  5 41  1  6
  8 42  1  0
  8 43  1  0
  8 44  1  0
  9 45  1  0
  9 46  1  0
  9 47  1  0
 10 48  1  1
 11 49  1  0
 11 50  1  0
 12 51  1  0
 12 52  1  0
 14 53  1  0
 14 54  1  0
 14 55  1  0
 15 56  1  6
 16 57  1  0
 16 58  1  0
 17 59  1  0
 19 60  1  1
 20 61  1  0
 20 62  1  0
 21 63  1  0
 21 64  1  0
 22 65  1  1
 23 66  1  0
 25 67  1  0
 25 68  1  0
 25 69  1  0
 26 70  1  0
 26 71  1  0
 26 72  1  0
 28 73  1  0
 28 74  1  0
 28 75  1  0
 29 76  1  0
 29 77  1  0
 30 78  1  0
 30 79  1  0
 32 80  1  0
 32 81  1  0
 32 82  1  0
M  END
>  <meeko>  (3) 
{"is_sidechain": [false], "intermolecular_energy": 2.731, "internal_energy": -0.839}

$$$$
EPH_relaxed_0001_pdb2pqr_Repair_411_r2_0001_out
     RDKit          3D

 82 86  0  0  0  0  0  0  0  0999 V2000
    2.3470   17.9790   -2.6810 C   0  0  0  0  0  0  0  0  0  0  0  0
    1.0500   17.6010   -1.9590 C   0  0  2  0  0  0  0  0  0  0  0  0
    1.2010   17.6580   -0.4260 C   0  0  0  0  0  0  0  0  0  0  0  0
    0.8690   19.0260    0.1750 C   0  0  0  0  0  0  0  0  0  0  0  0
   -0.5810   19.1350    0.5390 C   0  0  2  0  0  0  0  0  0  0  0  0
   -1.4470   18.2510   -0.1840 O   0  0  0  0  0  0  0  0  0  0  0  0
   -1.6440   19.6560   -0.4100 C   0  0  0  0  0  0  0  0  0  0  0  0
   -1.3020   20.1040   -1.7960 C   0  0  0  0  0  0  0  0  0  0  0  0
   -2.9200   20.1860    0.1670 C   0  0  0  0  0  0  0  0  0  0  0  0
    0.6030   16.2090   -2.3880 C   0  0  1  0  0  0  0  0  0  0  0  0
    0.6810   16.0030   -3.9250 C   0  0  0  0  0  0  0  0  0  0  0  0
    1.0850   14.5250   -4.1580 C   0  0  0  0  0  0  0  0  0  0  0  0
    0.9050   13.8480   -2.7800 C   0  0  1  0  0  0  0  0  0  0  0  0
   -0.6230   13.5450   -2.6790 C   0  0  0  0  0  0  0  0  0  0  0  0
    1.7650   12.5690   -2.5190 C   0  0  2  0  0  0  0  0  0  0  0  0
    1.4770   11.3860   -3.4610 C   0  0  0  0  0  0  0  0  0  0  0  0
    0.4280   10.4350   -2.9870 C   0  0  0  0  0  0  0  0  0  0  0  0
   -0.0530   10.3630   -1.7320 C   0  0  0  0  0  0  0  0  0  0  0  0
    0.5340   11.2320   -0.6120 C   0  0  1  0  0  0  0  0  0  0  0  0
    0.7820   10.3580    0.6450 C   0  0  0  0  0  0  0  0  0  0  0  0
   -0.4670    9.6020    1.0880 C   0  0  0  0  0  0  0  0  0  0  0  0
   -0.9870    8.7050   -0.0330 C   0  0  2  0  0  0  0  0  0  0  0  0
   -0.0330    7.6660   -0.2720 O   0  0  0  0  0  0  0  0  0  0  0  0
   -1.2640    9.4740   -1.3550 C   0  0  0  0  0  0  0  0  0  0  0  0
   -2.5010   10.3880   -1.1760 C   0  0  0  0  0  0  0  0  0  0  0  0
   -1.6470    8.4340   -2.4420 C   0  0  0  0  0  0  0  0  0  0  0  0
    1.8000   12.1080   -1.0060 C   0  0  1  0  0  0  0  0  0  0  0  0
    3.1030   11.2710   -0.8260 C   0  0  0  0  0  0  0  0  0  0  0  0
    1.9130   13.3250   -0.0130 C   0  0  0  0  0  0  0  0  0  0  0  0
    1.1350   14.6010   -0.3860 C   0  0  0  0  0  0  0  0  0  0  0  0
    1.4070   15.0030   -1.8390 C   0  0  2  0  0  0  0  0  0  0  0  0
    2.9330   15.3360   -1.9650 C   0  0  0  0  0  0  0  0  0  0  0  0
    3.1268   18.2063   -1.9392 H   0  0  0  0  0  0  0  0  0  0  0  0
    2.6741   17.1388   -3.3112 H   0  0  0  0  0  0  0  0  0  0  0  0
    2.1715   18.8634   -3.3112 H   0  0  0  0  0  0  0  0  0  0  0  0
    0.2860   18.3399   -2.2424 H   0  0  0  0  0  0  0  0  0  0  0  0
    0.5262   16.9110    0.0174 H   0  0  0  0  0  0  0  0  0  0  0  0
    2.2583   17.4557   -0.1996 H   0  0  0  0  0  0  0  0  0  0  0  0
    1.4759   19.1743    1.0804 H   0  0  0  0  0  0  0  0  0  0  0  0
    1.0917   19.7949   -0.5794 H   0  0  0  0  0  0  0  0  0  0  0  0
   -0.3259   19.3966    1.5765 H   0  0  0  0  0  0  0  0  0  0  0  0
   -0.6352   20.9774   -1.7450 H   0  0  0  0  0  0  0  0  0  0  0  0
   -0.7958   19.2870   -2.3310 H   0  0  0  0  0  0  0  0  0  0  0  0
   -2.2236   20.3770   -2.3310 H   0  0  0  0  0  0  0  0  0  0  0  0
   -2.8634   20.1625    1.2653 H   0  0  0  0  0  0  0  0  0  0  0  0
   -3.0725   21.2219   -0.1702 H   0  0  0  0  0  0  0  0  0  0  0  0
   -3.7615   19.5630   -0.1702 H   0  0  0  0  0  0  0  0  0  0  0  0
   -0.4145   16.2057   -1.9702 H   0  0  0  0  0  0  0  0  0  0  0  0
   -0.2978   16.2051   -4.3844 H   0  0  0  0  0  0  0  0  0  0  0  0
    1.4118   16.6885   -4.3788 H   0  0  0  0  0  0  0  0  0  0  0  0
    0.4306   14.0575   -4.9085 H   0  0  0  0  0  0  0  0  0  0  0  0
    2.1128   14.4291   -4.5381 H   0  0  0  0  0  0  0  0  0  0  0  0
   -0.9161   13.4869   -1.6204 H   0  0  0  0  0  0  0  0  0  0  0  0
   -1.1895   14.3483   -3.1727 H   0  0  0  0  0  0  0  0  0  0  0  0
   -0.8401   12.5863   -3.1727 H   0  0  0  0  0  0  0  0  0  0  0  0
    2.7794   12.9118   -2.7707 H   0  0  0  0  0  0  0  0  0  0  0  0
    1.1534   11.7939   -4.4300 H   0  0  0  0  0  0  0  0  0  0  0  0
    2.4105   10.8068   -3.5169 H   0  0  0  0  0  0  0  0  0  0  0  0
    0.0132    9.7338   -3.7261 H   0  0  0  0  0  0  0  0  0  0  0  0
   -0.2248   11.9970   -0.3907 H   0  0  0  0  0  0  0  0  0  0  0  0
    1.5732    9.6287    0.4168 H   0  0  0  0  0  0  0  0  0  0  0  0
    1.0745   11.0293    1.4659 H   0  0  0  0  0  0  0  0  0  0  0  0
   -0.2210    8.9806    1.9617 H   0  0  0  0  0  0  0  0  0  0  0  0
   -1.2480   10.3330    1.3442 H   0  0  0  0  0  0  0  0  0  0  0  0
   -1.9513    8.2910    0.2967 H   0  0  0  0  0  0  0  0  0  0  0  0
    0.2930    7.7680   -1.1820 H   0  0  0  0  0  0  0  0  0  0  0  0
   -2.6975   10.5332   -0.1035 H   0  0  0  0  0  0  0  0  0  0  0  0
   -2.3084   11.3624   -1.6487 H   0  0  0  0  0  0  0  0  0  0  0  0
   -3.3759    9.9177   -1.6487 H   0  0  0  0  0  0  0  0  0  0  0  0
   -1.9884    7.5069   -1.9583 H   0  0  0  0  0  0  0  0  0  0  0  0
   -2.4548    8.8395   -3.0690 H   0  0  0  0  0  0  0  0  0  0  0  0
   -0.7692    8.2187   -3.0690 H   0  0  0  0  0  0  0  0  0  0  0  0
    3.3087   11.1389    0.2465 H   0  0  0  0  0  0  0  0  0  0  0  0
    2.9744   10.2861   -1.2987 H   0  0  0  0  0  0  0  0  0  0  0  0
    3.9452   11.7975   -1.2987 H   0  0  0  0  0  0  0  0  0  0  0  0
    1.5486   12.9882    0.9687 H   0  0  0  0  0  0  0  0  0  0  0  0
    2.9731   13.6175   -0.0361 H   0  0  0  0  0  0  0  0  0  0  0  0
    0.0581   14.4160   -0.2592 H   0  0  0  0  0  0  0  0  0  0  0  0
    1.4649   15.4184    0.2721 H   0  0  0  0  0  0  0  0  0  0  0  0
    3.3715   15.4317   -0.9607 H   0  0  0  0  0  0  0  0  0  0  0  0
    3.4408   14.5275   -2.5114 H   0  0  0  0  0  0  0  0  0  0  0  0
    3.0579   16.2825   -2.5114 H   0  0  0  0  0  0  0  0  0  0  0  0
  1  2  1  0
  2  3  1  0
  3  4  1  0
  4  5  1  0
  5  6  1  0
  6  7  1  0
  7  8  1  0
  7  9  1  0
  2 10  1  0
 10 11  1  0
 11 12  1  0
 12 13  1  0
 13 14  1  1
 13 15  1  0
 15 16  1  0
 16 17  1  0
 17 18  2  0
 18 19  1  0
 19 20  1  0
 20 21  1  0
 21 22  1  0
 22 23  1  0
 22 24  1  0
 24 25  1  0
 24 26  1  0
 19 27  1  0
 27 28  1  6
 27 29  1  0
 29 30  1  0
 30 31  1  0
 31 32  1  1
  7  5  1  0
 31 10  1  0
 31 13  1  0
 27 15  1  0
 24 18  1  0
  1 33  1  0
  1 34  1  0
  1 35  1  0
  2 36  1  6
  3 37  1  0
  3 38  1  0
  4 39  1  0
  4 40  1  0
  5 41  1  1
  8 42  1  0
  8 43  1  0
  8 44  1  0
  9 45  1  0
  9 46  1  0
  9 47  1  0
 10 48  1  1
 11 49  1  0
 11 50  1  0
 12 51  1  0
 12 52  1  0
 14 53  1  0
 14 54  1  0
 14 55  1  0
 15 56  1  6
 16 57  1  0
 16 58  1  0
 17 59  1  0
 19 60  1  1
 20 61  1  0
 20 62  1  0
 21 63  1  0
 21 64  1  0
 22 65  1  1
 23 66  1  0
 25 67  1  0
 25 68  1  0
 25 69  1  0
 26 70  1  0
 26 71  1  0
 26 72  1  0
 28 73  1  0
 28 74  1  0
 28 75  1  0
 29 76  1  0
 29 77  1  0
 30 78  1  0
 30 79  1  0
 32 80  1  0
 32 81  1  0
 32 82  1  0
M  END
>  <meeko>  (4) 
{"is_sidechain": [false], "intermolecular_energy": 2.731, "internal_energy": -0.839}

$$$$
EPH_relaxed_0001_pdb2pqr_Repair_411_r2_0001_out
     RDKit          3D

 82 86  0  0  0  0  0  0  0  0999 V2000
   -3.3980    9.3010    0.5450 C   0  0  0  0  0  0  0  0  0  0  0  0
   -2.5780    9.6700   -0.6940 C   0  0  2  0  0  0  0  0  0  0  0  0
   -1.9060    8.4390   -1.3340 C   0  0  0  0  0  0  0  0  0  0  0  0
   -2.8240    7.6600   -2.2810 C   0  0  0  0  0  0  0  0  0  0  0  0
   -4.2600    7.7550   -1.8630 C   0  0  2  0  0  0  0  0  0  0  0  0
   -4.8020    6.5500   -1.3060 O   0  0  0  0  0  0  0  0  0  0  0  0
   -5.3820    6.9930   -2.5440 C   0  0  0  0  0  0  0  0  0  0  0  0
   -5.1150    6.0820   -3.7010 C   0  0  0  0  0  0  0  0  0  0  0  0
   -6.7820    7.5050   -2.4060 C   0  0  0  0  0  0  0  0  0  0  0  0
   -1.5230   10.7080   -0.3280 C   0  0  1  0  0  0  0  0  0  0  0  0
   -0.4230   10.1370    0.6070 C   0  0  0  0  0  0  0  0  0  0  0  0
    0.9050   10.8320    0.2120 C   0  0  0  0  0  0  0  0  0  0  0  0
    0.4750   12.0070   -0.6970 C   0  0  1  0  0  0  0  0  0  0  0  0
    0.0310   13.1350    0.2870 C   0  0  0  0  0  0  0  0  0  0  0  0
    1.5440   12.5190   -1.7170 C   0  0  2  0  0  0  0  0  0  0  0  0
    2.8230   13.0960   -1.0860 C   0  0  0  0  0  0  0  0  0  0  0  0
    2.7930   14.5630   -0.8110 C   0  0  0  0  0  0  0  0  0  0  0  0
    1.9000   15.4350   -1.3150 C   0  0  0  0  0  0  0  0  0  0  0  0
    0.8470   14.9830   -2.3360 C   0  0  1  0  0  0  0  0  0  0  0  0
    0.7950   15.9970   -3.5090 C   0  0  0  0  0  0  0  0  0  0  0  0
    0.5700   17.4290   -3.0340 C   0  0  0  0  0  0  0  0  0  0  0  0
    1.6680   17.8620   -2.0660 C   0  0  2  0  0  0  0  0  0  0  0  0
    2.9070   17.9360   -2.7780 O   0  0  0  0  0  0  0  0  0  0  0  0
    1.8210   16.9090   -0.8480 C   0  0  0  0  0  0  0  0  0  0  0  0
    0.5950   17.0580    0.0870 C   0  0  0  0  0  0  0  0  0  0  0  0
    3.0520   17.3780   -0.0270 C   0  0  0  0  0  0  0  0  0  0  0  0
    0.9670   13.4780   -2.8350 C   0  0  1  0  0  0  0  0  0  0  0  0
    1.9480   13.3950   -4.0440 C   0  0  0  0  0  0  0  0  0  0  0  0
   -0.4360   13.0010   -3.3670 C   0  0  0  0  0  0  0  0  0  0  0  0
   -1.4030   12.3950   -2.3320 C   0  0  0  0  0  0  0  0  0  0  0  0
   -0.7020   11.3270   -1.4870 C   0  0  2  0  0  0  0  0  0  0  0  0
   -0.2640   10.1680   -2.4470 C   0  0  0  0  0  0  0  0  0  0  0  0
   -2.8290    9.5571    1.4509 H   0  0  0  0  0  0  0  0  0  0  0  0
   -4.3457    9.8594    0.5372 H   0  0  0  0  0  0  0  0  0  0  0  0
   -3.6085    8.2214    0.5372 H   0  0  0  0  0  0  0  0  0  0  0  0
   -3.2718   10.0902   -1.4370 H   0  0  0  0  0  0  0  0  0  0  0  0
   -1.0280    8.7790   -1.9028 H   0  0  0  0  0  0  0  0  0  0  0  0
   -1.6362    7.7571   -0.5141 H   0  0  0  0  0  0  0  0  0  0  0  0
   -2.7202    8.0707   -3.2962 H   0  0  0  0  0  0  0  0  0  0  0  0
   -2.5276    6.6011   -2.2522 H   0  0  0  0  0  0  0  0  0  0  0  0
   -4.1397    8.8179   -1.6066 H   0  0  0  0  0  0  0  0  0  0  0  0
   -4.8241    5.0894   -3.3266 H   0  0  0  0  0  0  0  0  0  0  0  0
   -6.0242    5.9909   -4.3134 H   0  0  0  0  0  0  0  0  0  0  0  0
   -4.3004    6.4961   -4.3134 H   0  0  0  0  0  0  0  0  0  0  0  0
   -7.0351    7.5976   -1.3395 H   0  0  0  0  0  0  0  0  0  0  0  0
   -6.8613    8.4903   -2.8885 H   0  0  0  0  0  0  0  0  0  0  0  0
   -7.4783    6.8033   -2.8885 H   0  0  0  0  0  0  0  0  0  0  0  0
   -2.1679   11.4740    0.1274 H   0  0  0  0  0  0  0  0  0  0  0  0
   -0.6673   10.3558    1.6570 H   0  0  0  0  0  0  0  0  0  0  0  0
   -0.3435    9.0449    0.5022 H   0  0  0  0  0  0  0  0  0  0  0  0
    1.4294   11.2034    1.1048 H   0  0  0  0  0  0  0  0  0  0  0  0
    1.6004   10.1461   -0.2939 H   0  0  0  0  0  0  0  0  0  0  0  0
    0.1661   12.7917    1.3233 H   0  0  0  0  0  0  0  0  0  0  0  0
    0.6428   14.0330    0.1155 H   0  0  0  0  0  0  0  0  0  0  0  0
   -1.0287   13.3750    0.1155 H   0  0  0  0  0  0  0  0  0  0  0  0
    1.8519   11.5914   -2.2216 H   0  0  0  0  0  0  0  0  0  0  0  0
    2.9965   12.5751   -0.1328 H   0  0  0  0  0  0  0  0  0  0  0  0
    3.6231   12.9414   -1.8249 H   0  0  0  0  0  0  0  0  0  0  0  0
    3.5660   14.9654   -0.1398 H   0  0  0  0  0  0  0  0  0  0  0  0
   -0.1145   14.9808   -1.8016 H   0  0  0  0  0  0  0  0  0  0  0  0
    1.7482   15.9525   -4.0562 H   0  0  0  0  0  0  0  0  0  0  0  0
   -0.0538   15.7210   -4.1519 H   0  0  0  0  0  0  0  0  0  0  0  0
    0.5719   18.1014   -3.9045 H   0  0  0  0  0  0  0  0  0  0  0  0
   -0.3971   17.4778   -2.5122 H   0  0  0  0  0  0  0  0  0  0  0  0
    1.3832   18.8445   -1.6615 H   0  0  0  0  0  0  0  0  0  0  0  0
    3.2570   18.8360   -2.6670 H   0  0  0  0  0  0  0  0  0  0  0  0
    0.9262   17.0177    1.1352 H   0  0  0  0  0  0  0  0  0  0  0  0
    0.1024   18.0226   -0.1051 H   0  0  0  0  0  0  0  0  0  0  0  0
   -0.1143   16.2394   -0.1051 H   0  0  0  0  0  0  0  0  0  0  0  0
    2.8302   17.2935    1.0471 H   0  0  0  0  0  0  0  0  0  0  0  0
    3.9189   16.7471   -0.2731 H   0  0  0  0  0  0  0  0  0  0  0  0
    3.2793   18.4257   -0.2731 H   0  0  0  0  0  0  0  0  0  0  0  0
    2.9800   13.3077   -3.6735 H   0  0  0  0  0  0  0  0  0  0  0  0
    1.7023   12.5144   -4.6558 H   0  0  0  0  0  0  0  0  0  0  0  0
    1.8538   14.3043   -4.6558 H   0  0  0  0  0  0  0  0  0  0  0  0
   -0.9344   13.8719   -3.8178 H   0  0  0  0  0  0  0  0  0  0  0  0
   -0.2146   12.1822   -4.0674 H   0  0  0  0  0  0  0  0  0  0  0  0
   -1.7693   13.1940   -1.6706 H   0  0  0  0  0  0  0  0  0  0  0  0
   -2.2407   11.9246   -2.8677 H   0  0  0  0  0  0  0  0  0  0  0  0
    0.0630    9.3027   -1.8518 H   0  0  0  0  0  0  0  0  0  0  0  0
   -1.1140    9.8765   -3.0815 H   0  0  0  0  0  0  0  0  0  0  0  0
    0.5663   10.5115   -3.0815 H   0  0  0  0  0  0  0  0  0  0  0  0
  1  2  1  0
  2  3  1  0
  3  4  1  0
  4  5  1  0
  5  6  1  0
  6  7  1  0
  7  8  1  0
  7  9  1  0
  2 10  1  0
 10 11  1  0
 11 12  1  0
 12 13  1  0
 13 14  1  1
 13 15  1  0
 15 16  1  0
 16 17  1  0
 17 18  2  0
 18 19  1  0
 19 20  1  0
 20 21  1  0
 21 22  1  0
 22 23  1  0
 22 24  1  0
 24 25  1  0
 24 26  1  0
 19 27  1  0
 27 28  1  6
 27 29  1  0
 29 30  1  0
 30 31  1  0
 31 32  1  6
  7  5  1  0
 31 10  1  0
 31 13  1  0
 27 15  1  0
 24 18  1  0
  1 33  1  0
  1 34  1  0
  1 35  1  0
  2 36  1  6
  3 37  1  0
  3 38  1  0
  4 39  1  0
  4 40  1  0
  5 41  1  1
  8 42  1  0
  8 43  1  0
  8 44  1  0
  9 45  1  0
  9 46  1  0
  9 47  1  0
 10 48  1  1
 11 49  1  0
 11 50  1  0
 12 51  1  0
 12 52  1  0
 14 53  1  0
 14 54  1  0
 14 55  1  0
 15 56  1  6
 16 57  1  0
 16 58  1  0
 17 59  1  0
 19 60  1  1
 20 61  1  0
 20 62  1  0
 21 63  1  0
 21 64  1  0
 22 65  1  1
 23 66  1  0
 25 67  1  0
 25 68  1  0
 25 69  1  0
 26 70  1  0
 26 71  1  0
 26 72  1  0
 28 73  1  0
 28 74  1  0
 28 75  1  0
 29 76  1  0
 29 77  1  0
 30 78  1  0
 30 79  1  0
 32 80  1  0
 32 81  1  0
 32 82  1  0
M  END
>  <meeko>  (5) 
{"is_sidechain": [false], "intermolecular_energy": 2.731, "internal_energy": -0.839}

$$$$
EPH_relaxed_0001_pdb2pqr_Repair_411_r2_0001_out
     RDKit          3D

 82 86  0  0  0  0  0  0  0  0999 V2000
    1.4470   12.9910   -5.3150 C   0  0  0  0  0  0  0  0  0  0  0  0
    0.7250   13.8110   -4.2420 C   0  0  2  0  0  0  0  0  0  0  0  0
    0.8530   15.3280   -4.4850 C   0  0  0  0  0  0  0  0  0  0  0  0
    0.1880   16.1840   -3.4040 C   0  0  0  0  0  0  0  0  0  0  0  0
    0.8950   17.4920   -3.2200 C   0  0  2  0  0  0  0  0  0  0  0  0
    1.9690   17.4640   -2.2710 O   0  0  0  0  0  0  0  0  0  0  0  0
    0.8470   18.2950   -1.9330 C   0  0  0  0  0  0  0  0  0  0  0  0
    0.0730   17.8180   -0.7440 C   0  0  0  0  0  0  0  0  0  0  0  0
    1.1420   19.7610   -1.9930 C   0  0  0  0  0  0  0  0  0  0  0  0
    1.2700   13.4570   -2.8630 C   0  0  1  0  0  0  0  0  0  0  0  0
    1.3330   14.6820   -1.9130 C   0  0  0  0  0  0  0  0  0  0  0  0
    1.0180   14.1600   -0.4870 C   0  0  0  0  0  0  0  0  0  0  0  0
    1.1130   12.6210   -0.6070 C   0  0  1  0  0  0  0  0  0  0  0  0
    2.6390   12.3050   -0.5220 C   0  0  0  0  0  0  0  0  0  0  0  0
    0.2930   11.7950    0.4380 C   0  0  2  0  0  0  0  0  0  0  0  0
    0.7140   11.9960    1.9040 C   0  0  0  0  0  0  0  0  0  0  0  0
    1.7620   11.0570    2.4020 C   0  0  0  0  0  0  0  0  0  0  0  0
    2.1380    9.9140    1.7980 C   0  0  0  0  0  0  0  0  0  0  0  0
    1.4190    9.4150    0.5380 C   0  0  1  0  0  0  0  0  0  0  0  0
    1.1060    7.9030    0.6850 C   0  0  0  0  0  0  0  0  0  0  0  0
    2.3460    7.0780    1.0140 C   0  0  0  0  0  0  0  0  0  0  0  0
    3.0000    7.5670    2.3040 C   0  0  2  0  0  0  0  0  0  0  0  0
    2.1180    7.2970    3.3980 O   0  0  0  0  0  0  0  0  0  0  0  0
    3.3520    9.0800    2.2770 C   0  0  0  0  0  0  0  0  0  0  0  0
    4.5260    9.3240    1.2970 C   0  0  0  0  0  0  0  0  0  0  0  0
    3.8730    9.4740    3.6850 C   0  0  0  0  0  0  0  0  0  0  0  0
    0.1510   10.2590    0.0830 C   0  0  1  0  0  0  0  0  0  0  0  0
   -1.1220    9.7470    0.8230 C   0  0  0  0  0  0  0  0  0  0  0  0
   -0.1010   10.0210   -1.4530 C   0  0  0  0  0  0  0  0  0  0  0  0
    0.6460   10.9470   -2.4310 C   0  0  0  0  0  0  0  0  0  0  0  0
    0.4800   12.4160   -2.0310 C   0  0  2  0  0  0  0  0  0  0  0  0
   -1.0430   12.7690   -2.1290 C   0  0  0  0  0  0  0  0  0  0  0  0
    2.1001   12.2493   -4.8320 H   0  0  0  0  0  0  0  0  0  0  0  0
    0.7057   12.4738   -5.9419 H   0  0  0  0  0  0  0  0  0  0  0  0
    2.0539   13.6609   -5.9419 H   0  0  0  0  0  0  0  0  0  0  0  0
   -0.3440   13.5575   -4.2962 H   0  0  0  0  0  0  0  0  0  0  0  0
    1.9220   15.5845   -4.5220 H   0  0  0  0  0  0  0  0  0  0  0  0
    0.3353   15.5463   -5.4307 H   0  0  0  0  0  0  0  0  0  0  0  0
   -0.8543   16.3801   -3.6957 H   0  0  0  0  0  0  0  0  0  0  0  0
    0.2342   15.6326   -2.4533 H   0  0  0  0  0  0  0  0  0  0  0  0
    0.7092   17.7668   -4.2688 H   0  0  0  0  0  0  0  0  0  0  0  0
    0.5847   18.1334    0.1772 H   0  0  0  0  0  0  0  0  0  0  0  0
   -0.9385   18.2496   -0.7677 H   0  0  0  0  0  0  0  0  0  0  0  0
    0.0039   16.7204   -0.7677 H   0  0  0  0  0  0  0  0  0  0  0  0
    1.2225   20.1609   -0.9714 H   0  0  0  0  0  0  0  0  0  0  0  0
    2.0907   19.9226   -2.5258 H   0  0  0  0  0  0  0  0  0  0  0  0
    0.3297   20.2770   -2.5258 H   0  0  0  0  0  0  0  0  0  0  0  0
    2.2474   13.0435   -3.1524 H   0  0  0  0  0  0  0  0  0  0  0  0
    2.3373   15.1301   -1.9390 H   0  0  0  0  0  0  0  0  0  0  0  0
    0.6129   15.4555   -2.2181 H   0  0  0  0  0  0  0  0  0  0  0  0
    1.7539   14.5395    0.2371 H   0  0  0  0  0  0  0  0  0  0  0  0
    0.0319   14.4911   -0.1292 H   0  0  0  0  0  0  0  0  0  0  0  0
    2.9422   12.2422    0.5335 H   0  0  0  0  0  0  0  0  0  0  0  0
    2.8431   11.3455   -1.0198 H   0  0  0  0  0  0  0  0  0  0  0  0
    3.2073   13.1045   -1.0198 H   0  0  0  0  0  0  0  0  0  0  0  0
   -0.7107   12.2367    0.3522 H   0  0  0  0  0  0  0  0  0  0  0  0
    1.0986   13.0212    2.0095 H   0  0  0  0  0  0  0  0  0  0  0  0
   -0.1837   11.7973    2.5079 H   0  0  0  0  0  0  0  0  0  0  0  0
    2.2698   11.3211    3.3414 H   0  0  0  0  0  0  0  0  0  0  0  0
    2.1206    9.5718   -0.2946 H   0  0  0  0  0  0  0  0  0  0  0  0
    0.3709    7.7720    1.4928 H   0  0  0  0  0  0  0  0  0  0  0  0
    0.7151    7.5477   -0.2799 H   0  0  0  0  0  0  0  0  0  0  0  0
    2.0555    6.0239    1.1347 H   0  0  0  0  0  0  0  0  0  0  0  0
    3.0681    7.1861    0.1913 H   0  0  0  0  0  0  0  0  0  0  0  0
    3.9513    7.0265    2.4177 H   0  0  0  0  0  0  0  0  0  0  0  0
    1.2080    7.4140    3.0780 H   0  0  0  0  0  0  0  0  0  0  0  0
    5.4465    9.5153    1.8680 H   0  0  0  0  0  0  0  0  0  0  0  0
    4.6655    8.4356    0.6635 H   0  0  0  0  0  0  0  0  0  0  0  0
    4.2999   10.1944    0.6635 H   0  0  0  0  0  0  0  0  0  0  0  0
    3.2457    8.9996    4.4541 H   0  0  0  0  0  0  0  0  0  0  0  0
    4.9130    9.1344    3.7994 H   0  0  0  0  0  0  0  0  0  0  0  0
    3.8295   10.5672    3.7994 H   0  0  0  0  0  0  0  0  0  0  0  0
   -0.9647    9.8103    1.9099 H   0  0  0  0  0  0  0  0  0  0  0  0
   -1.9849   10.3680    0.5407 H   0  0  0  0  0  0  0  0  0  0  0  0
   -1.3146    8.7015    0.5407 H   0  0  0  0  0  0  0  0  0  0  0  0
    0.1948    8.9867   -1.6824 H   0  0  0  0  0  0  0  0  0  0  0  0
   -1.1679   10.2403   -1.6070 H   0  0  0  0  0  0  0  0  0  0  0  0
    1.7157   10.6907   -2.4231 H   0  0  0  0  0  0  0  0  0  0  0  0
    0.2238   10.8078   -3.4372 H   0  0  0  0  0  0  0  0  0  0  0  0
   -1.4627   12.8663   -1.1169 H   0  0  0  0  0  0  0  0  0  0  0  0
   -1.1651   13.7193   -2.6695 H   0  0  0  0  0  0  0  0  0  0  0  0
   -1.5707   11.9694   -2.6695 H   0  0  0  0  0  0  0  0  0  0  0  0
  1  2  1  0
  2  3  1  0
  3  4  1  0
  4  5  1  0
  5  6  1  0
  6  7  1  0
  7  8  1  0
  7  9  1  0
  2 10  1  0
 10 11  1  0
 11 12  1  0
 12 13  1  0
 13 14  1  6
 13 15  1  0
 15 16  1  0
 16 17  1  0
 17 18  2  0
 18 19  1  0
 19 20  1  0
 20 21  1  0
 21 22  1  0
 22 23  1  0
 22 24  1  0
 24 25  1  0
 24 26  1  0
 19 27  1  0
 27 28  1  1
 27 29  1  0
 29 30  1  0
 30 31  1  0
 31 32  1  1
  7  5  1  0
 31 10  1  0
 31 13  1  0
 27 15  1  0
 24 18  1  0
  1 33  1  0
  1 34  1  0
  1 35  1  0
  2 36  1  1
  3 37  1  0
  3 38  1  0
  4 39  1  0
  4 40  1  0
  5 41  1  6
  8 42  1  0
  8 43  1  0
  8 44  1  0
  9 45  1  0
  9 46  1  0
  9 47  1  0
 10 48  1  6
 11 49  1  0
 11 50  1  0
 12 51  1  0
 12 52  1  0
 14 53  1  0
 14 54  1  0
 14 55  1  0
 15 56  1  1
 16 57  1  0
 16 58  1  0
 17 59  1  0
 19 60  1  6
 20 61  1  0
 20 62  1  0
 21 63  1  0
 21 64  1  0
 22 65  1  1
 23 66  1  0
 25 67  1  0
 25 68  1  0
 25 69  1  0
 26 70  1  0
 26 71  1  0
 26 72  1  0
 28 73  1  0
 28 74  1  0
 28 75  1  0
 29 76  1  0
 29 77  1  0
 30 78  1  0
 30 79  1  0
 32 80  1  0
 32 81  1  0
 32 82  1  0
M  END
>  <meeko>  (6) 
{"is_sidechain": [false], "intermolecular_energy": 2.731, "internal_energy": -0.839}

$$$$
EPH_relaxed_0001_pdb2pqr_Repair_411_r2_0001_out
     RDKit          3D

 82 86  0  0  0  0  0  0  0  0999 V2000
    1.8030   18.4740   -1.9520 C   0  0  0  0  0  0  0  0  0  0  0  0
    1.5300   17.4460   -0.8500 C   0  0  2  0  0  0  0  0  0  0  0  0
    2.8090   17.0700   -0.0770 C   0  0  0  0  0  0  0  0  0  0  0  0
    3.7170   18.2640    0.2300 C   0  0  0  0  0  0  0  0  0  0  0  0
    3.4530   18.8240    1.5950 C   0  0  2  0  0  0  0  0  0  0  0  0
    3.8480   20.1920    1.7670 O   0  0  0  0  0  0  0  0  0  0  0  0
    4.5520   19.2240    2.5620 C   0  0  0  0  0  0  0  0  0  0  0  0
    5.9970   19.0780    2.2040 C   0  0  0  0  0  0  0  0  0  0  0  0
    4.2290   19.2930    4.0220 C   0  0  0  0  0  0  0  0  0  0  0  0
    0.8970   16.1960   -1.4510 C   0  0  1  0  0  0  0  0  0  0  0  0
    0.6170   16.3400   -2.9700 C   0  0  0  0  0  0  0  0  0  0  0  0
    0.8490   14.9430   -3.6020 C   0  0  0  0  0  0  0  0  0  0  0  0
    0.9280   13.9780   -2.3960 C   0  0  1  0  0  0  0  0  0  0  0  0
   -0.5580   13.6960   -2.0100 C   0  0  0  0  0  0  0  0  0  0  0  0
    1.7280   12.6530   -2.6210 C   0  0  2  0  0  0  0  0  0  0  0  0
    1.1520   11.7190   -3.7000 C   0  0  0  0  0  0  0  0  0  0  0  0
    0.1660   10.7110   -3.2100 C   0  0  0  0  0  0  0  0  0  0  0  0
   -0.0290   10.3700   -1.9230 C   0  0  0  0  0  0  0  0  0  0  0  0
    0.8530   10.9510   -0.8110 C   0  0  1  0  0  0  0  0  0  0  0  0
    1.3080    9.8110    0.1380 C   0  0  0  0  0  0  0  0  0  0  0  0
    0.1350    9.0040    0.6870 C   0  0  0  0  0  0  0  0  0  0  0  0
   -0.6850    8.3940   -0.4480 C   0  0  2  0  0  0  0  0  0  0  0  0
    0.1130    7.4130   -1.1170 O   0  0  0  0  0  0  0  0  0  0  0  0
   -1.1890    9.4470   -1.4740 C   0  0  0  0  0  0  0  0  0  0  0  0
   -2.2850   10.3260   -0.8210 C   0  0  0  0  0  0  0  0  0  0  0  0
   -1.8790    8.6860   -2.6380 C   0  0  0  0  0  0  0  0  0  0  0  0
    2.0630   11.8630   -1.2920 C   0  0  1  0  0  0  0  0  0  0  0  0
    3.3080   10.9770   -1.6020 C   0  0  0  0  0  0  0  0  0  0  0  0
    2.4820   12.8230   -0.1160 C   0  0  0  0  0  0  0  0  0  0  0  0
    1.7380   14.1680   -0.0170 C   0  0  0  0  0  0  0  0  0  0  0  0
    1.7100   14.8800   -1.3730 C   0  0  2  0  0  0  0  0  0  0  0  0
    3.1910   15.1970   -1.7760 C   0  0  0  0  0  0  0  0  0  0  0  0
    2.0599   19.4413   -1.4956 H   0  0  0  0  0  0  0  0  0  0  0  0
    2.6407   18.1290   -2.5759 H   0  0  0  0  0  0  0  0  0  0  0  0
    0.9045   18.5900   -2.5759 H   0  0  0  0  0  0  0  0  0  0  0  0
    0.8348   17.9063   -0.1325 H   0  0  0  0  0  0  0  0  0  0  0  0
    2.5149   16.6038    0.8749 H   0  0  0  0  0  0  0  0  0  0  0  0
    3.3834   16.3866   -0.7197 H   0  0  0  0  0  0  0  0  0  0  0  0
    4.7660   17.9376    0.1753 H   0  0  0  0  0  0  0  0  0  0  0  0
    3.5103   19.0514   -0.5098 H   0  0  0  0  0  0  0  0  0  0  0  0
    2.5643   18.1862    1.7111 H   0  0  0  0  0  0  0  0  0  0  0  0
    6.5982   19.0173    3.1232 H   0  0  0  0  0  0  0  0  0  0  0  0
    6.1374   18.1611    1.6128 H   0  0  0  0  0  0  0  0  0  0  0  0
    6.3180   19.9483    1.6128 H   0  0  0  0  0  0  0  0  0  0  0  0
    5.1391   19.0986    4.6085 H   0  0  0  0  0  0  0  0  0  0  0  0
    3.8429   20.2939    4.2652 H   0  0  0  0  0  0  0  0  0  0  0  0
    3.4676   18.5372    4.2652 H   0  0  0  0  0  0  0  0  0  0  0  0
   -0.0005   16.1215   -0.8193 H   0  0  0  0  0  0  0  0  0  0  0  0
   -0.4216   16.6626   -3.1348 H   0  0  0  0  0  0  0  0  0  0  0  0
    1.2776   17.0935   -3.4237 H   0  0  0  0  0  0  0  0  0  0  0  0
    0.0122   14.6716   -4.2624 H   0  0  0  0  0  0  0  0  0  0  0  0
    1.7569   14.9111   -4.2222 H   0  0  0  0  0  0  0  0  0  0  0  0
   -0.6551   13.6776   -0.9144 H   0  0  0  0  0  0  0  0  0  0  0  0
   -1.2005   14.4883   -2.4218 H   0  0  0  0  0  0  0  0  0  0  0  0
   -0.8656   12.7235   -2.4218 H   0  0  0  0  0  0  0  0  0  0  0  0
    2.6840   13.0206   -3.0222 H   0  0  0  0  0  0  0  0  0  0  0  0
    0.6537   12.3415   -4.4578 H   0  0  0  0  0  0  0  0  0  0  0  0
    2.0044   11.1452   -4.0927 H   0  0  0  0  0  0  0  0  0  0  0  0
   -0.4534   10.2042   -3.9647 H   0  0  0  0  0  0  0  0  0  0  0  0
    0.2203   11.6638   -0.2618 H   0  0  0  0  0  0  0  0  0  0  0  0
    1.9727    9.1335   -0.4180 H   0  0  0  0  0  0  0  0  0  0  0  0
    1.8242   10.2735    0.9922 H   0  0  0  0  0  0  0  0  0  0  0  0
    0.5212    8.1967    1.3266 H   0  0  0  0  0  0  0  0  0  0  0  0
   -0.5137    9.6767    1.2673 H   0  0  0  0  0  0  0  0  0  0  0  0
   -1.5810    7.9390   -0.0006 H   0  0  0  0  0  0  0  0  0  0  0  0
    0.5700    7.8570   -1.8520 H   0  0  0  0  0  0  0  0  0  0  0  0
   -2.2034   10.2605    0.2740 H   0  0  0  0  0  0  0  0  0  0  0  0
   -2.1530   11.3714   -1.1367 H   0  0  0  0  0  0  0  0  0  0  0  0
   -3.2768    9.9701   -1.1367 H   0  0  0  0  0  0  0  0  0  0  0  0
   -2.5643    7.9302   -2.2267 H   0  0  0  0  0  0  0  0  0  0  0  0
   -2.4462    9.3976   -3.2560 H   0  0  0  0  0  0  0  0  0  0  0  0
   -1.1154    8.1910   -3.2560 H   0  0  0  0  0  0  0  0  0  0  0  0
    3.7688   10.6491   -0.6585 H   0  0  0  0  0  0  0  0  0  0  0  0
    2.9960   10.0967   -2.1831 H   0  0  0  0  0  0  0  0  0  0  0  0
    4.0375   11.5602   -2.1831 H   0  0  0  0  0  0  0  0  0  0  0  0
    2.3193   12.2827    0.8283 H   0  0  0  0  0  0  0  0  0  0  0  0
    3.5295   13.0887   -0.3215 H   0  0  0  0  0  0  0  0  0  0  0  0
    0.7053   13.9845    0.3145 H   0  0  0  0  0  0  0  0  0  0  0  0
    2.2659   14.8086    0.7048 H   0  0  0  0  0  0  0  0  0  0  0  0
    3.7983   15.3270   -0.8681 H   0  0  0  0  0  0  0  0  0  0  0  0
    3.5951   14.3650   -2.3714 H   0  0  0  0  0  0  0  0  0  0  0  0
    3.2191   16.1215   -2.3714 H   0  0  0  0  0  0  0  0  0  0  0  0
  1  2  1  0
  2  3  1  0
  3  4  1  0
  4  5  1  0
  5  6  1  0
  6  7  1  0
  7  8  1  0
  7  9  1  0
  2 10  1  0
 10 11  1  0
 11 12  1  0
 12 13  1  0
 13 14  1  1
 13 15  1  0
 15 16  1  0
 16 17  1  0
 17 18  2  0
 18 19  1  0
 19 20  1  0
 20 21  1  0
 21 22  1  0
 22 23  1  0
 22 24  1  0
 24 25  1  0
 24 26  1  0
 19 27  1  0
 27 28  1  6
 27 29  1  0
 29 30  1  0
 30 31  1  0
 31 32  1  6
  7  5  1  0
 31 10  1  0
 31 13  1  0
 27 15  1  0
 24 18  1  0
  1 33  1  0
  1 34  1  0
  1 35  1  0
  2 36  1  1
  3 37  1  0
  3 38  1  0
  4 39  1  0
  4 40  1  0
  5 41  1  1
  8 42  1  0
  8 43  1  0
  8 44  1  0
  9 45  1  0
  9 46  1  0
  9 47  1  0
 10 48  1  1
 11 49  1  0
 11 50  1  0
 12 51  1  0
 12 52  1  0
 14 53  1  0
 14 54  1  0
 14 55  1  0
 15 56  1  6
 16 57  1  0
 16 58  1  0
 17 59  1  0
 19 60  1  1
 20 61  1  0
 20 62  1  0
 21 63  1  0
 21 64  1  0
 22 65  1  1
 23 66  1  0
 25 67  1  0
 25 68  1  0
 25 69  1  0
 26 70  1  0
 26 71  1  0
 26 72  1  0
 28 73  1  0
 28 74  1  0
 28 75  1  0
 29 76  1  0
 29 77  1  0
 30 78  1  0
 30 79  1  0
 32 80  1  0
 32 81  1  0
 32 82  1  0
M  END
>  <meeko>  (7) 
{"is_sidechain": [false], "intermolecular_energy": 2.731, "internal_energy": -0.839}

$$$$
EPH_relaxed_0001_pdb2pqr_Repair_411_r2_0001_out
     RDKit          3D

 82 86  0  0  0  0  0  0  0  0999 V2000
   -0.3350   14.4530   -4.2460 C   0  0  0  0  0  0  0  0  0  0  0  0
    1.0970   13.9110   -4.2620 C   0  0  2  0  0  0  0  0  0  0  0  0
    1.2420   12.6790   -5.1780 C   0  0  0  0  0  0  0  0  0  0  0  0
    2.6600   12.4790   -5.7200 C   0  0  0  0  0  0  0  0  0  0  0  0
    3.3220   11.2790   -5.1110 C   0  0  2  0  0  0  0  0  0  0  0  0
    3.8210   11.4810   -3.7820 O   0  0  0  0  0  0  0  0  0  0  0  0
    4.8040   11.2120   -4.7950 C   0  0  0  0  0  0  0  0  0  0  0  0
    5.7150   12.3650   -5.0790 C   0  0  0  0  0  0  0  0  0  0  0  0
    5.4480    9.8670   -4.6670 C   0  0  0  0  0  0  0  0  0  0  0  0
    1.5360   13.5620   -2.8450 C   0  0  1  0  0  0  0  0  0  0  0  0
    1.5070   14.7860   -1.8910 C   0  0  0  0  0  0  0  0  0  0  0  0
    1.0870   14.2560   -0.4960 C   0  0  0  0  0  0  0  0  0  0  0  0
    1.2110   12.7190   -0.6090 C   0  0  1  0  0  0  0  0  0  0  0  0
    2.7300   12.4220   -0.4040 C   0  0  0  0  0  0  0  0  0  0  0  0
    0.3220   11.8800    0.3660 C   0  0  2  0  0  0  0  0  0  0  0  0
    0.6230   12.0840    1.8620 C   0  0  0  0  0  0  0  0  0  0  0  0
    1.6400   11.1570    2.4400 C   0  0  0  0  0  0  0  0  0  0  0  0
    2.0780   10.0200    1.8670 C   0  0  0  0  0  0  0  0  0  0  0  0
    1.4680    9.5150    0.5530 C   0  0  1  0  0  0  0  0  0  0  0  0
    1.1640    7.9980    0.6730 C   0  0  0  0  0  0  0  0  0  0  0  0
    2.3850    7.1890    1.0980 C   0  0  0  0  0  0  0  0  0  0  0  0
    2.9280    7.6840    2.4370 C   0  0  2  0  0  0  0  0  0  0  0  0
    1.9660    7.4000    3.4570 O   0  0  0  0  0  0  0  0  0  0  0  0
    3.2610    9.2020    2.4390 C   0  0  0  0  0  0  0  0  0  0  0  0
    4.5060    9.4630    1.5560 C   0  0  0  0  0  0  0  0  0  0  0  0
    3.6640    9.6000    3.8850 C   0  0  0  0  0  0  0  0  0  0  0  0
    0.2290   10.3430   -0.0000 C   0  0  1  0  0  0  0  0  0  0  0  0
   -1.0920    9.8130    0.6360 C   0  0  0  0  0  0  0  0  0  0  0  0
    0.1030   10.1050   -1.5510 C   0  0  0  0  0  0  0  0  0  0  0  0
    0.9120   11.0430   -2.4670 C   0  0  0  0  0  0  0  0  0  0  0  0
    0.6960   12.5090   -2.0800 C   0  0  2  0  0  0  0  0  0  0  0  0
   -0.8190   12.8420   -2.2970 C   0  0  0  0  0  0  0  0  0  0  0  0
   -0.6678   14.5789   -3.2051 H   0  0  0  0  0  0  0  0  0  0  0  0
   -0.3650   15.4247   -4.7607 H   0  0  0  0  0  0  0  0  0  0  0  0
   -1.0009   13.7447   -4.7607 H   0  0  0  0  0  0  0  0  0  0  0  0
    1.7455   14.7013   -4.6680 H   0  0  0  0  0  0  0  0  0  0  0  0
    0.9602   11.7841   -4.6038 H   0  0  0  0  0  0  0  0  0  0  0  0
    0.5864   12.8443   -6.0456 H   0  0  0  0  0  0  0  0  0  0  0  0
    2.6091   12.3432   -6.8104 H   0  0  0  0  0  0  0  0  0  0  0  0
    3.2548   13.3673   -5.4610 H   0  0  0  0  0  0  0  0  0  0  0  0
    2.6539   10.6009   -5.6622 H   0  0  0  0  0  0  0  0  0  0  0  0
    6.0602   12.8019   -4.1303 H   0  0  0  0  0  0  0  0  0  0  0  0
    6.5819   12.0135   -5.6577 H   0  0  0  0  0  0  0  0  0  0  0  0
    5.1725   13.1271   -5.6577 H   0  0  0  0  0  0  0  0  0  0  0  0
    5.5675    9.6175   -3.6024 H   0  0  0  0  0  0  0  0  0  0  0  0
    4.8148    9.1096   -5.1523 H   0  0  0  0  0  0  0  0  0  0  0  0
    6.4350    9.8854   -5.1523 H   0  0  0  0  0  0  0  0  0  0  0  0
    2.5391   13.1629   -3.0561 H   0  0  0  0  0  0  0  0  0  0  0  0
    2.5040   15.2474   -1.8364 H   0  0  0  0  0  0  0  0  0  0  0  0
    0.8033   15.5509   -2.2512 H   0  0  0  0  0  0  0  0  0  0  0  0
    1.7581   14.6433    0.2847 H   0  0  0  0  0  0  0  0  0  0  0  0
    0.0711   14.5732   -0.2179 H   0  0  0  0  0  0  0  0  0  0  0  0
    2.9531   12.3784    0.6723 H   0  0  0  0  0  0  0  0  0  0  0  0
    2.9812   11.4577   -0.8699 H   0  0  0  0  0  0  0  0  0  0  0  0
    3.3259   13.2206   -0.8699 H   0  0  0  0  0  0  0  0  0  0  0  0
   -0.6776   12.3081    0.2003 H   0  0  0  0  0  0  0  0  0  0  0  0
    0.9852   13.1137    1.9985 H   0  0  0  0  0  0  0  0  0  0  0  0
   -0.3171   11.8736    2.3930 H   0  0  0  0  0  0  0  0  0  0  0  0
    2.0680   11.4255    3.4171 H   0  0  0  0  0  0  0  0  0  0  0  0
    2.2313    9.6834   -0.2210 H   0  0  0  0  0  0  0  0  0  0  0  0
    0.3692    7.8556    1.4200 H   0  0  0  0  0  0  0  0  0  0  0  0
    0.8550    7.6397   -0.3200 H   0  0  0  0  0  0  0  0  0  0  0  0
    2.1003    6.1308    1.1939 H   0  0  0  0  0  0  0  0  0  0  0  0
    3.1686    7.3086    0.3353 H   0  0  0  0  0  0  0  0  0  0  0  0
    3.8743    7.1559    2.6258 H   0  0  0  0  0  0  0  0  0  0  0  0
    2.4430    7.3420    4.3030 H   0  0  0  0  0  0  0  0  0  0  0  0
    5.3796    9.6461    2.1989 H   0  0  0  0  0  0  0  0  0  0  0  0
    4.6957    8.5851    0.9209 H   0  0  0  0  0  0  0  0  0  0  0  0
    4.3271   10.3432    0.9209 H   0  0  0  0  0  0  0  0  0  0  0  0
    3.0721    9.0154    4.6047 H   0  0  0  0  0  0  0  0  0  0  0  0
    4.7338    9.3942    4.0373 H   0  0  0  0  0  0  0  0  0  0  0  0
    3.4716   10.6723    4.0373 H   0  0  0  0  0  0  0  0  0  0  0  0
   -1.0100    9.8459    1.7324 H   0  0  0  0  0  0  0  0  0  0  0  0
   -1.9335   10.4431    0.3122 H   0  0  0  0  0  0  0  0  0  0  0  0
   -1.2646    8.7760    0.3122 H   0  0  0  0  0  0  0  0  0  0  0  0
    0.4304    9.0753   -1.7571 H   0  0  0  0  0  0  0  0  0  0  0  0
   -0.9512   10.3106   -1.7884 H   0  0  0  0  0  0  0  0  0  0  0  0
    1.9811   10.8007   -2.3758 H   0  0  0  0  0  0  0  0  0  0  0  0
    0.5714   10.9003   -3.5032 H   0  0  0  0  0  0  0  0  0  0  0  0
   -1.3140   12.9508   -1.3207 H   0  0  0  0  0  0  0  0  0  0  0  0
   -0.9107   13.7817   -2.8613 H   0  0  0  0  0  0  0  0  0  0  0  0
   -1.2963   12.0273   -2.8613 H   0  0  0  0  0  0  0  0  0  0  0  0
  1  2  1  0
  2  3  1  0
  3  4  1  0
  4  5  1  0
  5  6  1  0
  6  7  1  0
  7  8  1  0
  7  9  1  0
  2 10  1  0
 10 11  1  0
 11 12  1  0
 12 13  1  0
 13 14  1  6
 13 15  1  0
 15 16  1  0
 16 17  1  0
 17 18  2  0
 18 19  1  0
 19 20  1  0
 20 21  1  0
 21 22  1  0
 22 23  1  0
 22 24  1  0
 24 25  1  0
 24 26  1  0
 19 27  1  0
 27 28  1  1
 27 29  1  0
 29 30  1  0
 30 31  1  0
 31 32  1  1
  7  5  1  0
 31 10  1  0
 31 13  1  0
 27 15  1  0
 24 18  1  0
  1 33  1  0
  1 34  1  0
  1 35  1  0
  2 36  1  6
  3 37  1  0
  3 38  1  0
  4 39  1  0
  4 40  1  0
  5 41  1  1
  8 42  1  0
  8 43  1  0
  8 44  1  0
  9 45  1  0
  9 46  1  0
  9 47  1  0
 10 48  1  6
 11 49  1  0
 11 50  1  0
 12 51  1  0
 12 52  1  0
 14 53  1  0
 14 54  1  0
 14 55  1  0
 15 56  1  1
 16 57  1  0
 16 58  1  0
 17 59  1  0
 19 60  1  6
 20 61  1  0
 20 62  1  0
 21 63  1  0
 21 64  1  0
 22 65  1  1
 23 66  1  0
 25 67  1  0
 25 68  1  0
 25 69  1  0
 26 70  1  0
 26 71  1  0
 26 72  1  0
 28 73  1  0
 28 74  1  0
 28 75  1  0
 29 76  1  0
 29 77  1  0
 30 78  1  0
 30 79  1  0
 32 80  1  0
 32 81  1  0
 32 82  1  0
M  END
>  <meeko>  (8) 
{"is_sidechain": [false], "intermolecular_energy": 2.731, "internal_energy": -0.839}

$$$$
EPH_relaxed_0001_pdb2pqr_Repair_411_r2_0001_out
     RDKit          3D

 82 86  0  0  0  0  0  0  0  0999 V2000
    2.5980   12.6000   -5.6090 C   0  0  0  0  0  0  0  0  0  0  0  0
    1.2550   13.2800   -5.3290 C   0  0  2  0  0  0  0  0  0  0  0  0
    1.2470   14.7560   -5.7720 C   0  0  0  0  0  0  0  0  0  0  0  0
    0.9070   14.9520   -7.2520 C   0  0  0  0  0  0  0  0  0  0  0  0
    2.1400   14.9920   -8.1040 C   0  0  2  0  0  0  0  0  0  0  0  0
    2.4470   16.2800   -8.6520 O   0  0  0  0  0  0  0  0  0  0  0  0
    2.1160   15.2510   -9.5990 C   0  0  0  0  0  0  0  0  0  0  0  0
    0.8310   15.4870  -10.3290 C   0  0  0  0  0  0  0  0  0  0  0  0
    3.2780   14.7930  -10.4230 C   0  0  0  0  0  0  0  0  0  0  0  0
    0.9220   13.1800   -3.8450 C   0  0  1  0  0  0  0  0  0  0  0  0
   -0.4970   13.7140   -3.5140 C   0  0  0  0  0  0  0  0  0  0  0  0
   -1.0500   12.8330   -2.3640 C   0  0  0  0  0  0  0  0  0  0  0  0
    0.1790   12.0470   -1.8500 C   0  0  1  0  0  0  0  0  0  0  0  0
    0.9220   13.0390   -0.9010 C   0  0  0  0  0  0  0  0  0  0  0  0
   -0.1190   10.6850   -1.1420 C   0  0  2  0  0  0  0  0  0  0  0  0
   -0.9550   10.7880    0.1460 C   0  0  0  0  0  0  0  0  0  0  0  0
   -0.1680   10.9490    1.4050 C   0  0  0  0  0  0  0  0  0  0  0  0
    1.1520   10.7250    1.5360 C   0  0  0  0  0  0  0  0  0  0  0  0
    1.9770   10.1690    0.3680 C   0  0  1  0  0  0  0  0  0  0  0  0
    2.8830    9.0170    0.8760 C   0  0  0  0  0  0  0  0  0  0  0  0
    3.7530    9.4350    2.0580 C   0  0  0  0  0  0  0  0  0  0  0  0
    2.8950    9.9270    3.2200 C   0  0  2  0  0  0  0  0  0  0  0  0
    2.1390    8.8260    3.7330 O   0  0  0  0  0  0  0  0  0  0  0  0
    1.9330   11.0820    2.8250 C   0  0  0  0  0  0  0  0  0  0  0  0
    2.7490   12.3710    2.5580 C   0  0  0  0  0  0  0  0  0  0  0  0
    1.0270   11.3880    4.0480 C   0  0  0  0  0  0  0  0  0  0  0  0
    1.1550    9.7710   -0.9330 C   0  0  1  0  0  0  0  0  0  0  0  0
    0.6360    8.3060   -0.8060 C   0  0  0  0  0  0  0  0  0  0  0  0
    2.1190    9.7940   -2.1770 C   0  0  0  0  0  0  0  0  0  0  0  0
    2.2800   11.1420   -2.9070 C   0  0  0  0  0  0  0  0  0  0  0  0
    0.9140   11.7660   -3.2110 C   0  0  2  0  0  0  0  0  0  0  0  0
    0.1520   10.8010   -4.1810 C   0  0  0  0  0  0  0  0  0  0  0  0
    3.0888   12.3515   -4.6564 H   0  0  0  0  0  0  0  0  0  0  0  0
    2.4293   11.6787   -6.1859 H   0  0  0  0  0  0  0  0  0  0  0  0
    3.2407   13.2813   -6.1859 H   0  0  0  0  0  0  0  0  0  0  0  0
    0.4892   12.7549   -5.9188 H   0  0  0  0  0  0  0  0  0  0  0  0
    0.5011   15.2954   -5.1698 H   0  0  0  0  0  0  0  0  0  0  0  0
    2.2659   15.1424   -5.6221 H   0  0  0  0  0  0  0  0  0  0  0  0
    0.2706   14.1188   -7.5849 H   0  0  0  0  0  0  0  0  0  0  0  0
    0.3849   15.9143   -7.3592 H   0  0  0  0  0  0  0  0  0  0  0  0
    2.6119   14.2034   -7.4995 H   0  0  0  0  0  0  0  0  0  0  0  0
    0.0186   15.6362   -9.6025 H   0  0  0  0  0  0  0  0  0  0  0  0
    0.9272   16.3825  -10.9605 H   0  0  0  0  0  0  0  0  0  0  0  0
    0.6027   14.6158  -10.9605 H   0  0  0  0  0  0  0  0  0  0  0  0
    4.0941   14.4713   -9.7592 H   0  0  0  0  0  0  0  0  0  0  0  0
    2.9677   13.9499  -11.0578 H   0  0  0  0  0  0  0  0  0  0  0  0
    3.6264   15.6211  -11.0578 H   0  0  0  0  0  0  0  0  0  0  0  0
    1.7499   13.7737   -3.4302 H   0  0  0  0  0  0  0  0  0  0  0  0
   -0.4409   14.7646   -3.1929 H   0  0  0  0  0  0  0  0  0  0  0  0
   -1.1520   13.6679   -4.3966 H   0  0  0  0  0  0  0  0  0  0  0  0
   -1.4731   13.4587   -1.5644 H   0  0  0  0  0  0  0  0  0  0  0  0
   -1.8599   12.1686   -2.6996 H   0  0  0  0  0  0  0  0  0  0  0  0
    0.7186   12.7674    0.1453 H   0  0  0  0  0  0  0  0  0  0  0  0
    2.0044   12.9859   -1.0898 H   0  0  0  0  0  0  0  0  0  0  0  0
    0.5666   14.0628   -1.0898 H   0  0  0  0  0  0  0  0  0  0  0  0
   -0.7613   10.1741   -1.8744 H   0  0  0  0  0  0  0  0  0  0  0  0
   -1.6232   11.6564    0.0492 H   0  0  0  0  0  0  0  0  0  0  0  0
   -1.4885    9.8307    0.2404 H   0  0  0  0  0  0  0  0  0  0  0  0
   -0.7140   11.2787    2.3012 H   0  0  0  0  0  0  0  0  0  0  0  0
    2.5993   11.0027    0.0107 H   0  0  0  0  0  0  0  0  0  0  0  0
    2.2444    8.1773    1.1877 H   0  0  0  0  0  0  0  0  0  0  0  0
    3.5536    8.7313    0.0522 H   0  0  0  0  0  0  0  0  0  0  0  0
    4.3479    8.5714    2.3902 H   0  0  0  0  0  0  0  0  0  0  0  0
    4.4117   10.2551    1.7363 H   0  0  0  0  0  0  0  0  0  0  0  0
    3.5750   10.3324    3.9837 H   0  0  0  0  0  0  0  0  0  0  0  0
    1.8250    8.3050    2.9750 H   0  0  0  0  0  0  0  0  0  0  0  0
    3.0378   12.8272    3.5164 H   0  0  0  0  0  0  0  0  0  0  0  0
    3.6532   12.1202    1.9840 H   0  0  0  0  0  0  0  0  0  0  0  0
    2.1355   13.0810    1.9840 H   0  0  0  0  0  0  0  0  0  0  0  0
    1.5871   11.1988    4.9757 H   0  0  0  0  0  0  0  0  0  0  0  0
    0.7134   12.4419    4.0174 H   0  0  0  0  0  0  0  0  0  0  0  0
    0.1386   10.7401    4.0174 H   0  0  0  0  0  0  0  0  0  0  0  0
    0.5422    8.0411    0.2575 H   0  0  0  0  0  0  0  0  0  0  0  0
   -0.3467    8.2216   -1.2930 H   0  0  0  0  0  0  0  0  0  0  0  0
    1.3465    7.6218   -1.2930 H   0  0  0  0  0  0  0  0  0  0  0  0
    3.1155    9.4816   -1.8315 H   0  0  0  0  0  0  0  0  0  0  0  0
    1.6545    9.1217   -2.9134 H   0  0  0  0  0  0  0  0  0  0  0  0
    2.8564   11.8296   -2.2706 H   0  0  0  0  0  0  0  0  0  0  0  0
    2.8054   10.9664   -3.8573 H   0  0  0  0  0  0  0  0  0  0  0  0
   -0.4245   10.0710   -3.5939 H   0  0  0  0  0  0  0  0  0  0  0  0
   -0.5323   11.3837   -4.8152 H   0  0  0  0  0  0  0  0  0  0  0  0
    0.8775   10.2705   -4.8152 H   0  0  0  0  0  0  0  0  0  0  0  0
  1  2  1  0
  2  3  1  0
  3  4  1  0
  4  5  1  0
  5  6  1  0
  6  7  1  0
  7  8  1  0
  7  9  1  0
  2 10  1  0
 10 11  1  0
 11 12  1  0
 12 13  1  0
 13 14  1  1
 13 15  1  0
 15 16  1  0
 16 17  1  0
 17 18  2  0
 18 19  1  0
 19 20  1  0
 20 21  1  0
 21 22  1  0
 22 23  1  0
 22 24  1  0
 24 25  1  0
 24 26  1  0
 19 27  1  0
 27 28  1  1
 27 29  1  0
 29 30  1  0
 30 31  1  0
 31 32  1  6
  7  5  1  0
 31 10  1  0
 31 13  1  0
 27 15  1  0
 24 18  1  0
  1 33  1  0
  1 34  1  0
  1 35  1  0
  2 36  1  6
  3 37  1  0
  3 38  1  0
  4 39  1  0
  4 40  1  0
  5 41  1  6
  8 42  1  0
  8 43  1  0
  8 44  1  0
  9 45  1  0
  9 46  1  0
  9 47  1  0
 10 48  1  1
 11 49  1  0
 11 50  1  0
 12 51  1  0
 12 52  1  0
 14 53  1  0
 14 54  1  0
 14 55  1  0
 15 56  1  6
 16 57  1  0
 16 58  1  0
 17 59  1  0
 19 60  1  6
 20 61  1  0
 20 62  1  0
 21 63  1  0
 21 64  1  0
 22 65  1  1
 23 66  1  0
 25 67  1  0
 25 68  1  0
 25 69  1  0
 26 70  1  0
 26 71  1  0
 26 72  1  0
 28 73  1  0
 28 74  1  0
 28 75  1  0
 29 76  1  0
 29 77  1  0
 30 78  1  0
 30 79  1  0
 32 80  1  0
 32 81  1  0
 32 82  1  0
M  END
>  <meeko>  (9) 
{"is_sidechain": [false], "intermolecular_energy": 2.731, "internal_energy": -0.839}

$$$$
EPH_relaxed_0001_pdb2pqr_Repair_411_r2_0001_out
     RDKit          3D

 82 86  0  0  0  0  0  0  0  0999 V2000
   -2.1180   10.2270   -1.0390 C   0  0  0  0  0  0  0  0  0  0  0  0
   -0.5910   10.2310   -0.9350 C   0  0  2  0  0  0  0  0  0  0  0  0
   -0.0660    9.0800   -0.0550 C   0  0  0  0  0  0  0  0  0  0  0  0
    1.4600    8.9450   -0.0630 C   0  0  0  0  0  0  0  0  0  0  0  0
    1.9460    8.0870    1.0660 C   0  0  2  0  0  0  0  0  0  0  0  0
    2.0520    8.7600    2.3270 O   0  0  0  0  0  0  0  0  0  0  0  0
    3.2830    8.2890    1.7540 C   0  0  0  0  0  0  0  0  0  0  0  0
    4.2180    9.3810    1.3380 C   0  0  0  0  0  0  0  0  0  0  0  0
    3.8890    7.1370    2.4920 C   0  0  0  0  0  0  0  0  0  0  0  0
   -0.1100   11.5690   -0.3840 C   0  0  1  0  0  0  0  0  0  0  0  0
    1.0420   11.4130    0.6440 C   0  0  0  0  0  0  0  0  0  0  0  0
    1.9790   12.6330    0.4540 C   0  0  0  0  0  0  0  0  0  0  0  0
    1.1720   13.6110   -0.4320 C   0  0  1  0  0  0  0  0  0  0  0  0
    0.2090   14.3440    0.5540 C   0  0  0  0  0  0  0  0  0  0  0  0
    2.0070   14.6220   -1.2820 C   0  0  2  0  0  0  0  0  0  0  0  0
    2.8610   15.6100   -0.4690 C   0  0  0  0  0  0  0  0  0  0  0  0
    2.1880   16.8950   -0.1150 C   0  0  0  0  0  0  0  0  0  0  0  0
    1.0560   17.3640   -0.6730 C   0  0  0  0  0  0  0  0  0  0  0  0
    0.3870   16.6250   -1.8390 C   0  0  1  0  0  0  0  0  0  0  0  0
    0.0110   17.6410   -2.9490 C   0  0  0  0  0  0  0  0  0  0  0  0
   -0.8400   18.7930   -2.4240 C   0  0  0  0  0  0  0  0  0  0  0  0
   -0.1170   19.5400   -1.3060 C   0  0  2  0  0  0  0  0  0  0  0  0
    1.0310   20.1940   -1.8560 O   0  0  0  0  0  0  0  0  0  0  0  0
    0.3200   18.6160   -0.1350 C   0  0  0  0  0  0  0  0  0  0  0  0
   -0.9290   18.1450    0.6510 C   0  0  0  0  0  0  0  0  0  0  0  0
    1.1610   19.4660    0.8560 C   0  0  0  0  0  0  0  0  0  0  0  0
    1.1750   15.3660   -2.4050 C   0  0  1  0  0  0  0  0  0  0  0  0
    2.2000   15.8230   -3.4880 C   0  0  0  0  0  0  0  0  0  0  0  0
    0.1590   14.4070   -3.1310 C   0  0  0  0  0  0  0  0  0  0  0  0
   -0.5450   13.3510   -2.2580 C   0  0  0  0  0  0  0  0  0  0  0  0
    0.4670   12.5890   -1.3970 C   0  0  2  0  0  0  0  0  0  0  0  0
    1.4360   11.8230   -2.3620 C   0  0  0  0  0  0  0  0  0  0  0  0
   -2.5543   10.2259   -0.0292 H   0  0  0  0  0  0  0  0  0  0  0  0
   -2.4509   11.1243   -1.5813 H   0  0  0  0  0  0  0  0  0  0  0  0
   -2.4462    9.3280   -1.5813 H   0  0  0  0  0  0  0  0  0  0  0  0
   -0.1905   10.0810   -1.9485 H   0  0  0  0  0  0  0  0  0  0  0  0
   -0.3935    9.2571    0.9801 H   0  0  0  0  0  0  0  0  0  0  0  0
   -0.4734    8.1464   -0.4703 H   0  0  0  0  0  0  0  0  0  0  0  0
    1.7729    8.4921   -1.0153 H   0  0  0  0  0  0  0  0  0  0  0  0
    1.8939    9.9486    0.0573 H   0  0  0  0  0  0  0  0  0  0  0  0
    1.4688    7.1983    0.6273 H   0  0  0  0  0  0  0  0  0  0  0  0
    4.6346    9.8675    2.2323 H   0  0  0  0  0  0  0  0  0  0  0  0
    5.0356    8.9549    0.7380 H   0  0  0  0  0  0  0  0  0  0  0  0
    3.6711   10.1232    0.7380 H   0  0  0  0  0  0  0  0  0  0  0  0
    3.7994    7.3074    3.5750 H   0  0  0  0  0  0  0  0  0  0  0  0
    3.3617    6.2102    2.2218 H   0  0  0  0  0  0  0  0  0  0  0  0
    4.9514    7.0465    2.2218 H   0  0  0  0  0  0  0  0  0  0  0  0
   -1.0551   11.9468    0.0332 H   0  0  0  0  0  0  0  0  0  0  0  0
    0.6378   11.4014    1.6670 H   0  0  0  0  0  0  0  0  0  0  0  0
    1.5855   10.4694    0.4880 H   0  0  0  0  0  0  0  0  0  0  0  0
    2.2174   13.0942    1.4238 H   0  0  0  0  0  0  0  0  0  0  0  0
    2.9402   12.3535   -0.0020 H   0  0  0  0  0  0  0  0  0  0  0  0
    0.5040   14.1194    1.5896 H   0  0  0  0  0  0  0  0  0  0  0  0
    0.2662   15.4292    0.3836 H   0  0  0  0  0  0  0  0  0  0  0  0
   -0.8218   13.9999    0.3836 H   0  0  0  0  0  0  0  0  0  0  0  0
    2.7219   13.9630   -1.7965 H   0  0  0  0  0  0  0  0  0  0  0  0
    3.1575   15.1129    0.4664 H   0  0  0  0  0  0  0  0  0  0  0  0
    3.7105   15.8795   -1.1138 H   0  0  0  0  0  0  0  0  0  0  0  0
    2.6564   17.5102    0.6674 H   0  0  0  0  0  0  0  0  0  0  0  0
   -0.5252   16.1690   -1.4267 H   0  0  0  0  0  0  0  0  0  0  0  0
    0.9363   18.0531   -3.3779 H   0  0  0  0  0  0  0  0  0  0  0  0
   -0.5821   17.1053   -3.7048 H   0  0  0  0  0  0  0  0  0  0  0  0
   -1.0479   19.4916   -3.2479 H   0  0  0  0  0  0  0  0  0  0  0  0
   -1.7779   18.3820   -2.0223 H   0  0  0  0  0  0  0  0  0  0  0  0
   -0.8253   20.2681   -0.8840 H   0  0  0  0  0  0  0  0  0  0  0  0
    1.5790   19.5160   -2.2850 H   0  0  0  0  0  0  0  0  0  0  0  0
   -0.7323   18.2192    1.7307 H   0  0  0  0  0  0  0  0  0  0  0  0
   -1.7877   18.7811    0.3902 H   0  0  0  0  0  0  0  0  0  0  0  0
   -1.1539   17.1003    0.3902 H   0  0  0  0  0  0  0  0  0  0  0  0
    0.8941   19.1962    1.8885 H   0  0  0  0  0  0  0  0  0  0  0  0
    2.2307   19.2702    0.6907 H   0  0  0  0  0  0  0  0  0  0  0  0
    0.9538   20.5336    0.6907 H   0  0  0  0  0  0  0  0  0  0  0  0
    3.0987   16.2237   -2.9963 H   0  0  0  0  0  0  0  0  0  0  0  0
    2.4778   14.9635   -4.1158 H   0  0  0  0  0  0  0  0  0  0  0  0
    1.7464   16.6041   -4.1158 H   0  0  0  0  0  0  0  0  0  0  0  0
   -0.6206   15.0334   -3.5890 H   0  0  0  0  0  0  0  0  0  0  0  0
    0.7666   13.8314   -3.8448 H   0  0  0  0  0  0  0  0  0  0  0  0
   -1.2707   13.8528   -1.6011 H   0  0  0  0  0  0  0  0  0  0  0  0
   -1.0549   12.6336   -2.9178 H   0  0  0  0  0  0  0  0  0  0  0  0
    2.1635   11.2479   -1.7705 H   0  0  0  0  0  0  0  0  0  0  0  0
    0.8553   11.1372   -2.9964 H   0  0  0  0  0  0  0  0  0  0  0  0
    1.9692   12.5464   -2.9964 H   0  0  0  0  0  0  0  0  0  0  0  0
  1  2  1  0
  2  3  1  0
  3  4  1  0
  4  5  1  0
  5  6  1  0
  6  7  1  0
  7  8  1  0
  7  9  1  0
  2 10  1  0
 10 11  1  0
 11 12  1  0
 12 13  1  0
 13 14  1  1
 13 15  1  0
 15 16  1  0
 16 17  1  0
 17 18  2  0
 18 19  1  0
 19 20  1  0
 20 21  1  0
 21 22  1  0
 22 23  1  0
 22 24  1  0
 24 25  1  0
 24 26  1  0
 19 27  1  0
 27 28  1  6
 27 29  1  0
 29 30  1  0
 30 31  1  0
 31 32  1  6
  7  5  1  0
 31 10  1  0
 31 13  1  0
 27 15  1  0
 24 18  1  0
  1 33  1  0
  1 34  1  0
  1 35  1  0
  2 36  1  6
  3 37  1  0
  3 38  1  0
  4 39  1  0
  4 40  1  0
  5 41  1  1
  8 42  1  0
  8 43  1  0
  8 44  1  0
  9 45  1  0
  9 46  1  0
  9 47  1  0
 10 48  1  1
 11 49  1  0
 11 50  1  0
 12 51  1  0
 12 52  1  0
 14 53  1  0
 14 54  1  0
 14 55  1  0
 15 56  1  6
 16 57  1  0
 16 58  1  0
 17 59  1  0
 19 60  1  1
 20 61  1  0
 20 62  1  0
 21 63  1  0
 21 64  1  0
 22 65  1  1
 23 66  1  0
 25 67  1  0
 25 68  1  0
 25 69  1  0
 26 70  1  0
 26 71  1  0
 26 72  1  0
 28 73  1  0
 28 74  1  0
 28 75  1  0
 29 76  1  0
 29 77  1  0
 30 78  1  0
 30 79  1  0
 32 80  1  0
 32 81  1  0
 32 82  1  0
M  END
>  <meeko>  (10) 
{"is_sidechain": [false], "intermolecular_energy": 2.731, "internal_energy": -0.839}

$$$$
EPH_relaxed_0001_pdb2pqr_Repair_411_r2_0001_out
     RDKit          3D

 82 86  0  0  0  0  0  0  0  0999 V2000
    2.8400   17.1880   -1.2740 C   0  0  0  0  0  0  0  0  0  0  0  0
    1.5170   16.5430   -1.6950 C   0  0  2  0  0  0  0  0  0  0  0  0
    0.3430   17.5410   -1.6480 C   0  0  0  0  0  0  0  0  0  0  0  0
    0.7370   18.9310   -1.1410 C   0  0  0  0  0  0  0  0  0  0  0  0
   -0.4660   19.7690   -0.8290 C   0  0  2  0  0  0  0  0  0  0  0  0
   -0.5610   20.1940    0.5370 O   0  0  0  0  0  0  0  0  0  0  0  0
   -1.5940   19.3080    0.0760 C   0  0  0  0  0  0  0  0  0  0  0  0
   -1.5730   17.9600    0.7240 C   0  0  0  0  0  0  0  0  0  0  0  0
   -2.9330   19.9630   -0.0610 C   0  0  0  0  0  0  0  0  0  0  0  0
    1.2170   15.3430   -0.8040 C   0  0  1  0  0  0  0  0  0  0  0  0
   -0.2890   15.2240   -0.4510 C   0  0  0  0  0  0  0  0  0  0  0  0
   -0.6130   13.7090   -0.3780 C   0  0  0  0  0  0  0  0  0  0  0  0
    0.7690   13.0150   -0.3620 C   0  0  1  0  0  0  0  0  0  0  0  0
    1.2490   13.1120    1.1200 C   0  0  0  0  0  0  0  0  0  0  0  0
    0.8090   11.5430   -0.8870 C   0  0  2  0  0  0  0  0  0  0  0  0
   -0.0270   10.5380   -0.0770 C   0  0  0  0  0  0  0  0  0  0  0  0
    0.6960    9.8620    1.0410 C   0  0  0  0  0  0  0  0  0  0  0  0
    2.0310    9.8360    1.2070 C   0  0  0  0  0  0  0  0  0  0  0  0
    2.9670   10.4500    0.1570 C   0  0  1  0  0  0  0  0  0  0  0  0
    4.1250    9.4640   -0.1450 C   0  0  0  0  0  0  0  0  0  0  0  0
    4.8670    9.0290    1.1160 C   0  0  0  0  0  0  0  0  0  0  0  0
    3.9140    8.3710    2.1100 C   0  0  2  0  0  0  0  0  0  0  0  0
    3.4470    7.1370    1.5540 O   0  0  0  0  0  0  0  0  0  0  0  0
    2.7010    9.2680    2.4820 C   0  0  0  0  0  0  0  0  0  0  0  0
    3.1810   10.4580    3.3500 C   0  0  0  0  0  0  0  0  0  0  0  0
    1.7470    8.4340    3.3790 C   0  0  0  0  0  0  0  0  0  0  0  0
    2.2670   10.9930   -1.1630 C   0  0  1  0  0  0  0  0  0  0  0  0
    2.1190    9.8380   -2.1990 C   0  0  0  0  0  0  0  0  0  0  0  0
    3.1980   12.0730   -1.8310 C   0  0  0  0  0  0  0  0  0  0  0  0
    3.0270   13.5280   -1.3550 C   0  0  0  0  0  0  0  0  0  0  0  0
    1.5520   13.9390   -1.3650 C   0  0  2  0  0  0  0  0  0  0  0  0
    1.0470   13.8730   -2.8470 C   0  0  0  0  0  0  0  0  0  0  0  0
    2.9005   17.2175   -0.1761 H   0  0  0  0  0  0  0  0  0  0  0  0
    3.6786   16.5977   -1.6717 H   0  0  0  0  0  0  0  0  0  0  0  0
    2.8915   18.2123   -1.6717 H   0  0  0  0  0  0  0  0  0  0  0  0
    1.6274   16.2129   -2.7385 H   0  0  0  0  0  0  0  0  0  0  0  0
   -0.0655   17.6448   -2.6640 H   0  0  0  0  0  0  0  0  0  0  0  0
   -0.3943   17.1370   -0.9386 H   0  0  0  0  0  0  0  0  0  0  0  0
    1.3403   18.8196   -0.2280 H   0  0  0  0  0  0  0  0  0  0  0  0
    1.3100   19.4352   -1.9331 H   0  0  0  0  0  0  0  0  0  0  0  0
   -0.4608   20.1970   -1.8423 H   0  0  0  0  0  0  0  0  0  0  0  0
   -1.5749   18.0788    1.8176 H   0  0  0  0  0  0  0  0  0  0  0  0
   -2.4624   17.3910    0.4155 H   0  0  0  0  0  0  0  0  0  0  0  0
   -0.6663   17.4189    0.4155 H   0  0  0  0  0  0  0  0  0  0  0  0
   -3.3462   20.1651    0.9382 H   0  0  0  0  0  0  0  0  0  0  0  0
   -2.8237   20.9094   -0.6109 H   0  0  0  0  0  0  0  0  0  0  0  0
   -3.6130   19.2958   -0.6109 H   0  0  0  0  0  0  0  0  0  0  0  0
    1.8759   15.5748    0.0458 H   0  0  0  0  0  0  0  0  0  0  0  0
   -0.4895   15.7015    0.5195 H   0  0  0  0  0  0  0  0  0  0  0  0
   -0.9125   15.7253   -1.2059 H   0  0  0  0  0  0  0  0  0  0  0  0
   -1.1753   13.4758    0.5382 H   0  0  0  0  0  0  0  0  0  0  0  0
   -1.2379   13.3750   -1.2194 H   0  0  0  0  0  0  0  0  0  0  0  0
    0.3965   12.9397    1.7935 H   0  0  0  0  0  0  0  0  0  0  0  0
    2.0223   12.3520    1.3055 H   0  0  0  0  0  0  0  0  0  0  0  0
    1.6665   14.1127    1.3055 H   0  0  0  0  0  0  0  0  0  0  0  0
    0.3094   11.6274   -1.8634 H   0  0  0  0  0  0  0  0  0  0  0  0
   -0.8859   11.0765    0.3500 H   0  0  0  0  0  0  0  0  0  0  0  0
   -0.3118    9.7420   -0.7807 H   0  0  0  0  0  0  0  0  0  0  0  0
    0.0852    9.3409    1.7929 H   0  0  0  0  0  0  0  0  0  0  0  0
    3.3686   11.3692    0.6084 H   0  0  0  0  0  0  0  0  0  0  0  0
    3.7093    8.5713   -0.6352 H   0  0  0  0  0  0  0  0  0  0  0  0
    4.8454    9.9836   -0.7939 H   0  0  0  0  0  0  0  0  0  0  0  0
    5.6532    8.3103    0.8413 H   0  0  0  0  0  0  0  0  0  0  0  0
    5.3077    9.9191    1.5887 H   0  0  0  0  0  0  0  0  0  0  0  0
    4.4750    8.2005    3.0407 H   0  0  0  0  0  0  0  0  0  0  0  0
    3.5930    7.1740    0.5930 H   0  0  0  0  0  0  0  0  0  0  0  0
    3.0772   10.2008    4.4145 H   0  0  0  0  0  0  0  0  0  0  0  0
    4.2362   10.6731    3.1259 H   0  0  0  0  0  0  0  0  0  0  0  0
    2.5704   11.3451    3.1259 H   0  0  0  0  0  0  0  0  0  0  0  0
    1.9728    8.6314    4.4373 H   0  0  0  0  0  0  0  0  0  0  0  0
    0.7050    8.7160    3.1676 H   0  0  0  0  0  0  0  0  0  0  0  0
    1.8873    7.3637    3.1676 H   0  0  0  0  0  0  0  0  0  0  0  0
    1.9966    8.8825   -1.6679 H   0  0  0  0  0  0  0  0  0  0  0  0
    1.2371   10.0223   -2.8301 H   0  0  0  0  0  0  0  0  0  0  0  0
    3.0189    9.7940   -2.8301 H   0  0  0  0  0  0  0  0  0  0  0  0
    4.2402   11.7797   -1.6368 H   0  0  0  0  0  0  0  0  0  0  0  0
    2.9117   12.0823   -2.8931 H   0  0  0  0  0  0  0  0  0  0  0  0
    3.4191   13.6200   -0.3314 H   0  0  0  0  0  0  0  0  0  0  0  0
    3.5793   14.1880   -2.0401 H   0  0  0  0  0  0  0  0  0  0  0  0
   -0.0437   13.7305   -2.8567 H   0  0  0  0  0  0  0  0  0  0  0  0
    1.2987   14.8117   -3.3623 H   0  0  0  0  0  0  0  0  0  0  0  0
    1.5315   13.0305   -3.3623 H   0  0  0  0  0  0  0  0  0  0  0  0
  1  2  1  0
  2  3  1  0
  3  4  1  0
  4  5  1  0
  5  6  1  0
  6  7  1  0
  7  8  1  0
  7  9  1  0
  2 10  1  0
 10 11  1  0
 11 12  1  0
 12 13  1  0
 13 14  1  1
 13 15  1  0
 15 16  1  0
 16 17  1  0
 17 18  2  0
 18 19  1  0
 19 20  1  0
 20 21  1  0
 21 22  1  0
 22 23  1  0
 22 24  1  0
 24 25  1  0
 24 26  1  0
 19 27  1  0
 27 28  1  6
 27 29  1  0
 29 30  1  0
 30 31  1  0
 31 32  1  6
  7  5  1  0
 31 10  1  0
 31 13  1  0
 27 15  1  0
 24 18  1  0
  1 33  1  0
  1 34  1  0
  1 35  1  0
  2 36  1  6
  3 37  1  0
  3 38  1  0
  4 39  1  0
  4 40  1  0
  5 41  1  6
  8 42  1  0
  8 43  1  0
  8 44  1  0
  9 45  1  0
  9 46  1  0
  9 47  1  0
 10 48  1  1
 11 49  1  0
 11 50  1  0
 12 51  1  0
 12 52  1  0
 14 53  1  0
 14 54  1  0
 14 55  1  0
 15 56  1  6
 16 57  1  0
 16 58  1  0
 17 59  1  0
 19 60  1  1
 20 61  1  0
 20 62  1  0
 21 63  1  0
 21 64  1  0
 22 65  1  1
 23 66  1  0
 25 67  1  0
 25 68  1  0
 25 69  1  0
 26 70  1  0
 26 71  1  0
 26 72  1  0
 28 73  1  0
 28 74  1  0
 28 75  1  0
 29 76  1  0
 29 77  1  0
 30 78  1  0
 30 79  1  0
 32 80  1  0
 32 81  1  0
 32 82  1  0
M  END
>  <meeko>  (11) 
{"is_sidechain": [false], "intermolecular_energy": 2.731, "internal_energy": -0.839}

$$$$
EPH_relaxed_0001_pdb2pqr_Repair_411_r2_0001_out
     RDKit          3D

 82 86  0  0  0  0  0  0  0  0999 V2000
   -5.0610    6.0380   -1.7960 C   0  0  0  0  0  0  0  0  0  0  0  0
   -5.4200    7.5260   -1.8020 C   0  0  2  0  0  0  0  0  0  0  0  0
   -5.2230    8.1770   -0.4180 C   0  0  0  0  0  0  0  0  0  0  0  0
   -4.0910    9.2070   -0.3780 C   0  0  0  0  0  0  0  0  0  0  0  0
   -2.7990    8.6320   -0.8740 C   0  0  2  0  0  0  0  0  0  0  0  0
   -1.6890    8.7950    0.0180 O   0  0  0  0  0  0  0  0  0  0  0  0
   -1.5940    9.4760   -1.2430 C   0  0  0  0  0  0  0  0  0  0  0  0
   -1.6230   10.9680   -1.1320 C   0  0  0  0  0  0  0  0  0  0  0  0
   -0.5690    8.8950   -2.1670 C   0  0  0  0  0  0  0  0  0  0  0  0
   -6.8610    7.7120   -2.2630 C   0  0  1  0  0  0  0  0  0  0  0  0
   -7.1520    7.0030   -3.6130 C   0  0  0  0  0  0  0  0  0  0  0  0
   -8.6130    6.4900   -3.5440 C   0  0  0  0  0  0  0  0  0  0  0  0
   -9.2170    7.1990   -2.3090 C   0  0  1  0  0  0  0  0  0  0  0  0
   -9.6080    8.6230   -2.8150 C   0  0  0  0  0  0  0  0  0  0  0  0
  -10.4230    6.4800   -1.6200 C   0  0  2  0  0  0  0  0  0  0  0  0
  -11.6740    6.3170   -2.5000 C   0  0  0  0  0  0  0  0  0  0  0  0
  -12.6590    7.4360   -2.4210 C   0  0  0  0  0  0  0  0  0  0  0  0
  -12.6870    8.3880   -1.4690 C   0  0  0  0  0  0  0  0  0  0  0  0
  -11.7190    8.3420   -0.2800 C   0  0  1  0  0  0  0  0  0  0  0  0
  -12.5000    8.6040    1.0340 C   0  0  0  0  0  0  0  0  0  0  0  0
  -13.3050    9.8990    0.9880 C   0  0  0  0  0  0  0  0  0  0  0  0
  -14.2970    9.8820   -0.1720 C   0  0  2  0  0  0  0  0  0  0  0  0
  -15.2870    8.8810    0.0820 O   0  0  0  0  0  0  0  0  0  0  0  0
  -13.6260    9.6170   -1.5490 C   0  0  0  0  0  0  0  0  0  0  0  0
  -12.7820   10.8480   -1.9620 C   0  0  0  0  0  0  0  0  0  0  0  0
  -14.7510    9.4850   -2.6110 C   0  0  0  0  0  0  0  0  0  0  0  0
  -10.7900    7.0550   -0.1920 C   0  0  1  0  0  0  0  0  0  0  0  0
  -11.5320    5.9140    0.5690 C   0  0  0  0  0  0  0  0  0  0  0  0
   -9.5130    7.4000    0.6610 C   0  0  0  0  0  0  0  0  0  0  0  0
   -8.3120    7.9970   -0.0970 C   0  0  0  0  0  0  0  0  0  0  0  0
   -7.9790    7.1660   -1.3400 C   0  0  2  0  0  0  0  0  0  0  0  0
   -7.5610    5.7350   -0.8600 C   0  0  0  0  0  0  0  0  0  0  0  0
   -4.9760    5.6855   -0.7575 H   0  0  0  0  0  0  0  0  0  0  0  0
   -5.8476    5.4689   -2.3131 H   0  0  0  0  0  0  0  0  0  0  0  0
   -4.1014    5.8902   -2.3131 H   0  0  0  0  0  0  0  0  0  0  0  0
   -4.7370    8.0273   -2.5036 H   0  0  0  0  0  0  0  0  0  0  0  0
   -6.1596    8.6791   -0.1339 H   0  0  0  0  0  0  0  0  0  0  0  0
   -4.9500    7.3719    0.2801 H   0  0  0  0  0  0  0  0  0  0  0  0
   -4.3661   10.0635   -1.0111 H   0  0  0  0  0  0  0  0  0  0  0  0
   -3.9482    9.5184    0.6673 H   0  0  0  0  0  0  0  0  0  0  0  0
   -3.3337    7.8348   -1.4111 H   0  0  0  0  0  0  0  0  0  0  0  0
   -1.6286   11.2567   -0.0706 H   0  0  0  0  0  0  0  0  0  0  0  0
   -0.7329   11.3895   -1.6219 H   0  0  0  0  0  0  0  0  0  0  0  0
   -2.5288   11.3546   -1.6219 H   0  0  0  0  0  0  0  0  0  0  0  0
    0.2388    8.4371   -1.5772 H   0  0  0  0  0  0  0  0  0  0  0  0
   -1.0393    8.1292   -2.8013 H   0  0  0  0  0  0  0  0  0  0  0  0
   -0.1535    9.6919   -2.8013 H   0  0  0  0  0  0  0  0  0  0  0  0
   -6.9037    8.8107   -2.2967 H   0  0  0  0  0  0  0  0  0  0  0  0
   -7.0389    7.7129   -4.4456 H   0  0  0  0  0  0  0  0  0  0  0  0
   -6.4500    6.1732   -3.7822 H   0  0  0  0  0  0  0  0  0  0  0  0
   -9.1638    6.7625   -4.4563 H   0  0  0  0  0  0  0  0  0  0  0  0
   -8.6673    5.3942   -3.4642 H   0  0  0  0  0  0  0  0  0  0  0  0
   -9.7889    9.2817   -1.9528 H   0  0  0  0  0  0  0  0  0  0  0  0
   -8.7892    9.0332   -3.4244 H   0  0  0  0  0  0  0  0  0  0  0  0
  -10.5214    8.5576   -3.4244 H   0  0  0  0  0  0  0  0  0  0  0  0
  -10.0342    5.4630   -1.4635 H   0  0  0  0  0  0  0  0  0  0  0  0
  -11.3447    6.2271   -3.5457 H   0  0  0  0  0  0  0  0  0  0  0  0
  -12.1962    5.4246   -2.1245 H   0  0  0  0  0  0  0  0  0  0  0  0
  -13.4269    7.4872   -3.2069 H   0  0  0  0  0  0  0  0  0  0  0  0
  -10.9913    9.1495   -0.4486 H   0  0  0  0  0  0  0  0  0  0  0  0
  -13.1907    7.7655    1.2068 H   0  0  0  0  0  0  0  0  0  0  0  0
  -11.7645    8.6969    1.8466 H   0  0  0  0  0  0  0  0  0  0  0  0
  -13.8571   10.0138    1.9325 H   0  0  0  0  0  0  0  0  0  0  0  0
  -12.6105   10.7399    0.8446 H   0  0  0  0  0  0  0  0  0  0  0  0
  -14.7506   10.8823   -0.2322 H   0  0  0  0  0  0  0  0  0  0  0  0
  -16.1080    9.1600   -0.3590 H   0  0  0  0  0  0  0  0  0  0  0  0
  -12.4258   11.3676   -1.0603 H   0  0  0  0  0  0  0  0  0  0  0  0
  -11.9196   10.5175   -2.5596 H   0  0  0  0  0  0  0  0  0  0  0  0
  -13.4011   11.5333   -2.5596 H   0  0  0  0  0  0  0  0  0  0  0  0
  -15.7212    9.3712   -2.1052 H   0  0  0  0  0  0  0  0  0  0  0  0
  -14.7691   10.3872   -3.2401 H   0  0  0  0  0  0  0  0  0  0  0  0
  -14.5598    8.6031   -3.2401 H   0  0  0  0  0  0  0  0  0  0  0  0
  -11.4305    6.0700    1.6531 H   0  0  0  0  0  0  0  0  0  0  0  0
  -12.5974    5.9232    0.2953 H   0  0  0  0  0  0  0  0  0  0  0  0
  -11.0915    4.9439    0.2953 H   0  0  0  0  0  0  0  0  0  0  0  0
   -9.8136    8.1248    1.4320 H   0  0  0  0  0  0  0  0  0  0  0  0
   -9.1570    6.4345    1.0498 H   0  0  0  0  0  0  0  0  0  0  0  0
   -8.5561    9.0241   -0.4058 H   0  0  0  0  0  0  0  0  0  0  0  0
   -7.4385    7.9928    0.5716 H   0  0  0  0  0  0  0  0  0  0  0  0
   -7.5523    5.7051    0.2396 H   0  0  0  0  0  0  0  0  0  0  0  0
   -8.2807    4.9956   -1.2412 H   0  0  0  0  0  0  0  0  0  0  0  0
   -6.5565    5.4993   -1.2412 H   0  0  0  0  0  0  0  0  0  0  0  0
  1  2  1  0
  2  3  1  0
  3  4  1  0
  4  5  1  0
  5  6  1  0
  6  7  1  0
  7  8  1  0
  7  9  1  0
  2 10  1  0
 10 11  1  0
 11 12  1  0
 12 13  1  0
 13 14  1  6
 13 15  1  0
 15 16  1  0
 16 17  1  0
 17 18  2  0
 18 19  1  0
 19 20  1  0
 20 21  1  0
 21 22  1  0
 22 23  1  0
 22 24  1  0
 24 25  1  0
 24 26  1  0
 19 27  1  0
 27 28  1  1
 27 29  1  0
 29 30  1  0
 30 31  1  0
 31 32  1  1
  7  5  1  0
 31 10  1  0
 31 13  1  0
 27 15  1  0
 24 18  1  0
  1 33  1  0
  1 34  1  0
  1 35  1  0
  2 36  1  6
  3 37  1  0
  3 38  1  0
  4 39  1  0
  4 40  1  0
  5 41  1  6
  8 42  1  0
  8 43  1  0
  8 44  1  0
  9 45  1  0
  9 46  1  0
  9 47  1  0
 10 48  1  6
 11 49  1  0
 11 50  1  0
 12 51  1  0
 12 52  1  0
 14 53  1  0
 14 54  1  0
 14 55  1  0
 15 56  1  1
 16 57  1  0
 16 58  1  0
 17 59  1  0
 19 60  1  6
 20 61  1  0
 20 62  1  0
 21 63  1  0
 21 64  1  0
 22 65  1  6
 23 66  1  0
 25 67  1  0
 25 68  1  0
 25 69  1  0
 26 70  1  0
 26 71  1  0
 26 72  1  0
 28 73  1  0
 28 74  1  0
 28 75  1  0
 29 76  1  0
 29 77  1  0
 30 78  1  0
 30 79  1  0
 32 80  1  0
 32 81  1  0
 32 82  1  0
M  END
>  <meeko>  (12) 
{"is_sidechain": [false], "intermolecular_energy": 2.731, "internal_energy": -0.839}

$$$$
EPH_relaxed_0001_pdb2pqr_Repair_411_r2_0001_out
     RDKit          3D

 82 86  0  0  0  0  0  0  0  0999 V2000
    1.9750   16.2610   -2.1280 C   0  0  0  0  0  0  0  0  0  0  0  0
    0.5910   16.2050   -1.4770 C   0  0  2  0  0  0  0  0  0  0  0  0
    0.3150   17.4370   -0.5910 C   0  0  0  0  0  0  0  0  0  0  0  0
    1.0240   18.7080   -1.0670 C   0  0  0  0  0  0  0  0  0  0  0  0
    1.5740   19.4980    0.0820 C   0  0  2  0  0  0  0  0  0  0  0  0
    2.7950   20.1940   -0.2000 O   0  0  0  0  0  0  0  0  0  0  0  0
    2.8720   19.1540    0.7890 C   0  0  0  0  0  0  0  0  0  0  0  0
    3.6990   17.9790    0.3730 C   0  0  0  0  0  0  0  0  0  0  0  0
    3.0840   19.6620    2.1810 C   0  0  0  0  0  0  0  0  0  0  0  0
    0.4550   14.9300   -0.6520 C   0  0  1  0  0  0  0  0  0  0  0  0
   -1.0240   14.5580   -0.3650 C   0  0  0  0  0  0  0  0  0  0  0  0
   -1.1060   13.0100   -0.3740 C   0  0  0  0  0  0  0  0  0  0  0  0
    0.3670   12.5410   -0.3330 C   0  0  1  0  0  0  0  0  0  0  0  0
    0.7770   12.6370    1.1700 C   0  0  0  0  0  0  0  0  0  0  0  0
    0.6570   11.1220   -0.9210 C   0  0  2  0  0  0  0  0  0  0  0  0
   -0.0350    9.9590   -0.1900 C   0  0  0  0  0  0  0  0  0  0  0  0
    0.7490    9.3490    0.9250 C   0  0  0  0  0  0  0  0  0  0  0  0
    2.0650    9.5250    1.1430 C   0  0  0  0  0  0  0  0  0  0  0  0
    2.9260   10.3300    0.1600 C   0  0  1  0  0  0  0  0  0  0  0  0
    4.2350    9.5530   -0.1390 C   0  0  0  0  0  0  0  0  0  0  0  0
    4.9950    9.1770    1.1300 C   0  0  0  0  0  0  0  0  0  0  0  0
    4.1260    8.3280    2.0550 C   0  0  2  0  0  0  0  0  0  0  0  0
    3.8790    7.0670    1.4260 O   0  0  0  0  0  0  0  0  0  0  0  0
    2.7750    9.0050    2.4180 C   0  0  0  0  0  0  0  0  0  0  0  0
    3.0320   10.2100    3.3560 C   0  0  0  0  0  0  0  0  0  0  0  0
    1.9360    7.9880    3.2370 C   0  0  0  0  0  0  0  0  0  0  0  0
    2.1920   10.8210   -1.1610 C   0  0  1  0  0  0  0  0  0  0  0  0
    2.2630    9.7110   -2.2540 C   0  0  0  0  0  0  0  0  0  0  0  0
    2.9620   12.0660   -1.7440 C   0  0  0  0  0  0  0  0  0  0  0  0
    2.5470   13.4510   -1.2100 C   0  0  0  0  0  0  0  0  0  0  0  0
    1.0260   13.6250   -1.2620 C   0  0  2  0  0  0  0  0  0  0  0  0
    0.5870   13.5550   -2.7640 C   0  0  0  0  0  0  0  0  0  0  0  0
    2.7473   16.2923   -1.3454 H   0  0  0  0  0  0  0  0  0  0  0  0
    2.1225   15.3681   -2.7533 H   0  0  0  0  0  0  0  0  0  0  0  0
    2.0499   17.1629   -2.7533 H   0  0  0  0  0  0  0  0  0  0  0  0
   -0.1545   16.2060   -2.2858 H   0  0  0  0  0  0  0  0  0  0  0  0
   -0.7688   17.6251   -0.5854 H   0  0  0  0  0  0  0  0  0  0  0  0
    0.7058   17.2067    0.4111 H   0  0  0  0  0  0  0  0  0  0  0  0
    1.8515   18.4261   -1.7346 H   0  0  0  0  0  0  0  0  0  0  0  0
    0.2891   19.3344   -1.5939 H   0  0  0  0  0  0  0  0  0  0  0  0
    0.5604   19.7008    0.4582 H   0  0  0  0  0  0  0  0  0  0  0  0
    4.0677   17.4551    1.2672 H   0  0  0  0  0  0  0  0  0  0  0  0
    3.0842   17.2920   -0.2271 H   0  0  0  0  0  0  0  0  0  0  0  0
    4.5532   18.3258   -0.2271 H   0  0  0  0  0  0  0  0  0  0  0  0
    2.7645   18.8964    2.9033 H   0  0  0  0  0  0  0  0  0  0  0  0
    4.1505   19.8855    2.3313 H   0  0  0  0  0  0  0  0  0  0  0  0
    2.4928   20.5774    2.3313 H   0  0  0  0  0  0  0  0  0  0  0  0
    1.0399   15.2201    0.2333 H   0  0  0  0  0  0  0  0  0  0  0  0
   -1.3288   14.9477    0.6175 H   0  0  0  0  0  0  0  0  0  0  0  0
   -1.6944   14.9933   -1.1207 H   0  0  0  0  0  0  0  0  0  0  0  0
   -1.6544   12.6451    0.5070 H   0  0  0  0  0  0  0  0  0  0  0  0
   -1.6417   12.6258   -1.2546 H   0  0  0  0  0  0  0  0  0  0  0  0
   -0.0990   12.4319    1.8029 H   0  0  0  0  0  0  0  0  0  0  0  0
    1.5642   11.8989    1.3832 H   0  0  0  0  0  0  0  0  0  0  0  0
    1.1547   13.6479    1.3832 H   0  0  0  0  0  0  0  0  0  0  0  0
    0.1831   11.1766   -1.9122 H   0  0  0  0  0  0  0  0  0  0  0  0
   -0.9817   10.3343    0.2259 H   0  0  0  0  0  0  0  0  0  0  0  0
   -0.1669    9.1644   -0.9392 H   0  0  0  0  0  0  0  0  0  0  0  0
    0.2045    8.7009    1.6276 H   0  0  0  0  0  0  0  0  0  0  0  0
    3.1628   11.2770    0.6671 H   0  0  0  0  0  0  0  0  0  0  0  0
    3.9816    8.6319   -0.6843 H   0  0  0  0  0  0  0  0  0  0  0  0
    4.8849   10.2105   -0.7351 H   0  0  0  0  0  0  0  0  0  0  0  0
    5.8938    8.6053    0.8554 H   0  0  0  0  0  0  0  0  0  0  0  0
    5.2733   10.1003    1.6592 H   0  0  0  0  0  0  0  0  0  0  0  0
    4.6758    8.1998    2.9991 H   0  0  0  0  0  0  0  0  0  0  0  0
    3.4310    6.4980    2.0750 H   0  0  0  0  0  0  0  0  0  0  0  0
    2.9618    9.8809    4.4033 H   0  0  0  0  0  0  0  0  0  0  0  0
    4.0368   10.6152    3.1655 H   0  0  0  0  0  0  0  0  0  0  0  0
    2.2800   10.9899    3.1655 H   0  0  0  0  0  0  0  0  0  0  0  0
    2.0860    8.1699    4.3114 H   0  0  0  0  0  0  0  0  0  0  0  0
    0.8709    8.1082    2.9900 H   0  0  0  0  0  0  0  0  0  0  0  0
    2.2565    6.9651    2.9900 H   0  0  0  0  0  0  0  0  0  0  0  0
    2.3261    8.7246   -1.7713 H   0  0  0  0  0  0  0  0  0  0  0  0
    1.3602    9.7554   -2.8809 H   0  0  0  0  0  0  0  0  0  0  0  0
    3.1528    9.8700   -2.8809 H   0  0  0  0  0  0  0  0  0  0  0  0
    4.0308   11.9302   -1.5222 H   0  0  0  0  0  0  0  0  0  0  0  0
    2.7126   12.0835   -2.8152 H   0  0  0  0  0  0  0  0  0  0  0  0
    2.8853   13.5512   -0.1681 H   0  0  0  0  0  0  0  0  0  0  0  0
    3.0104   14.2237   -1.8411 H   0  0  0  0  0  0  0  0  0  0  0  0
   -0.4978   13.3820   -2.8213 H   0  0  0  0  0  0  0  0  0  0  0  0
    0.8338   14.5038   -3.2628 H   0  0  0  0  0  0  0  0  0  0  0  0
    1.1167   12.7300   -3.2628 H   0  0  0  0  0  0  0  0  0  0  0  0
  1  2  1  0
  2  3  1  0
  3  4  1  0
  4  5  1  0
  5  6  1  0
  6  7  1  0
  7  8  1  0
  7  9  1  0
  2 10  1  0
 10 11  1  0
 11 12  1  0
 12 13  1  0
 13 14  1  1
 13 15  1  0
 15 16  1  0
 16 17  1  0
 17 18  2  0
 18 19  1  0
 19 20  1  0
 20 21  1  0
 21 22  1  0
 22 23  1  0
 22 24  1  0
 24 25  1  0
 24 26  1  0
 19 27  1  0
 27 28  1  6
 27 29  1  0
 29 30  1  0
 30 31  1  0
 31 32  1  6
  7  5  1  0
 31 10  1  0
 31 13  1  0
 27 15  1  0
 24 18  1  0
  1 33  1  0
  1 34  1  0
  1 35  1  0
  2 36  1  6
  3 37  1  0
  3 38  1  0
  4 39  1  0
  4 40  1  0
  5 41  1  1
  8 42  1  0
  8 43  1  0
  8 44  1  0
  9 45  1  0
  9 46  1  0
  9 47  1  0
 10 48  1  1
 11 49  1  0
 11 50  1  0
 12 51  1  0
 12 52  1  0
 14 53  1  0
 14 54  1  0
 14 55  1  0
 15 56  1  6
 16 57  1  0
 16 58  1  0
 17 59  1  0
 19 60  1  1
 20 61  1  0
 20 62  1  0
 21 63  1  0
 21 64  1  0
 22 65  1  1
 23 66  1  0
 25 67  1  0
 25 68  1  0
 25 69  1  0
 26 70  1  0
 26 71  1  0
 26 72  1  0
 28 73  1  0
 28 74  1  0
 28 75  1  0
 29 76  1  0
 29 77  1  0
 30 78  1  0
 30 79  1  0
 32 80  1  0
 32 81  1  0
 32 82  1  0
M  END
>  <meeko>  (13) 
{"is_sidechain": [false], "intermolecular_energy": 2.731, "internal_energy": -0.839}

$$$$
EPH_relaxed_0001_pdb2pqr_Repair_411_r2_0001_out
     RDKit          3D

 82 86  0  0  0  0  0  0  0  0999 V2000
    2.1730   12.7230   -5.4270 C   0  0  0  0  0  0  0  0  0  0  0  0
    0.8670   13.4200   -5.0370 C   0  0  2  0  0  0  0  0  0  0  0  0
    0.8850   14.9230   -5.3830 C   0  0  0  0  0  0  0  0  0  0  0  0
    0.3790   15.8210   -4.2510 C   0  0  0  0  0  0  0  0  0  0  0  0
    1.5010   16.2980   -3.3780 C   0  0  2  0  0  0  0  0  0  0  0  0
    1.2630   16.1640   -1.9710 O   0  0  0  0  0  0  0  0  0  0  0  0
    1.3960   17.5060   -2.4660 C   0  0  0  0  0  0  0  0  0  0  0  0
    0.1380   18.3130   -2.3820 C   0  0  0  0  0  0  0  0  0  0  0  0
    2.6560   18.1870   -2.0330 C   0  0  0  0  0  0  0  0  0  0  0  0
    0.6020   13.2320   -3.5480 C   0  0  1  0  0  0  0  0  0  0  0  0
   -0.8370   13.6490   -3.1400 C   0  0  0  0  0  0  0  0  0  0  0  0
   -1.2800   12.6810   -2.0130 C   0  0  0  0  0  0  0  0  0  0  0  0
    0.0190   11.9620   -1.5820 C   0  0  1  0  0  0  0  0  0  0  0  0
    0.7300   12.9610   -0.6170 C   0  0  0  0  0  0  0  0  0  0  0  0
   -0.1550   10.5520   -0.9290 C   0  0  2  0  0  0  0  0  0  0  0  0
   -0.9430   10.5390    0.3930 C   0  0  0  0  0  0  0  0  0  0  0  0
   -0.1200   10.7000    1.6280 C   0  0  0  0  0  0  0  0  0  0  0  0
    1.2170   10.5640    1.7000 C   0  0  0  0  0  0  0  0  0  0  0  0
    2.0310   10.1200    0.4770 C   0  0  1  0  0  0  0  0  0  0  0  0
    3.0350    9.0140    0.8970 C   0  0  0  0  0  0  0  0  0  0  0  0
    3.9200    9.4400    2.0640 C   0  0  0  0  0  0  0  0  0  0  0  0
    3.0770    9.8180    3.2790 C   0  0  2  0  0  0  0  0  0  0  0  0
    2.4210    8.6450    3.7670 O   0  0  0  0  0  0  0  0  0  0  0  0
    2.0230   10.9190    2.9740 C   0  0  0  0  0  0  0  0  0  0  0  0
    2.7360   12.2730    2.7380 C   0  0  0  0  0  0  0  0  0  0  0  0
    1.1470   11.1050    4.2430 C   0  0  0  0  0  0  0  0  0  0  0  0
    1.1870    9.7220   -0.8100 C   0  0  1  0  0  0  0  0  0  0  0  0
    0.7770    8.2200   -0.7330 C   0  0  0  0  0  0  0  0  0  0  0  0
    2.0970    9.8700   -2.0860 C   0  0  0  0  0  0  0  0  0  0  0  0
    2.1340   11.2560   -2.7570 C   0  0  0  0  0  0  0  0  0  0  0  0
    0.7170   11.7950   -2.9810 C   0  0  2  0  0  0  0  0  0  0  0  0
   -0.0140   10.8210   -3.9670 C   0  0  0  0  0  0  0  0  0  0  0  0
    2.7189   12.4317   -4.5175 H   0  0  0  0  0  0  0  0  0  0  0  0
    1.9464   11.8259   -6.0218 H   0  0  0  0  0  0  0  0  0  0  0  0
    2.7921   13.4106   -6.0218 H   0  0  0  0  0  0  0  0  0  0  0  0
    0.0577   12.9564   -5.6202 H   0  0  0  0  0  0  0  0  0  0  0  0
    1.9194   15.2125   -5.6200 H   0  0  0  0  0  0  0  0  0  0  0  0
    0.2039   15.0650   -6.2350 H   0  0  0  0  0  0  0  0  0  0  0  0
   -0.1285   16.6937   -4.6880 H   0  0  0  0  0  0  0  0  0  0  0  0
   -0.3127   15.2330   -3.6299 H   0  0  0  0  0  0  0  0  0  0  0  0
    2.2447   16.0072   -4.1346 H   0  0  0  0  0  0  0  0  0  0  0  0
   -0.1212   18.4792   -1.3260 H   0  0  0  0  0  0  0  0  0  0  0  0
    0.2903   19.2823   -2.8792 H   0  0  0  0  0  0  0  0  0  0  0  0
   -0.6796   17.7704   -2.8792 H   0  0  0  0  0  0  0  0  0  0  0  0
    2.7007   18.2112   -0.9342 H   0  0  0  0  0  0  0  0  0  0  0  0
    3.5238   17.6351   -2.4233 H   0  0  0  0  0  0  0  0  0  0  0  0
    2.6697   19.2154   -2.4233 H   0  0  0  0  0  0  0  0  0  0  0  0
    1.4029   13.8642   -3.1370 H   0  0  0  0  0  0  0  0  0  0  0  0
   -0.8412   14.6857   -2.7724 H   0  0  0  0  0  0  0  0  0  0  0  0
   -1.5223   13.5957   -3.9988 H   0  0  0  0  0  0  0  0  0  0  0  0
   -1.7128   13.2392   -1.1697 H   0  0  0  0  0  0  0  0  0  0  0  0
   -2.0544   11.9761   -2.3496 H   0  0  0  0  0  0  0  0  0  0  0  0
    0.5252   12.6732    0.4247 H   0  0  0  0  0  0  0  0  0  0  0  0
    1.8148   12.9362   -0.7977 H   0  0  0  0  0  0  0  0  0  0  0  0
    0.3513   13.9778   -0.7977 H   0  0  0  0  0  0  0  0  0  0  0  0
   -0.7887   10.0295   -1.6607 H   0  0  0  0  0  0  0  0  0  0  0  0
   -1.6730   11.3612    0.3616 H   0  0  0  0  0  0  0  0  0  0  0  0
   -1.4040    9.5427    0.4625 H   0  0  0  0  0  0  0  0  0  0  0  0
   -0.6513   10.9510    2.5579 H   0  0  0  0  0  0  0  0  0  0  0  0
    2.5787   11.0109    0.1360 H   0  0  0  0  0  0  0  0  0  0  0  0
    2.4694    8.1179    1.1922 H   0  0  0  0  0  0  0  0  0  0  0  0
    3.6905    8.8138    0.0366 H   0  0  0  0  0  0  0  0  0  0  0  0
    4.5862    8.6071    2.3332 H   0  0  0  0  0  0  0  0  0  0  0  0
    4.5067   10.3184    1.7570 H   0  0  0  0  0  0  0  0  0  0  0  0
    3.7568   10.2363    4.0359 H   0  0  0  0  0  0  0  0  0  0  0  0
    3.0970    7.9550    3.8800 H   0  0  0  0  0  0  0  0  0  0  0  0
    2.9785   12.7335    3.7071 H   0  0  0  0  0  0  0  0  0  0  0  0
    3.6627   12.1052    2.1696 H   0  0  0  0  0  0  0  0  0  0  0  0
    2.0733   12.9422    2.1696 H   0  0  0  0  0  0  0  0  0  0  0  0
    1.7691   10.9729    5.1405 H   0  0  0  0  0  0  0  0  0  0  0  0
    0.7123   12.1155    4.2436 H   0  0  0  0  0  0  0  0  0  0  0  0
    0.3392   10.3583    4.2436 H   0  0  0  0  0  0  0  0  0  0  0  0
    0.6941    7.9161    0.3209 H   0  0  0  0  0  0  0  0  0  0  0  0
   -0.1926    8.0785   -1.2328 H   0  0  0  0  0  0  0  0  0  0  0  0
    1.5403    7.6055   -1.2328 H   0  0  0  0  0  0  0  0  0  0  0  0
    3.1259    9.6153   -1.7920 H   0  0  0  0  0  0  0  0  0  0  0  0
    1.6517    9.1995   -2.8358 H   0  0  0  0  0  0  0  0  0  0  0  0
    2.6865   11.9540   -2.1108 H   0  0  0  0  0  0  0  0  0  0  0  0
    2.6311   11.1597   -3.7335 H   0  0  0  0  0  0  0  0  0  0  0  0
   -0.5768   10.0711   -3.3917 H   0  0  0  0  0  0  0  0  0  0  0  0
   -0.7075   11.3932   -4.6007 H   0  0  0  0  0  0  0  0  0  0  0  0
    0.7291   10.3149   -4.6007 H   0  0  0  0  0  0  0  0  0  0  0  0
  1  2  1  0
  2  3  1  0
  3  4  1  0
  4  5  1  0
  5  6  1  0
  6  7  1  0
  7  8  1  0
  7  9  1  0
  2 10  1  0
 10 11  1  0
 11 12  1  0
 12 13  1  0
 13 14  1  1
 13 15  1  0
 15 16  1  0
 16 17  1  0
 17 18  2  0
 18 19  1  0
 19 20  1  0
 20 21  1  0
 21 22  1  0
 22 23  1  0
 22 24  1  0
 24 25  1  0
 24 26  1  0
 19 27  1  0
 27 28  1  1
 27 29  1  0
 29 30  1  0
 30 31  1  0
 31 32  1  6
  7  5  1  0
 31 10  1  0
 31 13  1  0
 27 15  1  0
 24 18  1  0
  1 33  1  0
  1 34  1  0
  1 35  1  0
  2 36  1  6
  3 37  1  0
  3 38  1  0
  4 39  1  0
  4 40  1  0
  5 41  1  6
  8 42  1  0
  8 43  1  0
  8 44  1  0
  9 45  1  0
  9 46  1  0
  9 47  1  0
 10 48  1  1
 11 49  1  0
 11 50  1  0
 12 51  1  0
 12 52  1  0
 14 53  1  0
 14 54  1  0
 14 55  1  0
 15 56  1  6
 16 57  1  0
 16 58  1  0
 17 59  1  0
 19 60  1  6
 20 61  1  0
 20 62  1  0
 21 63  1  0
 21 64  1  0
 22 65  1  1
 23 66  1  0
 25 67  1  0
 25 68  1  0
 25 69  1  0
 26 70  1  0
 26 71  1  0
 26 72  1  0
 28 73  1  0
 28 74  1  0
 28 75  1  0
 29 76  1  0
 29 77  1  0
 30 78  1  0
 30 79  1  0
 32 80  1  0
 32 81  1  0
 32 82  1  0
M  END
>  <meeko>  (14) 
{"is_sidechain": [false], "intermolecular_energy": 2.731, "internal_energy": -0.839}

$$$$
EPH_relaxed_0001_pdb2pqr_Repair_411_r2_0001_out
     RDKit          3D

 82 86  0  0  0  0  0  0  0  0999 V2000
    0.0740   10.5040   -3.8350 C   0  0  0  0  0  0  0  0  0  0  0  0
    1.1180   10.2840   -2.7370 C   0  0  2  0  0  0  0  0  0  0  0  0
    0.8430    9.0060   -1.9200 C   0  0  0  0  0  0  0  0  0  0  0  0
    0.2660    9.2780   -0.5280 C   0  0  0  0  0  0  0  0  0  0  0  0
   -1.1560    8.8160   -0.4170 C   0  0  2  0  0  0  0  0  0  0  0  0
   -1.8890    8.8360   -1.6490 O   0  0  0  0  0  0  0  0  0  0  0  0
   -2.3500    9.7290   -0.6220 C   0  0  0  0  0  0  0  0  0  0  0  0
   -2.1770   11.1780   -0.9540 C   0  0  0  0  0  0  0  0  0  0  0  0
   -3.6640    9.3340   -0.0240 C   0  0  0  0  0  0  0  0  0  0  0  0
    1.1610   11.4950   -1.8120 C   0  0  1  0  0  0  0  0  0  0  0  0
    2.2280   11.3540   -0.6930 C   0  0  0  0  0  0  0  0  0  0  0  0
    2.7980   12.7730   -0.4380 C   0  0  0  0  0  0  0  0  0  0  0  0
    1.8220   13.7240   -1.1690 C   0  0  1  0  0  0  0  0  0  0  0  0
    0.6190   13.8940   -0.1890 C   0  0  0  0  0  0  0  0  0  0  0  0
    2.4040   15.1050   -1.6140 C   0  0  2  0  0  0  0  0  0  0  0  0
    2.8830   16.0110   -0.4660 C   0  0  0  0  0  0  0  0  0  0  0  0
    1.8520   16.9400    0.0850 C   0  0  0  0  0  0  0  0  0  0  0  0
    0.6810   17.2470   -0.5040 C   0  0  0  0  0  0  0  0  0  0  0  0
    0.3380   16.7140   -1.9010 C   0  0  1  0  0  0  0  0  0  0  0  0
   -0.2190   17.8690   -2.7730 C   0  0  0  0  0  0  0  0  0  0  0  0
   -1.3960   18.5830   -2.1160 C   0  0  0  0  0  0  0  0  0  0  0  0
   -1.0000   19.1500   -0.7550 C   0  0  2  0  0  0  0  0  0  0  0  0
   -0.0420   20.1940   -0.9520 O   0  0  0  0  0  0  0  0  0  0  0  0
   -0.4150   18.0790    0.2070 C   0  0  0  0  0  0  0  0  0  0  0  0
   -1.5390   17.1150    0.6590 C   0  0  0  0  0  0  0  0  0  0  0  0
    0.0750   18.8060    1.4890 C   0  0  0  0  0  0  0  0  0  0  0  0
    1.4880   15.8970   -2.6320 C   0  0  1  0  0  0  0  0  0  0  0  0
    2.4250   16.8740   -3.4070 C   0  0  0  0  0  0  0  0  0  0  0  0
    0.8400   14.9530   -3.7130 C   0  0  0  0  0  0  0  0  0  0  0  0
    0.3940   13.5570   -3.2380 C   0  0  0  0  0  0  0  0  0  0  0  0
    1.5080   12.8640   -2.4480 C   0  0  2  0  0  0  0  0  0  0  0  0
    2.7240   12.6590   -3.4140 C   0  0  0  0  0  0  0  0  0  0  0  0
   -0.9038   10.7101   -3.3752 H   0  0  0  0  0  0  0  0  0  0  0  0
    0.3731   11.3588   -4.4593 H   0  0  0  0  0  0  0  0  0  0  0  0
    0.0027    9.6012   -4.4593 H   0  0  0  0  0  0  0  0  0  0  0  0
    2.0935   10.1562   -3.2289 H   0  0  0  0  0  0  0  0  0  0  0  0
    0.1267    8.3847   -2.4776 H   0  0  0  0  0  0  0  0  0  0  0  0
    1.8103    8.5029   -1.7745 H   0  0  0  0  0  0  0  0  0  0  0  0
    0.8729    8.7463    0.2196 H   0  0  0  0  0  0  0  0  0  0  0  0
    0.2883   10.3639   -0.3538 H   0  0  0  0  0  0  0  0  0  0  0  0
   -0.8915    8.1176    0.3906 H   0  0  0  0  0  0  0  0  0  0  0  0
   -2.1073   11.7615   -0.0241 H   0  0  0  0  0  0  0  0  0  0  0  0
   -1.2564   11.3123   -1.5410 H   0  0  0  0  0  0  0  0  0  0  0  0
   -3.0401   11.5253   -1.5410 H   0  0  0  0  0  0  0  0  0  0  0  0
   -3.5891    9.3565    1.0732 H   0  0  0  0  0  0  0  0  0  0  0  0
   -4.4429   10.0377   -0.3529 H   0  0  0  0  0  0  0  0  0  0  0  0
   -3.9257    8.3175   -0.3529 H   0  0  0  0  0  0  0  0  0  0  0  0
    0.1183   11.4966   -1.4617 H   0  0  0  0  0  0  0  0  0  0  0  0
    1.7654   10.9610    0.2243 H   0  0  0  0  0  0  0  0  0  0  0  0
    3.0241   10.6561   -0.9917 H   0  0  0  0  0  0  0  0  0  0  0  0
    2.8214   12.9940    0.6393 H   0  0  0  0  0  0  0  0  0  0  0  0
    3.8315   12.8781   -0.7998 H   0  0  0  0  0  0  0  0  0  0  0  0
    0.9811   13.8428    0.8484 H   0  0  0  0  0  0  0  0  0  0  0  0
    0.1397   14.8688   -0.3624 H   0  0  0  0  0  0  0  0  0  0  0  0
   -0.1116   13.0902   -0.3624 H   0  0  0  0  0  0  0  0  0  0  0  0
    3.3114   14.8130   -2.1629 H   0  0  0  0  0  0  0  0  0  0  0  0
    3.2319   15.3656    0.3536 H   0  0  0  0  0  0  0  0  0  0  0  0
    3.6722   16.6490   -0.8904 H   0  0  0  0  0  0  0  0  0  0  0  0
    2.0675   17.4136    1.0542 H   0  0  0  0  0  0  0  0  0  0  0  0
   -0.4395   15.9500   -1.7533 H   0  0  0  0  0  0  0  0  0  0  0  0
    0.5849   18.5997   -2.9456 H   0  0  0  0  0  0  0  0  0  0  0  0
   -0.5782   17.4318   -3.7163 H   0  0  0  0  0  0  0  0  0  0  0  0
   -1.7262   19.4062   -2.7666 H   0  0  0  0  0  0  0  0  0  0  0  0
   -2.2098   17.8573   -1.9705 H   0  0  0  0  0  0  0  0  0  0  0  0
   -1.9139   19.5343   -0.2786 H   0  0  0  0  0  0  0  0  0  0  0  0
    0.8410   19.8180   -0.7960 H   0  0  0  0  0  0  0  0  0  0  0  0
   -1.5754   17.0838    1.7580 H   0  0  0  0  0  0  0  0  0  0  0  0
   -2.5048   17.4699    0.2701 H   0  0  0  0  0  0  0  0  0  0  0  0
   -1.3354   16.1064    0.2701 H   0  0  0  0  0  0  0  0  0  0  0  0
   -0.2878   18.2678    2.3771 H   0  0  0  0  0  0  0  0  0  0  0  0
    1.1747   18.8306    1.4989 H   0  0  0  0  0  0  0  0  0  0  0  0
   -0.3149   19.8345    1.4989 H   0  0  0  0  0  0  0  0  0  0  0  0
    3.0019   17.4755   -2.6891 H   0  0  0  0  0  0  0  0  0  0  0  0
    3.1151   16.2960   -4.0392 H   0  0  0  0  0  0  0  0  0  0  0  0
    1.8187   17.5394   -4.0392 H   0  0  0  0  0  0  0  0  0  0  0  0
   -0.0458   15.4664   -4.1152 H   0  0  0  0  0  0  0  0  0  0  0  0
    1.6374   14.7662   -4.4473 H   0  0  0  0  0  0  0  0  0  0  0  0
   -0.4917   13.6621   -2.5941 H   0  0  0  0  0  0  0  0  0  0  0  0
    0.1581   12.9452   -4.1212 H   0  0  0  0  0  0  0  0  0  0  0  0
    3.6393   12.5047   -2.8237 H   0  0  0  0  0  0  0  0  0  0  0  0
    2.5440   11.7785   -4.0483 H   0  0  0  0  0  0  0  0  0  0  0  0
    2.8426   13.5498   -4.0483 H   0  0  0  0  0  0  0  0  0  0  0  0
  1  2  1  0
  2  3  1  0
  3  4  1  0
  4  5  1  0
  5  6  1  0
  6  7  1  0
  7  8  1  0
  7  9  1  0
  2 10  1  0
 10 11  1  0
 11 12  1  0
 12 13  1  0
 13 14  1  1
 13 15  1  0
 15 16  1  0
 16 17  1  0
 17 18  2  0
 18 19  1  0
 19 20  1  0
 20 21  1  0
 21 22  1  0
 22 23  1  0
 22 24  1  0
 24 25  1  0
 24 26  1  0
 19 27  1  0
 27 28  1  6
 27 29  1  0
 29 30  1  0
 30 31  1  0
 31 32  1  6
  7  5  1  0
 31 10  1  0
 31 13  1  0
 27 15  1  0
 24 18  1  0
  1 33  1  0
  1 34  1  0
  1 35  1  0
  2 36  1  6
  3 37  1  0
  3 38  1  0
  4 39  1  0
  4 40  1  0
  5 41  1  1
  8 42  1  0
  8 43  1  0
  8 44  1  0
  9 45  1  0
  9 46  1  0
  9 47  1  0
 10 48  1  1
 11 49  1  0
 11 50  1  0
 12 51  1  0
 12 52  1  0
 14 53  1  0
 14 54  1  0
 14 55  1  0
 15 56  1  6
 16 57  1  0
 16 58  1  0
 17 59  1  0
 19 60  1  1
 20 61  1  0
 20 62  1  0
 21 63  1  0
 21 64  1  0
 22 65  1  1
 23 66  1  0
 25 67  1  0
 25 68  1  0
 25 69  1  0
 26 70  1  0
 26 71  1  0
 26 72  1  0
 28 73  1  0
 28 74  1  0
 28 75  1  0
 29 76  1  0
 29 77  1  0
 30 78  1  0
 30 79  1  0
 32 80  1  0
 32 81  1  0
 32 82  1  0
M  END
>  <meeko>  (15) 
{"is_sidechain": [false], "intermolecular_energy": 2.731, "internal_energy": -0.839}

$$$$
EPH_relaxed_0001_pdb2pqr_Repair_411_r2_0001_out
     RDKit          3D

 82 86  0  0  0  0  0  0  0  0999 V2000
    0.4340    8.8200   -2.3740 C   0  0  0  0  0  0  0  0  0  0  0  0
    1.1720    9.9630   -3.0780 C   0  0  2  0  0  0  0  0  0  0  0  0
    2.6740    9.9840   -2.7320 C   0  0  0  0  0  0  0  0  0  0  0  0
    3.5470   10.6170   -3.8190 C   0  0  0  0  0  0  0  0  0  0  0  0
    4.9460   10.8550   -3.3370 C   0  0  2  0  0  0  0  0  0  0  0  0
    5.5540   12.0540   -3.8340 O   0  0  0  0  0  0  0  0  0  0  0  0
    6.1610   10.8190   -4.2450 C   0  0  0  0  0  0  0  0  0  0  0  0
    6.0330   10.5350   -5.7090 C   0  0  0  0  0  0  0  0  0  0  0  0
    7.5050   10.5740   -3.6330 C   0  0  0  0  0  0  0  0  0  0  0  0
    0.5340   11.2980   -2.7100 C   0  0  1  0  0  0  0  0  0  0  0  0
   -0.8450   11.1300   -2.0170 C   0  0  0  0  0  0  0  0  0  0  0  0
   -0.9610   12.2690   -0.9710 C   0  0  0  0  0  0  0  0  0  0  0  0
    0.1910   13.2390   -1.3210 C   0  0  1  0  0  0  0  0  0  0  0  0
   -0.3540   14.1000   -2.5040 C   0  0  0  0  0  0  0  0  0  0  0  0
    0.7200   14.1330   -0.1520 C   0  0  2  0  0  0  0  0  0  0  0  0
   -0.3100   15.1110    0.4390 C   0  0  0  0  0  0  0  0  0  0  0  0
   -0.3500   16.4590   -0.2000 C   0  0  0  0  0  0  0  0  0  0  0  0
    0.5940   16.9680   -1.0130 C   0  0  0  0  0  0  0  0  0  0  0  0
    1.8950   16.2010   -1.2850 C   0  0  1  0  0  0  0  0  0  0  0  0
    3.1020   17.1660   -1.1510 C   0  0  0  0  0  0  0  0  0  0  0  0
    2.9610   18.4060   -2.0290 C   0  0  0  0  0  0  0  0  0  0  0  0
    1.6860   19.1720   -1.6880 C   0  0  2  0  0  0  0  0  0  0  0  0
    1.8100   19.7090   -0.3680 O   0  0  0  0  0  0  0  0  0  0  0  0
    0.4030   18.3000   -1.7800 C   0  0  0  0  0  0  0  0  0  0  0  0
    0.1040   17.9680   -3.2630 C   0  0  0  0  0  0  0  0  0  0  0  0
   -0.7920   19.1530   -1.2760 C   0  0  0  0  0  0  0  0  0  0  0  0
    2.0930   14.8570   -0.4610 C   0  0  1  0  0  0  0  0  0  0  0  0
    2.7500   15.1700    0.9180 C   0  0  0  0  0  0  0  0  0  0  0  0
    3.1010   13.9250   -1.2320 C   0  0  0  0  0  0  0  0  0  0  0  0
    2.5020   12.9790   -2.2900 C   0  0  0  0  0  0  0  0  0  0  0  0
    1.3070   12.2070   -1.7220 C   0  0  2  0  0  0  0  0  0  0  0  0
    1.8290   11.3150   -0.5450 C   0  0  0  0  0  0  0  0  0  0  0  0
    0.5159    8.9468   -1.2844 H   0  0  0  0  0  0  0  0  0  0  0  0
   -0.6264    8.8334   -2.6660 H   0  0  0  0  0  0  0  0  0  0  0  0
    0.8826    7.8590   -2.6660 H   0  0  0  0  0  0  0  0  0  0  0  0
    1.0851    9.7954   -4.1617 H   0  0  0  0  0  0  0  0  0  0  0  0
    2.8082   10.5559   -1.8020 H   0  0  0  0  0  0  0  0  0  0  0  0
    2.9953    8.9369   -2.6308 H   0  0  0  0  0  0  0  0  0  0  0  0
    3.5790    9.9432   -4.6879 H   0  0  0  0  0  0  0  0  0  0  0  0
    3.1074   11.5884   -4.0897 H   0  0  0  0  0  0  0  0  0  0  0  0
    4.7256   10.3606   -2.3794 H   0  0  0  0  0  0  0  0  0  0  0  0
    5.5848    9.5406   -5.8518 H   0  0  0  0  0  0  0  0  0  0  0  0
    5.3912   11.2969   -6.1756 H   0  0  0  0  0  0  0  0  0  0  0  0
    7.0289   10.5588   -6.1756 H   0  0  0  0  0  0  0  0  0  0  0  0
    7.4171   10.5900   -2.5366 H   0  0  0  0  0  0  0  0  0  0  0  0
    7.8817    9.5924   -3.9563 H   0  0  0  0  0  0  0  0  0  0  0  0
    8.2038   11.3596   -3.9563 H   0  0  0  0  0  0  0  0  0  0  0  0
    0.4996   11.7666   -3.7046 H   0  0  0  0  0  0  0  0  0  0  0  0
   -1.6539   11.2121   -2.7579 H   0  0  0  0  0  0  0  0  0  0  0  0
   -0.9290   10.1434   -1.5379 H   0  0  0  0  0  0  0  0  0  0  0  0
   -1.9339   12.7754   -1.0546 H   0  0  0  0  0  0  0  0  0  0  0  0
   -0.8927   11.8957    0.0615 H   0  0  0  0  0  0  0  0  0  0  0  0
   -0.9023   14.9661   -2.1050 H   0  0  0  0  0  0  0  0  0  0  0  0
    0.4870   14.4506   -3.1202 H   0  0  0  0  0  0  0  0  0  0  0  0
   -1.0307   13.4899   -3.1202 H   0  0  0  0  0  0  0  0  0  0  0  0
    0.9186   13.3947    0.6388 H   0  0  0  0  0  0  0  0  0  0  0  0
   -1.3068   14.6571    0.3372 H   0  0  0  0  0  0  0  0  0  0  0  0
   -0.0061   15.2784    1.4828 H   0  0  0  0  0  0  0  0  0  0  0  0
   -1.2256   17.0903    0.0115 H   0  0  0  0  0  0  0  0  0  0  0  0
    1.8223   15.8357   -2.3200 H   0  0  0  0  0  0  0  0  0  0  0  0
    3.1836   17.4847   -0.1014 H   0  0  0  0  0  0  0  0  0  0  0  0
    4.0006   16.6241   -1.4810 H   0  0  0  0  0  0  0  0  0  0  0  0
    3.8293   19.0619   -1.8681 H   0  0  0  0  0  0  0  0  0  0  0  0
    2.9096   18.0881   -3.0808 H   0  0  0  0  0  0  0  0  0  0  0  0
    1.5735   19.9729   -2.4335 H   0  0  0  0  0  0  0  0  0  0  0  0
    1.5490   19.0130    0.2590 H   0  0  0  0  0  0  0  0  0  0  0  0
   -0.6313   17.1515   -3.3149 H   0  0  0  0  0  0  0  0  0  0  0  0
   -0.3019   18.8594   -3.7637 H   0  0  0  0  0  0  0  0  0  0  0  0
    1.0329   17.6573   -3.7637 H   0  0  0  0  0  0  0  0  0  0  0  0
   -0.8002   19.1589   -0.1760 H   0  0  0  0  0  0  0  0  0  0  0  0
   -0.6895   20.1833   -1.6474 H   0  0  0  0  0  0  0  0  0  0  0  0
   -1.7331   18.7213   -1.6474 H   0  0  0  0  0  0  0  0  0  0  0  0
    2.0765   14.8491    1.7263 H   0  0  0  0  0  0  0  0  0  0  0  0
    3.7048   14.6300    1.0003 H   0  0  0  0  0  0  0  0  0  0  0  0
    2.9322   16.2517    1.0003 H   0  0  0  0  0  0  0  0  0  0  0  0
    3.8311   14.5724   -1.7397 H   0  0  0  0  0  0  0  0  0  0  0  0
    3.5274   13.2639   -0.4632 H   0  0  0  0  0  0  0  0  0  0  0  0
    2.1693   13.5713   -3.1551 H   0  0  0  0  0  0  0  0  0  0  0  0
    3.2746   12.2566   -2.5919 H   0  0  0  0  0  0  0  0  0  0  0  0
    1.5576   11.7788    0.4148 H   0  0  0  0  0  0  0  0  0  0  0  0
    1.3728   10.3163   -0.6116 H   0  0  0  0  0  0  0  0  0  0  0  0
    2.9232   11.2235   -0.6116 H   0  0  0  0  0  0  0  0  0  0  0  0
  1  2  1  0
  2  3  1  0
  3  4  1  0
  4  5  1  0
  5  6  1  0
  6  7  1  0
  7  8  1  0
  7  9  1  0
  2 10  1  0
 10 11  1  0
 11 12  1  0
 12 13  1  0
 13 14  1  6
 13 15  1  0
 15 16  1  0
 16 17  1  0
 17 18  2  0
 18 19  1  0
 19 20  1  0
 20 21  1  0
 21 22  1  0
 22 23  1  0
 22 24  1  0
 24 25  1  0
 24 26  1  0
 19 27  1  0
 27 28  1  1
 27 29  1  0
 29 30  1  0
 30 31  1  0
 31 32  1  1
  7  5  1  0
 31 10  1  0
 31 13  1  0
 27 15  1  0
 24 18  1  0
  1 33  1  0
  1 34  1  0
  1 35  1  0
  2 36  1  6
  3 37  1  0
  3 38  1  0
  4 39  1  0
  4 40  1  0
  5 41  1  1
  8 42  1  0
  8 43  1  0
  8 44  1  0
  9 45  1  0
  9 46  1  0
  9 47  1  0
 10 48  1  6
 11 49  1  0
 11 50  1  0
 12 51  1  0
 12 52  1  0
 14 53  1  0
 14 54  1  0
 14 55  1  0
 15 56  1  1
 16 57  1  0
 16 58  1  0
 17 59  1  0
 19 60  1  6
 20 61  1  0
 20 62  1  0
 21 63  1  0
 21 64  1  0
 22 65  1  6
 23 66  1  0
 25 67  1  0
 25 68  1  0
 25 69  1  0
 26 70  1  0
 26 71  1  0
 26 72  1  0
 28 73  1  0
 28 74  1  0
 28 75  1  0
 29 76  1  0
 29 77  1  0
 30 78  1  0
 30 79  1  0
 32 80  1  0
 32 81  1  0
 32 82  1  0
M  END
>  <meeko>  (16) 
{"is_sidechain": [false], "intermolecular_energy": 2.731, "internal_energy": -0.839}

$$$$
EPH_relaxed_0001_pdb2pqr_Repair_411_r2_0001_out
     RDKit          3D

 82 86  0  0  0  0  0  0  0  0999 V2000
    3.3350   18.3380   -3.0730 C   0  0  0  0  0  0  0  0  0  0  0  0
    2.0560   17.4970   -3.0940 C   0  0  2  0  0  0  0  0  0  0  0  0
    0.8220   18.3070   -2.6480 C   0  0  0  0  0  0  0  0  0  0  0  0
    1.1660   19.6690   -2.0390 C   0  0  0  0  0  0  0  0  0  0  0  0
    1.2150   19.6100   -0.5420 C   0  0  2  0  0  0  0  0  0  0  0  0
    0.5430   18.4820    0.0350 O   0  0  0  0  0  0  0  0  0  0  0  0
   -0.0080   19.7730    0.3420 C   0  0  0  0  0  0  0  0  0  0  0  0
   -1.3660   20.0090   -0.2410 C   0  0  0  0  0  0  0  0  0  0  0  0
    0.1890   20.1900    1.7660 C   0  0  0  0  0  0  0  0  0  0  0  0
    2.2240   16.2720   -2.2030 C   0  0  1  0  0  0  0  0  0  0  0  0
    2.6590   16.6390   -0.7590 C   0  0  0  0  0  0  0  0  0  0  0  0
    1.9760   15.6180    0.1870 C   0  0  0  0  0  0  0  0  0  0  0  0
    1.4470   14.5090   -0.7530 C   0  0  1  0  0  0  0  0  0  0  0  0
    2.6850   13.6040   -1.0420 C   0  0  0  0  0  0  0  0  0  0  0  0
    0.2330   13.6770   -0.2250 C   0  0  2  0  0  0  0  0  0  0  0  0
    0.5060   12.8650    1.0530 C   0  0  0  0  0  0  0  0  0  0  0  0
    1.0030   11.4750    0.8320 C   0  0  0  0  0  0  0  0  0  0  0  0
    0.9530   10.8020   -0.3330 C   0  0  0  0  0  0  0  0  0  0  0  0
    0.2630   11.4070   -1.5620 C   0  0  1  0  0  0  0  0  0  0  0  0
   -0.6580   10.3430   -2.2160 C   0  0  0  0  0  0  0  0  0  0  0  0
    0.0830    9.0490   -2.5390 C   0  0  0  0  0  0  0  0  0  0  0  0
    0.7050    8.4470   -1.2820 C   0  0  2  0  0  0  0  0  0  0  0  0
   -0.3430    8.0230   -0.4060 O   0  0  0  0  0  0  0  0  0  0  0  0
    1.6460    9.4320   -0.5330 C   0  0  0  0  0  0  0  0  0  0  0  0
    2.9340    9.6560   -1.3640 C   0  0  0  0  0  0  0  0  0  0  0  0
    2.0950    8.7520    0.7880 C   0  0  0  0  0  0  0  0  0  0  0  0
   -0.4770   12.7940   -1.3300 C   0  0  1  0  0  0  0  0  0  0  0  0
   -1.9330   12.5430   -0.8310 C   0  0  0  0  0  0  0  0  0  0  0  0
   -0.6030   13.5470   -2.7070 C   0  0  0  0  0  0  0  0  0  0  0  0
    0.5770   14.4480   -3.1170 C   0  0  0  0  0  0  0  0  0  0  0  0
    0.9760   15.3840   -1.9720 C   0  0  2  0  0  0  0  0  0  0  0  0
   -0.2420   16.3220   -1.6740 C   0  0  0  0  0  0  0  0  0  0  0  0
    3.6294   18.5316   -2.0310 H   0  0  0  0  0  0  0  0  0  0  0  0
    4.1407   17.7929   -3.5865 H   0  0  0  0  0  0  0  0  0  0  0  0
    3.1538   19.2938   -3.5865 H   0  0  0  0  0  0  0  0  0  0  0  0
    1.8857   17.1798   -4.1334 H   0  0  0  0  0  0  0  0  0  0  0  0
    0.1791   18.4714   -3.5253 H   0  0  0  0  0  0  0  0  0  0  0  0
    0.3203   17.7218   -1.8632 H   0  0  0  0  0  0  0  0  0  0  0  0
    2.1484   19.9901   -2.4155 H   0  0  0  0  0  0  0  0  0  0  0  0
    0.3806   20.3826   -2.3287 H   0  0  0  0  0  0  0  0  0  0  0  0
    2.2029   20.0936   -0.5315 H   0  0  0  0  0  0  0  0  0  0  0  0
   -2.0967   20.1360    0.5713 H   0  0  0  0  0  0  0  0  0  0  0  0
   -1.3459   20.9171   -0.8614 H   0  0  0  0  0  0  0  0  0  0  0  0
   -1.6535   19.1474   -0.8614 H   0  0  0  0  0  0  0  0  0  0  0  0
   -0.1842   19.4001    2.4344 H   0  0  0  0  0  0  0  0  0  0  0  0
    1.2601   20.3546    1.9551 H   0  0  0  0  0  0  0  0  0  0  0  0
   -0.3641   21.1218    1.9551 H   0  0  0  0  0  0  0  0  0  0  0  0
    2.9749   15.7203   -2.7876 H   0  0  0  0  0  0  0  0  0  0  0  0
    3.7528   16.5706   -0.6639 H   0  0  0  0  0  0  0  0  0  0  0  0
    2.3647   17.6686   -0.5075 H   0  0  0  0  0  0  0  0  0  0  0  0
    2.7021   15.2062    0.9034 H   0  0  0  0  0  0  0  0  0  0  0  0
    1.1743   16.0752    0.7856 H   0  0  0  0  0  0  0  0  0  0  0  0
    3.1309   13.2780   -0.0908 H   0  0  0  0  0  0  0  0  0  0  0  0
    2.3683   12.7230   -1.6195 H   0  0  0  0  0  0  0  0  0  0  0  0
    3.4284   14.1731   -1.6195 H   0  0  0  0  0  0  0  0  0  0  0  0
   -0.4822   14.4606    0.0655 H   0  0  0  0  0  0  0  0  0  0  0  0
    1.2599   13.4054    1.6443 H   0  0  0  0  0  0  0  0  0  0  0  0
   -0.4640   12.7637    1.5619 H   0  0  0  0  0  0  0  0  0  0  0  0
    1.4479   10.9565    1.6941 H   0  0  0  0  0  0  0  0  0  0  0  0
    1.0695   11.6813   -2.2579 H   0  0  0  0  0  0  0  0  0  0  0  0
   -1.4811   10.1147   -1.5229 H   0  0  0  0  0  0  0  0  0  0  0  0
   -1.0311   10.7602   -3.1630 H   0  0  0  0  0  0  0  0  0  0  0  0
   -0.6255    8.3269   -2.9711 H   0  0  0  0  0  0  0  0  0  0  0  0
    0.8873    9.2748   -3.2546 H   0  0  0  0  0  0  0  0  0  0  0  0
    1.3272    7.5962   -1.5968 H   0  0  0  0  0  0  0  0  0  0  0  0
    0.0610    7.4910    0.3000 H   0  0  0  0  0  0  0  0  0  0  0  0
    3.7870    9.8043   -0.6855 H   0  0  0  0  0  0  0  0  0  0  0  0
    3.1187    8.7765   -1.9983 H   0  0  0  0  0  0  0  0  0  0  0  0
    2.8109   10.5462   -1.9983 H   0  0  0  0  0  0  0  0  0  0  0  0
    1.7147    9.3279    1.6445 H   0  0  0  0  0  0  0  0  0  0  0  0
    1.6948    7.7282    0.8278 H   0  0  0  0  0  0  0  0  0  0  0  0
    3.1938    8.7180    0.8278 H   0  0  0  0  0  0  0  0  0  0  0  0
   -1.9483   12.5404    0.2689 H   0  0  0  0  0  0  0  0  0  0  0  0
   -2.5914   13.3409   -1.2050 H   0  0  0  0  0  0  0  0  0  0  0  0
   -2.2863   11.5707   -1.2050 H   0  0  0  0  0  0  0  0  0  0  0  0
   -0.7292   12.7865   -3.4917 H   0  0  0  0  0  0  0  0  0  0  0  0
   -1.4569   14.2295   -2.5844 H   0  0  0  0  0  0  0  0  0  0  0  0
    1.4375   13.8158   -3.3814 H   0  0  0  0  0  0  0  0  0  0  0  0
    0.2689   15.0590   -3.9782 H   0  0  0  0  0  0  0  0  0  0  0  0
   -0.3708   16.4212   -0.5861 H   0  0  0  0  0  0  0  0  0  0  0  0
   -0.0574   17.3134   -2.1133 H   0  0  0  0  0  0  0  0  0  0  0  0
   -1.1534   15.8903   -2.1133 H   0  0  0  0  0  0  0  0  0  0  0  0
  1  2  1  0
  2  3  1  0
  3  4  1  0
  4  5  1  0
  5  6  1  0
  6  7  1  0
  7  8  1  0
  7  9  1  0
  2 10  1  0
 10 11  1  0
 11 12  1  0
 12 13  1  0
 13 14  1  6
 13 15  1  0
 15 16  1  0
 16 17  1  0
 17 18  2  0
 18 19  1  0
 19 20  1  0
 20 21  1  0
 21 22  1  0
 22 23  1  0
 22 24  1  0
 24 25  1  0
 24 26  1  0
 19 27  1  0
 27 28  1  1
 27 29  1  0
 29 30  1  0
 30 31  1  0
 31 32  1  1
  7  5  1  0
 31 10  1  0
 31 13  1  0
 27 15  1  0
 24 18  1  0
  1 33  1  0
  1 34  1  0
  1 35  1  0
  2 36  1  6
  3 37  1  0
  3 38  1  0
  4 39  1  0
  4 40  1  0
  5 41  1  1
  8 42  1  0
  8 43  1  0
  8 44  1  0
  9 45  1  0
  9 46  1  0
  9 47  1  0
 10 48  1  6
 11 49  1  0
 11 50  1  0
 12 51  1  0
 12 52  1  0
 14 53  1  0
 14 54  1  0
 14 55  1  0
 15 56  1  1
 16 57  1  0
 16 58  1  0
 17 59  1  0
 19 60  1  6
 20 61  1  0
 20 62  1  0
 21 63  1  0
 21 64  1  0
 22 65  1  6
 23 66  1  0
 25 67  1  0
 25 68  1  0
 25 69  1  0
 26 70  1  0
 26 71  1  0
 26 72  1  0
 28 73  1  0
 28 74  1  0
 28 75  1  0
 29 76  1  0
 29 77  1  0
 30 78  1  0
 30 79  1  0
 32 80  1  0
 32 81  1  0
 32 82  1  0
M  END
>  <meeko>  (17) 
{"is_sidechain": [false], "intermolecular_energy": 2.731, "internal_energy": -0.839}

$$$$
EPH_relaxed_0001_pdb2pqr_Repair_411_r2_0001_out
     RDKit          3D

 82 86  0  0  0  0  0  0  0  0999 V2000
    3.5580   17.8480    0.7070 C   0  0  0  0  0  0  0  0  0  0  0  0
    2.8930   17.5170   -0.6320 C   0  0  2  0  0  0  0  0  0  0  0  0
    2.2050   18.7460   -1.2580 C   0  0  0  0  0  0  0  0  0  0  0  0
    1.9300   19.8730   -0.2590 C   0  0  0  0  0  0  0  0  0  0  0  0
    0.5650   19.7540    0.3500 C   0  0  2  0  0  0  0  0  0  0  0  0
   -0.1570   18.5740   -0.0260 O   0  0  0  0  0  0  0  0  0  0  0  0
   -0.7190   19.8250   -0.4560 C   0  0  0  0  0  0  0  0  0  0  0  0
   -0.7000   20.0230   -1.9390 C   0  0  0  0  0  0  0  0  0  0  0  0
   -1.9870   20.1900    0.2500 C   0  0  0  0  0  0  0  0  0  0  0  0
    1.8810   16.3920   -0.4460 C   0  0  1  0  0  0  0  0  0  0  0  0
    0.4290   16.9150   -0.2890 C   0  0  0  0  0  0  0  0  0  0  0  0
   -0.4970   15.8750   -0.9730 C   0  0  0  0  0  0  0  0  0  0  0  0
    0.4060   14.6410   -1.2040 C   0  0  1  0  0  0  0  0  0  0  0  0
    0.4330   13.9010    0.1700 C   0  0  0  0  0  0  0  0  0  0  0  0
   -0.0150   13.6850   -2.3670 C   0  0  2  0  0  0  0  0  0  0  0  0
   -1.3860   13.0090   -2.1920 C   0  0  0  0  0  0  0  0  0  0  0  0
   -1.3630   11.6910   -1.4920 C   0  0  0  0  0  0  0  0  0  0  0  0
   -0.2680   10.9400   -1.2750 C   0  0  0  0  0  0  0  0  0  0  0  0
    1.0970   11.3550   -1.8400 C   0  0  1  0  0  0  0  0  0  0  0  0
    1.7770   10.1300   -2.5040 C   0  0  0  0  0  0  0  0  0  0  0  0
    1.8750    8.9330   -1.5620 C   0  0  0  0  0  0  0  0  0  0  0  0
    0.4930    8.5140   -1.0680 C   0  0  2  0  0  0  0  0  0  0  0  0
   -0.2580    8.0080   -2.1760 O   0  0  0  0  0  0  0  0  0  0  0  0
   -0.2920    9.6700   -0.3890 C   0  0  0  0  0  0  0  0  0  0  0  0
    0.3630   10.0150    0.9720 C   0  0  0  0  0  0  0  0  0  0  0  0
   -1.7190    9.1530   -0.0640 C   0  0  0  0  0  0  0  0  0  0  0  0
    1.0970   12.6370   -2.7790 C   0  0  1  0  0  0  0  0  0  0  0  0
    0.7920   12.2190   -4.2500 C   0  0  0  0  0  0  0  0  0  0  0  0
    2.5400   13.2680   -2.7880 C   0  0  0  0  0  0  0  0  0  0  0  0
    2.8550   14.2950   -1.6840 C   0  0  0  0  0  0  0  0  0  0  0  0
    1.7530   15.3550   -1.5900 C   0  0  2  0  0  0  0  0  0  0  0  0
    1.7180   16.1310   -2.9500 C   0  0  0  0  0  0  0  0  0  0  0  0
    2.9054   17.5232    1.5307 H   0  0  0  0  0  0  0  0  0  0  0  0
    4.5234   17.3253    0.7761 H   0  0  0  0  0  0  0  0  0  0  0  0
    3.7230   18.9334    0.7761 H   0  0  0  0  0  0  0  0  0  0  0  0
    3.6850   17.1940   -1.3237 H   0  0  0  0  0  0  0  0  0  0  0  0
    2.8538   19.1389   -2.0547 H   0  0  0  0  0  0  0  0  0  0  0  0
    1.2296   18.4090   -1.6388 H   0  0  0  0  0  0  0  0  0  0  0  0
    2.6826   19.8307    0.5421 H   0  0  0  0  0  0  0  0  0  0  0  0
    1.9821   20.8299   -0.7990 H   0  0  0  0  0  0  0  0  0  0  0  0
    0.8971   20.2809    1.2567 H   0  0  0  0  0  0  0  0  0  0  0  0
   -0.5972   21.0947   -2.1645 H   0  0  0  0  0  0  0  0  0  0  0  0
    0.1496   19.4741   -2.3713 H   0  0  0  0  0  0  0  0  0  0  0  0
   -1.6385   19.6457   -2.3713 H   0  0  0  0  0  0  0  0  0  0  0  0
   -1.8275   20.1441    1.3374 H   0  0  0  0  0  0  0  0  0  0  0  0
   -2.2843   21.2102   -0.0342 H   0  0  0  0  0  0  0  0  0  0  0  0
   -2.7812   19.4840   -0.0342 H   0  0  0  0  0  0  0  0  0  0  0  0
    2.3002   15.9126    0.4509 H   0  0  0  0  0  0  0  0  0  0  0  0
    0.1727   17.0075    0.7767 H   0  0  0  0  0  0  0  0  0  0  0  0
    0.3148   17.9081   -0.7480 H   0  0  0  0  0  0  0  0  0  0  0  0
   -1.3438   15.6196   -0.3190 H   0  0  0  0  0  0  0  0  0  0  0  0
   -0.9313   16.2553   -1.9094 H   0  0  0  0  0  0  0  0  0  0  0  0
    0.4061   14.6395    0.9848 H   0  0  0  0  0  0  0  0  0  0  0  0
   -0.4416   13.2382    0.2468 H   0  0  0  0  0  0  0  0  0  0  0  0
    1.3535   13.3037    0.2468 H   0  0  0  0  0  0  0  0  0  0  0  0
   -0.1295   14.3788   -3.2128 H   0  0  0  0  0  0  0  0  0  0  0  0
   -2.0290   13.6893   -1.6143 H   0  0  0  0  0  0  0  0  0  0  0  0
   -1.7574   12.8074   -3.2076 H   0  0  0  0  0  0  0  0  0  0  0  0
   -2.3226   11.3006   -1.1222 H   0  0  0  0  0  0  0  0  0  0  0  0
    1.6935   11.6907   -0.9789 H   0  0  0  0  0  0  0  0  0  0  0  0
    1.1903    9.8367   -3.3870 H   0  0  0  0  0  0  0  0  0  0  0  0
    2.8010   10.4242   -2.7777 H   0  0  0  0  0  0  0  0  0  0  0  0
    2.3369    8.0903   -2.0973 H   0  0  0  0  0  0  0  0  0  0  0  0
    2.4870    9.2184   -0.6936 H   0  0  0  0  0  0  0  0  0  0  0  0
    0.6379    7.7406   -0.2994 H   0  0  0  0  0  0  0  0  0  0  0  0
    0.0290    8.4880   -2.9700 H   0  0  0  0  0  0  0  0  0  0  0  0
   -0.2880    9.6721    1.7896 H   0  0  0  0  0  0  0  0  0  0  0  0
    1.3396    9.5143    1.0463 H   0  0  0  0  0  0  0  0  0  0  0  0
    0.5025   11.1036    1.0463 H   0  0  0  0  0  0  0  0  0  0  0  0
   -1.8519    9.1048    1.0269 H   0  0  0  0  0  0  0  0  0  0  0  0
   -2.4641    9.8383   -0.4943 H   0  0  0  0  0  0  0  0  0  0  0  0
   -1.8522    8.1495   -0.4943 H   0  0  0  0  0  0  0  0  0  0  0  0
    0.1436   11.3304   -4.2517 H   0  0  0  0  0  0  0  0  0  0  0  0
    0.2831   13.0453   -4.7680 H   0  0  0  0  0  0  0  0  0  0  0  0
    1.7341   11.9865   -4.7680 H   0  0  0  0  0  0  0  0  0  0  0  0
    3.2638   12.4451   -2.6935 H   0  0  0  0  0  0  0  0  0  0  0  0
    2.6027   13.8305   -3.7312 H   0  0  0  0  0  0  0  0  0  0  0  0
    2.9352   13.7728   -0.7192 H   0  0  0  0  0  0  0  0  0  0  0  0
    3.8028   14.7956   -1.9310 H   0  0  0  0  0  0  0  0  0  0  0  0
    1.6692   17.2123   -2.7540 H   0  0  0  0  0  0  0  0  0  0  0  0
    2.6273   15.9033   -3.5256 H   0  0  0  0  0  0  0  0  0  0  0  0
    0.8329   15.8224   -3.5256 H   0  0  0  0  0  0  0  0  0  0  0  0
  1  2  1  0
  2  3  1  0
  3  4  1  0
  4  5  1  0
  5  6  1  0
  6  7  1  0
  7  8  1  0
  7  9  1  0
  2 10  1  0
 10 11  1  0
 11 12  1  0
 12 13  1  0
 13 14  1  1
 13 15  1  0
 15 16  1  0
 16 17  1  0
 17 18  2  0
 18 19  1  0
 19 20  1  0
 20 21  1  0
 21 22  1  0
 22 23  1  0
 22 24  1  0
 24 25  1  0
 24 26  1  0
 19 27  1  0
 27 28  1  6
 27 29  1  0
 29 30  1  0
 30 31  1  0
 31 32  1  6
  7  5  1  0
 31 10  1  0
 31 13  1  0
 27 15  1  0
 24 18  1  0
  1 33  1  0
  1 34  1  0
  1 35  1  0
  2 36  1  6
  3 37  1  0
  3 38  1  0
  4 39  1  0
  4 40  1  0
  5 41  1  1
  8 42  1  0
  8 43  1  0
  8 44  1  0
  9 45  1  0
  9 46  1  0
  9 47  1  0
 10 48  1  1
 11 49  1  0
 11 50  1  0
 12 51  1  0
 12 52  1  0
 14 53  1  0
 14 54  1  0
 14 55  1  0
 15 56  1  6
 16 57  1  0
 16 58  1  0
 17 59  1  0
 19 60  1  1
 20 61  1  0
 20 62  1  0
 21 63  1  0
 21 64  1  0
 22 65  1  1
 23 66  1  0
 25 67  1  0
 25 68  1  0
 25 69  1  0
 26 70  1  0
 26 71  1  0
 26 72  1  0
 28 73  1  0
 28 74  1  0
 28 75  1  0
 29 76  1  0
 29 77  1  0
 30 78  1  0
 30 79  1  0
 32 80  1  0
 32 81  1  0
 32 82  1  0
M  END
>  <meeko>  (18) 
{"is_sidechain": [false], "intermolecular_energy": 2.731, "internal_energy": -0.839}

$$$$
EPH_relaxed_0001_pdb2pqr_Repair_411_r2_0001_out
     RDKit          3D

 82 86  0  0  0  0  0  0  0  0999 V2000
   -1.1400   16.1300   -5.5150 C   0  0  0  0  0  0  0  0  0  0  0  0
    0.0530   15.4280   -6.1690 C   0  0  2  0  0  0  0  0  0  0  0  0
   -0.2370   15.0300   -7.6300 C   0  0  0  0  0  0  0  0  0  0  0  0
    0.1790   16.0930   -8.6510 C   0  0  0  0  0  0  0  0  0  0  0  0
    1.6040   15.9200   -9.0810 C   0  0  2  0  0  0  0  0  0  0  0  0
    1.9940   16.7270  -10.2000 O   0  0  0  0  0  0  0  0  0  0  0  0
    2.0090   15.3050  -10.4080 C   0  0  0  0  0  0  0  0  0  0  0  0
    0.9860   14.8230  -11.3890 C   0  0  0  0  0  0  0  0  0  0  0  0
    3.3850   14.7300  -10.5410 C   0  0  0  0  0  0  0  0  0  0  0  0
    0.4370   14.1950   -5.3600 C   0  0  1  0  0  0  0  0  0  0  0  0
    1.4640   13.2930   -6.0960 C   0  0  0  0  0  0  0  0  0  0  0  0
    2.3910   12.6910   -5.0090 C   0  0  0  0  0  0  0  0  0  0  0  0
    1.6730   12.9940   -3.6730 C   0  0  1  0  0  0  0  0  0  0  0  0
    0.5860   11.8810   -3.5410 C   0  0  0  0  0  0  0  0  0  0  0  0
    2.5810   13.0680   -2.4020 C   0  0  2  0  0  0  0  0  0  0  0  0
    3.3130   11.7620   -2.0460 C   0  0  0  0  0  0  0  0  0  0  0  0
    2.5760   10.8490   -1.1230 C   0  0  0  0  0  0  0  0  0  0  0  0
    1.5090   11.1870   -0.3760 C   0  0  0  0  0  0  0  0  0  0  0  0
    0.9960   12.6330   -0.3430 C   0  0  1  0  0  0  0  0  0  0  0  0
    0.7320   13.0540    1.1270 C   0  0  0  0  0  0  0  0  0  0  0  0
   -0.1990   12.0880    1.8540 C   0  0  0  0  0  0  0  0  0  0  0  0
    0.3730   10.6730    1.8500 C   0  0  2  0  0  0  0  0  0  0  0  0
    1.5630   10.6540    2.6440 O   0  0  0  0  0  0  0  0  0  0  0  0
    0.6880   10.1440    0.4230 C   0  0  0  0  0  0  0  0  0  0  0  0
   -0.6340    9.8790   -0.3390 C   0  0  0  0  0  0  0  0  0  0  0  0
    1.3890    8.7660    0.5680 C   0  0  0  0  0  0  0  0  0  0  0  0
    1.8720   13.6970   -1.1350 C   0  0  1  0  0  0  0  0  0  0  0  0
    3.0060   14.2430   -0.2150 C   0  0  0  0  0  0  0  0  0  0  0  0
    0.9680   14.9310   -1.5060 C   0  0  0  0  0  0  0  0  0  0  0  0
    0.1890   14.8480   -2.8320 C   0  0  0  0  0  0  0  0  0  0  0  0
    1.1080   14.4280   -3.9830 C   0  0  2  0  0  0  0  0  0  0  0  0
    2.1990   15.5390   -4.1540 C   0  0  0  0  0  0  0  0  0  0  0  0
   -1.0439   16.0734   -4.4207 H   0  0  0  0  0  0  0  0  0  0  0  0
   -1.1612   17.1845   -5.8272 H   0  0  0  0  0  0  0  0  0  0  0  0
   -2.0721   15.6364   -5.8272 H   0  0  0  0  0  0  0  0  0  0  0  0
    0.8907   16.1408   -6.1812 H   0  0  0  0  0  0  0  0  0  0  0  0
    0.3099   14.1019   -7.8523 H   0  0  0  0  0  0  0  0  0  0  0  0
   -1.3264   14.9065   -7.7197 H   0  0  0  0  0  0  0  0  0  0  0  0
   -0.4721   16.0134   -9.5340 H   0  0  0  0  0  0  0  0  0  0  0  0
    0.0811   17.0809   -8.1771 H   0  0  0  0  0  0  0  0  0  0  0  0
    1.9156   15.7135   -8.0465 H   0  0  0  0  0  0  0  0  0  0  0  0
    0.1207   14.4153  -10.8459 H   0  0  0  0  0  0  0  0  0  0  0  0
    0.6600   15.6623  -12.0210 H   0  0  0  0  0  0  0  0  0  0  0  0
    1.4256   14.0373  -12.0210 H   0  0  0  0  0  0  0  0  0  0  0  0
    3.8070   14.5537   -9.5406 H   0  0  0  0  0  0  0  0  0  0  0  0
    3.3332   13.7782  -11.0901 H   0  0  0  0  0  0  0  0  0  0  0  0
    4.0258   15.4356  -11.0901 H   0  0  0  0  0  0  0  0  0  0  0  0
   -0.5586   13.7478   -5.2227 H   0  0  0  0  0  0  0  0  0  0  0  0
    0.9430   12.4893   -6.6369 H   0  0  0  0  0  0  0  0  0  0  0  0
    2.0420   13.8718   -6.8314 H   0  0  0  0  0  0  0  0  0  0  0  0
    2.5037   11.6062   -5.1520 H   0  0  0  0  0  0  0  0  0  0  0  0
    3.4051   13.1158   -5.0434 H   0  0  0  0  0  0  0  0  0  0  0  0
    0.3920   11.6823   -2.4766 H   0  0  0  0  0  0  0  0  0  0  0  0
   -0.3425   12.2158   -4.0267 H   0  0  0  0  0  0  0  0  0  0  0  0
    0.9426   10.9607   -4.0267 H   0  0  0  0  0  0  0  0  0  0  0  0
    3.3648   13.7744   -2.7128 H   0  0  0  0  0  0  0  0  0  0  0  0
    3.5075   11.2157   -2.9808 H   0  0  0  0  0  0  0  0  0  0  0  0
    4.2270   12.0613   -1.5122 H   0  0  0  0  0  0  0  0  0  0  0  0
    2.9356    9.8122   -1.0471 H   0  0  0  0  0  0  0  0  0  0  0  0
    0.0519   12.6351   -0.9074 H   0  0  0  0  0  0  0  0  0  0  0  0
    1.6925   13.0880    1.6620 H   0  0  0  0  0  0  0  0  0  0  0  0
    0.2433   14.0393    1.1095 H   0  0  0  0  0  0  0  0  0  0  0  0
   -0.3243   12.4228    2.8943 H   0  0  0  0  0  0  0  0  0  0  0  0
   -1.1686   12.0765    1.3345 H   0  0  0  0  0  0  0  0  0  0  0  0
   -0.3944   10.0059    2.2695 H   0  0  0  0  0  0  0  0  0  0  0  0
    2.2590   10.2220    2.1210 H   0  0  0  0  0  0  0  0  0  0  0  0
   -1.4473    9.7160    0.3835 H   0  0  0  0  0  0  0  0  0  0  0  0
   -0.8734   10.7470   -0.9708 H   0  0  0  0  0  0  0  0  0  0  0  0
   -0.5203    8.9858   -0.9708 H   0  0  0  0  0  0  0  0  0  0  0  0
    1.5106    8.5269    1.6348 H   0  0  0  0  0  0  0  0  0  0  0  0
    0.7760    7.9902    0.0860 H   0  0  0  0  0  0  0  0  0  0  0  0
    2.3770    8.8047    0.0860 H   0  0  0  0  0  0  0  0  0  0  0  0
    2.7213   14.1059    0.8386 H   0  0  0  0  0  0  0  0  0  0  0  0
    3.9381   13.6949   -0.4172 H   0  0  0  0  0  0  0  0  0  0  0  0
    3.1588   15.3134   -0.4172 H   0  0  0  0  0  0  0  0  0  0  0  0
    0.2344   15.0612   -0.6968 H   0  0  0  0  0  0  0  0  0  0  0  0
    1.6666   15.7709   -1.6349 H   0  0  0  0  0  0  0  0  0  0  0  0
   -0.6191   14.1089   -2.7288 H   0  0  0  0  0  0  0  0  0  0  0  0
   -0.2245   15.8419   -3.0584 H   0  0  0  0  0  0  0  0  0  0  0  0
    2.5337   15.8798   -3.1631 H   0  0  0  0  0  0  0  0  0  0  0  0
    3.0555   15.1294   -4.7095 H   0  0  0  0  0  0  0  0  0  0  0  0
    1.7739   16.3880   -4.7095 H   0  0  0  0  0  0  0  0  0  0  0  0
  1  2  1  0
  2  3  1  0
  3  4  1  0
  4  5  1  0
  5  6  1  0
  6  7  1  0
  7  8  1  0
  7  9  1  0
  2 10  1  0
 10 11  1  0
 11 12  1  0
 12 13  1  0
 13 14  1  1
 13 15  1  0
 15 16  1  0
 16 17  1  0
 17 18  2  0
 18 19  1  0
 19 20  1  0
 20 21  1  0
 21 22  1  0
 22 23  1  0
 22 24  1  0
 24 25  1  0
 24 26  1  0
 19 27  1  0
 27 28  1  1
 27 29  1  0
 29 30  1  0
 30 31  1  0
 31 32  1  6
  7  5  1  0
 31 10  1  0
 31 13  1  0
 27 15  1  0
 24 18  1  0
  1 33  1  0
  1 34  1  0
  1 35  1  0
  2 36  1  6
  3 37  1  0
  3 38  1  0
  4 39  1  0
  4 40  1  0
  5 41  1  1
  8 42  1  0
  8 43  1  0
  8 44  1  0
  9 45  1  0
  9 46  1  0
  9 47  1  0
 10 48  1  1
 11 49  1  0
 11 50  1  0
 12 51  1  0
 12 52  1  0
 14 53  1  0
 14 54  1  0
 14 55  1  0
 15 56  1  6
 16 57  1  0
 16 58  1  0
 17 59  1  0
 19 60  1  6
 20 61  1  0
 20 62  1  0
 21 63  1  0
 21 64  1  0
 22 65  1  1
 23 66  1  0
 25 67  1  0
 25 68  1  0
 25 69  1  0
 26 70  1  0
 26 71  1  0
 26 72  1  0
 28 73  1  0
 28 74  1  0
 28 75  1  0
 29 76  1  0
 29 77  1  0
 30 78  1  0
 30 79  1  0
 32 80  1  0
 32 81  1  0
 32 82  1  0
M  END
>  <meeko>  (19) 
{"is_sidechain": [false], "intermolecular_energy": 2.731, "internal_energy": -0.839}

$$$$
EPH_relaxed_0001_pdb2pqr_Repair_411_r2_0001_out
     RDKit          3D

 82 86  0  0  0  0  0  0  0  0999 V2000
   -3.6990    7.1840   -3.3840 C   0  0  0  0  0  0  0  0  0  0  0  0
   -3.7190    7.2750   -1.8560 C   0  0  2  0  0  0  0  0  0  0  0  0
   -5.1320    7.0540   -1.2790 C   0  0  0  0  0  0  0  0  0  0  0  0
   -6.2480    7.1780   -2.3200 C   0  0  0  0  0  0  0  0  0  0  0  0
   -7.5790    7.4270   -1.6780 C   0  0  2  0  0  0  0  0  0  0  0  0
   -8.2110    6.2600   -1.1370 O   0  0  0  0  0  0  0  0  0  0  0  0
   -8.8880    6.8970   -2.2330 C   0  0  0  0  0  0  0  0  0  0  0  0
   -8.9300    6.0760   -3.4830 C   0  0  0  0  0  0  0  0  0  0  0  0
  -10.1610    7.5800   -1.8400 C   0  0  0  0  0  0  0  0  0  0  0  0
   -3.1800    8.6290   -1.4090 C   0  0  1  0  0  0  0  0  0  0  0  0
   -3.8580    9.1430   -0.1110 C   0  0  0  0  0  0  0  0  0  0  0  0
   -2.7720    9.9080    0.6880 C   0  0  0  0  0  0  0  0  0  0  0  0
   -1.6090   10.0950   -0.3140 C   0  0  1  0  0  0  0  0  0  0  0  0
   -2.0200   11.3280   -1.1790 C   0  0  0  0  0  0  0  0  0  0  0  0
   -0.1850   10.2730    0.3050 C   0  0  2  0  0  0  0  0  0  0  0  0
   -0.0080   11.5220    1.1870 C   0  0  0  0  0  0  0  0  0  0  0  0
    0.4560   12.7470    0.4720 C   0  0  0  0  0  0  0  0  0  0  0  0
    0.9930   12.7760   -0.7620 C   0  0  0  0  0  0  0  0  0  0  0  0
    1.2690   11.4780   -1.5320 C   0  0  1  0  0  0  0  0  0  0  0  0
    2.6930   11.5320   -2.1440 C   0  0  0  0  0  0  0  0  0  0  0  0
    2.9150   12.7760   -2.9990 C   0  0  0  0  0  0  0  0  0  0  0  0
    2.6880   14.0460   -2.1830 C   0  0  2  0  0  0  0  0  0  0  0  0
    3.7080   14.1400   -1.1840 O   0  0  0  0  0  0  0  0  0  0  0  0
    1.2890   14.1000   -1.5090 C   0  0  0  0  0  0  0  0  0  0  0  0
    0.1980   14.3020   -2.5900 C   0  0  0  0  0  0  0  0  0  0  0  0
    1.2420   15.3610   -0.6040 C   0  0  0  0  0  0  0  0  0  0  0  0
    0.9980   10.1290   -0.7360 C   0  0  1  0  0  0  0  0  0  0  0  0
    2.2640    9.7290    0.0810 C   0  0  0  0  0  0  0  0  0  0  0  0
    0.7490    8.9660   -1.7670 C   0  0  0  0  0  0  0  0  0  0  0  0
   -0.7000    8.7640   -2.2510 C   0  0  0  0  0  0  0  0  0  0  0  0
   -1.6710    8.7170   -1.0670 C   0  0  2  0  0  0  0  0  0  0  0  0
   -1.2970    7.4730   -0.1910 C   0  0  0  0  0  0  0  0  0  0  0  0
   -3.4720    6.1512   -3.6869 H   0  0  0  0  0  0  0  0  0  0  0  0
   -4.6825    7.4749   -3.7815 H   0  0  0  0  0  0  0  0  0  0  0  0
   -2.9281    7.8605   -3.7815 H   0  0  0  0  0  0  0  0  0  0  0  0
   -3.0751    6.4718   -1.4684 H   0  0  0  0  0  0  0  0  0  0  0  0
   -5.1750    6.0453   -0.8422 H   0  0  0  0  0  0  0  0  0  0  0  0
   -5.3009    7.8427   -0.5310 H   0  0  0  0  0  0  0  0  0  0  0  0
   -6.0152    8.0153   -2.9943 H   0  0  0  0  0  0  0  0  0  0  0  0
   -6.3066    6.2299   -2.8748 H   0  0  0  0  0  0  0  0  0  0  0  0
   -7.2647    8.4329   -1.3628 H   0  0  0  0  0  0  0  0  0  0  0  0
   -8.9846    5.0094   -3.2195 H   0  0  0  0  0  0  0  0  0  0  0  0
   -9.8151    6.3534   -4.0743 H   0  0  0  0  0  0  0  0  0  0  0  0
   -8.0212    6.2616   -4.0743 H   0  0  0  0  0  0  0  0  0  0  0  0
  -10.2329    7.6186   -0.7430 H   0  0  0  0  0  0  0  0  0  0  0  0
  -10.1681    8.6031   -2.2441 H   0  0  0  0  0  0  0  0  0  0  0  0
  -11.0173    7.0202   -2.2441 H   0  0  0  0  0  0  0  0  0  0  0  0
   -3.3964    9.2199   -2.3112 H   0  0  0  0  0  0  0  0  0  0  0  0
   -4.6906    9.8174   -0.3600 H   0  0  0  0  0  0  0  0  0  0  0  0
   -4.2674    8.3089    0.4777 H   0  0  0  0  0  0  0  0  0  0  0  0
   -3.1534   10.8827    1.0264 H   0  0  0  0  0  0  0  0  0  0  0  0
   -2.4599    9.3652    1.5924 H   0  0  0  0  0  0  0  0  0  0  0  0
   -2.2982   12.1627   -0.5188 H   0  0  0  0  0  0  0  0  0  0  0  0
   -1.1736   11.6290   -1.8138 H   0  0  0  0  0  0  0  0  0  0  0  0
   -2.8777   11.0610   -1.8138 H   0  0  0  0  0  0  0  0  0  0  0  0
   -0.1162    9.4128    0.9871 H   0  0  0  0  0  0  0  0  0  0  0  0
   -0.9777   11.7481    1.6545 H   0  0  0  0  0  0  0  0  0  0  0  0
    0.7828   11.2741    1.9103 H   0  0  0  0  0  0  0  0  0  0  0  0
    0.3502   13.7074    0.9978 H   0  0  0  0  0  0  0  0  0  0  0  0
    0.5188   11.4354   -2.3353 H   0  0  0  0  0  0  0  0  0  0  0  0
    3.4287   11.5302   -1.3262 H   0  0  0  0  0  0  0  0  0  0  0  0
    2.8102   10.6535   -2.7955 H   0  0  0  0  0  0  0  0  0  0  0  0
    3.9472   12.7720   -3.3793 H   0  0  0  0  0  0  0  0  0  0  0  0
    2.1980   12.7615   -3.8330 H   0  0  0  0  0  0  0  0  0  0  0  0
    2.7331   14.8973   -2.8782 H   0  0  0  0  0  0  0  0  0  0  0  0
    4.0860   15.0350   -1.2330 H   0  0  0  0  0  0  0  0  0  0  0  0
   -0.7719   14.4816   -2.1030 H   0  0  0  0  0  0  0  0  0  0  0  0
    0.4591   15.1671   -3.2173 H   0  0  0  0  0  0  0  0  0  0  0  0
    0.1321   13.4008   -3.2173 H   0  0  0  0  0  0  0  0  0  0  0  0
    1.2534   15.0548    0.4524 H   0  0  0  0  0  0  0  0  0  0  0  0
    2.1172   15.9942   -0.8117 H   0  0  0  0  0  0  0  0  0  0  0  0
    0.3221   15.9273   -0.8117 H   0  0  0  0  0  0  0  0  0  0  0  0
    2.0435    9.7987    1.1564 H   0  0  0  0  0  0  0  0  0  0  0  0
    2.5503    8.6966   -0.1685 H   0  0  0  0  0  0  0  0  0  0  0  0
    3.0915   10.4095   -0.1685 H   0  0  0  0  0  0  0  0  0  0  0  0
    1.3703    9.1674   -2.6521 H   0  0  0  0  0  0  0  0  0  0  0  0
    1.0027    8.0426   -1.2256 H   0  0  0  0  0  0  0  0  0  0  0  0
   -0.9784    9.5980   -2.9120 H   0  0  0  0  0  0  0  0  0  0  0  0
   -0.7595    7.8081   -2.7921 H   0  0  0  0  0  0  0  0  0  0  0  0
   -1.3764    7.7372    0.8739 H   0  0  0  0  0  0  0  0  0  0  0  0
   -1.9861    6.6456   -0.4159 H   0  0  0  0  0  0  0  0  0  0  0  0
   -0.2659    7.1628   -0.4159 H   0  0  0  0  0  0  0  0  0  0  0  0
  1  2  1  0
  2  3  1  0
  3  4  1  0
  4  5  1  0
  5  6  1  0
  6  7  1  0
  7  8  1  0
  7  9  1  0
  2 10  1  0
 10 11  1  0
 11 12  1  0
 12 13  1  0
 13 14  1  6
 13 15  1  0
 15 16  1  0
 16 17  1  0
 17 18  2  0
 18 19  1  0
 19 20  1  0
 20 21  1  0
 21 22  1  0
 22 23  1  0
 22 24  1  0
 24 25  1  0
 24 26  1  0
 19 27  1  0
 27 28  1  1
 27 29  1  0
 29 30  1  0
 30 31  1  0
 31 32  1  1
  7  5  1  0
 31 10  1  0
 31 13  1  0
 27 15  1  0
 24 18  1  0
  1 33  1  0
  1 34  1  0
  1 35  1  0
  2 36  1  1
  3 37  1  0
  3 38  1  0
  4 39  1  0
  4 40  1  0
  5 41  1  1
  8 42  1  0
  8 43  1  0
  8 44  1  0
  9 45  1  0
  9 46  1  0
  9 47  1  0
 10 48  1  6
 11 49  1  0
 11 50  1  0
 12 51  1  0
 12 52  1  0
 14 53  1  0
 14 54  1  0
 14 55  1  0
 15 56  1  1
 16 57  1  0
 16 58  1  0
 17 59  1  0
 19 60  1  6
 20 61  1  0
 20 62  1  0
 21 63  1  0
 21 64  1  0
 22 65  1  6
 23 66  1  0
 25 67  1  0
 25 68  1  0
 25 69  1  0
 26 70  1  0
 26 71  1  0
 26 72  1  0
 28 73  1  0
 28 74  1  0
 28 75  1  0
 29 76  1  0
 29 77  1  0
 30 78  1  0
 30 79  1  0
 32 80  1  0
 32 81  1  0
 32 82  1  0
M  END
>  <meeko>  (20) 
{"is_sidechain": [false], "intermolecular_energy": 2.731, "internal_energy": -0.839}

$$$$
