EPH_relaxed_0001_pdb2pqr_Repair_144_r2_0001_out
     RDKit          3D

 82 86  0  0  0  0  0  0  0  0999 V2000
    4.5200   17.6890   -0.7100 C   0  0  0  0  0  0  0  0  0  0  0  0
    3.1460   18.2730   -0.3690 C   0  0  2  0  0  0  0  0  0  0  0  0
    3.1100   18.8840    1.0460 C   0  0  0  0  0  0  0  0  0  0  0  0
    4.3890   18.6440    1.8540 C   0  0  0  0  0  0  0  0  0  0  0  0
    4.2830   19.2030    3.2400 C   0  0  2  0  0  0  0  0  0  0  0  0
    5.2670   20.1940    3.5620 O   0  0  0  0  0  0  0  0  0  0  0  0
    5.3260   18.9730    4.3170 C   0  0  0  0  0  0  0  0  0  0  0  0
    6.5510   18.1540    4.0550 C   0  0  0  0  0  0  0  0  0  0  0  0
    4.9220   19.1300    5.7500 C   0  0  0  0  0  0  0  0  0  0  0  0
    2.0770   17.1940   -0.4980 C   0  0  1  0  0  0  0  0  0  0  0  0
    0.7430   17.7410   -1.0720 C   0  0  0  0  0  0  0  0  0  0  0  0
    0.1360   16.6130   -1.9460 C   0  0  0  0  0  0  0  0  0  0  0  0
    0.9590   15.3540   -1.5830 C   0  0  1  0  0  0  0  0  0  0  0  0
    0.3300   14.8340   -0.2530 C   0  0  0  0  0  0  0  0  0  0  0  0
    1.0190   14.2320   -2.6700 C   0  0  2  0  0  0  0  0  0  0  0  0
   -0.3350   13.5970   -3.0300 C   0  0  0  0  0  0  0  0  0  0  0  0
   -0.7150   12.4020   -2.2190 C   0  0  0  0  0  0  0  0  0  0  0  0
    0.1190   11.6890   -1.4400 C   0  0  0  0  0  0  0  0  0  0  0  0
    1.6190   12.0060   -1.3940 C   0  0  1  0  0  0  0  0  0  0  0  0
    2.4320   10.6900   -1.5160 C   0  0  0  0  0  0  0  0  0  0  0  0
    2.0230    9.6520   -0.4750 C   0  0  0  0  0  0  0  0  0  0  0  0
    0.5380    9.3200   -0.5900 C   0  0  2  0  0  0  0  0  0  0  0  0
    0.3100    8.6530   -1.8350 O   0  0  0  0  0  0  0  0  0  0  0  0
   -0.3800   10.5710   -0.4920 C   0  0  0  0  0  0  0  0  0  0  0  0
   -0.3610   11.1180    0.9570 C   0  0  0  0  0  0  0  0  0  0  0  0
   -1.8390   10.1150   -0.7650 C   0  0  0  0  0  0  0  0  0  0  0  0
    2.1220   13.1280   -2.4020 C   0  0  1  0  0  0  0  0  0  0  0  0
    2.4590   12.4900   -3.7840 C   0  0  0  0  0  0  0  0  0  0  0  0
    3.4650   13.7440   -1.8580 C   0  0  0  0  0  0  0  0  0  0  0  0
    3.3400   14.9280   -0.8790 C   0  0  0  0  0  0  0  0  0  0  0  0
    2.3860   15.9940   -1.4270 C   0  0  2  0  0  0  0  0  0  0  0  0
    3.0030   16.5510   -2.7550 C   0  0  0  0  0  0  0  0  0  0  0  0
    5.0615   17.4588    0.2194 H   0  0  0  0  0  0  0  0  0  0  0  0
    4.3914   16.7678   -1.2972 H   0  0  0  0  0  0  0  0  0  0  0  0
    5.0940   18.4209   -1.2972 H   0  0  0  0  0  0  0  0  0  0  0  0
    2.9439   19.0843   -1.0838 H   0  0  0  0  0  0  0  0  0  0  0  0
    2.9575   19.9693    0.9517 H   0  0  0  0  0  0  0  0  0  0  0  0
    2.2902   18.3901    1.5882 H   0  0  0  0  0  0  0  0  0  0  0  0
    4.5712   17.5612    1.9195 H   0  0  0  0  0  0  0  0  0  0  0  0
    5.2185   19.1535    1.3417 H   0  0  0  0  0  0  0  0  0  0  0  0
    3.1903   19.0769    3.2327 H   0  0  0  0  0  0  0  0  0  0  0  0
    7.0020   17.8525    5.0119 H   0  0  0  0  0  0  0  0  0  0  0  0
    6.2765   17.2572    3.4803 H   0  0  0  0  0  0  0  0  0  0  0  0
    7.2748   18.7504    3.4803 H   0  0  0  0  0  0  0  0  0  0  0  0
    5.7483   18.8089    6.4012 H   0  0  0  0  0  0  0  0  0  0  0  0
    4.6857   20.1854    5.9508 H   0  0  0  0  0  0  0  0  0  0  0  0
    4.0351   18.5111    5.9508 H   0  0  0  0  0  0  0  0  0  0  0  0
    2.0283   16.8567    0.5479 H   0  0  0  0  0  0  0  0  0  0  0  0
    0.0550   17.9973   -0.2529 H   0  0  0  0  0  0  0  0  0  0  0  0
    0.9122   18.6521   -1.6647 H   0  0  0  0  0  0  0  0  0  0  0  0
   -0.9272   16.4648   -1.7057 H   0  0  0  0  0  0  0  0  0  0  0  0
    0.1816   16.8464   -3.0200 H   0  0  0  0  0  0  0  0  0  0  0  0
    0.8635   15.2750    0.6019 H   0  0  0  0  0  0  0  0  0  0  0  0
   -0.7307   15.1224   -0.2117 H   0  0  0  0  0  0  0  0  0  0  0  0
    0.4138   13.7380   -0.2117 H   0  0  0  0  0  0  0  0  0  0  0  0
    1.3341   14.7888   -3.5648 H   0  0  0  0  0  0  0  0  0  0  0  0
   -1.1150   14.3609   -2.8958 H   0  0  0  0  0  0  0  0  0  0  0  0
   -0.2389   13.2429   -4.0670 H   0  0  0  0  0  0  0  0  0  0  0  0
   -1.7651   12.0773   -2.2620 H   0  0  0  0  0  0  0  0  0  0  0  0
    1.8010   12.4675   -0.4122 H   0  0  0  0  0  0  0  0  0  0  0  0
    2.2702   10.2670   -2.5185 H   0  0  0  0  0  0  0  0  0  0  0  0
    3.4910   10.9343   -1.3463 H   0  0  0  0  0  0  0  0  0  0  0  0
    2.6100    8.7349   -0.6311 H   0  0  0  0  0  0  0  0  0  0  0  0
    2.2139   10.0651    0.5265 H   0  0  0  0  0  0  0  0  0  0  0  0
    0.2783    8.6734    0.2611 H   0  0  0  0  0  0  0  0  0  0  0  0
    0.6960    7.7630   -1.7670 H   0  0  0  0  0  0  0  0  0  0  0  0
   -0.3902   10.2779    1.6665 H   0  0  0  0  0  0  0  0  0  0  0  0
    0.5579   11.7011    1.1168 H   0  0  0  0  0  0  0  0  0  0  0  0
   -1.2373   11.7635    1.1168 H   0  0  0  0  0  0  0  0  0  0  0  0
   -2.3575    9.9529    0.1915 H   0  0  0  0  0  0  0  0  0  0  0  0
   -2.3644   10.8918   -1.3399 H   0  0  0  0  0  0  0  0  0  0  0  0
   -1.8286    9.1773   -1.3399 H   0  0  0  0  0  0  0  0  0  0  0  0
    2.9676   11.5270   -3.6290 H   0  0  0  0  0  0  0  0  0  0  0  0
    1.5294   12.3269   -4.3490 H   0  0  0  0  0  0  0  0  0  0  0  0
    3.1177   13.1659   -4.3490 H   0  0  0  0  0  0  0  0  0  0  0  0
    4.0140   12.9423   -1.3423 H   0  0  0  0  0  0  0  0  0  0  0  0
    3.9727   14.1547   -2.7432 H   0  0  0  0  0  0  0  0  0  0  0  0
    2.9542   14.5602    0.0832 H   0  0  0  0  0  0  0  0  0  0  0  0
    4.3338   15.3809   -0.7474 H   0  0  0  0  0  0  0  0  0  0  0  0
    3.7999   17.2704   -2.5156 H   0  0  0  0  0  0  0  0  0  0  0  0
    3.4230   15.7202   -3.3409 H   0  0  0  0  0  0  0  0  0  0  0  0
    2.2193   17.0535   -3.3409 H   0  0  0  0  0  0  0  0  0  0  0  0
  1  2  1  0
  2  3  1  0
  3  4  1  0
  4  5  1  0
  5  6  1  0
  6  7  1  0
  7  8  1  0
  7  9  1  0
  2 10  1  0
 10 11  1  0
 11 12  1  0
 12 13  1  0
 13 14  1  1
 13 15  1  0
 15 16  1  0
 16 17  1  0
 17 18  2  0
 18 19  1  0
 19 20  1  0
 20 21  1  0
 21 22  1  0
 22 23  1  0
 22 24  1  0
 24 25  1  0
 24 26  1  0
 19 27  1  0
 27 28  1  6
 27 29  1  0
 29 30  1  0
 30 31  1  0
 31 32  1  6
  7  5  1  0
 31 10  1  0
 31 13  1  0
 27 15  1  0
 24 18  1  0
  1 33  1  0
  1 34  1  0
  1 35  1  0
  2 36  1  6
  3 37  1  0
  3 38  1  0
  4 39  1  0
  4 40  1  0
  5 41  1  1
  8 42  1  0
  8 43  1  0
  8 44  1  0
  9 45  1  0
  9 46  1  0
  9 47  1  0
 10 48  1  1
 11 49  1  0
 11 50  1  0
 12 51  1  0
 12 52  1  0
 14 53  1  0
 14 54  1  0
 14 55  1  0
 15 56  1  6
 16 57  1  0
 16 58  1  0
 17 59  1  0
 19 60  1  1
 20 61  1  0
 20 62  1  0
 21 63  1  0
 21 64  1  0
 22 65  1  1
 23 66  1  0
 25 67  1  0
 25 68  1  0
 25 69  1  0
 26 70  1  0
 26 71  1  0
 26 72  1  0
 28 73  1  0
 28 74  1  0
 28 75  1  0
 29 76  1  0
 29 77  1  0
 30 78  1  0
 30 79  1  0
 32 80  1  0
 32 81  1  0
 32 82  1  0
M  END
>  <meeko>  (1) 
{"is_sidechain": [false], "intermolecular_energy": 2.731, "internal_energy": -0.839}

$$$$
EPH_relaxed_0001_pdb2pqr_Repair_144_r2_0001_out
     RDKit          3D

 82 86  0  0  0  0  0  0  0  0999 V2000
    3.8340   17.9890    0.6310 C   0  0  0  0  0  0  0  0  0  0  0  0
    2.9520   18.3840   -0.5570 C   0  0  2  0  0  0  0  0  0  0  0  0
    2.2100   19.7130   -0.3120 C   0  0  0  0  0  0  0  0  0  0  0  0
    1.1910   19.6490    0.8300 C   0  0  0  0  0  0  0  0  0  0  0  0
   -0.1420   20.1940    0.4150 C   0  0  2  0  0  0  0  0  0  0  0  0
   -1.1360   20.1940    1.4480 O   0  0  0  0  0  0  0  0  0  0  0  0
   -1.3970   19.3490    0.3160 C   0  0  0  0  0  0  0  0  0  0  0  0
   -1.3800   17.8860    0.6320 C   0  0  0  0  0  0  0  0  0  0  0  0
   -2.5180   19.8310   -0.5510 C   0  0  0  0  0  0  0  0  0  0  0  0
    1.9490   17.2740   -0.8500 C   0  0  1  0  0  0  0  0  0  0  0  0
    0.8120   17.7320   -1.8020 C   0  0  0  0  0  0  0  0  0  0  0  0
    0.4500   16.5120   -2.6860 C   0  0  0  0  0  0  0  0  0  0  0  0
    1.1450   15.3130   -2.0000 C   0  0  1  0  0  0  0  0  0  0  0  0
    0.1900   14.9100   -0.8330 C   0  0  0  0  0  0  0  0  0  0  0  0
    1.4830   14.0920   -2.9170 C   0  0  2  0  0  0  0  0  0  0  0  0
    0.2660   13.3950   -3.5500 C   0  0  0  0  0  0  0  0  0  0  0  0
   -0.3160   12.2760   -2.7510 C   0  0  0  0  0  0  0  0  0  0  0  0
    0.2850   11.6600   -1.7150 C   0  0  0  0  0  0  0  0  0  0  0  0
    1.7230   12.0150   -1.3140 C   0  0  1  0  0  0  0  0  0  0  0  0
    2.5340   10.7120   -1.0900 C   0  0  0  0  0  0  0  0  0  0  0  0
    1.8650    9.7710   -0.0920 C   0  0  0  0  0  0  0  0  0  0  0  0
    0.4600    9.3950   -0.5550 C   0  0  2  0  0  0  0  0  0  0  0  0
    0.5610    8.6060   -1.7440 O   0  0  0  0  0  0  0  0  0  0  0  0
   -0.4480   10.6290   -0.8230 C   0  0  0  0  0  0  0  0  0  0  0  0
   -0.8040   11.3140    0.5200 C   0  0  0  0  0  0  0  0  0  0  0  0
   -1.7870   10.1160   -1.4170 C   0  0  0  0  0  0  0  0  0  0  0  0
    2.4730   13.0450   -2.2640 C   0  0  1  0  0  0  0  0  0  0  0  0
    3.1560   12.2840   -3.4410 C   0  0  0  0  0  0  0  0  0  0  0  0
    3.6310   13.7410   -1.4540 C   0  0  0  0  0  0  0  0  0  0  0  0
    3.2600   15.0110   -0.6640 C   0  0  0  0  0  0  0  0  0  0  0  0
    2.4850   15.9970   -1.5440 C   0  0  2  0  0  0  0  0  0  0  0  0
    3.4280   16.4370   -2.7150 C   0  0  0  0  0  0  0  0  0  0  0  0
    3.3109   18.2233    1.5699 H   0  0  0  0  0  0  0  0  0  0  0  0
    4.0452   16.9103    0.5882 H   0  0  0  0  0  0  0  0  0  0  0  0
    4.7794   18.5497    0.5882 H   0  0  0  0  0  0  0  0  0  0  0  0
    3.6111   18.5291   -1.4257 H   0  0  0  0  0  0  0  0  0  0  0  0
    2.9539   20.4865   -0.0704 H   0  0  0  0  0  0  0  0  0  0  0  0
    1.6492   19.9416   -1.2303 H   0  0  0  0  0  0  0  0  0  0  0  0
    1.0670   18.6005    1.1387 H   0  0  0  0  0  0  0  0  0  0  0  0
    1.5686   20.2627    1.6611 H   0  0  0  0  0  0  0  0  0  0  0  0
    0.3357   20.8904   -0.2899 H   0  0  0  0  0  0  0  0  0  0  0  0
   -1.3784   17.7466    1.7231 H   0  0  0  0  0  0  0  0  0  0  0  0
   -2.2726   17.4077    0.2025 H   0  0  0  0  0  0  0  0  0  0  0  0
   -0.4765   17.4286    0.2025 H   0  0  0  0  0  0  0  0  0  0  0  0
   -3.3444   20.1863    0.0820 H   0  0  0  0  0  0  0  0  0  0  0  0
   -2.1619   20.6555   -1.1861 H   0  0  0  0  0  0  0  0  0  0  0  0
   -2.8714   19.0053   -1.1861 H   0  0  0  0  0  0  0  0  0  0  0  0
    1.6287   17.0393    0.1758 H   0  0  0  0  0  0  0  0  0  0  0  0
   -0.0647   18.0507   -1.2191 H   0  0  0  0  0  0  0  0  0  0  0  0
    1.1326   18.5849   -2.4183 H   0  0  0  0  0  0  0  0  0  0  0  0
   -0.6396   16.3640   -2.7161 H   0  0  0  0  0  0  0  0  0  0  0  0
    0.7749   16.6416   -3.7289 H   0  0  0  0  0  0  0  0  0  0  0  0
    0.6800   15.1168    0.1299 H   0  0  0  0  0  0  0  0  0  0  0  0
   -0.7407   15.4921   -0.9032 H   0  0  0  0  0  0  0  0  0  0  0  0
   -0.0423   13.8371   -0.9032 H   0  0  0  0  0  0  0  0  0  0  0  0
    2.0233   14.5655   -3.7500 H   0  0  0  0  0  0  0  0  0  0  0  0
   -0.5193   14.1509   -3.6983 H   0  0  0  0  0  0  0  0  0  0  0  0
    0.6268   12.9443   -4.4863 H   0  0  0  0  0  0  0  0  0  0  0  0
   -1.3200   11.9252   -3.0321 H   0  0  0  0  0  0  0  0  0  0  0  0
    1.6468   12.5743   -0.3699 H   0  0  0  0  0  0  0  0  0  0  0  0
    2.6360   10.1902   -2.0529 H   0  0  0  0  0  0  0  0  0  0  0  0
    3.5136   10.9950   -0.6773 H   0  0  0  0  0  0  0  0  0  0  0  0
    2.4697    8.8570    0.0022 H   0  0  0  0  0  0  0  0  0  0  0  0
    1.7897   10.2838    0.8783 H   0  0  0  0  0  0  0  0  0  0  0  0
   -0.0137    8.8272    0.2593 H   0  0  0  0  0  0  0  0  0  0  0  0
    0.7950    9.2030   -2.4740 H   0  0  0  0  0  0  0  0  0  0  0  0
   -0.4736   10.6783    1.3547 H   0  0  0  0  0  0  0  0  0  0  0  0
   -0.2986   12.2892    0.5795 H   0  0  0  0  0  0  0  0  0  0  0  0
   -1.8925   11.4609    0.5795 H   0  0  0  0  0  0  0  0  0  0  0  0
   -2.4740    9.8528   -0.5992 H   0  0  0  0  0  0  0  0  0  0  0  0
   -2.2393   10.9045   -2.0364 H   0  0  0  0  0  0  0  0  0  0  0  0
   -1.5967    9.2271   -2.0364 H   0  0  0  0  0  0  0  0  0  0  0  0
    3.8395   11.5224   -3.0376 H   0  0  0  0  0  0  0  0  0  0  0  0
    2.3867   11.7965   -4.0579 H   0  0  0  0  0  0  0  0  0  0  0  0
    3.7236   12.9963   -4.0579 H   0  0  0  0  0  0  0  0  0  0  0  0
    4.0238   13.0056   -0.7365 H   0  0  0  0  0  0  0  0  0  0  0  0
    4.3532   14.0751   -2.2135 H   0  0  0  0  0  0  0  0  0  0  0  0
    2.6359   14.7298    0.1971 H   0  0  0  0  0  0  0  0  0  0  0  0
    4.1869   15.4968   -0.3252 H   0  0  0  0  0  0  0  0  0  0  0  0
    4.3512   16.8678   -2.3002 H   0  0  0  0  0  0  0  0  0  0  0  0
    3.6772   15.5622   -3.3335 H   0  0  0  0  0  0  0  0  0  0  0  0
    2.9177   17.1900   -3.3335 H   0  0  0  0  0  0  0  0  0  0  0  0
  1  2  1  0
  2  3  1  0
  3  4  1  0
  4  5  1  0
  5  6  1  0
  6  7  1  0
  7  8  1  0
  7  9  1  0
  2 10  1  0
 10 11  1  0
 11 12  1  0
 12 13  1  0
 13 14  1  1
 13 15  1  0
 15 16  1  0
 16 17  1  0
 17 18  2  0
 18 19  1  0
 19 20  1  0
 20 21  1  0
 21 22  1  0
 22 23  1  0
 22 24  1  0
 24 25  1  0
 24 26  1  0
 19 27  1  0
 27 28  1  6
 27 29  1  0
 29 30  1  0
 30 31  1  0
 31 32  1  6
  7  5  1  0
 31 10  1  0
 31 13  1  0
 27 15  1  0
 24 18  1  0
  1 33  1  0
  1 34  1  0
  1 35  1  0
  2 36  1  6
  3 37  1  0
  3 38  1  0
  4 39  1  0
  4 40  1  0
  5 41  1  6
  8 42  1  0
  8 43  1  0
  8 44  1  0
  9 45  1  0
  9 46  1  0
  9 47  1  0
 10 48  1  1
 11 49  1  0
 11 50  1  0
 12 51  1  0
 12 52  1  0
 14 53  1  0
 14 54  1  0
 14 55  1  0
 15 56  1  6
 16 57  1  0
 16 58  1  0
 17 59  1  0
 19 60  1  1
 20 61  1  0
 20 62  1  0
 21 63  1  0
 21 64  1  0
 22 65  1  1
 23 66  1  0
 25 67  1  0
 25 68  1  0
 25 69  1  0
 26 70  1  0
 26 71  1  0
 26 72  1  0
 28 73  1  0
 28 74  1  0
 28 75  1  0
 29 76  1  0
 29 77  1  0
 30 78  1  0
 30 79  1  0
 32 80  1  0
 32 81  1  0
 32 82  1  0
M  END
>  <meeko>  (2) 
{"is_sidechain": [false], "intermolecular_energy": 2.731, "internal_energy": -0.839}

$$$$
EPH_relaxed_0001_pdb2pqr_Repair_144_r2_0001_out
     RDKit          3D

 82 86  0  0  0  0  0  0  0  0999 V2000
    2.3590   18.1900   -2.2460 C   0  0  0  0  0  0  0  0  0  0  0  0
    1.7680   17.4140   -1.0660 C   0  0  2  0  0  0  0  0  0  0  0  0
    2.8480   16.9930   -0.0490 C   0  0  0  0  0  0  0  0  0  0  0  0
    3.8500   18.1020    0.2790 C   0  0  0  0  0  0  0  0  0  0  0  0
    3.5780   18.7160    1.6190 C   0  0  2  0  0  0  0  0  0  0  0  0
    3.9610   20.0930    1.7360 O   0  0  0  0  0  0  0  0  0  0  0  0
    4.6710   19.1650    2.5710 C   0  0  0  0  0  0  0  0  0  0  0  0
    6.1190   19.0170    2.2230 C   0  0  0  0  0  0  0  0  0  0  0  0
    4.3440   19.2920    4.0270 C   0  0  0  0  0  0  0  0  0  0  0  0
    1.0230   16.1850   -1.5740 C   0  0  1  0  0  0  0  0  0  0  0  0
    0.5100   16.3560   -3.0290 C   0  0  0  0  0  0  0  0  0  0  0  0
    0.6110   14.9650   -3.7050 C   0  0  0  0  0  0  0  0  0  0  0  0
    0.8600   13.9800   -2.5380 C   0  0  1  0  0  0  0  0  0  0  0  0
   -0.5520   13.7200   -1.9260 C   0  0  0  0  0  0  0  0  0  0  0  0
    1.5860   12.6450   -2.9040 C   0  0  2  0  0  0  0  0  0  0  0  0
    0.8280   11.7380   -3.8890 C   0  0  0  0  0  0  0  0  0  0  0  0
   -0.0880   10.7400   -3.2610 C   0  0  0  0  0  0  0  0  0  0  0  0
   -0.0850   10.3840   -1.9630 C   0  0  0  0  0  0  0  0  0  0  0  0
    0.9740   10.9320   -0.9980 C   0  0  1  0  0  0  0  0  0  0  0  0
    1.5490    9.7700   -0.1460 C   0  0  0  0  0  0  0  0  0  0  0  0
    0.4610    8.9760    0.5710 C   0  0  0  0  0  0  0  0  0  0  0  0
   -0.5400    8.3990   -0.4270 C   0  0  2  0  0  0  0  0  0  0  0  0
    0.1220    7.4130   -1.2260 O   0  0  0  0  0  0  0  0  0  0  0  0
   -1.1780    9.4760   -1.3470 C   0  0  0  0  0  0  0  0  0  0  0  0
   -2.1390   10.3650   -0.5200 C   0  0  0  0  0  0  0  0  0  0  0  0
   -2.0590    8.7450   -2.3970 C   0  0  0  0  0  0  0  0  0  0  0  0
    2.1100   11.8290   -1.6530 C   0  0  1  0  0  0  0  0  0  0  0  0
    3.2720   10.9250   -2.1670 C   0  0  0  0  0  0  0  0  0  0  0  0
    2.7300   12.7630   -0.5470 C   0  0  0  0  0  0  0  0  0  0  0  0
    2.0380   14.1200   -0.3160 C   0  0  0  0  0  0  0  0  0  0  0  0
    1.8120   14.8530   -1.6420 C   0  0  2  0  0  0  0  0  0  0  0  0
    3.2160   15.1480   -2.2700 C   0  0  0  0  0  0  0  0  0  0  0  0
    2.9849   19.0118   -1.8678 H   0  0  0  0  0  0  0  0  0  0  0  0
    2.9729   17.5137   -2.8590 H   0  0  0  0  0  0  0  0  0  0  0  0
    1.5439   18.6021   -2.8590 H   0  0  0  0  0  0  0  0  0  0  0  0
    1.0682   18.0843   -0.5455 H   0  0  0  0  0  0  0  0  0  0  0  0
    2.3482   16.6899    0.8828 H   0  0  0  0  0  0  0  0  0  0  0  0
    3.4173   16.1706   -0.5067 H   0  0  0  0  0  0  0  0  0  0  0  0
    4.8645   17.6768    0.2810 H   0  0  0  0  0  0  0  0  0  0  0  0
    3.7537   18.8881   -0.4844 H   0  0  0  0  0  0  0  0  0  0  0  0
    2.6943   18.0760    1.7589 H   0  0  0  0  0  0  0  0  0  0  0  0
    6.7137   18.9562    3.1464 H   0  0  0  0  0  0  0  0  0  0  0  0
    6.2625   18.0995    1.6334 H   0  0  0  0  0  0  0  0  0  0  0  0
    6.4451   19.8865    1.6334 H   0  0  0  0  0  0  0  0  0  0  0  0
    5.2038   18.9581    4.6264 H   0  0  0  0  0  0  0  0  0  0  0  0
    4.1192   20.3428    4.2620 H   0  0  0  0  0  0  0  0  0  0  0  0
    3.4689   18.6684    4.2620 H   0  0  0  0  0  0  0  0  0  0  0  0
    0.2352   16.1179   -0.8092 H   0  0  0  0  0  0  0  0  0  0  0  0
   -0.5348   16.6999   -3.0243 H   0  0  0  0  0  0  0  0  0  0  0  0
    1.1062   17.1036   -3.5727 H   0  0  0  0  0  0  0  0  0  0  0  0
   -0.3249   14.7187   -4.2279 H   0  0  0  0  0  0  0  0  0  0  0  0
    1.4092   14.9259   -4.4609 H   0  0  0  0  0  0  0  0  0  0  0  0
   -0.4838   13.7326   -0.8282 H   0  0  0  0  0  0  0  0  0  0  0  0
   -1.2463   14.5054   -2.2592 H   0  0  0  0  0  0  0  0  0  0  0  0
   -0.9211   12.7388   -2.2592 H   0  0  0  0  0  0  0  0  0  0  0  0
    2.4731   13.0006   -3.4486 H   0  0  0  0  0  0  0  0  0  0  0  0
    0.2284   12.3807   -4.5504 H   0  0  0  0  0  0  0  0  0  0  0  0
    1.5959   11.1552   -4.4189 H   0  0  0  0  0  0  0  0  0  0  0  0
   -0.8279   10.2546   -3.9145 H   0  0  0  0  0  0  0  0  0  0  0  0
    0.4513   11.6483   -0.3471 H   0  0  0  0  0  0  0  0  0  0  0  0
    2.1045    9.0890   -0.8076 H   0  0  0  0  0  0  0  0  0  0  0  0
    2.2019   10.2104    0.6220 H   0  0  0  0  0  0  0  0  0  0  0  0
    0.9267    8.1519    1.1313 H   0  0  0  0  0  0  0  0  0  0  0  0
   -0.0741    9.6514    1.2547 H   0  0  0  0  0  0  0  0  0  0  0  0
   -1.3633    7.9540    0.1511 H   0  0  0  0  0  0  0  0  0  0  0  0
    0.5380    6.7750   -0.6220 H   0  0  0  0  0  0  0  0  0  0  0  0
   -1.9600   10.1994    0.5526 H   0  0  0  0  0  0  0  0  0  0  0  0
   -1.9599   11.4229   -0.7626 H   0  0  0  0  0  0  0  0  0  0  0  0
   -3.1798   10.1043   -0.7626 H   0  0  0  0  0  0  0  0  0  0  0  0
   -2.8064    8.1248   -1.8806 H   0  0  0  0  0  0  0  0  0  0  0  0
   -2.5707    9.4875   -3.0270 H   0  0  0  0  0  0  0  0  0  0  0  0
   -1.4237    8.1051   -3.0270 H   0  0  0  0  0  0  0  0  0  0  0  0
    3.8150   10.5025   -1.3087 H   0  0  0  0  0  0  0  0  0  0  0  0
    2.8588   10.1085   -2.7774 H   0  0  0  0  0  0  0  0  0  0  0  0
    3.9618   11.5263   -2.7774 H   0  0  0  0  0  0  0  0  0  0  0  0
    2.7078   12.2119    0.4047 H   0  0  0  0  0  0  0  0  0  0  0  0
    3.7373   13.0120   -0.9121 H   0  0  0  0  0  0  0  0  0  0  0  0
    1.0666   13.9502    0.1714 H   0  0  0  0  0  0  0  0  0  0  0  0
    2.6855   14.7399    0.3215 H   0  0  0  0  0  0  0  0  0  0  0  0
    3.9517   15.3026   -1.4670 H   0  0  0  0  0  0  0  0  0  0  0  0
    3.5259   14.2954   -2.8921 H   0  0  0  0  0  0  0  0  0  0  0  0
    3.1565   16.0533   -2.8921 H   0  0  0  0  0  0  0  0  0  0  0  0
  1  2  1  0
  2  3  1  0
  3  4  1  0
  4  5  1  0
  5  6  1  0
  6  7  1  0
  7  8  1  0
  7  9  1  0
  2 10  1  0
 10 11  1  0
 11 12  1  0
 12 13  1  0
 13 14  1  1
 13 15  1  0
 15 16  1  0
 16 17  1  0
 17 18  2  0
 18 19  1  0
 19 20  1  0
 20 21  1  0
 21 22  1  0
 22 23  1  0
 22 24  1  0
 24 25  1  0
 24 26  1  0
 19 27  1  0
 27 28  1  6
 27 29  1  0
 29 30  1  0
 30 31  1  0
 31 32  1  6
  7  5  1  0
 31 10  1  0
 31 13  1  0
 27 15  1  0
 24 18  1  0
  1 33  1  0
  1 34  1  0
  1 35  1  0
  2 36  1  1
  3 37  1  0
  3 38  1  0
  4 39  1  0
  4 40  1  0
  5 41  1  1
  8 42  1  0
  8 43  1  0
  8 44  1  0
  9 45  1  0
  9 46  1  0
  9 47  1  0
 10 48  1  1
 11 49  1  0
 11 50  1  0
 12 51  1  0
 12 52  1  0
 14 53  1  0
 14 54  1  0
 14 55  1  0
 15 56  1  6
 16 57  1  0
 16 58  1  0
 17 59  1  0
 19 60  1  1
 20 61  1  0
 20 62  1  0
 21 63  1  0
 21 64  1  0
 22 65  1  1
 23 66  1  0
 25 67  1  0
 25 68  1  0
 25 69  1  0
 26 70  1  0
 26 71  1  0
 26 72  1  0
 28 73  1  0
 28 74  1  0
 28 75  1  0
 29 76  1  0
 29 77  1  0
 30 78  1  0
 30 79  1  0
 32 80  1  0
 32 81  1  0
 32 82  1  0
M  END
>  <meeko>  (3) 
{"is_sidechain": [false], "intermolecular_energy": 2.731, "internal_energy": -0.839}

$$$$
EPH_relaxed_0001_pdb2pqr_Repair_144_r2_0001_out
     RDKit          3D

 82 86  0  0  0  0  0  0  0  0999 V2000
   -1.1420    8.8060   -1.9030 C   0  0  0  0  0  0  0  0  0  0  0  0
   -1.5630    9.1870   -0.4810 C   0  0  2  0  0  0  0  0  0  0  0  0
   -3.0920    9.3330   -0.3460 C   0  0  0  0  0  0  0  0  0  0  0  0
   -3.8820    8.4090   -1.2770 C   0  0  0  0  0  0  0  0  0  0  0  0
   -5.2310    8.0770   -0.7130 C   0  0  2  0  0  0  0  0  0  0  0  0
   -5.4640    6.6790   -0.5010 O   0  0  0  0  0  0  0  0  0  0  0  0
   -6.2950    7.3170   -1.4830 C   0  0  0  0  0  0  0  0  0  0  0  0
   -6.0570    6.8440   -2.8830 C   0  0  0  0  0  0  0  0  0  0  0  0
   -7.7240    7.4620   -1.0610 C   0  0  0  0  0  0  0  0  0  0  0  0
   -0.8770   10.4840   -0.0660 C   0  0  1  0  0  0  0  0  0  0  0  0
    0.0540   10.3020    1.1620 C   0  0  0  0  0  0  0  0  0  0  0  0
    1.2580   11.2570    0.9560 C   0  0  0  0  0  0  0  0  0  0  0  0
    0.8230   12.1890   -0.2000 C   0  0  1  0  0  0  0  0  0  0  0  0
   -0.0800   13.2690    0.4740 C   0  0  0  0  0  0  0  0  0  0  0  0
    1.9750   12.8380   -1.0340 C   0  0  2  0  0  0  0  0  0  0  0  0
    2.9060   13.7740   -0.2430 C   0  0  0  0  0  0  0  0  0  0  0  0
    2.4950   15.2090   -0.2180 C   0  0  0  0  0  0  0  0  0  0  0  0
    1.5870   15.7780   -1.0340 C   0  0  0  0  0  0  0  0  0  0  0  0
    0.9400   14.9770   -2.1710 C   0  0  1  0  0  0  0  0  0  0  0  0
    0.9620   15.8200   -3.4740 C   0  0  0  0  0  0  0  0  0  0  0  0
    0.3250   17.1940   -3.2920 C   0  0  0  0  0  0  0  0  0  0  0  0
    1.0320   17.9820   -2.1920 C   0  0  2  0  0  0  0  0  0  0  0  0
    2.3630   18.2830   -2.6240 O   0  0  0  0  0  0  0  0  0  0  0  0
    1.0820   17.2280   -0.8340 C   0  0  0  0  0  0  0  0  0  0  0  0
   -0.3390   17.1680   -0.2200 C   0  0  0  0  0  0  0  0  0  0  0  0
    1.9430   18.0680    0.1470 C   0  0  0  0  0  0  0  0  0  0  0  0
    1.4980   13.5050   -2.3880 C   0  0  1  0  0  0  0  0  0  0  0  0
    2.7410   13.5400   -3.3290 C   0  0  0  0  0  0  0  0  0  0  0  0
    0.4060   12.6450   -3.1260 C   0  0  0  0  0  0  0  0  0  0  0  0
   -0.6330   11.9310   -2.2400 C   0  0  0  0  0  0  0  0  0  0  0  0
    0.0510   11.1620   -1.1050 C   0  0  2  0  0  0  0  0  0  0  0  0
    0.9490   10.0530   -1.7520 C   0  0  0  0  0  0  0  0  0  0  0  0
   -0.3271    8.0685   -1.8589 H   0  0  0  0  0  0  0  0  0  0  0  0
   -2.0009    8.3720   -2.4358 H   0  0  0  0  0  0  0  0  0  0  0  0
   -0.7956    9.7038   -2.4358 H   0  0  0  0  0  0  0  0  0  0  0  0
   -1.2501    8.3703    0.1862 H   0  0  0  0  0  0  0  0  0  0  0  0
   -3.3727    9.1027    0.6923 H   0  0  0  0  0  0  0  0  0  0  0  0
   -3.3430   10.3660   -0.6287 H   0  0  0  0  0  0  0  0  0  0  0  0
   -4.0145    8.9092   -2.2477 H   0  0  0  0  0  0  0  0  0  0  0  0
   -3.3173    7.4719   -1.3909 H   0  0  0  0  0  0  0  0  0  0  0  0
   -5.2582    9.0257   -0.1569 H   0  0  0  0  0  0  0  0  0  0  0  0
   -5.5627    5.8616   -2.8591 H   0  0  0  0  0  0  0  0  0  0  0  0
   -7.0190    6.7577   -3.4094 H   0  0  0  0  0  0  0  0  0  0  0  0
   -5.4144    7.5651   -3.4094 H   0  0  0  0  0  0  0  0  0  0  0  0
   -7.7831    7.4680    0.0374 H   0  0  0  0  0  0  0  0  0  0  0  0
   -8.1288    8.4058   -1.4552 H   0  0  0  0  0  0  0  0  0  0  0  0
   -8.3101    6.6187   -1.4552 H   0  0  0  0  0  0  0  0  0  0  0  0
   -1.7628   11.1111    0.1131 H   0  0  0  0  0  0  0  0  0  0  0  0
   -0.4826   10.5629    2.0861 H   0  0  0  0  0  0  0  0  0  0  0  0
    0.3889    9.2581    1.2525 H   0  0  0  0  0  0  0  0  0  0  0  0
    1.4544   11.8371    1.8697 H   0  0  0  0  0  0  0  0  0  0  0  0
    2.1870   10.7141    0.7273 H   0  0  0  0  0  0  0  0  0  0  0  0
   -0.0049   13.1791    1.5677 H   0  0  0  0  0  0  0  0  0  0  0  0
    0.2533   14.2706    0.1646 H   0  0  0  0  0  0  0  0  0  0  0  0
   -1.1248   13.1184    0.1646 H   0  0  0  0  0  0  0  0  0  0  0  0
    2.5892   11.9671   -1.3063 H   0  0  0  0  0  0  0  0  0  0  0  0
    2.9476   13.4141    0.7956 H   0  0  0  0  0  0  0  0  0  0  0  0
    3.8774   13.7443   -0.7584 H   0  0  0  0  0  0  0  0  0  0  0  0
    2.9746   15.8568    0.5306 H   0  0  0  0  0  0  0  0  0  0  0  0
   -0.0993   14.7934   -1.8609 H   0  0  0  0  0  0  0  0  0  0  0  0
    2.0072   15.9548   -3.7893 H   0  0  0  0  0  0  0  0  0  0  0  0
    0.3773   15.2785   -4.2322 H   0  0  0  0  0  0  0  0  0  0  0  0
    0.3965   17.7520   -4.2373 H   0  0  0  0  0  0  0  0  0  0  0  0
   -0.7280   17.0574   -3.0046 H   0  0  0  0  0  0  0  0  0  0  0  0
    0.4524   18.9009   -2.0195 H   0  0  0  0  0  0  0  0  0  0  0  0
    2.2990   18.9400   -3.3380 H   0  0  0  0  0  0  0  0  0  0  0  0
   -0.2646   17.1711    0.8775 H   0  0  0  0  0  0  0  0  0  0  0  0
   -0.9186   18.0425   -0.5507 H   0  0  0  0  0  0  0  0  0  0  0  0
   -0.8428   16.2478   -0.5507 H   0  0  0  0  0  0  0  0  0  0  0  0
    1.6772   17.8087    1.1824 H   0  0  0  0  0  0  0  0  0  0  0  0
    3.0082   17.8524   -0.0231 H   0  0  0  0  0  0  0  0  0  0  0  0
    1.7538   19.1382   -0.0231 H   0  0  0  0  0  0  0  0  0  0  0  0
    3.6588   13.5658   -2.7233 H   0  0  0  0  0  0  0  0  0  0  0  0
    2.7458   12.6416   -3.9638 H   0  0  0  0  0  0  0  0  0  0  0  0
    2.6952   14.4372   -3.9638 H   0  0  0  0  0  0  0  0  0  0  0  0
   -0.1409   13.3145   -3.8062 H   0  0  0  0  0  0  0  0  0  0  0  0
    0.9636   11.8374   -3.6228 H   0  0  0  0  0  0  0  0  0  0  0  0
   -1.3135   12.6798   -1.8085 H   0  0  0  0  0  0  0  0  0  0  0  0
   -1.1921   11.2159   -2.8614 H   0  0  0  0  0  0  0  0  0  0  0  0
    1.4287    9.4606   -0.9589 H   0  0  0  0  0  0  0  0  0  0  0  0
    0.3264    9.3947   -2.3757 H   0  0  0  0  0  0  0  0  0  0  0  0
    1.7224   10.5251   -2.3757 H   0  0  0  0  0  0  0  0  0  0  0  0
  1  2  1  0
  2  3  1  0
  3  4  1  0
  4  5  1  0
  5  6  1  0
  6  7  1  0
  7  8  1  0
  7  9  1  0
  2 10  1  0
 10 11  1  0
 11 12  1  0
 12 13  1  0
 13 14  1  1
 13 15  1  0
 15 16  1  0
 16 17  1  0
 17 18  2  0
 18 19  1  0
 19 20  1  0
 20 21  1  0
 21 22  1  0
 22 23  1  0
 22 24  1  0
 24 25  1  0
 24 26  1  0
 19 27  1  0
 27 28  1  6
 27 29  1  0
 29 30  1  0
 30 31  1  0
 31 32  1  6
  7  5  1  0
 31 10  1  0
 31 13  1  0
 27 15  1  0
 24 18  1  0
  1 33  1  0
  1 34  1  0
  1 35  1  0
  2 36  1  1
  3 37  1  0
  3 38  1  0
  4 39  1  0
  4 40  1  0
  5 41  1  1
  8 42  1  0
  8 43  1  0
  8 44  1  0
  9 45  1  0
  9 46  1  0
  9 47  1  0
 10 48  1  1
 11 49  1  0
 11 50  1  0
 12 51  1  0
 12 52  1  0
 14 53  1  0
 14 54  1  0
 14 55  1  0
 15 56  1  6
 16 57  1  0
 16 58  1  0
 17 59  1  0
 19 60  1  1
 20 61  1  0
 20 62  1  0
 21 63  1  0
 21 64  1  0
 22 65  1  1
 23 66  1  0
 25 67  1  0
 25 68  1  0
 25 69  1  0
 26 70  1  0
 26 71  1  0
 26 72  1  0
 28 73  1  0
 28 74  1  0
 28 75  1  0
 29 76  1  0
 29 77  1  0
 30 78  1  0
 30 79  1  0
 32 80  1  0
 32 81  1  0
 32 82  1  0
M  END
>  <meeko>  (4) 
{"is_sidechain": [false], "intermolecular_energy": 2.731, "internal_energy": -0.839}

$$$$
EPH_relaxed_0001_pdb2pqr_Repair_144_r2_0001_out
     RDKit          3D

 82 86  0  0  0  0  0  0  0  0999 V2000
   -0.6610    7.8570   -0.5950 C   0  0  0  0  0  0  0  0  0  0  0  0
   -1.0890    9.2150   -0.0320 C   0  0  2  0  0  0  0  0  0  0  0  0
   -2.3500    9.7620   -0.7310 C   0  0  0  0  0  0  0  0  0  0  0  0
   -3.6600    9.2780   -0.1030 C   0  0  0  0  0  0  0  0  0  0  0  0
   -4.0370    7.9120   -0.5910 C   0  0  2  0  0  0  0  0  0  0  0  0
   -4.1190    7.7870   -2.0170 O   0  0  0  0  0  0  0  0  0  0  0  0
   -5.3470    7.6070   -1.2930 C   0  0  0  0  0  0  0  0  0  0  0  0
   -6.3650    8.6750   -1.5460 C   0  0  0  0  0  0  0  0  0  0  0  0
   -5.8460    6.1950   -1.2950 C   0  0  0  0  0  0  0  0  0  0  0  0
    0.0540   10.2150   -0.1630 C   0  0  1  0  0  0  0  0  0  0  0  0
    1.4480    9.5340   -0.1530 C   0  0  0  0  0  0  0  0  0  0  0  0
    2.3530   10.3520   -1.1090 C   0  0  0  0  0  0  0  0  0  0  0  0
    1.5620   11.6540   -1.3760 C   0  0  1  0  0  0  0  0  0  0  0  0
    1.8430   12.5560   -0.1340 C   0  0  0  0  0  0  0  0  0  0  0  0
    1.8840   12.3970   -2.7130 C   0  0  2  0  0  0  0  0  0  0  0  0
    3.3300   12.9070   -2.8450 C   0  0  0  0  0  0  0  0  0  0  0  0
    3.5650   14.2940   -2.3450 C   0  0  0  0  0  0  0  0  0  0  0  0
    2.6070   15.2010   -2.0760 C   0  0  0  0  0  0  0  0  0  0  0  0
    1.1310   14.8970   -2.3640 C   0  0  1  0  0  0  0  0  0  0  0  0
    0.4850   16.1080   -3.0870 C   0  0  0  0  0  0  0  0  0  0  0  0
    0.6730   17.4140   -2.3230 C   0  0  0  0  0  0  0  0  0  0  0  0
    2.1550   17.7110   -2.1060 C   0  0  2  0  0  0  0  0  0  0  0  0
    2.7620   17.9750   -3.3750 O   0  0  0  0  0  0  0  0  0  0  0  0
    2.9130   16.5570   -1.3940 C   0  0  0  0  0  0  0  0  0  0  0  0
    2.4600   16.4710    0.0850 C   0  0  0  0  0  0  0  0  0  0  0  0
    4.4220   16.9230   -1.3650 C   0  0  0  0  0  0  0  0  0  0  0  0
    0.8380   13.5190   -3.1000 C   0  0  1  0  0  0  0  0  0  0  0  0
    0.9380   13.7090   -4.6450 C   0  0  0  0  0  0  0  0  0  0  0  0
   -0.6450   13.0830   -2.8020 C   0  0  0  0  0  0  0  0  0  0  0  0
   -0.8820   12.2490   -1.5280 C   0  0  0  0  0  0  0  0  0  0  0  0
    0.1010   11.0770   -1.4490 C   0  0  2  0  0  0  0  0  0  0  0  0
   -0.1730   10.1400   -2.6750 C   0  0  0  0  0  0  0  0  0  0  0  0
   -0.4439    7.1681    0.2346 H   0  0  0  0  0  0  0  0  0  0  0  0
   -1.4724    7.4437   -1.2120 H   0  0  0  0  0  0  0  0  0  0  0  0
    0.2408    7.9836   -1.2120 H   0  0  0  0  0  0  0  0  0  0  0  0
   -1.3368    9.0700    1.0299 H   0  0  0  0  0  0  0  0  0  0  0  0
   -2.3259   10.8606   -0.6811 H   0  0  0  0  0  0  0  0  0  0  0  0
   -2.3319    9.3887   -1.7656 H   0  0  0  0  0  0  0  0  0  0  0  0
   -3.5408    9.2458    0.9901 H   0  0  0  0  0  0  0  0  0  0  0  0
   -4.4580    9.9778   -0.3920 H   0  0  0  0  0  0  0  0  0  0  0  0
   -3.5311    7.4408    0.2646 H   0  0  0  0  0  0  0  0  0  0  0  0
   -6.7353    9.0635   -0.5858 H   0  0  0  0  0  0  0  0  0  0  0  0
   -5.9038    9.4928   -2.1191 H   0  0  0  0  0  0  0  0  0  0  0  0
   -7.2040    8.2535   -2.1191 H   0  0  0  0  0  0  0  0  0  0  0  0
   -5.9686    5.8480   -0.2584 H   0  0  0  0  0  0  0  0  0  0  0  0
   -6.8148    6.1492   -1.8140 H   0  0  0  0  0  0  0  0  0  0  0  0
   -5.1211    5.5507   -1.8140 H   0  0  0  0  0  0  0  0  0  0  0  0
   -0.1575   10.8513    0.7090 H   0  0  0  0  0  0  0  0  0  0  0  0
    1.8664    9.5426    0.8643 H   0  0  0  0  0  0  0  0  0  0  0  0
    1.3773    8.4853   -0.4775 H   0  0  0  0  0  0  0  0  0  0  0  0
    3.3192   10.5753   -0.6329 H   0  0  0  0  0  0  0  0  0  0  0  0
    2.5823    9.8057   -2.0358 H   0  0  0  0  0  0  0  0  0  0  0  0
    1.6635   11.9799    0.7857 H   0  0  0  0  0  0  0  0  0  0  0  0
    2.8893   12.8948   -0.1561 H   0  0  0  0  0  0  0  0  0  0  0  0
    1.1743   13.4291   -0.1561 H   0  0  0  0  0  0  0  0  0  0  0  0
    1.7812   11.5945   -3.4583 H   0  0  0  0  0  0  0  0  0  0  0  0
    3.9834   12.2265   -2.2794 H   0  0  0  0  0  0  0  0  0  0  0  0
    3.5470   12.9312   -3.9231 H   0  0  0  0  0  0  0  0  0  0  0  0
    4.6088   14.6008   -2.1827 H   0  0  0  0  0  0  0  0  0  0  0  0
    0.6535   14.7492   -1.3841 H   0  0  0  0  0  0  0  0  0  0  0  0
    0.9450   16.2116   -4.0808 H   0  0  0  0  0  0  0  0  0  0  0  0
   -0.5957   15.9160   -3.1588 H   0  0  0  0  0  0  0  0  0  0  0  0
    0.2217   18.2358   -2.8983 H   0  0  0  0  0  0  0  0  0  0  0  0
    0.1865   17.3194   -1.3410 H   0  0  0  0  0  0  0  0  0  0  0  0
    2.2230   18.5861   -1.4430 H   0  0  0  0  0  0  0  0  0  0  0  0
    2.7710   18.9390   -3.5020 H   0  0  0  0  0  0  0  0  0  0  0  0
    3.3255   16.6353    0.7437 H   0  0  0  0  0  0  0  0  0  0  0  0
    1.6989   17.2407    0.2807 H   0  0  0  0  0  0  0  0  0  0  0  0
    2.0339   15.4759    0.2807 H   0  0  0  0  0  0  0  0  0  0  0  0
    4.7594   17.0048   -0.3212 H   0  0  0  0  0  0  0  0  0  0  0  0
    4.9994   16.1389   -1.8766 H   0  0  0  0  0  0  0  0  0  0  0  0
    4.5760   17.8845   -1.8766 H   0  0  0  0  0  0  0  0  0  0  0  0
    1.4399   14.6627   -4.8654 H   0  0  0  0  0  0  0  0  0  0  0  0
    1.5171   12.8809   -5.0796 H   0  0  0  0  0  0  0  0  0  0  0  0
   -0.0725   13.7175   -5.0796 H   0  0  0  0  0  0  0  0  0  0  0  0
   -1.2502   13.9977   -2.7182 H   0  0  0  0  0  0  0  0  0  0  0  0
   -0.9229   12.4207   -3.6351 H   0  0  0  0  0  0  0  0  0  0  0  0
   -0.7463   12.8925   -0.6463 H   0  0  0  0  0  0  0  0  0  0  0  0
   -1.9054   11.8469   -1.5575 H   0  0  0  0  0  0  0  0  0  0  0  0
   -0.4648    9.1421   -2.3158 H   0  0  0  0  0  0  0  0  0  0  0  0
   -0.9853   10.5622   -3.2849 H   0  0  0  0  0  0  0  0  0  0  0  0
    0.7388   10.0580   -3.2849 H   0  0  0  0  0  0  0  0  0  0  0  0
  1  2  1  0
  2  3  1  0
  3  4  1  0
  4  5  1  0
  5  6  1  0
  6  7  1  0
  7  8  1  0
  7  9  1  0
  2 10  1  0
 10 11  1  0
 11 12  1  0
 12 13  1  0
 13 14  1  1
 13 15  1  0
 15 16  1  0
 16 17  1  0
 17 18  2  0
 18 19  1  0
 19 20  1  0
 20 21  1  0
 21 22  1  0
 22 23  1  0
 22 24  1  0
 24 25  1  0
 24 26  1  0
 19 27  1  0
 27 28  1  6
 27 29  1  0
 29 30  1  0
 30 31  1  0
 31 32  1  6
  7  5  1  0
 31 10  1  0
 31 13  1  0
 27 15  1  0
 24 18  1  0
  1 33  1  0
  1 34  1  0
  1 35  1  0
  2 36  1  1
  3 37  1  0
  3 38  1  0
  4 39  1  0
  4 40  1  0
  5 41  1  1
  8 42  1  0
  8 43  1  0
  8 44  1  0
  9 45  1  0
  9 46  1  0
  9 47  1  0
 10 48  1  1
 11 49  1  0
 11 50  1  0
 12 51  1  0
 12 52  1  0
 14 53  1  0
 14 54  1  0
 14 55  1  0
 15 56  1  6
 16 57  1  0
 16 58  1  0
 17 59  1  0
 19 60  1  1
 20 61  1  0
 20 62  1  0
 21 63  1  0
 21 64  1  0
 22 65  1  1
 23 66  1  0
 25 67  1  0
 25 68  1  0
 25 69  1  0
 26 70  1  0
 26 71  1  0
 26 72  1  0
 28 73  1  0
 28 74  1  0
 28 75  1  0
 29 76  1  0
 29 77  1  0
 30 78  1  0
 30 79  1  0
 32 80  1  0
 32 81  1  0
 32 82  1  0
M  END
>  <meeko>  (5) 
{"is_sidechain": [false], "intermolecular_energy": 2.731, "internal_energy": -0.839}

$$$$
EPH_relaxed_0001_pdb2pqr_Repair_144_r2_0001_out
     RDKit          3D

 82 86  0  0  0  0  0  0  0  0999 V2000
    3.6840   17.9540   -1.4000 C   0  0  0  0  0  0  0  0  0  0  0  0
    2.6560   17.4840   -2.4340 C   0  0  2  0  0  0  0  0  0  0  0  0
    1.2340   17.9830   -2.1080 C   0  0  0  0  0  0  0  0  0  0  0  0
    1.1560   18.8300   -0.8350 C   0  0  0  0  0  0  0  0  0  0  0  0
   -0.0840   19.6720   -0.8040 C   0  0  2  0  0  0  0  0  0  0  0  0
   -0.4210   20.1940    0.4870 O   0  0  0  0  0  0  0  0  0  0  0  0
   -1.3550   19.2630   -0.0830 C   0  0  0  0  0  0  0  0  0  0  0  0
   -1.4490   17.9660    0.6570 C   0  0  0  0  0  0  0  0  0  0  0  0
   -2.6480   19.8880   -0.5030 C   0  0  0  0  0  0  0  0  0  0  0  0
    2.6670   15.9620   -2.5220 C   0  0  1  0  0  0  0  0  0  0  0  0
    4.0970   15.3840   -2.6940 C   0  0  0  0  0  0  0  0  0  0  0  0
    4.1310   14.0390   -1.9230 C   0  0  0  0  0  0  0  0  0  0  0  0
    2.6470   13.7270   -1.6180 C   0  0  1  0  0  0  0  0  0  0  0  0
    2.0890   13.1030   -2.9350 C   0  0  0  0  0  0  0  0  0  0  0  0
    2.3740   12.8080   -0.3830 C   0  0  2  0  0  0  0  0  0  0  0  0
    2.9520   11.3860   -0.4870 C   0  0  0  0  0  0  0  0  0  0  0  0
    2.0400   10.3700   -1.0900 C   0  0  0  0  0  0  0  0  0  0  0  0
    0.7140   10.5170   -1.2700 C   0  0  0  0  0  0  0  0  0  0  0  0
   -0.0160   11.7660   -0.7580 C   0  0  1  0  0  0  0  0  0  0  0  0
   -1.3120   11.3410   -0.0180 C   0  0  0  0  0  0  0  0  0  0  0  0
   -2.2080   10.4500   -0.8720 C   0  0  0  0  0  0  0  0  0  0  0  0
   -1.4650    9.1920   -1.3140 C   0  0  2  0  0  0  0  0  0  0  0  0
   -1.1950    8.3880   -0.1610 O   0  0  0  0  0  0  0  0  0  0  0  0
   -0.1370    9.4950   -2.0620 C   0  0  0  0  0  0  0  0  0  0  0  0
   -0.4510   10.0980   -3.4540 C   0  0  0  0  0  0  0  0  0  0  0  0
    0.5810    8.1440   -2.3260 C   0  0  0  0  0  0  0  0  0  0  0  0
    0.8630   12.7850    0.0870 C   0  0  1  0  0  0  0  0  0  0  0  0
    0.8690   12.3650    1.5880 C   0  0  0  0  0  0  0  0  0  0  0  0
    0.1960   14.2110    0.0270 C   0  0  0  0  0  0  0  0  0  0  0  0
    0.5970   15.1170   -1.1520 C   0  0  0  0  0  0  0  0  0  0  0  0
    2.1200   15.1750   -1.3050 C   0  0  2  0  0  0  0  0  0  0  0  0
    2.7080   15.8200   -0.0040 C   0  0  0  0  0  0  0  0  0  0  0  0
    3.2934   17.7754   -0.3873 H   0  0  0  0  0  0  0  0  0  0  0  0
    4.6218   17.3952   -1.5351 H   0  0  0  0  0  0  0  0  0  0  0  0
    3.8749   19.0288   -1.5351 H   0  0  0  0  0  0  0  0  0  0  0  0
    2.9419   17.9150   -3.4048 H   0  0  0  0  0  0  0  0  0  0  0  0
    0.8773   18.5912   -2.9523 H   0  0  0  0  0  0  0  0  0  0  0  0
    0.6112   17.0920   -1.9401 H   0  0  0  0  0  0  0  0  0  0  0  0
    1.1547   18.1614    0.0385 H   0  0  0  0  0  0  0  0  0  0  0  0
    2.0270   19.5016   -0.8163 H   0  0  0  0  0  0  0  0  0  0  0  0
    0.1018   20.0250   -1.8291 H   0  0  0  0  0  0  0  0  0  0  0  0
   -1.4350   18.1597    1.7397 H   0  0  0  0  0  0  0  0  0  0  0  0
   -2.3864   17.4573    0.3877 H   0  0  0  0  0  0  0  0  0  0  0  0
   -0.5948   17.3274    0.3877 H   0  0  0  0  0  0  0  0  0  0  0  0
   -3.2269   20.1678    0.3895 H   0  0  0  0  0  0  0  0  0  0  0  0
   -2.4429   20.7864   -1.1036 H   0  0  0  0  0  0  0  0  0  0  0  0
   -3.2247   19.1692   -1.1036 H   0  0  0  0  0  0  0  0  0  0  0  0
    2.0035   15.8227   -3.3882 H   0  0  0  0  0  0  0  0  0  0  0  0
    4.3119   15.2155   -3.7596 H   0  0  0  0  0  0  0  0  0  0  0  0
    4.8543   16.0811   -2.3061 H   0  0  0  0  0  0  0  0  0  0  0  0
    4.5749   13.2467   -2.5436 H   0  0  0  0  0  0  0  0  0  0  0  0
    4.7415   14.0968   -1.0098 H   0  0  0  0  0  0  0  0  0  0  0  0
    1.3745   12.3039   -2.6881 H   0  0  0  0  0  0  0  0  0  0  0  0
    1.5801   13.8813   -3.5226 H   0  0  0  0  0  0  0  0  0  0  0  0
    2.9191   12.6839   -3.5226 H   0  0  0  0  0  0  0  0  0  0  0  0
    2.9479   13.3060    0.4124 H   0  0  0  0  0  0  0  0  0  0  0  0
    3.8625   11.4333   -1.1024 H   0  0  0  0  0  0  0  0  0  0  0  0
    3.1353   11.0556    0.5461 H   0  0  0  0  0  0  0  0  0  0  0  0
    2.4896    9.4202   -1.4150 H   0  0  0  0  0  0  0  0  0  0  0  0
   -0.2720   12.3562   -1.6503 H   0  0  0  0  0  0  0  0  0  0  0  0
   -1.0336   10.7912    0.8931 H   0  0  0  0  0  0  0  0  0  0  0  0
   -1.8770   12.2550    0.2173 H   0  0  0  0  0  0  0  0  0  0  0  0
   -3.0911   10.1587   -0.2843 H   0  0  0  0  0  0  0  0  0  0  0  0
   -2.5103   11.0121   -1.7679 H   0  0  0  0  0  0  0  0  0  0  0  0
   -2.1118    8.6603   -2.0274 H   0  0  0  0  0  0  0  0  0  0  0  0
   -0.4620    7.7900   -0.3850 H   0  0  0  0  0  0  0  0  0  0  0  0
   -0.9557   11.0673   -3.3283 H   0  0  0  0  0  0  0  0  0  0  0  0
    0.4865   10.2423   -4.0110 H   0  0  0  0  0  0  0  0  0  0  0  0
   -1.1067    9.4126   -4.0110 H   0  0  0  0  0  0  0  0  0  0  0  0
    0.8333    7.6692   -1.3664 H   0  0  0  0  0  0  0  0  0  0  0  0
   -0.0839    7.4813   -2.8993 H   0  0  0  0  0  0  0  0  0  0  0  0
    1.5023    8.3243   -2.8993 H   0  0  0  0  0  0  0  0  0  0  0  0
    0.8561   13.2648    2.2206 H   0  0  0  0  0  0  0  0  0  0  0  0
   -0.0205   11.7541    1.8014 H   0  0  0  0  0  0  0  0  0  0  0  0
    1.7756   11.7797    1.8014 H   0  0  0  0  0  0  0  0  0  0  0  0
   -0.8935   14.0669   -0.0198 H   0  0  0  0  0  0  0  0  0  0  0  0
    0.5541   14.7339    0.9261 H   0  0  0  0  0  0  0  0  0  0  0  0
    0.1572   14.7183   -2.0781 H   0  0  0  0  0  0  0  0  0  0  0  0
    0.2251   16.1334   -0.9558 H   0  0  0  0  0  0  0  0  0  0  0  0
    2.2654   15.3345    0.8783 H   0  0  0  0  0  0  0  0  0  0  0  0
    3.7995   15.6841    0.0116 H   0  0  0  0  0  0  0  0  0  0  0  0
    2.4720   16.8943    0.0116 H   0  0  0  0  0  0  0  0  0  0  0  0
  1  2  1  0
  2  3  1  0
  3  4  1  0
  4  5  1  0
  5  6  1  0
  6  7  1  0
  7  8  1  0
  7  9  1  0
  2 10  1  0
 10 11  1  0
 11 12  1  0
 12 13  1  0
 13 14  1  6
 13 15  1  0
 15 16  1  0
 16 17  1  0
 17 18  2  0
 18 19  1  0
 19 20  1  0
 20 21  1  0
 21 22  1  0
 22 23  1  0
 22 24  1  0
 24 25  1  0
 24 26  1  0
 19 27  1  0
 27 28  1  1
 27 29  1  0
 29 30  1  0
 30 31  1  0
 31 32  1  1
  7  5  1  0
 31 10  1  0
 31 13  1  0
 27 15  1  0
 24 18  1  0
  1 33  1  0
  1 34  1  0
  1 35  1  0
  2 36  1  6
  3 37  1  0
  3 38  1  0
  4 39  1  0
  4 40  1  0
  5 41  1  6
  8 42  1  0
  8 43  1  0
  8 44  1  0
  9 45  1  0
  9 46  1  0
  9 47  1  0
 10 48  1  6
 11 49  1  0
 11 50  1  0
 12 51  1  0
 12 52  1  0
 14 53  1  0
 14 54  1  0
 14 55  1  0
 15 56  1  1
 16 57  1  0
 16 58  1  0
 17 59  1  0
 19 60  1  6
 20 61  1  0
 20 62  1  0
 21 63  1  0
 21 64  1  0
 22 65  1  6
 23 66  1  0
 25 67  1  0
 25 68  1  0
 25 69  1  0
 26 70  1  0
 26 71  1  0
 26 72  1  0
 28 73  1  0
 28 74  1  0
 28 75  1  0
 29 76  1  0
 29 77  1  0
 30 78  1  0
 30 79  1  0
 32 80  1  0
 32 81  1  0
 32 82  1  0
M  END
>  <meeko>  (6) 
{"is_sidechain": [false], "intermolecular_energy": 2.731, "internal_energy": -0.839}

$$$$
EPH_relaxed_0001_pdb2pqr_Repair_144_r2_0001_out
     RDKit          3D

 82 86  0  0  0  0  0  0  0  0999 V2000
   -2.5130    7.5350   -3.0620 C   0  0  0  0  0  0  0  0  0  0  0  0
   -2.8480    7.8280   -1.5970 C   0  0  2  0  0  0  0  0  0  0  0  0
   -4.3660    7.7880   -1.3280 C   0  0  0  0  0  0  0  0  0  0  0  0
   -5.0800    6.6180   -2.0110 C   0  0  0  0  0  0  0  0  0  0  0  0
   -6.3020    7.0710   -2.7510 C   0  0  2  0  0  0  0  0  0  0  0  0
   -6.8620    8.3050   -2.2840 O   0  0  0  0  0  0  0  0  0  0  0  0
   -7.6830    7.1360   -2.1260 C   0  0  0  0  0  0  0  0  0  0  0  0
   -7.9140    6.7420   -0.7010 C   0  0  0  0  0  0  0  0  0  0  0  0
   -8.8780    7.1120   -3.0280 C   0  0  0  0  0  0  0  0  0  0  0  0
   -2.2840    9.1870   -1.1970 C   0  0  1  0  0  0  0  0  0  0  0  0
   -2.8300    9.6820    0.1690 C   0  0  0  0  0  0  0  0  0  0  0  0
   -1.6780   10.4570    0.8570 C   0  0  0  0  0  0  0  0  0  0  0  0
   -0.6290   10.6680   -0.2590 C   0  0  1  0  0  0  0  0  0  0  0  0
   -1.1450   11.9010   -1.0660 C   0  0  0  0  0  0  0  0  0  0  0  0
    0.8500   10.8630    0.2100 C   0  0  2  0  0  0  0  0  0  0  0  0
    1.1000   12.1080    1.0790 C   0  0  0  0  0  0  0  0  0  0  0  0
    1.4700   13.3450    0.3310 C   0  0  0  0  0  0  0  0  0  0  0  0
    1.8740   13.3910   -0.9520 C   0  0  0  0  0  0  0  0  0  0  0  0
    2.0870   12.1030   -1.7580 C   0  0  1  0  0  0  0  0  0  0  0  0
    3.4380   12.1830   -2.5160 C   0  0  0  0  0  0  0  0  0  0  0  0
    3.5520   13.4360   -3.3790 C   0  0  0  0  0  0  0  0  0  0  0  0
    3.3930   14.6970   -2.5320 C   0  0  2  0  0  0  0  0  0  0  0  0
    4.5100   14.7990   -1.6440 O   0  0  0  0  0  0  0  0  0  0  0  0
    2.0710   14.7240   -1.7150 C   0  0  0  0  0  0  0  0  0  0  0  0
    0.8710   14.9180   -2.6740 C   0  0  0  0  0  0  0  0  0  0  0  0
    2.1020   15.9780   -0.8000 C   0  0  0  0  0  0  0  0  0  0  0  0
    1.9190   10.7450   -0.9510 C   0  0  1  0  0  0  0  0  0  0  0  0
    3.2700   10.3580   -0.2740 C   0  0  0  0  0  0  0  0  0  0  0  0
    1.5800    9.5850   -1.9600 C   0  0  0  0  0  0  0  0  0  0  0  0
    0.0920    9.3650   -2.2920 C   0  0  0  0  0  0  0  0  0  0  0  0
   -0.7500    9.2940   -1.0140 C   0  0  2  0  0  0  0  0  0  0  0  0
   -0.2680    8.0500   -0.1920 C   0  0  0  0  0  0  0  0  0  0  0  0
   -1.6858    6.8115   -3.1114 H   0  0  0  0  0  0  0  0  0  0  0  0
   -3.3975    7.1154   -3.5636 H   0  0  0  0  0  0  0  0  0  0  0  0
   -2.2149    8.4675   -3.5636 H   0  0  0  0  0  0  0  0  0  0  0  0
   -2.3844    7.0383   -0.9876 H   0  0  0  0  0  0  0  0  0  0  0  0
   -4.5246    7.7061   -0.2426 H   0  0  0  0  0  0  0  0  0  0  0  0
   -4.7915    8.7127   -1.7449 H   0  0  0  0  0  0  0  0  0  0  0  0
   -4.3876    6.1440   -2.7223 H   0  0  0  0  0  0  0  0  0  0  0  0
   -5.3939    5.9063   -1.2332 H   0  0  0  0  0  0  0  0  0  0  0  0
   -5.9347    6.6159   -3.6827 H   0  0  0  0  0  0  0  0  0  0  0  0
   -7.4711    7.4974   -0.0353 H   0  0  0  0  0  0  0  0  0  0  0  0
   -8.9952    6.6737   -0.5101 H   0  0  0  0  0  0  0  0  0  0  0  0
   -7.4456    5.7652   -0.5101 H   0  0  0  0  0  0  0  0  0  0  0  0
   -9.7952    7.0936   -2.4211 H   0  0  0  0  0  0  0  0  0  0  0  0
   -8.8764    8.0104   -3.6628 H   0  0  0  0  0  0  0  0  0  0  0  0
   -8.8403    6.2144   -3.6628 H   0  0  0  0  0  0  0  0  0  0  0  0
   -2.6017    9.7815   -2.0663 H   0  0  0  0  0  0  0  0  0  0  0  0
   -3.6933   10.3458    0.0137 H   0  0  0  0  0  0  0  0  0  0  0  0
   -3.1640    8.8377    0.7900 H   0  0  0  0  0  0  0  0  0  0  0  0
   -2.0356   11.4235    1.2416 H   0  0  0  0  0  0  0  0  0  0  0  0
   -1.2658    9.9128    1.7195 H   0  0  0  0  0  0  0  0  0  0  0  0
   -1.4731   12.6850   -0.3677 H   0  0  0  0  0  0  0  0  0  0  0  0
   -0.3342   12.2900   -1.6994 H   0  0  0  0  0  0  0  0  0  0  0  0
   -1.9912   11.5966   -1.6994 H   0  0  0  0  0  0  0  0  0  0  0  0
    1.0027    9.9993    0.8739 H   0  0  0  0  0  0  0  0  0  0  0  0
    0.1810   12.3163    1.6464 H   0  0  0  0  0  0  0  0  0  0  0  0
    1.9653   11.8666    1.7138 H   0  0  0  0  0  0  0  0  0  0  0  0
    1.4073   14.2996    0.8739 H   0  0  0  0  0  0  0  0  0  0  0  0
    1.2577   12.0550   -2.4791 H   0  0  0  0  0  0  0  0  0  0  0  0
    4.2555   12.1863   -1.7800 H   0  0  0  0  0  0  0  0  0  0  0  0
    3.4979   11.3112   -3.1841 H   0  0  0  0  0  0  0  0  0  0  0  0
    4.5389   13.4503   -3.8646 H   0  0  0  0  0  0  0  0  0  0  0  0
    2.7526   13.4167   -4.1343 H   0  0  0  0  0  0  0  0  0  0  0  0
    3.3530   15.5541   -3.2203 H   0  0  0  0  0  0  0  0  0  0  0  0
    5.1650   14.1350   -1.9170 H   0  0  0  0  0  0  0  0  0  0  0  0
   -0.0473   15.0665   -2.0869 H   0  0  0  0  0  0  0  0  0  0  0  0
    1.0472   15.7993   -3.3082 H   0  0  0  0  0  0  0  0  0  0  0  0
    0.7605   14.0261   -3.3082 H   0  0  0  0  0  0  0  0  0  0  0  0
    2.0942   15.6631    0.2539 H   0  0  0  0  0  0  0  0  0  0  0  0
    3.0147   16.5574   -1.0028 H   0  0  0  0  0  0  0  0  0  0  0  0
    1.2190   16.6018   -1.0028 H   0  0  0  0  0  0  0  0  0  0  0  0
    3.1549   10.3910    0.8195 H   0  0  0  0  0  0  0  0  0  0  0  0
    3.5566    9.3416   -0.5820 H   0  0  0  0  0  0  0  0  0  0  0  0
    4.0512   11.0685   -0.5820 H   0  0  0  0  0  0  0  0  0  0  0  0
    2.1028    9.8013   -2.9033 H   0  0  0  0  0  0  0  0  0  0  0  0
    1.9015    8.6620   -1.4554 H   0  0  0  0  0  0  0  0  0  0  0  0
   -0.2655   10.1999   -2.9126 H   0  0  0  0  0  0  0  0  0  0  0  0
   -0.0098    8.4124   -2.8326 H   0  0  0  0  0  0  0  0  0  0  0  0
   -0.3518    8.2662    0.8833 H   0  0  0  0  0  0  0  0  0  0  0  0
   -0.8944    7.1808   -0.4411 H   0  0  0  0  0  0  0  0  0  0  0  0
    0.7805    7.8298   -0.4411 H   0  0  0  0  0  0  0  0  0  0  0  0
  1  2  1  0
  2  3  1  0
  3  4  1  0
  4  5  1  0
  5  6  1  0
  6  7  1  0
  7  8  1  0
  7  9  1  0
  2 10  1  0
 10 11  1  0
 11 12  1  0
 12 13  1  0
 13 14  1  6
 13 15  1  0
 15 16  1  0
 16 17  1  0
 17 18  2  0
 18 19  1  0
 19 20  1  0
 20 21  1  0
 21 22  1  0
 22 23  1  0
 22 24  1  0
 24 25  1  0
 24 26  1  0
 19 27  1  0
 27 28  1  1
 27 29  1  0
 29 30  1  0
 30 31  1  0
 31 32  1  1
  7  5  1  0
 31 10  1  0
 31 13  1  0
 27 15  1  0
 24 18  1  0
  1 33  1  0
  1 34  1  0
  1 35  1  0
  2 36  1  1
  3 37  1  0
  3 38  1  0
  4 39  1  0
  4 40  1  0
  5 41  1  6
  8 42  1  0
  8 43  1  0
  8 44  1  0
  9 45  1  0
  9 46  1  0
  9 47  1  0
 10 48  1  6
 11 49  1  0
 11 50  1  0
 12 51  1  0
 12 52  1  0
 14 53  1  0
 14 54  1  0
 14 55  1  0
 15 56  1  1
 16 57  1  0
 16 58  1  0
 17 59  1  0
 19 60  1  6
 20 61  1  0
 20 62  1  0
 21 63  1  0
 21 64  1  0
 22 65  1  6
 23 66  1  0
 25 67  1  0
 25 68  1  0
 25 69  1  0
 26 70  1  0
 26 71  1  0
 26 72  1  0
 28 73  1  0
 28 74  1  0
 28 75  1  0
 29 76  1  0
 29 77  1  0
 30 78  1  0
 30 79  1  0
 32 80  1  0
 32 81  1  0
 32 82  1  0
M  END
>  <meeko>  (7) 
{"is_sidechain": [false], "intermolecular_energy": 2.731, "internal_energy": -0.839}

$$$$
EPH_relaxed_0001_pdb2pqr_Repair_144_r2_0001_out
     RDKit          3D

 82 86  0  0  0  0  0  0  0  0999 V2000
    0.3430   17.8250   -0.1860 C   0  0  0  0  0  0  0  0  0  0  0  0
    1.2610   17.1350   -1.1990 C   0  0  2  0  0  0  0  0  0  0  0  0
    1.6220   18.0590   -2.3790 C   0  0  0  0  0  0  0  0  0  0  0  0
    3.1240   18.3220   -2.5190 C   0  0  0  0  0  0  0  0  0  0  0  0
    3.9330   17.1090   -2.1720 C   0  0  2  0  0  0  0  0  0  0  0  0
    5.1030   17.3740   -1.3870 O   0  0  0  0  0  0  0  0  0  0  0  0
    5.3290   16.8540   -2.7070 C   0  0  0  0  0  0  0  0  0  0  0  0
    5.9980   17.8180   -3.6350 C   0  0  0  0  0  0  0  0  0  0  0  0
    5.8450   15.4480   -2.7200 C   0  0  0  0  0  0  0  0  0  0  0  0
    0.6000   15.8630   -1.7170 C   0  0  1  0  0  0  0  0  0  0  0  0
    0.1680   15.9760   -3.2030 C   0  0  0  0  0  0  0  0  0  0  0  0
    0.3690   14.5750   -3.8360 C   0  0  0  0  0  0  0  0  0  0  0  0
    0.5880   13.6310   -2.6300 C   0  0  1  0  0  0  0  0  0  0  0  0
   -0.8460   13.3230   -2.0950 C   0  0  0  0  0  0  0  0  0  0  0  0
    1.3910   12.3200   -2.9160 C   0  0  2  0  0  0  0  0  0  0  0  0
    0.7330   11.3570   -3.9200 C   0  0  0  0  0  0  0  0  0  0  0  0
   -0.1770   10.3360   -3.3210 C   0  0  0  0  0  0  0  0  0  0  0  0
   -0.2370   10.0110   -2.0160 C   0  0  0  0  0  0  0  0  0  0  0  0
    0.7380   10.6280   -1.0050 C   0  0  1  0  0  0  0  0  0  0  0  0
    1.3100    9.5140   -0.0900 C   0  0  0  0  0  0  0  0  0  0  0  0
    0.2150    8.6910    0.5830 C   0  0  0  0  0  0  0  0  0  0  0  0
   -0.6980    8.0460   -0.4560 C   0  0  2  0  0  0  0  0  0  0  0  0
    0.0510    7.0720   -1.1880 O   0  0  0  0  0  0  0  0  0  0  0  0
   -1.3250    9.0710   -1.4410 C   0  0  0  0  0  0  0  0  0  0  0  0
   -2.3710    9.9370   -0.6960 C   0  0  0  0  0  0  0  0  0  0  0  0
   -2.1100    8.2780   -2.5210 C   0  0  0  0  0  0  0  0  0  0  0  0
    1.8730   11.5590   -1.6150 C   0  0  1  0  0  0  0  0  0  0  0  0
    3.1010   10.6940   -2.0350 C   0  0  0  0  0  0  0  0  0  0  0  0
    2.3850   12.5450   -0.5000 C   0  0  0  0  0  0  0  0  0  0  0  0
    1.6240   13.8750   -0.3460 C   0  0  0  0  0  0  0  0  0  0  0  0
    1.4470   14.5650   -1.7020 C   0  0  2  0  0  0  0  0  0  0  0  0
    2.8730   14.9070   -2.2550 C   0  0  0  0  0  0  0  0  0  0  0  0
    0.6716   17.5780    0.8343 H   0  0  0  0  0  0  0  0  0  0  0  0
    0.3886   18.9143   -0.3323 H   0  0  0  0  0  0  0  0  0  0  0  0
   -0.6907   17.4784   -0.3323 H   0  0  0  0  0  0  0  0  0  0  0  0
    2.1970   16.8826   -0.6791 H   0  0  0  0  0  0  0  0  0  0  0  0
    1.2634   17.5918   -3.3080 H   0  0  0  0  0  0  0  0  0  0  0  0
    1.1428   19.0299   -2.1847 H   0  0  0  0  0  0  0  0  0  0  0  0
    3.3403   18.6096   -3.5585 H   0  0  0  0  0  0  0  0  0  0  0  0
    3.3978   19.1280   -1.8223 H   0  0  0  0  0  0  0  0  0  0  0  0
    3.0280   16.4844   -2.1442 H   0  0  0  0  0  0  0  0  0  0  0  0
    6.5288   18.5828   -3.0490 H   0  0  0  0  0  0  0  0  0  0  0  0
    6.7164   17.2779   -4.2692 H   0  0  0  0  0  0  0  0  0  0  0  0
    5.2407   18.3021   -4.2692 H   0  0  0  0  0  0  0  0  0  0  0  0
    5.9744   15.0953   -1.6861 H   0  0  0  0  0  0  0  0  0  0  0  0
    5.1266   14.7986   -3.2417 H   0  0  0  0  0  0  0  0  0  0  0  0
    6.8129   15.4175   -3.2417 H   0  0  0  0  0  0  0  0  0  0  0  0
   -0.2289   15.7804   -0.9986 H   0  0  0  0  0  0  0  0  0  0  0  0
   -0.8891   16.2729   -3.2685 H   0  0  0  0  0  0  0  0  0  0  0  0
    0.7631   16.7362   -3.7302 H   0  0  0  0  0  0  0  0  0  0  0  0
   -0.5220   14.2753   -4.4072 H   0  0  0  0  0  0  0  0  0  0  0  0
    1.2121   14.5528   -4.5422 H   0  0  0  0  0  0  0  0  0  0  0  0
   -0.8353   13.3253   -0.9951 H   0  0  0  0  0  0  0  0  0  0  0  0
   -1.5451   14.0915   -2.4565 H   0  0  0  0  0  0  0  0  0  0  0  0
   -1.1679   12.3352   -2.4565 H   0  0  0  0  0  0  0  0  0  0  0  0
    2.2938   12.7005   -3.4162 H   0  0  0  0  0  0  0  0  0  0  0  0
    0.1485   11.9567   -4.6333 H   0  0  0  0  0  0  0  0  0  0  0  0
    1.5554   10.7954   -4.3871 H   0  0  0  0  0  0  0  0  0  0  0  0
   -0.8559    9.8043   -4.0039 H   0  0  0  0  0  0  0  0  0  0  0  0
    0.1462   11.3357   -0.4059 H   0  0  0  0  0  0  0  0  0  0  0  0
    1.9323    8.8420   -0.6992 H   0  0  0  0  0  0  0  0  0  0  0  0
    1.8970   10.0010    0.7026 H   0  0  0  0  0  0  0  0  0  0  0  0
    0.6804    7.9024    1.1926 H   0  0  0  0  0  0  0  0  0  0  0  0
   -0.3886    9.3592    1.2148 H   0  0  0  0  0  0  0  0  0  0  0  0
   -1.5341    7.5789    0.0852 H   0  0  0  0  0  0  0  0  0  0  0  0
   -0.1390    6.2010   -0.8000 H   0  0  0  0  0  0  0  0  0  0  0  0
   -2.2344    9.8239    0.3896 H   0  0  0  0  0  0  0  0  0  0  0  0
   -2.2380   10.9929   -0.9743 H   0  0  0  0  0  0  0  0  0  0  0  0
   -3.3835    9.6092   -0.9743 H   0  0  0  0  0  0  0  0  0  0  0  0
   -2.8028    7.5782   -2.0308 H   0  0  0  0  0  0  0  0  0  0  0  0
   -2.6799    8.9789   -3.1486 H   0  0  0  0  0  0  0  0  0  0  0  0
   -1.4033    7.7152   -3.1486 H   0  0  0  0  0  0  0  0  0  0  0  0
    3.6180   10.3298   -1.1350 H   0  0  0  0  0  0  0  0  0  0  0  0
    2.7583    9.8368   -2.6331 H   0  0  0  0  0  0  0  0  0  0  0  0
    3.7928   11.3053   -2.6331 H   0  0  0  0  0  0  0  0  0  0  0  0
    2.3291   12.0162    0.4630 H   0  0  0  0  0  0  0  0  0  0  0  0
    3.4009   12.8292   -0.8117 H   0  0  0  0  0  0  0  0  0  0  0  0
    0.6333   13.6746    0.0879 H   0  0  0  0  0  0  0  0  0  0  0  0
    2.2053   14.5378    0.3118 H   0  0  0  0  0  0  0  0  0  0  0  0
    3.5625   15.0724   -1.4140 H   0  0  0  0  0  0  0  0  0  0  0  0
    3.2382   14.0710   -2.8696 H   0  0  0  0  0  0  0  0  0  0  0  0
    2.8192   15.8177   -2.8696 H   0  0  0  0  0  0  0  0  0  0  0  0
  1  2  1  0
  2  3  1  0
  3  4  1  0
  4  5  1  0
  5  6  1  0
  6  7  1  0
  7  8  1  0
  7  9  1  0
  2 10  1  0
 10 11  1  0
 11 12  1  0
 12 13  1  0
 13 14  1  1
 13 15  1  0
 15 16  1  0
 16 17  1  0
 17 18  2  0
 18 19  1  0
 19 20  1  0
 20 21  1  0
 21 22  1  0
 22 23  1  0
 22 24  1  0
 24 25  1  0
 24 26  1  0
 19 27  1  0
 27 28  1  6
 27 29  1  0
 29 30  1  0
 30 31  1  0
 31 32  1  6
  7  5  1  0
 31 10  1  0
 31 13  1  0
 27 15  1  0
 24 18  1  0
  1 33  1  0
  1 34  1  0
  1 35  1  0
  2 36  1  1
  3 37  1  0
  3 38  1  0
  4 39  1  0
  4 40  1  0
  5 41  1  1
  8 42  1  0
  8 43  1  0
  8 44  1  0
  9 45  1  0
  9 46  1  0
  9 47  1  0
 10 48  1  1
 11 49  1  0
 11 50  1  0
 12 51  1  0
 12 52  1  0
 14 53  1  0
 14 54  1  0
 14 55  1  0
 15 56  1  6
 16 57  1  0
 16 58  1  0
 17 59  1  0
 19 60  1  1
 20 61  1  0
 20 62  1  0
 21 63  1  0
 21 64  1  0
 22 65  1  1
 23 66  1  0
 25 67  1  0
 25 68  1  0
 25 69  1  0
 26 70  1  0
 26 71  1  0
 26 72  1  0
 28 73  1  0
 28 74  1  0
 28 75  1  0
 29 76  1  0
 29 77  1  0
 30 78  1  0
 30 79  1  0
 32 80  1  0
 32 81  1  0
 32 82  1  0
M  END
>  <meeko>  (8) 
{"is_sidechain": [false], "intermolecular_energy": 2.731, "internal_energy": -0.839}

$$$$
EPH_relaxed_0001_pdb2pqr_Repair_144_r2_0001_out
     RDKit          3D

 82 86  0  0  0  0  0  0  0  0999 V2000
    2.0950   18.2120   -3.2950 C   0  0  0  0  0  0  0  0  0  0  0  0
    2.1850   17.4600   -1.9640 C   0  0  2  0  0  0  0  0  0  0  0  0
    3.4130   17.8900   -1.1360 C   0  0  0  0  0  0  0  0  0  0  0  0
    3.0700   18.8010    0.0460 C   0  0  0  0  0  0  0  0  0  0  0  0
    4.2340   18.9670    0.9740 C   0  0  2  0  0  0  0  0  0  0  0  0
    4.1440   18.2110    2.1890 O   0  0  0  0  0  0  0  0  0  0  0  0
    4.1340   19.6410    2.3300 C   0  0  0  0  0  0  0  0  0  0  0  0
    2.8380   20.1940    2.8330 C   0  0  0  0  0  0  0  0  0  0  0  0
    5.3800   20.1940    2.9480 C   0  0  0  0  0  0  0  0  0  0  0  0
    2.2280   15.9580   -2.2170 C   0  0  1  0  0  0  0  0  0  0  0  0
    3.6360   15.4640   -2.6440 C   0  0  0  0  0  0  0  0  0  0  0  0
    3.8170   14.0500   -2.0350 C   0  0  0  0  0  0  0  0  0  0  0  0
    2.4010   13.6430   -1.5650 C   0  0  1  0  0  0  0  0  0  0  0  0
    1.6820   13.1330   -2.8530 C   0  0  0  0  0  0  0  0  0  0  0  0
    2.3330   12.5910   -0.4110 C   0  0  2  0  0  0  0  0  0  0  0  0
    2.9310   11.2140   -0.7460 C   0  0  0  0  0  0  0  0  0  0  0  0
    1.9740   10.2260   -1.3250 C   0  0  0  0  0  0  0  0  0  0  0  0
    0.6320   10.3320   -1.3040 C   0  0  0  0  0  0  0  0  0  0  0  0
   -0.0550   11.4870   -0.5650 C   0  0  1  0  0  0  0  0  0  0  0  0
   -1.2200   10.9320    0.2960 C   0  0  0  0  0  0  0  0  0  0  0  0
   -2.2010   10.0950   -0.5190 C   0  0  0  0  0  0  0  0  0  0  0  0
   -1.4910    8.9230   -1.1910 C   0  0  2  0  0  0  0  0  0  0  0  0
   -1.0380    8.0170   -0.1800 O   0  0  0  0  0  0  0  0  0  0  0  0
   -0.2920    9.3600   -2.0780 C   0  0  0  0  0  0  0  0  0  0  0  0
   -0.8160   10.0880   -3.3400 C   0  0  0  0  0  0  0  0  0  0  0  0
    0.4210    8.0760   -2.5820 C   0  0  0  0  0  0  0  0  0  0  0  0
    0.9040   12.4530    0.2570 C   0  0  1  0  0  0  0  0  0  0  0  0
    1.1350   11.8810    1.6890 C   0  0  0  0  0  0  0  0  0  0  0  0
    0.1940   13.8450    0.4440 C   0  0  0  0  0  0  0  0  0  0  0  0
    0.3980   14.8850   -0.6750 C   0  0  0  0  0  0  0  0  0  0  0  0
    1.8820   15.0260   -1.0290 C   0  0  2  0  0  0  0  0  0  0  0  0
    2.6280   15.5590    0.2420 C   0  0  0  0  0  0  0  0  0  0  0  0
    1.9663   19.2870   -3.1008 H   0  0  0  0  0  0  0  0  0  0  0  0
    3.0188   18.0513   -3.8701 H   0  0  0  0  0  0  0  0  0  0  0  0
    1.2352   17.8378   -3.8701 H   0  0  0  0  0  0  0  0  0  0  0  0
    1.2877   17.7129   -1.3801 H   0  0  0  0  0  0  0  0  0  0  0  0
    3.9033   16.9856   -0.7466 H   0  0  0  0  0  0  0  0  0  0  0  0
    4.0672   18.4663   -1.8068 H   0  0  0  0  0  0  0  0  0  0  0  0
    2.7772   19.7890   -0.3388 H   0  0  0  0  0  0  0  0  0  0  0  0
    2.2465   18.3370    0.6087 H   0  0  0  0  0  0  0  0  0  0  0  0
    4.9190   19.1137    0.1259 H   0  0  0  0  0  0  0  0  0  0  0  0
    2.8411   20.1927    3.9330 H   0  0  0  0  0  0  0  0  0  0  0  0
    2.7125   21.2240    2.4679 H   0  0  0  0  0  0  0  0  0  0  0  0
    2.0075   19.5719    2.4679 H   0  0  0  0  0  0  0  0  0  0  0  0
    5.2938   20.1558    4.0440 H   0  0  0  0  0  0  0  0  0  0  0  0
    6.2453   19.5954    2.6271 H   0  0  0  0  0  0  0  0  0  0  0  0
    5.5166   21.2373    2.6271 H   0  0  0  0  0  0  0  0  0  0  0  0
    1.4534   15.8803   -2.9942 H   0  0  0  0  0  0  0  0  0  0  0  0
    3.7041   15.4157   -3.7408 H   0  0  0  0  0  0  0  0  0  0  0  0
    4.4196   16.1500   -2.2900 H   0  0  0  0  0  0  0  0  0  0  0  0
    4.1919   13.3461   -2.7926 H   0  0  0  0  0  0  0  0  0  0  0  0
    4.5480   14.0404   -1.2131 H   0  0  0  0  0  0  0  0  0  0  0  0
    0.8150   12.5180   -2.5698 H   0  0  0  0  0  0  0  0  0  0  0  0
    1.3425   13.9933   -3.4485 H   0  0  0  0  0  0  0  0  0  0  0  0
    2.3817   12.5282   -3.4485 H   0  0  0  0  0  0  0  0  0  0  0  0
    2.9995   13.0295    0.3463 H   0  0  0  0  0  0  0  0  0  0  0  0
    3.7444   11.3642   -1.4712 H   0  0  0  0  0  0  0  0  0  0  0  0
    3.2663   10.7874    0.2109 H   0  0  0  0  0  0  0  0  0  0  0  0
    2.4012    9.3359   -1.8099 H   0  0  0  0  0  0  0  0  0  0  0  0
   -0.4519   12.1528   -1.3455 H   0  0  0  0  0  0  0  0  0  0  0  0
   -0.7998   10.3041    1.0955 H   0  0  0  0  0  0  0  0  0  0  0  0
   -1.7724   11.7909    0.7047 H   0  0  0  0  0  0  0  0  0  0  0  0
   -2.9841    9.7065    0.1487 H   0  0  0  0  0  0  0  0  0  0  0  0
   -2.6423   10.7323   -1.2994 H   0  0  0  0  0  0  0  0  0  0  0  0
   -2.2161    8.4386   -1.8616 H   0  0  0  0  0  0  0  0  0  0  0  0
   -1.1050    7.1170   -0.5400 H   0  0  0  0  0  0  0  0  0  0  0  0
   -1.4339   10.9465   -3.0380 H   0  0  0  0  0  0  0  0  0  0  0  0
    0.0358   10.4421   -3.9393 H   0  0  0  0  0  0  0  0  0  0  0  0
   -1.4221    9.3927   -3.9393 H   0  0  0  0  0  0  0  0  0  0  0  0
    0.7528    7.4785   -1.7201 H   0  0  0  0  0  0  0  0  0  0  0  0
   -0.2775    7.4839   -3.1915 H   0  0  0  0  0  0  0  0  0  0  0  0
    1.2929    8.3560   -3.1915 H   0  0  0  0  0  0  0  0  0  0  0  0
    0.8327   12.6297    2.4361 H   0  0  0  0  0  0  0  0  0  0  0  0
    0.5349   10.9686    1.8206 H   0  0  0  0  0  0  0  0  0  0  0  0
    2.2005   11.6412    1.8206 H   0  0  0  0  0  0  0  0  0  0  0  0
   -0.8865   13.6583    0.5319 H   0  0  0  0  0  0  0  0  0  0  0  0
    0.6594   14.2879    1.3369 H   0  0  0  0  0  0  0  0  0  0  0  0
   -0.1564   14.5646   -1.5694 H   0  0  0  0  0  0  0  0  0  0  0  0
    0.0280   15.8584   -0.3207 H   0  0  0  0  0  0  0  0  0  0  0  0
    2.1182   15.1947    1.1461 H   0  0  0  0  0  0  0  0  0  0  0  0
    3.6669   15.1974    0.2360 H   0  0  0  0  0  0  0  0  0  0  0  0
    2.6226   16.6590    0.2360 H   0  0  0  0  0  0  0  0  0  0  0  0
  1  2  1  0
  2  3  1  0
  3  4  1  0
  4  5  1  0
  5  6  1  0
  6  7  1  0
  7  8  1  0
  7  9  1  0
  2 10  1  0
 10 11  1  0
 11 12  1  0
 12 13  1  0
 13 14  1  6
 13 15  1  0
 15 16  1  0
 16 17  1  0
 17 18  2  0
 18 19  1  0
 19 20  1  0
 20 21  1  0
 21 22  1  0
 22 23  1  0
 22 24  1  0
 24 25  1  0
 24 26  1  0
 19 27  1  0
 27 28  1  1
 27 29  1  0
 29 30  1  0
 30 31  1  0
 31 32  1  1
  7  5  1  0
 31 10  1  0
 31 13  1  0
 27 15  1  0
 24 18  1  0
  1 33  1  0
  1 34  1  0
  1 35  1  0
  2 36  1  1
  3 37  1  0
  3 38  1  0
  4 39  1  0
  4 40  1  0
  5 41  1  6
  8 42  1  0
  8 43  1  0
  8 44  1  0
  9 45  1  0
  9 46  1  0
  9 47  1  0
 10 48  1  6
 11 49  1  0
 11 50  1  0
 12 51  1  0
 12 52  1  0
 14 53  1  0
 14 54  1  0
 14 55  1  0
 15 56  1  1
 16 57  1  0
 16 58  1  0
 17 59  1  0
 19 60  1  6
 20 61  1  0
 20 62  1  0
 21 63  1  0
 21 64  1  0
 22 65  1  6
 23 66  1  0
 25 67  1  0
 25 68  1  0
 25 69  1  0
 26 70  1  0
 26 71  1  0
 26 72  1  0
 28 73  1  0
 28 74  1  0
 28 75  1  0
 29 76  1  0
 29 77  1  0
 30 78  1  0
 30 79  1  0
 32 80  1  0
 32 81  1  0
 32 82  1  0
M  END
>  <meeko>  (9) 
{"is_sidechain": [false], "intermolecular_energy": 2.731, "internal_energy": -0.839}

$$$$
EPH_relaxed_0001_pdb2pqr_Repair_144_r2_0001_out
     RDKit          3D

 82 86  0  0  0  0  0  0  0  0999 V2000
    2.2580   19.2610   -0.0180 C   0  0  0  0  0  0  0  0  0  0  0  0
    2.9050   17.8990   -0.2830 C   0  0  2  0  0  0  0  0  0  0  0  0
    3.7180   17.8870   -1.5940 C   0  0  0  0  0  0  0  0  0  0  0  0
    5.1820   17.4820   -1.4060 C   0  0  0  0  0  0  0  0  0  0  0  0
    5.9930   17.7460   -2.6390 C   0  0  2  0  0  0  0  0  0  0  0  0
    5.2840   17.5660   -3.8720 O   0  0  0  0  0  0  0  0  0  0  0  0
    6.3790   16.6680   -3.6330 C   0  0  0  0  0  0  0  0  0  0  0  0
    5.9670   15.2420   -3.4380 C   0  0  0  0  0  0  0  0  0  0  0  0
    7.5590   16.9060   -4.5240 C   0  0  0  0  0  0  0  0  0  0  0  0
    1.8350   16.8140   -0.3240 C   0  0  1  0  0  0  0  0  0  0  0  0
    0.4350   17.3700   -0.6990 C   0  0  0  0  0  0  0  0  0  0  0  0
   -0.2710   16.2740   -1.5380 C   0  0  0  0  0  0  0  0  0  0  0  0
    0.5990   15.0100   -1.3400 C   0  0  1  0  0  0  0  0  0  0  0  0
    0.1490   14.4250    0.0350 C   0  0  0  0  0  0  0  0  0  0  0  0
    0.5280   13.9380   -2.4760 C   0  0  2  0  0  0  0  0  0  0  0  0
   -0.8580   13.3030   -2.6880 C   0  0  0  0  0  0  0  0  0  0  0  0
   -1.1230   12.0690   -1.8910 C   0  0  0  0  0  0  0  0  0  0  0  0
   -0.1920   11.3320   -1.2570 C   0  0  0  0  0  0  0  0  0  0  0  0
    1.3000   11.6660   -1.3880 C   0  0  1  0  0  0  0  0  0  0  0  0
    2.0980   10.3660   -1.6710 C   0  0  0  0  0  0  0  0  0  0  0  0
    1.8320    9.2790   -0.6350 C   0  0  0  0  0  0  0  0  0  0  0  0
    0.3460    8.9340   -0.5750 C   0  0  2  0  0  0  0  0  0  0  0  0
   -0.0340    8.3190   -1.8100 O   0  0  0  0  0  0  0  0  0  0  0  0
   -0.5590   10.1680   -0.3050 C   0  0  0  0  0  0  0  0  0  0  0  0
   -0.3590   10.6510    1.1530 C   0  0  0  0  0  0  0  0  0  0  0  0
   -2.0380    9.7070   -0.4100 C   0  0  0  0  0  0  0  0  0  0  0  0
    1.6620   12.8370   -2.4000 C   0  0  1  0  0  0  0  0  0  0  0  0
    1.8240   12.2640   -3.8410 C   0  0  0  0  0  0  0  0  0  0  0  0
    3.0590   13.4440   -2.0040 C   0  0  0  0  0  0  0  0  0  0  0  0
    3.0530   14.5820   -0.9650 C   0  0  0  0  0  0  0  0  0  0  0  0
    2.0310   15.6600   -1.3380 C   0  0  2  0  0  0  0  0  0  0  0  0
    2.4700   16.2820   -2.7070 C   0  0  0  0  0  0  0  0  0  0  0  0
    2.1801   19.4250    1.0669 H   0  0  0  0  0  0  0  0  0  0  0  0
    2.8758   20.0537   -0.4653 H   0  0  0  0  0  0  0  0  0  0  0  0
    1.2533   19.2829   -0.4653 H   0  0  0  0  0  0  0  0  0  0  0  0
    3.6052   17.6997    0.5416 H   0  0  0  0  0  0  0  0  0  0  0  0
    3.2472   17.1754   -2.2882 H   0  0  0  0  0  0  0  0  0  0  0  0
    3.7163   18.9160   -1.9829 H   0  0  0  0  0  0  0  0  0  0  0  0
    5.6065   18.0574   -0.5701 H   0  0  0  0  0  0  0  0  0  0  0  0
    5.2152   16.4023   -1.1984 H   0  0  0  0  0  0  0  0  0  0  0  0
    6.5836   18.5118   -2.1148 H   0  0  0  0  0  0  0  0  0  0  0  0
    5.9036   15.0225   -2.3620 H   0  0  0  0  0  0  0  0  0  0  0  0
    4.9845   15.0771   -3.9044 H   0  0  0  0  0  0  0  0  0  0  0  0
    6.7102   14.5786   -3.9044 H   0  0  0  0  0  0  0  0  0  0  0  0
    8.4527   17.0863   -3.9086 H   0  0  0  0  0  0  0  0  0  0  0  0
    7.7231   16.0229   -5.1589 H   0  0  0  0  0  0  0  0  0  0  0  0
    7.3679   17.7837   -5.1589 H   0  0  0  0  0  0  0  0  0  0  0  0
    1.9217   16.4303    0.7033 H   0  0  0  0  0  0  0  0  0  0  0  0
   -0.1446   17.5823    0.2115 H   0  0  0  0  0  0  0  0  0  0  0  0
    0.5215   18.3080   -1.2670 H   0  0  0  0  0  0  0  0  0  0  0  0
   -1.2938   16.1028   -1.1712 H   0  0  0  0  0  0  0  0  0  0  0  0
   -0.3638   16.5548   -2.5975 H   0  0  0  0  0  0  0  0  0  0  0  0
    0.6004   15.0118    0.8485 H   0  0  0  0  0  0  0  0  0  0  0  0
   -0.9472   14.4730    0.1128 H   0  0  0  0  0  0  0  0  0  0  0  0
    0.4766   13.3778    0.1128 H   0  0  0  0  0  0  0  0  0  0  0  0
    0.7240   14.5366   -3.3778 H   0  0  0  0  0  0  0  0  0  0  0  0
   -1.6190   14.0507   -2.4198 H   0  0  0  0  0  0  0  0  0  0  0  0
   -0.8939   12.9967   -3.7439 H   0  0  0  0  0  0  0  0  0  0  0  0
   -2.1678   11.7334   -1.8154 H   0  0  0  0  0  0  0  0  0  0  0  0
    1.6041   12.0874   -0.4185 H   0  0  0  0  0  0  0  0  0  0  0  0
    1.8119    9.9855   -2.6627 H   0  0  0  0  0  0  0  0  0  0  0  0
    3.1685   10.6150   -1.6262 H   0  0  0  0  0  0  0  0  0  0  0  0
    2.4003    8.3769   -0.9057 H   0  0  0  0  0  0  0  0  0  0  0  0
    2.1463    9.6501    0.3517 H   0  0  0  0  0  0  0  0  0  0  0  0
    0.2002    8.2476    0.2721 H   0  0  0  0  0  0  0  0  0  0  0  0
   -0.0710    9.0160   -2.4860 H   0  0  0  0  0  0  0  0  0  0  0  0
   -0.6851    9.8634    1.8482 H   0  0  0  0  0  0  0  0  0  0  0  0
    0.7049   10.8727    1.3231 H   0  0  0  0  0  0  0  0  0  0  0  0
   -0.9547   11.5599    1.3231 H   0  0  0  0  0  0  0  0  0  0  0  0
   -2.4542    9.5773    0.5999 H   0  0  0  0  0  0  0  0  0  0  0  0
   -2.6210   10.4660   -0.9522 H   0  0  0  0  0  0  0  0  0  0  0  0
   -2.0865    8.7511   -0.9522 H   0  0  0  0  0  0  0  0  0  0  0  0
    2.1229   11.2069   -3.7838 H   0  0  0  0  0  0  0  0  0  0  0  0
    0.8674   12.3461   -4.3779 H   0  0  0  0  0  0  0  0  0  0  0  0
    2.5960   12.8348   -4.3779 H   0  0  0  0  0  0  0  0  0  0  0  0
    3.6741   12.6269   -1.5990 H   0  0  0  0  0  0  0  0  0  0  0  0
    3.4470   13.8993   -2.9271 H   0  0  0  0  0  0  0  0  0  0  0  0
    2.7953   14.1677    0.0209 H   0  0  0  0  0  0  0  0  0  0  0  0
    4.0528   15.0401   -0.9410 H   0  0  0  0  0  0  0  0  0  0  0  0
    3.0954   17.1681   -2.5234 H   0  0  0  0  0  0  0  0  0  0  0  0
    3.0452   15.5394   -3.2795 H   0  0  0  0  0  0  0  0  0  0  0  0
    1.5777   16.5752   -3.2795 H   0  0  0  0  0  0  0  0  0  0  0  0
  1  2  1  0
  2  3  1  0
  3  4  1  0
  4  5  1  0
  5  6  1  0
  6  7  1  0
  7  8  1  0
  7  9  1  0
  2 10  1  0
 10 11  1  0
 11 12  1  0
 12 13  1  0
 13 14  1  1
 13 15  1  0
 15 16  1  0
 16 17  1  0
 17 18  2  0
 18 19  1  0
 19 20  1  0
 20 21  1  0
 21 22  1  0
 22 23  1  0
 22 24  1  0
 24 25  1  0
 24 26  1  0
 19 27  1  0
 27 28  1  6
 27 29  1  0
 29 30  1  0
 30 31  1  0
 31 32  1  6
  7  5  1  0
 31 10  1  0
 31 13  1  0
 27 15  1  0
 24 18  1  0
  1 33  1  0
  1 34  1  0
  1 35  1  0
  2 36  1  1
  3 37  1  0
  3 38  1  0
  4 39  1  0
  4 40  1  0
  5 41  1  1
  8 42  1  0
  8 43  1  0
  8 44  1  0
  9 45  1  0
  9 46  1  0
  9 47  1  0
 10 48  1  1
 11 49  1  0
 11 50  1  0
 12 51  1  0
 12 52  1  0
 14 53  1  0
 14 54  1  0
 14 55  1  0
 15 56  1  6
 16 57  1  0
 16 58  1  0
 17 59  1  0
 19 60  1  1
 20 61  1  0
 20 62  1  0
 21 63  1  0
 21 64  1  0
 22 65  1  1
 23 66  1  0
 25 67  1  0
 25 68  1  0
 25 69  1  0
 26 70  1  0
 26 71  1  0
 26 72  1  0
 28 73  1  0
 28 74  1  0
 28 75  1  0
 29 76  1  0
 29 77  1  0
 30 78  1  0
 30 79  1  0
 32 80  1  0
 32 81  1  0
 32 82  1  0
M  END
>  <meeko>  (10) 
{"is_sidechain": [false], "intermolecular_energy": 2.731, "internal_energy": -0.839}

$$$$
EPH_relaxed_0001_pdb2pqr_Repair_144_r2_0001_out
     RDKit          3D

 82 86  0  0  0  0  0  0  0  0999 V2000
    0.9140    8.7370   -0.1930 C   0  0  0  0  0  0  0  0  0  0  0  0
   -0.1390    9.4670   -1.0320 C   0  0  2  0  0  0  0  0  0  0  0  0
   -0.8130    8.5340   -2.0580 C   0  0  0  0  0  0  0  0  0  0  0  0
   -2.3280    8.4140   -1.8780 C   0  0  0  0  0  0  0  0  0  0  0  0
   -2.8800    7.2260   -2.6060 C   0  0  2  0  0  0  0  0  0  0  0  0
   -3.9100    7.5310   -3.5560 O   0  0  0  0  0  0  0  0  0  0  0  0
   -4.3020    6.7250   -2.4330 C   0  0  0  0  0  0  0  0  0  0  0  0
   -5.2600    7.4020   -1.5030 C   0  0  0  0  0  0  0  0  0  0  0  0
   -4.6090    5.3040   -2.7880 C   0  0  0  0  0  0  0  0  0  0  0  0
    0.4970   10.6540   -1.7460 C   0  0  1  0  0  0  0  0  0  0  0  0
    0.1550   10.6950   -3.2590 C   0  0  0  0  0  0  0  0  0  0  0  0
    0.0350   12.1900   -3.6500 C   0  0  0  0  0  0  0  0  0  0  0  0
    0.6320   12.9570   -2.4470 C   0  0  1  0  0  0  0  0  0  0  0  0
    2.1770   12.8960   -2.6600 C   0  0  0  0  0  0  0  0  0  0  0  0
    0.1340   14.4260   -2.2490 C   0  0  2  0  0  0  0  0  0  0  0  0
    0.4700   15.3900   -3.4000 C   0  0  0  0  0  0  0  0  0  0  0  0
    1.7710   16.1110   -3.2700 C   0  0  0  0  0  0  0  0  0  0  0  0
    2.5010   16.2090   -2.1440 C   0  0  0  0  0  0  0  0  0  0  0  0
    1.9830   15.6400   -0.8170 C   0  0  1  0  0  0  0  0  0  0  0  0
    2.1880   16.6850    0.3100 C   0  0  0  0  0  0  0  0  0  0  0  0
    3.6320   17.1670    0.4060 C   0  0  0  0  0  0  0  0  0  0  0  0
    4.0920   17.7790   -0.9140 C   0  0  2  0  0  0  0  0  0  0  0  0
    3.3520   18.9820   -1.1470 O   0  0  0  0  0  0  0  0  0  0  0  0
    3.9240   16.8200   -2.1260 C   0  0  0  0  0  0  0  0  0  0  0  0
    4.9480   15.6640   -2.0190 C   0  0  0  0  0  0  0  0  0  0  0  0
    4.2900   17.6080   -3.4120 C   0  0  0  0  0  0  0  0  0  0  0  0
    0.5060   15.0520   -0.8440 C   0  0  1  0  0  0  0  0  0  0  0  0
   -0.5240   16.1910   -0.5770 C   0  0  0  0  0  0  0  0  0  0  0  0
    0.3420   14.0200    0.3340 C   0  0  0  0  0  0  0  0  0  0  0  0
    0.7380   12.5610    0.0390 C   0  0  0  0  0  0  0  0  0  0  0  0
    0.0980   12.0710   -1.2640 C   0  0  2  0  0  0  0  0  0  0  0  0
   -1.4570   12.1010   -1.0730 C   0  0  0  0  0  0  0  0  0  0  0  0
    0.6992    8.8859    0.8755 H   0  0  0  0  0  0  0  0  0  0  0  0
    0.8878    7.6623   -0.4259 H   0  0  0  0  0  0  0  0  0  0  0  0
    1.9113    9.1385   -0.4259 H   0  0  0  0  0  0  0  0  0  0  0  0
   -0.9215    9.8221   -0.3452 H   0  0  0  0  0  0  0  0  0  0  0  0
   -0.6130    8.9247   -3.0666 H   0  0  0  0  0  0  0  0  0  0  0  0
   -0.3906    7.5299   -1.9055 H   0  0  0  0  0  0  0  0  0  0  0  0
   -2.5527    8.3113   -0.8061 H   0  0  0  0  0  0  0  0  0  0  0  0
   -2.7956    9.3187   -2.2937 H   0  0  0  0  0  0  0  0  0  0  0  0
   -1.9068    6.7154   -2.5586 H   0  0  0  0  0  0  0  0  0  0  0  0
   -4.9685    7.1960   -0.4625 H   0  0  0  0  0  0  0  0  0  0  0  0
   -5.2394    8.4872   -1.6816 H   0  0  0  0  0  0  0  0  0  0  0  0
   -6.2761    7.0203   -1.6816 H   0  0  0  0  0  0  0  0  0  0  0  0
   -4.7362    4.7154   -1.8675 H   0  0  0  0  0  0  0  0  0  0  0  0
   -5.5361    5.2657   -3.3787 H   0  0  0  0  0  0  0  0  0  0  0  0
   -3.7804    4.8864   -3.3787 H   0  0  0  0  0  0  0  0  0  0  0  0
    1.5552   10.4620   -1.5150 H   0  0  0  0  0  0  0  0  0  0  0  0
    0.9548   10.2142   -3.8413 H   0  0  0  0  0  0  0  0  0  0  0  0
   -0.7810   10.1560   -3.4671 H   0  0  0  0  0  0  0  0  0  0  0  0
    0.6068   12.3989   -4.5662 H   0  0  0  0  0  0  0  0  0  0  0  0
   -1.0041   12.4846   -3.8584 H   0  0  0  0  0  0  0  0  0  0  0  0
    2.6814   12.8761   -1.6826 H   0  0  0  0  0  0  0  0  0  0  0  0
    2.4338   11.9870   -3.2237 H   0  0  0  0  0  0  0  0  0  0  0  0
    2.5047   13.7819   -3.2237 H   0  0  0  0  0  0  0  0  0  0  0  0
   -0.9596   14.3088   -2.2675 H   0  0  0  0  0  0  0  0  0  0  0  0
    0.4956   14.8087   -4.3335 H   0  0  0  0  0  0  0  0  0  0  0  0
   -0.3101   16.1654   -3.3845 H   0  0  0  0  0  0  0  0  0  0  0  0
    2.1660   16.6036   -4.1707 H   0  0  0  0  0  0  0  0  0  0  0  0
    2.5907   14.7464   -0.6115 H   0  0  0  0  0  0  0  0  0  0  0  0
    1.5399   17.5510    0.1099 H   0  0  0  0  0  0  0  0  0  0  0  0
    1.9338   16.2006    1.2643 H   0  0  0  0  0  0  0  0  0  0  0  0
    3.7064   17.9252    1.1995 H   0  0  0  0  0  0  0  0  0  0  0  0
    4.2752   16.3048    0.6361 H   0  0  0  0  0  0  0  0  0  0  0  0
    5.1687   17.9853   -0.8241 H   0  0  0  0  0  0  0  0  0  0  0  0
    2.6000   18.7590   -1.7210 H   0  0  0  0  0  0  0  0  0  0  0  0
    5.1430   15.4438   -0.9590 H   0  0  0  0  0  0  0  0  0  0  0  0
    4.5420   14.7678   -2.5110 H   0  0  0  0  0  0  0  0  0  0  0  0
    5.8866   15.9589   -2.5110 H   0  0  0  0  0  0  0  0  0  0  0  0
    4.7385   18.5735   -3.1352 H   0  0  0  0  0  0  0  0  0  0  0  0
    5.0100   17.0261   -4.0061 H   0  0  0  0  0  0  0  0  0  0  0  0
    3.3809   17.7828   -4.0061 H   0  0  0  0  0  0  0  0  0  0  0  0
   -0.6471   16.3272    0.5076 H   0  0  0  0  0  0  0  0  0  0  0  0
   -0.1597   17.1272   -1.0251 H   0  0  0  0  0  0  0  0  0  0  0  0
   -1.4920   15.9224   -1.0251 H   0  0  0  0  0  0  0  0  0  0  0  0
    0.9624   14.3703    1.1721 H   0  0  0  0  0  0  0  0  0  0  0  0
   -0.7378   13.9890    0.5414 H   0  0  0  0  0  0  0  0  0  0  0  0
    1.8324   12.4966   -0.0513 H   0  0  0  0  0  0  0  0  0  0  0  0
    0.3814   11.9274    0.8645 H   0  0  0  0  0  0  0  0  0  0  0  0
   -1.6945   12.1056    0.0011 H   0  0  0  0  0  0  0  0  0  0  0  0
   -1.8667   13.0072   -1.5430 H   0  0  0  0  0  0  0  0  0  0  0  0
   -1.9014   11.2113   -1.5430 H   0  0  0  0  0  0  0  0  0  0  0  0
  1  2  1  0
  2  3  1  0
  3  4  1  0
  4  5  1  0
  5  6  1  0
  6  7  1  0
  7  8  1  0
  7  9  1  0
  2 10  1  0
 10 11  1  0
 11 12  1  0
 12 13  1  0
 13 14  1  6
 13 15  1  0
 15 16  1  0
 16 17  1  0
 17 18  2  0
 18 19  1  0
 19 20  1  0
 20 21  1  0
 21 22  1  0
 22 23  1  0
 22 24  1  0
 24 25  1  0
 24 26  1  0
 19 27  1  0
 27 28  1  1
 27 29  1  0
 29 30  1  0
 30 31  1  0
 31 32  1  1
  7  5  1  0
 31 10  1  0
 31 13  1  0
 27 15  1  0
 24 18  1  0
  1 33  1  0
  1 34  1  0
  1 35  1  0
  2 36  1  1
  3 37  1  0
  3 38  1  0
  4 39  1  0
  4 40  1  0
  5 41  1  6
  8 42  1  0
  8 43  1  0
  8 44  1  0
  9 45  1  0
  9 46  1  0
  9 47  1  0
 10 48  1  6
 11 49  1  0
 11 50  1  0
 12 51  1  0
 12 52  1  0
 14 53  1  0
 14 54  1  0
 14 55  1  0
 15 56  1  1
 16 57  1  0
 16 58  1  0
 17 59  1  0
 19 60  1  1
 20 61  1  0
 20 62  1  0
 21 63  1  0
 21 64  1  0
 22 65  1  1
 23 66  1  0
 25 67  1  0
 25 68  1  0
 25 69  1  0
 26 70  1  0
 26 71  1  0
 26 72  1  0
 28 73  1  0
 28 74  1  0
 28 75  1  0
 29 76  1  0
 29 77  1  0
 30 78  1  0
 30 79  1  0
 32 80  1  0
 32 81  1  0
 32 82  1  0
M  END
>  <meeko>  (11) 
{"is_sidechain": [false], "intermolecular_energy": 2.731, "internal_energy": -0.839}

$$$$
EPH_relaxed_0001_pdb2pqr_Repair_144_r2_0001_out
     RDKit          3D

 82 86  0  0  0  0  0  0  0  0999 V2000
    0.1910    8.9060   -2.4000 C   0  0  0  0  0  0  0  0  0  0  0  0
    0.9600   10.0320   -3.0950 C   0  0  2  0  0  0  0  0  0  0  0  0
    2.4680    9.9920   -2.7720 C   0  0  0  0  0  0  0  0  0  0  0  0
    3.3500   10.5750   -3.8790 C   0  0  0  0  0  0  0  0  0  0  0  0
    4.7500   10.8180   -3.4010 C   0  0  2  0  0  0  0  0  0  0  0  0
    5.3570   12.0130   -3.9100 O   0  0  0  0  0  0  0  0  0  0  0  0
    5.9640   10.7740   -4.3110 C   0  0  0  0  0  0  0  0  0  0  0  0
    5.8330   10.4770   -5.7720 C   0  0  0  0  0  0  0  0  0  0  0  0
    7.3080   10.5350   -3.6980 C   0  0  0  0  0  0  0  0  0  0  0  0
    0.3780   11.3830   -2.6950 C   0  0  1  0  0  0  0  0  0  0  0  0
   -0.8780   11.2490   -1.7930 C   0  0  0  0  0  0  0  0  0  0  0  0
   -0.8400   12.4340   -0.7940 C   0  0  0  0  0  0  0  0  0  0  0  0
    0.2390   13.3860   -1.3600 C   0  0  1  0  0  0  0  0  0  0  0  0
   -0.4860   14.1920   -2.4830 C   0  0  0  0  0  0  0  0  0  0  0  0
    0.9350   14.3320   -0.3280 C   0  0  2  0  0  0  0  0  0  0  0  0
    0.0010   15.3370    0.3700 C   0  0  0  0  0  0  0  0  0  0  0  0
   -0.1450   16.6550   -0.3170 C   0  0  0  0  0  0  0  0  0  0  0  0
    0.6620   17.1250   -1.2870 C   0  0  0  0  0  0  0  0  0  0  0  0
    1.9100   16.3450   -1.7190 C   0  0  1  0  0  0  0  0  0  0  0  0
    3.1180   17.3140   -1.8150 C   0  0  0  0  0  0  0  0  0  0  0  0
    2.8370   18.5130   -2.7160 C   0  0  0  0  0  0  0  0  0  0  0  0
    1.6240   19.2950   -2.2200 C   0  0  2  0  0  0  0  0  0  0  0  0
    1.9440   19.8920   -0.9590 O   0  0  0  0  0  0  0  0  0  0  0  0
    0.3470   18.4200   -2.0750 C   0  0  0  0  0  0  0  0  0  0  0  0
   -0.1730   18.0210   -3.4780 C   0  0  0  0  0  0  0  0  0  0  0  0
   -0.7620   19.2970   -1.4340 C   0  0  0  0  0  0  0  0  0  0  0  0
    2.2400   15.0400   -0.8740 C   0  0  1  0  0  0  0  0  0  0  0  0
    3.0980   15.4160    0.3720 C   0  0  0  0  0  0  0  0  0  0  0  0
    3.1240   14.0730   -1.7470 C   0  0  0  0  0  0  0  0  0  0  0  0
    2.3770   13.0800   -2.6570 C   0  0  0  0  0  0  0  0  0  0  0  0
    1.2870   12.3360   -1.8790 C   0  0  2  0  0  0  0  0  0  0  0  0
    1.9890   11.4990   -0.7560 C   0  0  0  0  0  0  0  0  0  0  0  0
    0.2724    9.0251   -1.3095 H   0  0  0  0  0  0  0  0  0  0  0  0
   -0.8677    8.9483   -2.6955 H   0  0  0  0  0  0  0  0  0  0  0  0
    0.6156    7.9352   -2.6955 H   0  0  0  0  0  0  0  0  0  0  0  0
    0.8508    9.8861   -4.1798 H   0  0  0  0  0  0  0  0  0  0  0  0
    2.6412   10.5675   -1.8507 H   0  0  0  0  0  0  0  0  0  0  0  0
    2.7457    8.9331   -2.6639 H   0  0  0  0  0  0  0  0  0  0  0  0
    3.3784    9.8685   -4.7216 H   0  0  0  0  0  0  0  0  0  0  0  0
    2.9205   11.5394   -4.1881 H   0  0  0  0  0  0  0  0  0  0  0  0
    4.5313   10.3324   -2.4385 H   0  0  0  0  0  0  0  0  0  0  0  0
    5.3923    9.4779   -5.9050 H   0  0  0  0  0  0  0  0  0  0  0  0
    5.1834   11.2298   -6.2424 H   0  0  0  0  0  0  0  0  0  0  0  0
    6.8269   10.5049   -6.2424 H   0  0  0  0  0  0  0  0  0  0  0  0
    7.2190   10.5508   -2.6017 H   0  0  0  0  0  0  0  0  0  0  0  0
    7.6892    9.5550   -4.0208 H   0  0  0  0  0  0  0  0  0  0  0  0
    8.0037   11.3235   -4.0208 H   0  0  0  0  0  0  0  0  0  0  0  0
    0.1899   11.8051   -3.6932 H   0  0  0  0  0  0  0  0  0  0  0  0
   -1.7908   11.2986   -2.4049 H   0  0  0  0  0  0  0  0  0  0  0  0
   -0.8822   10.2853   -1.2626 H   0  0  0  0  0  0  0  0  0  0  0  0
   -1.8174   12.9368   -0.7504 H   0  0  0  0  0  0  0  0  0  0  0  0
   -0.6126   12.1081    0.2317 H   0  0  0  0  0  0  0  0  0  0  0  0
   -1.1553   14.9361   -2.0265 H   0  0  0  0  0  0  0  0  0  0  0  0
    0.2609   14.7046   -3.1070 H   0  0  0  0  0  0  0  0  0  0  0  0
   -1.0746   13.5033   -3.1070 H   0  0  0  0  0  0  0  0  0  0  0  0
    1.2569   13.6293    0.4547 H   0  0  0  0  0  0  0  0  0  0  0  0
   -0.9967   14.8795    0.4434 H   0  0  0  0  0  0  0  0  0  0  0  0
    0.4599   15.5518    1.3464 H   0  0  0  0  0  0  0  0  0  0  0  0
   -0.9825   17.2959   -0.0042 H   0  0  0  0  0  0  0  0  0  0  0  0
    1.6818   15.9324   -2.7128 H   0  0  0  0  0  0  0  0  0  0  0  0
    3.3574   17.6800   -0.8057 H   0  0  0  0  0  0  0  0  0  0  0  0
    3.9587   16.7567   -2.2539 H   0  0  0  0  0  0  0  0  0  0  0  0
    3.7155   19.1749   -2.7189 H   0  0  0  0  0  0  0  0  0  0  0  0
    2.6277   18.1474   -3.7321 H   0  0  0  0  0  0  0  0  0  0  0  0
    1.3947   20.0609   -2.9755 H   0  0  0  0  0  0  0  0  0  0  0  0
    1.5740   20.7910   -0.9570 H   0  0  0  0  0  0  0  0  0  0  0  0
   -1.0416   17.3545   -3.3712 H   0  0  0  0  0  0  0  0  0  0  0  0
   -0.4701   18.9251   -4.0297 H   0  0  0  0  0  0  0  0  0  0  0  0
    0.6233   17.5000   -4.0297 H   0  0  0  0  0  0  0  0  0  0  0  0
   -0.6880   19.2385   -0.3380 H   0  0  0  0  0  0  0  0  0  0  0  0
   -0.6348   20.3414   -1.7549 H   0  0  0  0  0  0  0  0  0  0  0  0
   -1.7490   18.9325   -1.7549 H   0  0  0  0  0  0  0  0  0  0  0  0
    2.5406   15.1717    1.2883 H   0  0  0  0  0  0  0  0  0  0  0  0
    4.0399   14.8482    0.3535 H   0  0  0  0  0  0  0  0  0  0  0  0
    3.3189   16.4934    0.3535 H   0  0  0  0  0  0  0  0  0  0  0  0
    3.7639   14.6961   -2.3891 H   0  0  0  0  0  0  0  0  0  0  0  0
    3.6666   13.4473   -1.0231 H   0  0  0  0  0  0  0  0  0  0  0  0
    1.9130   13.6322   -3.4875 H   0  0  0  0  0  0  0  0  0  0  0  0
    3.0991   12.3437   -3.0397 H   0  0  0  0  0  0  0  0  0  0  0  0
    1.6756   11.8727    0.2300 H   0  0  0  0  0  0  0  0  0  0  0  0
    1.7040   10.4412   -0.8547 H   0  0  0  0  0  0  0  0  0  0  0  0
    3.0803   11.5955   -0.8547 H   0  0  0  0  0  0  0  0  0  0  0  0
  1  2  1  0
  2  3  1  0
  3  4  1  0
  4  5  1  0
  5  6  1  0
  6  7  1  0
  7  8  1  0
  7  9  1  0
  2 10  1  0
 10 11  1  0
 11 12  1  0
 12 13  1  0
 13 14  1  6
 13 15  1  0
 15 16  1  0
 16 17  1  0
 17 18  2  0
 18 19  1  0
 19 20  1  0
 20 21  1  0
 21 22  1  0
 22 23  1  0
 22 24  1  0
 24 25  1  0
 24 26  1  0
 19 27  1  0
 27 28  1  1
 27 29  1  0
 29 30  1  0
 30 31  1  0
 31 32  1  1
  7  5  1  0
 31 10  1  0
 31 13  1  0
 27 15  1  0
 24 18  1  0
  1 33  1  0
  1 34  1  0
  1 35  1  0
  2 36  1  6
  3 37  1  0
  3 38  1  0
  4 39  1  0
  4 40  1  0
  5 41  1  1
  8 42  1  0
  8 43  1  0
  8 44  1  0
  9 45  1  0
  9 46  1  0
  9 47  1  0
 10 48  1  6
 11 49  1  0
 11 50  1  0
 12 51  1  0
 12 52  1  0
 14 53  1  0
 14 54  1  0
 14 55  1  0
 15 56  1  1
 16 57  1  0
 16 58  1  0
 17 59  1  0
 19 60  1  6
 20 61  1  0
 20 62  1  0
 21 63  1  0
 21 64  1  0
 22 65  1  6
 23 66  1  0
 25 67  1  0
 25 68  1  0
 25 69  1  0
 26 70  1  0
 26 71  1  0
 26 72  1  0
 28 73  1  0
 28 74  1  0
 28 75  1  0
 29 76  1  0
 29 77  1  0
 30 78  1  0
 30 79  1  0
 32 80  1  0
 32 81  1  0
 32 82  1  0
M  END
>  <meeko>  (12) 
{"is_sidechain": [false], "intermolecular_energy": 2.731, "internal_energy": -0.839}

$$$$
EPH_relaxed_0001_pdb2pqr_Repair_144_r2_0001_out
     RDKit          3D

 82 86  0  0  0  0  0  0  0  0999 V2000
    0.3630   10.3370   -3.4630 C   0  0  0  0  0  0  0  0  0  0  0  0
    1.1730   10.1100   -2.1840 C   0  0  2  0  0  0  0  0  0  0  0  0
    0.6280    8.9320   -1.3530 C   0  0  0  0  0  0  0  0  0  0  0  0
   -0.6160    8.2760   -1.9570 C   0  0  0  0  0  0  0  0  0  0  0  0
   -1.7680    8.2840   -0.9980 C   0  0  2  0  0  0  0  0  0  0  0  0
   -3.0330    8.6210   -1.5840 O   0  0  0  0  0  0  0  0  0  0  0  0
   -2.5210    9.5410   -0.6050 C   0  0  0  0  0  0  0  0  0  0  0  0
   -2.1510   10.8790   -1.1640 C   0  0  0  0  0  0  0  0  0  0  0  0
   -3.2890    9.5430    0.6790 C   0  0  0  0  0  0  0  0  0  0  0  0
    1.1830   11.3810   -1.3430 C   0  0  1  0  0  0  0  0  0  0  0  0
    2.0230   11.2320   -0.0460 C   0  0  0  0  0  0  0  0  0  0  0  0
    2.6860   12.6090    0.2170 C   0  0  0  0  0  0  0  0  0  0  0  0
    1.9510   13.5840   -0.7330 C   0  0  1  0  0  0  0  0  0  0  0  0
    0.6230   13.9400    0.0070 C   0  0  0  0  0  0  0  0  0  0  0  0
    2.7400   14.8670   -1.1510 C   0  0  2  0  0  0  0  0  0  0  0  0
    3.1070   15.8140    0.0050 C   0  0  0  0  0  0  0  0  0  0  0  0
    2.0990   16.8730    0.3060 C   0  0  0  0  0  0  0  0  0  0  0  0
    1.0840   17.2380   -0.4980 C   0  0  0  0  0  0  0  0  0  0  0  0
    0.9300   16.6300   -1.8980 C   0  0  1  0  0  0  0  0  0  0  0  0
    0.6510   17.7580   -2.9260 C   0  0  0  0  0  0  0  0  0  0  0  0
   -0.5400   18.6260   -2.5320 C   0  0  0  0  0  0  0  0  0  0  0  0
   -0.3250   19.2600   -1.1600 C   0  0  2  0  0  0  0  0  0  0  0  0
    0.7550   20.1940   -1.2490 O   0  0  0  0  0  0  0  0  0  0  0  0
   -0.0250   18.2190   -0.0450 C   0  0  0  0  0  0  0  0  0  0  0  0
   -1.3040   17.4000    0.2590 C   0  0  0  0  0  0  0  0  0  0  0  0
    0.3120   18.9970    1.2550 C   0  0  0  0  0  0  0  0  0  0  0  0
    2.0970   15.6560   -2.3630 C   0  0  1  0  0  0  0  0  0  0  0  0
    3.2480   16.4800   -3.0180 C   0  0  0  0  0  0  0  0  0  0  0  0
    1.5490   14.6930   -3.4810 C   0  0  0  0  0  0  0  0  0  0  0  0
    0.8860   13.3850   -3.0080 C   0  0  0  0  0  0  0  0  0  0  0  0
    1.7720   12.6590   -1.9910 C   0  0  2  0  0  0  0  0  0  0  0  0
    3.1070   12.2680   -2.7120 C   0  0  0  0  0  0  0  0  0  0  0  0
   -0.6653   10.6252   -3.1995 H   0  0  0  0  0  0  0  0  0  0  0  0
    0.8285   11.1393   -4.0543 H   0  0  0  0  0  0  0  0  0  0  0  0
    0.3438    9.4096   -4.0543 H   0  0  0  0  0  0  0  0  0  0  0  0
    2.2001    9.8546   -2.4835 H   0  0  0  0  0  0  0  0  0  0  0  0
    1.4173    8.1702   -1.2714 H   0  0  0  0  0  0  0  0  0  0  0  0
    0.3337    9.3383   -0.3741 H   0  0  0  0  0  0  0  0  0  0  0  0
   -0.9041    8.8264   -2.8648 H   0  0  0  0  0  0  0  0  0  0  0  0
   -0.3722    7.2293   -2.1913 H   0  0  0  0  0  0  0  0  0  0  0  0
   -1.3067    7.4835   -0.4009 H   0  0  0  0  0  0  0  0  0  0  0  0
   -1.9571   11.5802   -0.3389 H   0  0  0  0  0  0  0  0  0  0  0  0
   -1.2463   10.7808   -1.7820 H   0  0  0  0  0  0  0  0  0  0  0  0
   -2.9776   11.2595   -1.7820 H   0  0  0  0  0  0  0  0  0  0  0  0
   -2.5872    9.5412    1.5260 H   0  0  0  0  0  0  0  0  0  0  0  0
   -3.9199   10.4428    0.7275 H   0  0  0  0  0  0  0  0  0  0  0  0
   -3.9246    8.6465    0.7275 H   0  0  0  0  0  0  0  0  0  0  0  0
    0.1017   11.5051   -1.1839 H   0  0  0  0  0  0  0  0  0  0  0  0
    1.3724   10.9573    0.7974 H   0  0  0  0  0  0  0  0  0  0  0  0
    2.7811   10.4424   -0.1545 H   0  0  0  0  0  0  0  0  0  0  0  0
    2.5495   12.9117    1.2657 H   0  0  0  0  0  0  0  0  0  0  0  0
    3.7711   12.5905    0.0377 H   0  0  0  0  0  0  0  0  0  0  0  0
    0.7859   13.8963    1.0940 H   0  0  0  0  0  0  0  0  0  0  0  0
    0.3063   14.9548   -0.2758 H   0  0  0  0  0  0  0  0  0  0  0  0
   -0.1588   13.2197   -0.2758 H   0  0  0  0  0  0  0  0  0  0  0  0
    3.6933   14.4515   -1.5095 H   0  0  0  0  0  0  0  0  0  0  0  0
    3.2430   15.2066    0.9119 H   0  0  0  0  0  0  0  0  0  0  0  0
    4.0182   16.3424   -0.3120 H   0  0  0  0  0  0  0  0  0  0  0  0
    2.1942   17.3998    1.2670 H   0  0  0  0  0  0  0  0  0  0  0  0
    0.0638   15.9544   -1.8417 H   0  0  0  0  0  0  0  0  0  0  0  0
    1.5437   18.3965   -3.0001 H   0  0  0  0  0  0  0  0  0  0  0  0
    0.4135   17.2816   -3.8886 H   0  0  0  0  0  0  0  0  0  0  0  0
   -0.6679   19.4222   -3.2801 H   0  0  0  0  0  0  0  0  0  0  0  0
   -1.4370   17.9909   -2.4878 H   0  0  0  0  0  0  0  0  0  0  0  0
   -1.2621   19.7617   -0.8770 H   0  0  0  0  0  0  0  0  0  0  0  0
    0.5030   20.8750   -1.8950 H   0  0  0  0  0  0  0  0  0  0  0  0
   -1.4354   17.3159    1.3479 H   0  0  0  0  0  0  0  0  0  0  0  0
   -2.1768   17.9076   -0.1775 H   0  0  0  0  0  0  0  0  0  0  0  0
   -1.2082   16.3949   -0.1775 H   0  0  0  0  0  0  0  0  0  0  0  0
    0.0463   18.3837    2.1287 H   0  0  0  0  0  0  0  0  0  0  0  0
    1.3884   19.2224    1.2789 H   0  0  0  0  0  0  0  0  0  0  0  0
   -0.2599   19.9363    1.2789 H   0  0  0  0  0  0  0  0  0  0  0  0
    3.8727   16.9272   -2.2308 H   0  0  0  0  0  0  0  0  0  0  0  0
    3.8643   15.8167   -3.6426 H   0  0  0  0  0  0  0  0  0  0  0  0
    2.8187   17.2772   -3.6426 H   0  0  0  0  0  0  0  0  0  0  0  0
    0.8030   15.2518   -4.0651 H   0  0  0  0  0  0  0  0  0  0  0  0
    2.4366   14.3767   -4.0486 H   0  0  0  0  0  0  0  0  0  0  0  0
   -0.0811   13.6204   -2.5397 H   0  0  0  0  0  0  0  0  0  0  0  0
    0.7418   12.7293   -3.8794 H   0  0  0  0  0  0  0  0  0  0  0  0
    3.8774   12.0424   -1.9600 H   0  0  0  0  0  0  0  0  0  0  0  0
    2.9380   11.3816   -3.3411 H   0  0  0  0  0  0  0  0  0  0  0  0
    3.4429   13.1055   -3.3411 H   0  0  0  0  0  0  0  0  0  0  0  0
  1  2  1  0
  2  3  1  0
  3  4  1  0
  4  5  1  0
  5  6  1  0
  6  7  1  0
  7  8  1  0
  7  9  1  0
  2 10  1  0
 10 11  1  0
 11 12  1  0
 12 13  1  0
 13 14  1  1
 13 15  1  0
 15 16  1  0
 16 17  1  0
 17 18  2  0
 18 19  1  0
 19 20  1  0
 20 21  1  0
 21 22  1  0
 22 23  1  0
 22 24  1  0
 24 25  1  0
 24 26  1  0
 19 27  1  0
 27 28  1  6
 27 29  1  0
 29 30  1  0
 30 31  1  0
 31 32  1  6
  7  5  1  0
 31 10  1  0
 31 13  1  0
 27 15  1  0
 24 18  1  0
  1 33  1  0
  1 34  1  0
  1 35  1  0
  2 36  1  6
  3 37  1  0
  3 38  1  0
  4 39  1  0
  4 40  1  0
  5 41  1  1
  8 42  1  0
  8 43  1  0
  8 44  1  0
  9 45  1  0
  9 46  1  0
  9 47  1  0
 10 48  1  1
 11 49  1  0
 11 50  1  0
 12 51  1  0
 12 52  1  0
 14 53  1  0
 14 54  1  0
 14 55  1  0
 15 56  1  6
 16 57  1  0
 16 58  1  0
 17 59  1  0
 19 60  1  1
 20 61  1  0
 20 62  1  0
 21 63  1  0
 21 64  1  0
 22 65  1  1
 23 66  1  0
 25 67  1  0
 25 68  1  0
 25 69  1  0
 26 70  1  0
 26 71  1  0
 26 72  1  0
 28 73  1  0
 28 74  1  0
 28 75  1  0
 29 76  1  0
 29 77  1  0
 30 78  1  0
 30 79  1  0
 32 80  1  0
 32 81  1  0
 32 82  1  0
M  END
>  <meeko>  (13) 
{"is_sidechain": [false], "intermolecular_energy": 2.731, "internal_energy": -0.839}

$$$$
EPH_relaxed_0001_pdb2pqr_Repair_144_r2_0001_out
     RDKit          3D

 82 86  0  0  0  0  0  0  0  0999 V2000
   -0.0270   17.9210   -2.4190 C   0  0  0  0  0  0  0  0  0  0  0  0
   -0.1030   16.9810   -1.2130 C   0  0  2  0  0  0  0  0  0  0  0  0
   -0.1150   17.7490    0.1240 C   0  0  0  0  0  0  0  0  0  0  0  0
    0.5730   19.1150    0.0540 C   0  0  0  0  0  0  0  0  0  0  0  0
    1.7480   19.1910    0.9810 C   0  0  2  0  0  0  0  0  0  0  0  0
    2.7150   20.1940    0.6420 O   0  0  0  0  0  0  0  0  0  0  0  0
    3.1640   18.8310    0.5700 C   0  0  0  0  0  0  0  0  0  0  0  0
    3.4780   18.3670   -0.8180 C   0  0  0  0  0  0  0  0  0  0  0  0
    4.1470   18.4630    1.6360 C   0  0  0  0  0  0  0  0  0  0  0  0
    1.0660   16.0030   -1.2420 C   0  0  1  0  0  0  0  0  0  0  0  0
    1.5960   15.6650    0.1770 C   0  0  0  0  0  0  0  0  0  0  0  0
    2.0480   14.1820    0.1430 C   0  0  0  0  0  0  0  0  0  0  0  0
    2.0750   13.8160   -1.3590 C   0  0  1  0  0  0  0  0  0  0  0  0
    3.4360   14.3740   -1.8830 C   0  0  0  0  0  0  0  0  0  0  0  0
    1.9000   12.3020   -1.7050 C   0  0  2  0  0  0  0  0  0  0  0  0
    3.0050   11.3770   -1.1640 C   0  0  0  0  0  0  0  0  0  0  0  0
    4.1640   11.1640   -2.0800 C   0  0  0  0  0  0  0  0  0  0  0  0
    4.1870   11.4580   -3.3940 C   0  0  0  0  0  0  0  0  0  0  0  0
    2.9310   11.9740   -4.1080 C   0  0  1  0  0  0  0  0  0  0  0  0
    2.7410   11.2060   -5.4420 C   0  0  0  0  0  0  0  0  0  0  0  0
    3.9800   11.2600   -6.3300 C   0  0  0  0  0  0  0  0  0  0  0  0
    5.1950   10.6850   -5.6060 C   0  0  2  0  0  0  0  0  0  0  0  0
    4.9900    9.2840   -5.4030 O   0  0  0  0  0  0  0  0  0  0  0  0
    5.4790   11.3750   -4.2420 C   0  0  0  0  0  0  0  0  0  0  0  0
    5.9950   12.8150   -4.4850 C   0  0  0  0  0  0  0  0  0  0  0  0
    6.6400   10.6090   -3.5530 C   0  0  0  0  0  0  0  0  0  0  0  0
    1.6040   12.0160   -3.2330 C   0  0  1  0  0  0  0  0  0  0  0  0
    0.8820   10.6350   -3.2960 C   0  0  0  0  0  0  0  0  0  0  0  0
    0.6100   13.0660   -3.8570 C   0  0  0  0  0  0  0  0  0  0  0  0
    0.7550   14.5250   -3.3850 C   0  0  0  0  0  0  0  0  0  0  0  0
    0.8090   14.6050   -1.8570 C   0  0  2  0  0  0  0  0  0  0  0  0
   -0.5550   14.0710   -1.3020 C   0  0  0  0  0  0  0  0  0  0  0  0
    0.0570   18.9604   -2.0690 H   0  0  0  0  0  0  0  0  0  0  0  0
    0.8535   17.6666   -3.0273 H   0  0  0  0  0  0  0  0  0  0  0  0
   -0.9369   17.8114   -3.0273 H   0  0  0  0  0  0  0  0  0  0  0  0
   -1.0518   16.4290   -1.2838 H   0  0  0  0  0  0  0  0  0  0  0  0
   -1.1612   17.9020    0.4275 H   0  0  0  0  0  0  0  0  0  0  0  0
    0.4472   17.1421    0.8490 H   0  0  0  0  0  0  0  0  0  0  0  0
    0.9194   19.2875   -0.9757 H   0  0  0  0  0  0  0  0  0  0  0  0
   -0.1546   19.8818    0.3584 H   0  0  0  0  0  0  0  0  0  0  0  0
    1.1252   18.8797    1.8326 H   0  0  0  0  0  0  0  0  0  0  0  0
    4.0939   17.4569   -0.7698 H   0  0  0  0  0  0  0  0  0  0  0  0
    2.5416   18.1482   -1.3521 H   0  0  0  0  0  0  0  0  0  0  0  0
    4.0293   19.1549   -1.3521 H   0  0  0  0  0  0  0  0  0  0  0  0
    3.6958   18.6319    2.6249 H   0  0  0  0  0  0  0  0  0  0  0  0
    4.4191   17.4021    1.5335 H   0  0  0  0  0  0  0  0  0  0  0  0
    5.0489   19.0844    1.5335 H   0  0  0  0  0  0  0  0  0  0  0  0
    1.7647   16.5689   -1.8757 H   0  0  0  0  0  0  0  0  0  0  0  0
    2.4471   16.3149    0.4284 H   0  0  0  0  0  0  0  0  0  0  0  0
    0.8177   15.8238    0.9380 H   0  0  0  0  0  0  0  0  0  0  0  0
    3.0479   14.0706    0.5877 H   0  0  0  0  0  0  0  0  0  0  0  0
    1.3768   13.5283    0.7193 H   0  0  0  0  0  0  0  0  0  0  0  0
    4.0776   14.6370   -1.0291 H   0  0  0  0  0  0  0  0  0  0  0  0
    3.9353   13.6080   -2.4945 H   0  0  0  0  0  0  0  0  0  0  0  0
    3.2539   15.2700   -2.4945 H   0  0  0  0  0  0  0  0  0  0  0  0
    0.9890   12.0369   -1.1484 H   0  0  0  0  0  0  0  0  0  0  0  0
    3.3864   11.8139   -0.2293 H   0  0  0  0  0  0  0  0  0  0  0  0
    2.5374   10.3903   -1.0308 H   0  0  0  0  0  0  0  0  0  0  0  0
    5.0765   10.7302   -1.6450 H   0  0  0  0  0  0  0  0  0  0  0  0
    3.1140   13.0390   -4.3138 H   0  0  0  0  0  0  0  0  0  0  0  0
    2.5163   10.1536   -5.2140 H   0  0  0  0  0  0  0  0  0  0  0  0
    1.9169   11.6868   -5.9894 H   0  0  0  0  0  0  0  0  0  0  0  0
    3.7946   10.6749   -7.2428 H   0  0  0  0  0  0  0  0  0  0  0  0
    4.1860   12.3107   -6.5821 H   0  0  0  0  0  0  0  0  0  0  0  0
    6.0748   10.8700   -6.2399 H   0  0  0  0  0  0  0  0  0  0  0  0
    5.8430    8.8960   -5.1420 H   0  0  0  0  0  0  0  0  0  0  0  0
    6.1720   13.3091   -3.5183 H   0  0  0  0  0  0  0  0  0  0  0  0
    6.9352   12.7763   -5.0547 H   0  0  0  0  0  0  0  0  0  0  0  0
    5.2442   13.3823   -5.0547 H   0  0  0  0  0  0  0  0  0  0  0  0
    6.5300   10.6816   -2.4609 H   0  0  0  0  0  0  0  0  0  0  0  0
    6.6118    9.5516   -3.8549 H   0  0  0  0  0  0  0  0  0  0  0  0
    7.6010   11.0510   -3.8549 H   0  0  0  0  0  0  0  0  0  0  0  0
    0.6929   10.2732   -2.2746 H   0  0  0  0  0  0  0  0  0  0  0  0
   -0.0740   10.7450   -3.8289 H   0  0  0  0  0  0  0  0  0  0  0  0
    1.5179    9.9128   -3.8289 H   0  0  0  0  0  0  0  0  0  0  0  0
    0.7537   13.0531   -4.9475 H   0  0  0  0  0  0  0  0  0  0  0  0
   -0.3890   12.7523   -3.5201 H   0  0  0  0  0  0  0  0  0  0  0  0
    1.6822   14.9469   -3.8002 H   0  0  0  0  0  0  0  0  0  0  0  0
   -0.1184   15.0948   -3.7349 H   0  0  0  0  0  0  0  0  0  0  0  0
   -0.5321   14.0800   -0.2023 H   0  0  0  0  0  0  0  0  0  0  0  0
   -1.3728   14.7154   -1.6570 H   0  0  0  0  0  0  0  0  0  0  0  0
   -0.7179   13.0427   -1.6570 H   0  0  0  0  0  0  0  0  0  0  0  0
  1  2  1  0
  2  3  1  0
  3  4  1  0
  4  5  1  0
  5  6  1  0
  6  7  1  0
  7  8  1  0
  7  9  1  0
  2 10  1  0
 10 11  1  0
 11 12  1  0
 12 13  1  0
 13 14  1  6
 13 15  1  0
 15 16  1  0
 16 17  1  0
 17 18  2  0
 18 19  1  0
 19 20  1  0
 20 21  1  0
 21 22  1  0
 22 23  1  0
 22 24  1  0
 24 25  1  0
 24 26  1  0
 19 27  1  0
 27 28  1  1
 27 29  1  0
 29 30  1  0
 30 31  1  0
 31 32  1  1
  7  5  1  0
 31 10  1  0
 31 13  1  0
 27 15  1  0
 24 18  1  0
  1 33  1  0
  1 34  1  0
  1 35  1  0
  2 36  1  6
  3 37  1  0
  3 38  1  0
  4 39  1  0
  4 40  1  0
  5 41  1  1
  8 42  1  0
  8 43  1  0
  8 44  1  0
  9 45  1  0
  9 46  1  0
  9 47  1  0
 10 48  1  6
 11 49  1  0
 11 50  1  0
 12 51  1  0
 12 52  1  0
 14 53  1  0
 14 54  1  0
 14 55  1  0
 15 56  1  1
 16 57  1  0
 16 58  1  0
 17 59  1  0
 19 60  1  6
 20 61  1  0
 20 62  1  0
 21 63  1  0
 21 64  1  0
 22 65  1  6
 23 66  1  0
 25 67  1  0
 25 68  1  0
 25 69  1  0
 26 70  1  0
 26 71  1  0
 26 72  1  0
 28 73  1  0
 28 74  1  0
 28 75  1  0
 29 76  1  0
 29 77  1  0
 30 78  1  0
 30 79  1  0
 32 80  1  0
 32 81  1  0
 32 82  1  0
M  END
>  <meeko>  (14) 
{"is_sidechain": [false], "intermolecular_energy": 2.731, "internal_energy": -0.839}

$$$$
EPH_relaxed_0001_pdb2pqr_Repair_144_r2_0001_out
     RDKit          3D

 82 86  0  0  0  0  0  0  0  0999 V2000
   -5.1100    5.8900   -1.8250 C   0  0  0  0  0  0  0  0  0  0  0  0
   -5.4420    7.3850   -1.8330 C   0  0  2  0  0  0  0  0  0  0  0  0
   -5.2330    8.0340   -0.4500 C   0  0  0  0  0  0  0  0  0  0  0  0
   -4.1900    9.1550   -0.4480 C   0  0  0  0  0  0  0  0  0  0  0  0
   -2.8260    8.6430   -0.7960 C   0  0  2  0  0  0  0  0  0  0  0  0
   -1.8000    8.9810    0.1470 O   0  0  0  0  0  0  0  0  0  0  0  0
   -1.6630    9.5450   -1.1670 C   0  0  0  0  0  0  0  0  0  0  0  0
   -1.8130   11.0340   -1.2080 C   0  0  0  0  0  0  0  0  0  0  0  0
   -0.5310    8.9660   -1.9570 C   0  0  0  0  0  0  0  0  0  0  0  0
   -6.8790    7.5950   -2.2960 C   0  0  1  0  0  0  0  0  0  0  0  0
   -7.1830    6.8850   -3.6420 C   0  0  0  0  0  0  0  0  0  0  0  0
   -8.6540    6.4010   -3.5700 C   0  0  0  0  0  0  0  0  0  0  0  0
   -9.2440    7.1290   -2.3390 C   0  0  1  0  0  0  0  0  0  0  0  0
   -9.6080    8.5570   -2.8540 C   0  0  0  0  0  0  0  0  0  0  0  0
  -10.4640    6.4380   -1.6460 C   0  0  2  0  0  0  0  0  0  0  0  0
  -11.7190    6.2950   -2.5250 C   0  0  0  0  0  0  0  0  0  0  0  0
  -12.6810    7.4330   -2.4530 C   0  0  0  0  0  0  0  0  0  0  0  0
  -12.6910    8.3910   -1.5070 C   0  0  0  0  0  0  0  0  0  0  0  0
  -11.7230    8.3320   -0.3170 C   0  0  1  0  0  0  0  0  0  0  0  0
  -12.4990    8.6180    0.9950 C   0  0  0  0  0  0  0  0  0  0  0  0
  -13.2790    9.9280    0.9410 C   0  0  0  0  0  0  0  0  0  0  0  0
  -14.2710    9.9240   -0.2190 C   0  0  2  0  0  0  0  0  0  0  0  0
  -15.2800    8.9440    0.0410 O   0  0  0  0  0  0  0  0  0  0  0  0
  -13.6050    9.6370   -1.5930 C   0  0  0  0  0  0  0  0  0  0  0  0
  -12.7370   10.8490   -2.0140 C   0  0  0  0  0  0  0  0  0  0  0  0
  -14.7320    9.5220   -2.6550 C   0  0  0  0  0  0  0  0  0  0  0  0
  -10.8200    7.0280   -0.2220 C   0  0  1  0  0  0  0  0  0  0  0  0
  -11.5840    5.9070    0.5460 C   0  0  0  0  0  0  0  0  0  0  0  0
   -9.5360    7.3530    0.6290 C   0  0  0  0  0  0  0  0  0  0  0  0
   -8.3230    7.9220   -0.1320 C   0  0  0  0  0  0  0  0  0  0  0  0
   -8.0080    7.0770   -1.3700 C   0  0  2  0  0  0  0  0  0  0  0  0
   -7.6170    5.6410   -0.8820 C   0  0  0  0  0  0  0  0  0  0  0  0
   -5.0317    5.5374   -0.7860 H   0  0  0  0  0  0  0  0  0  0  0  0
   -5.9067    5.3347   -2.3416 H   0  0  0  0  0  0  0  0  0  0  0  0
   -4.1531    5.7241   -2.3416 H   0  0  0  0  0  0  0  0  0  0  0  0
   -4.7501    7.8743   -2.5343 H   0  0  0  0  0  0  0  0  0  0  0  0
   -6.1932    8.4523   -0.1139 H   0  0  0  0  0  0  0  0  0  0  0  0
   -4.8604    7.2467    0.2218 H   0  0  0  0  0  0  0  0  0  0  0  0
   -4.4838    9.9166   -1.1853 H   0  0  0  0  0  0  0  0  0  0  0  0
   -4.1478    9.5825    0.5647 H   0  0  0  0  0  0  0  0  0  0  0  0
   -3.2579    7.7569   -1.2841 H   0  0  0  0  0  0  0  0  0  0  0  0
   -1.8526   11.4269   -0.1813 H   0  0  0  0  0  0  0  0  0  0  0  0
   -0.9547   11.4746   -1.7364 H   0  0  0  0  0  0  0  0  0  0  0  0
   -2.7419   11.2945   -1.7364 H   0  0  0  0  0  0  0  0  0  0  0  0
    0.2336    8.5749   -1.2696 H   0  0  0  0  0  0  0  0  0  0  0  0
   -0.9064    8.1492   -2.5910 H   0  0  0  0  0  0  0  0  0  0  0  0
   -0.0884    9.7484   -2.5910 H   0  0  0  0  0  0  0  0  0  0  0  0
   -6.9005    8.6941   -2.3363 H   0  0  0  0  0  0  0  0  0  0  0  0
   -7.0561    7.5882   -4.4783 H   0  0  0  0  0  0  0  0  0  0  0  0
   -6.4971    6.0410   -3.8071 H   0  0  0  0  0  0  0  0  0  0  0  0
   -9.1995    6.6789   -4.4839 H   0  0  0  0  0  0  0  0  0  0  0  0
   -8.7297    5.3070   -3.4838 H   0  0  0  0  0  0  0  0  0  0  0  0
   -9.7780    9.2239   -1.9959 H   0  0  0  0  0  0  0  0  0  0  0  0
   -8.7809    8.9485   -3.4645 H   0  0  0  0  0  0  0  0  0  0  0  0
  -10.5216    8.5048   -3.4645 H   0  0  0  0  0  0  0  0  0  0  0  0
  -10.0946    5.4146   -1.4842 H   0  0  0  0  0  0  0  0  0  0  0  0
  -11.3919    6.1922   -3.5702 H   0  0  0  0  0  0  0  0  0  0  0  0
  -12.2589    5.4158   -2.1435 H   0  0  0  0  0  0  0  0  0  0  0  0
  -13.4473    7.4946   -3.2397 H   0  0  0  0  0  0  0  0  0  0  0  0
  -10.9785    9.1231   -0.4898 H   0  0  0  0  0  0  0  0  0  0  0  0
  -13.2058    7.7941    1.1731 H   0  0  0  0  0  0  0  0  0  0  0  0
  -11.7616    8.7023    1.8069 H   0  0  0  0  0  0  0  0  0  0  0  0
  -13.8289   10.0589    1.8847 H   0  0  0  0  0  0  0  0  0  0  0  0
  -12.5682   10.7543    0.7927 H   0  0  0  0  0  0  0  0  0  0  0  0
  -14.7050   10.9325   -0.2857 H   0  0  0  0  0  0  0  0  0  0  0  0
  -15.7560    8.7840   -0.7910 H   0  0  0  0  0  0  0  0  0  0  0  0
  -12.3674   11.3650   -1.1156 H   0  0  0  0  0  0  0  0  0  0  0  0
  -11.8834   10.4984   -2.6127 H   0  0  0  0  0  0  0  0  0  0  0  0
  -13.3438   11.5443   -2.6127 H   0  0  0  0  0  0  0  0  0  0  0  0
  -15.7037    9.4228   -2.1492 H   0  0  0  0  0  0  0  0  0  0  0  0
  -14.7365   10.4244   -3.2841 H   0  0  0  0  0  0  0  0  0  0  0  0
  -14.5541    8.6373   -3.2841 H   0  0  0  0  0  0  0  0  0  0  0  0
  -11.4760    6.0655    1.6291 H   0  0  0  0  0  0  0  0  0  0  0  0
  -12.6497    5.9380    0.2754 H   0  0  0  0  0  0  0  0  0  0  0  0
  -11.1654    4.9264    0.2754 H   0  0  0  0  0  0  0  0  0  0  0  0
   -9.8223    8.0880    1.3957 H   0  0  0  0  0  0  0  0  0  0  0  0
   -9.1990    6.3828    1.0229 H   0  0  0  0  0  0  0  0  0  0  0  0
   -8.5463    8.9521   -0.4466 H   0  0  0  0  0  0  0  0  0  0  0  0
   -7.4495    7.9047    0.5364 H   0  0  0  0  0  0  0  0  0  0  0  0
   -7.6104    5.6166    0.2177 H   0  0  0  0  0  0  0  0  0  0  0  0
   -8.3496    4.9130   -1.2605 H   0  0  0  0  0  0  0  0  0  0  0  0
   -6.6164    5.3849   -1.2605 H   0  0  0  0  0  0  0  0  0  0  0  0
  1  2  1  0
  2  3  1  0
  3  4  1  0
  4  5  1  0
  5  6  1  0
  6  7  1  0
  7  8  1  0
  7  9  1  0
  2 10  1  0
 10 11  1  0
 11 12  1  0
 12 13  1  0
 13 14  1  6
 13 15  1  0
 15 16  1  0
 16 17  1  0
 17 18  2  0
 18 19  1  0
 19 20  1  0
 20 21  1  0
 21 22  1  0
 22 23  1  0
 22 24  1  0
 24 25  1  0
 24 26  1  0
 19 27  1  0
 27 28  1  1
 27 29  1  0
 29 30  1  0
 30 31  1  0
 31 32  1  1
  7  5  1  0
 31 10  1  0
 31 13  1  0
 27 15  1  0
 24 18  1  0
  1 33  1  0
  1 34  1  0
  1 35  1  0
  2 36  1  6
  3 37  1  0
  3 38  1  0
  4 39  1  0
  4 40  1  0
  5 41  1  6
  8 42  1  0
  8 43  1  0
  8 44  1  0
  9 45  1  0
  9 46  1  0
  9 47  1  0
 10 48  1  6
 11 49  1  0
 11 50  1  0
 12 51  1  0
 12 52  1  0
 14 53  1  0
 14 54  1  0
 14 55  1  0
 15 56  1  1
 16 57  1  0
 16 58  1  0
 17 59  1  0
 19 60  1  6
 20 61  1  0
 20 62  1  0
 21 63  1  0
 21 64  1  0
 22 65  1  6
 23 66  1  0
 25 67  1  0
 25 68  1  0
 25 69  1  0
 26 70  1  0
 26 71  1  0
 26 72  1  0
 28 73  1  0
 28 74  1  0
 28 75  1  0
 29 76  1  0
 29 77  1  0
 30 78  1  0
 30 79  1  0
 32 80  1  0
 32 81  1  0
 32 82  1  0
M  END
>  <meeko>  (15) 
{"is_sidechain": [false], "intermolecular_energy": 2.731, "internal_energy": -0.839}

$$$$
EPH_relaxed_0001_pdb2pqr_Repair_144_r2_0001_out
     RDKit          3D

 82 86  0  0  0  0  0  0  0  0999 V2000
    0.1600   10.0650    1.5840 C   0  0  0  0  0  0  0  0  0  0  0  0
    0.4600   10.3540    0.1100 C   0  0  2  0  0  0  0  0  0  0  0  0
    1.0030    9.1120   -0.6260 C   0  0  0  0  0  0  0  0  0  0  0  0
    0.1070    8.6370   -1.7730 C   0  0  0  0  0  0  0  0  0  0  0  0
   -1.2510    8.2340   -1.2860 C   0  0  2  0  0  0  0  0  0  0  0  0
   -2.3100    8.4330   -2.2310 O   0  0  0  0  0  0  0  0  0  0  0  0
   -2.3760    9.2200   -1.0310 C   0  0  0  0  0  0  0  0  0  0  0  0
   -2.1910   10.6880   -1.2550 C   0  0  0  0  0  0  0  0  0  0  0  0
   -3.4830    8.8200   -0.1070 C   0  0  0  0  0  0  0  0  0  0  0  0
    1.4550   11.5030   -0.0020 C   0  0  1  0  0  0  0  0  0  0  0  0
    2.7960   11.0700   -0.6530 C   0  0  0  0  0  0  0  0  0  0  0  0
    3.2970   12.2750   -1.4890 C   0  0  0  0  0  0  0  0  0  0  0  0
    2.4150   13.4610   -1.0320 C   0  0  1  0  0  0  0  0  0  0  0  0
    3.0630   13.9530    0.2990 C   0  0  0  0  0  0  0  0  0  0  0  0
    2.2420   14.6290   -2.0570 C   0  0  2  0  0  0  0  0  0  0  0  0
    3.5400   15.3640   -2.4330 C   0  0  0  0  0  0  0  0  0  0  0  0
    3.8780   16.5400   -1.5770 C   0  0  0  0  0  0  0  0  0  0  0  0
    3.0330   17.1600   -0.7320 C   0  0  0  0  0  0  0  0  0  0  0  0
    1.5580   16.7470   -0.6470 C   0  0  1  0  0  0  0  0  0  0  0  0
    0.6630   18.0130   -0.6710 C   0  0  0  0  0  0  0  0  0  0  0  0
    1.0490   19.0220    0.4060 C   0  0  0  0  0  0  0  0  0  0  0  0
    2.5050   19.4530    0.2530 C   0  0  2  0  0  0  0  0  0  0  0  0
    2.6410   20.1940   -0.9630 O   0  0  0  0  0  0  0  0  0  0  0  0
    3.5000   18.2600    0.2530 C   0  0  0  0  0  0  0  0  0  0  0  0
    3.5730   17.6420    1.6720 C   0  0  0  0  0  0  0  0  0  0  0  0
    4.9170   18.8190   -0.0490 C   0  0  0  0  0  0  0  0  0  0  0  0
    1.0860   15.6460   -1.6920 C   0  0  1  0  0  0  0  0  0  0  0  0
    0.6560   16.3280   -3.0260 C   0  0  0  0  0  0  0  0  0  0  0  0
   -0.1940   14.9210   -1.1310 C   0  0  0  0  0  0  0  0  0  0  0  0
    0.0410   13.7010   -0.2210 C   0  0  0  0  0  0  0  0  0  0  0  0
    1.0360   12.7250   -0.8570 C   0  0  2  0  0  0  0  0  0  0  0  0
    0.4020   12.1950   -2.1880 C   0  0  0  0  0  0  0  0  0  0  0  0
    0.8069   10.6882    2.2189 H   0  0  0  0  0  0  0  0  0  0  0  0
   -0.8943   10.2965    1.7958 H   0  0  0  0  0  0  0  0  0  0  0  0
    0.3519    9.0028    1.7958 H   0  0  0  0  0  0  0  0  0  0  0  0
   -0.4878   10.6352   -0.3723 H   0  0  0  0  0  0  0  0  0  0  0  0
    1.9933    9.3572   -1.0373 H   0  0  0  0  0  0  0  0  0  0  0  0
    1.0451    8.2949    0.1092 H   0  0  0  0  0  0  0  0  0  0  0  0
   -0.0035    9.4544   -2.5008 H   0  0  0  0  0  0  0  0  0  0  0  0
    0.5798    7.7580   -2.2355 H   0  0  0  0  0  0  0  0  0  0  0  0
   -0.8170    7.4339   -0.6684 H   0  0  0  0  0  0  0  0  0  0  0  0
   -2.1263   11.2017   -0.2845 H   0  0  0  0  0  0  0  0  0  0  0  0
   -1.2643   10.8584   -1.8226 H   0  0  0  0  0  0  0  0  0  0  0  0
   -3.0465   11.0830   -1.8226 H   0  0  0  0  0  0  0  0  0  0  0  0
   -3.1520    8.9396    0.9352 H   0  0  0  0  0  0  0  0  0  0  0  0
   -4.3606    9.4579   -0.2885 H   0  0  0  0  0  0  0  0  0  0  0  0
   -3.7502    7.7685   -0.2885 H   0  0  0  0  0  0  0  0  0  0  0  0
    1.5251   11.7909    1.0573 H   0  0  0  0  0  0  0  0  0  0  0  0
    3.5309   10.8175    0.1256 H   0  0  0  0  0  0  0  0  0  0  0  0
    2.6589   10.1804   -1.2853 H   0  0  0  0  0  0  0  0  0  0  0  0
    4.3580   12.4775   -1.2811 H   0  0  0  0  0  0  0  0  0  0  0  0
    3.2218   12.0920   -2.5711 H   0  0  0  0  0  0  0  0  0  0  0  0
    2.5106   13.5336    1.1527 H   0  0  0  0  0  0  0  0  0  0  0  0
    4.1108   13.6209    0.3414 H   0  0  0  0  0  0  0  0  0  0  0  0
    3.0246   15.0515    0.3414 H   0  0  0  0  0  0  0  0  0  0  0  0
    1.9245   14.0993   -2.9673 H   0  0  0  0  0  0  0  0  0  0  0  0
    4.3696   14.6448   -2.3655 H   0  0  0  0  0  0  0  0  0  0  0  0
    3.3823   15.7608   -3.4467 H   0  0  0  0  0  0  0  0  0  0  0  0
    4.9035   16.9326   -1.6424 H   0  0  0  0  0  0  0  0  0  0  0  0
    1.4425   16.2274    0.3157 H   0  0  0  0  0  0  0  0  0  0  0  0
    0.7588   18.4940   -1.6556 H   0  0  0  0  0  0  0  0  0  0  0  0
   -0.3716   17.6946   -0.4752 H   0  0  0  0  0  0  0  0  0  0  0  0
    0.4008   19.9065    0.3196 H   0  0  0  0  0  0  0  0  0  0  0  0
    0.9246   18.5488    1.3912 H   0  0  0  0  0  0  0  0  0  0  0  0
    2.7593   20.0726    1.1256 H   0  0  0  0  0  0  0  0  0  0  0  0
    1.8950   20.8150   -1.0150 H   0  0  0  0  0  0  0  0  0  0  0  0
    3.4789   18.4390    2.4243 H   0  0  0  0  0  0  0  0  0  0  0  0
    2.7540   16.9188    1.7995 H   0  0  0  0  0  0  0  0  0  0  0  0
    4.5379   17.1295    1.7995 H   0  0  0  0  0  0  0  0  0  0  0  0
    5.4392   19.0250    0.8970 H   0  0  0  0  0  0  0  0  0  0  0  0
    5.4874   18.0785   -0.6290 H   0  0  0  0  0  0  0  0  0  0  0  0
    4.8282   19.7495   -0.6290 H   0  0  0  0  0  0  0  0  0  0  0  0
    0.0815   17.2392   -2.8034 H   0  0  0  0  0  0  0  0  0  0  0  0
    1.5513   16.5920   -3.6080 H   0  0  0  0  0  0  0  0  0  0  0  0
    0.0318   15.6340   -3.6080 H   0  0  0  0  0  0  0  0  0  0  0  0
   -0.7691   15.6603   -0.5543 H   0  0  0  0  0  0  0  0  0  0  0  0
   -0.7109   14.5236   -2.0169 H   0  0  0  0  0  0  0  0  0  0  0  0
    0.4410   14.0442    0.7445 H   0  0  0  0  0  0  0  0  0  0  0  0
   -0.9176   13.1807   -0.0781 H   0  0  0  0  0  0  0  0  0  0  0  0
   -0.4224   11.5058   -1.9525 H   0  0  0  0  0  0  0  0  0  0  0  0
    0.0156   13.0426   -2.7730 H   0  0  0  0  0  0  0  0  0  0  0  0
    1.1677   11.6644   -2.7730 H   0  0  0  0  0  0  0  0  0  0  0  0
  1  2  1  0
  2  3  1  0
  3  4  1  0
  4  5  1  0
  5  6  1  0
  6  7  1  0
  7  8  1  0
  7  9  1  0
  2 10  1  0
 10 11  1  0
 11 12  1  0
 12 13  1  0
 13 14  1  1
 13 15  1  0
 15 16  1  0
 16 17  1  0
 17 18  2  0
 18 19  1  0
 19 20  1  0
 20 21  1  0
 21 22  1  0
 22 23  1  0
 22 24  1  0
 24 25  1  0
 24 26  1  0
 19 27  1  0
 27 28  1  6
 27 29  1  0
 29 30  1  0
 30 31  1  0
 31 32  1  6
  7  5  1  0
 31 10  1  0
 31 13  1  0
 27 15  1  0
 24 18  1  0
  1 33  1  0
  1 34  1  0
  1 35  1  0
  2 36  1  6
  3 37  1  0
  3 38  1  0
  4 39  1  0
  4 40  1  0
  5 41  1  1
  8 42  1  0
  8 43  1  0
  8 44  1  0
  9 45  1  0
  9 46  1  0
  9 47  1  0
 10 48  1  1
 11 49  1  0
 11 50  1  0
 12 51  1  0
 12 52  1  0
 14 53  1  0
 14 54  1  0
 14 55  1  0
 15 56  1  6
 16 57  1  0
 16 58  1  0
 17 59  1  0
 19 60  1  1
 20 61  1  0
 20 62  1  0
 21 63  1  0
 21 64  1  0
 22 65  1  1
 23 66  1  0
 25 67  1  0
 25 68  1  0
 25 69  1  0
 26 70  1  0
 26 71  1  0
 26 72  1  0
 28 73  1  0
 28 74  1  0
 28 75  1  0
 29 76  1  0
 29 77  1  0
 30 78  1  0
 30 79  1  0
 32 80  1  0
 32 81  1  0
 32 82  1  0
M  END
>  <meeko>  (16) 
{"is_sidechain": [false], "intermolecular_energy": 2.731, "internal_energy": -0.839}

$$$$
EPH_relaxed_0001_pdb2pqr_Repair_144_r2_0001_out
     RDKit          3D

 82 86  0  0  0  0  0  0  0  0999 V2000
    3.6330   16.4530   -1.3320 C   0  0  0  0  0  0  0  0  0  0  0  0
    2.3740   16.9160   -2.0710 C   0  0  2  0  0  0  0  0  0  0  0  0
    1.6330   18.0340   -1.3110 C   0  0  0  0  0  0  0  0  0  0  0  0
    2.5410   19.1870   -0.8740 C   0  0  0  0  0  0  0  0  0  0  0  0
    2.6740   19.2540    0.6170 C   0  0  2  0  0  0  0  0  0  0  0  0
    1.8710   18.3060    1.3330 O   0  0  0  0  0  0  0  0  0  0  0  0
    1.5510   19.6910    1.5390 C   0  0  0  0  0  0  0  0  0  0  0  0
    0.2120   20.0920    1.0020 C   0  0  0  0  0  0  0  0  0  0  0  0
    1.9010   20.1940    2.9040 C   0  0  0  0  0  0  0  0  0  0  0  0
    1.4400   15.7330   -2.2980 C   0  0  1  0  0  0  0  0  0  0  0  0
    0.6950   15.8120   -3.6570 C   0  0  0  0  0  0  0  0  0  0  0  0
    0.5450   14.3570   -4.1700 C   0  0  0  0  0  0  0  0  0  0  0  0
    0.9040   13.4740   -2.9520 C   0  0  1  0  0  0  0  0  0  0  0  0
   -0.3940   13.4370   -2.0870 C   0  0  0  0  0  0  0  0  0  0  0  0
    1.4270   12.0360   -3.2710 C   0  0  2  0  0  0  0  0  0  0  0  0
    0.4260   11.1240   -4.0010 C   0  0  0  0  0  0  0  0  0  0  0  0
   -0.4530   10.3040   -3.1160 C   0  0  0  0  0  0  0  0  0  0  0  0
   -0.2530   10.0830   -1.8040 C   0  0  0  0  0  0  0  0  0  0  0  0
    1.0060   10.6040   -1.1000 C   0  0  1  0  0  0  0  0  0  0  0  0
    1.6130    9.4770   -0.2230 C   0  0  0  0  0  0  0  0  0  0  0  0
    0.6010    8.8870    0.7540 C   0  0  0  0  0  0  0  0  0  0  0  0
   -0.6100    8.3270    0.0130 C   0  0  2  0  0  0  0  0  0  0  0  0
   -0.1950    7.1980   -0.7620 O   0  0  0  0  0  0  0  0  0  0  0  0
   -1.2990    9.3700   -0.9110 C   0  0  0  0  0  0  0  0  0  0  0  0
   -2.0110   10.4410   -0.0480 C   0  0  0  0  0  0  0  0  0  0  0  0
   -2.4160    8.6410   -1.7060 C   0  0  0  0  0  0  0  0  0  0  0  0
    2.0870   11.2970   -2.0360 C   0  0  1  0  0  0  0  0  0  0  0  0
    3.0510   10.2210   -2.6240 C   0  0  0  0  0  0  0  0  0  0  0  0
    2.9770   12.2630   -1.1670 C   0  0  0  0  0  0  0  0  0  0  0  0
    2.4660   13.7050   -0.9880 C   0  0  0  0  0  0  0  0  0  0  0  0
    2.0770   14.3210   -2.3360 C   0  0  2  0  0  0  0  0  0  0  0  0
    3.3690   14.3920   -3.2190 C   0  0  0  0  0  0  0  0  0  0  0  0
    3.4647   16.5149   -0.2467 H   0  0  0  0  0  0  0  0  0  0  0  0
    3.8593   15.4128   -1.6093 H   0  0  0  0  0  0  0  0  0  0  0  0
    4.4793   17.0987   -1.6093 H   0  0  0  0  0  0  0  0  0  0  0  0
    2.6919   17.3298   -3.0394 H   0  0  0  0  0  0  0  0  0  0  0  0
    0.8486   18.4391   -1.9672 H   0  0  0  0  0  0  0  0  0  0  0  0
    1.2225   17.5831   -0.3955 H   0  0  0  0  0  0  0  0  0  0  0  0
    3.5384   19.0418   -1.3146 H   0  0  0  0  0  0  0  0  0  0  0  0
    2.0899   20.1286   -1.2204 H   0  0  0  0  0  0  0  0  0  0  0  0
    3.7242   19.5699    0.5324 H   0  0  0  0  0  0  0  0  0  0  0  0
   -0.4722   20.2969    1.8386 H   0  0  0  0  0  0  0  0  0  0  0  0
    0.3199   20.9972    0.3864 H   0  0  0  0  0  0  0  0  0  0  0  0
   -0.1954   19.2765    0.3864 H   0  0  0  0  0  0  0  0  0  0  0  0
    1.4464   19.5406    3.6632 H   0  0  0  0  0  0  0  0  0  0  0  0
    2.9942   20.1926    3.0261 H   0  0  0  0  0  0  0  0  0  0  0  0
    1.5197   21.2186    3.0261 H   0  0  0  0  0  0  0  0  0  0  0  0
    0.7977   15.8325   -1.4105 H   0  0  0  0  0  0  0  0  0  0  0  0
   -0.2960   16.2693   -3.5197 H   0  0  0  0  0  0  0  0  0  0  0  0
    1.2518   16.4293   -4.3773 H   0  0  0  0  0  0  0  0  0  0  0  0
   -0.4875   14.1654   -4.4975 H   0  0  0  0  0  0  0  0  0  0  0  0
    1.1895   14.1524   -5.0376 H   0  0  0  0  0  0  0  0  0  0  0  0
   -0.1243   13.4447   -1.0206 H   0  0  0  0  0  0  0  0  0  0  0  0
   -1.0120   14.3179   -2.3153 H   0  0  0  0  0  0  0  0  0  0  0  0
   -0.9608   12.5223   -2.3153 H   0  0  0  0  0  0  0  0  0  0  0  0
    2.2327   12.2338   -3.9933 H   0  0  0  0  0  0  0  0  0  0  0  0
   -0.2189   11.7590   -4.6262 H   0  0  0  0  0  0  0  0  0  0  0  0
    1.0309   10.4079   -4.5766 H   0  0  0  0  0  0  0  0  0  0  0  0
   -1.3390    9.8414   -3.5753 H   0  0  0  0  0  0  0  0  0  0  0  0
    0.6748   11.4365   -0.4618 H   0  0  0  0  0  0  0  0  0  0  0  0
    1.9763    8.6745   -0.8818 H   0  0  0  0  0  0  0  0  0  0  0  0
    2.4301    9.9169    0.3676 H   0  0  0  0  0  0  0  0  0  0  0  0
    1.0805    8.0774    1.3238 H   0  0  0  0  0  0  0  0  0  0  0  0
    0.2605    9.6843    1.4310 H   0  0  0  0  0  0  0  0  0  0  0  0
   -1.3544    8.0376    0.7693 H   0  0  0  0  0  0  0  0  0  0  0  0
    0.7530    7.0590   -0.5950 H   0  0  0  0  0  0  0  0  0  0  0  0
   -1.8596   10.2133    1.0175 H   0  0  0  0  0  0  0  0  0  0  0  0
   -1.5916   11.4324   -0.2743 H   0  0  0  0  0  0  0  0  0  0  0  0
   -3.0875   10.4379   -0.2743 H   0  0  0  0  0  0  0  0  0  0  0  0
   -3.1244    8.1787   -1.0029 H   0  0  0  0  0  0  0  0  0  0  0  0
   -2.9483    9.3661   -2.3392 H   0  0  0  0  0  0  0  0  0  0  0  0
   -1.9666    7.8618   -2.3392 H   0  0  0  0  0  0  0  0  0  0  0  0
    3.5385    9.6769   -1.8017 H   0  0  0  0  0  0  0  0  0  0  0  0
    2.4782    9.5143   -3.2425 H   0  0  0  0  0  0  0  0  0  0  0  0
    3.8161   10.7130   -3.2425 H   0  0  0  0  0  0  0  0  0  0  0  0
    3.0725   11.8171   -0.1660 H   0  0  0  0  0  0  0  0  0  0  0  0
    3.9225   12.3593   -1.7208 H   0  0  0  0  0  0  0  0  0  0  0  0
    1.5851   13.6953   -0.3293 H   0  0  0  0  0  0  0  0  0  0  0  0
    3.2713   14.3098   -0.5456 H   0  0  0  0  0  0  0  0  0  0  0  0
    4.2551   14.4407   -2.5690 H   0  0  0  0  0  0  0  0  0  0  0  0
    3.4288   13.4958   -3.8540 H   0  0  0  0  0  0  0  0  0  0  0  0
    3.3303   15.2894   -3.8540 H   0  0  0  0  0  0  0  0  0  0  0  0
  1  2  1  0
  2  3  1  0
  3  4  1  0
  4  5  1  0
  5  6  1  0
  6  7  1  0
  7  8  1  0
  7  9  1  0
  2 10  1  0
 10 11  1  0
 11 12  1  0
 12 13  1  0
 13 14  1  1
 13 15  1  0
 15 16  1  0
 16 17  1  0
 17 18  2  0
 18 19  1  0
 19 20  1  0
 20 21  1  0
 21 22  1  0
 22 23  1  0
 22 24  1  0
 24 25  1  0
 24 26  1  0
 19 27  1  0
 27 28  1  6
 27 29  1  0
 29 30  1  0
 30 31  1  0
 31 32  1  6
  7  5  1  0
 31 10  1  0
 31 13  1  0
 27 15  1  0
 24 18  1  0
  1 33  1  0
  1 34  1  0
  1 35  1  0
  2 36  1  6
  3 37  1  0
  3 38  1  0
  4 39  1  0
  4 40  1  0
  5 41  1  6
  8 42  1  0
  8 43  1  0
  8 44  1  0
  9 45  1  0
  9 46  1  0
  9 47  1  0
 10 48  1  1
 11 49  1  0
 11 50  1  0
 12 51  1  0
 12 52  1  0
 14 53  1  0
 14 54  1  0
 14 55  1  0
 15 56  1  6
 16 57  1  0
 16 58  1  0
 17 59  1  0
 19 60  1  1
 20 61  1  0
 20 62  1  0
 21 63  1  0
 21 64  1  0
 22 65  1  1
 23 66  1  0
 25 67  1  0
 25 68  1  0
 25 69  1  0
 26 70  1  0
 26 71  1  0
 26 72  1  0
 28 73  1  0
 28 74  1  0
 28 75  1  0
 29 76  1  0
 29 77  1  0
 30 78  1  0
 30 79  1  0
 32 80  1  0
 32 81  1  0
 32 82  1  0
M  END
>  <meeko>  (17) 
{"is_sidechain": [false], "intermolecular_energy": 2.731, "internal_energy": -0.839}

$$$$
EPH_relaxed_0001_pdb2pqr_Repair_144_r2_0001_out
     RDKit          3D

 82 86  0  0  0  0  0  0  0  0999 V2000
    0.9200    8.5190   -2.3790 C   0  0  0  0  0  0  0  0  0  0  0  0
   -0.5070    8.8560   -1.9380 C   0  0  2  0  0  0  0  0  0  0  0  0
   -1.5650    8.2200   -2.8610 C   0  0  0  0  0  0  0  0  0  0  0  0
   -2.7980    7.6990   -2.1170 C   0  0  0  0  0  0  0  0  0  0  0  0
   -3.6240    6.7930   -2.9790 C   0  0  2  0  0  0  0  0  0  0  0  0
   -4.6680    7.4490   -3.7110 O   0  0  0  0  0  0  0  0  0  0  0  0
   -5.0890    6.4970   -2.7200 C   0  0  0  0  0  0  0  0  0  0  0  0
   -5.8150    7.1060   -1.5610 C   0  0  0  0  0  0  0  0  0  0  0  0
   -5.6800    5.2480   -3.2960 C   0  0  0  0  0  0  0  0  0  0  0  0
   -0.6950   10.3680   -1.8940 C   0  0  1  0  0  0  0  0  0  0  0  0
   -2.0460   10.7840   -1.2560 C   0  0  0  0  0  0  0  0  0  0  0  0
   -1.7880   12.1020   -0.4810 C   0  0  0  0  0  0  0  0  0  0  0  0
   -0.3980   12.5740   -0.9680 C   0  0  1  0  0  0  0  0  0  0  0  0
   -0.6690   13.2820   -2.3320 C   0  0  0  0  0  0  0  0  0  0  0  0
    0.4010   13.4950    0.0110 C   0  0  2  0  0  0  0  0  0  0  0  0
   -0.2670   14.8450    0.3280 C   0  0  0  0  0  0  0  0  0  0  0  0
    0.1020   15.9680   -0.5830 C   0  0  0  0  0  0  0  0  0  0  0  0
    1.1440   15.9750   -1.4340 C   0  0  0  0  0  0  0  0  0  0  0  0
    2.1400   14.8080   -1.4700 C   0  0  1  0  0  0  0  0  0  0  0  0
    3.5880   15.3630   -1.4790 C   0  0  0  0  0  0  0  0  0  0  0  0
    3.8240   16.3640   -2.6060 C   0  0  0  0  0  0  0  0  0  0  0  0
    2.8540   17.5390   -2.5020 C   0  0  2  0  0  0  0  0  0  0  0  0
    3.1580   18.2860   -1.3210 O   0  0  0  0  0  0  0  0  0  0  0  0
    1.3630   17.1010   -2.4740 C   0  0  0  0  0  0  0  0  0  0  0  0
    0.9520   16.5630   -3.8670 C   0  0  0  0  0  0  0  0  0  0  0  0
    0.4980   18.3670   -2.2260 C   0  0  0  0  0  0  0  0  0  0  0  0
    1.9250   13.6800   -0.3700 C   0  0  1  0  0  0  0  0  0  0  0  0
    2.6690   14.0700    0.9430 C   0  0  0  0  0  0  0  0  0  0  0  0
    2.5830   12.3410   -0.8730 C   0  0  0  0  0  0  0  0  0  0  0  0
    1.7040   11.4170   -1.7370 C   0  0  0  0  0  0  0  0  0  0  0  0
    0.3380   11.1890   -1.0820 C   0  0  2  0  0  0  0  0  0  0  0  0
    0.5770   10.4590    0.2830 C   0  0  0  0  0  0  0  0  0  0  0  0
    1.5524    8.3696   -1.4915 H   0  0  0  0  0  0  0  0  0  0  0  0
    0.9099    7.5985   -2.9812 H   0  0  0  0  0  0  0  0  0  0  0  0
    1.3228    9.3467   -2.9812 H   0  0  0  0  0  0  0  0  0  0  0  0
   -0.6503    8.4348   -0.9320 H   0  0  0  0  0  0  0  0  0  0  0  0
   -1.8925    8.9780   -3.5877 H   0  0  0  0  0  0  0  0  0  0  0  0
   -1.0907    7.3528   -3.3438 H   0  0  0  0  0  0  0  0  0  0  0  0
   -2.4686    7.1420   -1.2275 H   0  0  0  0  0  0  0  0  0  0  0  0
   -3.4181    8.5625   -1.8343 H   0  0  0  0  0  0  0  0  0  0  0  0
   -2.7592    6.1370   -3.1572 H   0  0  0  0  0  0  0  0  0  0  0  0
   -5.3777    6.7392   -0.6207 H   0  0  0  0  0  0  0  0  0  0  0  0
   -5.7232    8.2013   -1.6054 H   0  0  0  0  0  0  0  0  0  0  0  0
   -6.8776    6.8250   -1.6054 H   0  0  0  0  0  0  0  0  0  0  0  0
   -5.9954    4.5814   -2.4798 H   0  0  0  0  0  0  0  0  0  0  0  0
   -6.5513    5.5066   -3.9157 H   0  0  0  0  0  0  0  0  0  0  0  0
   -4.9276    4.7383   -3.9157 H   0  0  0  0  0  0  0  0  0  0  0  0
   -0.5992   10.5971   -2.9656 H   0  0  0  0  0  0  0  0  0  0  0  0
   -2.8007   10.9469   -2.0395 H   0  0  0  0  0  0  0  0  0  0  0  0
   -2.4241    9.9988   -0.5848 H   0  0  0  0  0  0  0  0  0  0  0  0
   -2.5581   12.8503   -0.7199 H   0  0  0  0  0  0  0  0  0  0  0  0
   -1.8221   11.9589    0.6091 H   0  0  0  0  0  0  0  0  0  0  0  0
   -1.0567   14.2949   -2.1487 H   0  0  0  0  0  0  0  0  0  0  0  0
    0.2681   13.3461   -2.9044 H   0  0  0  0  0  0  0  0  0  0  0  0
   -1.4094   12.7040   -2.9044 H   0  0  0  0  0  0  0  0  0  0  0  0
    0.3747   12.9205    0.9487 H   0  0  0  0  0  0  0  0  0  0  0  0
   -1.3568   14.7064    0.2726 H   0  0  0  0  0  0  0  0  0  0  0  0
    0.0899   15.1340    1.3275 H   0  0  0  0  0  0  0  0  0  0  0  0
   -0.5320   16.8665   -0.5564 H   0  0  0  0  0  0  0  0  0  0  0  0
    1.9424   14.2676   -2.4075 H   0  0  0  0  0  0  0  0  0  0  0  0
    3.7802   15.8623   -0.5179 H   0  0  0  0  0  0  0  0  0  0  0  0
    4.2698   14.5145   -1.6379 H   0  0  0  0  0  0  0  0  0  0  0  0
    4.8553   16.7414   -2.5426 H   0  0  0  0  0  0  0  0  0  0  0  0
    3.6597   15.8562   -3.5678 H   0  0  0  0  0  0  0  0  0  0  0  0
    2.9838   18.1543   -3.4045 H   0  0  0  0  0  0  0  0  0  0  0  0
    4.0820   18.5810   -1.3890 H   0  0  0  0  0  0  0  0  0  0  0  0
    0.2885   15.6944   -3.7434 H   0  0  0  0  0  0  0  0  0  0  0  0
    0.4241   17.3515   -4.4235 H   0  0  0  0  0  0  0  0  0  0  0  0
    1.8515   16.2610   -4.4235 H   0  0  0  0  0  0  0  0  0  0  0  0
    0.3872   18.5291   -1.1437 H   0  0  0  0  0  0  0  0  0  0  0  0
    0.9887   19.2409   -2.6793 H   0  0  0  0  0  0  0  0  0  0  0  0
   -0.4945   18.2275   -2.6793 H   0  0  0  0  0  0  0  0  0  0  0  0
    2.0703   13.7562    1.8108 H   0  0  0  0  0  0  0  0  0  0  0  0
    3.6479   13.5691    0.9724 H   0  0  0  0  0  0  0  0  0  0  0  0
    2.8139   15.1600    0.9724 H   0  0  0  0  0  0  0  0  0  0  0  0
    3.4692   12.6084   -1.4673 H   0  0  0  0  0  0  0  0  0  0  0  0
    2.7965   11.7647    0.0393 H   0  0  0  0  0  0  0  0  0  0  0  0
    1.5569   11.8800   -2.7239 H   0  0  0  0  0  0  0  0  0  0  0  0
    2.2105   10.4458   -1.8386 H   0  0  0  0  0  0  0  0  0  0  0  0
    0.3517   11.1471    1.1111 H   0  0  0  0  0  0  0  0  0  0  0  0
   -0.0800    9.5792    0.3482 H   0  0  0  0  0  0  0  0  0  0  0  0
    1.6271   10.1381    0.3482 H   0  0  0  0  0  0  0  0  0  0  0  0
  1  2  1  0
  2  3  1  0
  3  4  1  0
  4  5  1  0
  5  6  1  0
  6  7  1  0
  7  8  1  0
  7  9  1  0
  2 10  1  0
 10 11  1  0
 11 12  1  0
 12 13  1  0
 13 14  1  6
 13 15  1  0
 15 16  1  0
 16 17  1  0
 17 18  2  0
 18 19  1  0
 19 20  1  0
 20 21  1  0
 21 22  1  0
 22 23  1  0
 22 24  1  0
 24 25  1  0
 24 26  1  0
 19 27  1  0
 27 28  1  1
 27 29  1  0
 29 30  1  0
 30 31  1  0
 31 32  1  1
  7  5  1  0
 31 10  1  0
 31 13  1  0
 27 15  1  0
 24 18  1  0
  1 33  1  0
  1 34  1  0
  1 35  1  0
  2 36  1  1
  3 37  1  0
  3 38  1  0
  4 39  1  0
  4 40  1  0
  5 41  1  6
  8 42  1  0
  8 43  1  0
  8 44  1  0
  9 45  1  0
  9 46  1  0
  9 47  1  0
 10 48  1  6
 11 49  1  0
 11 50  1  0
 12 51  1  0
 12 52  1  0
 14 53  1  0
 14 54  1  0
 14 55  1  0
 15 56  1  1
 16 57  1  0
 16 58  1  0
 17 59  1  0
 19 60  1  6
 20 61  1  0
 20 62  1  0
 21 63  1  0
 21 64  1  0
 22 65  1  6
 23 66  1  0
 25 67  1  0
 25 68  1  0
 25 69  1  0
 26 70  1  0
 26 71  1  0
 26 72  1  0
 28 73  1  0
 28 74  1  0
 28 75  1  0
 29 76  1  0
 29 77  1  0
 30 78  1  0
 30 79  1  0
 32 80  1  0
 32 81  1  0
 32 82  1  0
M  END
>  <meeko>  (18) 
{"is_sidechain": [false], "intermolecular_energy": 2.731, "internal_energy": -0.839}

$$$$
EPH_relaxed_0001_pdb2pqr_Repair_144_r2_0001_out
     RDKit          3D

 82 86  0  0  0  0  0  0  0  0999 V2000
   -0.5660   10.6010   -2.2290 C   0  0  0  0  0  0  0  0  0  0  0  0
    0.4410   10.3210   -1.1100 C   0  0  2  0  0  0  0  0  0  0  0  0
   -0.2480   10.1090    0.2530 C   0  0  0  0  0  0  0  0  0  0  0  0
    0.5740   10.6080    1.4440 C   0  0  0  0  0  0  0  0  0  0  0  0
   -0.1690   11.6380    2.2380 C   0  0  2  0  0  0  0  0  0  0  0  0
    0.2760   12.9860    2.0370 O   0  0  0  0  0  0  0  0  0  0  0  0
    0.4610   12.4470    3.3570 C   0  0  0  0  0  0  0  0  0  0  0  0
    1.8940   12.2600    3.7430 C   0  0  0  0  0  0  0  0  0  0  0  0
   -0.4340   13.0600    4.3880 C   0  0  0  0  0  0  0  0  0  0  0  0
    1.4420   11.4670   -1.0140 C   0  0  1  0  0  0  0  0  0  0  0  0
    2.8050   11.1260   -1.6750 C   0  0  0  0  0  0  0  0  0  0  0  0
    3.3380   12.4400   -2.3020 C   0  0  0  0  0  0  0  0  0  0  0  0
    2.4430   13.5500   -1.7040 C   0  0  1  0  0  0  0  0  0  0  0  0
    3.0440   13.8320   -0.2910 C   0  0  0  0  0  0  0  0  0  0  0  0
    2.3090   14.8590   -2.5470 C   0  0  2  0  0  0  0  0  0  0  0  0
    3.6220   15.6330   -2.7630 C   0  0  0  0  0  0  0  0  0  0  0  0
    3.9310   16.6640   -1.7280 C   0  0  0  0  0  0  0  0  0  0  0  0
    3.0580   17.1580   -0.8300 C   0  0  0  0  0  0  0  0  0  0  0  0
    1.5810   16.7470   -0.8600 C   0  0  1  0  0  0  0  0  0  0  0  0
    0.6900   18.0100   -0.7250 C   0  0  0  0  0  0  0  0  0  0  0  0
    1.0390   18.8430    0.5050 C   0  0  0  0  0  0  0  0  0  0  0  0
    2.5010   19.2810    0.4690 C   0  0  2  0  0  0  0  0  0  0  0  0
    2.6820   20.1940   -0.6170 O   0  0  0  0  0  0  0  0  0  0  0  0
    3.4930   18.0930    0.3250 C   0  0  0  0  0  0  0  0  0  0  0  0
    3.5130   17.2690    1.6360 C   0  0  0  0  0  0  0  0  0  0  0  0
    4.9200   18.6810    0.1600 C   0  0  0  0  0  0  0  0  0  0  0  0
    1.1430   15.8190   -2.0740 C   0  0  1  0  0  0  0  0  0  0  0  0
    0.7630   16.6970   -3.3050 C   0  0  0  0  0  0  0  0  0  0  0  0
   -0.1580   15.0280   -1.6740 C   0  0  0  0  0  0  0  0  0  0  0  0
    0.0430   13.6830   -0.9490 C   0  0  0  0  0  0  0  0  0  0  0  0
    1.0570   12.8070   -1.6890 C   0  0  2  0  0  0  0  0  0  0  0  0
    0.4700   12.4870   -3.1060 C   0  0  0  0  0  0  0  0  0  0  0  0
   -1.5373   10.8711   -1.7890 H   0  0  0  0  0  0  0  0  0  0  0  0
   -0.2014   11.4318   -2.8509 H   0  0  0  0  0  0  0  0  0  0  0  0
   -0.6826    9.7012   -2.8509 H   0  0  0  0  0  0  0  0  0  0  0  0
    0.9655    9.3878   -1.3631 H   0  0  0  0  0  0  0  0  0  0  0  0
   -1.2076   10.6467    0.2441 H   0  0  0  0  0  0  0  0  0  0  0  0
   -0.3750    9.0241    0.3829 H   0  0  0  0  0  0  0  0  0  0  0  0
    0.8084    9.7549    2.0977 H   0  0  0  0  0  0  0  0  0  0  0  0
    1.4929   11.0717    1.0559 H   0  0  0  0  0  0  0  0  0  0  0  0
   -1.0932   11.0436    2.1873 H   0  0  0  0  0  0  0  0  0  0  0  0
    1.9799   12.2488    4.8396 H   0  0  0  0  0  0  0  0  0  0  0  0
    2.2617   11.3063    3.3366 H   0  0  0  0  0  0  0  0  0  0  0  0
    2.4942   13.0874    3.3366 H   0  0  0  0  0  0  0  0  0  0  0  0
   -0.0638   12.8065    5.3923 H   0  0  0  0  0  0  0  0  0  0  0  0
   -0.4405   14.1531    4.2647 H   0  0  0  0  0  0  0  0  0  0  0  0
   -1.4555   12.6710    4.2647 H   0  0  0  0  0  0  0  0  0  0  0  0
    1.4742   11.5925    0.0783 H   0  0  0  0  0  0  0  0  0  0  0  0
    3.5108   10.7538   -0.9178 H   0  0  0  0  0  0  0  0  0  0  0  0
    2.6893   10.3423   -2.4381 H   0  0  0  0  0  0  0  0  0  0  0  0
    4.3912   12.6012   -2.0285 H   0  0  0  0  0  0  0  0  0  0  0  0
    3.3012   12.4221   -3.4012 H   0  0  0  0  0  0  0  0  0  0  0  0
    2.3354   13.4995    0.4819 H   0  0  0  0  0  0  0  0  0  0  0  0
    3.9915   13.2845   -0.1796 H   0  0  0  0  0  0  0  0  0  0  0  0
    3.2285   14.9107   -0.1796 H   0  0  0  0  0  0  0  0  0  0  0  0
    2.0226   14.4737   -3.5367 H   0  0  0  0  0  0  0  0  0  0  0  0
    4.4473   14.9059   -2.7757 H   0  0  0  0  0  0  0  0  0  0  0  0
    3.5018   16.1787   -3.7105 H   0  0  0  0  0  0  0  0  0  0  0  0
    4.9594   17.0530   -1.6966 H   0  0  0  0  0  0  0  0  0  0  0  0
    1.4311   16.0886    0.0084 H   0  0  0  0  0  0  0  0  0  0  0  0
    0.8227   18.6328   -1.6220 H   0  0  0  0  0  0  0  0  0  0  0  0
   -0.3517   17.6739   -0.6163 H   0  0  0  0  0  0  0  0  0  0  0  0
    0.3962   19.7353    0.5300 H   0  0  0  0  0  0  0  0  0  0  0  0
    0.8781   18.2285    1.4030 H   0  0  0  0  0  0  0  0  0  0  0  0
    2.7255   19.7614    1.4328 H   0  0  0  0  0  0  0  0  0  0  0  0
    1.9380   20.8190   -0.6030 H   0  0  0  0  0  0  0  0  0  0  0  0
    3.4964   17.9516    2.4984 H   0  0  0  0  0  0  0  0  0  0  0  0
    2.6305   16.6132    1.6704 H   0  0  0  0  0  0  0  0  0  0  0  0
    4.4263   16.6568    1.6704 H   0  0  0  0  0  0  0  0  0  0  0  0
    5.3590   18.8619    1.1522 H   0  0  0  0  0  0  0  0  0  0  0  0
    5.5483   17.9685   -0.3946 H   0  0  0  0  0  0  0  0  0  0  0  0
    4.8640   19.6293   -0.3946 H   0  0  0  0  0  0  0  0  0  0  0  0
    0.3484   17.6550   -2.9581 H   0  0  0  0  0  0  0  0  0  0  0  0
    1.6605   16.8845   -3.9127 H   0  0  0  0  0  0  0  0  0  0  0  0
    0.0120   16.1710   -3.9127 H   0  0  0  0  0  0  0  0  0  0  0  0
   -0.7522   15.6767   -1.0136 H   0  0  0  0  0  0  0  0  0  0  0  0
   -0.6441   14.7720   -2.6270 H   0  0  0  0  0  0  0  0  0  0  0  0
    0.4096   13.8750    0.0702 H   0  0  0  0  0  0  0  0  0  0  0  0
   -0.9209   13.1539   -0.9185 H   0  0  0  0  0  0  0  0  0  0  0  0
   -0.4909   11.9632   -2.9951 H   0  0  0  0  0  0  0  0  0  0  0  0
    0.3145   13.4252   -3.6589 H   0  0  0  0  0  0  0  0  0  0  0  0
    1.1743   11.8480   -3.6589 H   0  0  0  0  0  0  0  0  0  0  0  0
  1  2  1  0
  2  3  1  0
  3  4  1  0
  4  5  1  0
  5  6  1  0
  6  7  1  0
  7  8  1  0
  7  9  1  0
  2 10  1  0
 10 11  1  0
 11 12  1  0
 12 13  1  0
 13 14  1  1
 13 15  1  0
 15 16  1  0
 16 17  1  0
 17 18  2  0
 18 19  1  0
 19 20  1  0
 20 21  1  0
 21 22  1  0
 22 23  1  0
 22 24  1  0
 24 25  1  0
 24 26  1  0
 19 27  1  0
 27 28  1  6
 27 29  1  0
 29 30  1  0
 30 31  1  0
 31 32  1  6
  7  5  1  0
 31 10  1  0
 31 13  1  0
 27 15  1  0
 24 18  1  0
  1 33  1  0
  1 34  1  0
  1 35  1  0
  2 36  1  6
  3 37  1  0
  3 38  1  0
  4 39  1  0
  4 40  1  0
  5 41  1  1
  8 42  1  0
  8 43  1  0
  8 44  1  0
  9 45  1  0
  9 46  1  0
  9 47  1  0
 10 48  1  1
 11 49  1  0
 11 50  1  0
 12 51  1  0
 12 52  1  0
 14 53  1  0
 14 54  1  0
 14 55  1  0
 15 56  1  6
 16 57  1  0
 16 58  1  0
 17 59  1  0
 19 60  1  1
 20 61  1  0
 20 62  1  0
 21 63  1  0
 21 64  1  0
 22 65  1  1
 23 66  1  0
 25 67  1  0
 25 68  1  0
 25 69  1  0
 26 70  1  0
 26 71  1  0
 26 72  1  0
 28 73  1  0
 28 74  1  0
 28 75  1  0
 29 76  1  0
 29 77  1  0
 30 78  1  0
 30 79  1  0
 32 80  1  0
 32 81  1  0
 32 82  1  0
M  END
>  <meeko>  (19) 
{"is_sidechain": [false], "intermolecular_energy": 2.731, "internal_energy": -0.839}

$$$$
