EPH_relaxed_0001_pdb2pqr_Repair_52_r2_0001_out
     RDKit          3D

 82 86  0  0  0  0  0  0  0  0999 V2000
   -1.6970    8.7750   -1.8290 C   0  0  0  0  0  0  0  0  0  0  0  0
   -1.7730    9.1110   -0.3370 C   0  0  2  0  0  0  0  0  0  0  0  0
   -3.2230    9.3420    0.1330 C   0  0  0  0  0  0  0  0  0  0  0  0
   -4.2750    9.0010   -0.9260 C   0  0  0  0  0  0  0  0  0  0  0  0
   -5.4410    8.2690   -0.3340 C   0  0  2  0  0  0  0  0  0  0  0  0
   -5.6550    6.9540   -0.8640 O   0  0  0  0  0  0  0  0  0  0  0  0
   -6.6930    7.9160   -1.1160 C   0  0  0  0  0  0  0  0  0  0  0  0
   -6.8420    8.2870   -2.5580 C   0  0  0  0  0  0  0  0  0  0  0  0
   -7.9570    7.6500   -0.3600 C   0  0  0  0  0  0  0  0  0  0  0  0
   -0.9270   10.3430   -0.0390 C   0  0  1  0  0  0  0  0  0  0  0  0
    0.1810   10.0670    1.0130 C   0  0  0  0  0  0  0  0  0  0  0  0
    1.4050   10.9290    0.6110 C   0  0  0  0  0  0  0  0  0  0  0  0
    0.8580   11.9130   -0.4500 C   0  0  1  0  0  0  0  0  0  0  0  0
    0.1700   13.0470    0.3720 C   0  0  0  0  0  0  0  0  0  0  0  0
    1.9010   12.4860   -1.4640 C   0  0  2  0  0  0  0  0  0  0  0  0
    3.0230   13.3320   -0.8380 C   0  0  0  0  0  0  0  0  0  0  0  0
    2.7370   14.7940   -0.7360 C   0  0  0  0  0  0  0  0  0  0  0  0
    1.7540   15.4460   -1.3840 C   0  0  0  0  0  0  0  0  0  0  0  0
    0.8630   14.7190   -2.4000 C   0  0  1  0  0  0  0  0  0  0  0  0
    0.7320   15.5810   -3.6830 C   0  0  0  0  0  0  0  0  0  0  0  0
    0.2470   16.9970   -3.3900 C   0  0  0  0  0  0  0  0  0  0  0  0
    1.1900   17.7070   -2.4220 C   0  0  2  0  0  0  0  0  0  0  0  0
    2.4480   17.9120   -3.0710 O   0  0  0  0  0  0  0  0  0  0  0  0
    1.4070   16.9270   -1.0950 C   0  0  0  0  0  0  0  0  0  0  0  0
    0.1090   16.9660   -0.2500 C   0  0  0  0  0  0  0  0  0  0  0  0
    2.4850   17.6800   -0.2700 C   0  0  0  0  0  0  0  0  0  0  0  0
    1.2570   13.2120   -2.7140 C   0  0  1  0  0  0  0  0  0  0  0  0
    2.3230   13.1670   -3.8520 C   0  0  0  0  0  0  0  0  0  0  0  0
   -0.0090   12.4530   -3.2610 C   0  0  0  0  0  0  0  0  0  0  0  0
   -0.9370   11.8060   -2.2150 C   0  0  0  0  0  0  0  0  0  0  0  0
   -0.1350   10.9650   -1.2170 C   0  0  2  0  0  0  0  0  0  0  0  0
    0.5500    9.8020   -2.0110 C   0  0  0  0  0  0  0  0  0  0  0  0
   -1.4559    7.7089   -1.9529 H   0  0  0  0  0  0  0  0  0  0  0  0
   -2.6663    8.9892   -2.3029 H   0  0  0  0  0  0  0  0  0  0  0  0
   -0.9143    9.3855   -2.3029 H   0  0  0  0  0  0  0  0  0  0  0  0
   -1.3800    8.2462    0.2177 H   0  0  0  0  0  0  0  0  0  0  0  0
   -3.4053    8.7148    1.0181 H   0  0  0  0  0  0  0  0  0  0  0  0
   -3.3230   10.4154    0.3515 H   0  0  0  0  0  0  0  0  0  0  0  0
   -4.6352    9.9340   -1.3839 H   0  0  0  0  0  0  0  0  0  0  0  0
   -3.8061    8.3483   -1.6771 H   0  0  0  0  0  0  0  0  0  0  0  0
   -5.2926    8.7693    0.6344 H   0  0  0  0  0  0  0  0  0  0  0  0
   -7.2510    9.3053   -2.6342 H   0  0  0  0  0  0  0  0  0  0  0  0
   -5.8588    8.2489   -3.0499 H   0  0  0  0  0  0  0  0  0  0  0  0
   -7.5257    7.5795   -3.0499 H   0  0  0  0  0  0  0  0  0  0  0  0
   -7.7540    7.6927    0.7203 H   0  0  0  0  0  0  0  0  0  0  0  0
   -8.7079    8.4098   -0.6223 H   0  0  0  0  0  0  0  0  0  0  0  0
   -8.3380    6.6520   -0.6223 H   0  0  0  0  0  0  0  0  0  0  0  0
   -1.7177   11.0337    0.2894 H   0  0  0  0  0  0  0  0  0  0  0  0
   -0.1697   10.3518    2.0160 H   0  0  0  0  0  0  0  0  0  0  0  0
    0.4423    8.9988    1.0400 H   0  0  0  0  0  0  0  0  0  0  0  0
    1.7979   11.4752    1.4812 H   0  0  0  0  0  0  0  0  0  0  0  0
    2.2358   10.3196    0.2257 H   0  0  0  0  0  0  0  0  0  0  0  0
    0.2917   12.8464    1.4467 H   0  0  0  0  0  0  0  0  0  0  0  0
    0.6345   14.0129    0.1244 H   0  0  0  0  0  0  0  0  0  0  0  0
   -0.9012   13.0811    0.1244 H   0  0  0  0  0  0  0  0  0  0  0  0
    2.3898   11.5754   -1.8406 H   0  0  0  0  0  0  0  0  0  0  0  0
    3.2108   12.9506    0.1765 H   0  0  0  0  0  0  0  0  0  0  0  0
    3.8879   13.2369   -1.5110 H   0  0  0  0  0  0  0  0  0  0  0  0
    3.3848   15.3886   -0.0751 H   0  0  0  0  0  0  0  0  0  0  0  0
   -0.1212   14.6118   -1.9205 H   0  0  0  0  0  0  0  0  0  0  0  0
    1.7164   15.6394   -4.1705 H   0  0  0  0  0  0  0  0  0  0  0  0
   -0.0142   15.1006   -4.3329 H   0  0  0  0  0  0  0  0  0  0  0  0
    0.2031   17.5645   -4.3313 H   0  0  0  0  0  0  0  0  0  0  0  0
   -0.7502   16.9384   -2.9295 H   0  0  0  0  0  0  0  0  0  0  0  0
    0.7231   18.6650   -2.1496 H   0  0  0  0  0  0  0  0  0  0  0  0
    3.0560   17.2200   -2.7590 H   0  0  0  0  0  0  0  0  0  0  0  0
    0.3672   16.9582    0.8192 H   0  0  0  0  0  0  0  0  0  0  0  0
   -0.4539   17.8815   -0.4846 H   0  0  0  0  0  0  0  0  0  0  0  0
   -0.5079   16.0860   -0.4846 H   0  0  0  0  0  0  0  0  0  0  0  0
    2.2878   17.5422    0.8034 H   0  0  0  0  0  0  0  0  0  0  0  0
    3.4799   17.2794   -0.5144 H   0  0  0  0  0  0  0  0  0  0  0  0
    2.4512   18.7520   -0.5144 H   0  0  0  0  0  0  0  0  0  0  0  0
    3.3295   13.1245   -3.4101 H   0  0  0  0  0  0  0  0  0  0  0  0
    2.1577   12.2750   -4.4742 H   0  0  0  0  0  0  0  0  0  0  0  0
    2.2335   14.0697   -4.4742 H   0  0  0  0  0  0  0  0  0  0  0  0
   -0.6076   13.1753   -3.8354 H   0  0  0  0  0  0  0  0  0  0  0  0
    0.3905   11.6139   -3.8495 H   0  0  0  0  0  0  0  0  0  0  0  0
   -1.4724   12.5975   -1.6702 H   0  0  0  0  0  0  0  0  0  0  0  0
   -1.6486   11.1485   -2.7359 H   0  0  0  0  0  0  0  0  0  0  0  0
    0.9773    9.0766   -1.3030 H   0  0  0  0  0  0  0  0  0  0  0  0
   -0.1969    9.3004   -2.6439 H   0  0  0  0  0  0  0  0  0  0  0  0
    1.3508   10.2120   -2.6439 H   0  0  0  0  0  0  0  0  0  0  0  0
  1  2  1  0
  2  3  1  0
  3  4  1  0
  4  5  1  0
  5  6  1  0
  6  7  1  0
  7  8  1  0
  7  9  1  0
  2 10  1  0
 10 11  1  0
 11 12  1  0
 12 13  1  0
 13 14  1  1
 13 15  1  0
 15 16  1  0
 16 17  1  0
 17 18  2  0
 18 19  1  0
 19 20  1  0
 20 21  1  0
 21 22  1  0
 22 23  1  0
 22 24  1  0
 24 25  1  0
 24 26  1  0
 19 27  1  0
 27 28  1  6
 27 29  1  0
 29 30  1  0
 30 31  1  0
 31 32  1  6
  7  5  1  0
 31 10  1  0
 31 13  1  0
 27 15  1  0
 24 18  1  0
  1 33  1  0
  1 34  1  0
  1 35  1  0
  2 36  1  1
  3 37  1  0
  3 38  1  0
  4 39  1  0
  4 40  1  0
  5 41  1  1
  8 42  1  0
  8 43  1  0
  8 44  1  0
  9 45  1  0
  9 46  1  0
  9 47  1  0
 10 48  1  1
 11 49  1  0
 11 50  1  0
 12 51  1  0
 12 52  1  0
 14 53  1  0
 14 54  1  0
 14 55  1  0
 15 56  1  6
 16 57  1  0
 16 58  1  0
 17 59  1  0
 19 60  1  1
 20 61  1  0
 20 62  1  0
 21 63  1  0
 21 64  1  0
 22 65  1  1
 23 66  1  0
 25 67  1  0
 25 68  1  0
 25 69  1  0
 26 70  1  0
 26 71  1  0
 26 72  1  0
 28 73  1  0
 28 74  1  0
 28 75  1  0
 29 76  1  0
 29 77  1  0
 30 78  1  0
 30 79  1  0
 32 80  1  0
 32 81  1  0
 32 82  1  0
M  END
>  <meeko>  (1) 
{"is_sidechain": [false], "intermolecular_energy": 2.731, "internal_energy": -0.839}

$$$$
EPH_relaxed_0001_pdb2pqr_Repair_52_r2_0001_out
     RDKit          3D

 82 86  0  0  0  0  0  0  0  0999 V2000
    2.4220   18.0580   -2.6040 C   0  0  0  0  0  0  0  0  0  0  0  0
    1.0960   17.6900   -1.9330 C   0  0  2  0  0  0  0  0  0  0  0  0
    1.1860   17.7560   -0.3950 C   0  0  0  0  0  0  0  0  0  0  0  0
    0.8260   19.1270    0.1840 C   0  0  0  0  0  0  0  0  0  0  0  0
   -0.6230   19.2070    0.5590 C   0  0  2  0  0  0  0  0  0  0  0  0
   -1.4720   18.2790   -0.1290 O   0  0  0  0  0  0  0  0  0  0  0  0
   -1.7090   19.6720   -0.3930 C   0  0  0  0  0  0  0  0  0  0  0  0
   -1.3920   20.0880   -1.7950 C   0  0  0  0  0  0  0  0  0  0  0  0
   -2.9930   20.1830    0.1820 C   0  0  0  0  0  0  0  0  0  0  0  0
    0.6620   16.2960   -2.3700 C   0  0  1  0  0  0  0  0  0  0  0  0
    0.8040   16.0780   -3.9000 C   0  0  0  0  0  0  0  0  0  0  0  0
    1.2110   14.5970   -4.1050 C   0  0  0  0  0  0  0  0  0  0  0  0
    0.9690   13.9310   -2.7300 C   0  0  1  0  0  0  0  0  0  0  0  0
   -0.5630   13.6360   -2.6920 C   0  0  0  0  0  0  0  0  0  0  0  0
    1.8110   12.6510   -2.4240 C   0  0  2  0  0  0  0  0  0  0  0  0
    1.5580   11.4620   -3.3670 C   0  0  0  0  0  0  0  0  0  0  0  0
    0.4860   10.5190   -2.9320 C   0  0  0  0  0  0  0  0  0  0  0  0
   -0.0490   10.4590   -1.6980 C   0  0  0  0  0  0  0  0  0  0  0  0
    0.4940   11.3340   -0.5610 C   0  0  1  0  0  0  0  0  0  0  0  0
    0.6840   10.4690    0.7130 C   0  0  0  0  0  0  0  0  0  0  0  0
   -0.5860    9.7210    1.1070 C   0  0  0  0  0  0  0  0  0  0  0  0
   -1.0620    8.8180   -0.0280 C   0  0  2  0  0  0  0  0  0  0  0  0
   -0.1030    7.7730   -0.2180 O   0  0  0  0  0  0  0  0  0  0  0  0
   -1.2780    9.5780   -1.3660 C   0  0  0  0  0  0  0  0  0  0  0  0
   -2.5180   10.4990   -1.2470 C   0  0  0  0  0  0  0  0  0  0  0  0
   -1.6190    8.5300   -2.4600 C   0  0  0  0  0  0  0  0  0  0  0  0
    1.7800   12.2010   -0.9070 C   0  0  1  0  0  0  0  0  0  0  0  0
    3.0700   11.3600   -0.6640 C   0  0  0  0  0  0  0  0  0  0  0  0
    1.8560   13.4250    0.0810 C   0  0  0  0  0  0  0  0  0  0  0  0
    1.1000   14.7020   -0.3350 C   0  0  0  0  0  0  0  0  0  0  0  0
    1.4360   15.0920   -1.7770 C   0  0  2  0  0  0  0  0  0  0  0  0
    2.9670   15.4160   -1.8410 C   0  0  0  0  0  0  0  0  0  0  0  0
    3.1775   18.2677   -1.8325 H   0  0  0  0  0  0  0  0  0  0  0  0
    2.7608   17.2199   -3.2308 H   0  0  0  0  0  0  0  0  0  0  0  0
    2.2804   18.9508   -3.2308 H   0  0  0  0  0  0  0  0  0  0  0  0
    0.3468   18.4296   -2.2520 H   0  0  0  0  0  0  0  0  0  0  0  0
    0.4964   17.0093    0.0257 H   0  0  0  0  0  0  0  0  0  0  0  0
    2.2339   17.5581   -0.1254 H   0  0  0  0  0  0  0  0  0  0  0  0
    1.4369   19.3068    1.0810 H   0  0  0  0  0  0  0  0  0  0  0  0
    1.0235   19.8872   -0.5861 H   0  0  0  0  0  0  0  0  0  0  0  0
   -0.3649   19.5052    1.5859 H   0  0  0  0  0  0  0  0  0  0  0  0
   -0.7254   20.9628   -1.7761 H   0  0  0  0  0  0  0  0  0  0  0  0
   -0.8944   19.2591   -2.3198 H   0  0  0  0  0  0  0  0  0  0  0  0
   -2.3232   20.3479   -2.3198 H   0  0  0  0  0  0  0  0  0  0  0  0
   -2.9374   20.1609    1.2804 H   0  0  0  0  0  0  0  0  0  0  0  0
   -3.1605   21.2163   -0.1559 H   0  0  0  0  0  0  0  0  0  0  0  0
   -3.8247   19.5473   -0.1559 H   0  0  0  0  0  0  0  0  0  0  0  0
   -0.3726   16.2994   -1.9963 H   0  0  0  0  0  0  0  0  0  0  0  0
   -0.1536   16.2806   -4.4019 H   0  0  0  0  0  0  0  0  0  0  0  0
    1.5565   16.7570   -4.3274 H   0  0  0  0  0  0  0  0  0  0  0  0
    0.5872   14.1266   -4.8793 H   0  0  0  0  0  0  0  0  0  0  0  0
    2.2535   14.4938   -4.4404 H   0  0  0  0  0  0  0  0  0  0  0  0
   -0.8981   13.5715   -1.6463 H   0  0  0  0  0  0  0  0  0  0  0  0
   -1.1052   14.4462   -3.2015 H   0  0  0  0  0  0  0  0  0  0  0  0
   -0.7655   12.6824   -3.2015 H   0  0  0  0  0  0  0  0  0  0  0  0
    2.8362   12.9884   -2.6363 H   0  0  0  0  0  0  0  0  0  0  0  0
    1.2782   11.8633   -4.3522 H   0  0  0  0  0  0  0  0  0  0  0  0
    2.4904   10.8784   -3.3771 H   0  0  0  0  0  0  0  0  0  0  0  0
    0.1006    9.8136   -3.6829 H   0  0  0  0  0  0  0  0  0  0  0  0
   -0.2701   12.1041   -0.3787 H   0  0  0  0  0  0  0  0  0  0  0  0
    1.4816    9.7351    0.5252 H   0  0  0  0  0  0  0  0  0  0  0  0
    0.9432   11.1458    1.5405 H   0  0  0  0  0  0  0  0  0  0  0  0
   -0.3802    9.1050    1.9948 H   0  0  0  0  0  0  0  0  0  0  0  0
   -1.3740   10.4572    1.3237 H   0  0  0  0  0  0  0  0  0  0  0  0
   -2.0416    8.4108    0.2629 H   0  0  0  0  0  0  0  0  0  0  0  0
    0.5450    7.8330    0.5040 H   0  0  0  0  0  0  0  0  0  0  0  0
   -2.7475   10.6695   -0.1848 H   0  0  0  0  0  0  0  0  0  0  0  0
   -2.3079   11.4618   -1.7358 H   0  0  0  0  0  0  0  0  0  0  0  0
   -3.3790   10.0197   -1.7358 H   0  0  0  0  0  0  0  0  0  0  0  0
   -1.9256    7.5878   -1.9823 H   0  0  0  0  0  0  0  0  0  0  0  0
   -2.4406    8.9078   -3.0863 H   0  0  0  0  0  0  0  0  0  0  0  0
   -0.7324    8.3520   -3.0863 H   0  0  0  0  0  0  0  0  0  0  0  0
    3.2380   11.2505    0.4176 H   0  0  0  0  0  0  0  0  0  0  0  0
    2.9506   10.3657   -1.1191 H   0  0  0  0  0  0  0  0  0  0  0  0
    3.9316   11.8704   -1.1191 H   0  0  0  0  0  0  0  0  0  0  0  0
    1.4483   13.0973    1.0487 H   0  0  0  0  0  0  0  0  0  0  0  0
    2.9175   13.7128    0.1015 H   0  0  0  0  0  0  0  0  0  0  0  0
    0.0178   14.5223   -0.2536 H   0  0  0  0  0  0  0  0  0  0  0  0
    1.4049   15.5229    0.3307 H   0  0  0  0  0  0  0  0  0  0  0  0
    3.3669   15.5006   -0.8198 H   0  0  0  0  0  0  0  0  0  0  0  0
    3.4906   14.6088   -2.3741 H   0  0  0  0  0  0  0  0  0  0  0  0
    3.1187   16.3661   -2.3741 H   0  0  0  0  0  0  0  0  0  0  0  0
  1  2  1  0
  2  3  1  0
  3  4  1  0
  4  5  1  0
  5  6  1  0
  6  7  1  0
  7  8  1  0
  7  9  1  0
  2 10  1  0
 10 11  1  0
 11 12  1  0
 12 13  1  0
 13 14  1  1
 13 15  1  0
 15 16  1  0
 16 17  1  0
 17 18  2  0
 18 19  1  0
 19 20  1  0
 20 21  1  0
 21 22  1  0
 22 23  1  0
 22 24  1  0
 24 25  1  0
 24 26  1  0
 19 27  1  0
 27 28  1  1
 27 29  1  0
 29 30  1  0
 30 31  1  0
 31 32  1  1
  7  5  1  0
 31 10  1  0
 31 13  1  0
 27 15  1  0
 24 18  1  0
  1 33  1  0
  1 34  1  0
  1 35  1  0
  2 36  1  6
  3 37  1  0
  3 38  1  0
  4 39  1  0
  4 40  1  0
  5 41  1  1
  8 42  1  0
  8 43  1  0
  8 44  1  0
  9 45  1  0
  9 46  1  0
  9 47  1  0
 10 48  1  6
 11 49  1  0
 11 50  1  0
 12 51  1  0
 12 52  1  0
 14 53  1  0
 14 54  1  0
 14 55  1  0
 15 56  1  6
 16 57  1  0
 16 58  1  0
 17 59  1  0
 19 60  1  1
 20 61  1  0
 20 62  1  0
 21 63  1  0
 21 64  1  0
 22 65  1  1
 23 66  1  0
 25 67  1  0
 25 68  1  0
 25 69  1  0
 26 70  1  0
 26 71  1  0
 26 72  1  0
 28 73  1  0
 28 74  1  0
 28 75  1  0
 29 76  1  0
 29 77  1  0
 30 78  1  0
 30 79  1  0
 32 80  1  0
 32 81  1  0
 32 82  1  0
M  END
>  <meeko>  (2) 
{"is_sidechain": [false], "intermolecular_energy": 2.731, "internal_energy": -0.839}

$$$$
EPH_relaxed_0001_pdb2pqr_Repair_52_r2_0001_out
     RDKit          3D

 82 86  0  0  0  0  0  0  0  0999 V2000
    1.9860   19.6480   -0.6090 C   0  0  0  0  0  0  0  0  0  0  0  0
    2.3800   18.4270    0.2270 C   0  0  2  0  0  0  0  0  0  0  0  0
    3.8320   17.9820   -0.0430 C   0  0  0  0  0  0  0  0  0  0  0  0
    4.7880   18.2640    1.1190 C   0  0  0  0  0  0  0  0  0  0  0  0
    4.1200   19.0420    2.2110 C   0  0  2  0  0  0  0  0  0  0  0  0
    4.8490   20.1920    2.6600 O   0  0  0  0  0  0  0  0  0  0  0  0
    4.6670   19.1410    3.6230 C   0  0  0  0  0  0  0  0  0  0  0  0
    5.9350   18.4520    4.0180 C   0  0  0  0  0  0  0  0  0  0  0  0
    3.7260   19.4960    4.7320 C   0  0  0  0  0  0  0  0  0  0  0  0
    1.4220   17.2750   -0.0520 C   0  0  1  0  0  0  0  0  0  0  0  0
    0.1490   17.7290   -0.8150 C   0  0  0  0  0  0  0  0  0  0  0  0
   -0.2420   16.5660   -1.7630 C   0  0  0  0  0  0  0  0  0  0  0  0
    0.6080   15.3670   -1.2810 C   0  0  1  0  0  0  0  0  0  0  0  0
   -0.1670   14.7940   -0.0540 C   0  0  0  0  0  0  0  0  0  0  0  0
    0.9060   14.2600   -2.3440 C   0  0  2  0  0  0  0  0  0  0  0  0
   -0.3330   13.5320   -2.8940 C   0  0  0  0  0  0  0  0  0  0  0  0
   -0.7380   12.3070   -2.1430 C   0  0  0  0  0  0  0  0  0  0  0  0
    0.0240   11.6500   -1.2490 C   0  0  0  0  0  0  0  0  0  0  0  0
    1.4750   12.0750   -0.9880 C   0  0  1  0  0  0  0  0  0  0  0  0
    2.3890   10.8210   -0.9860 C   0  0  0  0  0  0  0  0  0  0  0  0
    1.9110    9.7500   -0.0120 C   0  0  0  0  0  0  0  0  0  0  0  0
    0.4860    9.3120   -0.3390 C   0  0  2  0  0  0  0  0  0  0  0  0
    0.4890    8.6390   -1.6020 O   0  0  0  0  0  0  0  0  0  0  0  0
   -0.5240   10.4920   -0.3790 C   0  0  0  0  0  0  0  0  0  0  0  0
   -0.7550   11.0290    1.0550 C   0  0  0  0  0  0  0  0  0  0  0  0
   -1.8920    9.9350   -0.8580 C   0  0  0  0  0  0  0  0  0  0  0  0
    2.0350   13.2370   -1.9160 C   0  0  1  0  0  0  0  0  0  0  0  0
    2.6130   12.6350   -3.2330 C   0  0  0  0  0  0  0  0  0  0  0  0
    3.2370   13.9440   -1.1850 C   0  0  0  0  0  0  0  0  0  0  0  0
    2.8870   15.1090   -0.2390 C   0  0  0  0  0  0  0  0  0  0  0  0
    1.9480   16.1070   -0.9230 C   0  0  2  0  0  0  0  0  0  0  0  0
    2.7080   16.7170   -2.1490 C   0  0  0  0  0  0  0  0  0  0  0  0
    1.7178   20.4792    0.0597 H   0  0  0  0  0  0  0  0  0  0  0  0
    2.8333   19.9468   -1.2436 H   0  0  0  0  0  0  0  0  0  0  0  0
    1.1238   19.3951   -1.2436 H   0  0  0  0  0  0  0  0  0  0  0  0
    2.3150   18.7164    1.2862 H   0  0  0  0  0  0  0  0  0  0  0  0
    3.8328   16.8995   -0.2386 H   0  0  0  0  0  0  0  0  0  0  0  0
    4.1919   18.5642   -0.9041 H   0  0  0  0  0  0  0  0  0  0  0  0
    5.1425   17.3068    1.5290 H   0  0  0  0  0  0  0  0  0  0  0  0
    5.6264   18.8636    0.7349 H   0  0  0  0  0  0  0  0  0  0  0  0
    3.1254   18.7788    1.8217 H   0  0  0  0  0  0  0  0  0  0  0  0
    6.0052   18.4139    5.1151 H   0  0  0  0  0  0  0  0  0  0  0  0
    5.9372   17.4286    3.6147 H   0  0  0  0  0  0  0  0  0  0  0  0
    6.7948   19.0070    3.6147 H   0  0  0  0  0  0  0  0  0  0  0  0
    4.2143   19.3118    5.7003 H   0  0  0  0  0  0  0  0  0  0  0  0
    3.4532   20.5589    4.6553 H   0  0  0  0  0  0  0  0  0  0  0  0
    2.8191   18.8782    4.6553 H   0  0  0  0  0  0  0  0  0  0  0  0
    1.2472   16.9272    0.9768 H   0  0  0  0  0  0  0  0  0  0  0  0
   -0.6669   17.9298   -0.1051 H   0  0  0  0  0  0  0  0  0  0  0  0
    0.3358   18.6540   -1.3803 H   0  0  0  0  0  0  0  0  0  0  0  0
   -1.3152   16.3401   -1.6784 H   0  0  0  0  0  0  0  0  0  0  0  0
   -0.0582   16.8096   -2.8198 H   0  0  0  0  0  0  0  0  0  0  0  0
    0.3067   15.1442    0.8750 H   0  0  0  0  0  0  0  0  0  0  0  0
   -1.2110   15.1391   -0.0860 H   0  0  0  0  0  0  0  0  0  0  0  0
   -0.1431   13.6947   -0.0860 H   0  0  0  0  0  0  0  0  0  0  0  0
    1.3068   14.8440   -3.1856 H   0  0  0  0  0  0  0  0  0  0  0  0
   -1.1774   14.2367   -2.8757 H   0  0  0  0  0  0  0  0  0  0  0  0
   -0.0635   13.1939   -3.9055 H   0  0  0  0  0  0  0  0  0  0  0  0
   -1.7444   11.9075   -2.3367 H   0  0  0  0  0  0  0  0  0  0  0  0
    1.4806   12.5429    0.0075 H   0  0  0  0  0  0  0  0  0  0  0  0
    2.4041   10.3942   -1.9997 H   0  0  0  0  0  0  0  0  0  0  0  0
    3.3919   11.1397   -0.6656 H   0  0  0  0  0  0  0  0  0  0  0  0
    2.5795    8.8790   -0.0783 H   0  0  0  0  0  0  0  0  0  0  0  0
    1.9248   10.1690    1.0050 H   0  0  0  0  0  0  0  0  0  0  0  0
    0.1538    8.6422    0.4678 H   0  0  0  0  0  0  0  0  0  0  0  0
    1.1400    9.0840   -2.1710 H   0  0  0  0  0  0  0  0  0  0  0  0
   -0.4302   10.2739    1.7860 H   0  0  0  0  0  0  0  0  0  0  0  0
   -0.1744   11.9522    1.1988 H   0  0  0  0  0  0  0  0  0  0  0  0
   -1.8245   11.2423    1.1988 H   0  0  0  0  0  0  0  0  0  0  0  0
   -2.5113    9.6828    0.0154 H   0  0  0  0  0  0  0  0  0  0  0  0
   -2.4056   10.6956   -1.4644 H   0  0  0  0  0  0  0  0  0  0  0  0
   -1.7282    9.0320   -1.4644 H   0  0  0  0  0  0  0  0  0  0  0  0
    3.3556   11.8615   -2.9876 H   0  0  0  0  0  0  0  0  0  0  0  0
    1.7977   12.1873   -3.8203 H   0  0  0  0  0  0  0  0  0  0  0  0
    3.0934   13.4314   -3.8203 H   0  0  0  0  0  0  0  0  0  0  0  0
    3.7616   13.1802   -0.5922 H   0  0  0  0  0  0  0  0  0  0  0  0
    3.8366   14.3962   -1.9887 H   0  0  0  0  0  0  0  0  0  0  0  0
    2.3938   14.7079    0.6587 H   0  0  0  0  0  0  0  0  0  0  0  0
    3.8161   15.6312    0.0332 H   0  0  0  0  0  0  0  0  0  0  0  0
    3.5191   17.3680   -1.7907 H   0  0  0  0  0  0  0  0  0  0  0  0
    3.1316   15.9053   -2.7587 H   0  0  0  0  0  0  0  0  0  0  0  0
    2.0072   17.3062   -2.7587 H   0  0  0  0  0  0  0  0  0  0  0  0
  1  2  1  0
  2  3  1  0
  3  4  1  0
  4  5  1  0
  5  6  1  0
  6  7  1  0
  7  8  1  0
  7  9  1  0
  2 10  1  0
 10 11  1  0
 11 12  1  0
 12 13  1  0
 13 14  1  1
 13 15  1  0
 15 16  1  0
 16 17  1  0
 17 18  2  0
 18 19  1  0
 19 20  1  0
 20 21  1  0
 21 22  1  0
 22 23  1  0
 22 24  1  0
 24 25  1  0
 24 26  1  0
 19 27  1  0
 27 28  1  6
 27 29  1  0
 29 30  1  0
 30 31  1  0
 31 32  1  6
  7  5  1  0
 31 10  1  0
 31 13  1  0
 27 15  1  0
 24 18  1  0
  1 33  1  0
  1 34  1  0
  1 35  1  0
  2 36  1  1
  3 37  1  0
  3 38  1  0
  4 39  1  0
  4 40  1  0
  5 41  1  1
  8 42  1  0
  8 43  1  0
  8 44  1  0
  9 45  1  0
  9 46  1  0
  9 47  1  0
 10 48  1  1
 11 49  1  0
 11 50  1  0
 12 51  1  0
 12 52  1  0
 14 53  1  0
 14 54  1  0
 14 55  1  0
 15 56  1  6
 16 57  1  0
 16 58  1  0
 17 59  1  0
 19 60  1  1
 20 61  1  0
 20 62  1  0
 21 63  1  0
 21 64  1  0
 22 65  1  1
 23 66  1  0
 25 67  1  0
 25 68  1  0
 25 69  1  0
 26 70  1  0
 26 71  1  0
 26 72  1  0
 28 73  1  0
 28 74  1  0
 28 75  1  0
 29 76  1  0
 29 77  1  0
 30 78  1  0
 30 79  1  0
 32 80  1  0
 32 81  1  0
 32 82  1  0
M  END
>  <meeko>  (3) 
{"is_sidechain": [false], "intermolecular_energy": 2.731, "internal_energy": -0.839}

$$$$
EPH_relaxed_0001_pdb2pqr_Repair_52_r2_0001_out
     RDKit          3D

 82 86  0  0  0  0  0  0  0  0999 V2000
    0.4070   18.4300   -0.0740 C   0  0  0  0  0  0  0  0  0  0  0  0
    1.4910   17.3660   -0.2680 C   0  0  2  0  0  0  0  0  0  0  0  0
    2.7170   17.9160   -1.0230 C   0  0  0  0  0  0  0  0  0  0  0  0
    3.9490   18.1150   -0.1340 C   0  0  0  0  0  0  0  0  0  0  0  0
    3.5720   18.5870    1.2380 C   0  0  2  0  0  0  0  0  0  0  0  0
    3.8000   19.9820    1.4750 O   0  0  0  0  0  0  0  0  0  0  0  0
    4.5810   19.0690    2.2630 C   0  0  0  0  0  0  0  0  0  0  0  0
    6.0460   19.1030    1.9590 C   0  0  0  0  0  0  0  0  0  0  0  0
    4.2000   19.0430    3.7100 C   0  0  0  0  0  0  0  0  0  0  0  0
    0.9150   16.1670   -1.0130 C   0  0  1  0  0  0  0  0  0  0  0  0
    0.7850   16.4190   -2.5390 C   0  0  0  0  0  0  0  0  0  0  0  0
    1.0730   15.0670   -3.2410 C   0  0  0  0  0  0  0  0  0  0  0  0
    1.0300   14.0200   -2.1030 C   0  0  1  0  0  0  0  0  0  0  0  0
   -0.4870   13.7270   -1.8840 C   0  0  0  0  0  0  0  0  0  0  0  0
    1.8430   12.7060   -2.3430 C   0  0  2  0  0  0  0  0  0  0  0  0
    1.3710   11.8550   -3.5360 C   0  0  0  0  0  0  0  0  0  0  0  0
    0.3390   10.8250   -3.2150 C   0  0  0  0  0  0  0  0  0  0  0  0
    0.0180   10.3980   -1.9800 C   0  0  0  0  0  0  0  0  0  0  0  0
    0.7900   10.8910   -0.7500 C   0  0  1  0  0  0  0  0  0  0  0  0
    1.1460    9.6830    0.1570 C   0  0  0  0  0  0  0  0  0  0  0  0
   -0.0770    8.8520    0.5310 C   0  0  0  0  0  0  0  0  0  0  0  0
   -0.7850    8.3310   -0.7180 C   0  0  2  0  0  0  0  0  0  0  0  0
    0.0710    7.3910   -1.3740 O   0  0  0  0  0  0  0  0  0  0  0  0
   -1.1830    9.4580   -1.7110 C   0  0  0  0  0  0  0  0  0  0  0  0
   -2.3340   10.3010   -1.1080 C   0  0  0  0  0  0  0  0  0  0  0  0
   -1.7590    8.7870   -2.9880 C   0  0  0  0  0  0  0  0  0  0  0  0
    2.0440   11.8220   -1.0460 C   0  0  1  0  0  0  0  0  0  0  0  0
    3.3100   10.9460   -1.2960 C   0  0  0  0  0  0  0  0  0  0  0  0
    2.3500   12.6930    0.2300 C   0  0  0  0  0  0  0  0  0  0  0  0
    1.6050   14.0350    0.3500 C   0  0  0  0  0  0  0  0  0  0  0  0
    1.7120   14.8400   -0.9490 C   0  0  2  0  0  0  0  0  0  0  0  0
    3.2260   15.1690   -1.1840 C   0  0  0  0  0  0  0  0  0  0  0  0
    0.2412   18.5927    1.0012 H   0  0  0  0  0  0  0  0  0  0  0  0
    0.7297   19.3718   -0.5419 H   0  0  0  0  0  0  0  0  0  0  0  0
   -0.5286   18.0898   -0.5419 H   0  0  0  0  0  0  0  0  0  0  0  0
    1.8313   17.0550    0.7307 H   0  0  0  0  0  0  0  0  0  0  0  0
    2.9774   17.2089   -1.8243 H   0  0  0  0  0  0  0  0  0  0  0  0
    2.4376   18.9063   -1.4119 H   0  0  0  0  0  0  0  0  0  0  0  0
    4.4844   17.1580   -0.0472 H   0  0  0  0  0  0  0  0  0  0  0  0
    4.5862   18.8824   -0.5977 H   0  0  0  0  0  0  0  0  0  0  0  0
    2.7585   17.8487    1.2941 H   0  0  0  0  0  0  0  0  0  0  0  0
    6.6155   19.1162    2.9000 H   0  0  0  0  0  0  0  0  0  0  0  0
    6.3205   18.2110    1.3768 H   0  0  0  0  0  0  0  0  0  0  0  0
    6.2788   20.0068    1.3768 H   0  0  0  0  0  0  0  0  0  0  0  0
    5.1071   19.1049    4.3292 H   0  0  0  0  0  0  0  0  0  0  0  0
    3.5453   19.8986    3.9322 H   0  0  0  0  0  0  0  0  0  0  0  0
    3.6676   18.1064    3.9322 H   0  0  0  0  0  0  0  0  0  0  0  0
   -0.0398   16.0580   -0.4778 H   0  0  0  0  0  0  0  0  0  0  0  0
   -0.2315   16.7627   -2.7811 H   0  0  0  0  0  0  0  0  0  0  0  0
    1.4890   17.1955   -2.8728 H   0  0  0  0  0  0  0  0  0  0  0  0
    0.3041   14.8505   -3.9972 H   0  0  0  0  0  0  0  0  0  0  0  0
    2.0373   15.0687   -3.7703 H   0  0  0  0  0  0  0  0  0  0  0  0
   -0.7005   13.6858   -0.8057 H   0  0  0  0  0  0  0  0  0  0  0  0
   -1.0852   14.5262   -2.3460 H   0  0  0  0  0  0  0  0  0  0  0  0
   -0.7446   12.7625   -2.3460 H   0  0  0  0  0  0  0  0  0  0  0  0
    2.8346   13.0903   -2.6240 H   0  0  0  0  0  0  0  0  0  0  0  0
    0.9502   12.5337   -4.2925 H   0  0  0  0  0  0  0  0  0  0  0  0
    2.2556   11.3017   -3.8844 H   0  0  0  0  0  0  0  0  0  0  0  0
   -0.2051   10.3772   -4.0597 H   0  0  0  0  0  0  0  0  0  0  0  0
    0.1094   11.5706   -0.2162 H   0  0  0  0  0  0  0  0  0  0  0  0
    1.8598    9.0390   -0.3775 H   0  0  0  0  0  0  0  0  0  0  0  0
    1.5773   10.0800    1.0878 H   0  0  0  0  0  0  0  0  0  0  0  0
    0.2424    7.9981    1.1465 H   0  0  0  0  0  0  0  0  0  0  0  0
   -0.7768    9.4893    1.0914 H   0  0  0  0  0  0  0  0  0  0  0  0
   -1.7218    7.8551   -0.3927 H   0  0  0  0  0  0  0  0  0  0  0  0
   -0.1070    6.5150   -0.9930 H   0  0  0  0  0  0  0  0  0  0  0  0
   -2.2807   10.2620   -0.0100 H   0  0  0  0  0  0  0  0  0  0  0  0
   -2.2386   11.3444   -1.4429 H   0  0  0  0  0  0  0  0  0  0  0  0
   -3.3000    9.8953   -1.4429 H   0  0  0  0  0  0  0  0  0  0  0  0
   -2.4503    7.9817   -2.6990 H   0  0  0  0  0  0  0  0  0  0  0  0
   -2.2988    9.5371   -3.5847 H   0  0  0  0  0  0  0  0  0  0  0  0
   -0.9358    8.3671   -3.5847 H   0  0  0  0  0  0  0  0  0  0  0  0
    3.7443   10.6455   -0.3311 H   0  0  0  0  0  0  0  0  0  0  0  0
    3.0282   10.0488   -1.8666 H   0  0  0  0  0  0  0  0  0  0  0  0
    4.0503   11.5259   -1.8666 H   0  0  0  0  0  0  0  0  0  0  0  0
    2.0938   12.0901    1.1136 H   0  0  0  0  0  0  0  0  0  0  0  0
    3.4136   12.9609    0.1470 H   0  0  0  0  0  0  0  0  0  0  0  0
    0.5442   13.8396    0.5658 H   0  0  0  0  0  0  0  0  0  0  0  0
    2.0623   14.6184    1.1627 H   0  0  0  0  0  0  0  0  0  0  0  0
    3.7322   15.2790   -0.2136 H   0  0  0  0  0  0  0  0  0  0  0  0
    3.6950   14.3518   -1.7517 H   0  0  0  0  0  0  0  0  0  0  0  0
    3.3135   16.1071   -1.7517 H   0  0  0  0  0  0  0  0  0  0  0  0
  1  2  1  0
  2  3  1  0
  3  4  1  0
  4  5  1  0
  5  6  1  0
  6  7  1  0
  7  8  1  0
  7  9  1  0
  2 10  1  0
 10 11  1  0
 11 12  1  0
 12 13  1  0
 13 14  1  1
 13 15  1  0
 15 16  1  0
 16 17  1  0
 17 18  2  0
 18 19  1  0
 19 20  1  0
 20 21  1  0
 21 22  1  0
 22 23  1  0
 22 24  1  0
 24 25  1  0
 24 26  1  0
 19 27  1  0
 27 28  1  6
 27 29  1  0
 29 30  1  0
 30 31  1  0
 31 32  1  6
  7  5  1  0
 31 10  1  0
 31 13  1  0
 27 15  1  0
 24 18  1  0
  1 33  1  0
  1 34  1  0
  1 35  1  0
  2 36  1  1
  3 37  1  0
  3 38  1  0
  4 39  1  0
  4 40  1  0
  5 41  1  1
  8 42  1  0
  8 43  1  0
  8 44  1  0
  9 45  1  0
  9 46  1  0
  9 47  1  0
 10 48  1  1
 11 49  1  0
 11 50  1  0
 12 51  1  0
 12 52  1  0
 14 53  1  0
 14 54  1  0
 14 55  1  0
 15 56  1  6
 16 57  1  0
 16 58  1  0
 17 59  1  0
 19 60  1  1
 20 61  1  0
 20 62  1  0
 21 63  1  0
 21 64  1  0
 22 65  1  1
 23 66  1  0
 25 67  1  0
 25 68  1  0
 25 69  1  0
 26 70  1  0
 26 71  1  0
 26 72  1  0
 28 73  1  0
 28 74  1  0
 28 75  1  0
 29 76  1  0
 29 77  1  0
 30 78  1  0
 30 79  1  0
 32 80  1  0
 32 81  1  0
 32 82  1  0
M  END
>  <meeko>  (4) 
{"is_sidechain": [false], "intermolecular_energy": 2.731, "internal_energy": -0.839}

$$$$
EPH_relaxed_0001_pdb2pqr_Repair_52_r2_0001_out
     RDKit          3D

 82 86  0  0  0  0  0  0  0  0999 V2000
    3.6130   17.6170    0.6870 C   0  0  0  0  0  0  0  0  0  0  0  0
    2.7800   17.9010   -0.5660 C   0  0  2  0  0  0  0  0  0  0  0  0
    2.1130   19.2900   -0.5170 C   0  0  0  0  0  0  0  0  0  0  0  0
    1.2240   19.5040    0.7100 C   0  0  0  0  0  0  0  0  0  0  0  0
   -0.0990   20.1030    0.3400 C   0  0  2  0  0  0  0  0  0  0  0  0
   -1.0380   20.1940    1.4180 O   0  0  0  0  0  0  0  0  0  0  0  0
   -1.4000   19.3230    0.3350 C   0  0  0  0  0  0  0  0  0  0  0  0
   -1.4410   17.8740    0.7080 C   0  0  0  0  0  0  0  0  0  0  0  0
   -2.5370   19.8320   -0.4950 C   0  0  0  0  0  0  0  0  0  0  0  0
    1.7200   16.8200   -0.7410 C   0  0  1  0  0  0  0  0  0  0  0  0
    0.5250   17.2910   -1.6110 C   0  0  0  0  0  0  0  0  0  0  0  0
    0.0490   16.0590   -2.4230 C   0  0  0  0  0  0  0  0  0  0  0  0
    0.7580   14.8560   -1.7570 C   0  0  1  0  0  0  0  0  0  0  0  0
   -0.1100   14.5230   -0.5030 C   0  0  0  0  0  0  0  0  0  0  0  0
    0.9780   13.5980   -2.6580 C   0  0  2  0  0  0  0  0  0  0  0  0
   -0.3100   12.9270   -3.1670 C   0  0  0  0  0  0  0  0  0  0  0  0
   -0.8610   11.8540   -2.2870 C   0  0  0  0  0  0  0  0  0  0  0  0
   -0.1980   11.2470   -1.2850 C   0  0  0  0  0  0  0  0  0  0  0  0
    1.2790   11.5610   -1.0140 C   0  0  1  0  0  0  0  0  0  0  0  0
    2.0620   10.2370   -0.8150 C   0  0  0  0  0  0  0  0  0  0  0  0
    1.4470    9.3510    0.2640 C   0  0  0  0  0  0  0  0  0  0  0  0
   -0.0040    9.0120   -0.0700 C   0  0  2  0  0  0  0  0  0  0  0  0
   -0.0280    8.1850   -1.2370 O   0  0  0  0  0  0  0  0  0  0  0  0
   -0.8880   10.2690   -0.3030 C   0  0  0  0  0  0  0  0  0  0  0  0
   -1.1090   11.0060    1.0420 C   0  0  0  0  0  0  0  0  0  0  0  0
   -2.2890    9.7880   -0.7690 C   0  0  0  0  0  0  0  0  0  0  0  0
    1.9830   12.5350   -2.0550 C   0  0  1  0  0  0  0  0  0  0  0  0
    2.5400   11.7150   -3.2580 C   0  0  0  0  0  0  0  0  0  0  0  0
    3.2260   13.2120   -1.3650 C   0  0  0  0  0  0  0  0  0  0  0  0
    2.9650   14.5170   -0.5890 C   0  0  0  0  0  0  0  0  0  0  0  0
    2.1540   15.5040   -1.4340 C   0  0  2  0  0  0  0  0  0  0  0  0
    3.0110   15.8750   -2.6920 C   0  0  0  0  0  0  0  0  0  0  0  0
    3.0092   17.8229    1.5831 H   0  0  0  0  0  0  0  0  0  0  0  0
    3.9243   16.5620    0.6890 H   0  0  0  0  0  0  0  0  0  0  0  0
    4.5039   18.2622    0.6890 H   0  0  0  0  0  0  0  0  0  0  0  0
    3.4642   17.8937   -1.4273 H   0  0  0  0  0  0  0  0  0  0  0  0
    2.9037   20.0546   -0.5102 H   0  0  0  0  0  0  0  0  0  0  0  0
    1.4630   19.3652   -1.4012 H   0  0  0  0  0  0  0  0  0  0  0  0
    1.0516   18.5336    1.1985 H   0  0  0  0  0  0  0  0  0  0  0  0
    1.7380   20.2015    1.3877 H   0  0  0  0  0  0  0  0  0  0  0  0
    0.3781   20.7465   -0.4138 H   0  0  0  0  0  0  0  0  0  0  0  0
   -1.4437   17.7774    1.8037 H   0  0  0  0  0  0  0  0  0  0  0  0
   -2.3525   17.4153    0.2972 H   0  0  0  0  0  0  0  0  0  0  0  0
   -0.5569   17.3645    0.2972 H   0  0  0  0  0  0  0  0  0  0  0  0
   -3.3404   20.1916    0.1648 H   0  0  0  0  0  0  0  0  0  0  0  0
   -2.1861   20.6590   -1.1298 H   0  0  0  0  0  0  0  0  0  0  0  0
   -2.9201   19.0194   -1.1298 H   0  0  0  0  0  0  0  0  0  0  0  0
    1.4774   16.6268    0.3144 H   0  0  0  0  0  0  0  0  0  0  0  0
   -0.2890   17.6589   -0.9690 H   0  0  0  0  0  0  0  0  0  0  0  0
    0.8227   18.1128   -2.2788 H   0  0  0  0  0  0  0  0  0  0  0  0
   -1.0437   15.9501   -2.3589 H   0  0  0  0  0  0  0  0  0  0  0  0
    0.2900   16.1456   -3.4928 H   0  0  0  0  0  0  0  0  0  0  0  0
    0.4640   14.7432    0.4092 H   0  0  0  0  0  0  0  0  0  0  0  0
   -1.0245   15.1341   -0.5173 H   0  0  0  0  0  0  0  0  0  0  0  0
   -0.3811   13.4570   -0.5173 H   0  0  0  0  0  0  0  0  0  0  0  0
    1.4636   14.0275   -3.5467 H   0  0  0  0  0  0  0  0  0  0  0  0
   -1.0791   13.7060   -3.2754 H   0  0  0  0  0  0  0  0  0  0  0  0
   -0.0433   12.4362   -4.1146 H   0  0  0  0  0  0  0  0  0  0  0  0
   -1.8963   11.5323   -2.4732 H   0  0  0  0  0  0  0  0  0  0  0  0
    1.2990   12.1499   -0.0851 H   0  0  0  0  0  0  0  0  0  0  0  0
    2.0665    9.6836   -1.7656 H   0  0  0  0  0  0  0  0  0  0  0  0
    3.0814   10.4967   -0.4933 H   0  0  0  0  0  0  0  0  0  0  0  0
    2.0266    8.4190    0.3381 H   0  0  0  0  0  0  0  0  0  0  0  0
    1.4695    9.8948    1.2199 H   0  0  0  0  0  0  0  0  0  0  0  0
   -0.4278    8.4860    0.7981 H   0  0  0  0  0  0  0  0  0  0  0  0
    0.8530    7.7840   -1.3310 H   0  0  0  0  0  0  0  0  0  0  0  0
   -0.9027   10.3181    1.8752 H   0  0  0  0  0  0  0  0  0  0  0  0
   -0.4303   11.8695    1.1028 H   0  0  0  0  0  0  0  0  0  0  0  0
   -2.1509   11.3536    1.1028 H   0  0  0  0  0  0  0  0  0  0  0  0
   -2.9142    9.5734    0.1103 H   0  0  0  0  0  0  0  0  0  0  0  0
   -2.7643   10.5744   -1.3737 H   0  0  0  0  0  0  0  0  0  0  0  0
   -2.1810    8.8755   -1.3737 H   0  0  0  0  0  0  0  0  0  0  0  0
    3.1207   10.8600   -2.8815 H   0  0  0  0  0  0  0  0  0  0  0  0
    1.7032   11.3485   -3.8707 H   0  0  0  0  0  0  0  0  0  0  0  0
    3.1891   12.3578   -3.8707 H   0  0  0  0  0  0  0  0  0  0  0  0
    3.6516   12.4842   -0.6584 H   0  0  0  0  0  0  0  0  0  0  0  0
    3.8936   13.4974   -2.1913 H   0  0  0  0  0  0  0  0  0  0  0  0
    2.4051   14.2842    0.3288 H   0  0  0  0  0  0  0  0  0  0  0  0
    3.9327   14.9784   -0.3428 H   0  0  0  0  0  0  0  0  0  0  0  0
    3.9758   16.2926   -2.3682 H   0  0  0  0  0  0  0  0  0  0  0  0
    3.1863   14.9722   -3.2955 H   0  0  0  0  0  0  0  0  0  0  0  0
    2.4727   16.6206   -3.2955 H   0  0  0  0  0  0  0  0  0  0  0  0
  1  2  1  0
  2  3  1  0
  3  4  1  0
  4  5  1  0
  5  6  1  0
  6  7  1  0
  7  8  1  0
  7  9  1  0
  2 10  1  0
 10 11  1  0
 11 12  1  0
 12 13  1  0
 13 14  1  1
 13 15  1  0
 15 16  1  0
 16 17  1  0
 17 18  2  0
 18 19  1  0
 19 20  1  0
 20 21  1  0
 21 22  1  0
 22 23  1  0
 22 24  1  0
 24 25  1  0
 24 26  1  0
 19 27  1  0
 27 28  1  6
 27 29  1  0
 29 30  1  0
 30 31  1  0
 31 32  1  6
  7  5  1  0
 31 10  1  0
 31 13  1  0
 27 15  1  0
 24 18  1  0
  1 33  1  0
  1 34  1  0
  1 35  1  0
  2 36  1  6
  3 37  1  0
  3 38  1  0
  4 39  1  0
  4 40  1  0
  5 41  1  6
  8 42  1  0
  8 43  1  0
  8 44  1  0
  9 45  1  0
  9 46  1  0
  9 47  1  0
 10 48  1  1
 11 49  1  0
 11 50  1  0
 12 51  1  0
 12 52  1  0
 14 53  1  0
 14 54  1  0
 14 55  1  0
 15 56  1  6
 16 57  1  0
 16 58  1  0
 17 59  1  0
 19 60  1  1
 20 61  1  0
 20 62  1  0
 21 63  1  0
 21 64  1  0
 22 65  1  1
 23 66  1  0
 25 67  1  0
 25 68  1  0
 25 69  1  0
 26 70  1  0
 26 71  1  0
 26 72  1  0
 28 73  1  0
 28 74  1  0
 28 75  1  0
 29 76  1  0
 29 77  1  0
 30 78  1  0
 30 79  1  0
 32 80  1  0
 32 81  1  0
 32 82  1  0
M  END
>  <meeko>  (5) 
{"is_sidechain": [false], "intermolecular_energy": 2.731, "internal_energy": -0.839}

$$$$
EPH_relaxed_0001_pdb2pqr_Repair_52_r2_0001_out
     RDKit          3D

 82 86  0  0  0  0  0  0  0  0999 V2000
    0.4340    8.8540   -2.5140 C   0  0  0  0  0  0  0  0  0  0  0  0
    1.1890   10.0150   -3.1680 C   0  0  2  0  0  0  0  0  0  0  0  0
    2.6840   10.0210   -2.7910 C   0  0  0  0  0  0  0  0  0  0  0  0
    3.5900   10.6080   -3.8770 C   0  0  0  0  0  0  0  0  0  0  0  0
    4.9810   10.8460   -3.3690 C   0  0  2  0  0  0  0  0  0  0  0  0
    5.5900   12.0560   -3.8370 O   0  0  0  0  0  0  0  0  0  0  0  0
    6.2100   10.8310   -4.2590 C   0  0  0  0  0  0  0  0  0  0  0  0
    6.1050   10.5710   -5.7290 C   0  0  0  0  0  0  0  0  0  0  0  0
    7.5450   10.5830   -3.6300 C   0  0  0  0  0  0  0  0  0  0  0  0
    0.5470   11.3400   -2.7740 C   0  0  1  0  0  0  0  0  0  0  0  0
   -0.8270   11.1540   -2.0770 C   0  0  0  0  0  0  0  0  0  0  0  0
   -0.9430   12.2740   -1.0110 C   0  0  0  0  0  0  0  0  0  0  0  0
    0.2030   13.2560   -1.3510 C   0  0  1  0  0  0  0  0  0  0  0  0
   -0.3540   14.1340   -2.5150 C   0  0  0  0  0  0  0  0  0  0  0  0
    0.7340   14.1330   -0.1700 C   0  0  2  0  0  0  0  0  0  0  0  0
   -0.2980   15.0950    0.4440 C   0  0  0  0  0  0  0  0  0  0  0  0
   -0.3480   16.4540   -0.1720 C   0  0  0  0  0  0  0  0  0  0  0  0
    0.5900   16.9810   -0.9820 C   0  0  0  0  0  0  0  0  0  0  0  0
    1.8920   16.2250   -1.2740 C   0  0  1  0  0  0  0  0  0  0  0  0
    3.0960   17.1940   -1.1300 C   0  0  0  0  0  0  0  0  0  0  0  0
    2.9440   18.4470   -1.9860 C   0  0  0  0  0  0  0  0  0  0  0  0
    1.6670   19.2020   -1.6260 C   0  0  2  0  0  0  0  0  0  0  0  0
    1.7950   19.7170   -0.2970 O   0  0  0  0  0  0  0  0  0  0  0  0
    0.3880   18.3240   -1.7250 C   0  0  0  0  0  0  0  0  0  0  0  0
    0.0820   18.0160   -3.2110 C   0  0  0  0  0  0  0  0  0  0  0  0
   -0.8090   19.1630   -1.2000 C   0  0  0  0  0  0  0  0  0  0  0  0
    2.1020   14.8680   -0.4740 C   0  0  1  0  0  0  0  0  0  0  0  0
    2.7650   15.1620    0.9070 C   0  0  0  0  0  0  0  0  0  0  0  0
    3.1100   13.9540   -1.2660 C   0  0  0  0  0  0  0  0  0  0  0  0
    2.5100   13.0240   -2.3370 C   0  0  0  0  0  0  0  0  0  0  0  0
    1.3220   12.2360   -1.7750 C   0  0  2  0  0  0  0  0  0  0  0  0
    1.8550   11.3270   -0.6160 C   0  0  0  0  0  0  0  0  0  0  0  0
    0.4947    8.9473   -1.4196 H   0  0  0  0  0  0  0  0  0  0  0  0
   -0.6204    8.8801   -2.8263 H   0  0  0  0  0  0  0  0  0  0  0  0
    0.8855    7.9008   -2.8263 H   0  0  0  0  0  0  0  0  0  0  0  0
    1.1240    9.8800   -4.2578 H   0  0  0  0  0  0  0  0  0  0  0  0
    2.8088   10.6170   -1.8749 H   0  0  0  0  0  0  0  0  0  0  0  0
    2.9852    8.9720   -2.6533 H   0  0  0  0  0  0  0  0  0  0  0  0
    3.6344    9.9057   -4.7224 H   0  0  0  0  0  0  0  0  0  0  0  0
    3.1687   11.5748   -4.1899 H   0  0  0  0  0  0  0  0  0  0  0  0
    4.7486   10.3353   -2.4229 H   0  0  0  0  0  0  0  0  0  0  0  0
    5.6978    9.5627   -5.8948 H   0  0  0  0  0  0  0  0  0  0  0  0
    5.4372   11.3159   -6.1863 H   0  0  0  0  0  0  0  0  0  0  0  0
    7.1028   10.6433   -6.1863 H   0  0  0  0  0  0  0  0  0  0  0  0
    7.4435   10.6019   -2.5349 H   0  0  0  0  0  0  0  0  0  0  0  0
    7.9224    9.5994   -3.9464 H   0  0  0  0  0  0  0  0  0  0  0  0
    8.2504   11.3655   -3.9464 H   0  0  0  0  0  0  0  0  0  0  0  0
    0.5046   11.8253   -3.7603 H   0  0  0  0  0  0  0  0  0  0  0  0
   -1.6401   11.2451   -2.8122 H   0  0  0  0  0  0  0  0  0  0  0  0
   -0.9038   10.1589   -1.6144 H   0  0  0  0  0  0  0  0  0  0  0  0
   -1.9188   12.7769   -1.0806 H   0  0  0  0  0  0  0  0  0  0  0  0
   -0.8674   11.8835    0.0146 H   0  0  0  0  0  0  0  0  0  0  0  0
   -0.8992   14.9934   -2.0976 H   0  0  0  0  0  0  0  0  0  0  0  0
    0.4807   14.4948   -3.1339 H   0  0  0  0  0  0  0  0  0  0  0  0
   -1.0361   13.5326   -3.1339 H   0  0  0  0  0  0  0  0  0  0  0  0
    0.9407   13.3828    0.6075 H   0  0  0  0  0  0  0  0  0  0  0  0
   -1.2930   14.6377    0.3399 H   0  0  0  0  0  0  0  0  0  0  0  0
    0.0103   15.2456    1.4891 H   0  0  0  0  0  0  0  0  0  0  0  0
   -1.2252   17.0777    0.0549 H   0  0  0  0  0  0  0  0  0  0  0  0
    1.8142   15.8767   -2.3145 H   0  0  0  0  0  0  0  0  0  0  0  0
    3.1818   17.4956   -0.0756 H   0  0  0  0  0  0  0  0  0  0  0  0
    3.9955   16.6621   -1.4735 H   0  0  0  0  0  0  0  0  0  0  0  0
    3.8101   19.1043   -1.8190 H   0  0  0  0  0  0  0  0  0  0  0  0
    2.8878   18.1458   -3.0425 H   0  0  0  0  0  0  0  0  0  0  0  0
    1.5471   20.0150   -2.3572 H   0  0  0  0  0  0  0  0  0  0  0  0
    1.4050   19.0650    0.3100 H   0  0  0  0  0  0  0  0  0  0  0  0
   -0.6921   17.2369   -3.2721 H   0  0  0  0  0  0  0  0  0  0  0  0
   -0.2768   18.9292   -3.7084 H   0  0  0  0  0  0  0  0  0  0  0  0
    0.9975   17.6631   -3.7084 H   0  0  0  0  0  0  0  0  0  0  0  0
   -0.8045   19.1599   -0.1000 H   0  0  0  0  0  0  0  0  0  0  0  0
   -0.7196   20.1971   -1.5641 H   0  0  0  0  0  0  0  0  0  0  0  0
   -1.7506   18.7262   -1.5641 H   0  0  0  0  0  0  0  0  0  0  0  0
    2.0815   14.8589    1.7138 H   0  0  0  0  0  0  0  0  0  0  0  0
    3.7046   14.5962    0.9905 H   0  0  0  0  0  0  0  0  0  0  0  0
    2.9764   16.2383    0.9905 H   0  0  0  0  0  0  0  0  0  0  0  0
    3.8347   14.6134   -1.7660 H   0  0  0  0  0  0  0  0  0  0  0  0
    3.5431   13.2815   -0.5108 H   0  0  0  0  0  0  0  0  0  0  0  0
    2.1692   13.6297   -3.1896 H   0  0  0  0  0  0  0  0  0  0  0  0
    3.2844   12.3111   -2.6566 H   0  0  0  0  0  0  0  0  0  0  0  0
    1.5916   11.7762    0.3530 H   0  0  0  0  0  0  0  0  0  0  0  0
    1.3991   10.3289   -0.6935 H   0  0  0  0  0  0  0  0  0  0  0  0
    2.9486   11.2375   -0.6935 H   0  0  0  0  0  0  0  0  0  0  0  0
  1  2  1  0
  2  3  1  0
  3  4  1  0
  4  5  1  0
  5  6  1  0
  6  7  1  0
  7  8  1  0
  7  9  1  0
  2 10  1  0
 10 11  1  0
 11 12  1  0
 12 13  1  0
 13 14  1  6
 13 15  1  0
 15 16  1  0
 16 17  1  0
 17 18  2  0
 18 19  1  0
 19 20  1  0
 20 21  1  0
 21 22  1  0
 22 23  1  0
 22 24  1  0
 24 25  1  0
 24 26  1  0
 19 27  1  0
 27 28  1  1
 27 29  1  0
 29 30  1  0
 30 31  1  0
 31 32  1  1
  7  5  1  0
 31 10  1  0
 31 13  1  0
 27 15  1  0
 24 18  1  0
  1 33  1  0
  1 34  1  0
  1 35  1  0
  2 36  1  6
  3 37  1  0
  3 38  1  0
  4 39  1  0
  4 40  1  0
  5 41  1  1
  8 42  1  0
  8 43  1  0
  8 44  1  0
  9 45  1  0
  9 46  1  0
  9 47  1  0
 10 48  1  6
 11 49  1  0
 11 50  1  0
 12 51  1  0
 12 52  1  0
 14 53  1  0
 14 54  1  0
 14 55  1  0
 15 56  1  1
 16 57  1  0
 16 58  1  0
 17 59  1  0
 19 60  1  6
 20 61  1  0
 20 62  1  0
 21 63  1  0
 21 64  1  0
 22 65  1  6
 23 66  1  0
 25 67  1  0
 25 68  1  0
 25 69  1  0
 26 70  1  0
 26 71  1  0
 26 72  1  0
 28 73  1  0
 28 74  1  0
 28 75  1  0
 29 76  1  0
 29 77  1  0
 30 78  1  0
 30 79  1  0
 32 80  1  0
 32 81  1  0
 32 82  1  0
M  END
>  <meeko>  (6) 
{"is_sidechain": [false], "intermolecular_energy": 2.731, "internal_energy": -0.839}

$$$$
EPH_relaxed_0001_pdb2pqr_Repair_52_r2_0001_out
     RDKit          3D

 82 86  0  0  0  0  0  0  0  0999 V2000
    0.1600   17.7810   -2.5290 C   0  0  0  0  0  0  0  0  0  0  0  0
   -0.0510   16.9130   -1.2850 C   0  0  2  0  0  0  0  0  0  0  0  0
   -0.0550   17.7470    0.0110 C   0  0  0  0  0  0  0  0  0  0  0  0
    0.6120   19.1170   -0.1360 C   0  0  0  0  0  0  0  0  0  0  0  0
    1.7170   19.3050    0.8590 C   0  0  2  0  0  0  0  0  0  0  0  0
    2.7590   20.1940    0.4370 O   0  0  0  0  0  0  0  0  0  0  0  0
    3.1380   18.8220    0.6330 C   0  0  0  0  0  0  0  0  0  0  0  0
    3.5300   18.1130   -0.6250 C   0  0  0  0  0  0  0  0  0  0  0  0
    4.0180   18.6050    1.8250 C   0  0  0  0  0  0  0  0  0  0  0  0
    1.0290   15.8400   -1.2110 C   0  0  1  0  0  0  0  0  0  0  0  0
    1.2470   15.3110    0.2320 C   0  0  0  0  0  0  0  0  0  0  0  0
    1.5910   13.8040    0.1080 C   0  0  0  0  0  0  0  0  0  0  0  0
    1.8850   13.5930   -1.3960 C   0  0  1  0  0  0  0  0  0  0  0  0
    3.3570   14.0730   -1.5880 C   0  0  0  0  0  0  0  0  0  0  0  0
    1.6740   12.1440   -1.9440 C   0  0  2  0  0  0  0  0  0  0  0  0
    2.5830   11.0710   -1.3200 C   0  0  0  0  0  0  0  0  0  0  0  0
    3.8810   10.8470   -2.0240 C   0  0  0  0  0  0  0  0  0  0  0  0
    4.1800   11.2700   -3.2660 C   0  0  0  0  0  0  0  0  0  0  0  0
    3.1270   11.9700   -4.1350 C   0  0  1  0  0  0  0  0  0  0  0  0
    3.1480   11.3630   -5.5620 C   0  0  0  0  0  0  0  0  0  0  0  0
    4.5370   11.3940   -6.1910 C   0  0  0  0  0  0  0  0  0  0  0  0
    5.5440   10.6380   -5.3270 C   0  0  2  0  0  0  0  0  0  0  0  0
    5.2040    9.2480   -5.3320 O   0  0  0  0  0  0  0  0  0  0  0  0
    5.6040   11.1560   -3.8630 C   0  0  0  0  0  0  0  0  0  0  0  0
    6.2580   12.5590   -3.8340 C   0  0  0  0  0  0  0  0  0  0  0  0
    6.5510   10.2190   -3.0640 C   0  0  0  0  0  0  0  0  0  0  0  0
    1.6620   12.0440   -3.5240 C   0  0  1  0  0  0  0  0  0  0  0  0
    0.8700   10.7500   -3.8820 C   0  0  0  0  0  0  0  0  0  0  0  0
    0.8860   13.2390   -4.1930 C   0  0  0  0  0  0  0  0  0  0  0  0
    1.0390   14.6230   -3.5340 C   0  0  0  0  0  0  0  0  0  0  0  0
    0.7990   14.5410   -2.0240 C   0  0  2  0  0  0  0  0  0  0  0  0
   -0.6820   14.0820   -1.7990 C   0  0  0  0  0  0  0  0  0  0  0  0
    0.4095   18.8074   -2.2219 H   0  0  0  0  0  0  0  0  0  0  0  0
    0.9838   17.3674   -3.1293 H   0  0  0  0  0  0  0  0  0  0  0  0
   -0.7617   17.7917   -3.1293 H   0  0  0  0  0  0  0  0  0  0  0  0
   -1.0398   16.4396   -1.3755 H   0  0  0  0  0  0  0  0  0  0  0  0
   -1.0990   17.9007    0.3217 H   0  0  0  0  0  0  0  0  0  0  0  0
    0.5267   17.1849    0.7564 H   0  0  0  0  0  0  0  0  0  0  0  0
    1.0274   19.2042   -1.1508 H   0  0  0  0  0  0  0  0  0  0  0  0
   -0.1489   19.8902    0.0462 H   0  0  0  0  0  0  0  0  0  0  0  0
    1.0165   19.1714    1.6965 H   0  0  0  0  0  0  0  0  0  0  0  0
    4.0479   17.1762   -0.3717 H   0  0  0  0  0  0  0  0  0  0  0  0
    2.6291   17.8862   -1.2140 H   0  0  0  0  0  0  0  0  0  0  0  0
    4.2011   18.7554   -1.2140 H   0  0  0  0  0  0  0  0  0  0  0  0
    3.4319   18.7495    2.7446 H   0  0  0  0  0  0  0  0  0  0  0  0
    4.4192   17.5810    1.8030 H   0  0  0  0  0  0  0  0  0  0  0  0
    4.8493   19.3251    1.8030 H   0  0  0  0  0  0  0  0  0  0  0  0
    1.8759   16.4015   -1.6322 H   0  0  0  0  0  0  0  0  0  0  0  0
    2.0765   15.8508    0.7122 H   0  0  0  0  0  0  0  0  0  0  0  0
    0.3484   15.4619    0.8483 H   0  0  0  0  0  0  0  0  0  0  0  0
    2.4744   13.5562    0.7148 H   0  0  0  0  0  0  0  0  0  0  0  0
    0.7758   13.1592    0.4680 H   0  0  0  0  0  0  0  0  0  0  0  0
    3.8243   14.2254   -0.6039 H   0  0  0  0  0  0  0  0  0  0  0  0
    3.9207   13.3121   -2.1477 H   0  0  0  0  0  0  0  0  0  0  0  0
    3.3638   15.0199   -2.1477 H   0  0  0  0  0  0  0  0  0  0  0  0
    0.6557   11.9084   -1.6011 H   0  0  0  0  0  0  0  0  0  0  0  0
    2.8049   11.3730   -0.2858 H   0  0  0  0  0  0  0  0  0  0  0  0
    2.0295   10.1232   -1.3929 H   0  0  0  0  0  0  0  0  0  0  0  0
    4.6583   10.2891   -1.4814 H   0  0  0  0  0  0  0  0  0  0  0  0
    3.4207   13.0293   -4.1757 H   0  0  0  0  0  0  0  0  0  0  0  0
    2.8099   10.3178   -5.5055 H   0  0  0  0  0  0  0  0  0  0  0  0
    2.4825   11.9706   -6.1928 H   0  0  0  0  0  0  0  0  0  0  0  0
    4.4925   10.9257   -7.1853 H   0  0  0  0  0  0  0  0  0  0  0  0
    4.8618   12.4417   -6.2737 H   0  0  0  0  0  0  0  0  0  0  0  0
    6.5414   10.8041   -5.7601 H   0  0  0  0  0  0  0  0  0  0  0  0
    5.9910    8.7520   -5.0500 H   0  0  0  0  0  0  0  0  0  0  0  0
    6.4047   12.8737   -2.7902 H   0  0  0  0  0  0  0  0  0  0  0  0
    7.2310   12.5206   -4.3456 H   0  0  0  0  0  0  0  0  0  0  0  0
    5.6029   13.2795   -4.3456 H   0  0  0  0  0  0  0  0  0  0  0  0
    6.3953   10.3730   -1.9860 H   0  0  0  0  0  0  0  0  0  0  0  0
    6.3324    9.1718   -3.3201 H   0  0  0  0  0  0  0  0  0  0  0  0
    7.5958   10.4487   -3.3201 H   0  0  0  0  0  0  0  0  0  0  0  0
    0.5594   10.2425   -2.9568 H   0  0  0  0  0  0  0  0  0  0  0  0
   -0.0202   11.0161   -4.4709 H   0  0  0  0  0  0  0  0  0  0  0  0
    1.5119   10.0783   -4.4709 H   0  0  0  0  0  0  0  0  0  0  0  0
    1.2381   13.3244   -5.2316 H   0  0  0  0  0  0  0  0  0  0  0  0
   -0.1791   12.9859   -4.0863 H   0  0  0  0  0  0  0  0  0  0  0  0
    2.0569   14.9979   -3.7167 H   0  0  0  0  0  0  0  0  0  0  0  0
    0.2936   15.3037   -3.9710 H   0  0  0  0  0  0  0  0  0  0  0  0
   -0.8863   14.0187   -0.7200 H   0  0  0  0  0  0  0  0  0  0  0  0
   -1.3656   14.8104   -2.2595 H   0  0  0  0  0  0  0  0  0  0  0  0
   -0.8339   13.0946   -2.2595 H   0  0  0  0  0  0  0  0  0  0  0  0
  1  2  1  0
  2  3  1  0
  3  4  1  0
  4  5  1  0
  5  6  1  0
  6  7  1  0
  7  8  1  0
  7  9  1  0
  2 10  1  0
 10 11  1  0
 11 12  1  0
 12 13  1  0
 13 14  1  1
 13 15  1  0
 15 16  1  0
 16 17  1  0
 17 18  2  0
 18 19  1  0
 19 20  1  0
 20 21  1  0
 21 22  1  0
 22 23  1  0
 22 24  1  0
 24 25  1  0
 24 26  1  0
 19 27  1  0
 27 28  1  1
 27 29  1  0
 29 30  1  0
 30 31  1  0
 31 32  1  6
  7  5  1  0
 31 10  1  0
 31 13  1  0
 27 15  1  0
 24 18  1  0
  1 33  1  0
  1 34  1  0
  1 35  1  0
  2 36  1  6
  3 37  1  0
  3 38  1  0
  4 39  1  0
  4 40  1  0
  5 41  1  1
  8 42  1  0
  8 43  1  0
  8 44  1  0
  9 45  1  0
  9 46  1  0
  9 47  1  0
 10 48  1  6
 11 49  1  0
 11 50  1  0
 12 51  1  0
 12 52  1  0
 14 53  1  0
 14 54  1  0
 14 55  1  0
 15 56  1  1
 16 57  1  0
 16 58  1  0
 17 59  1  0
 19 60  1  6
 20 61  1  0
 20 62  1  0
 21 63  1  0
 21 64  1  0
 22 65  1  6
 23 66  1  0
 25 67  1  0
 25 68  1  0
 25 69  1  0
 26 70  1  0
 26 71  1  0
 26 72  1  0
 28 73  1  0
 28 74  1  0
 28 75  1  0
 29 76  1  0
 29 77  1  0
 30 78  1  0
 30 79  1  0
 32 80  1  0
 32 81  1  0
 32 82  1  0
M  END
>  <meeko>  (7) 
{"is_sidechain": [false], "intermolecular_energy": 2.731, "internal_energy": -0.839}

$$$$
EPH_relaxed_0001_pdb2pqr_Repair_52_r2_0001_out
     RDKit          3D

 82 86  0  0  0  0  0  0  0  0999 V2000
    2.7540   19.7250   -0.5520 C   0  0  0  0  0  0  0  0  0  0  0  0
    2.4610   18.8000   -1.7370 C   0  0  2  0  0  0  0  0  0  0  0  0
    0.9960   18.9010   -2.2050 C   0  0  0  0  0  0  0  0  0  0  0  0
    0.2960   20.1900   -1.7630 C   0  0  0  0  0  0  0  0  0  0  0  0
   -0.6340   19.9490   -0.6130 C   0  0  2  0  0  0  0  0  0  0  0  0
   -1.3850   18.7300   -0.6950 O   0  0  0  0  0  0  0  0  0  0  0  0
   -2.1450   19.9480   -0.7450 C   0  0  0  0  0  0  0  0  0  0  0  0
   -2.8130   20.1940   -2.0620 C   0  0  0  0  0  0  0  0  0  0  0  0
   -2.9710   20.1940    0.4790 C   0  0  0  0  0  0  0  0  0  0  0  0
    2.7910   17.3590   -1.3650 C   0  0  1  0  0  0  0  0  0  0  0  0
    3.5570   17.2490   -0.0190 C   0  0  0  0  0  0  0  0  0  0  0  0
    3.0760   15.9430    0.6640 C   0  0  0  0  0  0  0  0  0  0  0  0
    2.3110   15.1820   -0.4440 C   0  0  1  0  0  0  0  0  0  0  0  0
    3.4200   14.4810   -1.2890 C   0  0  0  0  0  0  0  0  0  0  0  0
    1.2250   14.1670    0.0390 C   0  0  2  0  0  0  0  0  0  0  0  0
    1.7570   12.9930    0.8790 C   0  0  0  0  0  0  0  0  0  0  0  0
    2.1460   11.7780    0.1030 C   0  0  0  0  0  0  0  0  0  0  0  0
    1.8090   11.5250   -1.1750 C   0  0  0  0  0  0  0  0  0  0  0  0
    0.8750   12.4680   -1.9450 C   0  0  1  0  0  0  0  0  0  0  0  0
   -0.2050   11.6370   -2.6870 C   0  0  0  0  0  0  0  0  0  0  0  0
    0.4000   10.5580   -3.5800 C   0  0  0  0  0  0  0  0  0  0  0  0
    1.2750    9.6060   -2.7690 C   0  0  2  0  0  0  0  0  0  0  0  0
    0.4430    8.8680   -1.8690 O   0  0  0  0  0  0  0  0  0  0  0  0
    2.3930   10.3320   -1.9700 C   0  0  0  0  0  0  0  0  0  0  0  0
    3.4630   10.8770   -2.9490 C   0  0  0  0  0  0  0  0  0  0  0  0
    3.1120    9.2760   -1.0870 C   0  0  0  0  0  0  0  0  0  0  0  0
    0.2520   13.6650   -1.1040 C   0  0  1  0  0  0  0  0  0  0  0  0
   -1.0580   13.1960   -0.4000 C   0  0  0  0  0  0  0  0  0  0  0  0
   -0.1620   14.8230   -2.0880 C   0  0  0  0  0  0  0  0  0  0  0  0
    0.9210   15.8630   -2.4330 C   0  0  0  0  0  0  0  0  0  0  0  0
    1.6010   16.3860   -1.1650 C   0  0  2  0  0  0  0  0  0  0  0  0
    0.5140   17.1160   -0.3050 C   0  0  0  0  0  0  0  0  0  0  0  0
    2.5818   19.1815    0.3887 H   0  0  0  0  0  0  0  0  0  0  0  0
    3.8015   20.0577   -0.5968 H   0  0  0  0  0  0  0  0  0  0  0  0
    2.0891   20.6001   -0.5968 H   0  0  0  0  0  0  0  0  0  0  0  0
    3.0972   19.1233   -2.5741 H   0  0  0  0  0  0  0  0  0  0  0  0
    0.9785   18.8556   -3.3039 H   0  0  0  0  0  0  0  0  0  0  0  0
    0.4521   18.0646   -1.7418 H   0  0  0  0  0  0  0  0  0  0  0  0
    1.0576   20.9228   -1.4581 H   0  0  0  0  0  0  0  0  0  0  0  0
   -0.2963   20.5665   -2.6100 H   0  0  0  0  0  0  0  0  0  0  0  0
    0.0461   20.4707    0.0764 H   0  0  0  0  0  0  0  0  0  0  0  0
   -3.8327   20.5695   -1.8914 H   0  0  0  0  0  0  0  0  0  0  0  0
   -2.2382   20.9394   -2.6311 H   0  0  0  0  0  0  0  0  0  0  0  0
   -2.8589   19.2538   -2.6311 H   0  0  0  0  0  0  0  0  0  0  0  0
   -2.3606   20.0122    1.3759 H   0  0  0  0  0  0  0  0  0  0  0  0
   -3.3233   21.2361    0.4803 H   0  0  0  0  0  0  0  0  0  0  0  0
   -3.8360   19.5145    0.4803 H   0  0  0  0  0  0  0  0  0  0  0  0
    3.3708   17.0675   -2.2532 H   0  0  0  0  0  0  0  0  0  0  0  0
    4.6406   17.2036   -0.2025 H   0  0  0  0  0  0  0  0  0  0  0  0
    3.3617   18.1234    0.6191 H   0  0  0  0  0  0  0  0  0  0  0  0
    3.9331   15.3525    1.0198 H   0  0  0  0  0  0  0  0  0  0  0  0
    2.4473   16.1401    1.5449 H   0  0  0  0  0  0  0  0  0  0  0  0
    4.1552   14.0162   -0.6156 H   0  0  0  0  0  0  0  0  0  0  0  0
    2.9633   13.7071   -1.9235 H   0  0  0  0  0  0  0  0  0  0  0  0
    3.9231   15.2255   -1.9235 H   0  0  0  0  0  0  0  0  0  0  0  0
    0.6214   14.7776    0.7266 H   0  0  0  0  0  0  0  0  0  0  0  0
    2.6429   13.3428    1.4293 H   0  0  0  0  0  0  0  0  0  0  0  0
    0.9265   12.6846    1.5311 H   0  0  0  0  0  0  0  0  0  0  0  0
    2.7602   11.0259    0.6199 H   0  0  0  0  0  0  0  0  0  0  0  0
    1.5083   12.9931   -2.6752 H   0  0  0  0  0  0  0  0  0  0  0  0
   -0.8535   11.1547   -1.9408 H   0  0  0  0  0  0  0  0  0  0  0  0
   -0.7722   12.3250   -3.3312 H   0  0  0  0  0  0  0  0  0  0  0  0
   -0.4115    9.9859   -4.0535 H   0  0  0  0  0  0  0  0  0  0  0  0
    1.0246   11.0441   -4.3440 H   0  0  0  0  0  0  0  0  0  0  0  0
    1.7814    8.9373   -3.4806 H   0  0  0  0  0  0  0  0  0  0  0  0
    0.8010    8.9860   -0.9730 H   0  0  0  0  0  0  0  0  0  0  0  0
    4.3002   11.3034   -2.3769 H   0  0  0  0  0  0  0  0  0  0  0  0
    3.8319   10.0570   -3.5826 H   0  0  0  0  0  0  0  0  0  0  0  0
    3.0166   11.6576   -3.5826 H   0  0  0  0  0  0  0  0  0  0  0  0
    2.9499    9.5141   -0.0254 H   0  0  0  0  0  0  0  0  0  0  0  0
    2.7053    8.2775   -1.3051 H   0  0  0  0  0  0  0  0  0  0  0  0
    4.1901    9.2884   -1.3051 H   0  0  0  0  0  0  0  0  0  0  0  0
   -0.9252   13.2435    0.6909 H   0  0  0  0  0  0  0  0  0  0  0  0
   -1.8892   13.8524   -0.6972 H   0  0  0  0  0  0  0  0  0  0  0  0
   -1.2837   12.1612   -0.6972 H   0  0  0  0  0  0  0  0  0  0  0  0
   -0.4888   14.3582   -3.0299 H   0  0  0  0  0  0  0  0  0  0  0  0
   -0.9428   15.3866   -1.5563 H   0  0  0  0  0  0  0  0  0  0  0  0
    1.6772   15.3942   -3.0798 H   0  0  0  0  0  0  0  0  0  0  0  0
    0.4437   16.7087   -2.9498 H   0  0  0  0  0  0  0  0  0  0  0  0
    0.7322   16.9694    0.7631 H   0  0  0  0  0  0  0  0  0  0  0  0
    0.5240   18.1912   -0.5371 H   0  0  0  0  0  0  0  0  0  0  0  0
   -0.4775   16.7000   -0.5371 H   0  0  0  0  0  0  0  0  0  0  0  0
  1  2  1  0
  2  3  1  0
  3  4  1  0
  4  5  1  0
  5  6  1  0
  6  7  1  0
  7  8  1  0
  7  9  1  0
  2 10  1  0
 10 11  1  0
 11 12  1  0
 12 13  1  0
 13 14  1  6
 13 15  1  0
 15 16  1  0
 16 17  1  0
 17 18  2  0
 18 19  1  0
 19 20  1  0
 20 21  1  0
 21 22  1  0
 22 23  1  0
 22 24  1  0
 24 25  1  0
 24 26  1  0
 19 27  1  0
 27 28  1  1
 27 29  1  0
 29 30  1  0
 30 31  1  0
 31 32  1  1
  7  5  1  0
 31 10  1  0
 31 13  1  0
 27 15  1  0
 24 18  1  0
  1 33  1  0
  1 34  1  0
  1 35  1  0
  2 36  1  6
  3 37  1  0
  3 38  1  0
  4 39  1  0
  4 40  1  0
  5 41  1  1
  8 42  1  0
  8 43  1  0
  8 44  1  0
  9 45  1  0
  9 46  1  0
  9 47  1  0
 10 48  1  6
 11 49  1  0
 11 50  1  0
 12 51  1  0
 12 52  1  0
 14 53  1  0
 14 54  1  0
 14 55  1  0
 15 56  1  1
 16 57  1  0
 16 58  1  0
 17 59  1  0
 19 60  1  6
 20 61  1  0
 20 62  1  0
 21 63  1  0
 21 64  1  0
 22 65  1  6
 23 66  1  0
 25 67  1  0
 25 68  1  0
 25 69  1  0
 26 70  1  0
 26 71  1  0
 26 72  1  0
 28 73  1  0
 28 74  1  0
 28 75  1  0
 29 76  1  0
 29 77  1  0
 30 78  1  0
 30 79  1  0
 32 80  1  0
 32 81  1  0
 32 82  1  0
M  END
>  <meeko>  (8) 
{"is_sidechain": [false], "intermolecular_energy": 2.731, "internal_energy": -0.839}

$$$$
EPH_relaxed_0001_pdb2pqr_Repair_52_r2_0001_out
     RDKit          3D

 82 86  0  0  0  0  0  0  0  0999 V2000
   -0.8700   16.3520   -5.8430 C   0  0  0  0  0  0  0  0  0  0  0  0
    0.2200   15.6530   -6.6600 C   0  0  2  0  0  0  0  0  0  0  0  0
   -0.1850   15.4760   -8.1370 C   0  0  0  0  0  0  0  0  0  0  0  0
    0.4590   16.4970   -9.0780 C   0  0  0  0  0  0  0  0  0  0  0  0
    1.8610   16.1090   -9.4420 C   0  0  2  0  0  0  0  0  0  0  0  0
    2.3340   16.6630  -10.6770 O   0  0  0  0  0  0  0  0  0  0  0  0
    2.2040   15.2330  -10.6330 C   0  0  0  0  0  0  0  0  0  0  0  0
    1.1400   14.6910  -11.5350 C   0  0  0  0  0  0  0  0  0  0  0  0
    3.5130   14.5080  -10.6340 C   0  0  0  0  0  0  0  0  0  0  0  0
    0.5430   14.2980   -6.0410 C   0  0  1  0  0  0  0  0  0  0  0  0
    1.8090   13.6460   -6.6590 C   0  0  0  0  0  0  0  0  0  0  0  0
    2.5200   12.8780   -5.5160 C   0  0  0  0  0  0  0  0  0  0  0  0
    1.4820   12.8340   -4.3710 C   0  0  1  0  0  0  0  0  0  0  0  0
    0.5280   11.6540   -4.7400 C   0  0  0  0  0  0  0  0  0  0  0  0
    2.0540   12.6810   -2.9240 C   0  0  2  0  0  0  0  0  0  0  0  0
    2.8270   11.3770   -2.6620 C   0  0  0  0  0  0  0  0  0  0  0  0
    2.0050   10.2400   -2.1540 C   0  0  0  0  0  0  0  0  0  0  0  0
    0.7620   10.3380   -1.6480 C   0  0  0  0  0  0  0  0  0  0  0  0
    0.0940   11.7060   -1.4580 C   0  0  1  0  0  0  0  0  0  0  0  0
   -0.5510   11.7760   -0.0500 C   0  0  0  0  0  0  0  0  0  0  0  0
   -1.5090   10.6180    0.2130 C   0  0  0  0  0  0  0  0  0  0  0  0
   -0.7950    9.2760    0.0720 C   0  0  2  0  0  0  0  0  0  0  0  0
    0.1720    9.1560    1.1200 O   0  0  0  0  0  0  0  0  0  0  0  0
   -0.0970    9.0960   -1.3050 C   0  0  0  0  0  0  0  0  0  0  0  0
   -1.1670    8.9240   -2.4120 C   0  0  0  0  0  0  0  0  0  0  0  0
    0.7030    7.7660   -1.2650 C   0  0  0  0  0  0  0  0  0  0  0  0
    1.0030   12.9700   -1.7770 C   0  0  1  0  0  0  0  0  0  0  0  0
    1.8220   13.3690   -0.5120 C   0  0  0  0  0  0  0  0  0  0  0  0
    0.0750   14.1980   -2.1110 C   0  0  0  0  0  0  0  0  0  0  0  0
   -0.3590   14.3620   -3.5800 C   0  0  0  0  0  0  0  0  0  0  0  0
    0.8450   14.2630   -4.5220 C   0  0  2  0  0  0  0  0  0  0  0  0
    1.8110   15.4500   -4.1890 C   0  0  0  0  0  0  0  0  0  0  0  0
   -0.6652   16.2207   -4.7702 H   0  0  0  0  0  0  0  0  0  0  0  0
   -0.8791   17.4248   -6.0859 H   0  0  0  0  0  0  0  0  0  0  0  0
   -1.8488   15.9127   -6.0859 H   0  0  0  0  0  0  0  0  0  0  0  0
    1.1136   16.2941   -6.6385 H   0  0  0  0  0  0  0  0  0  0  0  0
    0.1142   14.4682   -8.4608 H   0  0  0  0  0  0  0  0  0  0  0  0
   -1.2729   15.6289   -8.1926 H   0  0  0  0  0  0  0  0  0  0  0  0
   -0.1423   16.5639   -9.9967 H   0  0  0  0  0  0  0  0  0  0  0  0
    0.4953   17.4662   -8.5591 H   0  0  0  0  0  0  0  0  0  0  0  0
    2.1475   16.0576   -8.3812 H   0  0  0  0  0  0  0  0  0  0  0  0
    0.3223   14.2745  -10.9285 H   0  0  0  0  0  0  0  0  0  0  0  0
    0.7501   15.5004  -12.1698 H   0  0  0  0  0  0  0  0  0  0  0  0
    1.5655   13.8998  -12.1698 H   0  0  0  0  0  0  0  0  0  0  0  0
    3.8344   14.3300   -9.5972 H   0  0  0  0  0  0  0  0  0  0  0  0
    3.3983   13.5448  -11.1528 H   0  0  0  0  0  0  0  0  0  0  0  0
    4.2686   15.1162  -11.1528 H   0  0  0  0  0  0  0  0  0  0  0  0
   -0.3999   13.7710   -6.2492 H   0  0  0  0  0  0  0  0  0  0  0  0
    1.5233   12.9507   -7.4620 H   0  0  0  0  0  0  0  0  0  0  0  0
    2.4723   14.4074   -7.0954 H   0  0  0  0  0  0  0  0  0  0  0  0
    2.7858   11.8605   -5.8385 H   0  0  0  0  0  0  0  0  0  0  0  0
    3.4590   13.3619   -5.2094 H   0  0  0  0  0  0  0  0  0  0  0  0
    0.1499   11.1864   -3.8189 H   0  0  0  0  0  0  0  0  0  0  0  0
   -0.3174   12.0369   -5.3305 H   0  0  0  0  0  0  0  0  0  0  0  0
    1.0795   10.9076   -5.3305 H   0  0  0  0  0  0  0  0  0  0  0  0
    2.8027   13.4858   -2.8810 H   0  0  0  0  0  0  0  0  0  0  0  0
    3.2942   11.0631   -3.6071 H   0  0  0  0  0  0  0  0  0  0  0  0
    3.5520   11.6073   -1.8674 H   0  0  0  0  0  0  0  0  0  0  0  0
    2.4532    9.2364   -2.1968 H   0  0  0  0  0  0  0  0  0  0  0  0
   -0.6874   11.7736   -2.2293 H   0  0  0  0  0  0  0  0  0  0  0  0
    0.2481   11.7511    0.7055 H   0  0  0  0  0  0  0  0  0  0  0  0
   -1.1315   12.7087    0.0053 H   0  0  0  0  0  0  0  0  0  0  0  0
   -1.9097   10.7070    1.2335 H   0  0  0  0  0  0  0  0  0  0  0  0
   -2.3233   10.6616   -0.5253 H   0  0  0  0  0  0  0  0  0  0  0  0
   -1.5582    8.4870    0.1431 H   0  0  0  0  0  0  0  0  0  0  0  0
   -0.1200    8.4400    1.7090 H   0  0  0  0  0  0  0  0  0  0  0  0
   -2.1519    8.7657   -1.9485 H   0  0  0  0  0  0  0  0  0  0  0  0
   -1.1970    9.8289   -3.0368 H   0  0  0  0  0  0  0  0  0  0  0  0
   -0.9119    8.0553   -3.0368 H   0  0  0  0  0  0  0  0  0  0  0  0
    0.8782    7.4748   -0.2188 H   0  0  0  0  0  0  0  0  0  0  0  0
    0.1292    6.9775   -1.7739 H   0  0  0  0  0  0  0  0  0  0  0  0
    1.6685    7.9034   -1.7739 H   0  0  0  0  0  0  0  0  0  0  0  0
    1.2581   13.0943    0.3916 H   0  0  0  0  0  0  0  0  0  0  0  0
    2.7863   12.8397   -0.5175 H   0  0  0  0  0  0  0  0  0  0  0  0
    1.9996   14.4546   -0.5175 H   0  0  0  0  0  0  0  0  0  0  0  0
   -0.8369   14.1008   -1.5036 H   0  0  0  0  0  0  0  0  0  0  0  0
    0.6838   15.0871   -1.8900 H   0  0  0  0  0  0  0  0  0  0  0  0
   -1.0797   13.5703   -3.8328 H   0  0  0  0  0  0  0  0  0  0  0  0
   -0.8184   15.3541   -3.7012 H   0  0  0  0  0  0  0  0  0  0  0  0
    1.8980   15.5569   -3.0977 H   0  0  0  0  0  0  0  0  0  0  0  0
    2.8034   15.2465   -4.6177 H   0  0  0  0  0  0  0  0  0  0  0  0
    1.4101   16.3803   -4.6177 H   0  0  0  0  0  0  0  0  0  0  0  0
  1  2  1  0
  2  3  1  0
  3  4  1  0
  4  5  1  0
  5  6  1  0
  6  7  1  0
  7  8  1  0
  7  9  1  0
  2 10  1  0
 10 11  1  0
 11 12  1  0
 12 13  1  0
 13 14  1  6
 13 15  1  0
 15 16  1  0
 16 17  1  0
 17 18  2  0
 18 19  1  0
 19 20  1  0
 20 21  1  0
 21 22  1  0
 22 23  1  0
 22 24  1  0
 24 25  1  0
 24 26  1  0
 19 27  1  0
 27 28  1  1
 27 29  1  0
 29 30  1  0
 30 31  1  0
 31 32  1  1
  7  5  1  0
 31 10  1  0
 31 13  1  0
 27 15  1  0
 24 18  1  0
  1 33  1  0
  1 34  1  0
  1 35  1  0
  2 36  1  6
  3 37  1  0
  3 38  1  0
  4 39  1  0
  4 40  1  0
  5 41  1  1
  8 42  1  0
  8 43  1  0
  8 44  1  0
  9 45  1  0
  9 46  1  0
  9 47  1  0
 10 48  1  1
 11 49  1  0
 11 50  1  0
 12 51  1  0
 12 52  1  0
 14 53  1  0
 14 54  1  0
 14 55  1  0
 15 56  1  6
 16 57  1  0
 16 58  1  0
 17 59  1  0
 19 60  1  6
 20 61  1  0
 20 62  1  0
 21 63  1  0
 21 64  1  0
 22 65  1  1
 23 66  1  0
 25 67  1  0
 25 68  1  0
 25 69  1  0
 26 70  1  0
 26 71  1  0
 26 72  1  0
 28 73  1  0
 28 74  1  0
 28 75  1  0
 29 76  1  0
 29 77  1  0
 30 78  1  0
 30 79  1  0
 32 80  1  0
 32 81  1  0
 32 82  1  0
M  END
>  <meeko>  (9) 
{"is_sidechain": [false], "intermolecular_energy": 2.731, "internal_energy": -0.839}

$$$$
EPH_relaxed_0001_pdb2pqr_Repair_52_r2_0001_out
     RDKit          3D

 82 86  0  0  0  0  0  0  0  0999 V2000
   -0.2930   15.0860   -7.6600 C   0  0  0  0  0  0  0  0  0  0  0  0
    1.0750   15.0760   -6.9730 C   0  0  2  0  0  0  0  0  0  0  0  0
    2.2340   15.1720   -7.9860 C   0  0  0  0  0  0  0  0  0  0  0  0
    2.2600   16.4880   -8.7680 C   0  0  0  0  0  0  0  0  0  0  0  0
    1.8580   16.2910  -10.1980 C   0  0  2  0  0  0  0  0  0  0  0  0
    1.1910   15.0500  -10.4670 O   0  0  0  0  0  0  0  0  0  0  0  0
    2.4670   15.2340  -11.1010 C   0  0  0  0  0  0  0  0  0  0  0  0
    3.5310   14.3050  -10.6070 C   0  0  0  0  0  0  0  0  0  0  0  0
    2.3820   15.4240  -12.5840 C   0  0  0  0  0  0  0  0  0  0  0  0
    1.2240   13.8150   -6.1290 C   0  0  1  0  0  0  0  0  0  0  0  0
    2.6560   13.2210   -6.1910 C   0  0  0  0  0  0  0  0  0  0  0  0
    2.9520   12.6230   -4.7910 C   0  0  0  0  0  0  0  0  0  0  0  0
    1.5790   12.5940   -4.0800 C   0  0  1  0  0  0  0  0  0  0  0  0
    0.8750   11.3090   -4.6190 C   0  0  0  0  0  0  0  0  0  0  0  0
    1.6090   12.6240   -2.5180 C   0  0  2  0  0  0  0  0  0  0  0  0
    2.3010   11.4200   -1.8550 C   0  0  0  0  0  0  0  0  0  0  0  0
    1.4080   10.2670   -1.5360 C   0  0  0  0  0  0  0  0  0  0  0  0
    0.0630   10.3040   -1.5080 C   0  0  0  0  0  0  0  0  0  0  0  0
   -0.6940   11.6220   -1.7210 C   0  0  1  0  0  0  0  0  0  0  0  0
   -1.7980   11.7640   -0.6410 C   0  0  0  0  0  0  0  0  0  0  0  0
   -2.7310   10.5580   -0.5950 C   0  0  0  0  0  0  0  0  0  0  0  0
   -1.9490    9.2750   -0.3240 C   0  0  2  0  0  0  0  0  0  0  0  0
   -1.4110    9.3330    1.0000 O   0  0  0  0  0  0  0  0  0  0  0  0
   -0.8010    9.0300   -1.3440 C   0  0  0  0  0  0  0  0  0  0  0  0
   -1.4010    8.6670   -2.7250 C   0  0  0  0  0  0  0  0  0  0  0  0
   -0.0050    7.7820   -0.8750 C   0  0  0  0  0  0  0  0  0  0  0  0
    0.2070   12.9250   -1.8480 C   0  0  1  0  0  0  0  0  0  0  0  0
    0.5050   13.5060   -0.4320 C   0  0  0  0  0  0  0  0  0  0  0  0
   -0.6000   14.0340   -2.6220 C   0  0  0  0  0  0  0  0  0  0  0  0
   -0.4940   14.0250   -4.1590 C   0  0  0  0  0  0  0  0  0  0  0  0
    0.9690   13.9440   -4.6070 C   0  0  2  0  0  0  0  0  0  0  0  0
    1.6970   15.2350   -4.0980 C   0  0  0  0  0  0  0  0  0  0  0  0
   -1.0861   15.0918   -6.8978 H   0  0  0  0  0  0  0  0  0  0  0  0
   -0.3814   15.9848   -8.2879 H   0  0  0  0  0  0  0  0  0  0  0  0
   -0.3945   14.1886   -8.2879 H   0  0  0  0  0  0  0  0  0  0  0  0
    1.1270   15.9643   -6.3263 H   0  0  0  0  0  0  0  0  0  0  0  0
    3.1830   15.0746   -7.4383 H   0  0  0  0  0  0  0  0  0  0  0  0
    2.0880   14.3650   -8.7192 H   0  0  0  0  0  0  0  0  0  0  0  0
    1.5635   17.1968   -8.2963 H   0  0  0  0  0  0  0  0  0  0  0  0
    3.2890   16.8764   -8.7515 H   0  0  0  0  0  0  0  0  0  0  0  0
    1.7034   17.3723  -10.3279 H   0  0  0  0  0  0  0  0  0  0  0  0
    3.5338   14.3025   -9.5070 H   0  0  0  0  0  0  0  0  0  0  0  0
    3.3300   13.2882  -10.9754 H   0  0  0  0  0  0  0  0  0  0  0  0
    4.5114   14.6413  -10.9754 H   0  0  0  0  0  0  0  0  0  0  0  0
    1.9418   16.4080  -12.8030 H   0  0  0  0  0  0  0  0  0  0  0  0
    3.3907   15.3686  -13.0192 H   0  0  0  0  0  0  0  0  0  0  0  0
    1.7510   14.6350  -13.0192 H   0  0  0  0  0  0  0  0  0  0  0  0
    0.4433   13.1915   -6.5891 H   0  0  0  0  0  0  0  0  0  0  0  0
    2.7070   12.4340   -6.9578 H   0  0  0  0  0  0  0  0  0  0  0  0
    3.3934   13.9933   -6.4551 H   0  0  0  0  0  0  0  0  0  0  0  0
    3.3636   11.6070   -4.8820 H   0  0  0  0  0  0  0  0  0  0  0  0
    3.6968   13.2116   -4.2353 H   0  0  0  0  0  0  0  0  0  0  0  0
    0.5376   10.6932   -3.7723 H   0  0  0  0  0  0  0  0  0  0  0  0
    0.0080   11.5957   -5.2323 H   0  0  0  0  0  0  0  0  0  0  0  0
    1.5834   10.7327   -5.2323 H   0  0  0  0  0  0  0  0  0  0  0  0
    2.2543   13.4906   -2.3118 H   0  0  0  0  0  0  0  0  0  0  0  0
    3.0873   11.0625   -2.5361 H   0  0  0  0  0  0  0  0  0  0  0  0
    2.6851   11.7832   -0.8904 H   0  0  0  0  0  0  0  0  0  0  0  0
    1.8901    9.3058   -1.3042 H   0  0  0  0  0  0  0  0  0  0  0  0
   -1.1538   11.5525   -2.7179 H   0  0  0  0  0  0  0  0  0  0  0  0
   -1.3172   11.8753    0.3421 H   0  0  0  0  0  0  0  0  0  0  0  0
   -2.4043   12.6452   -0.8977 H   0  0  0  0  0  0  0  0  0  0  0  0
   -3.4706   10.7051    0.2058 H   0  0  0  0  0  0  0  0  0  0  0  0
   -3.2333   10.4646   -1.5691 H   0  0  0  0  0  0  0  0  0  0  0  0
   -2.6494    8.4336   -0.4313 H   0  0  0  0  0  0  0  0  0  0  0  0
   -2.1550    9.4600    1.6140 H   0  0  0  0  0  0  0  0  0  0  0  0
   -2.3342    8.1024   -2.5824 H   0  0  0  0  0  0  0  0  0  0  0  0
   -1.6124    9.5888   -3.2867 H   0  0  0  0  0  0  0  0  0  0  0  0
   -0.6825    8.0519   -3.2867 H   0  0  0  0  0  0  0  0  0  0  0  0
    0.0145    7.7514    0.2244 H   0  0  0  0  0  0  0  0  0  0  0  0
   -0.4900    6.8723   -1.2586 H   0  0  0  0  0  0  0  0  0  0  0  0
    1.0244    7.8382   -1.2586 H   0  0  0  0  0  0  0  0  0  0  0  0
    0.1453   12.8046    0.3353 H   0  0  0  0  0  0  0  0  0  0  0  0
    1.5891   13.6517   -0.3162 H   0  0  0  0  0  0  0  0  0  0  0  0
   -0.0092   14.4715   -0.3162 H   0  0  0  0  0  0  0  0  0  0  0  0
   -1.6620   13.9159   -2.3610 H   0  0  0  0  0  0  0  0  0  0  0  0
   -0.1515   14.9881   -2.3082 H   0  0  0  0  0  0  0  0  0  0  0  0
   -1.0396   13.1545   -4.5523 H   0  0  0  0  0  0  0  0  0  0  0  0
   -0.9284   14.9585   -4.5462 H   0  0  0  0  0  0  0  0  0  0  0  0
    1.7019   15.2436   -2.9980 H   0  0  0  0  0  0  0  0  0  0  0  0
    2.7324   15.2426   -4.4693 H   0  0  0  0  0  0  0  0  0  0  0  0
    1.1677   16.1249   -4.4693 H   0  0  0  0  0  0  0  0  0  0  0  0
  1  2  1  0
  2  3  1  0
  3  4  1  0
  4  5  1  0
  5  6  1  0
  6  7  1  0
  7  8  1  0
  7  9  1  0
  2 10  1  0
 10 11  1  0
 11 12  1  0
 12 13  1  0
 13 14  1  1
 13 15  1  0
 15 16  1  0
 16 17  1  0
 17 18  2  0
 18 19  1  0
 19 20  1  0
 20 21  1  0
 21 22  1  0
 22 23  1  0
 22 24  1  0
 24 25  1  0
 24 26  1  0
 19 27  1  0
 27 28  1  1
 27 29  1  0
 29 30  1  0
 30 31  1  0
 31 32  1  1
  7  5  1  0
 31 10  1  0
 31 13  1  0
 27 15  1  0
 24 18  1  0
  1 33  1  0
  1 34  1  0
  1 35  1  0
  2 36  1  1
  3 37  1  0
  3 38  1  0
  4 39  1  0
  4 40  1  0
  5 41  1  6
  8 42  1  0
  8 43  1  0
  8 44  1  0
  9 45  1  0
  9 46  1  0
  9 47  1  0
 10 48  1  6
 11 49  1  0
 11 50  1  0
 12 51  1  0
 12 52  1  0
 14 53  1  0
 14 54  1  0
 14 55  1  0
 15 56  1  6
 16 57  1  0
 16 58  1  0
 17 59  1  0
 19 60  1  6
 20 61  1  0
 20 62  1  0
 21 63  1  0
 21 64  1  0
 22 65  1  1
 23 66  1  0
 25 67  1  0
 25 68  1  0
 25 69  1  0
 26 70  1  0
 26 71  1  0
 26 72  1  0
 28 73  1  0
 28 74  1  0
 28 75  1  0
 29 76  1  0
 29 77  1  0
 30 78  1  0
 30 79  1  0
 32 80  1  0
 32 81  1  0
 32 82  1  0
M  END
>  <meeko>  (10) 
{"is_sidechain": [false], "intermolecular_energy": 2.731, "internal_energy": -0.839}

$$$$
EPH_relaxed_0001_pdb2pqr_Repair_52_r2_0001_out
     RDKit          3D

 82 86  0  0  0  0  0  0  0  0999 V2000
    0.0230    9.3250   -2.3300 C   0  0  0  0  0  0  0  0  0  0  0  0
    1.0860   10.3280   -2.7850 C   0  0  2  0  0  0  0  0  0  0  0  0
    2.4880    9.6910   -2.8680 C   0  0  0  0  0  0  0  0  0  0  0  0
    3.4310   10.4030   -3.8420 C   0  0  0  0  0  0  0  0  0  0  0  0
    4.8170   10.5230   -3.2830 C   0  0  2  0  0  0  0  0  0  0  0  0
    5.4000   11.8270   -3.4020 O   0  0  0  0  0  0  0  0  0  0  0  0
    6.0440   10.7750   -4.1380 C   0  0  0  0  0  0  0  0  0  0  0  0
    5.9430   10.9230   -5.6240 C   0  0  0  0  0  0  0  0  0  0  0  0
    7.3860   10.3930   -3.5950 C   0  0  0  0  0  0  0  0  0  0  0  0
    1.1120   11.5230   -1.8400 C   0  0  1  0  0  0  0  0  0  0  0  0
    2.1750   11.3750   -0.7180 C   0  0  0  0  0  0  0  0  0  0  0  0
    2.7300   12.7950   -0.4370 C   0  0  0  0  0  0  0  0  0  0  0  0
    1.7470   13.7470   -1.1570 C   0  0  1  0  0  0  0  0  0  0  0  0
    0.5370   13.8890   -0.1800 C   0  0  0  0  0  0  0  0  0  0  0  0
    2.3170   15.1420   -1.5750 C   0  0  2  0  0  0  0  0  0  0  0  0
    2.7810   16.0330   -0.4100 C   0  0  0  0  0  0  0  0  0  0  0  0
    1.7380   16.9420    0.1520 C   0  0  0  0  0  0  0  0  0  0  0  0
    0.5680   17.2480   -0.4380 C   0  0  0  0  0  0  0  0  0  0  0  0
    0.2370   16.7350   -1.8450 C   0  0  1  0  0  0  0  0  0  0  0  0
   -0.3280   17.8990   -2.7010 C   0  0  0  0  0  0  0  0  0  0  0  0
   -1.5160   18.5900   -2.0370 C   0  0  0  0  0  0  0  0  0  0  0  0
   -1.1320   19.1370   -0.6650 C   0  0  2  0  0  0  0  0  0  0  0  0
   -0.1840   20.1940   -0.8400 O   0  0  0  0  0  0  0  0  0  0  0  0
   -0.5400   18.0560    0.2820 C   0  0  0  0  0  0  0  0  0  0  0  0
   -1.6570   17.0730    0.7120 C   0  0  0  0  0  0  0  0  0  0  0  0
   -0.0640   18.7660    1.5780 C   0  0  0  0  0  0  0  0  0  0  0  0
    1.3980   15.9420   -2.5850 C   0  0  1  0  0  0  0  0  0  0  0  0
    2.3290   16.9410   -3.3380 C   0  0  0  0  0  0  0  0  0  0  0  0
    0.7650   15.0100   -3.6840 C   0  0  0  0  0  0  0  0  0  0  0  0
    0.3310   13.6010   -3.2360 C   0  0  0  0  0  0  0  0  0  0  0  0
    1.4480   12.9070   -2.4510 C   0  0  2  0  0  0  0  0  0  0  0  0
    2.6710   12.7300   -3.4150 C   0  0  0  0  0  0  0  0  0  0  0  0
   -0.0074    9.2963   -1.2308 H   0  0  0  0  0  0  0  0  0  0  0  0
   -0.9601    9.6322   -2.7161 H   0  0  0  0  0  0  0  0  0  0  0  0
    0.2726    8.3257   -2.7161 H   0  0  0  0  0  0  0  0  0  0  0  0
    0.8143   10.6610   -3.7976 H   0  0  0  0  0  0  0  0  0  0  0  0
    2.9406    9.7158   -1.8657 H   0  0  0  0  0  0  0  0  0  0  0  0
    2.3535    8.6655   -3.2425 H   0  0  0  0  0  0  0  0  0  0  0  0
    3.4732    9.8305   -4.7803 H   0  0  0  0  0  0  0  0  0  0  0  0
    3.0423   11.4171   -4.0166 H   0  0  0  0  0  0  0  0  0  0  0  0
    4.5967    9.7700   -2.5120 H   0  0  0  0  0  0  0  0  0  0  0  0
    5.3379   11.8097   -5.8639 H   0  0  0  0  0  0  0  0  0  0  0  0
    6.9503   11.0403   -6.0501 H   0  0  0  0  0  0  0  0  0  0  0  0
    5.4666   10.0278   -6.0501 H   0  0  0  0  0  0  0  0  0  0  0  0
    7.3529   10.4024   -2.4955 H   0  0  0  0  0  0  0  0  0  0  0  0
    7.6496    9.3841   -3.9453 H   0  0  0  0  0  0  0  0  0  0  0  0
    8.1414   11.1118   -3.9453 H   0  0  0  0  0  0  0  0  0  0  0  0
    0.0675   11.5071   -1.4953 H   0  0  0  0  0  0  0  0  0  0  0  0
    1.7118   10.9628    0.1906 H   0  0  0  0  0  0  0  0  0  0  0  0
    2.9795   10.6901   -1.0242 H   0  0  0  0  0  0  0  0  0  0  0  0
    2.7466   12.9987    0.6439 H   0  0  0  0  0  0  0  0  0  0  0  0
    3.7641   12.9166   -0.7917 H   0  0  0  0  0  0  0  0  0  0  0  0
    0.8973   13.8467    0.8585 H   0  0  0  0  0  0  0  0  0  0  0  0
    0.0354   14.8522   -0.3551 H   0  0  0  0  0  0  0  0  0  0  0  0
   -0.1740   13.0681   -0.3551 H   0  0  0  0  0  0  0  0  0  0  0  0
    3.2304   14.8685   -2.1235 H   0  0  0  0  0  0  0  0  0  0  0  0
    3.1329   15.3774    0.4002 H   0  0  0  0  0  0  0  0  0  0  0  0
    3.5653   16.6863   -0.8200 H   0  0  0  0  0  0  0  0  0  0  0  0
    1.9435   17.4000    1.1308 H   0  0  0  0  0  0  0  0  0  0  0  0
   -0.5330   15.9607   -1.7126 H   0  0  0  0  0  0  0  0  0  0  0  0
    0.4690   18.6407   -2.8577 H   0  0  0  0  0  0  0  0  0  0  0  0
   -0.6781   17.4741   -3.6533 H   0  0  0  0  0  0  0  0  0  0  0  0
   -1.8516   19.4210   -2.6748 H   0  0  0  0  0  0  0  0  0  0  0  0
   -2.3231   17.8538   -1.9080 H   0  0  0  0  0  0  0  0  0  0  0  0
   -2.0522   19.5031   -0.1862 H   0  0  0  0  0  0  0  0  0  0  0  0
    0.2350   20.0740   -1.7090 H   0  0  0  0  0  0  0  0  0  0  0  0
   -1.7053   17.0305    1.8101 H   0  0  0  0  0  0  0  0  0  0  0  0
   -2.6229   17.4194    0.3156 H   0  0  0  0  0  0  0  0  0  0  0  0
   -1.4362   16.0709    0.3156 H   0  0  0  0  0  0  0  0  0  0  0  0
   -0.4337   18.2146    2.4551 H   0  0  0  0  0  0  0  0  0  0  0  0
    1.0355   18.7931    1.5986 H   0  0  0  0  0  0  0  0  0  0  0  0
   -0.4565   19.7934    1.5986 H   0  0  0  0  0  0  0  0  0  0  0  0
    2.8893   17.5423   -2.6069 H   0  0  0  0  0  0  0  0  0  0  0  0
    3.0343   16.3804   -3.9691 H   0  0  0  0  0  0  0  0  0  0  0  0
    1.7201   17.6050   -3.9691 H   0  0  0  0  0  0  0  0  0  0  0  0
   -0.1242   15.5212   -4.0815 H   0  0  0  0  0  0  0  0  0  0  0  0
    1.5682   14.8437   -4.4169 H   0  0  0  0  0  0  0  0  0  0  0  0
   -0.5597   13.6853   -2.5961 H   0  0  0  0  0  0  0  0  0  0  0  0
    0.1069   13.0019   -4.1309 H   0  0  0  0  0  0  0  0  0  0  0  0
    3.5884   12.5972   -2.8228 H   0  0  0  0  0  0  0  0  0  0  0  0
    2.5128   11.8454   -4.0494 H   0  0  0  0  0  0  0  0  0  0  0  0
    2.7701   13.6232   -4.0494 H   0  0  0  0  0  0  0  0  0  0  0  0
  1  2  1  0
  2  3  1  0
  3  4  1  0
  4  5  1  0
  5  6  1  0
  6  7  1  0
  7  8  1  0
  7  9  1  0
  2 10  1  0
 10 11  1  0
 11 12  1  0
 12 13  1  0
 13 14  1  1
 13 15  1  0
 15 16  1  0
 16 17  1  0
 17 18  2  0
 18 19  1  0
 19 20  1  0
 20 21  1  0
 21 22  1  0
 22 23  1  0
 22 24  1  0
 24 25  1  0
 24 26  1  0
 19 27  1  0
 27 28  1  6
 27 29  1  0
 29 30  1  0
 30 31  1  0
 31 32  1  6
  7  5  1  0
 31 10  1  0
 31 13  1  0
 27 15  1  0
 24 18  1  0
  1 33  1  0
  1 34  1  0
  1 35  1  0
  2 36  1  6
  3 37  1  0
  3 38  1  0
  4 39  1  0
  4 40  1  0
  5 41  1  1
  8 42  1  0
  8 43  1  0
  8 44  1  0
  9 45  1  0
  9 46  1  0
  9 47  1  0
 10 48  1  1
 11 49  1  0
 11 50  1  0
 12 51  1  0
 12 52  1  0
 14 53  1  0
 14 54  1  0
 14 55  1  0
 15 56  1  6
 16 57  1  0
 16 58  1  0
 17 59  1  0
 19 60  1  1
 20 61  1  0
 20 62  1  0
 21 63  1  0
 21 64  1  0
 22 65  1  1
 23 66  1  0
 25 67  1  0
 25 68  1  0
 25 69  1  0
 26 70  1  0
 26 71  1  0
 26 72  1  0
 28 73  1  0
 28 74  1  0
 28 75  1  0
 29 76  1  0
 29 77  1  0
 30 78  1  0
 30 79  1  0
 32 80  1  0
 32 81  1  0
 32 82  1  0
M  END
>  <meeko>  (11) 
{"is_sidechain": [false], "intermolecular_energy": 2.731, "internal_energy": -0.839}

$$$$
EPH_relaxed_0001_pdb2pqr_Repair_52_r2_0001_out
     RDKit          3D

 82 86  0  0  0  0  0  0  0  0999 V2000
    1.6170   10.7320   -4.7740 C   0  0  0  0  0  0  0  0  0  0  0  0
    0.8600   10.5490   -3.4560 C   0  0  2  0  0  0  0  0  0  0  0  0
   -0.2880    9.5280   -3.5830 C   0  0  0  0  0  0  0  0  0  0  0  0
   -0.2390    8.4130   -2.5350 C   0  0  0  0  0  0  0  0  0  0  0  0
    0.0520    8.9510   -1.1660 C   0  0  2  0  0  0  0  0  0  0  0  0
   -0.2850    8.0650   -0.0910 O   0  0  0  0  0  0  0  0  0  0  0  0
   -1.0260    9.2940   -0.1560 C   0  0  0  0  0  0  0  0  0  0  0  0
   -2.4780    9.1140   -0.4720 C   0  0  0  0  0  0  0  0  0  0  0  0
   -0.6960   10.2560    0.9440 C   0  0  0  0  0  0  0  0  0  0  0  0
    0.3150   11.8900   -2.9790 C   0  0  1  0  0  0  0  0  0  0  0  0
   -1.0670   11.7610   -2.2850 C   0  0  0  0  0  0  0  0  0  0  0  0
   -1.1000   12.8200   -1.1530 C   0  0  0  0  0  0  0  0  0  0  0  0
    0.1110   13.7370   -1.4420 C   0  0  1  0  0  0  0  0  0  0  0  0
   -0.3850   14.7200   -2.5490 C   0  0  0  0  0  0  0  0  0  0  0  0
    0.7070   14.5020   -0.2160 C   0  0  2  0  0  0  0  0  0  0  0  0
   -0.2530   15.4970    0.4620 C   0  0  0  0  0  0  0  0  0  0  0  0
   -0.2080   16.8900   -0.0720 C   0  0  0  0  0  0  0  0  0  0  0  0
    0.7620   17.3970   -0.8560 C   0  0  0  0  0  0  0  0  0  0  0  0
    2.0070   16.5700   -1.2020 C   0  0  1  0  0  0  0  0  0  0  0  0
    3.2770   17.4410   -1.0090 C   0  0  0  0  0  0  0  0  0  0  0  0
    3.2110   18.7510   -1.7880 C   0  0  0  0  0  0  0  0  0  0  0  0
    1.9920   19.5710   -1.3740 C   0  0  2  0  0  0  0  0  0  0  0  0
    2.1600   19.9960   -0.0180 O   0  0  0  0  0  0  0  0  0  0  0  0
    0.6540   18.7930   -1.5160 C   0  0  0  0  0  0  0  0  0  0  0  0
    0.3220   18.5970   -3.0160 C   0  0  0  0  0  0  0  0  0  0  0  0
   -0.4790   19.6820   -0.9340 C   0  0  0  0  0  0  0  0  0  0  0  0
    2.1220   15.1570   -0.4850 C   0  0  1  0  0  0  0  0  0  0  0  0
    2.8090   15.3200    0.9060 C   0  0  0  0  0  0  0  0  0  0  0  0
    3.0610   14.2230   -1.3370 C   0  0  0  0  0  0  0  0  0  0  0  0
    2.3930   13.4020   -2.4570 C   0  0  0  0  0  0  0  0  0  0  0  0
    1.1540   12.6690   -1.9350 C   0  0  2  0  0  0  0  0  0  0  0  0
    1.6240   11.6570   -0.8350 C   0  0  0  0  0  0  0  0  0  0  0  0
    2.6662   10.9856   -4.5621 H   0  0  0  0  0  0  0  0  0  0  0  0
    1.5754    9.7979   -5.3535 H   0  0  0  0  0  0  0  0  0  0  0  0
    1.1533   11.5439   -5.3535 H   0  0  0  0  0  0  0  0  0  0  0  0
    1.5726   10.1538   -2.7170 H   0  0  0  0  0  0  0  0  0  0  0  0
   -1.2427   10.0638   -3.4756 H   0  0  0  0  0  0  0  0  0  0  0  0
   -0.1842    9.0485   -4.5675 H   0  0  0  0  0  0  0  0  0  0  0  0
   -1.2109    7.8982   -2.5165 H   0  0  0  0  0  0  0  0  0  0  0  0
    0.5693    7.7194   -2.8098 H   0  0  0  0  0  0  0  0  0  0  0  0
    0.9140    9.5187   -1.5463 H   0  0  0  0  0  0  0  0  0  0  0  0
   -3.0510    9.0430    0.4643 H   0  0  0  0  0  0  0  0  0  0  0  0
   -2.8355    9.9747   -1.0563 H   0  0  0  0  0  0  0  0  0  0  0  0
   -2.6145    8.1921   -1.0563 H   0  0  0  0  0  0  0  0  0  0  0  0
   -0.8623    9.7712    1.9173 H   0  0  0  0  0  0  0  0  0  0  0  0
    0.3579   10.5602    0.8612 H   0  0  0  0  0  0  0  0  0  0  0  0
   -1.3412   11.1430    0.8612 H   0  0  0  0  0  0  0  0  0  0  0  0
    0.3049   12.4344   -3.9348 H   0  0  0  0  0  0  0  0  0  0  0  0
   -1.8733   11.9541   -3.0079 H   0  0  0  0  0  0  0  0  0  0  0  0
   -1.2136   10.7479   -1.8823 H   0  0  0  0  0  0  0  0  0  0  0  0
   -2.0380   13.3937   -1.1850 H   0  0  0  0  0  0  0  0  0  0  0  0
   -1.0490   12.3640   -0.1533 H   0  0  0  0  0  0  0  0  0  0  0  0
   -0.8327   15.6073   -2.0776 H   0  0  0  0  0  0  0  0  0  0  0  0
    0.4660   15.0272   -3.1746 H   0  0  0  0  0  0  0  0  0  0  0  0
   -1.1377   14.2180   -3.1746 H   0  0  0  0  0  0  0  0  0  0  0  0
    0.8635   13.6930    0.5127 H   0  0  0  0  0  0  0  0  0  0  0  0
   -1.2783   15.1183    0.3382 H   0  0  0  0  0  0  0  0  0  0  0  0
    0.0682   15.5628    1.5120 H   0  0  0  0  0  0  0  0  0  0  0  0
   -1.0380   17.5594    0.1980 H   0  0  0  0  0  0  0  0  0  0  0  0
    1.9024   16.2913   -2.2610 H   0  0  0  0  0  0  0  0  0  0  0  0
    3.3871   17.6719    0.0608 H   0  0  0  0  0  0  0  0  0  0  0  0
    4.1358   16.8687   -1.3897 H   0  0  0  0  0  0  0  0  0  0  0  0
    4.1219   19.3345   -1.5889 H   0  0  0  0  0  0  0  0  0  0  0  0
    3.1300   18.5183   -2.8600 H   0  0  0  0  0  0  0  0  0  0  0  0
    1.9278   20.4328   -2.0546 H   0  0  0  0  0  0  0  0  0  0  0  0
    2.7830   19.3810    0.4070 H   0  0  0  0  0  0  0  0  0  0  0  0
   -0.6216   18.0400   -3.1130 H   0  0  0  0  0  0  0  0  0  0  0  0
    0.2193   19.5793   -3.5002 H   0  0  0  0  0  0  0  0  0  0  0  0
    1.1325   18.0325   -3.5002 H   0  0  0  0  0  0  0  0  0  0  0  0
   -0.4407   19.6520    0.1649 H   0  0  0  0  0  0  0  0  0  0  0  0
   -0.3449   20.7184   -1.2774 H   0  0  0  0  0  0  0  0  0  0  0  0
   -1.4537   19.3052   -1.2774 H   0  0  0  0  0  0  0  0  0  0  0  0
    2.0707   15.1448    1.7024 H   0  0  0  0  0  0  0  0  0  0  0  0
    3.6277   14.5912    0.9983 H   0  0  0  0  0  0  0  0  0  0  0  0
    3.2130   16.3389    0.9983 H   0  0  0  0  0  0  0  0  0  0  0  0
    3.8287   14.8584   -1.8027 H   0  0  0  0  0  0  0  0  0  0  0  0
    3.4483   13.4784   -0.6260 H   0  0  0  0  0  0  0  0  0  0  0  0
    2.0942   14.0795   -3.2705 H   0  0  0  0  0  0  0  0  0  0  0  0
    3.1139   12.6558   -2.8225 H   0  0  0  0  0  0  0  0  0  0  0  0
    1.4273   12.0805    0.1610 H   0  0  0  0  0  0  0  0  0  0  0  0
    1.0727   10.7117   -0.9469 H   0  0  0  0  0  0  0  0  0  0  0  0
    2.7019   11.4683   -0.9469 H   0  0  0  0  0  0  0  0  0  0  0  0
  1  2  1  0
  2  3  1  0
  3  4  1  0
  4  5  1  0
  5  6  1  0
  6  7  1  0
  7  8  1  0
  7  9  1  0
  2 10  1  0
 10 11  1  0
 11 12  1  0
 12 13  1  0
 13 14  1  6
 13 15  1  0
 15 16  1  0
 16 17  1  0
 17 18  2  0
 18 19  1  0
 19 20  1  0
 20 21  1  0
 21 22  1  0
 22 23  1  0
 22 24  1  0
 24 25  1  0
 24 26  1  0
 19 27  1  0
 27 28  1  1
 27 29  1  0
 29 30  1  0
 30 31  1  0
 31 32  1  1
  7  5  1  0
 31 10  1  0
 31 13  1  0
 27 15  1  0
 24 18  1  0
  1 33  1  0
  1 34  1  0
  1 35  1  0
  2 36  1  1
  3 37  1  0
  3 38  1  0
  4 39  1  0
  4 40  1  0
  5 41  1  6
  8 42  1  0
  8 43  1  0
  8 44  1  0
  9 45  1  0
  9 46  1  0
  9 47  1  0
 10 48  1  6
 11 49  1  0
 11 50  1  0
 12 51  1  0
 12 52  1  0
 14 53  1  0
 14 54  1  0
 14 55  1  0
 15 56  1  1
 16 57  1  0
 16 58  1  0
 17 59  1  0
 19 60  1  6
 20 61  1  0
 20 62  1  0
 21 63  1  0
 21 64  1  0
 22 65  1  6
 23 66  1  0
 25 67  1  0
 25 68  1  0
 25 69  1  0
 26 70  1  0
 26 71  1  0
 26 72  1  0
 28 73  1  0
 28 74  1  0
 28 75  1  0
 29 76  1  0
 29 77  1  0
 30 78  1  0
 30 79  1  0
 32 80  1  0
 32 81  1  0
 32 82  1  0
M  END
>  <meeko>  (12) 
{"is_sidechain": [false], "intermolecular_energy": 2.731, "internal_energy": -0.839}

$$$$
EPH_relaxed_0001_pdb2pqr_Repair_52_r2_0001_out
     RDKit          3D

 82 86  0  0  0  0  0  0  0  0999 V2000
    2.9620   18.3110   -3.2410 C   0  0  0  0  0  0  0  0  0  0  0  0
    1.6560   17.5750   -2.9300 C   0  0  2  0  0  0  0  0  0  0  0  0
    0.7050   18.4230   -2.0610 C   0  0  0  0  0  0  0  0  0  0  0  0
    1.2550   19.8110   -1.7200 C   0  0  0  0  0  0  0  0  0  0  0  0
    2.1250   19.7780   -0.5010 C   0  0  2  0  0  0  0  0  0  0  0  0
    2.0650   18.5550    0.2450 O   0  0  0  0  0  0  0  0  0  0  0  0
    1.5810   19.7300    0.9150 C   0  0  0  0  0  0  0  0  0  0  0  0
    0.1080   19.7140    1.1840 C   0  0  0  0  0  0  0  0  0  0  0  0
    2.4590   20.1900    2.0360 C   0  0  0  0  0  0  0  0  0  0  0  0
    1.9560   16.2530   -2.2340 C   0  0  1  0  0  0  0  0  0  0  0  0
    2.6790   16.4440   -0.8740 C   0  0  0  0  0  0  0  0  0  0  0  0
    2.1620   15.3270    0.0680 C   0  0  0  0  0  0  0  0  0  0  0  0
    1.4230   14.3400   -0.8660 C   0  0  1  0  0  0  0  0  0  0  0  0
    2.5490   13.4630   -1.4950 C   0  0  0  0  0  0  0  0  0  0  0  0
    0.3100   13.4640   -0.2040 C   0  0  2  0  0  0  0  0  0  0  0  0
    0.8020   12.5050    0.8950 C   0  0  0  0  0  0  0  0  0  0  0  0
    1.2010   11.1460    0.4240 C   0  0  0  0  0  0  0  0  0  0  0  0
    0.9010   10.6150   -0.7760 C   0  0  0  0  0  0  0  0  0  0  0  0
    0.0020   11.3650   -1.7670 C   0  0  1  0  0  0  0  0  0  0  0  0
   -1.0630   10.3940   -2.3390 C   0  0  0  0  0  0  0  0  0  0  0  0
   -0.4440    9.1390   -2.9470 C   0  0  0  0  0  0  0  0  0  0  0  0
    0.3950    8.3890   -1.9150 C   0  0  2  0  0  0  0  0  0  0  0  0
   -0.4740    7.8760   -0.9010 O   0  0  0  0  0  0  0  0  0  0  0  0
    1.4960    9.2710   -1.2630 C   0  0  0  0  0  0  0  0  0  0  0  0
    2.6010    9.5780   -2.3040 C   0  0  0  0  0  0  0  0  0  0  0  0
    2.1740    8.4370   -0.1430 C   0  0  0  0  0  0  0  0  0  0  0  0
   -0.6320   12.7230   -1.2370 C   0  0  1  0  0  0  0  0  0  0  0  0
   -1.9690   12.4290   -0.4890 C   0  0  0  0  0  0  0  0  0  0  0  0
   -1.0020   13.6320   -2.4680 C   0  0  0  0  0  0  0  0  0  0  0  0
    0.1030   14.5640   -3.0010 C   0  0  0  0  0  0  0  0  0  0  0  0
    0.7500   15.3550   -1.8600 C   0  0  2  0  0  0  0  0  0  0  0  0
   -0.3550   16.2640   -1.2220 C   0  0  0  0  0  0  0  0  0  0  0  0
    3.4583   18.5907   -2.3000 H   0  0  0  0  0  0  0  0  0  0  0  0
    3.6240   17.6531   -3.8232 H   0  0  0  0  0  0  0  0  0  0  0  0
    2.7421   19.2180   -3.8232 H   0  0  0  0  0  0  0  0  0  0  0  0
    1.1485   17.3841   -3.8871 H   0  0  0  0  0  0  0  0  0  0  0  0
   -0.2427   18.5491   -2.6050 H   0  0  0  0  0  0  0  0  0  0  0  0
    0.5749   17.8864   -1.1096 H   0  0  0  0  0  0  0  0  0  0  0  0
    1.8473   20.1787   -2.5709 H   0  0  0  0  0  0  0  0  0  0  0  0
    0.4034   20.4766   -1.5156 H   0  0  0  0  0  0  0  0  0  0  0  0
    2.8670   20.4303   -0.9847 H   0  0  0  0  0  0  0  0  0  0  0  0
   -0.0664   19.7121    2.2701 H   0  0  0  0  0  0  0  0  0  0  0  0
   -0.3556   20.6072    0.7398 H   0  0  0  0  0  0  0  0  0  0  0  0
   -0.3361   18.8110    0.7398 H   0  0  0  0  0  0  0  0  0  0  0  0
    1.9859   19.9422    2.9977 H   0  0  0  0  0  0  0  0  0  0  0  0
    3.4351   19.6874    1.9672 H   0  0  0  0  0  0  0  0  0  0  0  0
    2.6014   21.2786    1.9672 H   0  0  0  0  0  0  0  0  0  0  0  0
    2.5584   15.7669   -3.0156 H   0  0  0  0  0  0  0  0  0  0  0  0
    3.7671   16.3534   -1.0075 H   0  0  0  0  0  0  0  0  0  0  0  0
    2.4748   17.4402   -0.4546 H   0  0  0  0  0  0  0  0  0  0  0  0
    3.0007   14.8277    0.5752 H   0  0  0  0  0  0  0  0  0  0  0  0
    1.5086   15.7194    0.8611 H   0  0  0  0  0  0  0  0  0  0  0  0
    3.1437   12.9998   -0.6939 H   0  0  0  0  0  0  0  0  0  0  0  0
    2.0968   12.6767   -2.1174 H   0  0  0  0  0  0  0  0  0  0  0  0
    3.2006   14.0939   -2.1174 H   0  0  0  0  0  0  0  0  0  0  0  0
   -0.3076   14.2159    0.3091 H   0  0  0  0  0  0  0  0  0  0  0  0
    1.6741   12.9654    1.3823 H   0  0  0  0  0  0  0  0  0  0  0  0
   -0.0521   12.3538    1.5715 H   0  0  0  0  0  0  0  0  0  0  0  0
    1.7899   10.5260    1.1160 H   0  0  0  0  0  0  0  0  0  0  0  0
    0.6633   11.7104   -2.5753 H   0  0  0  0  0  0  0  0  0  0  0  0
   -1.7403   10.0946   -1.5256 H   0  0  0  0  0  0  0  0  0  0  0  0
   -1.6009   10.9226   -3.1398 H   0  0  0  0  0  0  0  0  0  0  0  0
   -1.2475    8.4790   -3.3059 H   0  0  0  0  0  0  0  0  0  0  0  0
    0.2092    9.4381   -3.7800 H   0  0  0  0  0  0  0  0  0  0  0  0
    0.9162    7.5754   -2.4408 H   0  0  0  0  0  0  0  0  0  0  0  0
   -0.9460    8.6290   -0.5090 H   0  0  0  0  0  0  0  0  0  0  0  0
    3.5342    9.8373   -1.7825 H   0  0  0  0  0  0  0  0  0  0  0  0
    2.7672    8.6920   -2.9344 H   0  0  0  0  0  0  0  0  0  0  0  0
    2.2864   10.4228   -2.9344 H   0  0  0  0  0  0  0  0  0  0  0  0
    1.8621    8.8206    0.8396 H   0  0  0  0  0  0  0  0  0  0  0  0
    1.8732    7.3831   -0.2375 H   0  0  0  0  0  0  0  0  0  0  0  0
    3.2671    8.5162   -0.2375 H   0  0  0  0  0  0  0  0  0  0  0  0
   -1.7976   12.4667    0.5969 H   0  0  0  0  0  0  0  0  0  0  0  0
   -2.7190   13.1837   -0.7682 H   0  0  0  0  0  0  0  0  0  0  0  0
   -2.3332   11.4293   -0.7682 H   0  0  0  0  0  0  0  0  0  0  0  0
   -1.3042   12.9691   -3.2921 H   0  0  0  0  0  0  0  0  0  0  0  0
   -1.7929   14.3034   -2.1023 H   0  0  0  0  0  0  0  0  0  0  0  0
    0.8734   13.9592   -3.5018 H   0  0  0  0  0  0  0  0  0  0  0  0
   -0.3486   15.2747   -3.7088 H   0  0  0  0  0  0  0  0  0  0  0  0
   -0.2875   16.2084   -0.1255 H   0  0  0  0  0  0  0  0  0  0  0  0
   -0.2061   17.3045   -1.5463 H   0  0  0  0  0  0  0  0  0  0  0  0
   -1.3473   15.9173   -1.5463 H   0  0  0  0  0  0  0  0  0  0  0  0
  1  2  1  0
  2  3  1  0
  3  4  1  0
  4  5  1  0
  5  6  1  0
  6  7  1  0
  7  8  1  0
  7  9  1  0
  2 10  1  0
 10 11  1  0
 11 12  1  0
 12 13  1  0
 13 14  1  6
 13 15  1  0
 15 16  1  0
 16 17  1  0
 17 18  2  0
 18 19  1  0
 19 20  1  0
 20 21  1  0
 21 22  1  0
 22 23  1  0
 22 24  1  0
 24 25  1  0
 24 26  1  0
 19 27  1  0
 27 28  1  1
 27 29  1  0
 29 30  1  0
 30 31  1  0
 31 32  1  1
  7  5  1  0
 31 10  1  0
 31 13  1  0
 27 15  1  0
 24 18  1  0
  1 33  1  0
  1 34  1  0
  1 35  1  0
  2 36  1  6
  3 37  1  0
  3 38  1  0
  4 39  1  0
  4 40  1  0
  5 41  1  1
  8 42  1  0
  8 43  1  0
  8 44  1  0
  9 45  1  0
  9 46  1  0
  9 47  1  0
 10 48  1  6
 11 49  1  0
 11 50  1  0
 12 51  1  0
 12 52  1  0
 14 53  1  0
 14 54  1  0
 14 55  1  0
 15 56  1  1
 16 57  1  0
 16 58  1  0
 17 59  1  0
 19 60  1  6
 20 61  1  0
 20 62  1  0
 21 63  1  0
 21 64  1  0
 22 65  1  6
 23 66  1  0
 25 67  1  0
 25 68  1  0
 25 69  1  0
 26 70  1  0
 26 71  1  0
 26 72  1  0
 28 73  1  0
 28 74  1  0
 28 75  1  0
 29 76  1  0
 29 77  1  0
 30 78  1  0
 30 79  1  0
 32 80  1  0
 32 81  1  0
 32 82  1  0
M  END
>  <meeko>  (13) 
{"is_sidechain": [false], "intermolecular_energy": 2.731, "internal_energy": -0.839}

$$$$
EPH_relaxed_0001_pdb2pqr_Repair_52_r2_0001_out
     RDKit          3D

 82 86  0  0  0  0  0  0  0  0999 V2000
    0.7830    9.4090   -0.0980 C   0  0  0  0  0  0  0  0  0  0  0  0
   -0.4220   10.3540   -0.0760 C   0  0  2  0  0  0  0  0  0  0  0  0
   -1.1350   10.4180   -1.4410 C   0  0  0  0  0  0  0  0  0  0  0  0
   -0.3750    9.7110   -2.5660 C   0  0  0  0  0  0  0  0  0  0  0  0
   -0.1900   10.6020   -3.7570 C   0  0  2  0  0  0  0  0  0  0  0  0
    0.4500    9.9790   -4.8780 O   0  0  0  0  0  0  0  0  0  0  0  0
    1.1680   11.0580   -4.2570 C   0  0  0  0  0  0  0  0  0  0  0  0
    2.4320   10.6370   -3.5770 C   0  0  0  0  0  0  0  0  0  0  0  0
    1.2420   12.2950   -5.0980 C   0  0  0  0  0  0  0  0  0  0  0  0
    0.0210   11.7500    0.3470 C   0  0  1  0  0  0  0  0  0  0  0  0
    1.1380   11.7220    1.4240 C   0  0  0  0  0  0  0  0  0  0  0  0
    2.0660   12.9320    1.1380 C   0  0  0  0  0  0  0  0  0  0  0  0
    1.2780   13.7970    0.1270 C   0  0  1  0  0  0  0  0  0  0  0  0
    0.2710   14.6140    0.9970 C   0  0  0  0  0  0  0  0  0  0  0  0
    2.1290   14.7270   -0.7970 C   0  0  2  0  0  0  0  0  0  0  0  0
    2.9410   15.8090   -0.0640 C   0  0  0  0  0  0  0  0  0  0  0  0
    2.2390   17.1130    0.1290 C   0  0  0  0  0  0  0  0  0  0  0  0
    1.1230   17.5020   -0.5140 C   0  0  0  0  0  0  0  0  0  0  0  0
    0.5050   16.6330   -1.6170 C   0  0  1  0  0  0  0  0  0  0  0  0
    0.1550   17.5200   -2.8400 C   0  0  0  0  0  0  0  0  0  0  0  0
   -0.7290   18.7070   -2.4690 C   0  0  0  0  0  0  0  0  0  0  0  0
   -0.0550   19.5790   -1.4120 C   0  0  2  0  0  0  0  0  0  0  0  0
    1.1020   20.1910   -1.9890 O   0  0  0  0  0  0  0  0  0  0  0  0
    0.3520   18.7910   -0.1360 C   0  0  0  0  0  0  0  0  0  0  0  0
   -0.9180   18.3840    0.6520 C   0  0  0  0  0  0  0  0  0  0  0  0
    1.1450   19.7540    0.7870 C   0  0  0  0  0  0  0  0  0  0  0  0
    1.3290   15.3350   -2.0200 C   0  0  1  0  0  0  0  0  0  0  0  0
    2.3850   15.6920   -3.1100 C   0  0  0  0  0  0  0  0  0  0  0  0
    0.3520   14.2880   -2.6740 C   0  0  0  0  0  0  0  0  0  0  0  0
   -0.3690   13.3180   -1.7190 C   0  0  0  0  0  0  0  0  0  0  0  0
    0.6210   12.6680   -0.7480 C   0  0  2  0  0  0  0  0  0  0  0  0
    1.6330   11.8210   -1.5930 C   0  0  0  0  0  0  0  0  0  0  0  0
    1.0832    9.1736    0.9337 H   0  0  0  0  0  0  0  0  0  0  0  0
    0.5114    8.4806   -0.6218 H   0  0  0  0  0  0  0  0  0  0  0  0
    1.6199    9.8941   -0.6218 H   0  0  0  0  0  0  0  0  0  0  0  0
   -1.1424    9.9553    0.6534 H   0  0  0  0  0  0  0  0  0  0  0  0
   -2.1231    9.9455   -1.3391 H   0  0  0  0  0  0  0  0  0  0  0  0
   -1.2042   11.4803   -1.7180 H   0  0  0  0  0  0  0  0  0  0  0  0
    0.6136    9.4068   -2.1917 H   0  0  0  0  0  0  0  0  0  0  0  0
   -0.9642    8.8370   -2.8806 H   0  0  0  0  0  0  0  0  0  0  0  0
   -1.1113   11.1531   -3.5172 H   0  0  0  0  0  0  0  0  0  0  0  0
    2.2945   10.6828   -2.4866 H   0  0  0  0  0  0  0  0  0  0  0  0
    2.6817    9.6072   -3.8722 H   0  0  0  0  0  0  0  0  0  0  0  0
    3.2493   11.3114   -3.8722 H   0  0  0  0  0  0  0  0  0  0  0  0
    1.2949   13.1792   -4.4458 H   0  0  0  0  0  0  0  0  0  0  0  0
    2.1393   12.2536   -5.7330 H   0  0  0  0  0  0  0  0  0  0  0  0
    0.3462   12.3608   -5.7330 H   0  0  0  0  0  0  0  0  0  0  0  0
   -0.9433   12.1533    0.6896 H   0  0  0  0  0  0  0  0  0  0  0  0
    0.6982   11.8110    2.4283 H   0  0  0  0  0  0  0  0  0  0  0  0
    1.6990   10.7765    1.3867 H   0  0  0  0  0  0  0  0  0  0  0  0
    2.2636   13.4966    2.0611 H   0  0  0  0  0  0  0  0  0  0  0  0
    3.0466   12.6226    0.7473 H   0  0  0  0  0  0  0  0  0  0  0  0
    0.4832   14.4418    2.0625 H   0  0  0  0  0  0  0  0  0  0  0  0
    0.3761   15.6853    0.7707 H   0  0  0  0  0  0  0  0  0  0  0  0
   -0.7557   14.2904    0.7707 H   0  0  0  0  0  0  0  0  0  0  0  0
    2.8693   14.0290   -1.2151 H   0  0  0  0  0  0  0  0  0  0  0  0
    3.2102   15.4179    0.9283 H   0  0  0  0  0  0  0  0  0  0  0  0
    3.8096   16.0231   -0.7040 H   0  0  0  0  0  0  0  0  0  0  0  0
    2.6707   17.8144    0.8582 H   0  0  0  0  0  0  0  0  0  0  0  0
   -0.4149   16.2075   -1.1895 H   0  0  0  0  0  0  0  0  0  0  0  0
    1.0894   17.9000   -3.2788 H   0  0  0  0  0  0  0  0  0  0  0  0
   -0.4044   16.8978   -3.5541 H   0  0  0  0  0  0  0  0  0  0  0  0
   -0.9163   19.3116   -3.3686 H   0  0  0  0  0  0  0  0  0  0  0  0
   -1.6756   18.3255   -2.0585 H   0  0  0  0  0  0  0  0  0  0  0  0
   -0.7871   20.3354   -1.0928 H   0  0  0  0  0  0  0  0  0  0  0  0
    1.8850   19.7510   -1.6160 H   0  0  0  0  0  0  0  0  0  0  0  0
   -0.7162   18.4487    1.7314 H   0  0  0  0  0  0  0  0  0  0  0  0
   -1.7439   19.0625    0.3921 H   0  0  0  0  0  0  0  0  0  0  0  0
   -1.1957   17.3519    0.3921 H   0  0  0  0  0  0  0  0  0  0  0  0
    0.9403   19.5054    1.8388 H   0  0  0  0  0  0  0  0  0  0  0  0
    2.2218   19.6487    0.5882 H   0  0  0  0  0  0  0  0  0  0  0  0
    0.8351   20.7906    0.5882 H   0  0  0  0  0  0  0  0  0  0  0  0
    3.3202   16.0082   -2.6248 H   0  0  0  0  0  0  0  0  0  0  0  0
    2.5776   14.8090   -3.7371 H   0  0  0  0  0  0  0  0  0  0  0  0
    2.0023   16.5107   -3.7371 H   0  0  0  0  0  0  0  0  0  0  0  0
   -0.4189   14.8496   -3.2219 H   0  0  0  0  0  0  0  0  0  0  0  0
    0.9923   13.6505   -3.3014 H   0  0  0  0  0  0  0  0  0  0  0  0
   -1.1245   13.8739   -1.1443 H   0  0  0  0  0  0  0  0  0  0  0  0
   -0.8453   12.5267   -2.3165 H   0  0  0  0  0  0  0  0  0  0  0  0
    2.2986   11.2639   -0.9173 H   0  0  0  0  0  0  0  0  0  0  0  0
    1.0789   11.1135   -2.2274 H   0  0  0  0  0  0  0  0  0  0  0  0
    2.2318   12.4910   -2.2274 H   0  0  0  0  0  0  0  0  0  0  0  0
  1  2  1  0
  2  3  1  0
  3  4  1  0
  4  5  1  0
  5  6  1  0
  6  7  1  0
  7  8  1  0
  7  9  1  0
  2 10  1  0
 10 11  1  0
 11 12  1  0
 12 13  1  0
 13 14  1  1
 13 15  1  0
 15 16  1  0
 16 17  1  0
 17 18  2  0
 18 19  1  0
 19 20  1  0
 20 21  1  0
 21 22  1  0
 22 23  1  0
 22 24  1  0
 24 25  1  0
 24 26  1  0
 19 27  1  0
 27 28  1  6
 27 29  1  0
 29 30  1  0
 30 31  1  0
 31 32  1  6
  7  5  1  0
 31 10  1  0
 31 13  1  0
 27 15  1  0
 24 18  1  0
  1 33  1  0
  1 34  1  0
  1 35  1  0
  2 36  1  1
  3 37  1  0
  3 38  1  0
  4 39  1  0
  4 40  1  0
  5 41  1  6
  8 42  1  0
  8 43  1  0
  8 44  1  0
  9 45  1  0
  9 46  1  0
  9 47  1  0
 10 48  1  1
 11 49  1  0
 11 50  1  0
 12 51  1  0
 12 52  1  0
 14 53  1  0
 14 54  1  0
 14 55  1  0
 15 56  1  6
 16 57  1  0
 16 58  1  0
 17 59  1  0
 19 60  1  1
 20 61  1  0
 20 62  1  0
 21 63  1  0
 21 64  1  0
 22 65  1  1
 23 66  1  0
 25 67  1  0
 25 68  1  0
 25 69  1  0
 26 70  1  0
 26 71  1  0
 26 72  1  0
 28 73  1  0
 28 74  1  0
 28 75  1  0
 29 76  1  0
 29 77  1  0
 30 78  1  0
 30 79  1  0
 32 80  1  0
 32 81  1  0
 32 82  1  0
M  END
>  <meeko>  (14) 
{"is_sidechain": [false], "intermolecular_energy": 2.731, "internal_energy": -0.839}

$$$$
EPH_relaxed_0001_pdb2pqr_Repair_52_r2_0001_out
     RDKit          3D

 82 86  0  0  0  0  0  0  0  0999 V2000
   -2.1340    7.9130   -1.9330 C   0  0  0  0  0  0  0  0  0  0  0  0
   -2.2560    8.6340   -0.5880 C   0  0  2  0  0  0  0  0  0  0  0  0
   -3.7140    8.6980   -0.0920 C   0  0  0  0  0  0  0  0  0  0  0  0
   -4.6020    7.5810   -0.6470 C   0  0  0  0  0  0  0  0  0  0  0  0
   -5.5610    8.0960   -1.6780 C   0  0  2  0  0  0  0  0  0  0  0  0
   -6.3030    9.2560   -1.2790 O   0  0  0  0  0  0  0  0  0  0  0  0
   -7.0690    8.0620   -1.5080 C   0  0  0  0  0  0  0  0  0  0  0  0
   -7.7030    7.5000   -0.2750 C   0  0  0  0  0  0  0  0  0  0  0  0
   -7.9280    8.1230   -2.7330 C   0  0  0  0  0  0  0  0  0  0  0  0
   -1.6810   10.0410   -0.6980 C   0  0  1  0  0  0  0  0  0  0  0  0
   -1.1620   10.5830    0.6600 C   0  0  0  0  0  0  0  0  0  0  0  0
    0.0800   11.4560    0.3480 C   0  0  0  0  0  0  0  0  0  0  0  0
    0.0400   11.6590   -1.1840 C   0  0  1  0  0  0  0  0  0  0  0  0
   -0.9860   12.8150   -1.4090 C   0  0  0  0  0  0  0  0  0  0  0  0
    1.4080   11.9590   -1.8780 C   0  0  2  0  0  0  0  0  0  0  0  0
    2.0940   13.2630   -1.4330 C   0  0  0  0  0  0  0  0  0  0  0  0
    1.7430   14.4730   -2.2330 C   0  0  0  0  0  0  0  0  0  0  0  0
    1.1380   14.4670   -3.4360 C   0  0  0  0  0  0  0  0  0  0  0  0
    0.8310   13.1490   -4.1570 C   0  0  1  0  0  0  0  0  0  0  0  0
    1.2660   13.2570   -5.6420 C   0  0  0  0  0  0  0  0  0  0  0  0
    0.6510   14.4630   -6.3450 C   0  0  0  0  0  0  0  0  0  0  0  0
    1.0270   15.7600   -5.6330 C   0  0  2  0  0  0  0  0  0  0  0  0
    2.4350   15.9720   -5.7730 O   0  0  0  0  0  0  0  0  0  0  0  0
    0.6460   15.7630   -4.1260 C   0  0  0  0  0  0  0  0  0  0  0  0
   -0.8940   15.8380   -3.9790 C   0  0  0  0  0  0  0  0  0  0  0  0
    1.2050   17.0670   -3.4950 C   0  0  0  0  0  0  0  0  0  0  0  0
    1.3770   11.8310   -3.4550 C   0  0  1  0  0  0  0  0  0  0  0  0
    2.8440   11.5560   -3.9080 C   0  0  0  0  0  0  0  0  0  0  0  0
    0.5250   10.5990   -3.9390 C   0  0  0  0  0  0  0  0  0  0  0  0
   -0.7530   10.2820   -3.1400 C   0  0  0  0  0  0  0  0  0  0  0  0
   -0.4630   10.2400   -1.6360 C   0  0  2  0  0  0  0  0  0  0  0  0
    0.5480    9.0720   -1.3770 C   0  0  0  0  0  0  0  0  0  0  0  0
   -1.9528    6.8420   -1.7598 H   0  0  0  0  0  0  0  0  0  0  0  0
   -3.0663    8.0397   -2.5028 H   0  0  0  0  0  0  0  0  0  0  0  0
   -1.2952    8.3393   -2.5028 H   0  0  0  0  0  0  0  0  0  0  0  0
   -1.6822    8.0544    0.1501 H   0  0  0  0  0  0  0  0  0  0  0  0
   -3.7110    8.6263    1.0057 H   0  0  0  0  0  0  0  0  0  0  0  0
   -4.1337    9.6500   -0.4490 H   0  0  0  0  0  0  0  0  0  0  0  0
   -3.9630    6.8127   -1.1067 H   0  0  0  0  0  0  0  0  0  0  0  0
   -5.1859    7.1614    0.1854 H   0  0  0  0  0  0  0  0  0  0  0  0
   -4.9023    7.7610   -2.4928 H   0  0  0  0  0  0  0  0  0  0  0  0
   -7.2188    7.9292    0.6145 H   0  0  0  0  0  0  0  0  0  0  0  0
   -8.7740    7.7509   -0.2665 H   0  0  0  0  0  0  0  0  0  0  0  0
   -7.5824    6.4067   -0.2665 H   0  0  0  0  0  0  0  0  0  0  0  0
   -8.9846    8.1980   -2.4365 H   0  0  0  0  0  0  0  0  0  0  0  0
   -7.6516    9.0038   -3.3312 H   0  0  0  0  0  0  0  0  0  0  0  0
   -7.7788    7.2120   -3.3312 H   0  0  0  0  0  0  0  0  0  0  0  0
   -2.5583   10.5672   -1.1023 H   0  0  0  0  0  0  0  0  0  0  0  0
   -1.9390   11.1902    1.1474 H   0  0  0  0  0  0  0  0  0  0  0  0
   -0.9043    9.7589    1.3416 H   0  0  0  0  0  0  0  0  0  0  0  0
    0.0161   12.4224    0.8695 H   0  0  0  0  0  0  0  0  0  0  0  0
    1.0158   10.9839    0.6817 H   0  0  0  0  0  0  0  0  0  0  0  0
   -1.3260   13.1981   -0.4355 H   0  0  0  0  0  0  0  0  0  0  0  0
   -0.5055   13.6267   -1.9750 H   0  0  0  0  0  0  0  0  0  0  0  0
   -1.8490   12.4343   -1.9750 H   0  0  0  0  0  0  0  0  0  0  0  0
    2.0453   11.1440   -1.5043 H   0  0  0  0  0  0  0  0  0  0  0  0
    1.8140   13.4544   -0.3866 H   0  0  0  0  0  0  0  0  0  0  0  0
    3.1727   13.1044   -1.5785 H   0  0  0  0  0  0  0  0  0  0  0  0
    2.0002   15.4525   -1.8036 H   0  0  0  0  0  0  0  0  0  0  0  0
   -0.2593   13.0164   -4.0966 H   0  0  0  0  0  0  0  0  0  0  0  0
    2.3616   13.3457   -5.6830 H   0  0  0  0  0  0  0  0  0  0  0  0
    0.9136   12.3528   -6.1599 H   0  0  0  0  0  0  0  0  0  0  0  0
    1.0183   14.5016   -7.3811 H   0  0  0  0  0  0  0  0  0  0  0  0
   -0.4439   14.3582   -6.3286 H   0  0  0  0  0  0  0  0  0  0  0  0
    0.4545   16.5727   -6.1039 H   0  0  0  0  0  0  0  0  0  0  0  0
    2.7210   15.5210   -6.5860 H   0  0  0  0  0  0  0  0  0  0  0  0
   -1.1603   15.8510   -2.9118 H   0  0  0  0  0  0  0  0  0  0  0  0
   -1.2640   16.7552   -4.4604 H   0  0  0  0  0  0  0  0  0  0  0  0
   -1.3514   14.9611   -4.4604 H   0  0  0  0  0  0  0  0  0  0  0  0
    1.1709   16.9876   -2.3984 H   0  0  0  0  0  0  0  0  0  0  0  0
    2.2455   17.2147   -3.8198 H   0  0  0  0  0  0  0  0  0  0  0  0
    0.5945   17.9225   -3.8198 H   0  0  0  0  0  0  0  0  0  0  0  0
    3.4849   11.4359   -3.0221 H   0  0  0  0  0  0  0  0  0  0  0  0
    2.8754   10.6363   -4.5107 H   0  0  0  0  0  0  0  0  0  0  0  0
    3.2063   12.4019   -4.5107 H   0  0  0  0  0  0  0  0  0  0  0  0
    0.2277   10.7887   -4.9809 H   0  0  0  0  0  0  0  0  0  0  0  0
    1.1772    9.7245   -3.7978 H   0  0  0  0  0  0  0  0  0  0  0  0
   -1.5047   11.0598   -3.3400 H   0  0  0  0  0  0  0  0  0  0  0  0
   -1.1268    9.2959   -3.4529 H   0  0  0  0  0  0  0  0  0  0  0  0
    0.6724    8.9282   -0.2936 H   0  0  0  0  0  0  0  0  0  0  0  0
    0.1617    8.1459   -1.8278 H   0  0  0  0  0  0  0  0  0  0  0  0
    1.5199    9.3216   -1.8278 H   0  0  0  0  0  0  0  0  0  0  0  0
  1  2  1  0
  2  3  1  0
  3  4  1  0
  4  5  1  0
  5  6  1  0
  6  7  1  0
  7  8  1  0
  7  9  1  0
  2 10  1  0
 10 11  1  0
 11 12  1  0
 12 13  1  0
 13 14  1  1
 13 15  1  0
 15 16  1  0
 16 17  1  0
 17 18  2  0
 18 19  1  0
 19 20  1  0
 20 21  1  0
 21 22  1  0
 22 23  1  0
 22 24  1  0
 24 25  1  0
 24 26  1  0
 19 27  1  0
 27 28  1  6
 27 29  1  0
 29 30  1  0
 30 31  1  0
 31 32  1  6
  7  5  1  0
 31 10  1  0
 31 13  1  0
 27 15  1  0
 24 18  1  0
  1 33  1  0
  1 34  1  0
  1 35  1  0
  2 36  1  1
  3 37  1  0
  3 38  1  0
  4 39  1  0
  4 40  1  0
  5 41  1  6
  8 42  1  0
  8 43  1  0
  8 44  1  0
  9 45  1  0
  9 46  1  0
  9 47  1  0
 10 48  1  6
 11 49  1  0
 11 50  1  0
 12 51  1  0
 12 52  1  0
 14 53  1  0
 14 54  1  0
 14 55  1  0
 15 56  1  1
 16 57  1  0
 16 58  1  0
 17 59  1  0
 19 60  1  6
 20 61  1  0
 20 62  1  0
 21 63  1  0
 21 64  1  0
 22 65  1  6
 23 66  1  0
 25 67  1  0
 25 68  1  0
 25 69  1  0
 26 70  1  0
 26 71  1  0
 26 72  1  0
 28 73  1  0
 28 74  1  0
 28 75  1  0
 29 76  1  0
 29 77  1  0
 30 78  1  0
 30 79  1  0
 32 80  1  0
 32 81  1  0
 32 82  1  0
M  END
>  <meeko>  (15) 
{"is_sidechain": [false], "intermolecular_energy": 2.731, "internal_energy": -0.839}

$$$$
EPH_relaxed_0001_pdb2pqr_Repair_52_r2_0001_out
     RDKit          3D

 82 86  0  0  0  0  0  0  0  0999 V2000
   -0.0550    8.8810    0.4560 C   0  0  0  0  0  0  0  0  0  0  0  0
   -0.9800    9.8810    1.1540 C   0  0  2  0  0  0  0  0  0  0  0  0
   -2.3530    9.9840    0.4600 C   0  0  0  0  0  0  0  0  0  0  0  0
   -2.6270    8.8520   -0.5340 C   0  0  0  0  0  0  0  0  0  0  0  0
   -2.2070    9.2210   -1.9240 C   0  0  2  0  0  0  0  0  0  0  0  0
   -2.2520    8.1440   -2.8690 O   0  0  0  0  0  0  0  0  0  0  0  0
   -0.9520    8.6880   -2.5890 C   0  0  0  0  0  0  0  0  0  0  0  0
   -0.0360    7.7400   -1.8790 C   0  0  0  0  0  0  0  0  0  0  0  0
   -0.3620    9.4600   -3.7280 C   0  0  0  0  0  0  0  0  0  0  0  0
   -0.3180   11.2530    1.2040 C   0  0  1  0  0  0  0  0  0  0  0  0
    0.7640   11.3550    2.3110 C   0  0  0  0  0  0  0  0  0  0  0  0
    1.8820   12.2770    1.7610 C   0  0  0  0  0  0  0  0  0  0  0  0
    1.2620   12.9370    0.5080 C   0  0  1  0  0  0  0  0  0  0  0  0
    0.3920   14.1090    1.0600 C   0  0  0  0  0  0  0  0  0  0  0  0
    2.2680   13.4290   -0.5840 C   0  0  2  0  0  0  0  0  0  0  0  0
    3.2370   14.5330   -0.1270 C   0  0  0  0  0  0  0  0  0  0  0  0
    2.7580   15.9300   -0.3400 C   0  0  0  0  0  0  0  0  0  0  0  0
    1.7290   16.2930   -1.1290 C   0  0  0  0  0  0  0  0  0  0  0  0
    0.9920   15.2570   -1.9870 C   0  0  1  0  0  0  0  0  0  0  0  0
    0.8100   15.8100   -3.4250 C   0  0  0  0  0  0  0  0  0  0  0  0
    0.1290   17.1750   -3.4450 C   0  0  0  0  0  0  0  0  0  0  0  0
    0.9230   18.1920   -2.6290 C   0  0  2  0  0  0  0  0  0  0  0  0
    2.1730   18.4320   -3.2820 O   0  0  0  0  0  0  0  0  0  0  0  0
    1.1770   17.7390   -1.1640 C   0  0  0  0  0  0  0  0  0  0  0  0
   -0.1530   17.7710   -0.3720 C   0  0  0  0  0  0  0  0  0  0  0  0
    2.1060   18.7870   -0.4940 C   0  0  0  0  0  0  0  0  0  0  0  0
    1.5950   13.7870   -1.9710 C   0  0  1  0  0  0  0  0  0  0  0  0
    2.7110   13.6570   -3.0530 C   0  0  0  0  0  0  0  0  0  0  0  0
    0.4680   12.7630   -2.3710 C   0  0  0  0  0  0  0  0  0  0  0  0
   -0.4160   12.2230   -1.2310 C   0  0  0  0  0  0  0  0  0  0  0  0
    0.4400   11.7240   -0.0630 C   0  0  2  0  0  0  0  0  0  0  0  0
    1.3100   10.5290   -0.5830 C   0  0  0  0  0  0  0  0  0  0  0  0
    0.4877    8.2943    1.2118 H   0  0  0  0  0  0  0  0  0  0  0  0
   -0.6533    8.2052   -0.1727 H   0  0  0  0  0  0  0  0  0  0  0  0
    0.6653    9.4249   -0.1727 H   0  0  0  0  0  0  0  0  0  0  0  0
   -1.1535    9.5139    2.1763 H   0  0  0  0  0  0  0  0  0  0  0  0
   -3.1352    9.9641    1.2331 H   0  0  0  0  0  0  0  0  0  0  0  0
   -2.3535   10.9225   -0.1137 H   0  0  0  0  0  0  0  0  0  0  0  0
   -2.0692    7.9579   -0.2186 H   0  0  0  0  0  0  0  0  0  0  0  0
   -3.7098    8.6584   -0.5431 H   0  0  0  0  0  0  0  0  0  0  0  0
   -2.5970   10.2415   -1.7955 H   0  0  0  0  0  0  0  0  0  0  0  0
   -0.1534    7.8615   -0.7921 H   0  0  0  0  0  0  0  0  0  0  0  0
   -0.2867    6.7069   -2.1617 H   0  0  0  0  0  0  0  0  0  0  0  0
    1.0051    7.9551   -2.1617 H   0  0  0  0  0  0  0  0  0  0  0  0
    0.2616   10.2760   -3.3339 H   0  0  0  0  0  0  0  0  0  0  0  0
    0.2566    8.7903   -4.3435 H   0  0  0  0  0  0  0  0  0  0  0  0
   -1.1707    9.8810   -4.3435 H   0  0  0  0  0  0  0  0  0  0  0  0
   -1.2072   11.8801    1.3657 H   0  0  0  0  0  0  0  0  0  0  0  0
    0.3312   11.7883    3.2248 H   0  0  0  0  0  0  0  0  0  0  0  0
    1.1617   10.3618    2.5668 H   0  0  0  0  0  0  0  0  0  0  0  0
    2.1580   13.0389    2.5049 H   0  0  0  0  0  0  0  0  0  0  0  0
    2.8030   11.7225    1.5279 H   0  0  0  0  0  0  0  0  0  0  0  0
    0.4062   14.0898    2.1597 H   0  0  0  0  0  0  0  0  0  0  0  0
    0.7994   15.0670    0.7047 H   0  0  0  0  0  0  0  0  0  0  0  0
   -0.6429   13.9963    0.7047 H   0  0  0  0  0  0  0  0  0  0  0  0
    2.8895   12.5371   -0.7524 H   0  0  0  0  0  0  0  0  0  0  0  0
    3.4232   14.3979    0.9487 H   0  0  0  0  0  0  0  0  0  0  0  0
    4.1385   14.4226   -0.7476 H   0  0  0  0  0  0  0  0  0  0  0  0
    3.2908   16.7314    0.1928 H   0  0  0  0  0  0  0  0  0  0  0  0
    0.0090   15.1157   -1.5139 H   0  0  0  0  0  0  0  0  0  0  0  0
    1.8002   15.9030   -3.8950 H   0  0  0  0  0  0  0  0  0  0  0  0
    0.1658   15.1074   -3.9739 H   0  0  0  0  0  0  0  0  0  0  0  0
    0.0560   17.5258   -4.4850 H   0  0  0  0  0  0  0  0  0  0  0  0
   -0.8729   17.0744   -3.0022 H   0  0  0  0  0  0  0  0  0  0  0  0
    0.3213   19.1111   -2.5726 H   0  0  0  0  0  0  0  0  0  0  0  0
    2.4330   17.6100   -3.7320 H   0  0  0  0  0  0  0  0  0  0  0  0
    0.0624   17.7658    0.7067 H   0  0  0  0  0  0  0  0  0  0  0  0
   -0.7115   18.6828   -0.6300 H   0  0  0  0  0  0  0  0  0  0  0  0
   -0.7548   16.8871   -0.6300 H   0  0  0  0  0  0  0  0  0  0  0  0
    2.0285   18.6996    0.5998 H   0  0  0  0  0  0  0  0  0  0  0  0
    3.1460   18.6062   -0.8035 H   0  0  0  0  0  0  0  0  0  0  0  0
    1.8018   19.7978   -0.8035 H   0  0  0  0  0  0  0  0  0  0  0  0
    3.6879   13.5432   -2.5603 H   0  0  0  0  0  0  0  0  0  0  0  0
    2.5121   12.7759   -3.6809 H   0  0  0  0  0  0  0  0  0  0  0  0
    2.7200   14.5602   -3.6809 H   0  0  0  0  0  0  0  0  0  0  0  0
   -0.1920   13.2611   -3.0965 H   0  0  0  0  0  0  0  0  0  0  0  0
    1.0026   11.8846   -2.7615 H   0  0  0  0  0  0  0  0  0  0  0  0
   -1.0760   13.0279   -0.8753 H   0  0  0  0  0  0  0  0  0  0  0  0
   -1.0093   11.3806   -1.6161 H   0  0  0  0  0  0  0  0  0  0  0  0
    1.7161    9.9711    0.2736 H   0  0  0  0  0  0  0  0  0  0  0  0
    0.6862    9.8599   -1.1938 H   0  0  0  0  0  0  0  0  0  0  0  0
    2.1384   10.9171   -1.1938 H   0  0  0  0  0  0  0  0  0  0  0  0
  1  2  1  0
  2  3  1  0
  3  4  1  0
  4  5  1  0
  5  6  1  0
  6  7  1  0
  7  8  1  0
  7  9  1  0
  2 10  1  0
 10 11  1  0
 11 12  1  0
 12 13  1  0
 13 14  1  1
 13 15  1  0
 15 16  1  0
 16 17  1  0
 17 18  2  0
 18 19  1  0
 19 20  1  0
 20 21  1  0
 21 22  1  0
 22 23  1  0
 22 24  1  0
 24 25  1  0
 24 26  1  0
 19 27  1  0
 27 28  1  6
 27 29  1  0
 29 30  1  0
 30 31  1  0
 31 32  1  6
  7  5  1  0
 31 10  1  0
 31 13  1  0
 27 15  1  0
 24 18  1  0
  1 33  1  0
  1 34  1  0
  1 35  1  0
  2 36  1  1
  3 37  1  0
  3 38  1  0
  4 39  1  0
  4 40  1  0
  5 41  1  6
  8 42  1  0
  8 43  1  0
  8 44  1  0
  9 45  1  0
  9 46  1  0
  9 47  1  0
 10 48  1  1
 11 49  1  0
 11 50  1  0
 12 51  1  0
 12 52  1  0
 14 53  1  0
 14 54  1  0
 14 55  1  0
 15 56  1  6
 16 57  1  0
 16 58  1  0
 17 59  1  0
 19 60  1  1
 20 61  1  0
 20 62  1  0
 21 63  1  0
 21 64  1  0
 22 65  1  1
 23 66  1  0
 25 67  1  0
 25 68  1  0
 25 69  1  0
 26 70  1  0
 26 71  1  0
 26 72  1  0
 28 73  1  0
 28 74  1  0
 28 75  1  0
 29 76  1  0
 29 77  1  0
 30 78  1  0
 30 79  1  0
 32 80  1  0
 32 81  1  0
 32 82  1  0
M  END
>  <meeko>  (16) 
{"is_sidechain": [false], "intermolecular_energy": 2.731, "internal_energy": -0.839}

$$$$
EPH_relaxed_0001_pdb2pqr_Repair_52_r2_0001_out
     RDKit          3D

 82 86  0  0  0  0  0  0  0  0999 V2000
    3.1150   14.8400   -7.5510 C   0  0  0  0  0  0  0  0  0  0  0  0
    1.5920   14.8760   -7.4040 C   0  0  2  0  0  0  0  0  0  0  0  0
    0.9740   16.1200   -8.0730 C   0  0  0  0  0  0  0  0  0  0  0  0
    1.8950   16.7910   -9.0950 C   0  0  0  0  0  0  0  0  0  0  0  0
    1.5600   16.3810  -10.4970 C   0  0  2  0  0  0  0  0  0  0  0  0
    0.9760   15.0770  -10.6160 O   0  0  0  0  0  0  0  0  0  0  0  0
    2.2630   15.2530  -11.2290 C   0  0  0  0  0  0  0  0  0  0  0  0
    3.3590   14.4660  -10.5820 C   0  0  0  0  0  0  0  0  0  0  0  0
    2.2240   15.2380  -12.7260 C   0  0  0  0  0  0  0  0  0  0  0  0
    1.2110   14.8350   -5.9280 C   0  0  1  0  0  0  0  0  0  0  0  0
   -0.0430   15.6920   -5.6110 C   0  0  0  0  0  0  0  0  0  0  0  0
   -0.8190   14.9520   -4.4910 C   0  0  0  0  0  0  0  0  0  0  0  0
    0.1710   13.8820   -3.9730 C   0  0  1  0  0  0  0  0  0  0  0  0
    1.1100   14.6480   -2.9900 C   0  0  0  0  0  0  0  0  0  0  0  0
   -0.4640   12.6220   -3.3000 C   0  0  2  0  0  0  0  0  0  0  0  0
   -1.2780   12.9030   -2.0250 C   0  0  0  0  0  0  0  0  0  0  0  0
   -0.5050   12.8470   -0.7500 C   0  0  0  0  0  0  0  0  0  0  0  0
    0.7190   12.3070   -0.6000 C   0  0  0  0  0  0  0  0  0  0  0  0
    1.4100   11.5870   -1.7650 C   0  0  1  0  0  0  0  0  0  0  0  0
    1.9990   10.2410   -1.2660 C   0  0  0  0  0  0  0  0  0  0  0  0
    2.9180   10.4160   -0.0610 C   0  0  0  0  0  0  0  0  0  0  0  0
    2.1780   11.0810    1.0970 C   0  0  2  0  0  0  0  0  0  0  0  0
    1.1670   10.1880    1.5730 O   0  0  0  0  0  0  0  0  0  0  0  0
    1.5330   12.4420    0.7100 C   0  0  0  0  0  0  0  0  0  0  0  0
    2.6430   13.4990    0.4860 C   0  0  0  0  0  0  0  0  0  0  0  0
    0.7010   12.9380    1.9240 C   0  0  0  0  0  0  0  0  0  0  0  0
    0.5460   11.4220   -3.0880 C   0  0  1  0  0  0  0  0  0  0  0  0
   -0.3150   10.1250   -3.0040 C   0  0  0  0  0  0  0  0  0  0  0  0
    1.5150   11.2330   -4.3150 C   0  0  0  0  0  0  0  0  0  0  0  0
    2.0130   12.5130   -5.0110 C   0  0  0  0  0  0  0  0  0  0  0  0
    0.8470   13.4550   -5.3260 C   0  0  2  0  0  0  0  0  0  0  0  0
   -0.1040   12.7200   -6.3310 C   0  0  0  0  0  0  0  0  0  0  0  0
    3.5794   14.8290   -6.5539 H   0  0  0  0  0  0  0  0  0  0  0  0
    3.4089   13.9347   -8.1024 H   0  0  0  0  0  0  0  0  0  0  0  0
    3.4513   15.7304   -8.1024 H   0  0  0  0  0  0  0  0  0  0  0  0
    1.1887   13.9903   -7.9168 H   0  0  0  0  0  0  0  0  0  0  0  0
    0.0498   15.8154   -8.5859 H   0  0  0  0  0  0  0  0  0  0  0  0
    0.7891   16.8551   -7.2758 H   0  0  0  0  0  0  0  0  0  0  0  0
    1.7889   17.8824   -9.0079 H   0  0  0  0  0  0  0  0  0  0  0  0
    2.9278   16.4770   -8.8837 H   0  0  0  0  0  0  0  0  0  0  0  0
    1.3487   17.4236  -10.7768 H   0  0  0  0  0  0  0  0  0  0  0  0
    3.2633   14.5347   -9.4883 H   0  0  0  0  0  0  0  0  0  0  0  0
    3.2858   13.4128  -10.8910 H   0  0  0  0  0  0  0  0  0  0  0  0
    4.3335   14.8719  -10.8910 H   0  0  0  0  0  0  0  0  0  0  0  0
    1.2469   14.8622  -13.0636 H   0  0  0  0  0  0  0  0  0  0  0  0
    2.3758   16.2587  -13.1070 H   0  0  0  0  0  0  0  0  0  0  0  0
    3.0207   14.5821  -13.1070 H   0  0  0  0  0  0  0  0  0  0  0  0
    2.1481   15.2032   -5.4851 H   0  0  0  0  0  0  0  0  0  0  0  0
    0.2589   16.6918   -5.2657 H   0  0  0  0  0  0  0  0  0  0  0  0
   -0.6693   15.8218   -6.5060 H   0  0  0  0  0  0  0  0  0  0  0  0
   -1.0957   15.6478   -3.6852 H   0  0  0  0  0  0  0  0  0  0  0  0
   -1.7581   14.5102   -4.8556 H   0  0  0  0  0  0  0  0  0  0  0  0
    0.8244   14.4150   -1.9536 H   0  0  0  0  0  0  0  0  0  0  0  0
    2.1515   14.3385   -3.1617 H   0  0  0  0  0  0  0  0  0  0  0  0
    1.0161   15.7304   -3.1617 H   0  0  0  0  0  0  0  0  0  0  0  0
   -1.1947   12.2952   -4.0545 H   0  0  0  0  0  0  0  0  0  0  0  0
   -1.7134   13.9092   -2.1146 H   0  0  0  0  0  0  0  0  0  0  0  0
   -2.0292   12.1020   -1.9609 H   0  0  0  0  0  0  0  0  0  0  0  0
   -0.9752   13.2841    0.1432 H   0  0  0  0  0  0  0  0  0  0  0  0
    2.2231   12.2510   -2.0935 H   0  0  0  0  0  0  0  0  0  0  0  0
    1.1695    9.5762   -0.9833 H   0  0  0  0  0  0  0  0  0  0  0  0
    2.5983    9.8148   -2.0841 H   0  0  0  0  0  0  0  0  0  0  0  0
    3.2797    9.4288    0.2624 H   0  0  0  0  0  0  0  0  0  0  0  0
    3.7621   11.0579   -0.3533 H   0  0  0  0  0  0  0  0  0  0  0  0
    2.9186   11.2957    1.8815 H   0  0  0  0  0  0  0  0  0  0  0  0
    1.3440   10.0160    2.5130 H   0  0  0  0  0  0  0  0  0  0  0  0
    3.0143   13.8526    1.4592 H   0  0  0  0  0  0  0  0  0  0  0  0
    3.4708   13.0471   -0.0801 H   0  0  0  0  0  0  0  0  0  0  0  0
    2.2321   14.3479   -0.0801 H   0  0  0  0  0  0  0  0  0  0  0  0
    1.2009   12.6400    2.8574 H   0  0  0  0  0  0  0  0  0  0  0  0
    0.6163   14.0341    1.8872 H   0  0  0  0  0  0  0  0  0  0  0  0
   -0.3035   12.4912    1.8872 H   0  0  0  0  0  0  0  0  0  0  0  0
   -0.4866    9.8665   -1.9487 H   0  0  0  0  0  0  0  0  0  0  0  0
   -1.2812   10.2934   -3.5020 H   0  0  0  0  0  0  0  0  0  0  0  0
    0.2153    9.2999   -3.5020 H   0  0  0  0  0  0  0  0  0  0  0  0
    2.3985   10.6825   -3.9594 H   0  0  0  0  0  0  0  0  0  0  0  0
    0.9180   10.7066   -5.0743 H   0  0  0  0  0  0  0  0  0  0  0  0
    2.7239   13.0292   -4.3490 H   0  0  0  0  0  0  0  0  0  0  0  0
    2.5013   12.2313   -5.9556 H   0  0  0  0  0  0  0  0  0  0  0  0
   -0.8529   12.1412   -5.7706 H   0  0  0  0  0  0  0  0  0  0  0  0
   -0.6126   13.4620   -6.9640 H   0  0  0  0  0  0  0  0  0  0  0  0
    0.4859   12.0408   -6.9640 H   0  0  0  0  0  0  0  0  0  0  0  0
  1  2  1  0
  2  3  1  0
  3  4  1  0
  4  5  1  0
  5  6  1  0
  6  7  1  0
  7  8  1  0
  7  9  1  0
  2 10  1  0
 10 11  1  0
 11 12  1  0
 12 13  1  0
 13 14  1  1
 13 15  1  0
 15 16  1  0
 16 17  1  0
 17 18  2  0
 18 19  1  0
 19 20  1  0
 20 21  1  0
 21 22  1  0
 22 23  1  0
 22 24  1  0
 24 25  1  0
 24 26  1  0
 19 27  1  0
 27 28  1  1
 27 29  1  0
 29 30  1  0
 30 31  1  0
 31 32  1  6
  7  5  1  0
 31 10  1  0
 31 13  1  0
 27 15  1  0
 24 18  1  0
  1 33  1  0
  1 34  1  0
  1 35  1  0
  2 36  1  6
  3 37  1  0
  3 38  1  0
  4 39  1  0
  4 40  1  0
  5 41  1  6
  8 42  1  0
  8 43  1  0
  8 44  1  0
  9 45  1  0
  9 46  1  0
  9 47  1  0
 10 48  1  1
 11 49  1  0
 11 50  1  0
 12 51  1  0
 12 52  1  0
 14 53  1  0
 14 54  1  0
 14 55  1  0
 15 56  1  6
 16 57  1  0
 16 58  1  0
 17 59  1  0
 19 60  1  6
 20 61  1  0
 20 62  1  0
 21 63  1  0
 21 64  1  0
 22 65  1  1
 23 66  1  0
 25 67  1  0
 25 68  1  0
 25 69  1  0
 26 70  1  0
 26 71  1  0
 26 72  1  0
 28 73  1  0
 28 74  1  0
 28 75  1  0
 29 76  1  0
 29 77  1  0
 30 78  1  0
 30 79  1  0
 32 80  1  0
 32 81  1  0
 32 82  1  0
M  END
>  <meeko>  (17) 
{"is_sidechain": [false], "intermolecular_energy": 2.731, "internal_energy": -0.839}

$$$$
EPH_relaxed_0001_pdb2pqr_Repair_52_r2_0001_out
     RDKit          3D

 82 86  0  0  0  0  0  0  0  0999 V2000
   -5.1700    7.7590   -2.8770 C   0  0  0  0  0  0  0  0  0  0  0  0
   -4.6990    7.7140   -1.4210 C   0  0  2  0  0  0  0  0  0  0  0  0
   -5.8780    7.6130   -0.4330 C   0  0  0  0  0  0  0  0  0  0  0  0
   -7.2450    7.8490   -1.0790 C   0  0  0  0  0  0  0  0  0  0  0  0
   -8.3660    7.4630   -0.1630 C   0  0  2  0  0  0  0  0  0  0  0  0
   -8.9560    6.1870   -0.4430 O   0  0  0  0  0  0  0  0  0  0  0  0
   -9.8090    7.3300   -0.6140 C   0  0  0  0  0  0  0  0  0  0  0  0
  -10.2080    7.5830   -2.0340 C   0  0  0  0  0  0  0  0  0  0  0  0
  -10.8930    7.4330    0.4130 C   0  0  0  0  0  0  0  0  0  0  0  0
   -3.8610    8.9480   -1.1070 C   0  0  1  0  0  0  0  0  0  0  0  0
   -4.2300    9.5910    0.2560 C   0  0  0  0  0  0  0  0  0  0  0  0
   -2.9150   10.1470    0.8600 C   0  0  0  0  0  0  0  0  0  0  0  0
   -1.9020   10.1060   -0.3090 C   0  0  1  0  0  0  0  0  0  0  0  0
   -2.2050   11.3860   -1.1480 C   0  0  0  0  0  0  0  0  0  0  0  0
   -0.3920   10.0210    0.0890 C   0  0  2  0  0  0  0  0  0  0  0  0
    0.1410   11.2220    0.8890 C   0  0  0  0  0  0  0  0  0  0  0  0
    0.7080   12.3330    0.0700 C   0  0  0  0  0  0  0  0  0  0  0  0
    1.0490   12.2520   -1.2300 C   0  0  0  0  0  0  0  0  0  0  0  0
    0.9640   10.9190   -1.9840 C   0  0  1  0  0  0  0  0  0  0  0  0
    2.2650   10.7020   -2.8010 C   0  0  0  0  0  0  0  0  0  0  0  0
    2.5790   11.8750   -3.7230 C   0  0  0  0  0  0  0  0  0  0  0  0
    2.7130   13.1720   -2.9300 C   0  0  2  0  0  0  0  0  0  0  0  0
    3.8720   13.0840   -2.0940 O   0  0  0  0  0  0  0  0  0  0  0  0
    1.4650   13.4910   -2.0600 C   0  0  0  0  0  0  0  0  0  0  0  0
    0.2790   13.8830   -2.9760 C   0  0  0  0  0  0  0  0  0  0  0  0
    1.7870   14.7460   -1.2050 C   0  0  0  0  0  0  0  0  0  0  0  0
    0.5740    9.6510   -1.1090 C   0  0  1  0  0  0  0  0  0  0  0  0
    1.8550    9.0290   -0.4720 C   0  0  0  0  0  0  0  0  0  0  0  0
   -0.0360    8.5450   -2.0490 C   0  0  0  0  0  0  0  0  0  0  0  0
   -1.5530    8.6120   -2.3080 C   0  0  0  0  0  0  0  0  0  0  0  0
   -2.3270    8.7560   -0.9940 C   0  0  2  0  0  0  0  0  0  0  0  0
   -2.0590    7.4720   -0.1370 C   0  0  0  0  0  0  0  0  0  0  0  0
   -6.2647    7.8636   -2.9052 H   0  0  0  0  0  0  0  0  0  0  0  0
   -4.7065    8.6169   -3.3860 H   0  0  0  0  0  0  0  0  0  0  0  0
   -4.8773    6.8288   -3.3860 H   0  0  0  0  0  0  0  0  0  0  0  0
   -4.0868    6.8083   -1.2990 H   0  0  0  0  0  0  0  0  0  0  0  0
   -5.8732    6.6068    0.0115 H   0  0  0  0  0  0  0  0  0  0  0  0
   -5.7366    8.4046    0.3176 H   0  0  0  0  0  0  0  0  0  0  0  0
   -7.3411    8.9157   -1.3299 H   0  0  0  0  0  0  0  0  0  0  0  0
   -7.3097    7.2238   -1.9817 H   0  0  0  0  0  0  0  0  0  0  0  0
   -7.9014    8.0078    0.6721 H   0  0  0  0  0  0  0  0  0  0  0  0
  -11.1368    8.1720   -2.0545 H   0  0  0  0  0  0  0  0  0  0  0  0
   -9.4093    8.1400   -2.5456 H   0  0  0  0  0  0  0  0  0  0  0  0
  -10.3712    6.6230   -2.5456 H   0  0  0  0  0  0  0  0  0  0  0  0
  -10.4502    7.3909    1.4190 H   0  0  0  0  0  0  0  0  0  0  0  0
  -11.4278    8.3860    0.2874 H   0  0  0  0  0  0  0  0  0  0  0  0
  -11.5977    6.5978    0.2874 H   0  0  0  0  0  0  0  0  0  0  0  0
   -4.0999    9.5615   -1.9882 H   0  0  0  0  0  0  0  0  0  0  0  0
   -4.9526   10.4068    0.1065 H   0  0  0  0  0  0  0  0  0  0  0  0
   -4.6918    8.8529    0.9283 H   0  0  0  0  0  0  0  0  0  0  0  0
   -3.0564   11.1783    1.2156 H   0  0  0  0  0  0  0  0  0  0  0  0
   -2.5747    9.5635    1.7282 H   0  0  0  0  0  0  0  0  0  0  0  0
   -2.4047   12.2295   -0.4708 H   0  0  0  0  0  0  0  0  0  0  0  0
   -1.3380   11.6224   -1.7824 H   0  0  0  0  0  0  0  0  0  0  0  0
   -3.0860   11.2086   -1.7824 H   0  0  0  0  0  0  0  0  0  0  0  0
   -0.3796    9.1693    0.7850 H   0  0  0  0  0  0  0  0  0  0  0  0
   -0.6893   11.6287    1.4850 H   0  0  0  0  0  0  0  0  0  0  0  0
    0.9730   10.8372    1.4970 H   0  0  0  0  0  0  0  0  0  0  0  0
    0.8603   13.3004    0.5709 H   0  0  0  0  0  0  0  0  0  0  0  0
    0.1059   11.0099   -2.6662 H   0  0  0  0  0  0  0  0  0  0  0  0
    3.1031   10.5696   -2.1009 H   0  0  0  0  0  0  0  0  0  0  0  0
    2.1192    9.8120   -3.4308 H   0  0  0  0  0  0  0  0  0  0  0  0
    3.5240   11.6759   -4.2496 H   0  0  0  0  0  0  0  0  0  0  0  0
    1.7539   11.9869   -4.4419 H   0  0  0  0  0  0  0  0  0  0  0  0
    2.8074   13.9932   -3.6557 H   0  0  0  0  0  0  0  0  0  0  0  0
    4.6460   13.3060   -2.6400 H   0  0  0  0  0  0  0  0  0  0  0  0
   -0.5841   14.1683   -2.3565 H   0  0  0  0  0  0  0  0  0  0  0  0
    0.5713   14.7323   -3.6110 H   0  0  0  0  0  0  0  0  0  0  0  0
    0.0075   13.0268   -3.6110 H   0  0  0  0  0  0  0  0  0  0  0  0
    1.7211   14.4891   -0.1374 H   0  0  0  0  0  0  0  0  0  0  0  0
    2.8040   15.0959   -1.4358 H   0  0  0  0  0  0  0  0  0  0  0  0
    1.0641   15.5423   -1.4358 H   0  0  0  0  0  0  0  0  0  0  0  0
    1.7751    9.0678    0.6244 H   0  0  0  0  0  0  0  0  0  0  0  0
    1.9543    7.9824   -0.7956 H   0  0  0  0  0  0  0  0  0  0  0  0
    2.7389    9.5983   -0.7956 H   0  0  0  0  0  0  0  0  0  0  0  0
    0.4712    8.6190   -3.0223 H   0  0  0  0  0  0  0  0  0  0  0  0
    0.1231    7.5956   -1.5167 H   0  0  0  0  0  0  0  0  0  0  0  0
   -1.7706    9.4778   -2.9507 H   0  0  0  0  0  0  0  0  0  0  0  0
   -1.8667    7.6794   -2.7998 H   0  0  0  0  0  0  0  0  0  0  0  0
   -2.1122    7.7268    0.9318 H   0  0  0  0  0  0  0  0  0  0  0  0
   -2.8175    6.7104   -0.3705 H   0  0  0  0  0  0  0  0  0  0  0  0
   -1.0591    7.0774   -0.3705 H   0  0  0  0  0  0  0  0  0  0  0  0
  1  2  1  0
  2  3  1  0
  3  4  1  0
  4  5  1  0
  5  6  1  0
  6  7  1  0
  7  8  1  0
  7  9  1  0
  2 10  1  0
 10 11  1  0
 11 12  1  0
 12 13  1  0
 13 14  1  6
 13 15  1  0
 15 16  1  0
 16 17  1  0
 17 18  2  0
 18 19  1  0
 19 20  1  0
 20 21  1  0
 21 22  1  0
 22 23  1  0
 22 24  1  0
 24 25  1  0
 24 26  1  0
 19 27  1  0
 27 28  1  1
 27 29  1  0
 29 30  1  0
 30 31  1  0
 31 32  1  1
  7  5  1  0
 31 10  1  0
 31 13  1  0
 27 15  1  0
 24 18  1  0
  1 33  1  0
  1 34  1  0
  1 35  1  0
  2 36  1  6
  3 37  1  0
  3 38  1  0
  4 39  1  0
  4 40  1  0
  5 41  1  1
  8 42  1  0
  8 43  1  0
  8 44  1  0
  9 45  1  0
  9 46  1  0
  9 47  1  0
 10 48  1  6
 11 49  1  0
 11 50  1  0
 12 51  1  0
 12 52  1  0
 14 53  1  0
 14 54  1  0
 14 55  1  0
 15 56  1  1
 16 57  1  0
 16 58  1  0
 17 59  1  0
 19 60  1  6
 20 61  1  0
 20 62  1  0
 21 63  1  0
 21 64  1  0
 22 65  1  6
 23 66  1  0
 25 67  1  0
 25 68  1  0
 25 69  1  0
 26 70  1  0
 26 71  1  0
 26 72  1  0
 28 73  1  0
 28 74  1  0
 28 75  1  0
 29 76  1  0
 29 77  1  0
 30 78  1  0
 30 79  1  0
 32 80  1  0
 32 81  1  0
 32 82  1  0
M  END
>  <meeko>  (18) 
{"is_sidechain": [false], "intermolecular_energy": 2.731, "internal_energy": -0.839}

$$$$
EPH_relaxed_0001_pdb2pqr_Repair_52_r2_0001_out
     RDKit          3D

 82 86  0  0  0  0  0  0  0  0999 V2000
    3.1490   11.2090   -4.1620 C   0  0  0  0  0  0  0  0  0  0  0  0
    2.0440   11.8030   -5.0410 C   0  0  2  0  0  0  0  0  0  0  0  0
    2.6120   12.5170   -6.2840 C   0  0  0  0  0  0  0  0  0  0  0  0
    1.9180   13.8440   -6.6020 C   0  0  0  0  0  0  0  0  0  0  0  0
    2.3850   14.4150   -7.9070 C   0  0  2  0  0  0  0  0  0  0  0  0
    2.5430   15.8400   -7.9150 O   0  0  0  0  0  0  0  0  0  0  0  0
    1.5280   15.3090   -8.7840 C   0  0  0  0  0  0  0  0  0  0  0  0
    0.1340   15.6830   -8.3900 C   0  0  0  0  0  0  0  0  0  0  0  0
    1.8630   15.4180  -10.2390 C   0  0  0  0  0  0  0  0  0  0  0  0
    1.1970   12.7730   -4.2250 C   0  0  1  0  0  0  0  0  0  0  0  0
   -0.1930   12.1880   -3.8570 C   0  0  0  0  0  0  0  0  0  0  0  0
   -0.5490   12.7330   -2.4500 C   0  0  0  0  0  0  0  0  0  0  0  0
    0.4760   13.8630   -2.1990 C   0  0  1  0  0  0  0  0  0  0  0  0
   -0.0950   15.1000   -2.9610 C   0  0  0  0  0  0  0  0  0  0  0  0
    0.7820   14.1980   -0.7020 C   0  0  2  0  0  0  0  0  0  0  0  0
   -0.4190   14.7130    0.1100 C   0  0  0  0  0  0  0  0  0  0  0  0
   -0.6020   16.1950    0.1080 C   0  0  0  0  0  0  0  0  0  0  0  0
    0.3190   17.0960   -0.2800 C   0  0  0  0  0  0  0  0  0  0  0  0
    1.7330   16.6550   -0.6810 C   0  0  1  0  0  0  0  0  0  0  0  0
    2.7770   17.5730    0.0090 C   0  0  0  0  0  0  0  0  0  0  0  0
    2.5270   19.0530   -0.2660 C   0  0  0  0  0  0  0  0  0  0  0  0
    1.1330   19.4660    0.1990 C   0  0  2  0  0  0  0  0  0  0  0  0
    1.0780   19.3770    1.6260 O   0  0  0  0  0  0  0  0  0  0  0  0
   -0.0010   18.6050   -0.4220 C   0  0  0  0  0  0  0  0  0  0  0  0
   -0.1370   18.9320   -1.9300 C   0  0  0  0  0  0  0  0  0  0  0  0
   -1.3410   19.0320    0.2360 C   0  0  0  0  0  0  0  0  0  0  0  0
    2.0570   15.1110   -0.4900 C   0  0  1  0  0  0  0  0  0  0  0  0
    2.5570   14.8480    0.9630 C   0  0  0  0  0  0  0  0  0  0  0  0
    3.2440   14.7140   -1.4460 C   0  0  0  0  0  0  0  0  0  0  0  0
    2.8680   14.2770   -2.8750 C   0  0  0  0  0  0  0  0  0  0  0  0
    1.7550   13.2240   -2.8520 C   0  0  2  0  0  0  0  0  0  0  0  0
    2.3080   11.9600   -2.1110 C   0  0  0  0  0  0  0  0  0  0  0  0
    2.8893   11.3486   -3.1022 H   0  0  0  0  0  0  0  0  0  0  0  0
    3.2503   10.1348   -4.3763 H   0  0  0  0  0  0  0  0  0  0  0  0
    4.1008   11.7170   -4.3763 H   0  0  0  0  0  0  0  0  0  0  0  0
    1.4189   10.9702   -5.3955 H   0  0  0  0  0  0  0  0  0  0  0  0
    3.6801   12.7161   -6.1124 H   0  0  0  0  0  0  0  0  0  0  0  0
    2.4420   11.8513   -7.1430 H   0  0  0  0  0  0  0  0  0  0  0  0
    0.8324   13.6748   -6.6550 H   0  0  0  0  0  0  0  0  0  0  0  0
    2.1668   14.5607   -5.8054 H   0  0  0  0  0  0  0  0  0  0  0  0
    2.9645   13.5056   -8.1241 H   0  0  0  0  0  0  0  0  0  0  0  0
    0.0562   15.7039   -7.2930 H   0  0  0  0  0  0  0  0  0  0  0  0
   -0.1068   16.6775   -8.7937 H   0  0  0  0  0  0  0  0  0  0  0  0
   -0.5723   14.9426   -8.7937 H   0  0  0  0  0  0  0  0  0  0  0  0
    2.9036   15.7566  -10.3513 H   0  0  0  0  0  0  0  0  0  0  0  0
    1.7437   14.4347  -10.7174 H   0  0  0  0  0  0  0  0  0  0  0  0
    1.1879   16.1428  -10.7174 H   0  0  0  0  0  0  0  0  0  0  0  0
    1.1730   13.6257   -4.9195 H   0  0  0  0  0  0  0  0  0  0  0  0
   -0.9464   12.5115   -4.5903 H   0  0  0  0  0  0  0  0  0  0  0  0
   -0.1725   11.0882   -3.8611 H   0  0  0  0  0  0  0  0  0  0  0  0
   -1.5751   13.1291   -2.4351 H   0  0  0  0  0  0  0  0  0  0  0  0
   -0.5065   11.9517   -1.6768 H   0  0  0  0  0  0  0  0  0  0  0  0
   -0.4413   15.8502   -2.2348 H   0  0  0  0  0  0  0  0  0  0  0  0
    0.6924   15.5372   -3.5926 H   0  0  0  0  0  0  0  0  0  0  0  0
   -0.9385   14.7843   -3.5926 H   0  0  0  0  0  0  0  0  0  0  0  0
    1.0236   13.2097   -0.2837 H   0  0  0  0  0  0  0  0  0  0  0  0
   -1.3302   14.2575   -0.3049 H   0  0  0  0  0  0  0  0  0  0  0  0
   -0.2226   14.4321    1.1552 H   0  0  0  0  0  0  0  0  0  0  0  0
   -1.5718   16.5830    0.4529 H   0  0  0  0  0  0  0  0  0  0  0  0
    1.7924   16.7775   -1.7725 H   0  0  0  0  0  0  0  0  0  0  0  0
    2.7324   17.4037    1.0950 H   0  0  0  0  0  0  0  0  0  0  0  0
    3.7663   17.3198   -0.3998 H   0  0  0  0  0  0  0  0  0  0  0  0
    3.2777   19.6509    0.2715 H   0  0  0  0  0  0  0  0  0  0  0  0
    2.6015   19.2264   -1.3497 H   0  0  0  0  0  0  0  0  0  0  0  0
    0.9645   20.4982   -0.1418 H   0  0  0  0  0  0  0  0  0  0  0  0
    1.7010   20.0310    1.9860 H   0  0  0  0  0  0  0  0  0  0  0  0
   -0.5569   19.9416   -2.0498 H   0  0  0  0  0  0  0  0  0  0  0  0
    0.8539   18.8882   -2.4055 H   0  0  0  0  0  0  0  0  0  0  0  0
   -0.8046   18.1984   -2.4055 H   0  0  0  0  0  0  0  0  0  0  0  0
   -1.2387   18.9994    1.3307 H   0  0  0  0  0  0  0  0  0  0  0  0
   -1.5941   20.0553   -0.0783 H   0  0  0  0  0  0  0  0  0  0  0  0
   -2.1395   18.3438   -0.0783 H   0  0  0  0  0  0  0  0  0  0  0  0
    1.8191   15.2361    1.6806 H   0  0  0  0  0  0  0  0  0  0  0  0
    2.6842   13.7663    1.1168 H   0  0  0  0  0  0  0  0  0  0  0  0
    3.5204   15.3560    1.1168 H   0  0  0  0  0  0  0  0  0  0  0  0
    3.9104   15.5852   -1.5288 H   0  0  0  0  0  0  0  0  0  0  0  0
    3.7013   13.8265   -0.9843 H   0  0  0  0  0  0  0  0  0  0  0  0
    2.5212   15.1547   -3.4401 H   0  0  0  0  0  0  0  0  0  0  0  0
    3.7563   13.8378   -3.3524 H   0  0  0  0  0  0  0  0  0  0  0  0
    2.2408   12.1136   -1.0239 H   0  0  0  0  0  0  0  0  0  0  0  0
    1.7130   11.0793   -2.3943 H   0  0  0  0  0  0  0  0  0  0  0  0
    3.3587   11.7993   -2.3943 H   0  0  0  0  0  0  0  0  0  0  0  0
  1  2  1  0
  2  3  1  0
  3  4  1  0
  4  5  1  0
  5  6  1  0
  6  7  1  0
  7  8  1  0
  7  9  1  0
  2 10  1  0
 10 11  1  0
 11 12  1  0
 12 13  1  0
 13 14  1  6
 13 15  1  0
 15 16  1  0
 16 17  1  0
 17 18  2  0
 18 19  1  0
 19 20  1  0
 20 21  1  0
 21 22  1  0
 22 23  1  0
 22 24  1  0
 24 25  1  0
 24 26  1  0
 19 27  1  0
 27 28  1  1
 27 29  1  0
 29 30  1  0
 30 31  1  0
 31 32  1  1
  7  5  1  0
 31 10  1  0
 31 13  1  0
 27 15  1  0
 24 18  1  0
  1 33  1  0
  1 34  1  0
  1 35  1  0
  2 36  1  6
  3 37  1  0
  3 38  1  0
  4 39  1  0
  4 40  1  0
  5 41  1  6
  8 42  1  0
  8 43  1  0
  8 44  1  0
  9 45  1  0
  9 46  1  0
  9 47  1  0
 10 48  1  6
 11 49  1  0
 11 50  1  0
 12 51  1  0
 12 52  1  0
 14 53  1  0
 14 54  1  0
 14 55  1  0
 15 56  1  1
 16 57  1  0
 16 58  1  0
 17 59  1  0
 19 60  1  6
 20 61  1  0
 20 62  1  0
 21 63  1  0
 21 64  1  0
 22 65  1  1
 23 66  1  0
 25 67  1  0
 25 68  1  0
 25 69  1  0
 26 70  1  0
 26 71  1  0
 26 72  1  0
 28 73  1  0
 28 74  1  0
 28 75  1  0
 29 76  1  0
 29 77  1  0
 30 78  1  0
 30 79  1  0
 32 80  1  0
 32 81  1  0
 32 82  1  0
M  END
>  <meeko>  (19) 
{"is_sidechain": [false], "intermolecular_energy": 2.731, "internal_energy": -0.839}

$$$$
EPH_relaxed_0001_pdb2pqr_Repair_52_r2_0001_out
     RDKit          3D

 82 86  0  0  0  0  0  0  0  0999 V2000
   -0.0990   10.4150   -3.6810 C   0  0  0  0  0  0  0  0  0  0  0  0
    1.0110   10.2380   -2.6400 C   0  0  2  0  0  0  0  0  0  0  0  0
    0.8160    8.9640   -1.7940 C   0  0  0  0  0  0  0  0  0  0  0  0
    0.1620    9.2230   -0.4340 C   0  0  0  0  0  0  0  0  0  0  0  0
   -1.2550    8.7350   -0.3990 C   0  0  2  0  0  0  0  0  0  0  0  0
   -1.9380    8.7900   -1.6580 O   0  0  0  0  0  0  0  0  0  0  0  0
   -2.4560    9.6360   -0.6190 C   0  0  0  0  0  0  0  0  0  0  0  0
   -2.2950   11.0990   -0.8890 C   0  0  0  0  0  0  0  0  0  0  0  0
   -3.7860    9.1970   -0.0900 C   0  0  0  0  0  0  0  0  0  0  0  0
    1.0720   11.4620   -1.7340 C   0  0  1  0  0  0  0  0  0  0  0  0
    2.1310   11.3180   -0.6080 C   0  0  0  0  0  0  0  0  0  0  0  0
    2.7270   12.7300   -0.3710 C   0  0  0  0  0  0  0  0  0  0  0  0
    1.7720   13.6870   -1.1220 C   0  0  1  0  0  0  0  0  0  0  0  0
    0.5680   13.8950   -0.1510 C   0  0  0  0  0  0  0  0  0  0  0  0
    2.3830   15.0500   -1.5850 C   0  0  2  0  0  0  0  0  0  0  0  0
    2.8730   15.9640   -0.4490 C   0  0  0  0  0  0  0  0  0  0  0  0
    1.8570   16.9210    0.0830 C   0  0  0  0  0  0  0  0  0  0  0  0
    0.6960   17.2420   -0.5160 C   0  0  0  0  0  0  0  0  0  0  0  0
    0.3490   16.6940   -1.9070 C   0  0  1  0  0  0  0  0  0  0  0  0
   -0.1820   17.8450   -2.8000 C   0  0  0  0  0  0  0  0  0  0  0  0
   -1.3490   18.5920   -2.1590 C   0  0  0  0  0  0  0  0  0  0  0  0
   -0.9480   19.1710   -0.8050 C   0  0  2  0  0  0  0  0  0  0  0  0
    0.0300   20.1950   -1.0130 O   0  0  0  0  0  0  0  0  0  0  0  0
   -0.3880   18.1040    0.1770 C   0  0  0  0  0  0  0  0  0  0  0  0
   -1.5330   17.1690    0.6370 C   0  0  0  0  0  0  0  0  0  0  0  0
    0.1100   18.8410    1.4490 C   0  0  0  0  0  0  0  0  0  0  0  0
    1.4870   15.8430   -2.6200 C   0  0  1  0  0  0  0  0  0  0  0  0
    2.4460   16.7900   -3.4040 C   0  0  0  0  0  0  0  0  0  0  0  0
    0.8260   14.8950   -3.6890 C   0  0  0  0  0  0  0  0  0  0  0  0
    0.3510   13.5160   -3.1960 C   0  0  0  0  0  0  0  0  0  0  0  0
    1.4480   12.8140   -2.3890 C   0  0  2  0  0  0  0  0  0  0  0  0
    2.6640   12.5710   -3.3460 C   0  0  0  0  0  0  0  0  0  0  0  0
   -1.0606   10.5683   -3.1692 H   0  0  0  0  0  0  0  0  0  0  0  0
    0.1247   11.2888   -4.3106 H   0  0  0  0  0  0  0  0  0  0  0  0
   -0.1581    9.5149   -4.3106 H   0  0  0  0  0  0  0  0  0  0  0  0
    1.9613   10.1299   -3.1834 H   0  0  0  0  0  0  0  0  0  0  0  0
    0.1797    8.2664   -2.3582 H   0  0  0  0  0  0  0  0  0  0  0  0
    1.8169    8.5527   -1.5965 H   0  0  0  0  0  0  0  0  0  0  0  0
    0.7383    8.7009    0.3440 H   0  0  0  0  0  0  0  0  0  0  0  0
    0.1555   10.3087   -0.2575 H   0  0  0  0  0  0  0  0  0  0  0  0
   -1.0110    8.0109    0.3923 H   0  0  0  0  0  0  0  0  0  0  0  0
   -2.2351   11.6435    0.0649 H   0  0  0  0  0  0  0  0  0  0  0  0
   -1.3730   11.2662   -1.4652 H   0  0  0  0  0  0  0  0  0  0  0  0
   -3.1585   11.4627   -1.4652 H   0  0  0  0  0  0  0  0  0  0  0  0
   -3.7637    9.2043    1.0098 H   0  0  0  0  0  0  0  0  0  0  0  0
   -4.5672    9.8849   -0.4455 H   0  0  0  0  0  0  0  0  0  0  0  0
   -4.0042    8.1792   -0.4455 H   0  0  0  0  0  0  0  0  0  0  0  0
    0.0278   11.4890   -1.3893 H   0  0  0  0  0  0  0  0  0  0  0  0
    1.6568   10.9476    0.3128 H   0  0  0  0  0  0  0  0  0  0  0  0
    2.9152   10.6010   -0.8927 H   0  0  0  0  0  0  0  0  0  0  0  0
    2.7491   12.9671    0.7029 H   0  0  0  0  0  0  0  0  0  0  0  0
    3.7643   12.8105   -0.7280 H   0  0  0  0  0  0  0  0  0  0  0  0
    0.9210   13.8340    0.8890 H   0  0  0  0  0  0  0  0  0  0  0  0
    0.1201   14.8838   -0.3288 H   0  0  0  0  0  0  0  0  0  0  0  0
   -0.1857   13.1138   -0.3288 H   0  0  0  0  0  0  0  0  0  0  0  0
    3.2879   14.7328   -2.1241 H   0  0  0  0  0  0  0  0  0  0  0  0
    3.2058   15.3248    0.3820 H   0  0  0  0  0  0  0  0  0  0  0  0
    3.6759   16.5806   -0.8793 H   0  0  0  0  0  0  0  0  0  0  0  0
    2.0768   17.4043    1.0464 H   0  0  0  0  0  0  0  0  0  0  0  0
   -0.4439   15.9478   -1.7508 H   0  0  0  0  0  0  0  0  0  0  0  0
    0.6363   18.5576   -2.9806 H   0  0  0  0  0  0  0  0  0  0  0  0
   -0.5452   17.3997   -3.7380 H   0  0  0  0  0  0  0  0  0  0  0  0
   -1.6601   19.4118   -2.8232 H   0  0  0  0  0  0  0  0  0  0  0  0
   -2.1776   17.8847   -2.0070 H   0  0  0  0  0  0  0  0  0  0  0  0
   -1.8569   19.5787   -0.3385 H   0  0  0  0  0  0  0  0  0  0  0  0
   -0.2500   20.9770   -0.5090 H   0  0  0  0  0  0  0  0  0  0  0  0
   -1.5655   17.1425    1.7362 H   0  0  0  0  0  0  0  0  0  0  0  0
   -2.4916   17.5458    0.2508 H   0  0  0  0  0  0  0  0  0  0  0  0
   -1.3554   16.1544    0.2508 H   0  0  0  0  0  0  0  0  0  0  0  0
   -0.2482   18.3109    2.3438 H   0  0  0  0  0  0  0  0  0  0  0  0
    1.2097   18.8644    1.4523 H   0  0  0  0  0  0  0  0  0  0  0  0
   -0.2786   19.8701    1.4523 H   0  0  0  0  0  0  0  0  0  0  0  0
    3.0426   17.3791   -2.6919 H   0  0  0  0  0  0  0  0  0  0  0  0
    3.1171   16.1904   -4.0366 H   0  0  0  0  0  0  0  0  0  0  0  0
    1.8549   17.4686   -4.0366 H   0  0  0  0  0  0  0  0  0  0  0  0
   -0.0478   15.4192   -4.1033 H   0  0  0  0  0  0  0  0  0  0  0  0
    1.6235   14.6813   -4.4159 H   0  0  0  0  0  0  0  0  0  0  0  0
   -0.5360   13.6476   -2.5589 H   0  0  0  0  0  0  0  0  0  0  0  0
    0.1080   12.8954   -4.0711 H   0  0  0  0  0  0  0  0  0  0  0  0
    3.5700   12.3900   -2.7490 H   0  0  0  0  0  0  0  0  0  0  0  0
    2.4620   11.6955   -3.9805 H   0  0  0  0  0  0  0  0  0  0  0  0
    2.8140   13.4569   -3.9805 H   0  0  0  0  0  0  0  0  0  0  0  0
  1  2  1  0
  2  3  1  0
  3  4  1  0
  4  5  1  0
  5  6  1  0
  6  7  1  0
  7  8  1  0
  7  9  1  0
  2 10  1  0
 10 11  1  0
 11 12  1  0
 12 13  1  0
 13 14  1  1
 13 15  1  0
 15 16  1  0
 16 17  1  0
 17 18  2  0
 18 19  1  0
 19 20  1  0
 20 21  1  0
 21 22  1  0
 22 23  1  0
 22 24  1  0
 24 25  1  0
 24 26  1  0
 19 27  1  0
 27 28  1  6
 27 29  1  0
 29 30  1  0
 30 31  1  0
 31 32  1  6
  7  5  1  0
 31 10  1  0
 31 13  1  0
 27 15  1  0
 24 18  1  0
  1 33  1  0
  1 34  1  0
  1 35  1  0
  2 36  1  6
  3 37  1  0
  3 38  1  0
  4 39  1  0
  4 40  1  0
  5 41  1  1
  8 42  1  0
  8 43  1  0
  8 44  1  0
  9 45  1  0
  9 46  1  0
  9 47  1  0
 10 48  1  1
 11 49  1  0
 11 50  1  0
 12 51  1  0
 12 52  1  0
 14 53  1  0
 14 54  1  0
 14 55  1  0
 15 56  1  6
 16 57  1  0
 16 58  1  0
 17 59  1  0
 19 60  1  1
 20 61  1  0
 20 62  1  0
 21 63  1  0
 21 64  1  0
 22 65  1  1
 23 66  1  0
 25 67  1  0
 25 68  1  0
 25 69  1  0
 26 70  1  0
 26 71  1  0
 26 72  1  0
 28 73  1  0
 28 74  1  0
 28 75  1  0
 29 76  1  0
 29 77  1  0
 30 78  1  0
 30 79  1  0
 32 80  1  0
 32 81  1  0
 32 82  1  0
M  END
>  <meeko>  (20) 
{"is_sidechain": [false], "intermolecular_energy": 2.731, "internal_energy": -0.839}

$$$$
