EPH_relaxed_0001_pdb2pqr_Repair_25_r2_0001_out
     RDKit          3D

 82 86  0  0  0  0  0  0  0  0999 V2000
   -1.4670    8.5320   -1.7630 C   0  0  0  0  0  0  0  0  0  0  0  0
   -1.8550    9.1110   -0.3990 C   0  0  2  0  0  0  0  0  0  0  0  0
   -3.3480    9.4880   -0.3320 C   0  0  0  0  0  0  0  0  0  0  0  0
   -4.2880    8.2800   -0.3110 C   0  0  0  0  0  0  0  0  0  0  0  0
   -4.9200    8.0460   -1.6500 C   0  0  2  0  0  0  0  0  0  0  0  0
   -6.3410    8.2270   -1.6810 O   0  0  0  0  0  0  0  0  0  0  0  0
   -5.8670    6.8960   -1.9390 C   0  0  0  0  0  0  0  0  0  0  0  0
   -6.2340    5.9030   -0.8800 C   0  0  0  0  0  0  0  0  0  0  0  0
   -6.0460    6.4560   -3.3580 C   0  0  0  0  0  0  0  0  0  0  0  0
   -0.9950   10.3310   -0.0890 C   0  0  1  0  0  0  0  0  0  0  0  0
    0.1140   10.0300    0.9540 C   0  0  0  0  0  0  0  0  0  0  0  0
    1.3450   10.8850    0.5580 C   0  0  0  0  0  0  0  0  0  0  0  0
    0.8030   11.8880   -0.4880 C   0  0  1  0  0  0  0  0  0  0  0  0
    0.1300   13.0180    0.3520 C   0  0  0  0  0  0  0  0  0  0  0  0
    1.8470   12.4630   -1.4990 C   0  0  2  0  0  0  0  0  0  0  0  0
    2.9800   13.2910   -0.8680 C   0  0  0  0  0  0  0  0  0  0  0  0
    2.7100   14.7540   -0.7460 C   0  0  0  0  0  0  0  0  0  0  0  0
    1.7300   15.4230   -1.3820 C   0  0  0  0  0  0  0  0  0  0  0  0
    0.8280   14.7180   -2.4020 C   0  0  1  0  0  0  0  0  0  0  0  0
    0.6990   15.5970   -3.6740 C   0  0  0  0  0  0  0  0  0  0  0  0
    0.2290   17.0150   -3.3610 C   0  0  0  0  0  0  0  0  0  0  0  0
    1.1830   17.7030   -2.3880 C   0  0  2  0  0  0  0  0  0  0  0  0
    2.4410   17.9040   -3.0400 O   0  0  0  0  0  0  0  0  0  0  0  0
    1.3990   16.9040   -1.0720 C   0  0  0  0  0  0  0  0  0  0  0  0
    0.1050   16.9450   -0.2210 C   0  0  0  0  0  0  0  0  0  0  0  0
    2.4880   17.6360   -0.2420 C   0  0  0  0  0  0  0  0  0  0  0  0
    1.2060   13.2110   -2.7380 C   0  0  1  0  0  0  0  0  0  0  0  0
    2.2660   13.1700   -3.8810 C   0  0  0  0  0  0  0  0  0  0  0  0
   -0.0700   12.4720   -3.2890 C   0  0  0  0  0  0  0  0  0  0  0  0
   -1.0000   11.8210   -2.2470 C   0  0  0  0  0  0  0  0  0  0  0  0
   -0.2030   10.9600   -1.2620 C   0  0  2  0  0  0  0  0  0  0  0  0
    0.4680    9.8000   -2.0750 C   0  0  0  0  0  0  0  0  0  0  0  0
   -0.8600    7.6262   -1.6176 H   0  0  0  0  0  0  0  0  0  0  0  0
   -2.3773    8.2770   -2.3255 H   0  0  0  0  0  0  0  0  0  0  0  0
   -0.8851    9.2770   -2.3255 H   0  0  0  0  0  0  0  0  0  0  0  0
   -1.6779    8.3299    0.3550 H   0  0  0  0  0  0  0  0  0  0  0  0
   -3.5170   10.0754    0.5826 H   0  0  0  0  0  0  0  0  0  0  0  0
   -3.5768   10.0572   -1.2450 H   0  0  0  0  0  0  0  0  0  0  0  0
   -3.7134    7.3861   -0.0269 H   0  0  0  0  0  0  0  0  0  0  0  0
   -5.0888    8.4812    0.4157 H   0  0  0  0  0  0  0  0  0  0  0  0
   -4.0170    8.4055   -2.1651 H   0  0  0  0  0  0  0  0  0  0  0  0
   -6.0696    6.3478    0.1125 H   0  0  0  0  0  0  0  0  0  0  0  0
   -7.2934    5.6272   -0.9873 H   0  0  0  0  0  0  0  0  0  0  0  0
   -5.6086    5.0045   -0.9873 H   0  0  0  0  0  0  0  0  0  0  0  0
   -6.4605    5.4372   -3.3765 H   0  0  0  0  0  0  0  0  0  0  0  0
   -6.7365    7.1421   -3.8703 H   0  0  0  0  0  0  0  0  0  0  0  0
   -5.0726    6.4652   -3.8703 H   0  0  0  0  0  0  0  0  0  0  0  0
   -1.7768   11.0257    0.2519 H   0  0  0  0  0  0  0  0  0  0  0  0
   -0.2296   10.3049    1.9621 H   0  0  0  0  0  0  0  0  0  0  0  0
    0.3646    8.9590    0.9659 H   0  0  0  0  0  0  0  0  0  0  0  0
    1.7469   11.4161    1.4335 H   0  0  0  0  0  0  0  0  0  0  0  0
    2.1682   10.2726    0.1614 H   0  0  0  0  0  0  0  0  0  0  0  0
    0.2575   12.8039    1.4234 H   0  0  0  0  0  0  0  0  0  0  0  0
    0.6007   13.9829    0.1123 H   0  0  0  0  0  0  0  0  0  0  0  0
   -0.9426   13.0637    0.1123 H   0  0  0  0  0  0  0  0  0  0  0  0
    2.3243   11.5514   -1.8879 H   0  0  0  0  0  0  0  0  0  0  0  0
    3.1688   12.8951    0.1408 H   0  0  0  0  0  0  0  0  0  0  0  0
    3.8401   13.1963   -1.5471 H   0  0  0  0  0  0  0  0  0  0  0  0
    3.3666   15.3340   -0.0808 H   0  0  0  0  0  0  0  0  0  0  0  0
   -0.1544   14.6145   -1.9181 H   0  0  0  0  0  0  0  0  0  0  0  0
    1.6814   15.6517   -4.1658 H   0  0  0  0  0  0  0  0  0  0  0  0
   -0.0550   15.1318   -4.3259 H   0  0  0  0  0  0  0  0  0  0  0  0
    0.1871   17.5948   -4.2948 H   0  0  0  0  0  0  0  0  0  0  0  0
   -0.7670   16.9607   -2.8973 H   0  0  0  0  0  0  0  0  0  0  0  0
    0.7259   18.6616   -2.1013 H   0  0  0  0  0  0  0  0  0  0  0  0
    2.3120   17.7310   -3.9880 H   0  0  0  0  0  0  0  0  0  0  0  0
    0.3681   16.9367    0.8470 H   0  0  0  0  0  0  0  0  0  0  0  0
   -0.4575   17.8614   -0.4529 H   0  0  0  0  0  0  0  0  0  0  0  0
   -0.5144   16.0660   -0.4529 H   0  0  0  0  0  0  0  0  0  0  0  0
    2.2851   17.4996    0.8305 H   0  0  0  0  0  0  0  0  0  0  0  0
    3.4763   17.2181   -0.4842 H   0  0  0  0  0  0  0  0  0  0  0  0
    2.4742   18.7089   -0.4842 H   0  0  0  0  0  0  0  0  0  0  0  0
    3.2748   13.1310   -3.4443 H   0  0  0  0  0  0  0  0  0  0  0  0
    2.1007   12.2776   -4.5025 H   0  0  0  0  0  0  0  0  0  0  0  0
    2.1702   14.0725   -4.5025 H   0  0  0  0  0  0  0  0  0  0  0  0
   -0.6637   13.2076   -3.8514 H   0  0  0  0  0  0  0  0  0  0  0  0
    0.3183   11.6366   -3.8901 H   0  0  0  0  0  0  0  0  0  0  0  0
   -1.5257   12.6110   -1.6906 H   0  0  0  0  0  0  0  0  0  0  0  0
   -1.7194   11.1765   -2.7734 H   0  0  0  0  0  0  0  0  0  0  0  0
    0.8943    9.0630   -1.3785 H   0  0  0  0  0  0  0  0  0  0  0  0
   -0.2872    9.3117   -2.7085 H   0  0  0  0  0  0  0  0  0  0  0  0
    1.2677   10.2112   -2.7085 H   0  0  0  0  0  0  0  0  0  0  0  0
  1  2  1  0
  2  3  1  0
  3  4  1  0
  4  5  1  0
  5  6  1  0
  6  7  1  0
  7  8  1  0
  7  9  1  0
  2 10  1  0
 10 11  1  0
 11 12  1  0
 12 13  1  0
 13 14  1  1
 13 15  1  0
 15 16  1  0
 16 17  1  0
 17 18  2  0
 18 19  1  0
 19 20  1  0
 20 21  1  0
 21 22  1  0
 22 23  1  0
 22 24  1  0
 24 25  1  0
 24 26  1  0
 19 27  1  0
 27 28  1  6
 27 29  1  0
 29 30  1  0
 30 31  1  0
 31 32  1  6
  7  5  1  0
 31 10  1  0
 31 13  1  0
 27 15  1  0
 24 18  1  0
  1 33  1  0
  1 34  1  0
  1 35  1  0
  2 36  1  1
  3 37  1  0
  3 38  1  0
  4 39  1  0
  4 40  1  0
  5 41  1  6
  8 42  1  0
  8 43  1  0
  8 44  1  0
  9 45  1  0
  9 46  1  0
  9 47  1  0
 10 48  1  1
 11 49  1  0
 11 50  1  0
 12 51  1  0
 12 52  1  0
 14 53  1  0
 14 54  1  0
 14 55  1  0
 15 56  1  6
 16 57  1  0
 16 58  1  0
 17 59  1  0
 19 60  1  1
 20 61  1  0
 20 62  1  0
 21 63  1  0
 21 64  1  0
 22 65  1  1
 23 66  1  0
 25 67  1  0
 25 68  1  0
 25 69  1  0
 26 70  1  0
 26 71  1  0
 26 72  1  0
 28 73  1  0
 28 74  1  0
 28 75  1  0
 29 76  1  0
 29 77  1  0
 30 78  1  0
 30 79  1  0
 32 80  1  0
 32 81  1  0
 32 82  1  0
M  END
>  <meeko>  (1) 
{"is_sidechain": [false], "intermolecular_energy": 2.731, "internal_energy": -0.839}

$$$$
EPH_relaxed_0001_pdb2pqr_Repair_25_r2_0001_out
     RDKit          3D

 82 86  0  0  0  0  0  0  0  0999 V2000
    4.1870   17.6570   -0.6390 C   0  0  0  0  0  0  0  0  0  0  0  0
    2.8280   18.2050   -0.1930 C   0  0  2  0  0  0  0  0  0  0  0  0
    2.9000   18.8790    1.1910 C   0  0  0  0  0  0  0  0  0  0  0  0
    4.2480   18.6990    1.8950 C   0  0  0  0  0  0  0  0  0  0  0  0
    4.2300   19.2680    3.2810 C   0  0  2  0  0  0  0  0  0  0  0  0
    5.2910   20.1910    3.5640 O   0  0  0  0  0  0  0  0  0  0  0  0
    5.2940   18.9700    4.3220 C   0  0  0  0  0  0  0  0  0  0  0  0
    6.4500   18.0690    4.0190 C   0  0  0  0  0  0  0  0  0  0  0  0
    4.9530   19.1570    5.7670 C   0  0  0  0  0  0  0  0  0  0  0  0
    1.7970   17.0830   -0.1730 C   0  0  1  0  0  0  0  0  0  0  0  0
    0.3600   17.5870   -0.4700 C   0  0  0  0  0  0  0  0  0  0  0  0
   -0.3530   16.4650   -1.2680 C   0  0  0  0  0  0  0  0  0  0  0  0
    0.5710   15.2330   -1.1170 C   0  0  1  0  0  0  0  0  0  0  0  0
    0.2190   14.6360    0.2810 C   0  0  0  0  0  0  0  0  0  0  0  0
    0.4750   14.1560   -2.2460 C   0  0  2  0  0  0  0  0  0  0  0  0
   -0.8970   13.4720   -2.3800 C   0  0  0  0  0  0  0  0  0  0  0  0
   -1.0740   12.2320   -1.5680 C   0  0  0  0  0  0  0  0  0  0  0  0
   -0.0830   11.5300   -0.9870 C   0  0  0  0  0  0  0  0  0  0  0  0
    1.3860   11.9160   -1.2010 C   0  0  1  0  0  0  0  0  0  0  0  0
    2.2130   10.6440   -1.5260 C   0  0  0  0  0  0  0  0  0  0  0  0
    2.0440    9.5510   -0.4750 C   0  0  0  0  0  0  0  0  0  0  0  0
    0.5760    9.1540   -0.3330 C   0  0  2  0  0  0  0  0  0  0  0  0
    0.1500    8.5230   -1.5440 O   0  0  0  0  0  0  0  0  0  0  0  0
   -0.3560   10.3560   -0.0140 C   0  0  0  0  0  0  0  0  0  0  0  0
   -0.0920   10.8500    1.4300 C   0  0  0  0  0  0  0  0  0  0  0  0
   -1.8210    9.8430   -0.0360 C   0  0  0  0  0  0  0  0  0  0  0  0
    1.6500   13.0960   -2.2320 C   0  0  1  0  0  0  0  0  0  0  0  0
    1.7520   12.5250   -3.6790 C   0  0  0  0  0  0  0  0  0  0  0  0
    3.0450   13.7530   -1.9140 C   0  0  0  0  0  0  0  0  0  0  0  0
    3.0560   14.8930   -0.8780 C   0  0  0  0  0  0  0  0  0  0  0  0
    1.9770   15.9330   -1.1960 C   0  0  2  0  0  0  0  0  0  0  0  0
    2.3170   16.5670   -2.5870 C   0  0  0  0  0  0  0  0  0  0  0  0
    4.7924   17.4129    0.2464 H   0  0  0  0  0  0  0  0  0  0  0  0
    4.0364   16.7493   -1.2418 H   0  0  0  0  0  0  0  0  0  0  0  0
    4.7082   18.4153   -1.2418 H   0  0  0  0  0  0  0  0  0  0  0  0
    2.5265   18.9742   -0.9192 H   0  0  0  0  0  0  0  0  0  0  0  0
    2.7166   19.9560    1.0626 H   0  0  0  0  0  0  0  0  0  0  0  0
    2.1405   18.3959    1.8233 H   0  0  0  0  0  0  0  0  0  0  0  0
    4.4790   17.6251    1.9535 H   0  0  0  0  0  0  0  0  0  0  0  0
    5.0125   19.2357    1.3140 H   0  0  0  0  0  0  0  0  0  0  0  0
    3.1316   19.2170    3.3128 H   0  0  0  0  0  0  0  0  0  0  0  0
    6.8988   17.7192    4.9604 H   0  0  0  0  0  0  0  0  0  0  0  0
    6.0983   17.2044    3.4370 H   0  0  0  0  0  0  0  0  0  0  0  0
    7.2025   18.6212    3.4370 H   0  0  0  0  0  0  0  0  0  0  0  0
    5.7475   18.7213    6.3906 H   0  0  0  0  0  0  0  0  0  0  0  0
    4.8623   20.2311    5.9863 H   0  0  0  0  0  0  0  0  0  0  0  0
    3.9985   18.6561    5.9863 H   0  0  0  0  0  0  0  0  0  0  0  0
    1.9547   16.7062    0.8484 H   0  0  0  0  0  0  0  0  0  0  0  0
   -0.1753   17.7809    0.4712 H   0  0  0  0  0  0  0  0  0  0  0  0
    0.3818   18.5257   -1.0430 H   0  0  0  0  0  0  0  0  0  0  0  0
   -1.3473   16.2591   -0.8451 H   0  0  0  0  0  0  0  0  0  0  0  0
   -0.5147   16.7393   -2.3209 H   0  0  0  0  0  0  0  0  0  0  0  0
    0.6082   15.2961    1.0701 H   0  0  0  0  0  0  0  0  0  0  0  0
   -0.8734   14.5517    0.3792 H   0  0  0  0  0  0  0  0  0  0  0  0
    0.6740   13.6393    0.3792 H   0  0  0  0  0  0  0  0  0  0  0  0
    0.5991   14.7584   -3.1580 H   0  0  0  0  0  0  0  0  0  0  0  0
   -1.6679   14.1933   -2.0711 H   0  0  0  0  0  0  0  0  0  0  0  0
   -0.9803   13.1611   -3.4319 H   0  0  0  0  0  0  0  0  0  0  0  0
   -2.1006   11.8606   -1.4330 H   0  0  0  0  0  0  0  0  0  0  0  0
    1.7280   12.3510   -0.2503 H   0  0  0  0  0  0  0  0  0  0  0  0
    1.8861   10.2503   -2.4997 H   0  0  0  0  0  0  0  0  0  0  0  0
    3.2747   10.9312   -1.5408 H   0  0  0  0  0  0  0  0  0  0  0  0
    2.6282    8.6688   -0.7756 H   0  0  0  0  0  0  0  0  0  0  0  0
    2.3993    9.9356    0.4924 H   0  0  0  0  0  0  0  0  0  0  0  0
    0.5020    8.4650    0.5213 H   0  0  0  0  0  0  0  0  0  0  0  0
    0.2250    9.1770   -2.2590 H   0  0  0  0  0  0  0  0  0  0  0  0
   -0.4852   10.1142    2.1469 H   0  0  0  0  0  0  0  0  0  0  0  0
    0.9905   10.9700    1.5843 H   0  0  0  0  0  0  0  0  0  0  0  0
   -0.5938   11.8167    1.5843 H   0  0  0  0  0  0  0  0  0  0  0  0
   -2.1809    9.7170    0.9958 H   0  0  0  0  0  0  0  0  0  0  0  0
   -2.4569   10.5719   -0.5597 H   0  0  0  0  0  0  0  0  0  0  0  0
   -1.8633    8.8766   -0.5597 H   0  0  0  0  0  0  0  0  0  0  0  0
    1.9453   11.4431   -3.6335 H   0  0  0  0  0  0  0  0  0  0  0  0
    0.8072   12.7066   -4.2123 H   0  0  0  0  0  0  0  0  0  0  0  0
    2.5755   13.0225   -4.2123 H   0  0  0  0  0  0  0  0  0  0  0  0
    3.7097   12.9592   -1.5424 H   0  0  0  0  0  0  0  0  0  0  0  0
    3.3656   14.2186   -2.8576 H   0  0  0  0  0  0  0  0  0  0  0  0
    2.8678   14.4731    0.1211 H   0  0  0  0  0  0  0  0  0  0  0  0
    4.0387   15.3862   -0.9094 H   0  0  0  0  0  0  0  0  0  0  0  0
    2.8320   17.5273   -2.4363 H   0  0  0  0  0  0  0  0  0  0  0  0
    2.9704   15.8851   -3.1509 H   0  0  0  0  0  0  0  0  0  0  0  0
    1.3874   16.7340   -3.1509 H   0  0  0  0  0  0  0  0  0  0  0  0
  1  2  1  0
  2  3  1  0
  3  4  1  0
  4  5  1  0
  5  6  1  0
  6  7  1  0
  7  8  1  0
  7  9  1  0
  2 10  1  0
 10 11  1  0
 11 12  1  0
 12 13  1  0
 13 14  1  1
 13 15  1  0
 15 16  1  0
 16 17  1  0
 17 18  2  0
 18 19  1  0
 19 20  1  0
 20 21  1  0
 21 22  1  0
 22 23  1  0
 22 24  1  0
 24 25  1  0
 24 26  1  0
 19 27  1  0
 27 28  1  6
 27 29  1  0
 29 30  1  0
 30 31  1  0
 31 32  1  6
  7  5  1  0
 31 10  1  0
 31 13  1  0
 27 15  1  0
 24 18  1  0
  1 33  1  0
  1 34  1  0
  1 35  1  0
  2 36  1  6
  3 37  1  0
  3 38  1  0
  4 39  1  0
  4 40  1  0
  5 41  1  1
  8 42  1  0
  8 43  1  0
  8 44  1  0
  9 45  1  0
  9 46  1  0
  9 47  1  0
 10 48  1  1
 11 49  1  0
 11 50  1  0
 12 51  1  0
 12 52  1  0
 14 53  1  0
 14 54  1  0
 14 55  1  0
 15 56  1  6
 16 57  1  0
 16 58  1  0
 17 59  1  0
 19 60  1  1
 20 61  1  0
 20 62  1  0
 21 63  1  0
 21 64  1  0
 22 65  1  1
 23 66  1  0
 25 67  1  0
 25 68  1  0
 25 69  1  0
 26 70  1  0
 26 71  1  0
 26 72  1  0
 28 73  1  0
 28 74  1  0
 28 75  1  0
 29 76  1  0
 29 77  1  0
 30 78  1  0
 30 79  1  0
 32 80  1  0
 32 81  1  0
 32 82  1  0
M  END
>  <meeko>  (2) 
{"is_sidechain": [false], "intermolecular_energy": 2.731, "internal_energy": -0.839}

$$$$
EPH_relaxed_0001_pdb2pqr_Repair_25_r2_0001_out
     RDKit          3D

 82 86  0  0  0  0  0  0  0  0999 V2000
    2.3690   18.0470   -2.6780 C   0  0  0  0  0  0  0  0  0  0  0  0
    1.0760   17.6460   -1.9620 C   0  0  2  0  0  0  0  0  0  0  0  0
    1.2200   17.7020   -0.4280 C   0  0  0  0  0  0  0  0  0  0  0  0
    0.8850   19.0690    0.1730 C   0  0  0  0  0  0  0  0  0  0  0  0
   -0.5710   19.1850    0.5100 C   0  0  2  0  0  0  0  0  0  0  0  0
   -1.4200   18.2560   -0.1780 O   0  0  0  0  0  0  0  0  0  0  0  0
   -1.6250   19.6450   -0.4800 C   0  0  0  0  0  0  0  0  0  0  0  0
   -1.2650   20.0220   -1.8830 C   0  0  0  0  0  0  0  0  0  0  0  0
   -2.9130   20.1940    0.0490 C   0  0  0  0  0  0  0  0  0  0  0  0
    0.6540   16.2470   -2.3950 C   0  0  1  0  0  0  0  0  0  0  0  0
    0.8270   16.0170   -3.9200 C   0  0  0  0  0  0  0  0  0  0  0  0
    1.2430   14.5350   -4.1050 C   0  0  0  0  0  0  0  0  0  0  0  0
    0.9750   13.8810   -2.7290 C   0  0  1  0  0  0  0  0  0  0  0  0
   -0.5570   13.5810   -2.7190 C   0  0  0  0  0  0  0  0  0  0  0  0
    1.8150   12.6050   -2.3950 C   0  0  2  0  0  0  0  0  0  0  0  0
    1.5840   11.4080   -3.3330 C   0  0  0  0  0  0  0  0  0  0  0  0
    0.5060   10.4650   -2.9110 C   0  0  0  0  0  0  0  0  0  0  0  0
   -0.0530   10.4140   -1.6870 C   0  0  0  0  0  0  0  0  0  0  0  0
    0.4650   11.3000   -0.5470 C   0  0  1  0  0  0  0  0  0  0  0  0
    0.6320   10.4460    0.7370 C   0  0  0  0  0  0  0  0  0  0  0  0
   -0.6440    9.6980    1.1130 C   0  0  0  0  0  0  0  0  0  0  0  0
   -1.0940    8.7840   -0.0240 C   0  0  2  0  0  0  0  0  0  0  0  0
   -0.1290    7.7400   -0.1860 O   0  0  0  0  0  0  0  0  0  0  0  0
   -1.2860    9.5320   -1.3730 C   0  0  0  0  0  0  0  0  0  0  0  0
   -2.5300   10.4500   -1.2860 C   0  0  0  0  0  0  0  0  0  0  0  0
   -1.6020    8.4740   -2.4640 C   0  0  0  0  0  0  0  0  0  0  0  0
    1.7550   12.1690   -0.8750 C   0  0  1  0  0  0  0  0  0  0  0  0
    3.0420   11.3330   -0.6000 C   0  0  0  0  0  0  0  0  0  0  0  0
    1.8070   13.4010    0.1040 C   0  0  0  0  0  0  0  0  0  0  0  0
    1.0570   14.6720   -0.3380 C   0  0  0  0  0  0  0  0  0  0  0  0
    1.4190   15.0500   -1.7770 C   0  0  2  0  0  0  0  0  0  0  0  0
    2.9510   15.3790   -1.8140 C   0  0  0  0  0  0  0  0  0  0  0  0
    3.1417   18.2866   -1.9327 H   0  0  0  0  0  0  0  0  0  0  0  0
    2.7131   17.2134   -3.3078 H   0  0  0  0  0  0  0  0  0  0  0  0
    2.1810   18.9290   -3.3078 H   0  0  0  0  0  0  0  0  0  0  0  0
    0.3011   18.3727   -2.2473 H   0  0  0  0  0  0  0  0  0  0  0  0
    0.5434   16.9544    0.0116 H   0  0  0  0  0  0  0  0  0  0  0  0
    2.2764   17.5001   -0.1972 H   0  0  0  0  0  0  0  0  0  0  0  0
    1.4755   19.2094    1.0904 H   0  0  0  0  0  0  0  0  0  0  0  0
    1.1266   19.8401   -0.5733 H   0  0  0  0  0  0  0  0  0  0  0  0
   -0.3328   19.5039    1.5355 H   0  0  0  0  0  0  0  0  0  0  0  0
   -0.5054   20.8174   -1.8655 H   0  0  0  0  0  0  0  0  0  0  0  0
   -0.8629   19.1425   -2.4073 H   0  0  0  0  0  0  0  0  0  0  0  0
   -2.1621   20.3831   -2.4073 H   0  0  0  0  0  0  0  0  0  0  0  0
   -2.8913   20.1848    1.1487 H   0  0  0  0  0  0  0  0  0  0  0  0
   -3.0450   21.2266   -0.3065 H   0  0  0  0  0  0  0  0  0  0  0  0
   -3.7493   19.5741   -0.3065 H   0  0  0  0  0  0  0  0  0  0  0  0
   -0.3876   16.2505   -2.0412 H   0  0  0  0  0  0  0  0  0  0  0  0
   -0.1211   16.2122   -4.4424 H   0  0  0  0  0  0  0  0  0  0  0  0
    1.5857   16.6951   -4.3379 H   0  0  0  0  0  0  0  0  0  0  0  0
    0.6363   14.0560   -4.8876 H   0  0  0  0  0  0  0  0  0  0  0  0
    2.2921   14.4318   -4.4192 H   0  0  0  0  0  0  0  0  0  0  0  0
   -0.9103   13.5118   -1.6796 H   0  0  0  0  0  0  0  0  0  0  0  0
   -1.0927   14.3913   -3.2352 H   0  0  0  0  0  0  0  0  0  0  0  0
   -0.7475   12.6285   -3.2352 H   0  0  0  0  0  0  0  0  0  0  0  0
    2.8438   12.9422   -2.5895 H   0  0  0  0  0  0  0  0  0  0  0  0
    1.3222   11.8006   -4.3267 H   0  0  0  0  0  0  0  0  0  0  0  0
    2.5181   10.8272   -3.3204 H   0  0  0  0  0  0  0  0  0  0  0  0
    0.1375    9.7520   -3.6632 H   0  0  0  0  0  0  0  0  0  0  0  0
   -0.3044   12.0694   -0.3859 H   0  0  0  0  0  0  0  0  0  0  0  0
    1.4346    9.7124    0.5706 H   0  0  0  0  0  0  0  0  0  0  0  0
    0.8736   11.1302    1.5637 H   0  0  0  0  0  0  0  0  0  0  0  0
   -0.4543    9.0904    2.0101 H   0  0  0  0  0  0  0  0  0  0  0  0
   -1.4383   10.4335    1.3084 H   0  0  0  0  0  0  0  0  0  0  0  0
   -2.0780    8.3764    0.2510 H   0  0  0  0  0  0  0  0  0  0  0  0
    0.6630    8.1320   -0.5910 H   0  0  0  0  0  0  0  0  0  0  0  0
   -2.7777   10.6328   -0.2299 H   0  0  0  0  0  0  0  0  0  0  0  0
   -2.3147   11.4073   -1.7831 H   0  0  0  0  0  0  0  0  0  0  0  0
   -3.3813    9.9620   -1.7831 H   0  0  0  0  0  0  0  0  0  0  0  0
   -1.8852    7.5257   -1.9840 H   0  0  0  0  0  0  0  0  0  0  0  0
   -2.4329    8.8303   -3.0906 H   0  0  0  0  0  0  0  0  0  0  0  0
   -0.7118    8.3163   -3.0906 H   0  0  0  0  0  0  0  0  0  0  0  0
    3.1913   11.2360    0.4855 H   0  0  0  0  0  0  0  0  0  0  0  0
    2.9321   10.3334   -1.0457 H   0  0  0  0  0  0  0  0  0  0  0  0
    3.9106   11.8398   -1.0457 H   0  0  0  0  0  0  0  0  0  0  0  0
    1.3799   13.0801    1.0656 H   0  0  0  0  0  0  0  0  0  0  0  0
    2.8671   13.6919    0.1443 H   0  0  0  0  0  0  0  0  0  0  0  0
   -0.0261   14.4907   -0.2753 H   0  0  0  0  0  0  0  0  0  0  0  0
    1.3482   15.4995    0.3257 H   0  0  0  0  0  0  0  0  0  0  0  0
    3.3333   15.4611   -0.7859 H   0  0  0  0  0  0  0  0  0  0  0  0
    3.4860   14.5753   -2.3411 H   0  0  0  0  0  0  0  0  0  0  0  0
    3.1088   16.3315   -2.3411 H   0  0  0  0  0  0  0  0  0  0  0  0
  1  2  1  0
  2  3  1  0
  3  4  1  0
  4  5  1  0
  5  6  1  0
  6  7  1  0
  7  8  1  0
  7  9  1  0
  2 10  1  0
 10 11  1  0
 11 12  1  0
 12 13  1  0
 13 14  1  6
 13 15  1  0
 15 16  1  0
 16 17  1  0
 17 18  2  0
 18 19  1  0
 19 20  1  0
 20 21  1  0
 21 22  1  0
 22 23  1  0
 22 24  1  0
 24 25  1  0
 24 26  1  0
 19 27  1  0
 27 28  1  1
 27 29  1  0
 29 30  1  0
 30 31  1  0
 31 32  1  1
  7  5  1  0
 31 10  1  0
 31 13  1  0
 27 15  1  0
 24 18  1  0
  1 33  1  0
  1 34  1  0
  1 35  1  0
  2 36  1  6
  3 37  1  0
  3 38  1  0
  4 39  1  0
  4 40  1  0
  5 41  1  1
  8 42  1  0
  8 43  1  0
  8 44  1  0
  9 45  1  0
  9 46  1  0
  9 47  1  0
 10 48  1  6
 11 49  1  0
 11 50  1  0
 12 51  1  0
 12 52  1  0
 14 53  1  0
 14 54  1  0
 14 55  1  0
 15 56  1  6
 16 57  1  0
 16 58  1  0
 17 59  1  0
 19 60  1  1
 20 61  1  0
 20 62  1  0
 21 63  1  0
 21 64  1  0
 22 65  1  1
 23 66  1  0
 25 67  1  0
 25 68  1  0
 25 69  1  0
 26 70  1  0
 26 71  1  0
 26 72  1  0
 28 73  1  0
 28 74  1  0
 28 75  1  0
 29 76  1  0
 29 77  1  0
 30 78  1  0
 30 79  1  0
 32 80  1  0
 32 81  1  0
 32 82  1  0
M  END
>  <meeko>  (3) 
{"is_sidechain": [false], "intermolecular_energy": 2.731, "internal_energy": -0.839}

$$$$
EPH_relaxed_0001_pdb2pqr_Repair_25_r2_0001_out
     RDKit          3D

 82 86  0  0  0  0  0  0  0  0999 V2000
    0.3990   18.4070   -0.0490 C   0  0  0  0  0  0  0  0  0  0  0  0
    1.4870   17.3510   -0.2630 C   0  0  2  0  0  0  0  0  0  0  0  0
    2.7000   17.9140   -1.0310 C   0  0  0  0  0  0  0  0  0  0  0  0
    3.9330   18.1420   -0.1520 C   0  0  0  0  0  0  0  0  0  0  0  0
    3.5570   18.6160    1.2190 C   0  0  2  0  0  0  0  0  0  0  0  0
    3.7940   20.0090    1.4580 O   0  0  0  0  0  0  0  0  0  0  0  0
    4.5670   19.0910    2.2470 C   0  0  0  0  0  0  0  0  0  0  0  0
    6.0330   19.1140    1.9470 C   0  0  0  0  0  0  0  0  0  0  0  0
    4.1820   19.0660    3.6930 C   0  0  0  0  0  0  0  0  0  0  0  0
    0.9100   16.1530   -1.0080 C   0  0  1  0  0  0  0  0  0  0  0  0
    0.7740   16.4070   -2.5330 C   0  0  0  0  0  0  0  0  0  0  0  0
    1.0600   15.0560   -3.2380 C   0  0  0  0  0  0  0  0  0  0  0  0
    1.0220   14.0080   -2.1020 C   0  0  1  0  0  0  0  0  0  0  0  0
   -0.4940   13.7130   -1.8770 C   0  0  0  0  0  0  0  0  0  0  0  0
    1.8350   12.6940   -2.3470 C   0  0  2  0  0  0  0  0  0  0  0  0
    1.3600   11.8450   -3.5380 C   0  0  0  0  0  0  0  0  0  0  0  0
    0.3290   10.8140   -3.2160 C   0  0  0  0  0  0  0  0  0  0  0  0
    0.0130   10.3840   -1.9800 C   0  0  0  0  0  0  0  0  0  0  0  0
    0.7890   10.8770   -0.7520 C   0  0  1  0  0  0  0  0  0  0  0  0
    1.1490    9.6680    0.1520 C   0  0  0  0  0  0  0  0  0  0  0  0
   -0.0720    8.8350    0.5290 C   0  0  0  0  0  0  0  0  0  0  0  0
   -0.7840    8.3160   -0.7170 C   0  0  2  0  0  0  0  0  0  0  0  0
    0.0700    7.3770   -1.3780 O   0  0  0  0  0  0  0  0  0  0  0  0
   -1.1870    9.4440   -1.7080 C   0  0  0  0  0  0  0  0  0  0  0  0
   -2.3360   10.2850   -1.0990 C   0  0  0  0  0  0  0  0  0  0  0  0
   -1.7670    8.7750   -2.9830 C   0  0  0  0  0  0  0  0  0  0  0  0
    2.0410   11.8090   -1.0510 C   0  0  1  0  0  0  0  0  0  0  0  0
    3.3070   10.9350   -1.3070 C   0  0  0  0  0  0  0  0  0  0  0  0
    2.3520   12.6780    0.2240 C   0  0  0  0  0  0  0  0  0  0  0  0
    1.6060   14.0200    0.3490 C   0  0  0  0  0  0  0  0  0  0  0  0
    1.7080   14.8270   -0.9490 C   0  0  2  0  0  0  0  0  0  0  0  0
    3.2210   15.1570   -1.1890 C   0  0  0  0  0  0  0  0  0  0  0  0
    0.2425   18.5589    1.0292 H   0  0  0  0  0  0  0  0  0  0  0  0
    0.7120   19.3548   -0.5112 H   0  0  0  0  0  0  0  0  0  0  0  0
   -0.5391   18.0659   -0.5112 H   0  0  0  0  0  0  0  0  0  0  0  0
    1.8415   17.0361    0.7296 H   0  0  0  0  0  0  0  0  0  0  0  0
    2.9675   17.2034   -1.8269 H   0  0  0  0  0  0  0  0  0  0  0  0
    2.4020   18.8957   -1.4278 H   0  0  0  0  0  0  0  0  0  0  0  0
    4.4868   17.1958   -0.0625 H   0  0  0  0  0  0  0  0  0  0  0  0
    4.5523   18.9183   -0.6251 H   0  0  0  0  0  0  0  0  0  0  0  0
    2.7385   17.8831    1.2724 H   0  0  0  0  0  0  0  0  0  0  0  0
    6.6000   19.1229    2.8895 H   0  0  0  0  0  0  0  0  0  0  0  0
    6.3023   18.2200    1.3655 H   0  0  0  0  0  0  0  0  0  0  0  0
    6.2742   20.0160    1.3655 H   0  0  0  0  0  0  0  0  0  0  0  0
    5.0876   19.1248    4.3146 H   0  0  0  0  0  0  0  0  0  0  0  0
    3.5295   19.9237    3.9136 H   0  0  0  0  0  0  0  0  0  0  0  0
    3.6459   18.1312    3.9136 H   0  0  0  0  0  0  0  0  0  0  0  0
   -0.0427   16.0425   -0.4694 H   0  0  0  0  0  0  0  0  0  0  0  0
   -0.2436   16.7505   -2.7707 H   0  0  0  0  0  0  0  0  0  0  0  0
    1.4763   17.1843   -2.8684 H   0  0  0  0  0  0  0  0  0  0  0  0
    0.2883   14.8401   -3.9915 H   0  0  0  0  0  0  0  0  0  0  0  0
    2.0222   15.0589   -3.7710 H   0  0  0  0  0  0  0  0  0  0  0  0
   -0.7034   13.6723   -0.7979 H   0  0  0  0  0  0  0  0  0  0  0  0
   -1.0951   14.5110   -2.3373 H   0  0  0  0  0  0  0  0  0  0  0  0
   -0.7520   12.7478   -2.3373 H   0  0  0  0  0  0  0  0  0  0  0  0
    2.8254   13.0787   -2.6319 H   0  0  0  0  0  0  0  0  0  0  0  0
    0.9369   12.5246   -4.2925 H   0  0  0  0  0  0  0  0  0  0  0  0
    2.2438   11.2920   -3.8889 H   0  0  0  0  0  0  0  0  0  0  0  0
   -0.2184   10.3683   -4.0597 H   0  0  0  0  0  0  0  0  0  0  0  0
    0.1100   11.5560   -0.2154 H   0  0  0  0  0  0  0  0  0  0  0  0
    1.8617    9.0255   -0.3858 H   0  0  0  0  0  0  0  0  0  0  0  0
    1.5828   10.0642    1.0820 H   0  0  0  0  0  0  0  0  0  0  0  0
    0.2506    7.9802    1.1416 H   0  0  0  0  0  0  0  0  0  0  0  0
   -0.7702    9.4708    1.0931 H   0  0  0  0  0  0  0  0  0  0  0  0
   -1.7193    7.8396   -0.3880 H   0  0  0  0  0  0  0  0  0  0  0  0
    0.6570    6.9900   -0.7070 H   0  0  0  0  0  0  0  0  0  0  0  0
   -2.2789   10.2432   -0.0013 H   0  0  0  0  0  0  0  0  0  0  0  0
   -2.2421   11.3293   -1.4316 H   0  0  0  0  0  0  0  0  0  0  0  0
   -3.3031    9.8798   -1.4316 H   0  0  0  0  0  0  0  0  0  0  0  0
   -2.4620    7.9733   -2.6926 H   0  0  0  0  0  0  0  0  0  0  0  0
   -2.3036    9.5271   -3.5799 H   0  0  0  0  0  0  0  0  0  0  0  0
   -0.9464    8.3504   -3.5799 H   0  0  0  0  0  0  0  0  0  0  0  0
    3.7447   10.6328   -0.3442 H   0  0  0  0  0  0  0  0  0  0  0  0
    3.0243   10.0388   -1.8787 H   0  0  0  0  0  0  0  0  0  0  0  0
    4.0449   11.5170   -1.8787 H   0  0  0  0  0  0  0  0  0  0  0  0
    2.1002   12.0738    1.1080 H   0  0  0  0  0  0  0  0  0  0  0  0
    3.4151   12.9468    0.1367 H   0  0  0  0  0  0  0  0  0  0  0  0
    0.5461   13.8235    0.5682 H   0  0  0  0  0  0  0  0  0  0  0  0
    2.0656   14.6024    1.1611 H   0  0  0  0  0  0  0  0  0  0  0  0
    3.7302   15.2681   -0.2203 H   0  0  0  0  0  0  0  0  0  0  0  0
    3.6888   14.3398   -1.7576 H   0  0  0  0  0  0  0  0  0  0  0  0
    3.3060   16.0948   -1.7576 H   0  0  0  0  0  0  0  0  0  0  0  0
  1  2  1  0
  2  3  1  0
  3  4  1  0
  4  5  1  0
  5  6  1  0
  6  7  1  0
  7  8  1  0
  7  9  1  0
  2 10  1  0
 10 11  1  0
 11 12  1  0
 12 13  1  0
 13 14  1  1
 13 15  1  0
 15 16  1  0
 16 17  1  0
 17 18  2  0
 18 19  1  0
 19 20  1  0
 20 21  1  0
 21 22  1  0
 22 23  1  0
 22 24  1  0
 24 25  1  0
 24 26  1  0
 19 27  1  0
 27 28  1  6
 27 29  1  0
 29 30  1  0
 30 31  1  0
 31 32  1  6
  7  5  1  0
 31 10  1  0
 31 13  1  0
 27 15  1  0
 24 18  1  0
  1 33  1  0
  1 34  1  0
  1 35  1  0
  2 36  1  1
  3 37  1  0
  3 38  1  0
  4 39  1  0
  4 40  1  0
  5 41  1  1
  8 42  1  0
  8 43  1  0
  8 44  1  0
  9 45  1  0
  9 46  1  0
  9 47  1  0
 10 48  1  1
 11 49  1  0
 11 50  1  0
 12 51  1  0
 12 52  1  0
 14 53  1  0
 14 54  1  0
 14 55  1  0
 15 56  1  6
 16 57  1  0
 16 58  1  0
 17 59  1  0
 19 60  1  1
 20 61  1  0
 20 62  1  0
 21 63  1  0
 21 64  1  0
 22 65  1  1
 23 66  1  0
 25 67  1  0
 25 68  1  0
 25 69  1  0
 26 70  1  0
 26 71  1  0
 26 72  1  0
 28 73  1  0
 28 74  1  0
 28 75  1  0
 29 76  1  0
 29 77  1  0
 30 78  1  0
 30 79  1  0
 32 80  1  0
 32 81  1  0
 32 82  1  0
M  END
>  <meeko>  (4) 
{"is_sidechain": [false], "intermolecular_energy": 2.731, "internal_energy": -0.839}

$$$$
EPH_relaxed_0001_pdb2pqr_Repair_25_r2_0001_out
     RDKit          3D

 82 86  0  0  0  0  0  0  0  0999 V2000
    0.4240    8.8740   -2.5090 C   0  0  0  0  0  0  0  0  0  0  0  0
    1.1850   10.0330   -3.1590 C   0  0  2  0  0  0  0  0  0  0  0  0
    2.6770   10.0370   -2.7730 C   0  0  0  0  0  0  0  0  0  0  0  0
    3.5920   10.6150   -3.8570 C   0  0  0  0  0  0  0  0  0  0  0  0
    4.9840   10.8350   -3.3480 C   0  0  2  0  0  0  0  0  0  0  0  0
    5.5950   12.0570   -3.7840 O   0  0  0  0  0  0  0  0  0  0  0  0
    6.2100   10.8420   -4.2420 C   0  0  0  0  0  0  0  0  0  0  0  0
    6.1000   10.6240   -5.7190 C   0  0  0  0  0  0  0  0  0  0  0  0
    7.5470   10.5740   -3.6250 C   0  0  0  0  0  0  0  0  0  0  0  0
    0.5430   11.3600   -2.7690 C   0  0  1  0  0  0  0  0  0  0  0  0
   -0.8310   11.1760   -2.0700 C   0  0  0  0  0  0  0  0  0  0  0  0
   -0.9460   12.3000   -1.0080 C   0  0  0  0  0  0  0  0  0  0  0  0
    0.1990   13.2800   -1.3510 C   0  0  1  0  0  0  0  0  0  0  0  0
   -0.3580   14.1540   -2.5190 C   0  0  0  0  0  0  0  0  0  0  0  0
    0.7320   14.1610   -0.1740 C   0  0  2  0  0  0  0  0  0  0  0  0
   -0.3000   15.1250    0.4370 C   0  0  0  0  0  0  0  0  0  0  0  0
   -0.3500   16.4820   -0.1830 C   0  0  0  0  0  0  0  0  0  0  0  0
    0.5870   17.0060   -0.9950 C   0  0  0  0  0  0  0  0  0  0  0  0
    1.8900   16.2500   -1.2860 C   0  0  1  0  0  0  0  0  0  0  0  0
    3.0930   17.2190   -1.1460 C   0  0  0  0  0  0  0  0  0  0  0  0
    2.9410   18.4700   -2.0060 C   0  0  0  0  0  0  0  0  0  0  0  0
    1.6640   19.2250   -1.6470 C   0  0  2  0  0  0  0  0  0  0  0  0
    1.7930   19.7450   -0.3200 O   0  0  0  0  0  0  0  0  0  0  0  0
    0.3850   18.3480   -1.7420 C   0  0  0  0  0  0  0  0  0  0  0  0
    0.0780   18.0350   -3.2280 C   0  0  0  0  0  0  0  0  0  0  0  0
   -0.8110   19.1880   -1.2200 C   0  0  0  0  0  0  0  0  0  0  0  0
    2.0990   14.8960   -0.4810 C   0  0  1  0  0  0  0  0  0  0  0  0
    2.7640   15.1930    0.8980 C   0  0  0  0  0  0  0  0  0  0  0  0
    3.1070   13.9790   -1.2710 C   0  0  0  0  0  0  0  0  0  0  0  0
    2.5060   13.0450   -2.3380 C   0  0  0  0  0  0  0  0  0  0  0  0
    1.3180   12.2600   -1.7740 C   0  0  2  0  0  0  0  0  0  0  0  0
    1.8520   11.3540   -0.6120 C   0  0  0  0  0  0  0  0  0  0  0  0
    0.4834    8.9645   -1.4143 H   0  0  0  0  0  0  0  0  0  0  0  0
   -0.6298    8.9054   -2.8229 H   0  0  0  0  0  0  0  0  0  0  0  0
    0.8717    7.9195   -2.8229 H   0  0  0  0  0  0  0  0  0  0  0  0
    1.1263    9.8972   -4.2490 H   0  0  0  0  0  0  0  0  0  0  0  0
    2.7978   10.6382   -1.8598 H   0  0  0  0  0  0  0  0  0  0  0  0
    2.9741    8.9880   -2.6273 H   0  0  0  0  0  0  0  0  0  0  0  0
    3.6287    9.9137   -4.7037 H   0  0  0  0  0  0  0  0  0  0  0  0
    3.1830   11.5876   -4.1681 H   0  0  0  0  0  0  0  0  0  0  0  0
    4.7534   10.2983   -2.4159 H   0  0  0  0  0  0  0  0  0  0  0  0
    5.6121    9.6571   -5.9116 H   0  0  0  0  0  0  0  0  0  0  0  0
    5.5017   11.4320   -6.1653 H   0  0  0  0  0  0  0  0  0  0  0  0
    7.1054   10.6228   -6.1653 H   0  0  0  0  0  0  0  0  0  0  0  0
    7.4553   10.5924   -2.5290 H   0  0  0  0  0  0  0  0  0  0  0  0
    7.9076    9.5857   -3.9463 H   0  0  0  0  0  0  0  0  0  0  0  0
    8.2607   11.3470   -3.9463 H   0  0  0  0  0  0  0  0  0  0  0  0
    0.5002   11.8417   -3.7570 H   0  0  0  0  0  0  0  0  0  0  0  0
   -1.6448   11.2643   -2.8048 H   0  0  0  0  0  0  0  0  0  0  0  0
   -0.9074   10.1826   -1.6039 H   0  0  0  0  0  0  0  0  0  0  0  0
   -1.9217   12.8029   -1.0790 H   0  0  0  0  0  0  0  0  0  0  0  0
   -0.8698   11.9128    0.0188 H   0  0  0  0  0  0  0  0  0  0  0  0
   -0.9057   15.0134   -2.1049 H   0  0  0  0  0  0  0  0  0  0  0  0
    0.4771   14.5148   -3.1374 H   0  0  0  0  0  0  0  0  0  0  0  0
   -1.0377   13.5494   -3.1374 H   0  0  0  0  0  0  0  0  0  0  0  0
    0.9411   13.4130    0.6050 H   0  0  0  0  0  0  0  0  0  0  0  0
   -1.2950   14.6675    0.3342 H   0  0  0  0  0  0  0  0  0  0  0  0
    0.0084   15.2788    1.4816 H   0  0  0  0  0  0  0  0  0  0  0  0
   -1.2268   17.1067    0.0428 H   0  0  0  0  0  0  0  0  0  0  0  0
    1.8135   15.8992   -2.3257 H   0  0  0  0  0  0  0  0  0  0  0  0
    3.1793   17.5238   -0.0926 H   0  0  0  0  0  0  0  0  0  0  0  0
    3.9921   16.6860   -1.4887 H   0  0  0  0  0  0  0  0  0  0  0  0
    3.8070   19.1280   -1.8411 H   0  0  0  0  0  0  0  0  0  0  0  0
    2.8851   18.1664   -3.0618 H   0  0  0  0  0  0  0  0  0  0  0  0
    1.5434   20.0349   -2.3815 H   0  0  0  0  0  0  0  0  0  0  0  0
    2.6270   20.2430   -0.2790 H   0  0  0  0  0  0  0  0  0  0  0  0
   -0.6912   17.2508   -3.2862 H   0  0  0  0  0  0  0  0  0  0  0  0
   -0.2876   18.9449   -3.7264 H   0  0  0  0  0  0  0  0  0  0  0  0
    0.9948   17.6871   -3.7264 H   0  0  0  0  0  0  0  0  0  0  0  0
   -0.8081   19.1860   -0.1200 H   0  0  0  0  0  0  0  0  0  0  0  0
   -0.7201   20.2217   -1.5850 H   0  0  0  0  0  0  0  0  0  0  0  0
   -1.7525   18.7517   -1.5850 H   0  0  0  0  0  0  0  0  0  0  0  0
    2.0830   14.8889    1.7066 H   0  0  0  0  0  0  0  0  0  0  0  0
    3.7053   14.6297    0.9801 H   0  0  0  0  0  0  0  0  0  0  0  0
    2.9728   16.2699    0.9801 H   0  0  0  0  0  0  0  0  0  0  0  0
    3.8310   14.6367   -1.7742 H   0  0  0  0  0  0  0  0  0  0  0  0
    3.5411   13.3094   -0.5139 H   0  0  0  0  0  0  0  0  0  0  0  0
    2.1656   13.6476   -3.1930 H   0  0  0  0  0  0  0  0  0  0  0  0
    3.2800   12.3302   -2.6541 H   0  0  0  0  0  0  0  0  0  0  0  0
    1.5865   11.8045    0.3558 H   0  0  0  0  0  0  0  0  0  0  0  0
    1.3984   10.3548   -0.6881 H   0  0  0  0  0  0  0  0  0  0  0  0
    2.9459   11.2669   -0.6881 H   0  0  0  0  0  0  0  0  0  0  0  0
  1  2  1  0
  2  3  1  0
  3  4  1  0
  4  5  1  0
  5  6  1  0
  6  7  1  0
  7  8  1  0
  7  9  1  0
  2 10  1  0
 10 11  1  0
 11 12  1  0
 12 13  1  0
 13 14  1  6
 13 15  1  0
 15 16  1  0
 16 17  1  0
 17 18  2  0
 18 19  1  0
 19 20  1  0
 20 21  1  0
 21 22  1  0
 22 23  1  0
 22 24  1  0
 24 25  1  0
 24 26  1  0
 19 27  1  0
 27 28  1  1
 27 29  1  0
 29 30  1  0
 30 31  1  0
 31 32  1  1
  7  5  1  0
 31 10  1  0
 31 13  1  0
 27 15  1  0
 24 18  1  0
  1 33  1  0
  1 34  1  0
  1 35  1  0
  2 36  1  6
  3 37  1  0
  3 38  1  0
  4 39  1  0
  4 40  1  0
  5 41  1  1
  8 42  1  0
  8 43  1  0
  8 44  1  0
  9 45  1  0
  9 46  1  0
  9 47  1  0
 10 48  1  6
 11 49  1  0
 11 50  1  0
 12 51  1  0
 12 52  1  0
 14 53  1  0
 14 54  1  0
 14 55  1  0
 15 56  1  1
 16 57  1  0
 16 58  1  0
 17 59  1  0
 19 60  1  6
 20 61  1  0
 20 62  1  0
 21 63  1  0
 21 64  1  0
 22 65  1  6
 23 66  1  0
 25 67  1  0
 25 68  1  0
 25 69  1  0
 26 70  1  0
 26 71  1  0
 26 72  1  0
 28 73  1  0
 28 74  1  0
 28 75  1  0
 29 76  1  0
 29 77  1  0
 30 78  1  0
 30 79  1  0
 32 80  1  0
 32 81  1  0
 32 82  1  0
M  END
>  <meeko>  (5) 
{"is_sidechain": [false], "intermolecular_energy": 2.731, "internal_energy": -0.839}

$$$$
EPH_relaxed_0001_pdb2pqr_Repair_25_r2_0001_out
     RDKit          3D

 82 86  0  0  0  0  0  0  0  0999 V2000
   -5.2440    5.7820   -1.8990 C   0  0  0  0  0  0  0  0  0  0  0  0
   -5.5160    7.2860   -1.9860 C   0  0  2  0  0  0  0  0  0  0  0  0
   -5.2530    8.0030   -0.6460 C   0  0  0  0  0  0  0  0  0  0  0  0
   -4.2700    9.1710   -0.7560 C   0  0  0  0  0  0  0  0  0  0  0  0
   -2.8820    8.7670   -0.3600 C   0  0  2  0  0  0  0  0  0  0  0  0
   -2.3250    9.5210    0.7240 O   0  0  0  0  0  0  0  0  0  0  0  0
   -1.6660    9.6560   -0.5460 C   0  0  0  0  0  0  0  0  0  0  0  0
   -1.7820   11.0200   -1.1500 C   0  0  0  0  0  0  0  0  0  0  0  0
   -0.3140    9.0170   -0.5940 C   0  0  0  0  0  0  0  0  0  0  0  0
   -6.9530    7.5290   -2.4330 C   0  0  1  0  0  0  0  0  0  0  0  0
   -7.2930    6.8130   -3.7670 C   0  0  0  0  0  0  0  0  0  0  0  0
   -8.7750    6.3680   -3.6720 C   0  0  0  0  0  0  0  0  0  0  0  0
   -9.3300    7.1240   -2.4420 C   0  0  1  0  0  0  0  0  0  0  0  0
   -9.6630    8.5550   -2.9680 C   0  0  0  0  0  0  0  0  0  0  0  0
  -10.5580    6.4720   -1.7270 C   0  0  2  0  0  0  0  0  0  0  0  0
  -11.8270    6.3510   -2.5880 C   0  0  0  0  0  0  0  0  0  0  0  0
  -12.7590    7.5150   -2.5160 C   0  0  0  0  0  0  0  0  0  0  0  0
  -12.7320    8.4830   -1.5810 C   0  0  0  0  0  0  0  0  0  0  0  0
  -11.7520    8.4120   -0.4030 C   0  0  1  0  0  0  0  0  0  0  0  0
  -12.5030    8.7310    0.9160 C   0  0  0  0  0  0  0  0  0  0  0  0
  -13.2500   10.0600    0.8570 C   0  0  0  0  0  0  0  0  0  0  0  0
  -14.2560   10.0700   -0.2900 C   0  0  2  0  0  0  0  0  0  0  0  0
  -15.2870    9.1190   -0.0070 O   0  0  0  0  0  0  0  0  0  0  0  0
  -13.6150    9.7510   -1.6700 C   0  0  0  0  0  0  0  0  0  0  0  0
  -12.7220   10.9360   -2.1150 C   0  0  0  0  0  0  0  0  0  0  0  0
  -14.7580    9.6540   -2.7160 C   0  0  0  0  0  0  0  0  0  0  0  0
  -10.8810    7.0860   -0.3040 C   0  0  1  0  0  0  0  0  0  0  0  0
  -11.6640    5.9930    0.4850 C   0  0  0  0  0  0  0  0  0  0  0  0
   -9.5780    7.3870    0.5270 C   0  0  0  0  0  0  0  0  0  0  0  0
   -8.3610    7.9160   -0.2550 C   0  0  0  0  0  0  0  0  0  0  0  0
   -8.0830    7.0500   -1.4880 C   0  0  2  0  0  0  0  0  0  0  0  0
   -7.7230    5.6090   -0.9890 C   0  0  0  0  0  0  0  0  0  0  0  0
   -5.1893    5.4798   -0.8427 H   0  0  0  0  0  0  0  0  0  0  0  0
   -6.0574    5.2329   -2.3959 H   0  0  0  0  0  0  0  0  0  0  0  0
   -4.2898    5.5526   -2.3959 H   0  0  0  0  0  0  0  0  0  0  0  0
   -4.8196    7.7056   -2.7269 H   0  0  0  0  0  0  0  0  0  0  0  0
   -6.2100    8.3891   -0.2650 H   0  0  0  0  0  0  0  0  0  0  0  0
   -4.7996    7.2637    0.0307 H   0  0  0  0  0  0  0  0  0  0  0  0
   -4.2544    9.5269   -1.7967 H   0  0  0  0  0  0  0  0  0  0  0  0
   -4.6039    9.9655   -0.0725 H   0  0  0  0  0  0  0  0  0  0  0  0
   -3.0816    7.7220   -0.6396 H   0  0  0  0  0  0  0  0  0  0  0  0
   -1.8459   11.7714   -0.3492 H   0  0  0  0  0  0  0  0  0  0  0  0
   -0.8978   11.2218   -1.7724 H   0  0  0  0  0  0  0  0  0  0  0  0
   -2.6876   11.0696   -1.7724 H   0  0  0  0  0  0  0  0  0  0  0  0
    0.0474    8.8462    0.4308 H   0  0  0  0  0  0  0  0  0  0  0  0
   -0.3815    8.0555   -1.1240 H   0  0  0  0  0  0  0  0  0  0  0  0
    0.3861    9.6795   -1.1240 H   0  0  0  0  0  0  0  0  0  0  0  0
   -6.9460    8.6278   -2.4845 H   0  0  0  0  0  0  0  0  0  0  0  0
   -7.1586    7.5038   -4.6124 H   0  0  0  0  0  0  0  0  0  0  0  0
   -6.6316    5.9495   -3.9310 H   0  0  0  0  0  0  0  0  0  0  0  0
   -9.3246    6.6503   -4.5821 H   0  0  0  0  0  0  0  0  0  0  0  0
   -8.8780    5.2773   -3.5733 H   0  0  0  0  0  0  0  0  0  0  0  0
   -9.8205    9.2317   -2.1152 H   0  0  0  0  0  0  0  0  0  0  0  0
   -8.8269    8.9246   -3.5798 H   0  0  0  0  0  0  0  0  0  0  0  0
  -10.5764    8.5174   -3.5798 H   0  0  0  0  0  0  0  0  0  0  0  0
  -10.2124    5.4413   -1.5593 H   0  0  0  0  0  0  0  0  0  0  0  0
  -11.5164    6.2284   -3.6361 H   0  0  0  0  0  0  0  0  0  0  0  0
  -12.3839    5.4898   -2.1904 H   0  0  0  0  0  0  0  0  0  0  0  0
  -13.5339    7.5879   -3.2933 H   0  0  0  0  0  0  0  0  0  0  0  0
  -10.9908    9.1826   -0.5946 H   0  0  0  0  0  0  0  0  0  0  0  0
  -13.2280    7.9274    1.1122 H   0  0  0  0  0  0  0  0  0  0  0  0
  -11.7534    8.8045    1.7177 H   0  0  0  0  0  0  0  0  0  0  0  0
  -13.7845   10.2149    1.8059 H   0  0  0  0  0  0  0  0  0  0  0  0
  -12.5200   10.8658    0.6905 H   0  0  0  0  0  0  0  0  0  0  0  0
  -14.6643   11.0889   -0.3620 H   0  0  0  0  0  0  0  0  0  0  0  0
  -15.3210    9.0000    0.9570 H   0  0  0  0  0  0  0  0  0  0  0  0
  -12.3313   11.4544   -1.2269 H   0  0  0  0  0  0  0  0  0  0  0  0
  -11.8830   10.5570   -2.7170 H   0  0  0  0  0  0  0  0  0  0  0  0
  -13.3176   11.6381   -2.7170 H   0  0  0  0  0  0  0  0  0  0  0  0
  -15.7242    9.5720   -2.1967 H   0  0  0  0  0  0  0  0  0  0  0  0
  -14.7558   10.5556   -3.3462 H   0  0  0  0  0  0  0  0  0  0  0  0
  -14.6039    8.7657   -3.3462 H   0  0  0  0  0  0  0  0  0  0  0  0
  -11.5425    6.1626    1.5650 H   0  0  0  0  0  0  0  0  0  0  0  0
  -12.7311    6.0456    0.2233 H   0  0  0  0  0  0  0  0  0  0  0  0
  -11.2709    4.9995    0.2233 H   0  0  0  0  0  0  0  0  0  0  0  0
   -9.8355    8.1374    1.2890 H   0  0  0  0  0  0  0  0  0  0  0  0
   -9.2610    6.4127    0.9272 H   0  0  0  0  0  0  0  0  0  0  0  0
   -8.5617    8.9482   -0.5780 H   0  0  0  0  0  0  0  0  0  0  0  0
   -7.4800    7.8830    0.4028 H   0  0  0  0  0  0  0  0  0  0  0  0
   -7.7188    5.5922    0.1109 H   0  0  0  0  0  0  0  0  0  0  0  0
   -8.4701    4.8939   -1.3638 H   0  0  0  0  0  0  0  0  0  0  0  0
   -6.7274    5.3293   -1.3638 H   0  0  0  0  0  0  0  0  0  0  0  0
  1  2  1  0
  2  3  1  0
  3  4  1  0
  4  5  1  0
  5  6  1  0
  6  7  1  0
  7  8  1  0
  7  9  1  0
  2 10  1  0
 10 11  1  0
 11 12  1  0
 12 13  1  0
 13 14  1  6
 13 15  1  0
 15 16  1  0
 16 17  1  0
 17 18  2  0
 18 19  1  0
 19 20  1  0
 20 21  1  0
 21 22  1  0
 22 23  1  0
 22 24  1  0
 24 25  1  0
 24 26  1  0
 19 27  1  0
 27 28  1  1
 27 29  1  0
 29 30  1  0
 30 31  1  0
 31 32  1  1
  7  5  1  0
 31 10  1  0
 31 13  1  0
 27 15  1  0
 24 18  1  0
  1 33  1  0
  1 34  1  0
  1 35  1  0
  2 36  1  6
  3 37  1  0
  3 38  1  0
  4 39  1  0
  4 40  1  0
  5 41  1  1
  8 42  1  0
  8 43  1  0
  8 44  1  0
  9 45  1  0
  9 46  1  0
  9 47  1  0
 10 48  1  6
 11 49  1  0
 11 50  1  0
 12 51  1  0
 12 52  1  0
 14 53  1  0
 14 54  1  0
 14 55  1  0
 15 56  1  1
 16 57  1  0
 16 58  1  0
 17 59  1  0
 19 60  1  6
 20 61  1  0
 20 62  1  0
 21 63  1  0
 21 64  1  0
 22 65  1  6
 23 66  1  0
 25 67  1  0
 25 68  1  0
 25 69  1  0
 26 70  1  0
 26 71  1  0
 26 72  1  0
 28 73  1  0
 28 74  1  0
 28 75  1  0
 29 76  1  0
 29 77  1  0
 30 78  1  0
 30 79  1  0
 32 80  1  0
 32 81  1  0
 32 82  1  0
M  END
>  <meeko>  (6) 
{"is_sidechain": [false], "intermolecular_energy": 2.731, "internal_energy": -0.839}

$$$$
EPH_relaxed_0001_pdb2pqr_Repair_25_r2_0001_out
     RDKit          3D

 82 86  0  0  0  0  0  0  0  0999 V2000
    0.0900   10.4900   -3.7900 C   0  0  0  0  0  0  0  0  0  0  0  0
    0.9980   10.2150   -2.5880 C   0  0  2  0  0  0  0  0  0  0  0  0
    0.5280    8.9930   -1.7730 C   0  0  0  0  0  0  0  0  0  0  0  0
   -0.8680    8.4960   -2.1580 C   0  0  0  0  0  0  0  0  0  0  0  0
   -1.7950    8.4810   -0.9810 C   0  0  2  0  0  0  0  0  0  0  0  0
   -3.1630    8.7780   -1.2930 O   0  0  0  0  0  0  0  0  0  0  0  0
   -2.4870    9.7210   -0.4450 C   0  0  0  0  0  0  0  0  0  0  0  0
   -2.2790   11.0630   -1.0720 C   0  0  0  0  0  0  0  0  0  0  0  0
   -2.9710    9.7130    0.9710 C   0  0  0  0  0  0  0  0  0  0  0  0
    1.0610   11.4460   -1.6920 C   0  0  1  0  0  0  0  0  0  0  0  0
    2.1090   11.3050   -0.5560 C   0  0  0  0  0  0  0  0  0  0  0  0
    2.7130   12.7140   -0.3270 C   0  0  0  0  0  0  0  0  0  0  0  0
    1.7720   13.6710   -1.0940 C   0  0  1  0  0  0  0  0  0  0  0  0
    0.5610   13.8970   -0.1360 C   0  0  0  0  0  0  0  0  0  0  0  0
    2.3970   15.0260   -1.5640 C   0  0  2  0  0  0  0  0  0  0  0  0
    2.8840   15.9470   -0.4320 C   0  0  0  0  0  0  0  0  0  0  0  0
    1.8710   16.9160    0.0820 C   0  0  0  0  0  0  0  0  0  0  0  0
    0.7170   17.2390   -0.5300 C   0  0  0  0  0  0  0  0  0  0  0  0
    0.3780   16.6810   -1.9180 C   0  0  1  0  0  0  0  0  0  0  0  0
   -0.1370   17.8290   -2.8260 C   0  0  0  0  0  0  0  0  0  0  0  0
   -1.3030   18.5890   -2.2020 C   0  0  0  0  0  0  0  0  0  0  0  0
   -0.9100   19.1780   -0.8500 C   0  0  2  0  0  0  0  0  0  0  0  0
    0.0780   20.1920   -1.0590 O   0  0  0  0  0  0  0  0  0  0  0  0
   -0.3660   18.1160    0.1460 C   0  0  0  0  0  0  0  0  0  0  0  0
   -1.5220   17.1940    0.6050 C   0  0  0  0  0  0  0  0  0  0  0  0
    0.1260   18.8610    1.4160 C   0  0  0  0  0  0  0  0  0  0  0  0
    1.5160   15.8160   -2.6140 C   0  0  1  0  0  0  0  0  0  0  0  0
    2.4880   16.7490   -3.3990 C   0  0  0  0  0  0  0  0  0  0  0  0
    0.8570   14.8640   -3.6810 C   0  0  0  0  0  0  0  0  0  0  0  0
    0.3670   13.4920   -3.1790 C   0  0  0  0  0  0  0  0  0  0  0  0
    1.4520   12.7900   -2.3560 C   0  0  2  0  0  0  0  0  0  0  0  0
    2.6750   12.5290   -3.3010 C   0  0  0  0  0  0  0  0  0  0  0  0
   -0.9065   10.7918   -3.4353 H   0  0  0  0  0  0  0  0  0  0  0  0
    0.5225   11.2975   -4.3991 H   0  0  0  0  0  0  0  0  0  0  0  0
    0.0018    9.5783   -4.3991 H   0  0  0  0  0  0  0  0  0  0  0  0
    2.0014    9.9865   -2.9764 H   0  0  0  0  0  0  0  0  0  0  0  0
    1.2443    8.1734   -1.9317 H   0  0  0  0  0  0  0  0  0  0  0  0
    0.4777    9.3088   -0.7205 H   0  0  0  0  0  0  0  0  0  0  0  0
   -1.2828    9.1608   -2.9300 H   0  0  0  0  0  0  0  0  0  0  0  0
   -0.7739    7.4664   -2.5336 H   0  0  0  0  0  0  0  0  0  0  0  0
   -1.1970    7.6993   -0.4897 H   0  0  0  0  0  0  0  0  0  0  0  0
   -2.1614   11.8216   -0.2841 H   0  0  0  0  0  0  0  0  0  0  0  0
   -1.3738   11.0396   -1.6965 H   0  0  0  0  0  0  0  0  0  0  0  0
   -3.1489   11.3147   -1.6965 H   0  0  0  0  0  0  0  0  0  0  0  0
   -2.1084    9.7273    1.6534 H   0  0  0  0  0  0  0  0  0  0  0  0
   -3.5950   10.6010    1.1502 H   0  0  0  0  0  0  0  0  0  0  0  0
   -3.5653    8.8049    1.1502 H   0  0  0  0  0  0  0  0  0  0  0  0
    0.0143   11.4828   -1.3559 H   0  0  0  0  0  0  0  0  0  0  0  0
    1.6243   10.9466    0.3641 H   0  0  0  0  0  0  0  0  0  0  0  0
    2.8903   10.5798   -0.8274 H   0  0  0  0  0  0  0  0  0  0  0  0
    2.7280   12.9606    0.7449 H   0  0  0  0  0  0  0  0  0  0  0  0
    3.7537   12.7835   -0.6763 H   0  0  0  0  0  0  0  0  0  0  0  0
    0.9023   13.8333    0.9078 H   0  0  0  0  0  0  0  0  0  0  0  0
    0.1283   14.8914   -0.3202 H   0  0  0  0  0  0  0  0  0  0  0  0
   -0.2012   13.1256   -0.3202 H   0  0  0  0  0  0  0  0  0  0  0  0
    3.3042   14.6972   -2.0922 H   0  0  0  0  0  0  0  0  0  0  0  0
    3.2047   15.3130    0.4078 H   0  0  0  0  0  0  0  0  0  0  0  0
    3.6952   16.5536   -0.8609 H   0  0  0  0  0  0  0  0  0  0  0  0
    2.0863   17.4074    1.0423 H   0  0  0  0  0  0  0  0  0  0  0  0
   -0.4213   15.9416   -1.7620 H   0  0  0  0  0  0  0  0  0  0  0  0
    0.6881   18.5341   -3.0053 H   0  0  0  0  0  0  0  0  0  0  0  0
   -0.4951   17.3786   -3.7635 H   0  0  0  0  0  0  0  0  0  0  0  0
   -1.6030   19.4046   -2.8763 H   0  0  0  0  0  0  0  0  0  0  0  0
   -2.1373   17.8884   -2.0502 H   0  0  0  0  0  0  0  0  0  0  0  0
   -1.8198   19.5971   -0.3955 H   0  0  0  0  0  0  0  0  0  0  0  0
   -0.1490   20.9470   -0.4900 H   0  0  0  0  0  0  0  0  0  0  0  0
   -1.5554   17.1674    1.7042 H   0  0  0  0  0  0  0  0  0  0  0  0
   -2.4760   17.5820    0.2185 H   0  0  0  0  0  0  0  0  0  0  0  0
   -1.3559   16.1776    0.2185 H   0  0  0  0  0  0  0  0  0  0  0  0
   -0.2253   18.3290    2.3124 H   0  0  0  0  0  0  0  0  0  0  0  0
    1.2254   18.8960    1.4177 H   0  0  0  0  0  0  0  0  0  0  0  0
   -0.2735   19.8859    1.4177 H   0  0  0  0  0  0  0  0  0  0  0  0
    3.0932   17.3299   -2.6875 H   0  0  0  0  0  0  0  0  0  0  0  0
    3.1502   16.1397   -4.0316 H   0  0  0  0  0  0  0  0  0  0  0  0
    1.9063   17.4356   -4.0316 H   0  0  0  0  0  0  0  0  0  0  0  0
   -0.0092   15.3911   -4.1075 H   0  0  0  0  0  0  0  0  0  0  0  0
    1.6586   14.6382   -4.3996 H   0  0  0  0  0  0  0  0  0  0  0  0
   -0.5245   13.6360   -2.5509 H   0  0  0  0  0  0  0  0  0  0  0  0
    0.1268   12.8650   -4.0503 H   0  0  0  0  0  0  0  0  0  0  0  0
    3.5726   12.3374   -2.6946 H   0  0  0  0  0  0  0  0  0  0  0  0
    2.4679   11.6548   -3.9358 H   0  0  0  0  0  0  0  0  0  0  0  0
    2.8428   13.4116   -3.9358 H   0  0  0  0  0  0  0  0  0  0  0  0
  1  2  1  0
  2  3  1  0
  3  4  1  0
  4  5  1  0
  5  6  1  0
  6  7  1  0
  7  8  1  0
  7  9  1  0
  2 10  1  0
 10 11  1  0
 11 12  1  0
 12 13  1  0
 13 14  1  1
 13 15  1  0
 15 16  1  0
 16 17  1  0
 17 18  2  0
 18 19  1  0
 19 20  1  0
 20 21  1  0
 21 22  1  0
 22 23  1  0
 22 24  1  0
 24 25  1  0
 24 26  1  0
 19 27  1  0
 27 28  1  6
 27 29  1  0
 29 30  1  0
 30 31  1  0
 31 32  1  6
  7  5  1  0
 31 10  1  0
 31 13  1  0
 27 15  1  0
 24 18  1  0
  1 33  1  0
  1 34  1  0
  1 35  1  0
  2 36  1  6
  3 37  1  0
  3 38  1  0
  4 39  1  0
  4 40  1  0
  5 41  1  1
  8 42  1  0
  8 43  1  0
  8 44  1  0
  9 45  1  0
  9 46  1  0
  9 47  1  0
 10 48  1  1
 11 49  1  0
 11 50  1  0
 12 51  1  0
 12 52  1  0
 14 53  1  0
 14 54  1  0
 14 55  1  0
 15 56  1  6
 16 57  1  0
 16 58  1  0
 17 59  1  0
 19 60  1  1
 20 61  1  0
 20 62  1  0
 21 63  1  0
 21 64  1  0
 22 65  1  1
 23 66  1  0
 25 67  1  0
 25 68  1  0
 25 69  1  0
 26 70  1  0
 26 71  1  0
 26 72  1  0
 28 73  1  0
 28 74  1  0
 28 75  1  0
 29 76  1  0
 29 77  1  0
 30 78  1  0
 30 79  1  0
 32 80  1  0
 32 81  1  0
 32 82  1  0
M  END
>  <meeko>  (7) 
{"is_sidechain": [false], "intermolecular_energy": 2.731, "internal_energy": -0.839}

$$$$
EPH_relaxed_0001_pdb2pqr_Repair_25_r2_0001_out
     RDKit          3D

 82 86  0  0  0  0  0  0  0  0999 V2000
   -4.0490    7.4060   -3.4360 C   0  0  0  0  0  0  0  0  0  0  0  0
   -3.6660    7.2900   -1.9580 C   0  0  2  0  0  0  0  0  0  0  0  0
   -4.8520    6.8310   -1.0860 C   0  0  0  0  0  0  0  0  0  0  0  0
   -5.9830    6.1740   -1.8820 C   0  0  0  0  0  0  0  0  0  0  0  0
   -7.3300    6.6330   -1.4110 C   0  0  2  0  0  0  0  0  0  0  0  0
   -8.2900    5.5840   -1.2300 O   0  0  0  0  0  0  0  0  0  0  0  0
   -8.5870    6.5450   -2.2560 C   0  0  0  0  0  0  0  0  0  0  0  0
   -8.5560    5.9830   -3.6430 C   0  0  0  0  0  0  0  0  0  0  0  0
   -9.7370    7.4450   -1.9260 C   0  0  0  0  0  0  0  0  0  0  0  0
   -3.1350    8.6260   -1.4530 C   0  0  1  0  0  0  0  0  0  0  0  0
   -3.7680    9.0480   -0.1000 C   0  0  0  0  0  0  0  0  0  0  0  0
   -2.6640    9.7870    0.7000 C   0  0  0  0  0  0  0  0  0  0  0  0
   -1.5470   10.0580   -0.3360 C   0  0  1  0  0  0  0  0  0  0  0  0
   -2.0170   11.3310   -1.1080 C   0  0  0  0  0  0  0  0  0  0  0  0
   -0.1020   10.2290    0.2350 C   0  0  2  0  0  0  0  0  0  0  0  0
    0.0880   11.4260    1.1820 C   0  0  0  0  0  0  0  0  0  0  0  0
    0.4990   12.7020    0.5240 C   0  0  0  0  0  0  0  0  0  0  0  0
    0.9830   12.8160   -0.7270 C   0  0  0  0  0  0  0  0  0  0  0  0
    1.2500   11.5720   -1.5840 C   0  0  1  0  0  0  0  0  0  0  0  0
    2.6460   11.6930   -2.2500 C   0  0  0  0  0  0  0  0  0  0  0  0
    2.8090   12.9900   -3.0370 C   0  0  0  0  0  0  0  0  0  0  0  0
    2.5920   14.2040   -2.1370 C   0  0  2  0  0  0  0  0  0  0  0  0
    3.6510   14.2610   -1.1760 O   0  0  0  0  0  0  0  0  0  0  0  0
    1.2210   14.1880   -1.4040 C   0  0  0  0  0  0  0  0  0  0  0  0
    0.0820   14.4300   -2.4250 C   0  0  0  0  0  0  0  0  0  0  0  0
    1.1890   15.3910   -0.4240 C   0  0  0  0  0  0  0  0  0  0  0  0
    1.0380   10.1730   -0.8610 C   0  0  1  0  0  0  0  0  0  0  0  0
    2.3460    9.7520   -0.1220 C   0  0  0  0  0  0  0  0  0  0  0  0
    0.7680    9.0680   -1.9490 C   0  0  0  0  0  0  0  0  0  0  0  0
   -0.6950    8.8640   -2.3850 C   0  0  0  0  0  0  0  0  0  0  0  0
   -1.6150    8.7250   -1.1680 C   0  0  2  0  0  0  0  0  0  0  0  0
   -1.1810    7.4400   -0.3840 C   0  0  0  0  0  0  0  0  0  0  0  0
   -5.0988    7.7239   -3.5189 H   0  0  0  0  0  0  0  0  0  0  0  0
   -3.4013    8.1483   -3.9254 H   0  0  0  0  0  0  0  0  0  0  0  0
   -3.9220    6.4291   -3.9254 H   0  0  0  0  0  0  0  0  0  0  0  0
   -2.8810    6.5236   -1.8780 H   0  0  0  0  0  0  0  0  0  0  0  0
   -4.4799    6.1054   -0.3477 H   0  0  0  0  0  0  0  0  0  0  0  0
   -5.2719    7.7317   -0.6144 H   0  0  0  0  0  0  0  0  0  0  0  0
   -5.8690    6.4340   -2.9447 H   0  0  0  0  0  0  0  0  0  0  0  0
   -5.9199    5.0858   -1.7341 H   0  0  0  0  0  0  0  0  0  0  0  0
   -6.8765    7.4619   -0.8477 H   0  0  0  0  0  0  0  0  0  0  0  0
   -8.4955    4.8858   -3.5928 H   0  0  0  0  0  0  0  0  0  0  0  0
   -9.4717    6.2756   -4.1777 H   0  0  0  0  0  0  0  0  0  0  0  0
   -7.6781    6.3746   -4.1777 H   0  0  0  0  0  0  0  0  0  0  0  0
   -9.8386    7.5245   -0.8336 H   0  0  0  0  0  0  0  0  0  0  0  0
   -9.5551    8.4432   -2.3510 H   0  0  0  0  0  0  0  0  0  0  0  0
  -10.6622    7.0286   -2.3510 H   0  0  0  0  0  0  0  0  0  0  0  0
   -3.4002    9.2649   -2.3082 H   0  0  0  0  0  0  0  0  0  0  0  0
   -4.6224    9.7185   -0.2744 H   0  0  0  0  0  0  0  0  0  0  0  0
   -4.1370    8.1719    0.4534 H   0  0  0  0  0  0  0  0  0  0  0  0
   -3.0491   10.7314    1.1119 H   0  0  0  0  0  0  0  0  0  0  0  0
   -2.3046    9.1982    1.5568 H   0  0  0  0  0  0  0  0  0  0  0  0
   -2.3050   12.1111   -0.3879 H   0  0  0  0  0  0  0  0  0  0  0  0
   -1.1960   11.7005   -1.7400 H   0  0  0  0  0  0  0  0  0  0  0  0
   -2.8811   11.0784   -1.7400 H   0  0  0  0  0  0  0  0  0  0  0  0
    0.0120    9.3319    0.8613 H   0  0  0  0  0  0  0  0  0  0  0  0
   -0.8655   11.6032    1.7011 H   0  0  0  0  0  0  0  0  0  0  0  0
    0.9129   11.1522    1.8562 H   0  0  0  0  0  0  0  0  0  0  0  0
    0.3977   13.6267    1.1110 H   0  0  0  0  0  0  0  0  0  0  0  0
    0.4670   11.5608   -2.3565 H   0  0  0  0  0  0  0  0  0  0  0  0
    3.4154   11.6581   -1.4647 H   0  0  0  0  0  0  0  0  0  0  0  0
    2.7515   10.8577   -2.9579 H   0  0  0  0  0  0  0  0  0  0  0  0
    3.8244   13.0307   -3.4580 H   0  0  0  0  0  0  0  0  0  0  0  0
    2.0587   13.0099   -3.8411 H   0  0  0  0  0  0  0  0  0  0  0  0
    2.5917   15.0955   -2.7814 H   0  0  0  0  0  0  0  0  0  0  0  0
    4.1770   13.4490   -1.2700 H   0  0  0  0  0  0  0  0  0  0  0  0
   -0.8565   14.6294   -1.8870 H   0  0  0  0  0  0  0  0  0  0  0  0
    0.3334   15.2948   -3.0566 H   0  0  0  0  0  0  0  0  0  0  0  0
   -0.0399   13.5377   -3.0566 H   0  0  0  0  0  0  0  0  0  0  0  0
    1.1989   15.0206    0.6117 H   0  0  0  0  0  0  0  0  0  0  0  0
    2.0706   16.0264   -0.5946 H   0  0  0  0  0  0  0  0  0  0  0  0
    0.2749   15.9787   -0.5946 H   0  0  0  0  0  0  0  0  0  0  0  0
    2.1858    9.8036    0.9650 H   0  0  0  0  0  0  0  0  0  0  0  0
    2.6120    8.7229   -0.4050 H   0  0  0  0  0  0  0  0  0  0  0  0
    3.1624   10.4328   -0.4050 H   0  0  0  0  0  0  0  0  0  0  0  0
    1.3479    9.3347   -2.8449 H   0  0  0  0  0  0  0  0  0  0  0  0
    1.0613    8.1199   -1.4746 H   0  0  0  0  0  0  0  0  0  0  0  0
   -1.0166    9.7299   -2.9823 H   0  0  0  0  0  0  0  0  0  0  0  0
   -0.7584    7.9411   -2.9801 H   0  0  0  0  0  0  0  0  0  0  0  0
   -1.2455    7.6310    0.6974 H   0  0  0  0  0  0  0  0  0  0  0  0
   -1.8473    6.6060   -0.6494 H   0  0  0  0  0  0  0  0  0  0  0  0
   -0.1455    7.1808   -0.6494 H   0  0  0  0  0  0  0  0  0  0  0  0
  1  2  1  0
  2  3  1  0
  3  4  1  0
  4  5  1  0
  5  6  1  0
  6  7  1  0
  7  8  1  0
  7  9  1  0
  2 10  1  0
 10 11  1  0
 11 12  1  0
 12 13  1  0
 13 14  1  6
 13 15  1  0
 15 16  1  0
 16 17  1  0
 17 18  2  0
 18 19  1  0
 19 20  1  0
 20 21  1  0
 21 22  1  0
 22 23  1  0
 22 24  1  0
 24 25  1  0
 24 26  1  0
 19 27  1  0
 27 28  1  1
 27 29  1  0
 29 30  1  0
 30 31  1  0
 31 32  1  1
  7  5  1  0
 31 10  1  0
 31 13  1  0
 27 15  1  0
 24 18  1  0
  1 33  1  0
  1 34  1  0
  1 35  1  0
  2 36  1  6
  3 37  1  0
  3 38  1  0
  4 39  1  0
  4 40  1  0
  5 41  1  1
  8 42  1  0
  8 43  1  0
  8 44  1  0
  9 45  1  0
  9 46  1  0
  9 47  1  0
 10 48  1  6
 11 49  1  0
 11 50  1  0
 12 51  1  0
 12 52  1  0
 14 53  1  0
 14 54  1  0
 14 55  1  0
 15 56  1  1
 16 57  1  0
 16 58  1  0
 17 59  1  0
 19 60  1  6
 20 61  1  0
 20 62  1  0
 21 63  1  0
 21 64  1  0
 22 65  1  6
 23 66  1  0
 25 67  1  0
 25 68  1  0
 25 69  1  0
 26 70  1  0
 26 71  1  0
 26 72  1  0
 28 73  1  0
 28 74  1  0
 28 75  1  0
 29 76  1  0
 29 77  1  0
 30 78  1  0
 30 79  1  0
 32 80  1  0
 32 81  1  0
 32 82  1  0
M  END
>  <meeko>  (8) 
{"is_sidechain": [false], "intermolecular_energy": 2.731, "internal_energy": -0.839}

$$$$
EPH_relaxed_0001_pdb2pqr_Repair_25_r2_0001_out
     RDKit          3D

 82 86  0  0  0  0  0  0  0  0999 V2000
   -0.8600   16.3540   -5.8420 C   0  0  0  0  0  0  0  0  0  0  0  0
    0.2290   15.6500   -6.6570 C   0  0  2  0  0  0  0  0  0  0  0  0
   -0.1750   15.4710   -8.1340 C   0  0  0  0  0  0  0  0  0  0  0  0
    0.4610   16.4970   -9.0750 C   0  0  0  0  0  0  0  0  0  0  0  0
    1.8590   16.1100   -9.4530 C   0  0  2  0  0  0  0  0  0  0  0  0
    2.3250   16.6750  -10.6860 O   0  0  0  0  0  0  0  0  0  0  0  0
    2.1930   15.2450  -10.6530 C   0  0  0  0  0  0  0  0  0  0  0  0
    1.1220   14.7120  -11.5520 C   0  0  0  0  0  0  0  0  0  0  0  0
    3.5020   14.5180  -10.6700 C   0  0  0  0  0  0  0  0  0  0  0  0
    0.5490   14.2960   -6.0360 C   0  0  1  0  0  0  0  0  0  0  0  0
    1.8100   13.6370   -6.6550 C   0  0  0  0  0  0  0  0  0  0  0  0
    2.5210   12.8690   -5.5110 C   0  0  0  0  0  0  0  0  0  0  0  0
    1.4850   12.8320   -4.3640 C   0  0  1  0  0  0  0  0  0  0  0  0
    0.5260   11.6560   -4.7270 C   0  0  0  0  0  0  0  0  0  0  0  0
    2.0610   12.6820   -2.9180 C   0  0  2  0  0  0  0  0  0  0  0  0
    2.8300   11.3750   -2.6540 C   0  0  0  0  0  0  0  0  0  0  0  0
    2.0040   10.2420   -2.1410 C   0  0  0  0  0  0  0  0  0  0  0  0
    0.7630   10.3460   -1.6320 C   0  0  0  0  0  0  0  0  0  0  0  0
    0.1010   11.7180   -1.4440 C   0  0  1  0  0  0  0  0  0  0  0  0
   -0.5400   11.7940   -0.0340 C   0  0  0  0  0  0  0  0  0  0  0  0
   -1.5020   10.6410    0.2340 C   0  0  0  0  0  0  0  0  0  0  0  0
   -0.7930    9.2960    0.0950 C   0  0  2  0  0  0  0  0  0  0  0  0
    0.1750    9.1750    1.1410 O   0  0  0  0  0  0  0  0  0  0  0  0
   -0.1000    9.1090   -1.2840 C   0  0  0  0  0  0  0  0  0  0  0  0
   -1.1740    8.9380   -2.3870 C   0  0  0  0  0  0  0  0  0  0  0  0
    0.6940    7.7760   -1.2410 C   0  0  0  0  0  0  0  0  0  0  0  0
    1.0140   12.9780   -1.7690 C   0  0  1  0  0  0  0  0  0  0  0  0
    1.8380   13.3770   -0.5070 C   0  0  0  0  0  0  0  0  0  0  0  0
    0.0900   14.2090   -2.1040 C   0  0  0  0  0  0  0  0  0  0  0  0
   -0.3470   14.3700   -3.5720 C   0  0  0  0  0  0  0  0  0  0  0  0
    0.8540   14.2640   -4.5170 C   0  0  2  0  0  0  0  0  0  0  0  0
    1.8260   15.4480   -4.1900 C   0  0  0  0  0  0  0  0  0  0  0  0
   -0.6573   16.2229   -4.7688 H   0  0  0  0  0  0  0  0  0  0  0  0
   -0.8648   17.4266   -6.0859 H   0  0  0  0  0  0  0  0  0  0  0  0
   -1.8400   15.9181   -6.0859 H   0  0  0  0  0  0  0  0  0  0  0  0
    1.1239   16.2893   -6.6355 H   0  0  0  0  0  0  0  0  0  0  0  0
    0.1315   14.4656   -8.4584 H   0  0  0  0  0  0  0  0  0  0  0  0
   -1.2640   15.6163   -8.1891 H   0  0  0  0  0  0  0  0  0  0  0  0
   -0.1482   16.5692   -9.9880 H   0  0  0  0  0  0  0  0  0  0  0  0
    0.5022   17.4635   -8.5514 H   0  0  0  0  0  0  0  0  0  0  0  0
    2.1521   16.0481   -8.3946 H   0  0  0  0  0  0  0  0  0  0  0  0
    0.3018   14.3038  -10.9432 H   0  0  0  0  0  0  0  0  0  0  0  0
    0.7383   15.5243  -12.1868 H   0  0  0  0  0  0  0  0  0  0  0  0
    1.5386   13.9161  -12.1868 H   0  0  0  0  0  0  0  0  0  0  0  0
    3.8328   14.3343   -9.6371 H   0  0  0  0  0  0  0  0  0  0  0  0
    3.3813   13.5577  -11.1927 H   0  0  0  0  0  0  0  0  0  0  0  0
    4.2535   15.1280  -11.1927 H   0  0  0  0  0  0  0  0  0  0  0  0
   -0.3961   13.7719   -6.2413 H   0  0  0  0  0  0  0  0  0  0  0  0
    1.5192   12.9405   -7.4552 H   0  0  0  0  0  0  0  0  0  0  0  0
    2.4754   14.3942   -7.0954 H   0  0  0  0  0  0  0  0  0  0  0  0
    2.7824   11.8497   -5.8313 H   0  0  0  0  0  0  0  0  0  0  0  0
    3.4625   13.3501   -5.2076 H   0  0  0  0  0  0  0  0  0  0  0  0
    0.1481   11.1926   -3.8037 H   0  0  0  0  0  0  0  0  0  0  0  0
   -0.3192   12.0407   -5.3166 H   0  0  0  0  0  0  0  0  0  0  0  0
    1.0729   10.9055   -5.3166 H   0  0  0  0  0  0  0  0  0  0  0  0
    2.8126   13.4842   -2.8796 H   0  0  0  0  0  0  0  0  0  0  0  0
    3.2940   11.0567   -3.5992 H   0  0  0  0  0  0  0  0  0  0  0  0
    3.5576   11.6046   -1.8616 H   0  0  0  0  0  0  0  0  0  0  0  0
    2.4480    9.2364   -2.1828 H   0  0  0  0  0  0  0  0  0  0  0  0
   -0.6819   11.7870   -2.2137 H   0  0  0  0  0  0  0  0  0  0  0  0
    0.2610   11.7673    0.7194 H   0  0  0  0  0  0  0  0  0  0  0  0
   -1.1163   12.7293    0.0209 H   0  0  0  0  0  0  0  0  0  0  0  0
   -1.9003   10.7343    1.2551 H   0  0  0  0  0  0  0  0  0  0  0  0
   -2.3179   10.6858   -0.5024 H   0  0  0  0  0  0  0  0  0  0  0  0
   -1.5585    8.5097    0.1702 H   0  0  0  0  0  0  0  0  0  0  0  0
    1.0520    9.3310    0.7500 H   0  0  0  0  0  0  0  0  0  0  0  0
   -2.1575    8.7814   -1.9200 H   0  0  0  0  0  0  0  0  0  0  0  0
   -1.2048    9.8426   -3.0122 H   0  0  0  0  0  0  0  0  0  0  0  0
   -0.9224    8.0686   -3.0122 H   0  0  0  0  0  0  0  0  0  0  0  0
    0.8669    7.4858   -0.1941 H   0  0  0  0  0  0  0  0  0  0  0  0
    0.1173    6.9891   -1.7492 H   0  0  0  0  0  0  0  0  0  0  0  0
    1.6606    7.9084   -1.7492 H   0  0  0  0  0  0  0  0  0  0  0  0
    1.2762   13.1050    0.3988 H   0  0  0  0  0  0  0  0  0  0  0  0
    2.8010   12.8454   -0.5147 H   0  0  0  0  0  0  0  0  0  0  0  0
    2.0181   14.4621   -0.5147 H   0  0  0  0  0  0  0  0  0  0  0  0
   -0.8207   14.1173   -1.4938 H   0  0  0  0  0  0  0  0  0  0  0  0
    0.7028   15.0964   -1.8871 H   0  0  0  0  0  0  0  0  0  0  0  0
   -1.0711   13.5801   -3.8205 H   0  0  0  0  0  0  0  0  0  0  0  0
   -0.8031   15.3634   -3.6950 H   0  0  0  0  0  0  0  0  0  0  0  0
    1.9162   15.5578   -3.0992 H   0  0  0  0  0  0  0  0  0  0  0  0
    2.8164   15.2389   -4.6206 H   0  0  0  0  0  0  0  0  0  0  0  0
    1.4280   16.3787   -4.6206 H   0  0  0  0  0  0  0  0  0  0  0  0
  1  2  1  0
  2  3  1  0
  3  4  1  0
  4  5  1  0
  5  6  1  0
  6  7  1  0
  7  8  1  0
  7  9  1  0
  2 10  1  0
 10 11  1  0
 11 12  1  0
 12 13  1  0
 13 14  1  6
 13 15  1  0
 15 16  1  0
 16 17  1  0
 17 18  2  0
 18 19  1  0
 19 20  1  0
 20 21  1  0
 21 22  1  0
 22 23  1  0
 22 24  1  0
 24 25  1  0
 24 26  1  0
 19 27  1  0
 27 28  1  1
 27 29  1  0
 29 30  1  0
 30 31  1  0
 31 32  1  1
  7  5  1  0
 31 10  1  0
 31 13  1  0
 27 15  1  0
 24 18  1  0
  1 33  1  0
  1 34  1  0
  1 35  1  0
  2 36  1  6
  3 37  1  0
  3 38  1  0
  4 39  1  0
  4 40  1  0
  5 41  1  1
  8 42  1  0
  8 43  1  0
  8 44  1  0
  9 45  1  0
  9 46  1  0
  9 47  1  0
 10 48  1  1
 11 49  1  0
 11 50  1  0
 12 51  1  0
 12 52  1  0
 14 53  1  0
 14 54  1  0
 14 55  1  0
 15 56  1  6
 16 57  1  0
 16 58  1  0
 17 59  1  0
 19 60  1  6
 20 61  1  0
 20 62  1  0
 21 63  1  0
 21 64  1  0
 22 65  1  1
 23 66  1  0
 25 67  1  0
 25 68  1  0
 25 69  1  0
 26 70  1  0
 26 71  1  0
 26 72  1  0
 28 73  1  0
 28 74  1  0
 28 75  1  0
 29 76  1  0
 29 77  1  0
 30 78  1  0
 30 79  1  0
 32 80  1  0
 32 81  1  0
 32 82  1  0
M  END
>  <meeko>  (9) 
{"is_sidechain": [false], "intermolecular_energy": 2.731, "internal_energy": -0.839}

$$$$
EPH_relaxed_0001_pdb2pqr_Repair_25_r2_0001_out
     RDKit          3D

 82 86  0  0  0  0  0  0  0  0999 V2000
   -2.2230    7.7490   -2.2760 C   0  0  0  0  0  0  0  0  0  0  0  0
   -2.2410    8.3520   -0.8690 C   0  0  2  0  0  0  0  0  0  0  0  0
   -3.6500    8.3250   -0.2440 C   0  0  0  0  0  0  0  0  0  0  0  0
   -4.7780    8.2110   -1.2730 C   0  0  0  0  0  0  0  0  0  0  0  0
   -5.8370    7.2470   -0.8310 C   0  0  2  0  0  0  0  0  0  0  0  0
   -5.5300    5.8680   -1.0730 O   0  0  0  0  0  0  0  0  0  0  0  0
   -6.6540    6.4030   -1.7910 C   0  0  0  0  0  0  0  0  0  0  0  0
   -6.4470    6.4850   -3.2710 C   0  0  0  0  0  0  0  0  0  0  0  0
   -7.9740    5.8690   -1.3300 C   0  0  0  0  0  0  0  0  0  0  0  0
   -1.7170    9.7830   -0.9100 C   0  0  1  0  0  0  0  0  0  0  0  0
   -1.2930   10.3040    0.4890 C   0  0  0  0  0  0  0  0  0  0  0  0
   -0.0720   11.2330    0.2690 C   0  0  0  0  0  0  0  0  0  0  0  0
   -0.0390   11.4800   -1.2580 C   0  0  1  0  0  0  0  0  0  0  0  0
   -1.0960   12.6010   -1.5060 C   0  0  0  0  0  0  0  0  0  0  0  0
    1.3510   11.8520   -1.8680 C   0  0  2  0  0  0  0  0  0  0  0  0
    1.9600   13.1670   -1.3510 C   0  0  0  0  0  0  0  0  0  0  0  0
    1.6040   14.3860   -2.1360 C   0  0  0  0  0  0  0  0  0  0  0  0
    1.0640   14.3930   -3.3690 C   0  0  0  0  0  0  0  0  0  0  0  0
    0.8480   13.0850   -4.1410 C   0  0  1  0  0  0  0  0  0  0  0  0
    1.3560   13.2540   -5.5970 C   0  0  0  0  0  0  0  0  0  0  0  0
    0.7320   14.4560   -6.2990 C   0  0  0  0  0  0  0  0  0  0  0  0
    1.0180   15.7440   -5.5320 C   0  0  2  0  0  0  0  0  0  0  0  0
    2.4220   16.0140   -5.5910 O   0  0  0  0  0  0  0  0  0  0  0  0
    0.5580   15.6890   -4.0490 C   0  0  0  0  0  0  0  0  0  0  0  0
   -0.9900   15.7000   -3.9830 C   0  0  0  0  0  0  0  0  0  0  0  0
    1.0310   16.9940   -3.3530 C   0  0  0  0  0  0  0  0  0  0  0  0
    1.4090   11.7700   -3.4480 C   0  0  1  0  0  0  0  0  0  0  0  0
    2.9070   11.5640   -3.8280 C   0  0  0  0  0  0  0  0  0  0  0  0
    0.6320   10.5210   -4.0100 C   0  0  0  0  0  0  0  0  0  0  0  0
   -0.6730   10.1320   -3.2900 C   0  0  0  0  0  0  0  0  0  0  0  0
   -0.4610   10.0560   -1.7750 C   0  0  2  0  0  0  0  0  0  0  0  0
    0.5810    8.9210   -1.4930 C   0  0  0  0  0  0  0  0  0  0  0  0
   -2.1902    6.6518   -2.2043 H   0  0  0  0  0  0  0  0  0  0  0  0
   -3.1307    8.0541   -2.8173 H   0  0  0  0  0  0  0  0  0  0  0  0
   -1.3352    8.1077   -2.8173 H   0  0  0  0  0  0  0  0  0  0  0  0
   -1.5869    7.7345   -0.2359 H   0  0  0  0  0  0  0  0  0  0  0  0
   -3.7118    7.4625    0.4359 H   0  0  0  0  0  0  0  0  0  0  0  0
   -3.7879    9.2828    0.2791 H   0  0  0  0  0  0  0  0  0  0  0  0
   -5.2342    9.2021   -1.4129 H   0  0  0  0  0  0  0  0  0  0  0  0
   -4.3470    7.8387   -2.2141 H   0  0  0  0  0  0  0  0  0  0  0  0
   -6.1261    7.9091   -0.0015 H   0  0  0  0  0  0  0  0  0  0  0  0
   -5.4428    6.8828   -3.4793 H   0  0  0  0  0  0  0  0  0  0  0  0
   -6.5422    5.4812   -3.7107 H   0  0  0  0  0  0  0  0  0  0  0  0
   -7.2038    7.1513   -3.7107 H   0  0  0  0  0  0  0  0  0  0  0  0
   -8.0013    5.8580   -0.2304 H   0  0  0  0  0  0  0  0  0  0  0  0
   -8.7823    6.5109   -1.7104 H   0  0  0  0  0  0  0  0  0  0  0  0
   -8.1086    4.8457   -1.7104 H   0  0  0  0  0  0  0  0  0  0  0  0
   -2.5915   10.2872   -1.3472 H   0  0  0  0  0  0  0  0  0  0  0  0
   -2.1185   10.8662    0.9500 H   0  0  0  0  0  0  0  0  0  0  0  0
   -1.0392    9.4706    1.1606 H   0  0  0  0  0  0  0  0  0  0  0  0
   -0.2019   12.1803    0.8128 H   0  0  0  0  0  0  0  0  0  0  0  0
    0.8630   10.7875    0.6396 H   0  0  0  0  0  0  0  0  0  0  0  0
   -1.4574   12.9843   -0.5404 H   0  0  0  0  0  0  0  0  0  0  0  0
   -0.6344   13.4206   -2.0762 H   0  0  0  0  0  0  0  0  0  0  0  0
   -1.9413   12.1883   -2.0762 H   0  0  0  0  0  0  0  0  0  0  0  0
    1.9990   11.0510   -1.4827 H   0  0  0  0  0  0  0  0  0  0  0  0
    1.6174   13.3167   -0.3165 H   0  0  0  0  0  0  0  0  0  0  0  0
    3.0504   13.0540   -1.4417 H   0  0  0  0  0  0  0  0  0  0  0  0
    1.7996   15.3615   -1.6668 H   0  0  0  0  0  0  0  0  0  0  0  0
   -0.2377   12.9081   -4.1421 H   0  0  0  0  0  0  0  0  0  0  0  0
    2.4479   13.3855   -5.5764 H   0  0  0  0  0  0  0  0  0  0  0  0
    1.0670   12.3530   -6.1579 H   0  0  0  0  0  0  0  0  0  0  0  0
    1.1522   14.5394   -7.3122 H   0  0  0  0  0  0  0  0  0  0  0  0
   -0.3572   14.3093   -6.3454 H   0  0  0  0  0  0  0  0  0  0  0  0
    0.4388   16.5478   -6.0100 H   0  0  0  0  0  0  0  0  0  0  0  0
    2.6260   16.6640   -4.8980 H   0  0  0  0  0  0  0  0  0  0  0  0
   -1.3121   15.7023   -2.9312 H   0  0  0  0  0  0  0  0  0  0  0  0
   -1.3720   16.6009   -4.4855 H   0  0  0  0  0  0  0  0  0  0  0  0
   -1.3848   14.8046   -4.4855 H   0  0  0  0  0  0  0  0  0  0  0  0
    0.9843   16.8651   -2.2616 H   0  0  0  0  0  0  0  0  0  0  0  0
    2.0663   17.2146   -3.6522 H   0  0  0  0  0  0  0  0  0  0  0  0
    0.3775   17.8267   -3.6522 H   0  0  0  0  0  0  0  0  0  0  0  0
    3.5097   11.4811   -2.9115 H   0  0  0  0  0  0  0  0  0  0  0  0
    3.0117   10.6430   -4.4203 H   0  0  0  0  0  0  0  0  0  0  0  0
    3.2564   12.4225   -4.4203 H   0  0  0  0  0  0  0  0  0  0  0  0
    0.3826   10.7297   -5.0608 H   0  0  0  0  0  0  0  0  0  0  0  0
    1.3098    9.6682   -3.8571 H   0  0  0  0  0  0  0  0  0  0  0  0
   -1.4432   10.8865   -3.5083 H   0  0  0  0  0  0  0  0  0  0  0  0
   -0.9909    9.1424   -3.6500 H   0  0  0  0  0  0  0  0  0  0  0  0
    0.6986    8.7929   -0.4068 H   0  0  0  0  0  0  0  0  0  0  0  0
    0.2264    7.9791   -1.9371 H   0  0  0  0  0  0  0  0  0  0  0  0
    1.5497    9.1939   -1.9371 H   0  0  0  0  0  0  0  0  0  0  0  0
  1  2  1  0
  2  3  1  0
  3  4  1  0
  4  5  1  0
  5  6  1  0
  6  7  1  0
  7  8  1  0
  7  9  1  0
  2 10  1  0
 10 11  1  0
 11 12  1  0
 12 13  1  0
 13 14  1  1
 13 15  1  0
 15 16  1  0
 16 17  1  0
 17 18  2  0
 18 19  1  0
 19 20  1  0
 20 21  1  0
 21 22  1  0
 22 23  1  0
 22 24  1  0
 24 25  1  0
 24 26  1  0
 19 27  1  0
 27 28  1  1
 27 29  1  0
 29 30  1  0
 30 31  1  0
 31 32  1  6
  7  5  1  0
 31 10  1  0
 31 13  1  0
 27 15  1  0
 24 18  1  0
  1 33  1  0
  1 34  1  0
  1 35  1  0
  2 36  1  1
  3 37  1  0
  3 38  1  0
  4 39  1  0
  4 40  1  0
  5 41  1  1
  8 42  1  0
  8 43  1  0
  8 44  1  0
  9 45  1  0
  9 46  1  0
  9 47  1  0
 10 48  1  6
 11 49  1  0
 11 50  1  0
 12 51  1  0
 12 52  1  0
 14 53  1  0
 14 54  1  0
 14 55  1  0
 15 56  1  1
 16 57  1  0
 16 58  1  0
 17 59  1  0
 19 60  1  6
 20 61  1  0
 20 62  1  0
 21 63  1  0
 21 64  1  0
 22 65  1  6
 23 66  1  0
 25 67  1  0
 25 68  1  0
 25 69  1  0
 26 70  1  0
 26 71  1  0
 26 72  1  0
 28 73  1  0
 28 74  1  0
 28 75  1  0
 29 76  1  0
 29 77  1  0
 30 78  1  0
 30 79  1  0
 32 80  1  0
 32 81  1  0
 32 82  1  0
M  END
>  <meeko>  (10) 
{"is_sidechain": [false], "intermolecular_energy": 2.731, "internal_energy": -0.839}

$$$$
EPH_relaxed_0001_pdb2pqr_Repair_25_r2_0001_out
     RDKit          3D

 82 86  0  0  0  0  0  0  0  0999 V2000
    1.6910   10.7410   -4.7230 C   0  0  0  0  0  0  0  0  0  0  0  0
    0.8870   10.5490   -3.4340 C   0  0  2  0  0  0  0  0  0  0  0  0
   -0.2620    9.5370   -3.6110 C   0  0  0  0  0  0  0  0  0  0  0  0
   -0.2690    8.4230   -2.5610 C   0  0  0  0  0  0  0  0  0  0  0  0
    0.0360    8.9500   -1.1920 C   0  0  2  0  0  0  0  0  0  0  0  0
   -0.2930    8.0570   -0.1190 O   0  0  0  0  0  0  0  0  0  0  0  0
   -1.0320    9.2890   -0.1690 C   0  0  0  0  0  0  0  0  0  0  0  0
   -2.4870    9.1130   -0.4720 C   0  0  0  0  0  0  0  0  0  0  0  0
   -0.6900   10.2410    0.9340 C   0  0  0  0  0  0  0  0  0  0  0  0
    0.3330   11.8890   -2.9620 C   0  0  1  0  0  0  0  0  0  0  0  0
   -1.0470   11.7520   -2.2650 C   0  0  0  0  0  0  0  0  0  0  0  0
   -1.0850   12.8170   -1.1380 C   0  0  0  0  0  0  0  0  0  0  0  0
    0.1190   13.7410   -1.4340 C   0  0  1  0  0  0  0  0  0  0  0  0
   -0.3860   14.7150   -2.5440 C   0  0  0  0  0  0  0  0  0  0  0  0
    0.7110   14.5160   -0.2120 C   0  0  2  0  0  0  0  0  0  0  0  0
   -0.2540   15.5070    0.4630 C   0  0  0  0  0  0  0  0  0  0  0  0
   -0.2200   16.8980   -0.0780 C   0  0  0  0  0  0  0  0  0  0  0  0
    0.7450   17.4080   -0.8660 C   0  0  0  0  0  0  0  0  0  0  0  0
    1.9960   16.5890   -1.2100 C   0  0  1  0  0  0  0  0  0  0  0  0
    3.2590   17.4690   -1.0240 C   0  0  0  0  0  0  0  0  0  0  0  0
    3.1830   18.7750   -1.8090 C   0  0  0  0  0  0  0  0  0  0  0  0
    1.9590   19.5880   -1.3960 C   0  0  2  0  0  0  0  0  0  0  0  0
    2.1270   20.0200   -0.0430 O   0  0  0  0  0  0  0  0  0  0  0  0
    0.6260   18.8010   -1.5320 C   0  0  0  0  0  0  0  0  0  0  0  0
    0.2930   18.5950   -3.0310 C   0  0  0  0  0  0  0  0  0  0  0  0
   -0.5120   19.6840   -0.9520 C   0  0  0  0  0  0  0  0  0  0  0  0
    2.1220   15.1790   -0.4870 C   0  0  1  0  0  0  0  0  0  0  0  0
    2.8100   15.3530    0.9020 C   0  0  0  0  0  0  0  0  0  0  0  0
    3.0650   14.2480   -1.3360 C   0  0  0  0  0  0  0  0  0  0  0  0
    2.4010   13.4170   -2.4510 C   0  0  0  0  0  0  0  0  0  0  0  0
    1.1680   12.6780   -1.9230 C   0  0  2  0  0  0  0  0  0  0  0  0
    1.6480   11.6740   -0.8200 C   0  0  0  0  0  0  0  0  0  0  0  0
    2.7326   10.9898   -4.4718 H   0  0  0  0  0  0  0  0  0  0  0  0
    1.6676    9.8120   -5.3116 H   0  0  0  0  0  0  0  0  0  0  0  0
    1.2503   11.5592   -5.3116 H   0  0  0  0  0  0  0  0  0  0  0  0
    1.5714   10.1415   -2.6753 H   0  0  0  0  0  0  0  0  0  0  0  0
   -1.2162   10.0805   -3.5469 H   0  0  0  0  0  0  0  0  0  0  0  0
   -0.1178    9.0553   -4.5894 H   0  0  0  0  0  0  0  0  0  0  0  0
   -1.2627    7.9514   -2.5482 H   0  0  0  0  0  0  0  0  0  0  0  0
    0.5099    7.6940   -2.8292 H   0  0  0  0  0  0  0  0  0  0  0  0
    0.8959    9.5180   -1.5767 H   0  0  0  0  0  0  0  0  0  0  0  0
   -3.0519    9.0447    0.4694 H   0  0  0  0  0  0  0  0  0  0  0  0
   -2.8471    9.9741   -1.0540 H   0  0  0  0  0  0  0  0  0  0  0  0
   -2.6314    8.1908   -1.0540 H   0  0  0  0  0  0  0  0  0  0  0  0
   -0.8646    9.7549    1.9052 H   0  0  0  0  0  0  0  0  0  0  0  0
    0.3683   10.5302    0.8537 H   0  0  0  0  0  0  0  0  0  0  0  0
   -1.3223   11.1376    0.8537 H   0  0  0  0  0  0  0  0  0  0  0  0
    0.3173   12.4299   -3.9197 H   0  0  0  0  0  0  0  0  0  0  0  0
   -1.8563   11.9352   -2.9872 H   0  0  0  0  0  0  0  0  0  0  0  0
   -1.1856   10.7397   -1.8575 H   0  0  0  0  0  0  0  0  0  0  0  0
   -2.0270   13.3840   -1.1711 H   0  0  0  0  0  0  0  0  0  0  0  0
   -1.0287   12.3664   -0.1361 H   0  0  0  0  0  0  0  0  0  0  0  0
   -0.8442   15.5986   -2.0757 H   0  0  0  0  0  0  0  0  0  0  0  0
    0.4625   15.0298   -3.1693 H   0  0  0  0  0  0  0  0  0  0  0  0
   -1.1322   14.2030   -3.1693 H   0  0  0  0  0  0  0  0  0  0  0  0
    0.8731   13.7119    0.5209 H   0  0  0  0  0  0  0  0  0  0  0  0
   -1.2769   15.1205    0.3433 H   0  0  0  0  0  0  0  0  0  0  0  0
    0.0690   15.5802    1.5120 H   0  0  0  0  0  0  0  0  0  0  0  0
   -1.0544   17.5627    0.1901 H   0  0  0  0  0  0  0  0  0  0  0  0
    1.8921   16.3053   -2.2677 H   0  0  0  0  0  0  0  0  0  0  0  0
    3.3695   17.7058    0.0445 H   0  0  0  0  0  0  0  0  0  0  0  0
    4.1208   16.9007   -1.4040 H   0  0  0  0  0  0  0  0  0  0  0  0
    4.0903   19.3657   -1.6141 H   0  0  0  0  0  0  0  0  0  0  0  0
    3.1021   18.5373   -2.8800 H   0  0  0  0  0  0  0  0  0  0  0  0
    1.8873   20.4461   -2.0805 H   0  0  0  0  0  0  0  0  0  0  0  0
    1.8410   20.9480    0.0080 H   0  0  0  0  0  0  0  0  0  0  0  0
   -0.6391   18.0184   -3.1236 H   0  0  0  0  0  0  0  0  0  0  0  0
    0.1684   19.5740   -3.5168 H   0  0  0  0  0  0  0  0  0  0  0  0
    1.1134   18.0464   -3.5168 H   0  0  0  0  0  0  0  0  0  0  0  0
   -0.4747   19.6550    0.1470 H   0  0  0  0  0  0  0  0  0  0  0  0
   -0.3832   20.7208   -1.2961 H   0  0  0  0  0  0  0  0  0  0  0  0
   -1.4843   19.3017   -1.2961 H   0  0  0  0  0  0  0  0  0  0  0  0
    2.0764   15.1675    1.7004 H   0  0  0  0  0  0  0  0  0  0  0  0
    3.6396   14.6364    0.9926 H   0  0  0  0  0  0  0  0  0  0  0  0
    3.1992   16.3779    0.9926 H   0  0  0  0  0  0  0  0  0  0  0  0
    3.8274   14.8865   -1.8061 H   0  0  0  0  0  0  0  0  0  0  0  0
    3.4584   13.5093   -0.6222 H   0  0  0  0  0  0  0  0  0  0  0  0
    2.0961   14.0884   -3.2672 H   0  0  0  0  0  0  0  0  0  0  0  0
    3.1264   12.6742   -2.8144 H   0  0  0  0  0  0  0  0  0  0  0  0
    1.4454   12.0977    0.1747 H   0  0  0  0  0  0  0  0  0  0  0  0
    1.1075   10.7223   -0.9302 H   0  0  0  0  0  0  0  0  0  0  0  0
    2.7281   11.4971   -0.9302 H   0  0  0  0  0  0  0  0  0  0  0  0
  1  2  1  0
  2  3  1  0
  3  4  1  0
  4  5  1  0
  5  6  1  0
  6  7  1  0
  7  8  1  0
  7  9  1  0
  2 10  1  0
 10 11  1  0
 11 12  1  0
 12 13  1  0
 13 14  1  6
 13 15  1  0
 15 16  1  0
 16 17  1  0
 17 18  2  0
 18 19  1  0
 19 20  1  0
 20 21  1  0
 21 22  1  0
 22 23  1  0
 22 24  1  0
 24 25  1  0
 24 26  1  0
 19 27  1  0
 27 28  1  1
 27 29  1  0
 29 30  1  0
 30 31  1  0
 31 32  1  1
  7  5  1  0
 31 10  1  0
 31 13  1  0
 27 15  1  0
 24 18  1  0
  1 33  1  0
  1 34  1  0
  1 35  1  0
  2 36  1  1
  3 37  1  0
  3 38  1  0
  4 39  1  0
  4 40  1  0
  5 41  1  6
  8 42  1  0
  8 43  1  0
  8 44  1  0
  9 45  1  0
  9 46  1  0
  9 47  1  0
 10 48  1  6
 11 49  1  0
 11 50  1  0
 12 51  1  0
 12 52  1  0
 14 53  1  0
 14 54  1  0
 14 55  1  0
 15 56  1  1
 16 57  1  0
 16 58  1  0
 17 59  1  0
 19 60  1  6
 20 61  1  0
 20 62  1  0
 21 63  1  0
 21 64  1  0
 22 65  1  6
 23 66  1  0
 25 67  1  0
 25 68  1  0
 25 69  1  0
 26 70  1  0
 26 71  1  0
 26 72  1  0
 28 73  1  0
 28 74  1  0
 28 75  1  0
 29 76  1  0
 29 77  1  0
 30 78  1  0
 30 79  1  0
 32 80  1  0
 32 81  1  0
 32 82  1  0
M  END
>  <meeko>  (11) 
{"is_sidechain": [false], "intermolecular_energy": 2.731, "internal_energy": -0.839}

$$$$
EPH_relaxed_0001_pdb2pqr_Repair_25_r2_0001_out
     RDKit          3D

 82 86  0  0  0  0  0  0  0  0999 V2000
    0.6750    9.4390   -0.0300 C   0  0  0  0  0  0  0  0  0  0  0  0
   -0.5200   10.3950   -0.0290 C   0  0  2  0  0  0  0  0  0  0  0  0
   -1.2190   10.4530   -1.4030 C   0  0  0  0  0  0  0  0  0  0  0  0
   -0.4620    9.7140   -2.5090 C   0  0  0  0  0  0  0  0  0  0  0  0
   -0.1310   10.6210   -3.6550 C   0  0  2  0  0  0  0  0  0  0  0  0
    0.4100    9.9590   -4.8060 O   0  0  0  0  0  0  0  0  0  0  0  0
    1.2850   10.8800   -4.1350 C   0  0  0  0  0  0  0  0  0  0  0  0
    2.4630   10.2310   -3.4780 C   0  0  0  0  0  0  0  0  0  0  0  0
    1.5600   12.1280   -4.9150 C   0  0  0  0  0  0  0  0  0  0  0  0
   -0.0690   11.7910    0.3850 C   0  0  1  0  0  0  0  0  0  0  0  0
    1.0310   11.7630    1.4790 C   0  0  0  0  0  0  0  0  0  0  0  0
    1.9760   12.9590    1.1950 C   0  0  0  0  0  0  0  0  0  0  0  0
    1.2120   13.8220    0.1620 C   0  0  1  0  0  0  0  0  0  0  0  0
    0.2010   14.6590    1.0070 C   0  0  0  0  0  0  0  0  0  0  0  0
    2.0880   14.7330   -0.7590 C   0  0  2  0  0  0  0  0  0  0  0  0
    2.9000   15.8140   -0.0250 C   0  0  0  0  0  0  0  0  0  0  0  0
    2.2100   17.1270    0.1430 C   0  0  0  0  0  0  0  0  0  0  0  0
    1.1070   17.5210   -0.5210 C   0  0  0  0  0  0  0  0  0  0  0  0
    0.4970   16.6460   -1.6240 C   0  0  1  0  0  0  0  0  0  0  0  0
    0.1750   17.5240   -2.8620 C   0  0  0  0  0  0  0  0  0  0  0  0
   -0.7020   18.7240   -2.5170 C   0  0  0  0  0  0  0  0  0  0  0  0
   -0.0350   19.6000   -1.4600 C   0  0  2  0  0  0  0  0  0  0  0  0
    1.1380   20.1940   -2.0260 O   0  0  0  0  0  0  0  0  0  0  0  0
    0.3440   18.8220   -0.1690 C   0  0  0  0  0  0  0  0  0  0  0  0
   -0.9420   18.4370    0.6040 C   0  0  0  0  0  0  0  0  0  0  0  0
    1.1340   19.7870    0.7560 C   0  0  0  0  0  0  0  0  0  0  0  0
    1.3130   15.3350   -2.0000 C   0  0  1  0  0  0  0  0  0  0  0  0
    2.3890   15.6700   -3.0770 C   0  0  0  0  0  0  0  0  0  0  0  0
    0.3350   14.2920   -2.6580 C   0  0  0  0  0  0  0  0  0  0  0  0
   -0.4110   13.3400   -1.7030 C   0  0  0  0  0  0  0  0  0  0  0  0
    0.5570   12.6900   -0.7110 C   0  0  2  0  0  0  0  0  0  0  0  0
    1.5730   11.8240   -1.5300 C   0  0  0  0  0  0  0  0  0  0  0  0
    0.9618    9.2095    1.0069 H   0  0  0  0  0  0  0  0  0  0  0  0
    0.4000    8.5088   -0.5488 H   0  0  0  0  0  0  0  0  0  0  0  0
    1.5221    9.9115   -0.5488 H   0  0  0  0  0  0  0  0  0  0  0  0
   -1.2508   10.0098    0.6973 H   0  0  0  0  0  0  0  0  0  0  0  0
   -2.2174   10.0020   -1.3042 H   0  0  0  0  0  0  0  0  0  0  0  0
   -1.2646   11.5121   -1.6965 H   0  0  0  0  0  0  0  0  0  0  0  0
    0.4725    9.3099   -2.0927 H   0  0  0  0  0  0  0  0  0  0  0  0
   -1.1071    8.9066   -2.8858 H   0  0  0  0  0  0  0  0  0  0  0  0
   -0.9549   11.2988   -3.3871 H   0  0  0  0  0  0  0  0  0  0  0  0
    2.3529   10.2917   -2.3852 H   0  0  0  0  0  0  0  0  0  0  0  0
    2.5175    9.1755   -3.7830 H   0  0  0  0  0  0  0  0  0  0  0  0
    3.3843   10.7488   -3.7830 H   0  0  0  0  0  0  0  0  0  0  0  0
    1.7436   12.9613   -4.2208 H   0  0  0  0  0  0  0  0  0  0  0  0
    2.4463   11.9765   -5.5486 H   0  0  0  0  0  0  0  0  0  0  0  0
    0.6921   12.3631   -5.5486 H   0  0  0  0  0  0  0  0  0  0  0  0
   -1.0339   12.2087    0.7084 H   0  0  0  0  0  0  0  0  0  0  0  0
    0.5768   11.8675    2.4754 H   0  0  0  0  0  0  0  0  0  0  0  0
    1.5823   10.8113    1.4601 H   0  0  0  0  0  0  0  0  0  0  0  0
    2.1656   13.5313    2.1150 H   0  0  0  0  0  0  0  0  0  0  0  0
    2.9592   12.6352    0.8230 H   0  0  0  0  0  0  0  0  0  0  0  0
    0.3960   14.4976    2.0775 H   0  0  0  0  0  0  0  0  0  0  0  0
    0.3201   15.7264    0.7695 H   0  0  0  0  0  0  0  0  0  0  0  0
   -0.8254   14.3428    0.7695 H   0  0  0  0  0  0  0  0  0  0  0  0
    2.8279   14.0236   -1.1581 H   0  0  0  0  0  0  0  0  0  0  0  0
    3.1493   15.4308    0.9755 H   0  0  0  0  0  0  0  0  0  0  0  0
    3.7807   16.0118   -0.6537 H   0  0  0  0  0  0  0  0  0  0  0  0
    2.6388   17.8319    0.8705 H   0  0  0  0  0  0  0  0  0  0  0  0
   -0.4336   16.2342   -1.2064 H   0  0  0  0  0  0  0  0  0  0  0  0
    1.1200   17.8896   -3.2903 H   0  0  0  0  0  0  0  0  0  0  0  0
   -0.3799   16.9002   -3.5781 H   0  0  0  0  0  0  0  0  0  0  0  0
   -0.8697   19.3207   -3.4258 H   0  0  0  0  0  0  0  0  0  0  0  0
   -1.6585   18.3568   -2.1166 H   0  0  0  0  0  0  0  0  0  0  0  0
   -0.7638   20.3676   -1.1606 H   0  0  0  0  0  0  0  0  0  0  0  0
    0.9050   20.5160   -2.9130 H   0  0  0  0  0  0  0  0  0  0  0  0
   -0.7506   18.4943    1.6857 H   0  0  0  0  0  0  0  0  0  0  0  0
   -1.7519   19.1321    0.3376 H   0  0  0  0  0  0  0  0  0  0  0  0
   -1.2367   17.4112    0.3376 H   0  0  0  0  0  0  0  0  0  0  0  0
    0.9292   19.5368    1.8074 H   0  0  0  0  0  0  0  0  0  0  0  0
    2.2112   19.6850    0.5579 H   0  0  0  0  0  0  0  0  0  0  0  0
    0.8213   20.8228    0.5579 H   0  0  0  0  0  0  0  0  0  0  0  0
    3.3262   15.9618   -2.5806 H   0  0  0  0  0  0  0  0  0  0  0  0
    2.5670   14.7848   -3.7052 H   0  0  0  0  0  0  0  0  0  0  0  0
    2.0330   16.4998   -3.7052 H   0  0  0  0  0  0  0  0  0  0  0  0
   -0.4214   14.8560   -3.2236 H   0  0  0  0  0  0  0  0  0  0  0  0
    0.9774   13.6411   -3.2692 H   0  0  0  0  0  0  0  0  0  0  0  0
   -1.1685   13.9103   -1.1455 H   0  0  0  0  0  0  0  0  0  0  0  0
   -0.8873   12.5475   -2.2989 H   0  0  0  0  0  0  0  0  0  0  0  0
    2.2236   11.2695   -0.8377 H   0  0  0  0  0  0  0  0  0  0  0  0
    1.0219   11.1136   -2.1637 H   0  0  0  0  0  0  0  0  0  0  0  0
    2.1871   12.4807   -2.1637 H   0  0  0  0  0  0  0  0  0  0  0  0
  1  2  1  0
  2  3  1  0
  3  4  1  0
  4  5  1  0
  5  6  1  0
  6  7  1  0
  7  8  1  0
  7  9  1  0
  2 10  1  0
 10 11  1  0
 11 12  1  0
 12 13  1  0
 13 14  1  1
 13 15  1  0
 15 16  1  0
 16 17  1  0
 17 18  2  0
 18 19  1  0
 19 20  1  0
 20 21  1  0
 21 22  1  0
 22 23  1  0
 22 24  1  0
 24 25  1  0
 24 26  1  0
 19 27  1  0
 27 28  1  6
 27 29  1  0
 29 30  1  0
 30 31  1  0
 31 32  1  6
  7  5  1  0
 31 10  1  0
 31 13  1  0
 27 15  1  0
 24 18  1  0
  1 33  1  0
  1 34  1  0
  1 35  1  0
  2 36  1  1
  3 37  1  0
  3 38  1  0
  4 39  1  0
  4 40  1  0
  5 41  1  6
  8 42  1  0
  8 43  1  0
  8 44  1  0
  9 45  1  0
  9 46  1  0
  9 47  1  0
 10 48  1  1
 11 49  1  0
 11 50  1  0
 12 51  1  0
 12 52  1  0
 14 53  1  0
 14 54  1  0
 14 55  1  0
 15 56  1  6
 16 57  1  0
 16 58  1  0
 17 59  1  0
 19 60  1  1
 20 61  1  0
 20 62  1  0
 21 63  1  0
 21 64  1  0
 22 65  1  1
 23 66  1  0
 25 67  1  0
 25 68  1  0
 25 69  1  0
 26 70  1  0
 26 71  1  0
 26 72  1  0
 28 73  1  0
 28 74  1  0
 28 75  1  0
 29 76  1  0
 29 77  1  0
 30 78  1  0
 30 79  1  0
 32 80  1  0
 32 81  1  0
 32 82  1  0
M  END
>  <meeko>  (12) 
{"is_sidechain": [false], "intermolecular_energy": 2.731, "internal_energy": -0.839}

$$$$
EPH_relaxed_0001_pdb2pqr_Repair_25_r2_0001_out
     RDKit          3D

 82 86  0  0  0  0  0  0  0  0999 V2000
   -0.7160   18.5240   -1.4310 C   0  0  0  0  0  0  0  0  0  0  0  0
    0.7130   18.1720   -1.0100 C   0  0  2  0  0  0  0  0  0  0  0  0
    1.7440   19.1810   -1.5560 C   0  0  0  0  0  0  0  0  0  0  0  0
    2.3740   20.0630   -0.4750 C   0  0  0  0  0  0  0  0  0  0  0  0
    3.5140   19.3720    0.2110 C   0  0  2  0  0  0  0  0  0  0  0  0
    3.1280   18.2940    1.0740 O   0  0  0  0  0  0  0  0  0  0  0  0
    3.7450   19.4250    1.7090 C   0  0  0  0  0  0  0  0  0  0  0  0
    2.8290   20.1900    2.6130 C   0  0  0  0  0  0  0  0  0  0  0  0
    5.1200   19.1470    2.2320 C   0  0  0  0  0  0  0  0  0  0  0  0
    1.0620   16.7650   -1.4800 C   0  0  1  0  0  0  0  0  0  0  0  0
    2.5060   16.6620   -2.0380 C   0  0  0  0  0  0  0  0  0  0  0  0
    3.0380   15.2580   -1.6500 C   0  0  0  0  0  0  0  0  0  0  0  0
    1.7850   14.4840   -1.1790 C   0  0  1  0  0  0  0  0  0  0  0  0
    1.0960   13.9980   -2.4930 C   0  0  0  0  0  0  0  0  0  0  0  0
    2.0350   13.3010   -0.1870 C   0  0  2  0  0  0  0  0  0  0  0  0
    2.8910   12.1520   -0.7460 C   0  0  0  0  0  0  0  0  0  0  0  0
    2.1300   11.0570   -1.4170 C   0  0  0  0  0  0  0  0  0  0  0  0
    0.8030   10.8540   -1.3190 C   0  0  0  0  0  0  0  0  0  0  0  0
   -0.0600   11.7170   -0.3900 C   0  0  1  0  0  0  0  0  0  0  0  0
   -1.0060   10.8050    0.4340 C   0  0  0  0  0  0  0  0  0  0  0  0
   -1.8420    9.8820   -0.4470 C   0  0  0  0  0  0  0  0  0  0  0  0
   -0.9490    8.9990   -1.3140 C   0  0  2  0  0  0  0  0  0  0  0  0
   -0.2320    8.0950   -0.4670 O   0  0  0  0  0  0  0  0  0  0  0  0
    0.0550    9.8080   -2.1820 C   0  0  0  0  0  0  0  0  0  0  0  0
   -0.7110   10.5580   -3.3000 C   0  0  0  0  0  0  0  0  0  0  0  0
    0.9890    8.7960   -2.9000 C   0  0  0  0  0  0  0  0  0  0  0  0
    0.7270   12.7580    0.5180 C   0  0  1  0  0  0  0  0  0  0  0  0
    1.1860   12.0710    1.8400 C   0  0  0  0  0  0  0  0  0  0  0  0
   -0.2520   13.9180    0.9370 C   0  0  0  0  0  0  0  0  0  0  0  0
   -0.3660   15.1140   -0.0270 C   0  0  0  0  0  0  0  0  0  0  0  0
    1.0200   15.6320   -0.4240 C   0  0  2  0  0  0  0  0  0  0  0  0
    1.7280   16.1480    0.8740 C   0  0  0  0  0  0  0  0  0  0  0  0
   -1.3352   18.6765   -0.5347 H   0  0  0  0  0  0  0  0  0  0  0  0
   -0.7050   19.4463   -2.0304 H   0  0  0  0  0  0  0  0  0  0  0  0
   -1.1346   17.7021   -2.0304 H   0  0  0  0  0  0  0  0  0  0  0  0
    0.7553   18.2179    0.0882 H   0  0  0  0  0  0  0  0  0  0  0  0
    2.5463   18.6204   -2.0580 H   0  0  0  0  0  0  0  0  0  0  0  0
    1.2059   19.8501   -2.2436 H   0  0  0  0  0  0  0  0  0  0  0  0
    2.7462   20.9871   -0.9413 H   0  0  0  0  0  0  0  0  0  0  0  0
    1.6038   20.2837    0.2787 H   0  0  0  0  0  0  0  0  0  0  0  0
    4.1773   19.5655   -0.6449 H   0  0  0  0  0  0  0  0  0  0  0  0
    3.0853   19.9760    3.6611 H   0  0  0  0  0  0  0  0  0  0  0  0
    2.9401   21.2674    2.4210 H   0  0  0  0  0  0  0  0  0  0  0  0
    1.7886   19.8887    2.4210 H   0  0  0  0  0  0  0  0  0  0  0  0
    5.1016   19.1507    3.3318 H   0  0  0  0  0  0  0  0  0  0  0  0
    5.4563   18.1627    1.8742 H   0  0  0  0  0  0  0  0  0  0  0  0
    5.8123   19.9233    1.8742 H   0  0  0  0  0  0  0  0  0  0  0  0
    0.2656   16.6167   -2.2241 H   0  0  0  0  0  0  0  0  0  0  0  0
    2.4979   16.7747   -3.1322 H   0  0  0  0  0  0  0  0  0  0  0  0
    3.1463   17.4547   -1.6238 H   0  0  0  0  0  0  0  0  0  0  0  0
    3.4970   14.7628   -2.5184 H   0  0  0  0  0  0  0  0  0  0  0  0
    3.8157   15.3059   -0.8735 H   0  0  0  0  0  0  0  0  0  0  0  0
    0.2209   13.3807   -2.2415 H   0  0  0  0  0  0  0  0  0  0  0  0
    0.7731   14.8693   -3.0816 H   0  0  0  0  0  0  0  0  0  0  0  0
    1.8085   13.4015   -3.0816 H   0  0  0  0  0  0  0  0  0  0  0  0
    2.6451   13.7747    0.5962 H   0  0  0  0  0  0  0  0  0  0  0  0
    3.5927   12.5766   -1.4790 H   0  0  0  0  0  0  0  0  0  0  0  0
    3.3852   11.6911    0.1219 H   0  0  0  0  0  0  0  0  0  0  0  0
    2.7017   10.3572   -2.0442 H   0  0  0  0  0  0  0  0  0  0  0  0
   -0.6516   12.3722   -1.0463 H   0  0  0  0  0  0  0  0  0  0  0  0
   -0.3986   10.1891    1.1135 H   0  0  0  0  0  0  0  0  0  0  0  0
   -1.6986   11.4558    0.9879 H   0  0  0  0  0  0  0  0  0  0  0  0
   -2.4677    9.2427    0.1932 H   0  0  0  0  0  0  0  0  0  0  0  0
   -2.4704   10.4996   -1.1055 H   0  0  0  0  0  0  0  0  0  0  0  0
   -1.6018    8.4556   -2.0130 H   0  0  0  0  0  0  0  0  0  0  0  0
    0.1500    8.6140    0.2600 H   0  0  0  0  0  0  0  0  0  0  0  0
   -1.4272   11.2592   -2.8469 H   0  0  0  0  0  0  0  0  0  0  0  0
    0.0035   11.1154   -3.9235 H   0  0  0  0  0  0  0  0  0  0  0  0
   -1.2532    9.8319   -3.9235 H   0  0  0  0  0  0  0  0  0  0  0  0
    1.5347    8.2047   -2.1499 H   0  0  0  0  0  0  0  0  0  0  0  0
    0.3869    8.1241   -3.5293 H   0  0  0  0  0  0  0  0  0  0  0  0
    1.7069    9.3424   -3.5293 H   0  0  0  0  0  0  0  0  0  0  0  0
    0.8054   12.6407    2.7006 H   0  0  0  0  0  0  0  0  0  0  0  0
    0.7914   11.0448    1.8761 H   0  0  0  0  0  0  0  0  0  0  0  0
    2.2850   12.0427    1.8761 H   0  0  0  0  0  0  0  0  0  0  0  0
   -1.2561   13.4824    1.0468 H   0  0  0  0  0  0  0  0  0  0  0  0
    0.1743   14.3339    1.8618 H   0  0  0  0  0  0  0  0  0  0  0  0
   -0.9044   14.7966   -0.9322 H   0  0  0  0  0  0  0  0  0  0  0  0
   -0.9108   15.9234    0.4810 H   0  0  0  0  0  0  0  0  0  0  0  0
    1.1991   15.7625    1.7581 H   0  0  0  0  0  0  0  0  0  0  0  0
    2.7701   15.7961    0.8878 H   0  0  0  0  0  0  0  0  0  0  0  0
    1.7121   17.2478    0.8878 H   0  0  0  0  0  0  0  0  0  0  0  0
  1  2  1  0
  2  3  1  0
  3  4  1  0
  4  5  1  0
  5  6  1  0
  6  7  1  0
  7  8  1  0
  7  9  1  0
  2 10  1  0
 10 11  1  0
 11 12  1  0
 12 13  1  0
 13 14  1  6
 13 15  1  0
 15 16  1  0
 16 17  1  0
 17 18  2  0
 18 19  1  0
 19 20  1  0
 20 21  1  0
 21 22  1  0
 22 23  1  0
 22 24  1  0
 24 25  1  0
 24 26  1  0
 19 27  1  0
 27 28  1  1
 27 29  1  0
 29 30  1  0
 30 31  1  0
 31 32  1  1
  7  5  1  0
 31 10  1  0
 31 13  1  0
 27 15  1  0
 24 18  1  0
  1 33  1  0
  1 34  1  0
  1 35  1  0
  2 36  1  1
  3 37  1  0
  3 38  1  0
  4 39  1  0
  4 40  1  0
  5 41  1  6
  8 42  1  0
  8 43  1  0
  8 44  1  0
  9 45  1  0
  9 46  1  0
  9 47  1  0
 10 48  1  6
 11 49  1  0
 11 50  1  0
 12 51  1  0
 12 52  1  0
 14 53  1  0
 14 54  1  0
 14 55  1  0
 15 56  1  1
 16 57  1  0
 16 58  1  0
 17 59  1  0
 19 60  1  6
 20 61  1  0
 20 62  1  0
 21 63  1  0
 21 64  1  0
 22 65  1  6
 23 66  1  0
 25 67  1  0
 25 68  1  0
 25 69  1  0
 26 70  1  0
 26 71  1  0
 26 72  1  0
 28 73  1  0
 28 74  1  0
 28 75  1  0
 29 76  1  0
 29 77  1  0
 30 78  1  0
 30 79  1  0
 32 80  1  0
 32 81  1  0
 32 82  1  0
M  END
>  <meeko>  (13) 
{"is_sidechain": [false], "intermolecular_energy": 2.731, "internal_energy": -0.839}

$$$$
EPH_relaxed_0001_pdb2pqr_Repair_25_r2_0001_out
     RDKit          3D

 82 86  0  0  0  0  0  0  0  0999 V2000
    0.8710   14.8940   -2.6080 C   0  0  0  0  0  0  0  0  0  0  0  0
    1.1650   14.2090   -3.9450 C   0  0  2  0  0  0  0  0  0  0  0  0
    0.4840   14.9270   -5.1280 C   0  0  0  0  0  0  0  0  0  0  0  0
    1.1320   14.6310   -6.4830 C   0  0  0  0  0  0  0  0  0  0  0  0
    0.8750   15.7280   -7.4720 C   0  0  2  0  0  0  0  0  0  0  0  0
    0.3700   15.2860   -8.7380 O   0  0  0  0  0  0  0  0  0  0  0  0
    1.6670   15.9030   -8.7530 C   0  0  0  0  0  0  0  0  0  0  0  0
    2.7800   14.9700   -9.1160 C   0  0  0  0  0  0  0  0  0  0  0  0
    1.6870   17.2500   -9.4050 C   0  0  0  0  0  0  0  0  0  0  0  0
    0.7190   12.7530   -3.8930 C   0  0  1  0  0  0  0  0  0  0  0  0
    1.8550   11.7650   -4.2710 C   0  0  0  0  0  0  0  0  0  0  0  0
    1.6570   10.4990   -3.3980 C   0  0  0  0  0  0  0  0  0  0  0  0
    0.2410   10.6590   -2.7960 C   0  0  1  0  0  0  0  0  0  0  0  0
   -0.7300   10.1870   -3.9240 C   0  0  0  0  0  0  0  0  0  0  0  0
   -0.0270    9.9070   -1.4520 C   0  0  2  0  0  0  0  0  0  0  0  0
    0.0820    8.3740   -1.5290 C   0  0  0  0  0  0  0  0  0  0  0  0
   -1.1870    7.6590   -1.8560 C   0  0  0  0  0  0  0  0  0  0  0  0
   -2.4220    8.1930   -1.8010 C   0  0  0  0  0  0  0  0  0  0  0  0
   -2.6400    9.6190   -1.2810 C   0  0  1  0  0  0  0  0  0  0  0  0
   -3.8240    9.6290   -0.2780 C   0  0  0  0  0  0  0  0  0  0  0  0
   -5.0940    9.0210   -0.8650 C   0  0  0  0  0  0  0  0  0  0  0  0
   -4.8510    7.5830   -1.3170 C   0  0  2  0  0  0  0  0  0  0  0  0
   -4.5950    6.7750   -0.1650 O   0  0  0  0  0  0  0  0  0  0  0  0
   -3.6740    7.4480   -2.3230 C   0  0  0  0  0  0  0  0  0  0  0  0
   -4.0780    8.0700   -3.6830 C   0  0  0  0  0  0  0  0  0  0  0  0
   -3.4450    5.9350   -2.5890 C   0  0  0  0  0  0  0  0  0  0  0  0
   -1.3520   10.3550   -0.7110 C   0  0  1  0  0  0  0  0  0  0  0  0
   -1.1600   10.0030    0.7960 C   0  0  0  0  0  0  0  0  0  0  0  0
   -1.5770   11.9120   -0.7790 C   0  0  0  0  0  0  0  0  0  0  0  0
   -1.1810   12.6150   -2.0910 C   0  0  0  0  0  0  0  0  0  0  0  0
    0.2290   12.2080   -2.5280 C   0  0  2  0  0  0  0  0  0  0  0  0
    1.2300   12.6890   -1.4230 C   0  0  0  0  0  0  0  0  0  0  0  0
    1.1578   14.2257   -1.7827 H   0  0  0  0  0  0  0  0  0  0  0  0
    1.4473   15.8285   -2.5403 H   0  0  0  0  0  0  0  0  0  0  0  0
   -0.2034   15.1200   -2.5403 H   0  0  0  0  0  0  0  0  0  0  0  0
    2.2514   14.2589   -4.1098 H   0  0  0  0  0  0  0  0  0  0  0  0
   -0.5679   14.6078   -5.1690 H   0  0  0  0  0  0  0  0  0  0  0  0
    0.5881   16.0077   -4.9511 H   0  0  0  0  0  0  0  0  0  0  0  0
    2.2178   14.5243   -6.3432 H   0  0  0  0  0  0  0  0  0  0  0  0
    0.6924   13.7033   -6.8780 H   0  0  0  0  0  0  0  0  0  0  0  0
    0.6167   16.4277   -6.6634 H   0  0  0  0  0  0  0  0  0  0  0  0
    3.2453   14.5799   -8.1988 H   0  0  0  0  0  0  0  0  0  0  0  0
    2.3793   14.1340   -9.7080 H   0  0  0  0  0  0  0  0  0  0  0  0
    3.5332   15.5106   -9.7080 H   0  0  0  0  0  0  0  0  0  0  0  0
    1.6986   18.0318   -8.6312 H   0  0  0  0  0  0  0  0  0  0  0  0
    2.5866   17.3408  -10.0315 H   0  0  0  0  0  0  0  0  0  0  0  0
    0.7905   17.3675  -10.0315 H   0  0  0  0  0  0  0  0  0  0  0  0
   -0.1178   12.7916   -4.6059 H   0  0  0  0  0  0  0  0  0  0  0  0
    1.7900   11.5035   -5.3375 H   0  0  0  0  0  0  0  0  0  0  0  0
    2.8435   12.2146   -4.0956 H   0  0  0  0  0  0  0  0  0  0  0  0
    1.7170    9.5893   -4.0136 H   0  0  0  0  0  0  0  0  0  0  0  0
    2.4315   10.4008   -2.6231 H   0  0  0  0  0  0  0  0  0  0  0  0
   -1.6318    9.7486   -3.4718 H   0  0  0  0  0  0  0  0  0  0  0  0
   -1.0138   11.0477   -4.5474 H   0  0  0  0  0  0  0  0  0  0  0  0
   -0.2285    9.4322   -4.5474 H   0  0  0  0  0  0  0  0  0  0  0  0
    0.8158   10.2359   -0.8262 H   0  0  0  0  0  0  0  0  0  0  0  0
    0.8218    8.1246   -2.3039 H   0  0  0  0  0  0  0  0  0  0  0  0
    0.3685    8.0388   -0.5213 H   0  0  0  0  0  0  0  0  0  0  0  0
   -1.1065    6.6073   -2.1682 H   0  0  0  0  0  0  0  0  0  0  0  0
   -2.8909   10.2280   -2.1620 H   0  0  0  0  0  0  0  0  0  0  0  0
   -3.5361    9.0517    0.6130 H   0  0  0  0  0  0  0  0  0  0  0  0
   -4.0409   10.6781   -0.0284 H   0  0  0  0  0  0  0  0  0  0  0  0
   -5.8843    9.0294   -0.0999 H   0  0  0  0  0  0  0  0  0  0  0  0
   -5.3981    9.6172   -1.7380 H   0  0  0  0  0  0  0  0  0  0  0  0
   -5.7549    7.2457   -1.8453 H   0  0  0  0  0  0  0  0  0  0  0  0
   -4.1270    5.9770   -0.4630 H   0  0  0  0  0  0  0  0  0  0  0  0
   -4.6696    8.9808   -3.5084 H   0  0  0  0  0  0  0  0  0  0  0  0
   -3.1724    8.3247   -4.2532 H   0  0  0  0  0  0  0  0  0  0  0  0
   -4.6789    7.3462   -4.2532 H   0  0  0  0  0  0  0  0  0  0  0  0
   -3.3644    5.4022   -1.6300 H   0  0  0  0  0  0  0  0  0  0  0  0
   -4.2923    5.5312   -3.1627 H   0  0  0  0  0  0  0  0  0  0  0  0
   -2.5162    5.8000   -3.1627 H   0  0  0  0  0  0  0  0  0  0  0  0
   -1.5948   10.8001    1.4170 H   0  0  0  0  0  0  0  0  0  0  0  0
   -1.6634    9.0502    1.0170 H   0  0  0  0  0  0  0  0  0  0  0  0
   -0.0864    9.9104    1.0170 H   0  0  0  0  0  0  0  0  0  0  0  0
   -2.6474   12.1011   -0.6103 H   0  0  0  0  0  0  0  0  0  0  0  0
   -0.9079   12.3329   -0.0140 H   0  0  0  0  0  0  0  0  0  0  0  0
   -1.8963   12.3359   -2.8787 H   0  0  0  0  0  0  0  0  0  0  0  0
   -1.1960   13.7022   -1.9243 H   0  0  0  0  0  0  0  0  0  0  0  0
    0.8050   12.4848   -0.4292 H   0  0  0  0  0  0  0  0  0  0  0  0
    2.1829   12.1505   -1.5320 H   0  0  0  0  0  0  0  0  0  0  0  0
    1.4049   13.7695   -1.5320 H   0  0  0  0  0  0  0  0  0  0  0  0
  1  2  1  0
  2  3  1  0
  3  4  1  0
  4  5  1  0
  5  6  1  0
  6  7  1  0
  7  8  1  0
  7  9  1  0
  2 10  1  0
 10 11  1  0
 11 12  1  0
 12 13  1  0
 13 14  1  6
 13 15  1  0
 15 16  1  0
 16 17  1  0
 17 18  2  0
 18 19  1  0
 19 20  1  0
 20 21  1  0
 21 22  1  0
 22 23  1  0
 22 24  1  0
 24 25  1  0
 24 26  1  0
 19 27  1  0
 27 28  1  1
 27 29  1  0
 29 30  1  0
 30 31  1  0
 31 32  1  1
  7  5  1  0
 31 10  1  0
 31 13  1  0
 27 15  1  0
 24 18  1  0
  1 33  1  0
  1 34  1  0
  1 35  1  0
  2 36  1  6
  3 37  1  0
  3 38  1  0
  4 39  1  0
  4 40  1  0
  5 41  1  1
  8 42  1  0
  8 43  1  0
  8 44  1  0
  9 45  1  0
  9 46  1  0
  9 47  1  0
 10 48  1  6
 11 49  1  0
 11 50  1  0
 12 51  1  0
 12 52  1  0
 14 53  1  0
 14 54  1  0
 14 55  1  0
 15 56  1  1
 16 57  1  0
 16 58  1  0
 17 59  1  0
 19 60  1  6
 20 61  1  0
 20 62  1  0
 21 63  1  0
 21 64  1  0
 22 65  1  6
 23 66  1  0
 25 67  1  0
 25 68  1  0
 25 69  1  0
 26 70  1  0
 26 71  1  0
 26 72  1  0
 28 73  1  0
 28 74  1  0
 28 75  1  0
 29 76  1  0
 29 77  1  0
 30 78  1  0
 30 79  1  0
 32 80  1  0
 32 81  1  0
 32 82  1  0
M  END
>  <meeko>  (14) 
{"is_sidechain": [false], "intermolecular_energy": 2.731, "internal_energy": -0.839}

$$$$
EPH_relaxed_0001_pdb2pqr_Repair_25_r2_0001_out
     RDKit          3D

 82 86  0  0  0  0  0  0  0  0999 V2000
   -1.7270   14.8280    0.4280 C   0  0  0  0  0  0  0  0  0  0  0  0
   -0.3770   15.5310    0.2610 C   0  0  2  0  0  0  0  0  0  0  0  0
   -0.4010   16.5710   -0.8780 C   0  0  0  0  0  0  0  0  0  0  0  0
   -0.0340   17.9870   -0.4260 C   0  0  0  0  0  0  0  0  0  0  0  0
    1.4060   18.0840   -0.0210 C   0  0  2  0  0  0  0  0  0  0  0  0
    2.0570   19.3000   -0.4090 O   0  0  0  0  0  0  0  0  0  0  0  0
    2.5550   18.0950   -1.0110 C   0  0  0  0  0  0  0  0  0  0  0  0
    2.3160   18.0060   -2.4850 C   0  0  0  0  0  0  0  0  0  0  0  0
    3.9170   17.7000   -0.5310 C   0  0  0  0  0  0  0  0  0  0  0  0
    0.7170   14.5020    0.0040 C   0  0  1  0  0  0  0  0  0  0  0  0
    0.8600   13.4800    1.1640 C   0  0  0  0  0  0  0  0  0  0  0  0
    1.2390   12.1220    0.5190 C   0  0  0  0  0  0  0  0  0  0  0  0
    1.6250   12.4760   -0.9370 C   0  0  1  0  0  0  0  0  0  0  0  0
    3.0970   12.9870   -0.8480 C   0  0  0  0  0  0  0  0  0  0  0  0
    1.4740   11.3290   -1.9890 C   0  0  2  0  0  0  0  0  0  0  0  0
    2.3650   10.0990   -1.7460 C   0  0  0  0  0  0  0  0  0  0  0  0
    3.7060   10.1430   -2.4010 C   0  0  0  0  0  0  0  0  0  0  0  0
    4.0700   10.9910   -3.3810 C   0  0  0  0  0  0  0  0  0  0  0  0
    3.0570   11.9650   -3.9970 C   0  0  1  0  0  0  0  0  0  0  0  0
    3.1730   11.9230   -5.5430 C   0  0  0  0  0  0  0  0  0  0  0  0
    4.5970   12.1760   -6.0300 C   0  0  0  0  0  0  0  0  0  0  0  0
    5.5650   11.1530   -5.4420 C   0  0  2  0  0  0  0  0  0  0  0  0
    5.2520    9.8630   -5.9770 O   0  0  0  0  0  0  0  0  0  0  0  0
    5.5290   11.0970   -3.8890 C   0  0  0  0  0  0  0  0  0  0  0  0
    6.1530   12.3900   -3.3080 C   0  0  0  0  0  0  0  0  0  0  0  0
    6.4450    9.9300   -3.4320 C   0  0  0  0  0  0  0  0  0  0  0  0
    1.5580   11.8150   -3.4930 C   0  0  1  0  0  0  0  0  0  0  0  0
    0.8130   10.7450   -4.3490 C   0  0  0  0  0  0  0  0  0  0  0  0
    0.7990   13.1760   -3.7250 C   0  0  0  0  0  0  0  0  0  0  0  0
    0.8870   14.2210   -2.5970 C   0  0  0  0  0  0  0  0  0  0  0  0
    0.5600   13.5920   -1.2400 C   0  0  2  0  0  0  0  0  0  0  0  0
   -0.9220   13.0880   -1.2910 C   0  0  0  0  0  0  0  0  0  0  0  0
   -1.9499   14.7119    1.4989 H   0  0  0  0  0  0  0  0  0  0  0  0
   -2.5153   15.4301   -0.0475 H   0  0  0  0  0  0  0  0  0  0  0  0
   -1.6856   13.8369   -0.0475 H   0  0  0  0  0  0  0  0  0  0  0  0
   -0.1669   16.0705    1.1963 H   0  0  0  0  0  0  0  0  0  0  0  0
    0.3158   16.2564   -1.6508 H   0  0  0  0  0  0  0  0  0  0  0  0
   -1.4336   16.6113   -1.2550 H   0  0  0  0  0  0  0  0  0  0  0  0
   -0.2188   18.6852   -1.2557 H   0  0  0  0  0  0  0  0  0  0  0  0
   -0.6535   18.2396    0.4471 H   0  0  0  0  0  0  0  0  0  0  0  0
    1.2159   17.4854    0.8821 H   0  0  0  0  0  0  0  0  0  0  0  0
    1.2998   17.6276   -2.6695 H   0  0  0  0  0  0  0  0  0  0  0  0
    2.4228   19.0042   -2.9347 H   0  0  0  0  0  0  0  0  0  0  0  0
    3.0497   17.3208   -2.9347 H   0  0  0  0  0  0  0  0  0  0  0  0
    3.9312   17.6959    0.5689 H   0  0  0  0  0  0  0  0  0  0  0  0
    4.1601   16.6944   -0.9046 H   0  0  0  0  0  0  0  0  0  0  0  0
    4.6604   18.4196   -0.9046 H   0  0  0  0  0  0  0  0  0  0  0  0
    1.5762   15.1758   -0.1293 H   0  0  0  0  0  0  0  0  0  0  0  0
    1.6496   13.8031    1.8584 H   0  0  0  0  0  0  0  0  0  0  0  0
   -0.0759   13.3982    1.7361 H   0  0  0  0  0  0  0  0  0  0  0  0
    2.0897   11.6656    1.0463 H   0  0  0  0  0  0  0  0  0  0  0  0
    0.4165   11.3932    0.5672 H   0  0  0  0  0  0  0  0  0  0  0  0
    3.3870   13.0877    0.2083 H   0  0  0  0  0  0  0  0  0  0  0  0
    3.7653   12.2683   -1.3448 H   0  0  0  0  0  0  0  0  0  0  0  0
    3.1762   13.9652   -1.3448 H   0  0  0  0  0  0  0  0  0  0  0  0
    0.4420   10.9879   -1.8199 H   0  0  0  0  0  0  0  0  0  0  0  0
    2.5197   10.0004   -0.6614 H   0  0  0  0  0  0  0  0  0  0  0  0
    1.8350    9.2461   -2.1951 H   0  0  0  0  0  0  0  0  0  0  0  0
    4.4601    9.4216   -2.0534 H   0  0  0  0  0  0  0  0  0  0  0  0
    3.3327   12.9645   -3.6295 H   0  0  0  0  0  0  0  0  0  0  0  0
    2.8512   10.9314   -5.8940 H   0  0  0  0  0  0  0  0  0  0  0  0
    2.5347   12.7223   -5.9476 H   0  0  0  0  0  0  0  0  0  0  0  0
    4.6202   12.1041   -7.1274 H   0  0  0  0  0  0  0  0  0  0  0  0
    4.9063   13.1798   -5.7034 H   0  0  0  0  0  0  0  0  0  0  0  0
    6.5828   11.4633   -5.7208 H   0  0  0  0  0  0  0  0  0  0  0  0
    4.3520    9.6350   -5.6900 H   0  0  0  0  0  0  0  0  0  0  0  0
    6.1316   12.3457   -2.2091 H   0  0  0  0  0  0  0  0  0  0  0  0
    7.1941   12.4809   -3.6511 H   0  0  0  0  0  0  0  0  0  0  0  0
    5.5764   13.2617   -3.6511 H   0  0  0  0  0  0  0  0  0  0  0  0
    6.4728    9.8945   -2.3329 H   0  0  0  0  0  0  0  0  0  0  0  0
    6.0491    8.9797   -3.8196 H   0  0  0  0  0  0  0  0  0  0  0  0
    7.4621   10.0888   -3.8196 H   0  0  0  0  0  0  0  0  0  0  0  0
    0.3126   10.0263   -3.6833 H   0  0  0  0  0  0  0  0  0  0  0  0
    0.0634   11.2402   -4.9837 H   0  0  0  0  0  0  0  0  0  0  0  0
    1.5376   10.2138   -4.9837 H   0  0  0  0  0  0  0  0  0  0  0  0
    1.2096   13.6348   -4.6365 H   0  0  0  0  0  0  0  0  0  0  0  0
   -0.2656   12.9055   -3.7845 H   0  0  0  0  0  0  0  0  0  0  0  0
    1.9067   14.6324   -2.5665 H   0  0  0  0  0  0  0  0  0  0  0  0
    0.1560   15.0177   -2.7994 H   0  0  0  0  0  0  0  0  0  0  0  0
   -1.3009   12.9591   -0.2664 H   0  0  0  0  0  0  0  0  0  0  0  0
   -1.5421   13.8258   -1.8212 H   0  0  0  0  0  0  0  0  0  0  0  0
   -0.9638   12.1251   -1.8212 H   0  0  0  0  0  0  0  0  0  0  0  0
  1  2  1  0
  2  3  1  0
  3  4  1  0
  4  5  1  0
  5  6  1  0
  6  7  1  0
  7  8  1  0
  7  9  1  0
  2 10  1  0
 10 11  1  0
 11 12  1  0
 12 13  1  0
 13 14  1  1
 13 15  1  0
 15 16  1  0
 16 17  1  0
 17 18  2  0
 18 19  1  0
 19 20  1  0
 20 21  1  0
 21 22  1  0
 22 23  1  0
 22 24  1  0
 24 25  1  0
 24 26  1  0
 19 27  1  0
 27 28  1  6
 27 29  1  0
 29 30  1  0
 30 31  1  0
 31 32  1  6
  7  5  1  0
 31 10  1  0
 31 13  1  0
 27 15  1  0
 24 18  1  0
  1 33  1  0
  1 34  1  0
  1 35  1  0
  2 36  1  1
  3 37  1  0
  3 38  1  0
  4 39  1  0
  4 40  1  0
  5 41  1  1
  8 42  1  0
  8 43  1  0
  8 44  1  0
  9 45  1  0
  9 46  1  0
  9 47  1  0
 10 48  1  6
 11 49  1  0
 11 50  1  0
 12 51  1  0
 12 52  1  0
 14 53  1  0
 14 54  1  0
 14 55  1  0
 15 56  1  6
 16 57  1  0
 16 58  1  0
 17 59  1  0
 19 60  1  1
 20 61  1  0
 20 62  1  0
 21 63  1  0
 21 64  1  0
 22 65  1  1
 23 66  1  0
 25 67  1  0
 25 68  1  0
 25 69  1  0
 26 70  1  0
 26 71  1  0
 26 72  1  0
 28 73  1  0
 28 74  1  0
 28 75  1  0
 29 76  1  0
 29 77  1  0
 30 78  1  0
 30 79  1  0
 32 80  1  0
 32 81  1  0
 32 82  1  0
M  END
>  <meeko>  (15) 
{"is_sidechain": [false], "intermolecular_energy": 2.731, "internal_energy": -0.839}

$$$$
EPH_relaxed_0001_pdb2pqr_Repair_25_r2_0001_out
     RDKit          3D

 82 86  0  0  0  0  0  0  0  0999 V2000
   -2.4430    7.7470   -0.0460 C   0  0  0  0  0  0  0  0  0  0  0  0
   -3.0830    9.1380   -0.0520 C   0  0  2  0  0  0  0  0  0  0  0  0
   -4.5710    9.0910   -0.4510 C   0  0  0  0  0  0  0  0  0  0  0  0
   -5.1520    7.6750   -0.4990 C   0  0  0  0  0  0  0  0  0  0  0  0
   -5.8630    7.4110   -1.7910 C   0  0  2  0  0  0  0  0  0  0  0  0
   -6.7690    8.4450   -2.1980 O   0  0  0  0  0  0  0  0  0  0  0  0
   -7.3590    7.1720   -1.8890 C   0  0  0  0  0  0  0  0  0  0  0  0
   -8.2320    7.1850   -0.6740 C   0  0  0  0  0  0  0  0  0  0  0  0
   -7.8900    6.4470   -3.0860 C   0  0  0  0  0  0  0  0  0  0  0  0
   -2.3180   10.0570   -0.9980 C   0  0  1  0  0  0  0  0  0  0  0  0
   -2.9650   11.4630   -1.1170 C   0  0  0  0  0  0  0  0  0  0  0  0
   -1.8040   12.4760   -1.2850 C   0  0  0  0  0  0  0  0  0  0  0  0
   -0.5640   11.6030   -1.5890 C   0  0  1  0  0  0  0  0  0  0  0  0
   -0.6670   11.2760   -3.1120 C   0  0  0  0  0  0  0  0  0  0  0  0
    0.8240   12.2220   -1.2240 C   0  0  2  0  0  0  0  0  0  0  0  0
    1.1850   13.5090   -1.9860 C   0  0  0  0  0  0  0  0  0  0  0  0
    1.9270   13.3060   -3.2660 C   0  0  0  0  0  0  0  0  0  0  0  0
    2.5380   12.1670   -3.6430 C   0  0  0  0  0  0  0  0  0  0  0  0
    2.6020   10.9580   -2.7010 C   0  0  1  0  0  0  0  0  0  0  0  0
    4.0460   10.3910   -2.6850 C   0  0  0  0  0  0  0  0  0  0  0  0
    4.5630   10.0690   -4.0840 C   0  0  0  0  0  0  0  0  0  0  0  0
    4.5380   11.3090   -4.9730 C   0  0  2  0  0  0  0  0  0  0  0  0
    5.4890   12.2540   -4.4740 O   0  0  0  0  0  0  0  0  0  0  0  0
    3.1350   11.9730   -5.0580 C   0  0  0  0  0  0  0  0  0  0  0  0
    2.1780   11.0670   -5.8710 C   0  0  0  0  0  0  0  0  0  0  0  0
    3.2790   13.2890   -5.8700 C   0  0  0  0  0  0  0  0  0  0  0  0
    2.0200   11.1870   -1.2400 C   0  0  1  0  0  0  0  0  0  0  0  0
    3.1280   11.7720   -0.3110 C   0  0  0  0  0  0  0  0  0  0  0  0
    1.6150    9.7950   -0.6250 C   0  0  0  0  0  0  0  0  0  0  0  0
    0.1890    9.2930   -0.9220 C   0  0  0  0  0  0  0  0  0  0  0  0
   -0.8470   10.3840   -0.6370 C   0  0  2  0  0  0  0  0  0  0  0  0
   -0.7830   10.7170    0.8920 C   0  0  0  0  0  0  0  0  0  0  0  0
   -2.2914    7.4176    0.9925 H   0  0  0  0  0  0  0  0  0  0  0  0
   -3.1048    7.0366   -0.5631 H   0  0  0  0  0  0  0  0  0  0  0  0
   -1.4730    7.7875   -0.5631 H   0  0  0  0  0  0  0  0  0  0  0  0
   -3.0294    9.5319    0.9737 H   0  0  0  0  0  0  0  0  0  0  0  0
   -5.1454    9.6772    0.2814 H   0  0  0  0  0  0  0  0  0  0  0  0
   -4.6437    9.5025   -1.4685 H   0  0  0  0  0  0  0  0  0  0  0  0
   -4.3325    6.9496   -0.3884 H   0  0  0  0  0  0  0  0  0  0  0  0
   -5.8801    7.5753    0.3195 H   0  0  0  0  0  0  0  0  0  0  0  0
   -4.9992    6.8516   -2.1795 H   0  0  0  0  0  0  0  0  0  0  0  0
   -7.6038    7.1756    0.2290 H   0  0  0  0  0  0  0  0  0  0  0  0
   -8.8536    8.0925   -0.6788 H   0  0  0  0  0  0  0  0  0  0  0  0
   -8.8804    6.2964   -0.6788 H   0  0  0  0  0  0  0  0  0  0  0  0
   -8.5101    5.6003   -2.7566 H   0  0  0  0  0  0  0  0  0  0  0  0
   -8.4996    7.1346   -3.6906 H   0  0  0  0  0  0  0  0  0  0  0  0
   -7.0505    6.0733   -3.6906 H   0  0  0  0  0  0  0  0  0  0  0  0
   -2.3543    9.4503   -1.9148 H   0  0  0  0  0  0  0  0  0  0  0  0
   -3.6306   11.5010   -1.9919 H   0  0  0  0  0  0  0  0  0  0  0  0
   -3.5681   11.6971   -0.2274 H   0  0  0  0  0  0  0  0  0  0  0  0
   -2.0074   13.1648   -2.1181 H   0  0  0  0  0  0  0  0  0  0  0  0
   -1.6642   13.1016   -0.3911 H   0  0  0  0  0  0  0  0  0  0  0  0
   -0.9952   10.2342   -3.2420 H   0  0  0  0  0  0  0  0  0  0  0  0
   -1.3959   11.9515   -3.5836 H   0  0  0  0  0  0  0  0  0  0  0  0
    0.3174   11.4119   -3.5836 H   0  0  0  0  0  0  0  0  0  0  0  0
    0.6784   12.5252   -0.1767 H   0  0  0  0  0  0  0  0  0  0  0  0
    0.2503   14.0414   -2.2158 H   0  0  0  0  0  0  0  0  0  0  0  0
    1.8627   14.0723   -1.3276 H   0  0  0  0  0  0  0  0  0  0  0  0
    1.9787   14.1587   -3.9590 H   0  0  0  0  0  0  0  0  0  0  0  0
    1.9117   10.2097   -3.1176 H   0  0  0  0  0  0  0  0  0  0  0  0
    4.7124   11.1359   -2.2255 H   0  0  0  0  0  0  0  0  0  0  0  0
    4.0304    9.4531   -2.1104 H   0  0  0  0  0  0  0  0  0  0  0  0
    5.5966    9.6999   -4.0098 H   0  0  0  0  0  0  0  0  0  0  0  0
    3.9124    9.3030   -4.5312 H   0  0  0  0  0  0  0  0  0  0  0  0
    4.7956   10.9888   -5.9933 H   0  0  0  0  0  0  0  0  0  0  0  0
    6.3750   11.8740   -4.6000 H   0  0  0  0  0  0  0  0  0  0  0  0
    1.5560   10.4781   -5.1809 H   0  0  0  0  0  0  0  0  0  0  0  0
    1.5316   11.6919   -6.5048 H   0  0  0  0  0  0  0  0  0  0  0  0
    2.7666   10.3874   -6.5048 H   0  0  0  0  0  0  0  0  0  0  0  0
    3.3720   14.1387   -5.1777 H   0  0  0  0  0  0  0  0  0  0  0  0
    4.1763   13.2325   -6.5037 H   0  0  0  0  0  0  0  0  0  0  0  0
    2.3907   13.4279   -6.5037 H   0  0  0  0  0  0  0  0  0  0  0  0
    2.8422   11.6211    0.7405 H   0  0  0  0  0  0  0  0  0  0  0  0
    4.0809   11.2595   -0.5092 H   0  0  0  0  0  0  0  0  0  0  0  0
    3.2422   12.8480   -0.5092 H   0  0  0  0  0  0  0  0  0  0  0  0
    2.3195    9.0432   -1.0104 H   0  0  0  0  0  0  0  0  0  0  0  0
    1.6476    9.9413    0.4647 H   0  0  0  0  0  0  0  0  0  0  0  0
    0.1232    9.0022   -1.9808 H   0  0  0  0  0  0  0  0  0  0  0  0
   -0.0217    8.4310   -0.2719 H   0  0  0  0  0  0  0  0  0  0  0  0
   -0.9591    9.8007    1.4745 H   0  0  0  0  0  0  0  0  0  0  0  0
    0.2095   11.1226    1.1377 H   0  0  0  0  0  0  0  0  0  0  0  0
   -1.5545   11.4616    1.1377 H   0  0  0  0  0  0  0  0  0  0  0  0
  1  2  1  0
  2  3  1  0
  3  4  1  0
  4  5  1  0
  5  6  1  0
  6  7  1  0
  7  8  1  0
  7  9  1  0
  2 10  1  0
 10 11  1  0
 11 12  1  0
 12 13  1  0
 13 14  1  6
 13 15  1  0
 15 16  1  0
 16 17  1  0
 17 18  2  0
 18 19  1  0
 19 20  1  0
 20 21  1  0
 21 22  1  0
 22 23  1  0
 22 24  1  0
 24 25  1  0
 24 26  1  0
 19 27  1  0
 27 28  1  1
 27 29  1  0
 29 30  1  0
 30 31  1  0
 31 32  1  1
  7  5  1  0
 31 10  1  0
 31 13  1  0
 27 15  1  0
 24 18  1  0
  1 33  1  0
  1 34  1  0
  1 35  1  0
  2 36  1  1
  3 37  1  0
  3 38  1  0
  4 39  1  0
  4 40  1  0
  5 41  1  6
  8 42  1  0
  8 43  1  0
  8 44  1  0
  9 45  1  0
  9 46  1  0
  9 47  1  0
 10 48  1  6
 11 49  1  0
 11 50  1  0
 12 51  1  0
 12 52  1  0
 14 53  1  0
 14 54  1  0
 14 55  1  0
 15 56  1  1
 16 57  1  0
 16 58  1  0
 17 59  1  0
 19 60  1  6
 20 61  1  0
 20 62  1  0
 21 63  1  0
 21 64  1  0
 22 65  1  6
 23 66  1  0
 25 67  1  0
 25 68  1  0
 25 69  1  0
 26 70  1  0
 26 71  1  0
 26 72  1  0
 28 73  1  0
 28 74  1  0
 28 75  1  0
 29 76  1  0
 29 77  1  0
 30 78  1  0
 30 79  1  0
 32 80  1  0
 32 81  1  0
 32 82  1  0
M  END
>  <meeko>  (16) 
{"is_sidechain": [false], "intermolecular_energy": 2.731, "internal_energy": -0.839}

$$$$
EPH_relaxed_0001_pdb2pqr_Repair_25_r2_0001_out
     RDKit          3D

 82 86  0  0  0  0  0  0  0  0999 V2000
    3.1420   14.8460   -7.5370 C   0  0  0  0  0  0  0  0  0  0  0  0
    1.6180   14.8870   -7.3950 C   0  0  2  0  0  0  0  0  0  0  0  0
    1.0060   16.1330   -8.0650 C   0  0  0  0  0  0  0  0  0  0  0  0
    1.9340   16.8040   -9.0820 C   0  0  0  0  0  0  0  0  0  0  0  0
    1.5980   16.4060  -10.4870 C   0  0  2  0  0  0  0  0  0  0  0  0
    0.9980   15.1100  -10.6140 O   0  0  0  0  0  0  0  0  0  0  0  0
    2.2890   15.2730  -11.2230 C   0  0  0  0  0  0  0  0  0  0  0  0
    3.3720   14.4680  -10.5760 C   0  0  0  0  0  0  0  0  0  0  0  0
    2.2550   15.2670  -12.7200 C   0  0  0  0  0  0  0  0  0  0  0  0
    1.2310   14.8440   -5.9220 C   0  0  1  0  0  0  0  0  0  0  0  0
   -0.0210   15.7060   -5.6080 C   0  0  0  0  0  0  0  0  0  0  0  0
   -0.8040   14.9670   -4.4920 C   0  0  0  0  0  0  0  0  0  0  0  0
    0.1800   13.8920   -3.9720 C   0  0  1  0  0  0  0  0  0  0  0  0
    1.1180   14.6530   -2.9830 C   0  0  0  0  0  0  0  0  0  0  0  0
   -0.4630   12.6330   -3.3040 C   0  0  2  0  0  0  0  0  0  0  0  0
   -1.2810   12.9150   -2.0310 C   0  0  0  0  0  0  0  0  0  0  0  0
   -0.5130   12.8540   -0.7530 C   0  0  0  0  0  0  0  0  0  0  0  0
    0.7090   12.3090   -0.5990 C   0  0  0  0  0  0  0  0  0  0  0  0
    1.4020   11.5890   -1.7630 C   0  0  1  0  0  0  0  0  0  0  0  0
    1.9830   10.2400   -1.2640 C   0  0  0  0  0  0  0  0  0  0  0  0
    2.8980   10.4090   -0.0540 C   0  0  0  0  0  0  0  0  0  0  0  0
    2.1560   11.0760    1.1010 C   0  0  2  0  0  0  0  0  0  0  0  0
    1.1400   10.1850    1.5720 O   0  0  0  0  0  0  0  0  0  0  0  0
    1.5180   12.4390    0.7150 C   0  0  0  0  0  0  0  0  0  0  0  0
    2.6330   13.4920    0.4960 C   0  0  0  0  0  0  0  0  0  0  0  0
    0.6830   12.9360    1.9250 C   0  0  0  0  0  0  0  0  0  0  0  0
    0.5420   11.4290   -3.0900 C   0  0  1  0  0  0  0  0  0  0  0  0
   -0.3240   10.1350   -3.0100 C   0  0  0  0  0  0  0  0  0  0  0  0
    1.5150   11.2380   -4.3130 C   0  0  0  0  0  0  0  0  0  0  0  0
    2.0210   12.5180   -5.0050 C   0  0  0  0  0  0  0  0  0  0  0  0
    0.8600   13.4650   -5.3230 C   0  0  2  0  0  0  0  0  0  0  0  0
   -0.0900   12.7350   -6.3330 C   0  0  0  0  0  0  0  0  0  0  0  0
    3.6031   14.8336   -6.5384 H   0  0  0  0  0  0  0  0  0  0  0  0
    3.4347   13.9397   -8.0873 H   0  0  0  0  0  0  0  0  0  0  0  0
    3.4830   15.7353   -8.0873 H   0  0  0  0  0  0  0  0  0  0  0  0
    1.2141   14.0032   -7.9105 H   0  0  0  0  0  0  0  0  0  0  0  0
    0.0837   15.8310   -8.5829 H   0  0  0  0  0  0  0  0  0  0  0  0
    0.8186   16.8672   -7.2676 H   0  0  0  0  0  0  0  0  0  0  0  0
    1.8361   17.8956   -8.9878 H   0  0  0  0  0  0  0  0  0  0  0  0
    2.9641   16.4806   -8.8714 H   0  0  0  0  0  0  0  0  0  0  0  0
    1.4007   17.4526  -10.7621 H   0  0  0  0  0  0  0  0  0  0  0  0
    3.2775   14.5382   -9.4823 H   0  0  0  0  0  0  0  0  0  0  0  0
    3.2815   13.4162  -10.8851 H   0  0  0  0  0  0  0  0  0  0  0  0
    4.3531   14.8578  -10.8851 H   0  0  0  0  0  0  0  0  0  0  0  0
    1.2256   15.0854  -13.0627 H   0  0  0  0  0  0  0  0  0  0  0  0
    2.6011   16.2401  -13.0985 H   0  0  0  0  0  0  0  0  0  0  0  0
    2.9133   14.4711  -13.0985 H   0  0  0  0  0  0  0  0  0  0  0  0
    2.1683   15.2071   -5.4752 H   0  0  0  0  0  0  0  0  0  0  0  0
    0.2837   16.7040   -5.2598 H   0  0  0  0  0  0  0  0  0  0  0  0
   -0.6435   15.8401   -6.5050 H   0  0  0  0  0  0  0  0  0  0  0  0
   -1.0809   15.6625   -3.6860 H   0  0  0  0  0  0  0  0  0  0  0  0
   -1.7434   14.5295   -4.8609 H   0  0  0  0  0  0  0  0  0  0  0  0
    0.8281   14.4178   -1.9483 H   0  0  0  0  0  0  0  0  0  0  0  0
    2.1593   14.3412   -3.1519 H   0  0  0  0  0  0  0  0  0  0  0  0
    1.0276   15.7362   -3.1519 H   0  0  0  0  0  0  0  0  0  0  0  0
   -1.1921   12.3104   -4.0618 H   0  0  0  0  0  0  0  0  0  0  0  0
   -1.7123   13.9229   -2.1205 H   0  0  0  0  0  0  0  0  0  0  0  0
   -2.0353   12.1166   -1.9710 H   0  0  0  0  0  0  0  0  0  0  0  0
   -0.9850   13.2913    0.1391 H   0  0  0  0  0  0  0  0  0  0  0  0
    2.2187   12.2507   -2.0873 H   0  0  0  0  0  0  0  0  0  0  0  0
    1.1494    9.5782   -0.9861 H   0  0  0  0  0  0  0  0  0  0  0  0
    2.5841    9.8128   -2.0802 H   0  0  0  0  0  0  0  0  0  0  0  0
    3.2534    9.4196    0.2698 H   0  0  0  0  0  0  0  0  0  0  0  0
    3.7467   11.0469   -0.3416 H   0  0  0  0  0  0  0  0  0  0  0  0
    2.8946   11.2883    1.8880 H   0  0  0  0  0  0  0  0  0  0  0  0
    1.5310    9.2970    1.6300 H   0  0  0  0  0  0  0  0  0  0  0  0
    3.0035   13.8419    1.4708 H   0  0  0  0  0  0  0  0  0  0  0  0
    3.4603   13.0379   -0.0692 H   0  0  0  0  0  0  0  0  0  0  0  0
    2.2269   14.3439   -0.0692 H   0  0  0  0  0  0  0  0  0  0  0  0
    1.1806   12.6398    2.8603 H   0  0  0  0  0  0  0  0  0  0  0  0
    0.5977   14.0320    1.8862 H   0  0  0  0  0  0  0  0  0  0  0  0
   -0.3211   12.4884    1.8862 H   0  0  0  0  0  0  0  0  0  0  0  0
   -0.4981    9.8749   -1.9555 H   0  0  0  0  0  0  0  0  0  0  0  0
   -1.2889   10.3081   -3.5090 H   0  0  0  0  0  0  0  0  0  0  0  0
    0.2039    9.3090   -3.5090 H   0  0  0  0  0  0  0  0  0  0  0  0
    2.3948   10.6834   -3.9547 H   0  0  0  0  0  0  0  0  0  0  0  0
    0.9193   10.7150   -5.0756 H   0  0  0  0  0  0  0  0  0  0  0  0
    2.7312   13.0303   -4.3392 H   0  0  0  0  0  0  0  0  0  0  0  0
    2.5120   12.2361   -5.9481 H   0  0  0  0  0  0  0  0  0  0  0  0
   -0.8423   12.1569   -5.7764 H   0  0  0  0  0  0  0  0  0  0  0  0
   -0.5945   13.4800   -6.9658 H   0  0  0  0  0  0  0  0  0  0  0  0
    0.5000   12.0557   -6.9658 H   0  0  0  0  0  0  0  0  0  0  0  0
  1  2  1  0
  2  3  1  0
  3  4  1  0
  4  5  1  0
  5  6  1  0
  6  7  1  0
  7  8  1  0
  7  9  1  0
  2 10  1  0
 10 11  1  0
 11 12  1  0
 12 13  1  0
 13 14  1  1
 13 15  1  0
 15 16  1  0
 16 17  1  0
 17 18  2  0
 18 19  1  0
 19 20  1  0
 20 21  1  0
 21 22  1  0
 22 23  1  0
 22 24  1  0
 24 25  1  0
 24 26  1  0
 19 27  1  0
 27 28  1  1
 27 29  1  0
 29 30  1  0
 30 31  1  0
 31 32  1  6
  7  5  1  0
 31 10  1  0
 31 13  1  0
 27 15  1  0
 24 18  1  0
  1 33  1  0
  1 34  1  0
  1 35  1  0
  2 36  1  6
  3 37  1  0
  3 38  1  0
  4 39  1  0
  4 40  1  0
  5 41  1  6
  8 42  1  0
  8 43  1  0
  8 44  1  0
  9 45  1  0
  9 46  1  0
  9 47  1  0
 10 48  1  1
 11 49  1  0
 11 50  1  0
 12 51  1  0
 12 52  1  0
 14 53  1  0
 14 54  1  0
 14 55  1  0
 15 56  1  6
 16 57  1  0
 16 58  1  0
 17 59  1  0
 19 60  1  6
 20 61  1  0
 20 62  1  0
 21 63  1  0
 21 64  1  0
 22 65  1  1
 23 66  1  0
 25 67  1  0
 25 68  1  0
 25 69  1  0
 26 70  1  0
 26 71  1  0
 26 72  1  0
 28 73  1  0
 28 74  1  0
 28 75  1  0
 29 76  1  0
 29 77  1  0
 30 78  1  0
 30 79  1  0
 32 80  1  0
 32 81  1  0
 32 82  1  0
M  END
>  <meeko>  (17) 
{"is_sidechain": [false], "intermolecular_energy": 2.731, "internal_energy": -0.839}

$$$$
EPH_relaxed_0001_pdb2pqr_Repair_25_r2_0001_out
     RDKit          3D

 82 86  0  0  0  0  0  0  0  0999 V2000
    0.8600   14.7220   -4.8950 C   0  0  0  0  0  0  0  0  0  0  0  0
    0.5770   14.2010   -3.4830 C   0  0  2  0  0  0  0  0  0  0  0  0
    1.7740   14.4150   -2.5350 C   0  0  0  0  0  0  0  0  0  0  0  0
    1.5080   15.4420   -1.4300 C   0  0  0  0  0  0  0  0  0  0  0  0
    1.1590   16.7850   -1.9950 C   0  0  2  0  0  0  0  0  0  0  0  0
    2.1320   17.3270   -2.8980 O   0  0  0  0  0  0  0  0  0  0  0  0
    1.9290   18.0530   -1.6750 C   0  0  0  0  0  0  0  0  0  0  0  0
    3.1090   18.0380   -0.7550 C   0  0  0  0  0  0  0  0  0  0  0  0
    1.2460   19.3720   -1.8640 C   0  0  0  0  0  0  0  0  0  0  0  0
    0.2140   12.7220   -3.5390 C   0  0  1  0  0  0  0  0  0  0  0  0
    1.4330   11.8200   -3.8700 C   0  0  0  0  0  0  0  0  0  0  0  0
    1.2400   10.5000   -3.0790 C   0  0  0  0  0  0  0  0  0  0  0  0
   -0.2260   10.5500   -2.5880 C   0  0  1  0  0  0  0  0  0  0  0  0
   -1.0740   10.0860   -3.8140 C   0  0  0  0  0  0  0  0  0  0  0  0
   -0.5550    9.7130   -1.3090 C   0  0  2  0  0  0  0  0  0  0  0  0
   -0.3500    8.1950   -1.4510 C   0  0  0  0  0  0  0  0  0  0  0  0
   -1.5450    7.4310   -1.9160 C   0  0  0  0  0  0  0  0  0  0  0  0
   -2.8090    7.8930   -1.9360 C   0  0  0  0  0  0  0  0  0  0  0  0
   -3.1520    9.2750   -1.3670 C   0  0  1  0  0  0  0  0  0  0  0  0
   -4.4100    9.1670   -0.4660 C   0  0  0  0  0  0  0  0  0  0  0  0
   -5.5910    8.5230   -1.1840 C   0  0  0  0  0  0  0  0  0  0  0  0
   -5.2300    7.1260   -1.6850 C   0  0  2  0  0  0  0  0  0  0  0  0
   -5.0180    6.2730   -0.5560 O   0  0  0  0  0  0  0  0  0  0  0  0
   -3.9710    7.1090   -2.5960 C   0  0  0  0  0  0  0  0  0  0  0  0
   -4.3010    7.7800   -3.9520 C   0  0  0  0  0  0  0  0  0  0  0  0
   -3.6330    5.6280   -2.9150 C   0  0  0  0  0  0  0  0  0  0  0  0
   -1.9580   10.0490   -0.6590 C   0  0  1  0  0  0  0  0  0  0  0  0
   -1.8670    9.6280    0.8400 C   0  0  0  0  0  0  0  0  0  0  0  0
   -2.2680   11.5930   -0.6680 C   0  0  0  0  0  0  0  0  0  0  0  0
   -1.8120   12.3850   -1.9080 C   0  0  0  0  0  0  0  0  0  0  0  0
   -0.3500   12.0790   -2.2470 C   0  0  2  0  0  0  0  0  0  0  0  0
    0.5300   12.5550   -1.0410 C   0  0  0  0  0  0  0  0  0  0  0  0
    1.3842   15.6870   -4.8316 H   0  0  0  0  0  0  0  0  0  0  0  0
    1.4888   13.9979   -5.4338 H   0  0  0  0  0  0  0  0  0  0  0  0
   -0.0897   14.8553   -5.4338 H   0  0  0  0  0  0  0  0  0  0  0  0
   -0.2695   14.7765   -3.0803 H   0  0  0  0  0  0  0  0  0  0  0  0
    2.0195   13.4524   -2.0627 H   0  0  0  0  0  0  0  0  0  0  0  0
    2.6015   14.8061   -3.1451 H   0  0  0  0  0  0  0  0  0  0  0  0
    0.6722   15.0885   -0.8083 H   0  0  0  0  0  0  0  0  0  0  0  0
    2.4255   15.5488   -0.8327 H   0  0  0  0  0  0  0  0  0  0  0  0
    0.0859   16.5452   -1.9634 H   0  0  0  0  0  0  0  0  0  0  0  0
    2.7606   18.0424    0.2883 H   0  0  0  0  0  0  0  0  0  0  0  0
    3.7055   17.1322   -0.9385 H   0  0  0  0  0  0  0  0  0  0  0  0
    3.7284   18.9283   -0.9385 H   0  0  0  0  0  0  0  0  0  0  0  0
    1.0186   19.8112   -0.8815 H   0  0  0  0  0  0  0  0  0  0  0  0
    1.9064   20.0499   -2.4247 H   0  0  0  0  0  0  0  0  0  0  0  0
    0.3113   19.2239   -2.4247 H   0  0  0  0  0  0  0  0  0  0  0  0
   -0.5648   12.7522   -4.3152 H   0  0  0  0  0  0  0  0  0  0  0  0
    1.4690   11.6129   -4.9497 H   0  0  0  0  0  0  0  0  0  0  0  0
    2.3763   12.3129   -3.5922 H   0  0  0  0  0  0  0  0  0  0  0  0
    1.4015    9.6292   -3.7314 H   0  0  0  0  0  0  0  0  0  0  0  0
    1.9549   10.4030   -2.2486 H   0  0  0  0  0  0  0  0  0  0  0  0
   -1.9876    9.5861   -3.4598 H   0  0  0  0  0  0  0  0  0  0  0  0
   -1.3471   10.9604   -4.4230 H   0  0  0  0  0  0  0  0  0  0  0  0
   -0.4848    9.3846   -4.4230 H   0  0  0  0  0  0  0  0  0  0  0  0
    0.2151   10.0521   -0.6005 H   0  0  0  0  0  0  0  0  0  0  0  0
    0.4625    8.0279   -2.1734 H   0  0  0  0  0  0  0  0  0  0  0  0
   -0.1249    7.8225   -0.4408 H   0  0  0  0  0  0  0  0  0  0  0  0
   -1.3786    6.4037   -2.2724 H   0  0  0  0  0  0  0  0  0  0  0  0
   -3.3690    9.9156   -2.2345 H   0  0  0  0  0  0  0  0  0  0  0  0
   -4.1603    8.5597    0.4165 H   0  0  0  0  0  0  0  0  0  0  0  0
   -4.7073   10.1880   -0.1845 H   0  0  0  0  0  0  0  0  0  0  0  0
   -6.4384    8.4475   -0.4867 H   0  0  0  0  0  0  0  0  0  0  0  0
   -5.8588    9.1476   -2.0489 H   0  0  0  0  0  0  0  0  0  0  0  0
   -6.0682    6.7689   -2.3014 H   0  0  0  0  0  0  0  0  0  0  0  0
   -5.8910    6.0370   -0.1970 H   0  0  0  0  0  0  0  0  0  0  0  0
   -4.7799    8.7538   -3.7723 H   0  0  0  0  0  0  0  0  0  0  0  0
   -3.3728    7.9278   -4.5235 H   0  0  0  0  0  0  0  0  0  0  0  0
   -4.9847    7.1350   -4.5235 H   0  0  0  0  0  0  0  0  0  0  0  0
   -3.5057    5.0704   -1.9754 H   0  0  0  0  0  0  0  0  0  0  0  0
   -4.4525    5.1822   -3.4978 H   0  0  0  0  0  0  0  0  0  0  0  0
   -2.7012    5.5819   -3.4978 H   0  0  0  0  0  0  0  0  0  0  0  0
   -2.0562   10.5033    1.4788 H   0  0  0  0  0  0  0  0  0  0  0  0
   -2.6182    8.8521    1.0492 H   0  0  0  0  0  0  0  0  0  0  0  0
   -0.8624    9.2316    1.0492 H   0  0  0  0  0  0  0  0  0  0  0  0
   -3.3575   11.7143   -0.5776 H   0  0  0  0  0  0  0  0  0  0  0  0
   -1.6873   12.0084    0.1688 H   0  0  0  0  0  0  0  0  0  0  0  0
   -2.4452   12.1091   -2.7641 H   0  0  0  0  0  0  0  0  0  0  0  0
   -1.9042   13.4595   -1.6913 H   0  0  0  0  0  0  0  0  0  0  0  0
    0.0339   12.2866   -0.0966 H   0  0  0  0  0  0  0  0  0  0  0  0
    1.5143   12.0663   -1.0899 H   0  0  0  0  0  0  0  0  0  0  0  0
    0.6596   13.6462   -1.0899 H   0  0  0  0  0  0  0  0  0  0  0  0
  1  2  1  0
  2  3  1  0
  3  4  1  0
  4  5  1  0
  5  6  1  0
  6  7  1  0
  7  8  1  0
  7  9  1  0
  2 10  1  0
 10 11  1  0
 11 12  1  0
 12 13  1  0
 13 14  1  6
 13 15  1  0
 15 16  1  0
 16 17  1  0
 17 18  2  0
 18 19  1  0
 19 20  1  0
 20 21  1  0
 21 22  1  0
 22 23  1  0
 22 24  1  0
 24 25  1  0
 24 26  1  0
 19 27  1  0
 27 28  1  1
 27 29  1  0
 29 30  1  0
 30 31  1  0
 31 32  1  1
  7  5  1  0
 31 10  1  0
 31 13  1  0
 27 15  1  0
 24 18  1  0
  1 33  1  0
  1 34  1  0
  1 35  1  0
  2 36  1  1
  3 37  1  0
  3 38  1  0
  4 39  1  0
  4 40  1  0
  5 41  1  6
  8 42  1  0
  8 43  1  0
  8 44  1  0
  9 45  1  0
  9 46  1  0
  9 47  1  0
 10 48  1  6
 11 49  1  0
 11 50  1  0
 12 51  1  0
 12 52  1  0
 14 53  1  0
 14 54  1  0
 14 55  1  0
 15 56  1  1
 16 57  1  0
 16 58  1  0
 17 59  1  0
 19 60  1  6
 20 61  1  0
 20 62  1  0
 21 63  1  0
 21 64  1  0
 22 65  1  6
 23 66  1  0
 25 67  1  0
 25 68  1  0
 25 69  1  0
 26 70  1  0
 26 71  1  0
 26 72  1  0
 28 73  1  0
 28 74  1  0
 28 75  1  0
 29 76  1  0
 29 77  1  0
 30 78  1  0
 30 79  1  0
 32 80  1  0
 32 81  1  0
 32 82  1  0
M  END
>  <meeko>  (18) 
{"is_sidechain": [false], "intermolecular_energy": 2.731, "internal_energy": -0.839}

$$$$
EPH_relaxed_0001_pdb2pqr_Repair_25_r2_0001_out
     RDKit          3D

 82 86  0  0  0  0  0  0  0  0999 V2000
   -0.0600    9.3050   -2.2590 C   0  0  0  0  0  0  0  0  0  0  0  0
    0.9880   10.3040   -2.7590 C   0  0  2  0  0  0  0  0  0  0  0  0
    2.3840    9.6640   -2.8890 C   0  0  0  0  0  0  0  0  0  0  0  0
    3.3130   10.4050   -3.8550 C   0  0  0  0  0  0  0  0  0  0  0  0
    4.6980   10.5390   -3.2980 C   0  0  2  0  0  0  0  0  0  0  0  0
    5.3110   11.8160   -3.5200 O   0  0  0  0  0  0  0  0  0  0  0  0
    5.9360   10.6930   -4.1620 C   0  0  0  0  0  0  0  0  0  0  0  0
    5.8470   10.7180   -5.6560 C   0  0  0  0  0  0  0  0  0  0  0  0
    7.2660   10.3280   -3.5790 C   0  0  0  0  0  0  0  0  0  0  0  0
    1.0500   11.5040   -1.8220 C   0  0  1  0  0  0  0  0  0  0  0  0
    2.1390   11.3510   -0.7260 C   0  0  0  0  0  0  0  0  0  0  0  0
    2.7150   12.7660   -0.4670 C   0  0  0  0  0  0  0  0  0  0  0  0
    1.7250   13.7250   -1.1690 C   0  0  1  0  0  0  0  0  0  0  0  0
    0.5420   13.8860   -0.1630 C   0  0  0  0  0  0  0  0  0  0  0  0
    2.3000   15.1110   -1.6100 C   0  0  2  0  0  0  0  0  0  0  0  0
    2.8020   16.0040   -0.4620 C   0  0  0  0  0  0  0  0  0  0  0  0
    1.7830   16.9280    0.1190 C   0  0  0  0  0  0  0  0  0  0  0  0
    0.6010   17.2420   -0.4430 C   0  0  0  0  0  0  0  0  0  0  0  0
    0.2300   16.7240   -1.8380 C   0  0  1  0  0  0  0  0  0  0  0  0
   -0.3440   17.8890   -2.6870 C   0  0  0  0  0  0  0  0  0  0  0  0
   -1.5070   18.5970   -1.9990 C   0  0  0  0  0  0  0  0  0  0  0  0
   -1.0830   19.1480   -0.6400 C   0  0  2  0  0  0  0  0  0  0  0  0
   -0.1280   20.1950   -0.8450 O   0  0  0  0  0  0  0  0  0  0  0  0
   -0.4800   18.0670    0.2990 C   0  0  0  0  0  0  0  0  0  0  0  0
   -1.5960   17.0990    0.7630 C   0  0  0  0  0  0  0  0  0  0  0  0
    0.0360   18.7790    1.5780 C   0  0  0  0  0  0  0  0  0  0  0  0
    1.3650   15.9140   -2.6020 C   0  0  1  0  0  0  0  0  0  0  0  0
    2.2870   16.8990   -3.3840 C   0  0  0  0  0  0  0  0  0  0  0  0
    0.6940   14.9820   -3.6790 C   0  0  0  0  0  0  0  0  0  0  0  0
    0.2560   13.5820   -3.2110 C   0  0  0  0  0  0  0  0  0  0  0  0
    1.3850   12.8800   -2.4500 C   0  0  2  0  0  0  0  0  0  0  0  0
    2.5820   12.6850   -3.4430 C   0  0  0  0  0  0  0  0  0  0  0  0
   -0.0658    9.2994   -1.1590 H   0  0  0  0  0  0  0  0  0  0  0  0
   -1.0531    9.5992   -2.6295 H   0  0  0  0  0  0  0  0  0  0  0  0
    0.1863    8.2990   -2.6295 H   0  0  0  0  0  0  0  0  0  0  0  0
    0.6807   10.6319   -3.7630 H   0  0  0  0  0  0  0  0  0  0  0  0
    2.8546    9.6522   -1.8948 H   0  0  0  0  0  0  0  0  0  0  0  0
    2.2375    8.6526   -3.2959 H   0  0  0  0  0  0  0  0  0  0  0  0
    3.3618    9.8468   -4.8016 H   0  0  0  0  0  0  0  0  0  0  0  0
    2.9078   11.4152   -4.0139 H   0  0  0  0  0  0  0  0  0  0  0  0
    4.4567    9.8566   -2.4697 H   0  0  0  0  0  0  0  0  0  0  0  0
    4.8287   11.0041   -5.9579 H   0  0  0  0  0  0  0  0  0  0  0  0
    6.5664   11.4488   -6.0540 H   0  0  0  0  0  0  0  0  0  0  0  0
    6.0806    9.7195   -6.0540 H   0  0  0  0  0  0  0  0  0  0  0  0
    7.2023   10.3455   -2.4810 H   0  0  0  0  0  0  0  0  0  0  0  0
    7.5487    9.3191   -3.9139 H   0  0  0  0  0  0  0  0  0  0  0  0
    8.0241   11.0513   -3.9139 H   0  0  0  0  0  0  0  0  0  0  0  0
    0.0145   11.5015   -1.4508 H   0  0  0  0  0  0  0  0  0  0  0  0
    1.6944   10.9485    0.1961 H   0  0  0  0  0  0  0  0  0  0  0  0
    2.9286   10.6562   -1.0482 H   0  0  0  0  0  0  0  0  0  0  0  0
    2.7596   12.9756    0.6119 H   0  0  0  0  0  0  0  0  0  0  0  0
    3.7414   12.8745   -0.8473 H   0  0  0  0  0  0  0  0  0  0  0  0
    0.9263   13.8337    0.8663 H   0  0  0  0  0  0  0  0  0  0  0  0
    0.0542   14.8588   -0.3233 H   0  0  0  0  0  0  0  0  0  0  0  0
   -0.1880   13.0789   -0.3233 H   0  0  0  0  0  0  0  0  0  0  0  0
    3.1969   14.8248   -2.1789 H   0  0  0  0  0  0  0  0  0  0  0  0
    3.1660   15.3495    0.3436 H   0  0  0  0  0  0  0  0  0  0  0  0
    3.5835   16.6458   -0.8948 H   0  0  0  0  0  0  0  0  0  0  0  0
    2.0183   17.3913    1.0885 H   0  0  0  0  0  0  0  0  0  0  0  0
   -0.5443   15.9585   -1.6819 H   0  0  0  0  0  0  0  0  0  0  0  0
    0.4568   18.6210   -2.8683 H   0  0  0  0  0  0  0  0  0  0  0  0
   -0.7226   17.4617   -3.6272 H   0  0  0  0  0  0  0  0  0  0  0  0
   -1.8489   19.4279   -2.6336 H   0  0  0  0  0  0  0  0  0  0  0  0
   -2.3190   17.8709   -1.8457 H   0  0  0  0  0  0  0  0  0  0  0  0
   -1.9872   19.5266   -0.1409 H   0  0  0  0  0  0  0  0  0  0  0  0
    0.5150   19.8810   -1.5030 H   0  0  0  0  0  0  0  0  0  0  0  0
   -1.6255   17.0734    1.8623 H   0  0  0  0  0  0  0  0  0  0  0  0
   -2.5661   17.4465    0.3782 H   0  0  0  0  0  0  0  0  0  0  0  0
   -1.3891   16.0895    0.3782 H   0  0  0  0  0  0  0  0  0  0  0  0
   -0.3436   18.2552    2.4677 H   0  0  0  0  0  0  0  0  0  0  0  0
    1.1359   18.7661    1.5864 H   0  0  0  0  0  0  0  0  0  0  0  0
   -0.3186   19.8202    1.5864 H   0  0  0  0  0  0  0  0  0  0  0  0
    2.8592   17.5103   -2.6706 H   0  0  0  0  0  0  0  0  0  0  0  0
    2.9818   16.3270   -4.0165 H   0  0  0  0  0  0  0  0  0  0  0  0
    1.6704   17.5545   -4.0165 H   0  0  0  0  0  0  0  0  0  0  0  0
   -0.1991   15.5007   -4.0575 H   0  0  0  0  0  0  0  0  0  0  0  0
    1.4765   14.8019   -4.4308 H   0  0  0  0  0  0  0  0  0  0  0  0
   -0.6170   13.6807   -2.5491 H   0  0  0  0  0  0  0  0  0  0  0  0
    0.0023   12.9799   -4.0959 H   0  0  0  0  0  0  0  0  0  0  0  0
    3.5105   12.5337   -2.8729 H   0  0  0  0  0  0  0  0  0  0  0  0
    2.3934   11.8057   -4.0765 H   0  0  0  0  0  0  0  0  0  0  0  0
    2.6822   13.5787   -4.0765 H   0  0  0  0  0  0  0  0  0  0  0  0
  1  2  1  0
  2  3  1  0
  3  4  1  0
  4  5  1  0
  5  6  1  0
  6  7  1  0
  7  8  1  0
  7  9  1  0
  2 10  1  0
 10 11  1  0
 11 12  1  0
 12 13  1  0
 13 14  1  1
 13 15  1  0
 15 16  1  0
 16 17  1  0
 17 18  2  0
 18 19  1  0
 19 20  1  0
 20 21  1  0
 21 22  1  0
 22 23  1  0
 22 24  1  0
 24 25  1  0
 24 26  1  0
 19 27  1  0
 27 28  1  6
 27 29  1  0
 29 30  1  0
 30 31  1  0
 31 32  1  6
  7  5  1  0
 31 10  1  0
 31 13  1  0
 27 15  1  0
 24 18  1  0
  1 33  1  0
  1 34  1  0
  1 35  1  0
  2 36  1  6
  3 37  1  0
  3 38  1  0
  4 39  1  0
  4 40  1  0
  5 41  1  1
  8 42  1  0
  8 43  1  0
  8 44  1  0
  9 45  1  0
  9 46  1  0
  9 47  1  0
 10 48  1  1
 11 49  1  0
 11 50  1  0
 12 51  1  0
 12 52  1  0
 14 53  1  0
 14 54  1  0
 14 55  1  0
 15 56  1  6
 16 57  1  0
 16 58  1  0
 17 59  1  0
 19 60  1  1
 20 61  1  0
 20 62  1  0
 21 63  1  0
 21 64  1  0
 22 65  1  1
 23 66  1  0
 25 67  1  0
 25 68  1  0
 25 69  1  0
 26 70  1  0
 26 71  1  0
 26 72  1  0
 28 73  1  0
 28 74  1  0
 28 75  1  0
 29 76  1  0
 29 77  1  0
 30 78  1  0
 30 79  1  0
 32 80  1  0
 32 81  1  0
 32 82  1  0
M  END
>  <meeko>  (19) 
{"is_sidechain": [false], "intermolecular_energy": 2.731, "internal_energy": -0.839}

$$$$
