EPH_relaxed_0001_pdb2pqr_Repair_143_r2_0001_out
     RDKit          3D

 82 86  0  0  0  0  0  0  0  0999 V2000
    4.5780   17.3270   -0.6590 C   0  0  0  0  0  0  0  0  0  0  0  0
    3.2140   17.9810   -0.4240 C   0  0  2  0  0  0  0  0  0  0  0  0
    3.1580   18.7410    0.9160 C   0  0  0  0  0  0  0  0  0  0  0  0
    4.4700   18.6960    1.7050 C   0  0  0  0  0  0  0  0  0  0  0  0
    4.3030   19.2430    3.0900 C   0  0  2  0  0  0  0  0  0  0  0  0
    5.3010   20.1940    3.4820 O   0  0  0  0  0  0  0  0  0  0  0  0
    5.2730   18.9630    4.2220 C   0  0  0  0  0  0  0  0  0  0  0  0
    6.4820   18.1040    4.0200 C   0  0  0  0  0  0  0  0  0  0  0  0
    4.7920   19.1180    5.6320 C   0  0  0  0  0  0  0  0  0  0  0  0
    2.1160   16.9250   -0.4700 C   0  0  1  0  0  0  0  0  0  0  0  0
    0.7390   17.5120   -0.8820 C   0  0  0  0  0  0  0  0  0  0  0  0
    0.0210   16.4220   -1.7190 C   0  0  0  0  0  0  0  0  0  0  0  0
    0.8520   15.1390   -1.4840 C   0  0  1  0  0  0  0  0  0  0  0  0
    0.3590   14.5870   -0.1100 C   0  0  0  0  0  0  0  0  0  0  0  0
    0.7740   14.0510   -2.6050 C   0  0  2  0  0  0  0  0  0  0  0  0
   -0.6230   13.4510   -2.8360 C   0  0  0  0  0  0  0  0  0  0  0  0
   -0.9380   12.2370   -2.0260 C   0  0  0  0  0  0  0  0  0  0  0  0
   -0.0400   11.4850   -1.3620 C   0  0  0  0  0  0  0  0  0  0  0  0
    1.4630   11.7770   -1.4680 C   0  0  1  0  0  0  0  0  0  0  0  0
    2.2310   10.4520   -1.7150 C   0  0  0  0  0  0  0  0  0  0  0  0
    1.9150    9.3880   -0.6680 C   0  0  0  0  0  0  0  0  0  0  0  0
    0.4200    9.0840   -0.6330 C   0  0  2  0  0  0  0  0  0  0  0  0
    0.0480    8.4610   -1.8670 O   0  0  0  0  0  0  0  0  0  0  0  0
   -0.4570   10.3460   -0.4000 C   0  0  0  0  0  0  0  0  0  0  0  0
   -0.2730   10.8460    1.0540 C   0  0  0  0  0  0  0  0  0  0  0  0
   -1.9450    9.9230   -0.5290 C   0  0  0  0  0  0  0  0  0  0  0  0
    1.8770   12.9220   -2.4890 C   0  0  1  0  0  0  0  0  0  0  0  0
    2.0520   12.3230   -3.9180 C   0  0  0  0  0  0  0  0  0  0  0  0
    3.2820   13.4980   -2.0740 C   0  0  0  0  0  0  0  0  0  0  0  0
    3.2860   14.6520   -1.0530 C   0  0  0  0  0  0  0  0  0  0  0  0
    2.3000   15.7500   -1.4630 C   0  0  2  0  0  0  0  0  0  0  0  0
    2.7830   16.3400   -2.8320 C   0  0  0  0  0  0  0  0  0  0  0  0
    5.0483   17.1015    0.3095 H   0  0  0  0  0  0  0  0  0  0  0  0
    4.4446   16.3949   -1.2277 H   0  0  0  0  0  0  0  0  0  0  0  0
    5.2212   18.0146   -1.2277 H   0  0  0  0  0  0  0  0  0  0  0  0
    3.0567   18.7158   -1.2273 H   0  0  0  0  0  0  0  0  0  0  0  0
    2.9136   19.7932    0.7084 H   0  0  0  0  0  0  0  0  0  0  0  0
    2.3942   18.2466    1.5342 H   0  0  0  0  0  0  0  0  0  0  0  0
    4.8096   17.6519    1.7726 H   0  0  0  0  0  0  0  0  0  0  0  0
    5.2087   19.3175    1.1777 H   0  0  0  0  0  0  0  0  0  0  0  0
    3.2088   19.1569    3.0178 H   0  0  0  0  0  0  0  0  0  0  0  0
    6.8923   17.8125    4.9981 H   0  0  0  0  0  0  0  0  0  0  0  0
    6.2009   17.2019    3.4567 H   0  0  0  0  0  0  0  0  0  0  0  0
    7.2413   18.6663    3.4567 H   0  0  0  0  0  0  0  0  0  0  0  0
    5.6035   18.8565    6.3271 H   0  0  0  0  0  0  0  0  0  0  0  0
    4.4851   20.1605    5.8022 H   0  0  0  0  0  0  0  0  0  0  0  0
    3.9342   18.4508    5.8022 H   0  0  0  0  0  0  0  0  0  0  0  0
    2.1724   16.5558    0.5647 H   0  0  0  0  0  0  0  0  0  0  0  0
    0.1470   17.7536    0.0131 H   0  0  0  0  0  0  0  0  0  0  0  0
    0.8620   18.4385   -1.4620 H   0  0  0  0  0  0  0  0  0  0  0  0
   -1.0134   16.2838   -1.3711 H   0  0  0  0  0  0  0  0  0  0  0  0
   -0.0425   16.6885   -2.7843 H   0  0  0  0  0  0  0  0  0  0  0  0
    0.8514   15.1383    0.7046 H   0  0  0  0  0  0  0  0  0  0  0  0
   -0.7308   14.7151   -0.0331 H   0  0  0  0  0  0  0  0  0  0  0  0
    0.6089   13.5185   -0.0331 H   0  0  0  0  0  0  0  0  0  0  0  0
    1.0031   14.6294   -3.5122 H   0  0  0  0  0  0  0  0  0  0  0  0
   -1.3685   14.2231   -2.5951 H   0  0  0  0  0  0  0  0  0  0  0  0
   -0.6457   13.1292   -3.8876 H   0  0  0  0  0  0  0  0  0  0  0  0
   -1.9929   11.9311   -1.9667 H   0  0  0  0  0  0  0  0  0  0  0  0
    1.7588   12.2053   -0.4989 H   0  0  0  0  0  0  0  0  0  0  0  0
    1.9547   10.0639   -2.7065 H   0  0  0  0  0  0  0  0  0  0  0  0
    3.3067   10.6731   -1.6519 H   0  0  0  0  0  0  0  0  0  0  0  0
    2.4639    8.4670   -0.9137 H   0  0  0  0  0  0  0  0  0  0  0  0
    2.2196    9.7657    0.3192 H   0  0  0  0  0  0  0  0  0  0  0  0
    0.2392    8.4148    0.2211 H   0  0  0  0  0  0  0  0  0  0  0  0
   -0.4130    7.6320   -1.6500 H   0  0  0  0  0  0  0  0  0  0  0  0
   -0.5657   10.0505    1.7551 H   0  0  0  0  0  0  0  0  0  0  0  0
    0.7816   11.1111    1.2199 H   0  0  0  0  0  0  0  0  0  0  0  0
   -0.9042   11.7315    1.2199 H   0  0  0  0  0  0  0  0  0  0  0  0
   -2.3794    9.7995    0.4740 H   0  0  0  0  0  0  0  0  0  0  0  0
   -2.5006   10.6988   -1.0762 H   0  0  0  0  0  0  0  0  0  0  0  0
   -2.0094    8.9710   -1.0762 H   0  0  0  0  0  0  0  0  0  0  0  0
    2.3597   11.2699   -3.8390 H   0  0  0  0  0  0  0  0  0  0  0  0
    1.0978   12.3864   -4.4615 H   0  0  0  0  0  0  0  0  0  0  0  0
    2.8220   12.8902   -4.4615 H   0  0  0  0  0  0  0  0  0  0  0  0
    3.8667   12.6714   -1.6441 H   0  0  0  0  0  0  0  0  0  0  0  0
    3.7004   13.9281   -2.9960 H   0  0  0  0  0  0  0  0  0  0  0  0
    2.9985   14.2603   -0.0661 H   0  0  0  0  0  0  0  0  0  0  0  0
    4.2969   15.0842   -1.0161 H   0  0  0  0  0  0  0  0  0  0  0  0
    3.4699   17.1791   -2.6477 H   0  0  0  0  0  0  0  0  0  0  0  0
    3.3040   15.5586   -3.4047 H   0  0  0  0  0  0  0  0  0  0  0  0
    1.9141   16.6964   -3.4047 H   0  0  0  0  0  0  0  0  0  0  0  0
  1  2  1  0
  2  3  1  0
  3  4  1  0
  4  5  1  0
  5  6  1  0
  6  7  1  0
  7  8  1  0
  7  9  1  0
  2 10  1  0
 10 11  1  0
 11 12  1  0
 12 13  1  0
 13 14  1  1
 13 15  1  0
 15 16  1  0
 16 17  1  0
 17 18  2  0
 18 19  1  0
 19 20  1  0
 20 21  1  0
 21 22  1  0
 22 23  1  0
 22 24  1  0
 24 25  1  0
 24 26  1  0
 19 27  1  0
 27 28  1  6
 27 29  1  0
 29 30  1  0
 30 31  1  0
 31 32  1  6
  7  5  1  0
 31 10  1  0
 31 13  1  0
 27 15  1  0
 24 18  1  0
  1 33  1  0
  1 34  1  0
  1 35  1  0
  2 36  1  6
  3 37  1  0
  3 38  1  0
  4 39  1  0
  4 40  1  0
  5 41  1  1
  8 42  1  0
  8 43  1  0
  8 44  1  0
  9 45  1  0
  9 46  1  0
  9 47  1  0
 10 48  1  1
 11 49  1  0
 11 50  1  0
 12 51  1  0
 12 52  1  0
 14 53  1  0
 14 54  1  0
 14 55  1  0
 15 56  1  6
 16 57  1  0
 16 58  1  0
 17 59  1  0
 19 60  1  1
 20 61  1  0
 20 62  1  0
 21 63  1  0
 21 64  1  0
 22 65  1  1
 23 66  1  0
 25 67  1  0
 25 68  1  0
 25 69  1  0
 26 70  1  0
 26 71  1  0
 26 72  1  0
 28 73  1  0
 28 74  1  0
 28 75  1  0
 29 76  1  0
 29 77  1  0
 30 78  1  0
 30 79  1  0
 32 80  1  0
 32 81  1  0
 32 82  1  0
M  END
>  <meeko>  (1) 
{"is_sidechain": [false], "intermolecular_energy": 2.731, "internal_energy": -0.839}

$$$$
EPH_relaxed_0001_pdb2pqr_Repair_143_r2_0001_out
     RDKit          3D

 82 86  0  0  0  0  0  0  0  0999 V2000
    3.8300   17.9430    0.6980 C   0  0  0  0  0  0  0  0  0  0  0  0
    2.9570   18.3440   -0.4950 C   0  0  2  0  0  0  0  0  0  0  0  0
    2.2180   19.6760   -0.2510 C   0  0  0  0  0  0  0  0  0  0  0  0
    1.1670   19.6020    0.8590 C   0  0  0  0  0  0  0  0  0  0  0  0
   -0.1490   20.1650    0.4150 C   0  0  2  0  0  0  0  0  0  0  0  0
   -1.1610   20.1940    1.4300 O   0  0  0  0  0  0  0  0  0  0  0  0
   -1.4180   19.3390    0.3050 C   0  0  0  0  0  0  0  0  0  0  0  0
   -1.4310   17.8800    0.6390 C   0  0  0  0  0  0  0  0  0  0  0  0
   -2.5150   19.8300   -0.5870 C   0  0  0  0  0  0  0  0  0  0  0  0
    1.9520   17.2390   -0.7990 C   0  0  1  0  0  0  0  0  0  0  0  0
    0.8240   17.7050   -1.7570 C   0  0  0  0  0  0  0  0  0  0  0  0
    0.4630   16.4880   -2.6480 C   0  0  0  0  0  0  0  0  0  0  0  0
    1.1490   15.2840   -1.9600 C   0  0  1  0  0  0  0  0  0  0  0  0
    0.1850   14.8810   -0.8010 C   0  0  0  0  0  0  0  0  0  0  0  0
    1.4890   14.0650   -2.8790 C   0  0  2  0  0  0  0  0  0  0  0  0
    0.2740   13.3750   -3.5220 C   0  0  0  0  0  0  0  0  0  0  0  0
   -0.3170   12.2550   -2.7310 C   0  0  0  0  0  0  0  0  0  0  0  0
    0.2740   11.6340   -1.6930 C   0  0  0  0  0  0  0  0  0  0  0  0
    1.7100   11.9820   -1.2810 C   0  0  1  0  0  0  0  0  0  0  0  0
    2.5150   10.6760   -1.0550 C   0  0  0  0  0  0  0  0  0  0  0  0
    1.8360    9.7340   -0.0650 C   0  0  0  0  0  0  0  0  0  0  0  0
    0.4330    9.3650   -0.5390 C   0  0  2  0  0  0  0  0  0  0  0  0
    0.5400    8.5790   -1.7290 O   0  0  0  0  0  0  0  0  0  0  0  0
   -0.4680   10.6020   -0.8090 C   0  0  0  0  0  0  0  0  0  0  0  0
   -0.8310   11.2840    0.5330 C   0  0  0  0  0  0  0  0  0  0  0  0
   -1.8050   10.0960   -1.4140 C   0  0  0  0  0  0  0  0  0  0  0  0
    2.4710   13.0130   -2.2220 C   0  0  1  0  0  0  0  0  0  0  0  0
    3.1590   12.2530   -3.3970 C   0  0  0  0  0  0  0  0  0  0  0  0
    3.6250   13.7020   -1.4020 C   0  0  0  0  0  0  0  0  0  0  0  0
    3.2540   14.9700   -0.6110 C   0  0  0  0  0  0  0  0  0  0  0  0
    2.4890   15.9620   -1.4930 C   0  0  2  0  0  0  0  0  0  0  0  0
    3.4410   16.4020   -2.6560 C   0  0  0  0  0  0  0  0  0  0  0  0
    3.3050   18.1842    1.6340 H   0  0  0  0  0  0  0  0  0  0  0  0
    4.0311   16.8623    0.6584 H   0  0  0  0  0  0  0  0  0  0  0  0
    4.7809   18.4946    0.6584 H   0  0  0  0  0  0  0  0  0  0  0  0
    3.6226   18.4884   -1.3588 H   0  0  0  0  0  0  0  0  0  0  0  0
    2.9604   20.4397    0.0240 H   0  0  0  0  0  0  0  0  0  0  0  0
    1.6860   19.9237   -1.1814 H   0  0  0  0  0  0  0  0  0  0  0  0
    1.0257   18.5497    1.1465 H   0  0  0  0  0  0  0  0  0  0  0  0
    1.5253   20.1988    1.7107 H   0  0  0  0  0  0  0  0  0  0  0  0
    0.3527   20.8449   -0.2893 H   0  0  0  0  0  0  0  0  0  0  0  0
   -1.4321   17.7540    1.7318 H   0  0  0  0  0  0  0  0  0  0  0  0
   -2.3333   17.4149    0.2153 H   0  0  0  0  0  0  0  0  0  0  0  0
   -0.5371   17.3989    0.2153 H   0  0  0  0  0  0  0  0  0  0  0  0
   -3.3479   20.2028    0.0273 H   0  0  0  0  0  0  0  0  0  0  0  0
   -2.1348   20.6438   -1.2219 H   0  0  0  0  0  0  0  0  0  0  0  0
   -2.8686   19.0043   -1.2219 H   0  0  0  0  0  0  0  0  0  0  0  0
    1.6227   17.0016    0.2234 H   0  0  0  0  0  0  0  0  0  0  0  0
   -0.0554   18.0256   -1.1792 H   0  0  0  0  0  0  0  0  0  0  0  0
    1.1523   18.5586   -2.3682 H   0  0  0  0  0  0  0  0  0  0  0  0
   -0.6269   16.3443   -2.6862 H   0  0  0  0  0  0  0  0  0  0  0  0
    0.7955   16.6192   -3.6883 H   0  0  0  0  0  0  0  0  0  0  0  0
    0.6692   15.0834    0.1658 H   0  0  0  0  0  0  0  0  0  0  0  0
   -0.7433   15.4664   -0.8759 H   0  0  0  0  0  0  0  0  0  0  0  0
   -0.0504   13.8091   -0.8759 H   0  0  0  0  0  0  0  0  0  0  0  0
    2.0365   14.5383   -3.7074 H   0  0  0  0  0  0  0  0  0  0  0  0
   -0.5077   14.1342   -3.6723 H   0  0  0  0  0  0  0  0  0  0  0  0
    0.6391   12.9266   -4.4578 H   0  0  0  0  0  0  0  0  0  0  0  0
   -1.3198   11.9080   -3.0208 H   0  0  0  0  0  0  0  0  0  0  0  0
    1.6285   12.5383   -0.3356 H   0  0  0  0  0  0  0  0  0  0  0  0
    2.6225   10.1568   -2.0188 H   0  0  0  0  0  0  0  0  0  0  0  0
    3.4923   10.9548   -0.6341 H   0  0  0  0  0  0  0  0  0  0  0  0
    2.4367    8.8174    0.0300 H   0  0  0  0  0  0  0  0  0  0  0  0
    1.7561   10.2434    0.9066 H   0  0  0  0  0  0  0  0  0  0  0  0
   -0.0492    8.7968    0.2701 H   0  0  0  0  0  0  0  0  0  0  0  0
    0.6400    7.6500   -1.4600 H   0  0  0  0  0  0  0  0  0  0  0  0
   -0.4947   10.6521    1.3682 H   0  0  0  0  0  0  0  0  0  0  0  0
   -0.3353   12.2642    0.5921 H   0  0  0  0  0  0  0  0  0  0  0  0
   -1.9209   11.4202    0.5921 H   0  0  0  0  0  0  0  0  0  0  0  0
   -2.4988    9.8334   -0.6018 H   0  0  0  0  0  0  0  0  0  0  0  0
   -2.2497   10.8880   -2.0344 H   0  0  0  0  0  0  0  0  0  0  0  0
   -1.6139    9.2080   -2.0344 H   0  0  0  0  0  0  0  0  0  0  0  0
    3.8452   11.4950   -2.9915 H   0  0  0  0  0  0  0  0  0  0  0  0
    2.3927   11.7612   -4.0142 H   0  0  0  0  0  0  0  0  0  0  0  0
    3.7244   12.9667   -4.0142 H   0  0  0  0  0  0  0  0  0  0  0  0
    4.0100   12.9628   -0.6841 H   0  0  0  0  0  0  0  0  0  0  0  0
    4.3533   14.0360   -2.1556 H   0  0  0  0  0  0  0  0  0  0  0  0
    2.6229   14.6885    0.2449 H   0  0  0  0  0  0  0  0  0  0  0  0
    4.1806   15.4509   -0.2643 H   0  0  0  0  0  0  0  0  0  0  0  0
    4.3630   16.8281   -2.2338 H   0  0  0  0  0  0  0  0  0  0  0  0
    3.6911   15.5282   -3.2756 H   0  0  0  0  0  0  0  0  0  0  0  0
    2.9375   17.1587   -3.2756 H   0  0  0  0  0  0  0  0  0  0  0  0
  1  2  1  0
  2  3  1  0
  3  4  1  0
  4  5  1  0
  5  6  1  0
  6  7  1  0
  7  8  1  0
  7  9  1  0
  2 10  1  0
 10 11  1  0
 11 12  1  0
 12 13  1  0
 13 14  1  1
 13 15  1  0
 15 16  1  0
 16 17  1  0
 17 18  2  0
 18 19  1  0
 19 20  1  0
 20 21  1  0
 21 22  1  0
 22 23  1  0
 22 24  1  0
 24 25  1  0
 24 26  1  0
 19 27  1  0
 27 28  1  6
 27 29  1  0
 29 30  1  0
 30 31  1  0
 31 32  1  6
  7  5  1  0
 31 10  1  0
 31 13  1  0
 27 15  1  0
 24 18  1  0
  1 33  1  0
  1 34  1  0
  1 35  1  0
  2 36  1  6
  3 37  1  0
  3 38  1  0
  4 39  1  0
  4 40  1  0
  5 41  1  6
  8 42  1  0
  8 43  1  0
  8 44  1  0
  9 45  1  0
  9 46  1  0
  9 47  1  0
 10 48  1  1
 11 49  1  0
 11 50  1  0
 12 51  1  0
 12 52  1  0
 14 53  1  0
 14 54  1  0
 14 55  1  0
 15 56  1  6
 16 57  1  0
 16 58  1  0
 17 59  1  0
 19 60  1  1
 20 61  1  0
 20 62  1  0
 21 63  1  0
 21 64  1  0
 22 65  1  1
 23 66  1  0
 25 67  1  0
 25 68  1  0
 25 69  1  0
 26 70  1  0
 26 71  1  0
 26 72  1  0
 28 73  1  0
 28 74  1  0
 28 75  1  0
 29 76  1  0
 29 77  1  0
 30 78  1  0
 30 79  1  0
 32 80  1  0
 32 81  1  0
 32 82  1  0
M  END
>  <meeko>  (2) 
{"is_sidechain": [false], "intermolecular_energy": 2.731, "internal_energy": -0.839}

$$$$
EPH_relaxed_0001_pdb2pqr_Repair_143_r2_0001_out
     RDKit          3D

 82 86  0  0  0  0  0  0  0  0999 V2000
    1.6510   18.5960   -1.4740 C   0  0  0  0  0  0  0  0  0  0  0  0
    1.7140   17.3960   -0.5250 C   0  0  2  0  0  0  0  0  0  0  0  0
    3.1650   17.0040   -0.1810 C   0  0  0  0  0  0  0  0  0  0  0  0
    4.0460   18.1920    0.2150 C   0  0  0  0  0  0  0  0  0  0  0  0
    3.7380   18.6730    1.6010 C   0  0  2  0  0  0  0  0  0  0  0  0
    4.0160   20.0610    1.8290 O   0  0  0  0  0  0  0  0  0  0  0  0
    4.8010   19.1250    2.5850 C   0  0  0  0  0  0  0  0  0  0  0  0
    6.2530   19.1160    2.2240 C   0  0  0  0  0  0  0  0  0  0  0  0
    4.4770   19.1080    4.0470 C   0  0  0  0  0  0  0  0  0  0  0  0
    0.9860   16.2080   -1.1410 C   0  0  1  0  0  0  0  0  0  0  0  0
    0.4870   16.4950   -2.5830 C   0  0  0  0  0  0  0  0  0  0  0  0
    0.6070   15.1650   -3.3710 C   0  0  0  0  0  0  0  0  0  0  0  0
    0.8520   14.0900   -2.2870 C   0  0  1  0  0  0  0  0  0  0  0  0
   -0.5640   13.7680   -1.7140 C   0  0  0  0  0  0  0  0  0  0  0  0
    1.5940   12.7950   -2.7530 C   0  0  2  0  0  0  0  0  0  0  0  0
    0.8550   11.9670   -3.8180 C   0  0  0  0  0  0  0  0  0  0  0  0
   -0.0590   10.9130   -3.2860 C   0  0  0  0  0  0  0  0  0  0  0  0
   -0.0670   10.4500   -2.0220 C   0  0  0  0  0  0  0  0  0  0  0  0
    0.9760   10.9250   -1.0030 C   0  0  1  0  0  0  0  0  0  0  0  0
    1.5530    9.7010   -0.2430 C   0  0  0  0  0  0  0  0  0  0  0  0
    0.4640    8.8420    0.3930 C   0  0  0  0  0  0  0  0  0  0  0  0
   -0.5210    8.3410   -0.6600 C   0  0  2  0  0  0  0  0  0  0  0  0
    0.1590    7.4310   -1.5310 O   0  0  0  0  0  0  0  0  0  0  0  0
   -1.1590    9.4860   -1.4960 C   0  0  0  0  0  0  0  0  0  0  0  0
   -2.1360   10.2950   -0.6090 C   0  0  0  0  0  0  0  0  0  0  0  0
   -2.0210    8.8380   -2.6130 C   0  0  0  0  0  0  0  0  0  0  0  0
    2.1120   11.8820   -1.5680 C   0  0  1  0  0  0  0  0  0  0  0  0
    3.2880   11.0330   -2.1410 C   0  0  0  0  0  0  0  0  0  0  0  0
    2.7110   12.7260   -0.3810 C   0  0  0  0  0  0  0  0  0  0  0  0
    2.0050   14.0540   -0.0460 C   0  0  0  0  0  0  0  0  0  0  0  0
    1.7870   14.8920   -1.3100 C   0  0  2  0  0  0  0  0  0  0  0  0
    3.1950   15.2500   -1.8960 C   0  0  0  0  0  0  0  0  0  0  0  0
    1.6022   19.5252   -0.8874 H   0  0  0  0  0  0  0  0  0  0  0  0
    2.5497   18.6095   -2.1082 H   0  0  0  0  0  0  0  0  0  0  0  0
    0.7559   18.5153   -2.1082 H   0  0  0  0  0  0  0  0  0  0  0  0
    1.2198   17.6892    0.4130 H   0  0  0  0  0  0  0  0  0  0  0  0
    3.1430   16.2930    0.6580 H   0  0  0  0  0  0  0  0  0  0  0  0
    3.6041   16.5670   -1.0900 H   0  0  0  0  0  0  0  0  0  0  0  0
    5.1010   17.8838    0.1709 H   0  0  0  0  0  0  0  0  0  0  0  0
    3.8463   19.0157   -0.4861 H   0  0  0  0  0  0  0  0  0  0  0  0
    2.9064   17.9584    1.6895 H   0  0  0  0  0  0  0  0  0  0  0  0
    6.8590   19.1122    3.1420 H   0  0  0  0  0  0  0  0  0  0  0  0
    6.4782   18.2164    1.6323 H   0  0  0  0  0  0  0  0  0  0  0  0
    6.4893   20.0127    1.6323 H   0  0  0  0  0  0  0  0  0  0  0  0
    5.4087   19.1569    4.6296 H   0  0  0  0  0  0  0  0  0  0  0  0
    3.8451   19.9742    4.2926 H   0  0  0  0  0  0  0  0  0  0  0  0
    3.9392   18.1804    4.2926 H   0  0  0  0  0  0  0  0  0  0  0  0
    0.1910   16.0716   -0.3931 H   0  0  0  0  0  0  0  0  0  0  0  0
   -0.5607   16.8295   -2.5617 H   0  0  0  0  0  0  0  0  0  0  0  0
    1.0827   17.2895   -3.0562 H   0  0  0  0  0  0  0  0  0  0  0  0
   -0.3212   14.9555   -3.9228 H   0  0  0  0  0  0  0  0  0  0  0  0
    1.4131   15.1945   -4.1188 H   0  0  0  0  0  0  0  0  0  0  0  0
   -0.5254   13.7768   -0.6147 H   0  0  0  0  0  0  0  0  0  0  0  0
   -1.2813   14.5260   -2.0618 H   0  0  0  0  0  0  0  0  0  0  0  0
   -0.8830   12.7744   -2.0618 H   0  0  0  0  0  0  0  0  0  0  0  0
    2.4842   13.2017   -3.2552 H   0  0  0  0  0  0  0  0  0  0  0  0
    0.2570   12.6576   -4.4308 H   0  0  0  0  0  0  0  0  0  0  0  0
    1.6339   11.4362   -4.3850 H   0  0  0  0  0  0  0  0  0  0  0  0
   -0.7874   10.4780   -3.9861 H   0  0  0  0  0  0  0  0  0  0  0  0
    0.4387   11.5808   -0.3021 H   0  0  0  0  0  0  0  0  0  0  0  0
    2.1219    9.0816   -0.9520 H   0  0  0  0  0  0  0  0  0  0  0  0
    2.1939   10.0815    0.5660 H   0  0  0  0  0  0  0  0  0  0  0  0
    0.9308    7.9782    0.8890 H   0  0  0  0  0  0  0  0  0  0  0  0
   -0.0847    9.4550    1.1232 H   0  0  0  0  0  0  0  0  0  0  0  0
   -1.3459    7.8425   -0.1298 H   0  0  0  0  0  0  0  0  0  0  0  0
   -0.2250    6.5480   -1.3910 H   0  0  0  0  0  0  0  0  0  0  0  0
   -1.9097   10.1076    0.4510 H   0  0  0  0  0  0  0  0  0  0  0  0
   -2.0235   11.3679   -0.8238 H   0  0  0  0  0  0  0  0  0  0  0  0
   -3.1691    9.9844   -0.8238 H   0  0  0  0  0  0  0  0  0  0  0  0
   -2.8210    8.2366   -2.1565 H   0  0  0  0  0  0  0  0  0  0  0  0
   -2.4661    9.6270   -3.2370 H   0  0  0  0  0  0  0  0  0  0  0  0
   -1.3867    8.1912   -3.2370 H   0  0  0  0  0  0  0  0  0  0  0  0
    3.8734   10.6103   -1.3112 H   0  0  0  0  0  0  0  0  0  0  0  0
    2.8843   10.2167   -2.7580 H   0  0  0  0  0  0  0  0  0  0  0  0
    3.9357   11.6731   -2.7580 H   0  0  0  0  0  0  0  0  0  0  0  0
    2.6829   12.0975    0.5213 H   0  0  0  0  0  0  0  0  0  0  0  0
    3.7199   13.0125   -0.7126 H   0  0  0  0  0  0  0  0  0  0  0  0
    1.0300   13.8372    0.4148 H   0  0  0  0  0  0  0  0  0  0  0  0
    2.6401   14.6240    0.6481 H   0  0  0  0  0  0  0  0  0  0  0  0
    3.9005   15.4294   -1.0714 H   0  0  0  0  0  0  0  0  0  0  0  0
    3.5579   14.4155   -2.5141 H   0  0  0  0  0  0  0  0  0  0  0  0
    3.1152   16.1564   -2.5141 H   0  0  0  0  0  0  0  0  0  0  0  0
  1  2  1  0
  2  3  1  0
  3  4  1  0
  4  5  1  0
  5  6  1  0
  6  7  1  0
  7  8  1  0
  7  9  1  0
  2 10  1  0
 10 11  1  0
 11 12  1  0
 12 13  1  0
 13 14  1  1
 13 15  1  0
 15 16  1  0
 16 17  1  0
 17 18  2  0
 18 19  1  0
 19 20  1  0
 20 21  1  0
 21 22  1  0
 22 23  1  0
 22 24  1  0
 24 25  1  0
 24 26  1  0
 19 27  1  0
 27 28  1  6
 27 29  1  0
 29 30  1  0
 30 31  1  0
 31 32  1  6
  7  5  1  0
 31 10  1  0
 31 13  1  0
 27 15  1  0
 24 18  1  0
  1 33  1  0
  1 34  1  0
  1 35  1  0
  2 36  1  1
  3 37  1  0
  3 38  1  0
  4 39  1  0
  4 40  1  0
  5 41  1  1
  8 42  1  0
  8 43  1  0
  8 44  1  0
  9 45  1  0
  9 46  1  0
  9 47  1  0
 10 48  1  1
 11 49  1  0
 11 50  1  0
 12 51  1  0
 12 52  1  0
 14 53  1  0
 14 54  1  0
 14 55  1  0
 15 56  1  6
 16 57  1  0
 16 58  1  0
 17 59  1  0
 19 60  1  1
 20 61  1  0
 20 62  1  0
 21 63  1  0
 21 64  1  0
 22 65  1  1
 23 66  1  0
 25 67  1  0
 25 68  1  0
 25 69  1  0
 26 70  1  0
 26 71  1  0
 26 72  1  0
 28 73  1  0
 28 74  1  0
 28 75  1  0
 29 76  1  0
 29 77  1  0
 30 78  1  0
 30 79  1  0
 32 80  1  0
 32 81  1  0
 32 82  1  0
M  END
>  <meeko>  (3) 
{"is_sidechain": [false], "intermolecular_energy": 2.731, "internal_energy": -0.839}

$$$$
EPH_relaxed_0001_pdb2pqr_Repair_143_r2_0001_out
     RDKit          3D

 82 86  0  0  0  0  0  0  0  0999 V2000
   -1.7150    8.5820   -1.9160 C   0  0  0  0  0  0  0  0  0  0  0  0
   -2.1160    9.0350   -0.5090 C   0  0  2  0  0  0  0  0  0  0  0  0
   -3.6230    9.3420   -0.4050 C   0  0  0  0  0  0  0  0  0  0  0  0
   -4.4990    8.0920   -0.2830 C   0  0  0  0  0  0  0  0  0  0  0  0
   -5.2230    7.7960   -1.5610 C   0  0  2  0  0  0  0  0  0  0  0  0
   -6.3320    8.6610   -1.8350 O   0  0  0  0  0  0  0  0  0  0  0  0
   -6.6480    7.2770   -1.6150 C   0  0  0  0  0  0  0  0  0  0  0  0
   -7.4330    7.0240   -0.3660 C   0  0  0  0  0  0  0  0  0  0  0  0
   -7.1020    6.5590   -2.8470 C   0  0  0  0  0  0  0  0  0  0  0  0
   -1.3050   10.2620   -0.1080 C   0  0  1  0  0  0  0  0  0  0  0  0
   -0.3460    9.9830    1.0800 C   0  0  0  0  0  0  0  0  0  0  0  0
    0.9270   10.8340    0.8360 C   0  0  0  0  0  0  0  0  0  0  0  0
    0.5300   11.8160   -0.2910 C   0  0  1  0  0  0  0  0  0  0  0  0
   -0.2500   12.9600    0.4300 C   0  0  0  0  0  0  0  0  0  0  0  0
    1.7000   12.3760   -1.1630 C   0  0  2  0  0  0  0  0  0  0  0  0
    2.7380   13.2170   -0.4000 C   0  0  0  0  0  0  0  0  0  0  0  0
    2.4540   14.6820   -0.3430 C   0  0  0  0  0  0  0  0  0  0  0  0
    1.5680   15.3380   -1.1160 C   0  0  0  0  0  0  0  0  0  0  0  0
    0.8110   14.6120   -2.2360 C   0  0  1  0  0  0  0  0  0  0  0  0
    0.8540   15.4680   -3.5290 C   0  0  0  0  0  0  0  0  0  0  0  0
    0.3470   16.8890   -3.3070 C   0  0  0  0  0  0  0  0  0  0  0  0
    1.1610   17.5970   -2.2280 C   0  0  2  0  0  0  0  0  0  0  0  0
    2.4950   17.7890   -2.7090 O   0  0  0  0  0  0  0  0  0  0  0  0
    1.1980   16.8230   -0.8810 C   0  0  0  0  0  0  0  0  0  0  0  0
   -0.1980   16.8760   -0.2110 C   0  0  0  0  0  0  0  0  0  0  0  0
    2.1660   17.5720    0.0740 C   0  0  0  0  0  0  0  0  0  0  0  0
    1.2310   13.1000   -2.4900 C   0  0  1  0  0  0  0  0  0  0  0  0
    2.4340   13.0410   -3.4790 C   0  0  0  0  0  0  0  0  0  0  0  0
    0.0400   12.3480   -3.1930 C   0  0  0  0  0  0  0  0  0  0  0  0
   -1.0210   11.7130   -2.2740 C   0  0  0  0  0  0  0  0  0  0  0  0
   -0.3630   10.8720   -1.1760 C   0  0  2  0  0  0  0  0  0  0  0  0
    0.4110    9.7000   -1.8700 C   0  0  0  0  0  0  0  0  0  0  0  0
   -0.9875    7.7602   -1.8432 H   0  0  0  0  0  0  0  0  0  0  0  0
   -2.6073    8.2349   -2.4577 H   0  0  0  0  0  0  0  0  0  0  0  0
   -1.2622    9.4256   -2.4577 H   0  0  0  0  0  0  0  0  0  0  0  0
   -1.9006    8.2051    0.1802 H   0  0  0  0  0  0  0  0  0  0  0  0
   -3.7889    9.9703    0.4825 H   0  0  0  0  0  0  0  0  0  0  0  0
   -3.9130    9.8479   -1.3377 H   0  0  0  0  0  0  0  0  0  0  0  0
   -3.8610    7.2331   -0.0275 H   0  0  0  0  0  0  0  0  0  0  0  0
   -5.2483    8.2735    0.5016 H   0  0  0  0  0  0  0  0  0  0  0  0
   -4.2929    7.4487   -2.0346 H   0  0  0  0  0  0  0  0  0  0  0  0
   -6.8016    7.2275    0.5115 H   0  0  0  0  0  0  0  0  0  0  0  0
   -8.3127    7.6841   -0.3458 H   0  0  0  0  0  0  0  0  0  0  0  0
   -7.7617    5.9744   -0.3458 H   0  0  0  0  0  0  0  0  0  0  0  0
   -7.6695    5.6614   -2.5601 H   0  0  0  0  0  0  0  0  0  0  0  0
   -7.7442    7.2239   -3.4432 H   0  0  0  0  0  0  0  0  0  0  0  0
   -6.2260    6.2639   -3.4432 H   0  0  0  0  0  0  0  0  0  0  0  0
   -2.1254   10.9606    0.1131 H   0  0  0  0  0  0  0  0  0  0  0  0
   -0.8216   10.2758    2.0277 H   0  0  0  0  0  0  0  0  0  0  0  0
   -0.0994    8.9130    1.1459 H   0  0  0  0  0  0  0  0  0  0  0  0
    1.2083   11.3821    1.7473 H   0  0  0  0  0  0  0  0  0  0  0  0
    1.7958   10.2164    0.5642 H   0  0  0  0  0  0  0  0  0  0  0  0
   -0.1634   12.8329    1.5192 H   0  0  0  0  0  0  0  0  0  0  0  0
    0.1739   13.9325    0.1394 H   0  0  0  0  0  0  0  0  0  0  0  0
   -1.3102   12.9206    0.1394 H   0  0  0  0  0  0  0  0  0  0  0  0
    2.2255   11.4593   -1.4688 H   0  0  0  0  0  0  0  0  0  0  0  0
    2.7885   12.8401    0.6322 H   0  0  0  0  0  0  0  0  0  0  0  0
    3.6823   13.1112   -0.9541 H   0  0  0  0  0  0  0  0  0  0  0  0
    3.0163   15.2755    0.3929 H   0  0  0  0  0  0  0  0  0  0  0  0
   -0.2278   14.5144   -1.8876 H   0  0  0  0  0  0  0  0  0  0  0  0
    1.8935   15.5162   -3.8855 H   0  0  0  0  0  0  0  0  0  0  0  0
    0.1942   14.9898   -4.2679 H   0  0  0  0  0  0  0  0  0  0  0  0
    0.4305   17.4520   -4.2483 H   0  0  0  0  0  0  0  0  0  0  0  0
   -0.7020   16.8400   -2.9794 H   0  0  0  0  0  0  0  0  0  0  0  0
    0.6697   18.5596   -2.0228 H   0  0  0  0  0  0  0  0  0  0  0  0
    3.0940   17.7390   -1.9450 H   0  0  0  0  0  0  0  0  0  0  0  0
   -0.0802   16.8715    0.8827 H   0  0  0  0  0  0  0  0  0  0  0  0
   -0.7184   17.7945   -0.5200 H   0  0  0  0  0  0  0  0  0  0  0  0
   -0.7865   15.9996   -0.5200 H   0  0  0  0  0  0  0  0  0  0  0  0
    1.8901   17.3585    1.1172 H   0  0  0  0  0  0  0  0  0  0  0  0
    3.1965   17.2338   -0.1093 H   0  0  0  0  0  0  0  0  0  0  0  0
    2.0973   18.6544   -0.1093 H   0  0  0  0  0  0  0  0  0  0  0  0
    3.3744   12.9949   -2.9102 H   0  0  0  0  0  0  0  0  0  0  0  0
    2.3444   12.1462   -4.1124 H   0  0  0  0  0  0  0  0  0  0  0  0
    2.4324   13.9403   -4.1124 H   0  0  0  0  0  0  0  0  0  0  0  0
   -0.4733   13.0721   -3.8428 H   0  0  0  0  0  0  0  0  0  0  0  0
    0.5056   11.5029   -3.7212 H   0  0  0  0  0  0  0  0  0  0  0  0
   -1.6170   12.5112   -1.8074 H   0  0  0  0  0  0  0  0  0  0  0  0
   -1.6631   11.0573   -2.8805 H   0  0  0  0  0  0  0  0  0  0  0  0
    0.8453    9.0423   -1.1026 H   0  0  0  0  0  0  0  0  0  0  0  0
   -0.2839    9.1224   -2.4973 H   0  0  0  0  0  0  0  0  0  0  0  0
    1.2150   10.1123   -2.4973 H   0  0  0  0  0  0  0  0  0  0  0  0
  1  2  1  0
  2  3  1  0
  3  4  1  0
  4  5  1  0
  5  6  1  0
  6  7  1  0
  7  8  1  0
  7  9  1  0
  2 10  1  0
 10 11  1  0
 11 12  1  0
 12 13  1  0
 13 14  1  1
 13 15  1  0
 15 16  1  0
 16 17  1  0
 17 18  2  0
 18 19  1  0
 19 20  1  0
 20 21  1  0
 21 22  1  0
 22 23  1  0
 22 24  1  0
 24 25  1  0
 24 26  1  0
 19 27  1  0
 27 28  1  6
 27 29  1  0
 29 30  1  0
 30 31  1  0
 31 32  1  6
  7  5  1  0
 31 10  1  0
 31 13  1  0
 27 15  1  0
 24 18  1  0
  1 33  1  0
  1 34  1  0
  1 35  1  0
  2 36  1  1
  3 37  1  0
  3 38  1  0
  4 39  1  0
  4 40  1  0
  5 41  1  6
  8 42  1  0
  8 43  1  0
  8 44  1  0
  9 45  1  0
  9 46  1  0
  9 47  1  0
 10 48  1  1
 11 49  1  0
 11 50  1  0
 12 51  1  0
 12 52  1  0
 14 53  1  0
 14 54  1  0
 14 55  1  0
 15 56  1  6
 16 57  1  0
 16 58  1  0
 17 59  1  0
 19 60  1  1
 20 61  1  0
 20 62  1  0
 21 63  1  0
 21 64  1  0
 22 65  1  1
 23 66  1  0
 25 67  1  0
 25 68  1  0
 25 69  1  0
 26 70  1  0
 26 71  1  0
 26 72  1  0
 28 73  1  0
 28 74  1  0
 28 75  1  0
 29 76  1  0
 29 77  1  0
 30 78  1  0
 30 79  1  0
 32 80  1  0
 32 81  1  0
 32 82  1  0
M  END
>  <meeko>  (4) 
{"is_sidechain": [false], "intermolecular_energy": 2.731, "internal_energy": -0.839}

$$$$
EPH_relaxed_0001_pdb2pqr_Repair_143_r2_0001_out
     RDKit          3D

 82 86  0  0  0  0  0  0  0  0999 V2000
   -2.6000    7.6180   -3.0500 C   0  0  0  0  0  0  0  0  0  0  0  0
   -2.8860    7.8760   -1.5680 C   0  0  2  0  0  0  0  0  0  0  0  0
   -4.3950    7.8400   -1.2530 C   0  0  0  0  0  0  0  0  0  0  0  0
   -5.1270    6.6530   -1.8860 C   0  0  0  0  0  0  0  0  0  0  0  0
   -6.3270    7.0950   -2.6690 C   0  0  2  0  0  0  0  0  0  0  0  0
   -6.8840    8.3490   -2.2520 O   0  0  0  0  0  0  0  0  0  0  0  0
   -7.7210    7.1940   -2.0790 C   0  0  0  0  0  0  0  0  0  0  0  0
   -7.9890    6.8460   -0.6480 C   0  0  0  0  0  0  0  0  0  0  0  0
   -8.8950    7.1540   -3.0060 C   0  0  0  0  0  0  0  0  0  0  0  0
   -2.3000    9.2200   -1.1520 C   0  0  1  0  0  0  0  0  0  0  0  0
   -2.8090    9.6900    0.2370 C   0  0  0  0  0  0  0  0  0  0  0  0
   -1.6330   10.4390    0.9140 C   0  0  0  0  0  0  0  0  0  0  0  0
   -0.6070   10.6650   -0.2220 C   0  0  1  0  0  0  0  0  0  0  0  0
   -1.1290   11.9200   -0.9890 C   0  0  0  0  0  0  0  0  0  0  0  0
    0.8840   10.8350    0.2170 C   0  0  2  0  0  0  0  0  0  0  0  0
    1.1660   12.0580    1.1070 C   0  0  0  0  0  0  0  0  0  0  0  0
    1.5320   13.3070    0.3770 C   0  0  0  0  0  0  0  0  0  0  0  0
    1.9070   13.3770   -0.9140 C   0  0  0  0  0  0  0  0  0  0  0  0
    2.0870   12.1050   -1.7520 C   0  0  1  0  0  0  0  0  0  0  0  0
    3.4210   12.1890   -2.5400 C   0  0  0  0  0  0  0  0  0  0  0  0
    3.5280   13.4590   -3.3770 C   0  0  0  0  0  0  0  0  0  0  0  0
    3.4020   14.7020   -2.5010 C   0  0  2  0  0  0  0  0  0  0  0  0
    4.5400   14.7740   -1.6360 O   0  0  0  0  0  0  0  0  0  0  0  0
    2.1000   14.7250   -1.6520 C   0  0  0  0  0  0  0  0  0  0  0  0
    0.8790   14.9510   -2.5790 C   0  0  0  0  0  0  0  0  0  0  0  0
    2.1650   15.9580   -0.7110 C   0  0  0  0  0  0  0  0  0  0  0  0
    1.9240   10.7310   -0.9710 C   0  0  1  0  0  0  0  0  0  0  0  0
    3.2860   10.3170   -0.3340 C   0  0  0  0  0  0  0  0  0  0  0  0
    1.5500    9.5970   -1.9970 C   0  0  0  0  0  0  0  0  0  0  0  0
    0.0520    9.3990   -2.2980 C   0  0  0  0  0  0  0  0  0  0  0  0
   -0.7600    9.3090   -1.0030 C   0  0  2  0  0  0  0  0  0  0  0  0
   -0.2730    8.0430   -0.2190 C   0  0  0  0  0  0  0  0  0  0  0  0
   -1.7862    6.8839   -3.1440 H   0  0  0  0  0  0  0  0  0  0  0  0
   -3.5058    7.2255   -3.5353 H   0  0  0  0  0  0  0  0  0  0  0  0
   -2.3026    8.5593   -3.5353 H   0  0  0  0  0  0  0  0  0  0  0  0
   -2.4091    7.0682   -0.9936 H   0  0  0  0  0  0  0  0  0  0  0  0
   -4.5209    7.7839   -0.1617 H   0  0  0  0  0  0  0  0  0  0  0  0
   -4.8347    8.7537   -1.6793 H   0  0  0  0  0  0  0  0  0  0  0  0
   -4.4356    6.1263   -2.5602 H   0  0  0  0  0  0  0  0  0  0  0  0
   -5.4701    5.9909   -1.0773 H   0  0  0  0  0  0  0  0  0  0  0  0
   -5.9437    6.6075   -3.5775 H   0  0  0  0  0  0  0  0  0  0  0  0
   -7.4497    7.5463    0.0068 H   0  0  0  0  0  0  0  0  0  0  0  0
   -9.0687    6.9160   -0.4496 H   0  0  0  0  0  0  0  0  0  0  0  0
   -7.6455    5.8200   -0.4496 H   0  0  0  0  0  0  0  0  0  0  0  0
   -9.8248    7.1223   -2.4190 H   0  0  0  0  0  0  0  0  0  0  0  0
   -8.8922    8.0528   -3.6402 H   0  0  0  0  0  0  0  0  0  0  0  0
   -8.8310    6.2575   -3.6402 H   0  0  0  0  0  0  0  0  0  0  0  0
   -2.6323    9.8363   -2.0004 H   0  0  0  0  0  0  0  0  0  0  0  0
   -3.6691   10.3652    0.1167 H   0  0  0  0  0  0  0  0  0  0  0  0
   -3.1369    8.8356    0.8474 H   0  0  0  0  0  0  0  0  0  0  0  0
   -1.9719   11.4002    1.3278 H   0  0  0  0  0  0  0  0  0  0  0  0
   -1.2062    9.8717    1.7542 H   0  0  0  0  0  0  0  0  0  0  0  0
   -1.4474   12.6854   -0.2660 H   0  0  0  0  0  0  0  0  0  0  0  0
   -0.3245   12.3245   -1.6208 H   0  0  0  0  0  0  0  0  0  0  0  0
   -1.9830   11.6346   -1.6208 H   0  0  0  0  0  0  0  0  0  0  0  0
    1.0441    9.9562    0.8589 H   0  0  0  0  0  0  0  0  0  0  0  0
    0.2620   12.2630    1.6993 H   0  0  0  0  0  0  0  0  0  0  0  0
    2.0424   11.7945    1.7174 H   0  0  0  0  0  0  0  0  0  0  0  0
    1.4920   14.2502    0.9415 H   0  0  0  0  0  0  0  0  0  0  0  0
    1.2401   12.0803   -2.4536 H   0  0  0  0  0  0  0  0  0  0  0  0
    4.2554   12.1678   -1.8236 H   0  0  0  0  0  0  0  0  0  0  0  0
    3.4560   11.3319   -3.2286 H   0  0  0  0  0  0  0  0  0  0  0  0
    4.5035   13.4741   -3.8851 H   0  0  0  0  0  0  0  0  0  0  0  0
    2.7106   13.4641   -4.1131 H   0  0  0  0  0  0  0  0  0  0  0  0
    3.3554   15.5732   -3.1710 H   0  0  0  0  0  0  0  0  0  0  0  0
    4.2570   14.4880   -0.7520 H   0  0  0  0  0  0  0  0  0  0  0  0
   -0.0200   15.1174   -1.9673 H   0  0  0  0  0  0  0  0  0  0  0  0
    1.0586   15.8312   -3.2139 H   0  0  0  0  0  0  0  0  0  0  0  0
    0.7316   14.0649   -3.2139 H   0  0  0  0  0  0  0  0  0  0  0  0
    2.1473   15.6215    0.3361 H   0  0  0  0  0  0  0  0  0  0  0  0
    3.0938   16.5158   -0.9012 H   0  0  0  0  0  0  0  0  0  0  0  0
    1.3000   16.6104   -0.9012 H   0  0  0  0  0  0  0  0  0  0  0  0
    3.2009   10.3429    0.7624 H   0  0  0  0  0  0  0  0  0  0  0  0
    3.5477    9.2987   -0.6576 H   0  0  0  0  0  0  0  0  0  0  0  0
    4.0701   11.0174   -0.6576 H   0  0  0  0  0  0  0  0  0  0  0  0
    2.0526    9.8292   -2.9475 H   0  0  0  0  0  0  0  0  0  0  0  0
    1.8743    8.6598   -1.5211 H   0  0  0  0  0  0  0  0  0  0  0  0
   -0.3113   10.2505   -2.8921 H   0  0  0  0  0  0  0  0  0  0  0  0
   -0.0724    8.4592   -2.8560 H   0  0  0  0  0  0  0  0  0  0  0  0
   -0.3454    8.2311    0.8624 H   0  0  0  0  0  0  0  0  0  0  0  0
   -0.9041    7.1821   -0.4845 H   0  0  0  0  0  0  0  0  0  0  0  0
    0.7724    7.8270   -0.4845 H   0  0  0  0  0  0  0  0  0  0  0  0
  1  2  1  0
  2  3  1  0
  3  4  1  0
  4  5  1  0
  5  6  1  0
  6  7  1  0
  7  8  1  0
  7  9  1  0
  2 10  1  0
 10 11  1  0
 11 12  1  0
 12 13  1  0
 13 14  1  6
 13 15  1  0
 15 16  1  0
 16 17  1  0
 17 18  2  0
 18 19  1  0
 19 20  1  0
 20 21  1  0
 21 22  1  0
 22 23  1  0
 22 24  1  0
 24 25  1  0
 24 26  1  0
 19 27  1  0
 27 28  1  1
 27 29  1  0
 29 30  1  0
 30 31  1  0
 31 32  1  1
  7  5  1  0
 31 10  1  0
 31 13  1  0
 27 15  1  0
 24 18  1  0
  1 33  1  0
  1 34  1  0
  1 35  1  0
  2 36  1  1
  3 37  1  0
  3 38  1  0
  4 39  1  0
  4 40  1  0
  5 41  1  6
  8 42  1  0
  8 43  1  0
  8 44  1  0
  9 45  1  0
  9 46  1  0
  9 47  1  0
 10 48  1  6
 11 49  1  0
 11 50  1  0
 12 51  1  0
 12 52  1  0
 14 53  1  0
 14 54  1  0
 14 55  1  0
 15 56  1  1
 16 57  1  0
 16 58  1  0
 17 59  1  0
 19 60  1  6
 20 61  1  0
 20 62  1  0
 21 63  1  0
 21 64  1  0
 22 65  1  6
 23 66  1  0
 25 67  1  0
 25 68  1  0
 25 69  1  0
 26 70  1  0
 26 71  1  0
 26 72  1  0
 28 73  1  0
 28 74  1  0
 28 75  1  0
 29 76  1  0
 29 77  1  0
 30 78  1  0
 30 79  1  0
 32 80  1  0
 32 81  1  0
 32 82  1  0
M  END
>  <meeko>  (5) 
{"is_sidechain": [false], "intermolecular_energy": 2.731, "internal_energy": -0.839}

$$$$
EPH_relaxed_0001_pdb2pqr_Repair_143_r2_0001_out
     RDKit          3D

 82 86  0  0  0  0  0  0  0  0999 V2000
    3.7710   17.5660   -1.0600 C   0  0  0  0  0  0  0  0  0  0  0  0
    2.7830   17.1860   -2.1670 C   0  0  2  0  0  0  0  0  0  0  0  0
    1.3700   17.7420   -1.9000 C   0  0  0  0  0  0  0  0  0  0  0  0
    1.2850   18.6400   -0.6630 C   0  0  0  0  0  0  0  0  0  0  0  0
    0.0700   19.5170   -0.6970 C   0  0  2  0  0  0  0  0  0  0  0  0
   -0.3140   20.0570    0.5740 O   0  0  0  0  0  0  0  0  0  0  0  0
   -1.2460   19.1500   -0.0370 C   0  0  0  0  0  0  0  0  0  0  0  0
   -1.4140   17.8600    0.7020 C   0  0  0  0  0  0  0  0  0  0  0  0
   -2.4980   19.8100   -0.5240 C   0  0  0  0  0  0  0  0  0  0  0  0
    2.7270   15.6700   -2.3150 C   0  0  1  0  0  0  0  0  0  0  0  0
    4.1260   15.0400   -2.5450 C   0  0  0  0  0  0  0  0  0  0  0  0
    4.1210   13.6650   -1.8280 C   0  0  0  0  0  0  0  0  0  0  0  0
    2.6330   13.4030   -1.4980 C   0  0  1  0  0  0  0  0  0  0  0  0
    2.0180   12.8560   -2.8240 C   0  0  0  0  0  0  0  0  0  0  0  0
    2.3510   12.4480   -0.2930 C   0  0  2  0  0  0  0  0  0  0  0  0
    2.8650   11.0080   -0.4670 C   0  0  0  0  0  0  0  0  0  0  0  0
    1.8960   10.0560   -1.0860 C   0  0  0  0  0  0  0  0  0  0  0  0
    0.5740   10.2650   -1.2260 C   0  0  0  0  0  0  0  0  0  0  0  0
   -0.0900   11.5220   -0.6470 C   0  0  1  0  0  0  0  0  0  0  0  0
   -1.3840   11.1220    0.1090 C   0  0  0  0  0  0  0  0  0  0  0  0
   -2.3380   10.3040   -0.7570 C   0  0  0  0  0  0  0  0  0  0  0  0
   -1.6600    9.0340   -1.2650 C   0  0  2  0  0  0  0  0  0  0  0  0
   -1.3970    8.1740   -0.1520 O   0  0  0  0  0  0  0  0  0  0  0  0
   -0.3380    9.3110   -2.0350 C   0  0  0  0  0  0  0  0  0  0  0  0
   -0.6590    9.9820   -3.3940 C   0  0  0  0  0  0  0  0  0  0  0  0
    0.3150    7.9440   -2.3700 C   0  0  0  0  0  0  0  0  0  0  0  0
    0.8520   12.4690    0.2140 C   0  0  1  0  0  0  0  0  0  0  0  0
    0.8760   11.9890    1.6970 C   0  0  0  0  0  0  0  0  0  0  0  0
    0.2450   13.9220    0.2270 C   0  0  0  0  0  0  0  0  0  0  0  0
    0.6560   14.8570   -0.9260 C   0  0  0  0  0  0  0  0  0  0  0  0
    2.1760   14.8580   -1.1160 C   0  0  2  0  0  0  0  0  0  0  0  0
    2.8210   15.4260    0.1940 C   0  0  0  0  0  0  0  0  0  0  0  0
    3.3079   17.3879   -0.0782 H   0  0  0  0  0  0  0  0  0  0  0  0
    4.6797   16.9532   -1.1534 H   0  0  0  0  0  0  0  0  0  0  0  0
    4.0349   18.6298   -1.1534 H   0  0  0  0  0  0  0  0  0  0  0  0
    3.1440   17.6380   -3.1026 H   0  0  0  0  0  0  0  0  0  0  0  0
    1.0561   18.3278   -2.7765 H   0  0  0  0  0  0  0  0  0  0  0  0
    0.7145   16.8782   -1.7155 H   0  0  0  0  0  0  0  0  0  0  0  0
    1.2423   18.0064    0.2352 H   0  0  0  0  0  0  0  0  0  0  0  0
    2.1745   19.2869   -0.6472 H   0  0  0  0  0  0  0  0  0  0  0  0
    0.3155   19.8575   -1.7137 H   0  0  0  0  0  0  0  0  0  0  0  0
   -1.3890   18.0518    1.7849 H   0  0  0  0  0  0  0  0  0  0  0  0
   -2.3789   17.4059    0.4322 H   0  0  0  0  0  0  0  0  0  0  0  0
   -0.5976   17.1739    0.4322 H   0  0  0  0  0  0  0  0  0  0  0  0
   -3.1032   20.1290    0.3374 H   0  0  0  0  0  0  0  0  0  0  0  0
   -2.2366   20.6875   -1.1336 H   0  0  0  0  0  0  0  0  0  0  0  0
   -3.0743   19.0985   -1.1336 H   0  0  0  0  0  0  0  0  0  0  0  0
    2.0381   15.5938   -3.1692 H   0  0  0  0  0  0  0  0  0  0  0  0
    4.3084   14.9052   -3.6214 H   0  0  0  0  0  0  0  0  0  0  0  0
    4.9212   15.6889   -2.1492 H   0  0  0  0  0  0  0  0  0  0  0  0
    4.5160   12.8803   -2.4900 H   0  0  0  0  0  0  0  0  0  0  0  0
    4.7548   13.6608   -0.9290 H   0  0  0  0  0  0  0  0  0  0  0  0
    1.2151   12.1419   -2.5886 H   0  0  0  0  0  0  0  0  0  0  0  0
    1.6058   13.6914   -3.4090 H   0  0  0  0  0  0  0  0  0  0  0  0
    2.7996   12.3492   -3.4090 H   0  0  0  0  0  0  0  0  0  0  0  0
    2.9646   12.8897    0.5060 H   0  0  0  0  0  0  0  0  0  0  0  0
    3.7619   11.0417   -1.1029 H   0  0  0  0  0  0  0  0  0  0  0  0
    3.0584   10.6291    0.5474 H   0  0  0  0  0  0  0  0  0  0  0  0
    2.2968    9.1022   -1.4596 H   0  0  0  0  0  0  0  0  0  0  0  0
   -0.3425   12.1575   -1.5086 H   0  0  0  0  0  0  0  0  0  0  0  0
   -1.1073   10.5245    0.9901 H   0  0  0  0  0  0  0  0  0  0  0  0
   -1.9036   12.0483    0.3952 H   0  0  0  0  0  0  0  0  0  0  0  0
   -3.2192   10.0274   -0.1595 H   0  0  0  0  0  0  0  0  0  0  0  0
   -2.6364   10.9133   -1.6228 H   0  0  0  0  0  0  0  0  0  0  0  0
   -2.3464    8.5581   -1.9809 H   0  0  0  0  0  0  0  0  0  0  0  0
   -1.0070    7.3540   -0.4990 H   0  0  0  0  0  0  0  0  0  0  0  0
   -1.1276   10.9615   -3.2177 H   0  0  0  0  0  0  0  0  0  0  0  0
    0.2715   10.1181   -3.9646 H   0  0  0  0  0  0  0  0  0  0  0  0
   -1.3489    9.3429   -3.9646 H   0  0  0  0  0  0  0  0  0  0  0  0
    0.5658    7.4189   -1.4365 H   0  0  0  0  0  0  0  0  0  0  0  0
   -0.3894    7.3348   -2.9555 H   0  0  0  0  0  0  0  0  0  0  0  0
    1.2315    8.1091   -2.9555 H   0  0  0  0  0  0  0  0  0  0  0  0
    0.8324   12.8615    2.3655 H   0  0  0  0  0  0  0  0  0  0  0  0
    0.0093   11.3386    1.8859 H   0  0  0  0  0  0  0  0  0  0  0  0
    1.8033   11.4283    1.8859 H   0  0  0  0  0  0  0  0  0  0  0  0
   -0.8505   13.8252    0.2025 H   0  0  0  0  0  0  0  0  0  0  0  0
    0.6461   14.3932    1.1364 H   0  0  0  0  0  0  0  0  0  0  0  0
    0.1775   14.5142   -1.8552 H   0  0  0  0  0  0  0  0  0  0  0  0
    0.3326   15.8794   -0.6807 H   0  0  0  0  0  0  0  0  0  0  0  0
    2.3212   14.9858    1.0695 H   0  0  0  0  0  0  0  0  0  0  0  0
    3.8909   15.1714    0.2161 H   0  0  0  0  0  0  0  0  0  0  0  0
    2.7038   16.5195    0.2161 H   0  0  0  0  0  0  0  0  0  0  0  0
  1  2  1  0
  2  3  1  0
  3  4  1  0
  4  5  1  0
  5  6  1  0
  6  7  1  0
  7  8  1  0
  7  9  1  0
  2 10  1  0
 10 11  1  0
 11 12  1  0
 12 13  1  0
 13 14  1  6
 13 15  1  0
 15 16  1  0
 16 17  1  0
 17 18  2  0
 18 19  1  0
 19 20  1  0
 20 21  1  0
 21 22  1  0
 22 23  1  0
 22 24  1  0
 24 25  1  0
 24 26  1  0
 19 27  1  0
 27 28  1  1
 27 29  1  0
 29 30  1  0
 30 31  1  0
 31 32  1  1
  7  5  1  0
 31 10  1  0
 31 13  1  0
 27 15  1  0
 24 18  1  0
  1 33  1  0
  1 34  1  0
  1 35  1  0
  2 36  1  6
  3 37  1  0
  3 38  1  0
  4 39  1  0
  4 40  1  0
  5 41  1  6
  8 42  1  0
  8 43  1  0
  8 44  1  0
  9 45  1  0
  9 46  1  0
  9 47  1  0
 10 48  1  6
 11 49  1  0
 11 50  1  0
 12 51  1  0
 12 52  1  0
 14 53  1  0
 14 54  1  0
 14 55  1  0
 15 56  1  1
 16 57  1  0
 16 58  1  0
 17 59  1  0
 19 60  1  6
 20 61  1  0
 20 62  1  0
 21 63  1  0
 21 64  1  0
 22 65  1  6
 23 66  1  0
 25 67  1  0
 25 68  1  0
 25 69  1  0
 26 70  1  0
 26 71  1  0
 26 72  1  0
 28 73  1  0
 28 74  1  0
 28 75  1  0
 29 76  1  0
 29 77  1  0
 30 78  1  0
 30 79  1  0
 32 80  1  0
 32 81  1  0
 32 82  1  0
M  END
>  <meeko>  (6) 
{"is_sidechain": [false], "intermolecular_energy": 2.731, "internal_energy": -0.839}

$$$$
EPH_relaxed_0001_pdb2pqr_Repair_143_r2_0001_out
     RDKit          3D

 82 86  0  0  0  0  0  0  0  0999 V2000
   -0.8880    9.2310   -2.0400 C   0  0  0  0  0  0  0  0  0  0  0  0
   -1.2050    9.4270   -0.5540 C   0  0  2  0  0  0  0  0  0  0  0  0
   -2.7180    9.3490   -0.2680 C   0  0  0  0  0  0  0  0  0  0  0  0
   -3.4330    8.2340   -1.0350 C   0  0  0  0  0  0  0  0  0  0  0  0
   -4.8930    8.1790   -0.7000 C   0  0  2  0  0  0  0  0  0  0  0  0
   -5.3740    6.8810   -0.3290 O   0  0  0  0  0  0  0  0  0  0  0  0
   -5.9160    7.4350   -1.5380 C   0  0  0  0  0  0  0  0  0  0  0  0
   -5.5200    6.6950   -2.7770 C   0  0  0  0  0  0  0  0  0  0  0  0
   -7.3550    7.8310   -1.4280 C   0  0  0  0  0  0  0  0  0  0  0  0
   -0.6520   10.7650   -0.0770 C   0  0  1  0  0  0  0  0  0  0  0  0
    0.2500   10.6250    1.1780 C   0  0  0  0  0  0  0  0  0  0  0  0
    1.3710   11.6880    1.0440 C   0  0  0  0  0  0  0  0  0  0  0  0
    0.8930   12.6160   -0.0980 C   0  0  1  0  0  0  0  0  0  0  0  0
   -0.1240   13.5890    0.5750 C   0  0  0  0  0  0  0  0  0  0  0  0
    2.0100   13.3910   -0.8710 C   0  0  2  0  0  0  0  0  0  0  0  0
    2.8260   14.3790   -0.0200 C   0  0  0  0  0  0  0  0  0  0  0  0
    2.2880   15.7710    0.0340 C   0  0  0  0  0  0  0  0  0  0  0  0
    1.3620   16.2830   -0.7970 C   0  0  0  0  0  0  0  0  0  0  0  0
    0.8270   15.4670   -1.9810 C   0  0  1  0  0  0  0  0  0  0  0  0
    0.8160   16.3500   -3.2560 C   0  0  0  0  0  0  0  0  0  0  0  0
    0.0540   17.6570   -3.0570 C   0  0  0  0  0  0  0  0  0  0  0  0
    0.6520   18.4670   -1.9090 C   0  0  2  0  0  0  0  0  0  0  0  0
    1.9640   18.8980   -2.2830 O   0  0  0  0  0  0  0  0  0  0  0  0
    0.7230   17.6760   -0.5730 C   0  0  0  0  0  0  0  0  0  0  0  0
   -0.7060   17.4710   -0.0130 C   0  0  0  0  0  0  0  0  0  0  0  0
    1.4730   18.5560    0.4630 C   0  0  0  0  0  0  0  0  0  0  0  0
    1.5210   14.0570   -2.2200 C   0  0  1  0  0  0  0  0  0  0  0  0
    2.7860   14.2320   -3.1150 C   0  0  0  0  0  0  0  0  0  0  0  0
    0.5340   13.1290   -3.0230 C   0  0  0  0  0  0  0  0  0  0  0  0
   -0.4650   12.2980   -2.1960 C   0  0  0  0  0  0  0  0  0  0  0  0
    0.2460   11.5550   -1.0610 C   0  0  2  0  0  0  0  0  0  0  0  0
    1.2610   10.5520   -1.7080 C   0  0  0  0  0  0  0  0  0  0  0  0
    0.0435    8.6551   -2.1434 H   0  0  0  0  0  0  0  0  0  0  0  0
   -1.7123    8.6847   -2.5218 H   0  0  0  0  0  0  0  0  0  0  0  0
   -0.7676   10.2125   -2.5218 H   0  0  0  0  0  0  0  0  0  0  0  0
   -0.7225    8.6074   -0.0013 H   0  0  0  0  0  0  0  0  0  0  0  0
   -2.8592    9.1753    0.8090 H   0  0  0  0  0  0  0  0  0  0  0  0
   -3.1574   10.3008   -0.6011 H   0  0  0  0  0  0  0  0  0  0  0  0
   -3.3214    8.4154   -2.1142 H   0  0  0  0  0  0  0  0  0  0  0  0
   -2.9788    7.2742   -0.7477 H   0  0  0  0  0  0  0  0  0  0  0  0
   -4.8659    9.2069   -0.3092 H   0  0  0  0  0  0  0  0  0  0  0  0
   -5.0178    5.7566   -2.4989 H   0  0  0  0  0  0  0  0  0  0  0  0
   -6.4174    6.4684   -3.3714 H   0  0  0  0  0  0  0  0  0  0  0  0
   -4.8336    7.3160   -3.3714 H   0  0  0  0  0  0  0  0  0  0  0  0
   -7.6341    7.9078   -0.3668 H   0  0  0  0  0  0  0  0  0  0  0  0
   -7.5060    8.8041   -1.9182 H   0  0  0  0  0  0  0  0  0  0  0  0
   -7.9826    7.0722   -1.9182 H   0  0  0  0  0  0  0  0  0  0  0  0
   -1.5954   11.3061    0.0879 H   0  0  0  0  0  0  0  0  0  0  0  0
   -0.3381   10.8075    2.0895 H   0  0  0  0  0  0  0  0  0  0  0  0
    0.6728    9.6120    1.2496 H   0  0  0  0  0  0  0  0  0  0  0  0
    1.4852   12.2524    1.9812 H   0  0  0  0  0  0  0  0  0  0  0  0
    2.3515   11.2364    0.8324 H   0  0  0  0  0  0  0  0  0  0  0  0
   -0.0398   13.5084    1.6688 H   0  0  0  0  0  0  0  0  0  0  0  0
    0.0962   14.6213    0.2654 H   0  0  0  0  0  0  0  0  0  0  0  0
   -1.1455   13.3234    0.2654 H   0  0  0  0  0  0  0  0  0  0  0  0
    2.7081   12.5869   -1.1468 H   0  0  0  0  0  0  0  0  0  0  0  0
    2.8654   13.9899    1.0081 H   0  0  0  0  0  0  0  0  0  0  0  0
    3.8122   14.4527   -0.5017 H   0  0  0  0  0  0  0  0  0  0  0  0
    2.6818   16.4333    0.8190 H   0  0  0  0  0  0  0  0  0  0  0  0
   -0.2022   15.1837   -1.7155 H   0  0  0  0  0  0  0  0  0  0  0  0
    1.8548   16.5859   -3.5303 H   0  0  0  0  0  0  0  0  0  0  0  0
    0.3059   15.7840   -4.0493 H   0  0  0  0  0  0  0  0  0  0  0  0
    0.1077   18.2496   -3.9821 H   0  0  0  0  0  0  0  0  0  0  0  0
   -0.9920   17.4202   -2.8125 H   0  0  0  0  0  0  0  0  0  0  0  0
   -0.0122   19.3255   -1.7303 H   0  0  0  0  0  0  0  0  0  0  0  0
    2.4020   18.1540   -2.7290 H   0  0  0  0  0  0  0  0  0  0  0  0
   -0.6731   17.4757    1.0865 H   0  0  0  0  0  0  0  0  0  0  0  0
   -1.3576   18.2849   -0.3638 H   0  0  0  0  0  0  0  0  0  0  0  0
   -1.1025   16.5068   -0.3638 H   0  0  0  0  0  0  0  0  0  0  0  0
    1.2012   18.2371    1.4801 H   0  0  0  0  0  0  0  0  0  0  0  0
    2.5582   18.4446    0.3215 H   0  0  0  0  0  0  0  0  0  0  0  0
    1.1910   19.6098    0.3215 H   0  0  0  0  0  0  0  0  0  0  0  0
    3.6730   14.3547   -2.4762 H   0  0  0  0  0  0  0  0  0  0  0  0
    2.9117   13.3427   -3.7501 H   0  0  0  0  0  0  0  0  0  0  0  0
    2.6656   15.1220   -3.7501 H   0  0  0  0  0  0  0  0  0  0  0  0
   -0.0478   13.7701   -3.7016 H   0  0  0  0  0  0  0  0  0  0  0  0
    1.1768   12.3907   -3.5248 H   0  0  0  0  0  0  0  0  0  0  0  0
   -1.2230   12.9697   -1.7668 H   0  0  0  0  0  0  0  0  0  0  0  0
   -0.9370   11.5571   -2.8581 H   0  0  0  0  0  0  0  0  0  0  0  0
    1.8032   10.0163   -0.9149 H   0  0  0  0  0  0  0  0  0  0  0  0
    0.7149    9.8289   -2.3317 H   0  0  0  0  0  0  0  0  0  0  0  0
    1.9775   11.1066   -2.3317 H   0  0  0  0  0  0  0  0  0  0  0  0
  1  2  1  0
  2  3  1  0
  3  4  1  0
  4  5  1  0
  5  6  1  0
  6  7  1  0
  7  8  1  0
  7  9  1  0
  2 10  1  0
 10 11  1  0
 11 12  1  0
 12 13  1  0
 13 14  1  1
 13 15  1  0
 15 16  1  0
 16 17  1  0
 17 18  2  0
 18 19  1  0
 19 20  1  0
 20 21  1  0
 21 22  1  0
 22 23  1  0
 22 24  1  0
 24 25  1  0
 24 26  1  0
 19 27  1  0
 27 28  1  6
 27 29  1  0
 29 30  1  0
 30 31  1  0
 31 32  1  6
  7  5  1  0
 31 10  1  0
 31 13  1  0
 27 15  1  0
 24 18  1  0
  1 33  1  0
  1 34  1  0
  1 35  1  0
  2 36  1  1
  3 37  1  0
  3 38  1  0
  4 39  1  0
  4 40  1  0
  5 41  1  1
  8 42  1  0
  8 43  1  0
  8 44  1  0
  9 45  1  0
  9 46  1  0
  9 47  1  0
 10 48  1  1
 11 49  1  0
 11 50  1  0
 12 51  1  0
 12 52  1  0
 14 53  1  0
 14 54  1  0
 14 55  1  0
 15 56  1  6
 16 57  1  0
 16 58  1  0
 17 59  1  0
 19 60  1  1
 20 61  1  0
 20 62  1  0
 21 63  1  0
 21 64  1  0
 22 65  1  1
 23 66  1  0
 25 67  1  0
 25 68  1  0
 25 69  1  0
 26 70  1  0
 26 71  1  0
 26 72  1  0
 28 73  1  0
 28 74  1  0
 28 75  1  0
 29 76  1  0
 29 77  1  0
 30 78  1  0
 30 79  1  0
 32 80  1  0
 32 81  1  0
 32 82  1  0
M  END
>  <meeko>  (7) 
{"is_sidechain": [false], "intermolecular_energy": 2.731, "internal_energy": -0.839}

$$$$
EPH_relaxed_0001_pdb2pqr_Repair_143_r2_0001_out
     RDKit          3D

 82 86  0  0  0  0  0  0  0  0999 V2000
   -1.1090    7.8560   -1.1530 C   0  0  0  0  0  0  0  0  0  0  0  0
   -1.2220    8.9640   -0.1020 C   0  0  2  0  0  0  0  0  0  0  0  0
   -2.5590    9.7260   -0.2030 C   0  0  0  0  0  0  0  0  0  0  0  0
   -3.7900    8.8410    0.0100 C   0  0  0  0  0  0  0  0  0  0  0  0
   -4.5150    8.5790   -1.2750 C   0  0  2  0  0  0  0  0  0  0  0  0
   -5.9220    8.8470   -1.2330 O   0  0  0  0  0  0  0  0  0  0  0  0
   -5.5430    7.4770   -1.4460 C   0  0  0  0  0  0  0  0  0  0  0  0
   -5.9030    6.5630   -0.3170 C   0  0  0  0  0  0  0  0  0  0  0  0
   -5.8340    6.9790   -2.8270 C   0  0  0  0  0  0  0  0  0  0  0  0
   -0.0570    9.9360   -0.2440 C   0  0  1  0  0  0  0  0  0  0  0  0
    1.3180    9.2170   -0.2940 C   0  0  0  0  0  0  0  0  0  0  0  0
    2.2160   10.0350   -1.2570 C   0  0  0  0  0  0  0  0  0  0  0  0
    1.4530   11.3640   -1.4680 C   0  0  1  0  0  0  0  0  0  0  0  0
    1.7960   12.2270   -0.2130 C   0  0  0  0  0  0  0  0  0  0  0  0
    1.7550   12.1310   -2.7960 C   0  0  2  0  0  0  0  0  0  0  0  0
    3.2100   12.6050   -2.9600 C   0  0  0  0  0  0  0  0  0  0  0  0
    3.4980   13.9720   -2.4340 C   0  0  0  0  0  0  0  0  0  0  0  0
    2.5740   14.8970   -2.1140 C   0  0  0  0  0  0  0  0  0  0  0  0
    1.0820   14.6410   -2.3630 C   0  0  1  0  0  0  0  0  0  0  0  0
    0.4490   15.8860   -3.0370 C   0  0  0  0  0  0  0  0  0  0  0  0
    0.6960   17.1680   -2.2470 C   0  0  0  0  0  0  0  0  0  0  0  0
    2.1910   17.4190   -2.0690 C   0  0  2  0  0  0  0  0  0  0  0  0
    2.7670   17.6980   -3.3490 O   0  0  0  0  0  0  0  0  0  0  0  0
    2.9390   16.2270   -1.4090 C   0  0  0  0  0  0  0  0  0  0  0  0
    2.5280   16.1160    0.0810 C   0  0  0  0  0  0  0  0  0  0  0  0
    4.4570   16.5520   -1.4170 C   0  0  0  0  0  0  0  0  0  0  0  0
    0.7290   13.2900   -3.1230 C   0  0  1  0  0  0  0  0  0  0  0  0
    0.7880   13.5160   -4.6650 C   0  0  0  0  0  0  0  0  0  0  0  0
   -0.7560   12.8870   -2.7900 C   0  0  0  0  0  0  0  0  0  0  0  0
   -0.9770   12.0280   -1.5300 C   0  0  0  0  0  0  0  0  0  0  0  0
   -0.0250   10.8290   -1.5100 C   0  0  2  0  0  0  0  0  0  0  0  0
   -0.3610    9.9300   -2.7490 C   0  0  0  0  0  0  0  0  0  0  0  0
   -1.0097    6.8826   -0.6504 H   0  0  0  0  0  0  0  0  0  0  0  0
   -2.0116    7.8536   -1.7818 H   0  0  0  0  0  0  0  0  0  0  0  0
   -0.2245    8.0359   -1.7818 H   0  0  0  0  0  0  0  0  0  0  0  0
   -1.1884    8.4855    0.8879 H   0  0  0  0  0  0  0  0  0  0  0  0
   -2.5652   10.5188    0.5595 H   0  0  0  0  0  0  0  0  0  0  0  0
   -2.6242   10.1262   -1.2255 H   0  0  0  0  0  0  0  0  0  0  0  0
   -3.4684    7.8808    0.4397 H   0  0  0  0  0  0  0  0  0  0  0  0
   -4.4767    9.3674    0.6892 H   0  0  0  0  0  0  0  0  0  0  0  0
   -3.6256    8.8549   -1.8605 H   0  0  0  0  0  0  0  0  0  0  0  0
   -5.7045    7.0670    0.6404 H   0  0  0  0  0  0  0  0  0  0  0  0
   -6.9702    6.3042   -0.3808 H   0  0  0  0  0  0  0  0  0  0  0  0
   -5.2989    5.6459   -0.3808 H   0  0  0  0  0  0  0  0  0  0  0  0
   -6.3881    6.0307   -2.7656 H   0  0  0  0  0  0  0  0  0  0  0  0
   -6.4393    7.7232   -3.3652 H   0  0  0  0  0  0  0  0  0  0  0  0
   -4.8884    6.8170   -3.3652 H   0  0  0  0  0  0  0  0  0  0  0  0
   -0.2246   10.5559    0.6491 H   0  0  0  0  0  0  0  0  0  0  0  0
    1.7670    9.1881    0.7098 H   0  0  0  0  0  0  0  0  0  0  0  0
    1.2085    8.1793   -0.6420 H   0  0  0  0  0  0  0  0  0  0  0  0
    3.2016   10.2206   -0.8053 H   0  0  0  0  0  0  0  0  0  0  0  0
    2.4026    9.5064   -2.2034 H   0  0  0  0  0  0  0  0  0  0  0  0
    1.5686   11.6550    0.6986 H   0  0  0  0  0  0  0  0  0  0  0  0
    2.8652   12.4853   -0.2267 H   0  0  0  0  0  0  0  0  0  0  0  0
    1.1959   13.1488   -0.2267 H   0  0  0  0  0  0  0  0  0  0  0  0
    1.6079   11.3507   -3.5572 H   0  0  0  0  0  0  0  0  0  0  0  0
    3.8611   11.8932   -2.4314 H   0  0  0  0  0  0  0  0  0  0  0  0
    3.3952   12.6504   -4.0434 H   0  0  0  0  0  0  0  0  0  0  0  0
    4.5543   14.2465   -2.2963 H   0  0  0  0  0  0  0  0  0  0  0  0
    0.6302   14.4828   -1.3726 H   0  0  0  0  0  0  0  0  0  0  0  0
    0.8822   16.0017   -4.0414 H   0  0  0  0  0  0  0  0  0  0  0  0
   -0.6383   15.7252   -3.0812 H   0  0  0  0  0  0  0  0  0  0  0  0
    0.2504   18.0158   -2.7880 H   0  0  0  0  0  0  0  0  0  0  0  0
    0.2368   17.0622   -1.2531 H   0  0  0  0  0  0  0  0  0  0  0  0
    2.3023   18.2751   -1.3873 H   0  0  0  0  0  0  0  0  0  0  0  0
    3.5530   17.1350   -3.4470 H   0  0  0  0  0  0  0  0  0  0  0  0
    3.3934   16.3497    0.7185 H   0  0  0  0  0  0  0  0  0  0  0  0
    1.7152   16.8268    0.2911 H   0  0  0  0  0  0  0  0  0  0  0  0
    2.1836   15.0927    0.2911 H   0  0  0  0  0  0  0  0  0  0  0  0
    4.8208   16.6299   -0.3818 H   0  0  0  0  0  0  0  0  0  0  0  0
    5.0010   15.7500   -1.9374 H   0  0  0  0  0  0  0  0  0  0  0  0
    4.6249   17.5064   -1.9374 H   0  0  0  0  0  0  0  0  0  0  0  0
    1.0609   14.5613   -4.8722 H   0  0  0  0  0  0  0  0  0  0  0  0
    1.5414   12.8462   -5.1052 H   0  0  0  0  0  0  0  0  0  0  0  0
   -0.1967   13.2999   -5.1052 H   0  0  0  0  0  0  0  0  0  0  0  0
   -1.3327   13.8153   -2.6652 H   0  0  0  0  0  0  0  0  0  0  0  0
   -1.0776   12.2538   -3.6300 H   0  0  0  0  0  0  0  0  0  0  0  0
   -0.7969   12.6453   -0.6375 H   0  0  0  0  0  0  0  0  0  0  0  0
   -2.0115   11.6542   -1.5374 H   0  0  0  0  0  0  0  0  0  0  0  0
   -0.7266    8.9517   -2.4038 H   0  0  0  0  0  0  0  0  0  0  0  0
   -1.1374   10.4181   -3.3564 H   0  0  0  0  0  0  0  0  0  0  0  0
    0.5452    9.7892   -3.3564 H   0  0  0  0  0  0  0  0  0  0  0  0
  1  2  1  0
  2  3  1  0
  3  4  1  0
  4  5  1  0
  5  6  1  0
  6  7  1  0
  7  8  1  0
  7  9  1  0
  2 10  1  0
 10 11  1  0
 11 12  1  0
 12 13  1  0
 13 14  1  1
 13 15  1  0
 15 16  1  0
 16 17  1  0
 17 18  2  0
 18 19  1  0
 19 20  1  0
 20 21  1  0
 21 22  1  0
 22 23  1  0
 22 24  1  0
 24 25  1  0
 24 26  1  0
 19 27  1  0
 27 28  1  6
 27 29  1  0
 29 30  1  0
 30 31  1  0
 31 32  1  6
  7  5  1  0
 31 10  1  0
 31 13  1  0
 27 15  1  0
 24 18  1  0
  1 33  1  0
  1 34  1  0
  1 35  1  0
  2 36  1  1
  3 37  1  0
  3 38  1  0
  4 39  1  0
  4 40  1  0
  5 41  1  6
  8 42  1  0
  8 43  1  0
  8 44  1  0
  9 45  1  0
  9 46  1  0
  9 47  1  0
 10 48  1  1
 11 49  1  0
 11 50  1  0
 12 51  1  0
 12 52  1  0
 14 53  1  0
 14 54  1  0
 14 55  1  0
 15 56  1  6
 16 57  1  0
 16 58  1  0
 17 59  1  0
 19 60  1  1
 20 61  1  0
 20 62  1  0
 21 63  1  0
 21 64  1  0
 22 65  1  1
 23 66  1  0
 25 67  1  0
 25 68  1  0
 25 69  1  0
 26 70  1  0
 26 71  1  0
 26 72  1  0
 28 73  1  0
 28 74  1  0
 28 75  1  0
 29 76  1  0
 29 77  1  0
 30 78  1  0
 30 79  1  0
 32 80  1  0
 32 81  1  0
 32 82  1  0
M  END
>  <meeko>  (8) 
{"is_sidechain": [false], "intermolecular_energy": 2.731, "internal_energy": -0.839}

$$$$
EPH_relaxed_0001_pdb2pqr_Repair_143_r2_0001_out
     RDKit          3D

 82 86  0  0  0  0  0  0  0  0999 V2000
    3.4780   18.1350    0.2850 C   0  0  0  0  0  0  0  0  0  0  0  0
    3.6790   16.8400   -0.5050 C   0  0  2  0  0  0  0  0  0  0  0  0
    3.9930   17.1080   -1.9910 C   0  0  0  0  0  0  0  0  0  0  0  0
    5.3610   16.5840   -2.4350 C   0  0  0  0  0  0  0  0  0  0  0  0
    5.3140   15.1230   -2.7660 C   0  0  2  0  0  0  0  0  0  0  0  0
    6.5240   14.4070   -2.4850 O   0  0  0  0  0  0  0  0  0  0  0  0
    6.1420   14.4880   -3.8680 C   0  0  0  0  0  0  0  0  0  0  0  0
    7.0740   15.3010   -4.7100 C   0  0  0  0  0  0  0  0  0  0  0  0
    5.6850   13.1850   -4.4450 C   0  0  0  0  0  0  0  0  0  0  0  0
    2.4390   15.9600   -0.3850 C   0  0  1  0  0  0  0  0  0  0  0  0
    1.1240   16.7830   -0.3620 C   0  0  0  0  0  0  0  0  0  0  0  0
    0.0550   15.9380   -1.1030 C   0  0  0  0  0  0  0  0  0  0  0  0
    0.6900   14.5340   -1.2330 C   0  0  1  0  0  0  0  0  0  0  0  0
    0.4500   13.8540    0.1510 C   0  0  0  0  0  0  0  0  0  0  0  0
    0.1680   13.6460   -2.4100 C   0  0  2  0  0  0  0  0  0  0  0  0
   -1.3250   13.2820   -2.3400 C   0  0  0  0  0  0  0  0  0  0  0  0
   -1.6380   12.0140   -1.6170 C   0  0  0  0  0  0  0  0  0  0  0  0
   -0.7490   11.0570   -1.2940 C   0  0  0  0  0  0  0  0  0  0  0  0
    0.7130   11.1550   -1.7480 C   0  0  1  0  0  0  0  0  0  0  0  0
    1.1680    9.7910   -2.3290 C   0  0  0  0  0  0  0  0  0  0  0  0
    0.9340    8.6350   -1.3610 C   0  0  0  0  0  0  0  0  0  0  0  0
   -0.5400    8.5340   -0.9780 C   0  0  2  0  0  0  0  0  0  0  0  0
   -1.2920    8.1580   -2.1360 O   0  0  0  0  0  0  0  0  0  0  0  0
   -1.1120    9.8540   -0.3890 C   0  0  0  0  0  0  0  0  0  0  0  0
   -0.5090   10.1010    1.0150 C   0  0  0  0  0  0  0  0  0  0  0  0
   -2.6380    9.6600   -0.1780 C   0  0  0  0  0  0  0  0  0  0  0  0
    1.0610   12.3740   -2.7070 C   0  0  1  0  0  0  0  0  0  0  0  0
    0.7900   11.9770   -4.1910 C   0  0  0  0  0  0  0  0  0  0  0  0
    2.6010   12.6860   -2.6050 C   0  0  0  0  0  0  0  0  0  0  0  0
    3.0400   13.6630   -1.4970 C   0  0  0  0  0  0  0  0  0  0  0  0
    2.1840   14.9330   -1.5160 C   0  0  2  0  0  0  0  0  0  0  0  0
    2.4220   15.6500   -2.8890 C   0  0  0  0  0  0  0  0  0  0  0  0
    3.5120   17.9162    1.3625 H   0  0  0  0  0  0  0  0  0  0  0  0
    4.2763   18.8476    0.0302 H   0  0  0  0  0  0  0  0  0  0  0  0
    2.5013   18.5721    0.0302 H   0  0  0  0  0  0  0  0  0  0  0  0
    4.5472   16.3207   -0.0730 H   0  0  0  0  0  0  0  0  0  0  0  0
    3.2193   16.6210   -2.6028 H   0  0  0  0  0  0  0  0  0  0  0  0
    4.0081   18.1998   -2.1246 H   0  0  0  0  0  0  0  0  0  0  0  0
    5.6840   17.1413   -3.3266 H   0  0  0  0  0  0  0  0  0  0  0  0
    6.0683   16.7249   -1.6045 H   0  0  0  0  0  0  0  0  0  0  0  0
    4.2400   15.0799   -2.5322 H   0  0  0  0  0  0  0  0  0  0  0  0
    7.7422   15.8839   -4.0591 H   0  0  0  0  0  0  0  0  0  0  0  0
    7.6729   14.6316   -5.3450 H   0  0  0  0  0  0  0  0  0  0  0  0
    6.4921   15.9852   -5.3450 H   0  0  0  0  0  0  0  0  0  0  0  0
    5.4407   12.4884   -3.6295 H   0  0  0  0  0  0  0  0  0  0  0  0
    4.7917   13.3517   -5.0648 H   0  0  0  0  0  0  0  0  0  0  0  0
    6.4867   12.7572   -5.0648 H   0  0  0  0  0  0  0  0  0  0  0  0
    2.6743   15.4353    0.5527 H   0  0  0  0  0  0  0  0  0  0  0  0
    0.8096   16.9659    0.6761 H   0  0  0  0  0  0  0  0  0  0  0  0
    1.2611   17.7606   -0.8473 H   0  0  0  0  0  0  0  0  0  0  0  0
   -0.8760   15.8907   -0.5191 H   0  0  0  0  0  0  0  0  0  0  0  0
   -0.2128   16.3671   -2.0798 H   0  0  0  0  0  0  0  0  0  0  0  0
    0.6997   14.5615    0.9554 H   0  0  0  0  0  0  0  0  0  0  0  0
   -0.6064   13.5595    0.2366 H   0  0  0  0  0  0  0  0  0  0  0  0
    1.0875   12.9617    0.2366 H   0  0  0  0  0  0  0  0  0  0  0  0
    0.2707   14.3167   -3.2758 H   0  0  0  0  0  0  0  0  0  0  0  0
   -1.8516   14.1027   -1.8309 H   0  0  0  0  0  0  0  0  0  0  0  0
   -1.6503   13.1283   -3.3795 H   0  0  0  0  0  0  0  0  0  0  0  0
   -2.6849   11.8478   -1.3232 H   0  0  0  0  0  0  0  0  0  0  0  0
    1.2964   11.3887   -0.8452 H   0  0  0  0  0  0  0  0  0  0  0  0
    0.6048    9.5961   -3.2536 H   0  0  0  0  0  0  0  0  0  0  0  0
    2.2496    9.8533   -2.5191 H   0  0  0  0  0  0  0  0  0  0  0  0
    1.2467    7.6954   -1.8400 H   0  0  0  0  0  0  0  0  0  0  0  0
    1.5220    8.8161   -0.4492 H   0  0  0  0  0  0  0  0  0  0  0  0
   -0.6240    7.7753   -0.1860 H   0  0  0  0  0  0  0  0  0  0  0  0
   -2.0390    7.6110   -1.8380 H   0  0  0  0  0  0  0  0  0  0  0  0
   -1.2367    9.8029    1.7842 H   0  0  0  0  0  0  0  0  0  0  0  0
    0.4095    9.5067    1.1293 H   0  0  0  0  0  0  0  0  0  0  0  0
   -0.2713   11.1689    1.1293 H   0  0  0  0  0  0  0  0  0  0  0  0
   -2.8586    9.6320    0.8993 H   0  0  0  0  0  0  0  0  0  0  0  0
   -3.1815   10.4963   -0.6419 H   0  0  0  0  0  0  0  0  0  0  0  0
   -2.9550    8.7143   -0.6419 H   0  0  0  0  0  0  0  0  0  0  0  0
    0.1701   11.0688   -4.2202 H   0  0  0  0  0  0  0  0  0  0  0  0
    0.2626   12.7975   -4.6996 H   0  0  0  0  0  0  0  0  0  0  0  0
    1.7462   11.7848   -4.6996 H   0  0  0  0  0  0  0  0  0  0  0  0
    3.1231   11.7329   -2.4343 H   0  0  0  0  0  0  0  0  0  0  0  0
    2.8561   13.1886   -3.5496 H   0  0  0  0  0  0  0  0  0  0  0  0
    2.9318   13.1706   -0.5193 H   0  0  0  0  0  0  0  0  0  0  0  0
    4.0889   13.9441   -1.6723 H   0  0  0  0  0  0  0  0  0  0  0  0
    2.7639   16.6801   -2.7103 H   0  0  0  0  0  0  0  0  0  0  0  0
    3.1870   15.1036   -3.4602 H   0  0  0  0  0  0  0  0  0  0  0  0
    1.4821   15.6695   -3.4602 H   0  0  0  0  0  0  0  0  0  0  0  0
  1  2  1  0
  2  3  1  0
  3  4  1  0
  4  5  1  0
  5  6  1  0
  6  7  1  0
  7  8  1  0
  7  9  1  0
  2 10  1  0
 10 11  1  0
 11 12  1  0
 12 13  1  0
 13 14  1  1
 13 15  1  0
 15 16  1  0
 16 17  1  0
 17 18  2  0
 18 19  1  0
 19 20  1  0
 20 21  1  0
 21 22  1  0
 22 23  1  0
 22 24  1  0
 24 25  1  0
 24 26  1  0
 19 27  1  0
 27 28  1  6
 27 29  1  0
 29 30  1  0
 30 31  1  0
 31 32  1  6
  7  5  1  0
 31 10  1  0
 31 13  1  0
 27 15  1  0
 24 18  1  0
  1 33  1  0
  1 34  1  0
  1 35  1  0
  2 36  1  1
  3 37  1  0
  3 38  1  0
  4 39  1  0
  4 40  1  0
  5 41  1  1
  8 42  1  0
  8 43  1  0
  8 44  1  0
  9 45  1  0
  9 46  1  0
  9 47  1  0
 10 48  1  1
 11 49  1  0
 11 50  1  0
 12 51  1  0
 12 52  1  0
 14 53  1  0
 14 54  1  0
 14 55  1  0
 15 56  1  6
 16 57  1  0
 16 58  1  0
 17 59  1  0
 19 60  1  1
 20 61  1  0
 20 62  1  0
 21 63  1  0
 21 64  1  0
 22 65  1  1
 23 66  1  0
 25 67  1  0
 25 68  1  0
 25 69  1  0
 26 70  1  0
 26 71  1  0
 26 72  1  0
 28 73  1  0
 28 74  1  0
 28 75  1  0
 29 76  1  0
 29 77  1  0
 30 78  1  0
 30 79  1  0
 32 80  1  0
 32 81  1  0
 32 82  1  0
M  END
>  <meeko>  (9) 
{"is_sidechain": [false], "intermolecular_energy": 2.731, "internal_energy": -0.839}

$$$$
EPH_relaxed_0001_pdb2pqr_Repair_143_r2_0001_out
     RDKit          3D

 82 86  0  0  0  0  0  0  0  0999 V2000
    1.2490   18.0010   -2.5440 C   0  0  0  0  0  0  0  0  0  0  0  0
    2.0700   17.2290   -1.5080 C   0  0  2  0  0  0  0  0  0  0  0  0
    3.5040   17.7800   -1.3750 C   0  0  0  0  0  0  0  0  0  0  0  0
    3.9720   17.9360    0.0750 C   0  0  0  0  0  0  0  0  0  0  0  0
    3.0320   18.7890    0.8720 C   0  0  2  0  0  0  0  0  0  0  0  0
    3.1280   20.1940    0.6070 O   0  0  0  0  0  0  0  0  0  0  0  0
    3.4900   19.7730    1.9320 C   0  0  0  0  0  0  0  0  0  0  0  0
    4.9400   19.9540    2.2540 C   0  0  0  0  0  0  0  0  0  0  0  0
    2.5150   20.1940    2.9870 C   0  0  0  0  0  0  0  0  0  0  0  0
    2.1120   15.7510   -1.8750 C   0  0  1  0  0  0  0  0  0  0  0  0
    3.4930   15.3120   -2.4310 C   0  0  0  0  0  0  0  0  0  0  0  0
    3.7320   13.8600   -1.9430 C   0  0  0  0  0  0  0  0  0  0  0  0
    2.3550   13.3970   -1.4100 C   0  0  1  0  0  0  0  0  0  0  0  0
    1.5560   12.9720   -2.6820 C   0  0  0  0  0  0  0  0  0  0  0  0
    2.3770   12.2610   -0.3360 C   0  0  2  0  0  0  0  0  0  0  0  0
    2.9670   10.9230   -0.8130 C   0  0  0  0  0  0  0  0  0  0  0  0
    1.9830    9.9650   -1.3980 C   0  0  0  0  0  0  0  0  0  0  0  0
    0.6450   10.0480   -1.2800 C   0  0  0  0  0  0  0  0  0  0  0  0
   -0.0030   11.1340   -0.4120 C   0  0  1  0  0  0  0  0  0  0  0  0
   -1.1010   10.4980    0.4810 C   0  0  0  0  0  0  0  0  0  0  0  0
   -2.1260    9.7070   -0.3270 C   0  0  0  0  0  0  0  0  0  0  0  0
   -1.4500    8.6000   -1.1310 C   0  0  2  0  0  0  0  0  0  0  0  0
   -0.9190    7.6300   -0.2230 O   0  0  0  0  0  0  0  0  0  0  0  0
   -0.3190    9.1200   -2.0600 C   0  0  0  0  0  0  0  0  0  0  0  0
   -0.9360    9.9310   -3.2270 C   0  0  0  0  0  0  0  0  0  0  0  0
    0.3730    7.8890   -2.7060 C   0  0  0  0  0  0  0  0  0  0  0  0
    0.9990   12.0510    0.4130 C   0  0  1  0  0  0  0  0  0  0  0  0
    1.3320   11.3790    1.7800 C   0  0  0  0  0  0  0  0  0  0  0  0
    0.2880   13.4150    0.7510 C   0  0  0  0  0  0  0  0  0  0  0  0
    0.4030   14.5370   -0.2980 C   0  0  0  0  0  0  0  0  0  0  0  0
    1.8580   14.7280   -0.7390 C   0  0  2  0  0  0  0  0  0  0  0  0
    2.6830   15.1780    0.5150 C   0  0  0  0  0  0  0  0  0  0  0  0
    0.5410   18.6667   -2.0287 H   0  0  0  0  0  0  0  0  0  0  0  0
    1.9233   18.5998   -3.1739 H   0  0  0  0  0  0  0  0  0  0  0  0
    0.6928   17.2912   -3.1739 H   0  0  0  0  0  0  0  0  0  0  0  0
    1.5762   17.3562   -0.5333 H   0  0  0  0  0  0  0  0  0  0  0  0
    4.1899   17.0906   -1.8890 H   0  0  0  0  0  0  0  0  0  0  0  0
    3.5050   18.7847   -1.8228 H   0  0  0  0  0  0  0  0  0  0  0  0
    4.0311   16.9407    0.5396 H   0  0  0  0  0  0  0  0  0  0  0  0
    4.9567   18.4262    0.0667 H   0  0  0  0  0  0  0  0  0  0  0  0
    2.2788   17.9875    0.8856 H   0  0  0  0  0  0  0  0  0  0  0  0
    5.0739   19.9707    3.3457 H   0  0  0  0  0  0  0  0  0  0  0  0
    5.5173   19.1209    1.8265 H   0  0  0  0  0  0  0  0  0  0  0  0
    5.2948   20.9034    1.8265 H   0  0  0  0  0  0  0  0  0  0  0  0
    2.9472   20.0074    3.9812 H   0  0  0  0  0  0  0  0  0  0  0  0
    2.2967   21.2666    2.8775 H   0  0  0  0  0  0  0  0  0  0  0  0
    1.5846   19.6174    2.8775 H   0  0  0  0  0  0  0  0  0  0  0  0
    1.2873   15.7189   -2.6022 H   0  0  0  0  0  0  0  0  0  0  0  0
    3.4865   15.3456   -3.5305 H   0  0  0  0  0  0  0  0  0  0  0  0
    4.2910   15.9826   -2.0796 H   0  0  0  0  0  0  0  0  0  0  0  0
    4.0619   13.2200   -2.7746 H   0  0  0  0  0  0  0  0  0  0  0  0
    4.5180   13.8013   -1.1757 H   0  0  0  0  0  0  0  0  0  0  0  0
    0.6223   12.4753   -2.3795 H   0  0  0  0  0  0  0  0  0  0  0  0
    1.3196   13.8635   -3.2814 H   0  0  0  0  0  0  0  0  0  0  0  0
    2.1631   12.2776   -3.2814 H   0  0  0  0  0  0  0  0  0  0  0  0
    3.0879   12.6524    0.4066 H   0  0  0  0  0  0  0  0  0  0  0  0
    3.7265   11.1400   -1.5785 H   0  0  0  0  0  0  0  0  0  0  0  0
    3.3733   10.4324    0.0838 H   0  0  0  0  0  0  0  0  0  0  0  0
    2.3858    9.1193   -1.9746 H   0  0  0  0  0  0  0  0  0  0  0  0
   -0.4598   11.8495   -1.1115 H   0  0  0  0  0  0  0  0  0  0  0  0
   -0.6206    9.8199    1.2017 H   0  0  0  0  0  0  0  0  0  0  0  0
   -1.6342   11.3155    0.9883 H   0  0  0  0  0  0  0  0  0  0  0  0
   -2.8571    9.2572    0.3609 H   0  0  0  0  0  0  0  0  0  0  0  0
   -2.6269   10.3928   -1.0261 H   0  0  0  0  0  0  0  0  0  0  0  0
   -2.2134    8.1553   -1.7863 H   0  0  0  0  0  0  0  0  0  0  0  0
    0.0270    7.5260   -0.4230 H   0  0  0  0  0  0  0  0  0  0  0  0
   -1.5550   10.7447   -2.8211 H   0  0  0  0  0  0  0  0  0  0  0  0
   -0.1307   10.3559   -3.8443 H   0  0  0  0  0  0  0  0  0  0  0  0
   -1.5603    9.2683   -3.8443 H   0  0  0  0  0  0  0  0  0  0  0  0
    0.7478    7.2223   -1.9154 H   0  0  0  0  0  0  0  0  0  0  0  0
   -0.3522    7.3463   -3.3301 H   0  0  0  0  0  0  0  0  0  0  0  0
    1.2136    8.2265   -3.3301 H   0  0  0  0  0  0  0  0  0  0  0  0
    1.0066   12.0357    2.6003 H   0  0  0  0  0  0  0  0  0  0  0  0
    0.8074   10.4148    1.8520 H   0  0  0  0  0  0  0  0  0  0  0  0
    2.4169   11.2124    1.8520 H   0  0  0  0  0  0  0  0  0  0  0  0
   -0.7818   13.2052    0.8978 H   0  0  0  0  0  0  0  0  0  0  0  0
    0.8091   13.7984    1.6407 H   0  0  0  0  0  0  0  0  0  0  0  0
   -0.2072   14.2740   -1.1746 H   0  0  0  0  0  0  0  0  0  0  0  0
    0.0465   15.4755    0.1515 H   0  0  0  0  0  0  0  0  0  0  0  0
    2.1475   14.8859    1.4304 H   0  0  0  0  0  0  0  0  0  0  0  0
    3.6704   14.6935    0.4975 H   0  0  0  0  0  0  0  0  0  0  0  0
    2.8102   16.2705    0.4975 H   0  0  0  0  0  0  0  0  0  0  0  0
  1  2  1  0
  2  3  1  0
  3  4  1  0
  4  5  1  0
  5  6  1  0
  6  7  1  0
  7  8  1  0
  7  9  1  0
  2 10  1  0
 10 11  1  0
 11 12  1  0
 12 13  1  0
 13 14  1  6
 13 15  1  0
 15 16  1  0
 16 17  1  0
 17 18  2  0
 18 19  1  0
 19 20  1  0
 20 21  1  0
 21 22  1  0
 22 23  1  0
 22 24  1  0
 24 25  1  0
 24 26  1  0
 19 27  1  0
 27 28  1  1
 27 29  1  0
 29 30  1  0
 30 31  1  0
 31 32  1  1
  7  5  1  0
 31 10  1  0
 31 13  1  0
 27 15  1  0
 24 18  1  0
  1 33  1  0
  1 34  1  0
  1 35  1  0
  2 36  1  1
  3 37  1  0
  3 38  1  0
  4 39  1  0
  4 40  1  0
  5 41  1  1
  8 42  1  0
  8 43  1  0
  8 44  1  0
  9 45  1  0
  9 46  1  0
  9 47  1  0
 10 48  1  6
 11 49  1  0
 11 50  1  0
 12 51  1  0
 12 52  1  0
 14 53  1  0
 14 54  1  0
 14 55  1  0
 15 56  1  1
 16 57  1  0
 16 58  1  0
 17 59  1  0
 19 60  1  6
 20 61  1  0
 20 62  1  0
 21 63  1  0
 21 64  1  0
 22 65  1  6
 23 66  1  0
 25 67  1  0
 25 68  1  0
 25 69  1  0
 26 70  1  0
 26 71  1  0
 26 72  1  0
 28 73  1  0
 28 74  1  0
 28 75  1  0
 29 76  1  0
 29 77  1  0
 30 78  1  0
 30 79  1  0
 32 80  1  0
 32 81  1  0
 32 82  1  0
M  END
>  <meeko>  (10) 
{"is_sidechain": [false], "intermolecular_energy": 2.731, "internal_energy": -0.839}

$$$$
EPH_relaxed_0001_pdb2pqr_Repair_143_r2_0001_out
     RDKit          3D

 82 86  0  0  0  0  0  0  0  0999 V2000
    1.5600   18.0830   -0.1370 C   0  0  0  0  0  0  0  0  0  0  0  0
    2.3980   16.9160   -0.6650 C   0  0  2  0  0  0  0  0  0  0  0  0
    3.3750   17.3570   -1.7730 C   0  0  0  0  0  0  0  0  0  0  0  0
    4.8260   16.9400   -1.5170 C   0  0  0  0  0  0  0  0  0  0  0  0
    5.7520   17.4850   -2.5620 C   0  0  2  0  0  0  0  0  0  0  0  0
    5.2750   17.3610   -3.9080 O   0  0  0  0  0  0  0  0  0  0  0  0
    6.4620   16.6190   -3.5850 C   0  0  0  0  0  0  0  0  0  0  0  0
    6.2770   15.1340   -3.6130 C   0  0  0  0  0  0  0  0  0  0  0  0
    7.7010   17.1500   -4.2360 C   0  0  0  0  0  0  0  0  0  0  0  0
    1.4840   15.8120   -1.1840 C   0  0  1  0  0  0  0  0  0  0  0  0
    0.8380   16.1650   -2.5510 C   0  0  0  0  0  0  0  0  0  0  0  0
    0.7270   14.8410   -3.3480 C   0  0  0  0  0  0  0  0  0  0  0  0
    0.9990   13.7320   -2.3040 C   0  0  1  0  0  0  0  0  0  0  0  0
   -0.3590   13.5440   -1.5570 C   0  0  0  0  0  0  0  0  0  0  0  0
    1.5440   12.3770   -2.8600 C   0  0  2  0  0  0  0  0  0  0  0  0
    0.5990   11.6390   -3.8240 C   0  0  0  0  0  0  0  0  0  0  0  0
   -0.3410   10.6740   -3.1800 C   0  0  0  0  0  0  0  0  0  0  0  0
   -0.2350   10.1980   -1.9260 C   0  0  0  0  0  0  0  0  0  0  0  0
    0.9700   10.5550   -1.0470 C   0  0  1  0  0  0  0  0  0  0  0  0
    1.5130    9.2710   -0.3670 C   0  0  0  0  0  0  0  0  0  0  0  0
    0.4340    8.5140    0.4020 C   0  0  0  0  0  0  0  0  0  0  0  0
   -0.7200    8.1260   -0.5180 C   0  0  2  0  0  0  0  0  0  0  0  0
   -0.2490    7.1650   -1.4680 O   0  0  0  0  0  0  0  0  0  0  0  0
   -1.3420    9.3380   -1.2660 C   0  0  0  0  0  0  0  0  0  0  0  0
   -2.1150   10.2290   -0.2620 C   0  0  0  0  0  0  0  0  0  0  0  0
   -2.3980    8.7920   -2.2650 C   0  0  0  0  0  0  0  0  0  0  0  0
    2.1150   11.4030   -1.7510 C   0  0  1  0  0  0  0  0  0  0  0  0
    3.1190   10.4500   -2.4680 C   0  0  0  0  0  0  0  0  0  0  0  0
    2.9390   12.1690   -0.6490 C   0  0  0  0  0  0  0  0  0  0  0  0
    2.4150   13.5550   -0.2280 C   0  0  0  0  0  0  0  0  0  0  0  0
    2.1230   14.4270   -1.4530 C   0  0  2  0  0  0  0  0  0  0  0  0
    3.4750   14.6520   -2.2120 C   0  0  0  0  0  0  0  0  0  0  0  0
    1.5679   18.0720    0.9629 H   0  0  0  0  0  0  0  0  0  0  0  0
    1.9845   19.0317   -0.4972 H   0  0  0  0  0  0  0  0  0  0  0  0
    0.5254   17.9840   -0.4972 H   0  0  0  0  0  0  0  0  0  0  0  0
    3.0004   16.5356    0.1731 H   0  0  0  0  0  0  0  0  0  0  0  0
    3.0476   16.9093   -2.7229 H   0  0  0  0  0  0  0  0  0  0  0  0
    3.3566   18.4566   -1.7984 H   0  0  0  0  0  0  0  0  0  0  0  0
    5.1373   17.3187   -0.5323 H   0  0  0  0  0  0  0  0  0  0  0  0
    4.8784   15.8418   -1.5515 H   0  0  0  0  0  0  0  0  0  0  0  0
    6.1169   18.2573   -1.8689 H   0  0  0  0  0  0  0  0  0  0  0  0
    6.2293   14.7510   -2.5829 H   0  0  0  0  0  0  0  0  0  0  0  0
    5.3416   14.8909   -4.1383 H   0  0  0  0  0  0  0  0  0  0  0  0
    7.1241   14.6688   -4.1383 H   0  0  0  0  0  0  0  0  0  0  0  0
    8.4190   17.4577   -3.4616 H   0  0  0  0  0  0  0  0  0  0  0  0
    8.1510   16.3657   -4.8624 H   0  0  0  0  0  0  0  0  0  0  0  0
    7.4434   18.0168   -4.8624 H   0  0  0  0  0  0  0  0  0  0  0  0
    0.7802   15.7442   -0.3414 H   0  0  0  0  0  0  0  0  0  0  0  0
   -0.1608   16.5994   -2.3971 H   0  0  0  0  0  0  0  0  0  0  0  0
    1.4443   16.9041   -3.0953 H   0  0  0  0  0  0  0  0  0  0  0  0
   -0.2791   14.7304   -3.7787 H   0  0  0  0  0  0  0  0  0  0  0  0
    1.4323   14.8017   -4.1912 H   0  0  0  0  0  0  0  0  0  0  0  0
   -0.1864   13.5679   -0.4709 H   0  0  0  0  0  0  0  0  0  0  0  0
   -1.0469   14.3555   -1.8369 H   0  0  0  0  0  0  0  0  0  0  0  0
   -0.8005   12.5762   -1.8369 H   0  0  0  0  0  0  0  0  0  0  0  0
    2.3995   12.7010   -3.4708 H   0  0  0  0  0  0  0  0  0  0  0  0
    0.0005   12.3925   -4.3570 H   0  0  0  0  0  0  0  0  0  0  0  0
    1.2439   11.0413   -4.4850 H   0  0  0  0  0  0  0  0  0  0  0  0
   -1.1921   10.3225   -3.7817 H   0  0  0  0  0  0  0  0  0  0  0  0
    0.5935   11.2516   -0.2834 H   0  0  0  0  0  0  0  0  0  0  0  0
    1.9237    8.6080   -1.1428 H   0  0  0  0  0  0  0  0  0  0  0  0
    2.2846    9.5767    0.3549 H   0  0  0  0  0  0  0  0  0  0  0  0
    0.8723    7.6023    0.8340 H   0  0  0  0  0  0  0  0  0  0  0  0
    0.0452    9.1675    1.1969 H   0  0  0  0  0  0  0  0  0  0  0  0
   -1.5167    7.7044    0.1125 H   0  0  0  0  0  0  0  0  0  0  0  0
    0.2640    7.6430   -2.1410 H   0  0  0  0  0  0  0  0  0  0  0  0
   -1.8575    9.9322    0.7654 H   0  0  0  0  0  0  0  0  0  0  0  0
   -1.8398   11.2824   -0.4192 H   0  0  0  0  0  0  0  0  0  0  0  0
   -3.1966   10.1052   -0.4192 H   0  0  0  0  0  0  0  0  0  0  0  0
   -3.2400    8.3566   -1.7069 H   0  0  0  0  0  0  0  0  0  0  0  0
   -2.7635    9.6141   -2.8979 H   0  0  0  0  0  0  0  0  0  0  0  0
   -1.9385    8.0185   -2.8979 H   0  0  0  0  0  0  0  0  0  0  0  0
    3.7011    9.8975   -1.7157 H   0  0  0  0  0  0  0  0  0  0  0  0
    2.5638    9.7386   -3.0971 H   0  0  0  0  0  0  0  0  0  0  0  0
    3.8005   11.0415   -3.0971 H   0  0  0  0  0  0  0  0  0  0  0  0
    2.9625   11.5351    0.2497 H   0  0  0  0  0  0  0  0  0  0  0  0
    3.9219   12.3592   -1.1048 H   0  0  0  0  0  0  0  0  0  0  0  0
    1.4892   13.4284    0.3523 H   0  0  0  0  0  0  0  0  0  0  0  0
    3.1860   14.0513    0.3796 H   0  0  0  0  0  0  0  0  0  0  0  0
    4.2870   14.7871   -1.4824 H   0  0  0  0  0  0  0  0  0  0  0  0
    3.6911   13.7775   -2.8433 H   0  0  0  0  0  0  0  0  0  0  0  0
    3.3962   15.5494   -2.8433 H   0  0  0  0  0  0  0  0  0  0  0  0
  1  2  1  0
  2  3  1  0
  3  4  1  0
  4  5  1  0
  5  6  1  0
  6  7  1  0
  7  8  1  0
  7  9  1  0
  2 10  1  0
 10 11  1  0
 11 12  1  0
 12 13  1  0
 13 14  1  1
 13 15  1  0
 15 16  1  0
 16 17  1  0
 17 18  2  0
 18 19  1  0
 19 20  1  0
 20 21  1  0
 21 22  1  0
 22 23  1  0
 22 24  1  0
 24 25  1  0
 24 26  1  0
 19 27  1  0
 27 28  1  6
 27 29  1  0
 29 30  1  0
 30 31  1  0
 31 32  1  6
  7  5  1  0
 31 10  1  0
 31 13  1  0
 27 15  1  0
 24 18  1  0
  1 33  1  0
  1 34  1  0
  1 35  1  0
  2 36  1  1
  3 37  1  0
  3 38  1  0
  4 39  1  0
  4 40  1  0
  5 41  1  1
  8 42  1  0
  8 43  1  0
  8 44  1  0
  9 45  1  0
  9 46  1  0
  9 47  1  0
 10 48  1  1
 11 49  1  0
 11 50  1  0
 12 51  1  0
 12 52  1  0
 14 53  1  0
 14 54  1  0
 14 55  1  0
 15 56  1  6
 16 57  1  0
 16 58  1  0
 17 59  1  0
 19 60  1  1
 20 61  1  0
 20 62  1  0
 21 63  1  0
 21 64  1  0
 22 65  1  1
 23 66  1  0
 25 67  1  0
 25 68  1  0
 25 69  1  0
 26 70  1  0
 26 71  1  0
 26 72  1  0
 28 73  1  0
 28 74  1  0
 28 75  1  0
 29 76  1  0
 29 77  1  0
 30 78  1  0
 30 79  1  0
 32 80  1  0
 32 81  1  0
 32 82  1  0
M  END
>  <meeko>  (11) 
{"is_sidechain": [false], "intermolecular_energy": 2.731, "internal_energy": -0.839}

$$$$
EPH_relaxed_0001_pdb2pqr_Repair_143_r2_0001_out
     RDKit          3D

 82 86  0  0  0  0  0  0  0  0999 V2000
   -5.0350    5.9770   -1.9320 C   0  0  0  0  0  0  0  0  0  0  0  0
   -5.4070    7.4610   -1.8770 C   0  0  2  0  0  0  0  0  0  0  0  0
   -5.2090    8.0580   -0.4690 C   0  0  0  0  0  0  0  0  0  0  0  0
   -4.1190    9.1310   -0.4030 C   0  0  0  0  0  0  0  0  0  0  0  0
   -2.7860    8.5950   -0.8310 C   0  0  2  0  0  0  0  0  0  0  0  0
   -1.7110    8.8710    0.0760 O   0  0  0  0  0  0  0  0  0  0  0  0
   -1.6160    9.4780   -1.2230 C   0  0  0  0  0  0  0  0  0  0  0  0
   -1.7250   10.9700   -1.2080 C   0  0  0  0  0  0  0  0  0  0  0  0
   -0.5380    8.8960   -2.0830 C   0  0  0  0  0  0  0  0  0  0  0  0
   -6.8510    7.6520   -2.3260 C   0  0  1  0  0  0  0  0  0  0  0  0
   -7.1570    6.9430   -3.6720 C   0  0  0  0  0  0  0  0  0  0  0  0
   -8.6200    6.4360   -3.5870 C   0  0  0  0  0  0  0  0  0  0  0  0
   -9.2090    7.1500   -2.3490 C   0  0  1  0  0  0  0  0  0  0  0  0
   -9.5990    8.5740   -2.8540 C   0  0  0  0  0  0  0  0  0  0  0  0
  -10.4110    6.4370   -1.6470 C   0  0  2  0  0  0  0  0  0  0  0  0
  -11.6720    6.2780   -2.5150 C   0  0  0  0  0  0  0  0  0  0  0  0
  -12.6510    7.4020   -2.4280 C   0  0  0  0  0  0  0  0  0  0  0  0
  -12.6660    8.3550   -1.4790 C   0  0  0  0  0  0  0  0  0  0  0  0
  -11.6870    8.3070   -0.2990 C   0  0  1  0  0  0  0  0  0  0  0  0
  -12.4540    8.5750    1.0230 C   0  0  0  0  0  0  0  0  0  0  0  0
  -13.2550    9.8730    0.9810 C   0  0  0  0  0  0  0  0  0  0  0  0
  -14.2580    9.8590   -0.1690 C   0  0  2  0  0  0  0  0  0  0  0  0
  -15.2500    8.8620    0.0960 O   0  0  0  0  0  0  0  0  0  0  0  0
  -13.6010    9.5880   -1.5510 C   0  0  0  0  0  0  0  0  0  0  0  0
  -12.7550   10.8140   -1.9750 C   0  0  0  0  0  0  0  0  0  0  0  0
  -14.7360    9.4590   -2.6030 C   0  0  0  0  0  0  0  0  0  0  0  0
  -10.7630    7.0160   -0.2170 C   0  0  1  0  0  0  0  0  0  0  0  0
  -11.5030    5.8800    0.5540 C   0  0  0  0  0  0  0  0  0  0  0  0
   -9.4760    7.3570    0.6230 C   0  0  0  0  0  0  0  0  0  0  0  0
   -8.2800    7.9480   -0.1470 C   0  0  0  0  0  0  0  0  0  0  0  0
   -7.9630    7.1130   -1.3910 C   0  0  2  0  0  0  0  0  0  0  0  0
   -7.5460    5.6810   -0.9130 C   0  0  0  0  0  0  0  0  0  0  0  0
   -4.9368    5.5854   -0.9088 H   0  0  0  0  0  0  0  0  0  0  0  0
   -5.8216    5.4213   -2.4634 H   0  0  0  0  0  0  0  0  0  0  0  0
   -4.0792    5.8580   -2.4634 H   0  0  0  0  0  0  0  0  0  0  0  0
   -4.7316    7.9968   -2.5601 H   0  0  0  0  0  0  0  0  0  0  0  0
   -6.1593    8.5080   -0.1459 H   0  0  0  0  0  0  0  0  0  0  0  0
   -4.8898    7.2348    0.1871 H   0  0  0  0  0  0  0  0  0  0  0  0
   -4.3978    9.9635   -1.0657 H   0  0  0  0  0  0  0  0  0  0  0  0
   -4.0335    9.4689    0.6403 H   0  0  0  0  0  0  0  0  0  0  0  0
   -3.2638    7.7390   -1.3300 H   0  0  0  0  0  0  0  0  0  0  0  0
   -1.7510   11.3253   -0.1673 H   0  0  0  0  0  0  0  0  0  0  0  0
   -0.8563   11.4063   -1.7228 H   0  0  0  0  0  0  0  0  0  0  0  0
   -2.6479   11.2754   -1.7228 H   0  0  0  0  0  0  0  0  0  0  0  0
    0.2504    8.4703   -1.4448 H   0  0  0  0  0  0  0  0  0  0  0  0
   -0.9628    8.1046   -2.7181 H   0  0  0  0  0  0  0  0  0  0  0  0
   -0.1094    9.6853   -2.7181 H   0  0  0  0  0  0  0  0  0  0  0  0
   -6.8895    8.7507   -2.3621 H   0  0  0  0  0  0  0  0  0  0  0  0
   -7.0493    7.6515   -4.5066 H   0  0  0  0  0  0  0  0  0  0  0  0
   -6.4597    6.1106   -3.8478 H   0  0  0  0  0  0  0  0  0  0  0  0
   -9.1787    6.7083   -4.4946 H   0  0  0  0  0  0  0  0  0  0  0  0
   -8.6776    5.3407   -3.5035 H   0  0  0  0  0  0  0  0  0  0  0  0
   -9.7793    9.2323   -1.9914 H   0  0  0  0  0  0  0  0  0  0  0  0
   -8.7801    8.9840   -3.4633 H   0  0  0  0  0  0  0  0  0  0  0  0
  -10.5126    8.5095   -3.4633 H   0  0  0  0  0  0  0  0  0  0  0  0
  -10.0239    5.4190   -1.4924 H   0  0  0  0  0  0  0  0  0  0  0  0
  -11.3534    6.1849   -3.5637 H   0  0  0  0  0  0  0  0  0  0  0  0
  -12.1946    5.3885   -2.1332 H   0  0  0  0  0  0  0  0  0  0  0  0
  -13.4262    7.4552   -3.2066 H   0  0  0  0  0  0  0  0  0  0  0  0
  -10.9579    9.1113   -0.4766 H   0  0  0  0  0  0  0  0  0  0  0  0
  -13.1457    7.7393    1.2051 H   0  0  0  0  0  0  0  0  0  0  0  0
  -11.7102    8.6672    1.8282 H   0  0  0  0  0  0  0  0  0  0  0  0
  -13.7977    9.9918    1.9304 H   0  0  0  0  0  0  0  0  0  0  0  0
  -12.5582   10.7103    0.8284 H   0  0  0  0  0  0  0  0  0  0  0  0
  -14.7079   10.8611   -0.2265 H   0  0  0  0  0  0  0  0  0  0  0  0
  -15.1320    8.1500   -0.5550 H   0  0  0  0  0  0  0  0  0  0  0  0
  -12.3935   11.3379   -1.0779 H   0  0  0  0  0  0  0  0  0  0  0  0
  -11.8961   10.4773   -2.5741 H   0  0  0  0  0  0  0  0  0  0  0  0
  -13.3746   11.4975   -2.5741 H   0  0  0  0  0  0  0  0  0  0  0  0
  -15.7021    9.3492   -2.0885 H   0  0  0  0  0  0  0  0  0  0  0  0
  -14.7564   10.3606   -3.2328 H   0  0  0  0  0  0  0  0  0  0  0  0
  -14.5535    8.5758   -3.2328 H   0  0  0  0  0  0  0  0  0  0  0  0
  -11.3971    6.0425    1.6368 H   0  0  0  0  0  0  0  0  0  0  0  0
  -12.5694    5.8884    0.2845 H   0  0  0  0  0  0  0  0  0  0  0  0
  -11.0643    4.9079    0.2845 H   0  0  0  0  0  0  0  0  0  0  0  0
   -9.7661    8.0840    1.3959 H   0  0  0  0  0  0  0  0  0  0  0  0
   -9.1202    6.3905    1.0092 H   0  0  0  0  0  0  0  0  0  0  0  0
   -8.5228    8.9756   -0.4555 H   0  0  0  0  0  0  0  0  0  0  0  0
   -7.4001    7.9422    0.5131 H   0  0  0  0  0  0  0  0  0  0  0  0
   -7.5369    5.6497    0.1865 H   0  0  0  0  0  0  0  0  0  0  0  0
   -8.2665    4.9427   -1.2949 H   0  0  0  0  0  0  0  0  0  0  0  0
   -6.5418    5.4449   -1.2949 H   0  0  0  0  0  0  0  0  0  0  0  0
  1  2  1  0
  2  3  1  0
  3  4  1  0
  4  5  1  0
  5  6  1  0
  6  7  1  0
  7  8  1  0
  7  9  1  0
  2 10  1  0
 10 11  1  0
 11 12  1  0
 12 13  1  0
 13 14  1  6
 13 15  1  0
 15 16  1  0
 16 17  1  0
 17 18  2  0
 18 19  1  0
 19 20  1  0
 20 21  1  0
 21 22  1  0
 22 23  1  0
 22 24  1  0
 24 25  1  0
 24 26  1  0
 19 27  1  0
 27 28  1  1
 27 29  1  0
 29 30  1  0
 30 31  1  0
 31 32  1  1
  7  5  1  0
 31 10  1  0
 31 13  1  0
 27 15  1  0
 24 18  1  0
  1 33  1  0
  1 34  1  0
  1 35  1  0
  2 36  1  6
  3 37  1  0
  3 38  1  0
  4 39  1  0
  4 40  1  0
  5 41  1  6
  8 42  1  0
  8 43  1  0
  8 44  1  0
  9 45  1  0
  9 46  1  0
  9 47  1  0
 10 48  1  6
 11 49  1  0
 11 50  1  0
 12 51  1  0
 12 52  1  0
 14 53  1  0
 14 54  1  0
 14 55  1  0
 15 56  1  1
 16 57  1  0
 16 58  1  0
 17 59  1  0
 19 60  1  6
 20 61  1  0
 20 62  1  0
 21 63  1  0
 21 64  1  0
 22 65  1  6
 23 66  1  0
 25 67  1  0
 25 68  1  0
 25 69  1  0
 26 70  1  0
 26 71  1  0
 26 72  1  0
 28 73  1  0
 28 74  1  0
 28 75  1  0
 29 76  1  0
 29 77  1  0
 30 78  1  0
 30 79  1  0
 32 80  1  0
 32 81  1  0
 32 82  1  0
M  END
>  <meeko>  (12) 
{"is_sidechain": [false], "intermolecular_energy": 2.731, "internal_energy": -0.839}

$$$$
EPH_relaxed_0001_pdb2pqr_Repair_143_r2_0001_out
     RDKit          3D

 82 86  0  0  0  0  0  0  0  0999 V2000
    4.8670   16.1500   -2.4370 C   0  0  0  0  0  0  0  0  0  0  0  0
    4.0030   16.8590   -1.3900 C   0  0  2  0  0  0  0  0  0  0  0  0
    4.7730   17.1200   -0.0810 C   0  0  0  0  0  0  0  0  0  0  0  0
    4.7710   18.5890    0.3520 C   0  0  0  0  0  0  0  0  0  0  0  0
    3.8690   18.8190    1.5260 C   0  0  2  0  0  0  0  0  0  0  0  0
    2.5990   18.1580    1.4450 O   0  0  0  0  0  0  0  0  0  0  0  0
    2.5680   19.5950    1.4420 C   0  0  0  0  0  0  0  0  0  0  0  0
    2.0960   20.1910    0.1530 C   0  0  0  0  0  0  0  0  0  0  0  0
    2.0050   20.1870    2.6960 C   0  0  0  0  0  0  0  0  0  0  0  0
    2.7530   16.0340   -1.1040 C   0  0  1  0  0  0  0  0  0  0  0  0
    1.4480   16.8650   -1.2210 C   0  0  0  0  0  0  0  0  0  0  0  0
    0.3620   15.9160   -1.7880 C   0  0  0  0  0  0  0  0  0  0  0  0
    0.9780   14.5020   -1.6660 C   0  0  1  0  0  0  0  0  0  0  0  0
    0.7420   14.0890   -0.1790 C   0  0  0  0  0  0  0  0  0  0  0  0
    0.4330   13.4230   -2.6580 C   0  0  2  0  0  0  0  0  0  0  0  0
   -1.0640   13.0990   -2.5120 C   0  0  0  0  0  0  0  0  0  0  0  0
   -1.3870   11.9880   -1.5680 C   0  0  0  0  0  0  0  0  0  0  0  0
   -0.5060   11.0930   -1.0830 C   0  0  0  0  0  0  0  0  0  0  0  0
    0.9530   11.0860   -1.5580 C   0  0  1  0  0  0  0  0  0  0  0  0
    1.3830    9.6330   -1.8860 C   0  0  0  0  0  0  0  0  0  0  0  0
    1.1440    8.6750   -0.7220 C   0  0  0  0  0  0  0  0  0  0  0  0
   -0.3270    8.6670   -0.3170 C   0  0  2  0  0  0  0  0  0  0  0  0
   -1.0950    8.0980   -1.3810 O   0  0  0  0  0  0  0  0  0  0  0  0
   -0.8760   10.0800    0.0270 C   0  0  0  0  0  0  0  0  0  0  0  0
   -0.2560   10.5690    1.3590 C   0  0  0  0  0  0  0  0  0  0  0  0
   -2.4030    9.9500    0.2810 C   0  0  0  0  0  0  0  0  0  0  0  0
    1.3060   12.1050   -2.7260 C   0  0  1  0  0  0  0  0  0  0  0  0
    1.0160   11.4500   -4.1100 C   0  0  0  0  0  0  0  0  0  0  0  0
    2.8510   12.4090   -2.6930 C   0  0  0  0  0  0  0  0  0  0  0  0
    3.3130   13.5640   -1.7850 C   0  0  0  0  0  0  0  0  0  0  0  0
    2.4740   14.8220   -2.0280 C   0  0  2  0  0  0  0  0  0  0  0  0
    2.7080   15.2740   -3.5090 C   0  0  0  0  0  0  0  0  0  0  0  0
    5.6220   15.5305   -1.9308 H   0  0  0  0  0  0  0  0  0  0  0  0
    4.2301   15.5108   -3.0661 H   0  0  0  0  0  0  0  0  0  0  0  0
    5.3696   16.8994   -3.0661 H   0  0  0  0  0  0  0  0  0  0  0  0
    3.7170   17.8371   -1.8041 H   0  0  0  0  0  0  0  0  0  0  0  0
    4.3117   16.5217    0.7185 H   0  0  0  0  0  0  0  0  0  0  0  0
    5.8210   16.8400   -0.2633 H   0  0  0  0  0  0  0  0  0  0  0  0
    5.7953   18.8812    0.6267 H   0  0  0  0  0  0  0  0  0  0  0  0
    4.4008   19.1940   -0.4888 H   0  0  0  0  0  0  0  0  0  0  0  0
    4.7322   18.8969    2.2034 H   0  0  0  0  0  0  0  0  0  0  0  0
    1.4258   21.0373    0.3640 H   0  0  0  0  0  0  0  0  0  0  0  0
    2.9617   20.5445   -0.4263 H   0  0  0  0  0  0  0  0  0  0  0  0
    1.5536   19.4293   -0.4263 H   0  0  0  0  0  0  0  0  0  0  0  0
    2.4659   19.7024    3.5693 H   0  0  0  0  0  0  0  0  0  0  0  0
    2.2185   21.2658    2.7202 H   0  0  0  0  0  0  0  0  0  0  0  0
    0.9168   20.0279    2.7202 H   0  0  0  0  0  0  0  0  0  0  0  0
    2.9911   15.6859   -0.0880 H   0  0  0  0  0  0  0  0  0  0  0  0
    1.1461   17.2373   -0.2309 H   0  0  0  0  0  0  0  0  0  0  0  0
    1.5924   17.7361   -1.8770 H   0  0  0  0  0  0  0  0  0  0  0  0
   -0.5637   15.9886   -1.1982 H   0  0  0  0  0  0  0  0  0  0  0  0
    0.0900   16.1648   -2.8244 H   0  0  0  0  0  0  0  0  0  0  0  0
    1.1767   14.8496    0.4862 H   0  0  0  0  0  0  0  0  0  0  0  0
   -0.3383   14.0088    0.0122 H   0  0  0  0  0  0  0  0  0  0  0  0
    1.2213   13.1176    0.0122 H   0  0  0  0  0  0  0  0  0  0  0  0
    0.5362   13.9245   -3.6316 H   0  0  0  0  0  0  0  0  0  0  0  0
   -1.5750   14.0061   -2.1570 H   0  0  0  0  0  0  0  0  0  0  0  0
   -1.4008   12.7632   -3.5039 H   0  0  0  0  0  0  0  0  0  0  0  0
   -2.4331   11.8928   -1.2413 H   0  0  0  0  0  0  0  0  0  0  0  0
    1.5490   11.4710   -0.7174 H   0  0  0  0  0  0  0  0  0  0  0  0
    0.8070    9.2825   -2.7551 H   0  0  0  0  0  0  0  0  0  0  0  0
    2.4632    9.6433   -2.0936 H   0  0  0  0  0  0  0  0  0  0  0  0
    1.4398    7.6597   -1.0246 H   0  0  0  0  0  0  0  0  0  0  0  0
    1.7435    9.0096    0.1375 H   0  0  0  0  0  0  0  0  0  0  0  0
   -0.4131    8.0659    0.6002 H   0  0  0  0  0  0  0  0  0  0  0  0
   -1.6380    8.8080   -1.7640 H   0  0  0  0  0  0  0  0  0  0  0  0
   -0.8097   10.1323    2.2033 H   0  0  0  0  0  0  0  0  0  0  0  0
    0.7972   10.2558    1.4100 H   0  0  0  0  0  0  0  0  0  0  0  0
   -0.3152   11.6662    1.4100 H   0  0  0  0  0  0  0  0  0  0  0  0
   -2.5945    9.9337    1.3641 H   0  0  0  0  0  0  0  0  0  0  0  0
   -2.9241   10.8070   -0.1706 H   0  0  0  0  0  0  0  0  0  0  0  0
   -2.7717    9.0172   -0.1706 H   0  0  0  0  0  0  0  0  0  0  0  0
    0.5749   10.4537   -3.9589 H   0  0  0  0  0  0  0  0  0  0  0  0
    0.3130   12.0806   -4.6740 H   0  0  0  0  0  0  0  0  0  0  0  0
    1.9555   11.3534   -4.6740 H   0  0  0  0  0  0  0  0  0  0  0  0
    3.3626   11.4955   -2.3556 H   0  0  0  0  0  0  0  0  0  0  0  0
    3.1031   12.7283   -3.7150 H   0  0  0  0  0  0  0  0  0  0  0  0
    3.2079   13.2590   -0.7334 H   0  0  0  0  0  0  0  0  0  0  0  0
    4.3637   13.7932   -2.0164 H   0  0  0  0  0  0  0  0  0  0  0  0
    3.2137   16.2508   -3.5187 H   0  0  0  0  0  0  0  0  0  0  0  0
    3.3349   14.5314   -4.0243 H   0  0  0  0  0  0  0  0  0  0  0  0
    1.7397   15.3573   -4.0243 H   0  0  0  0  0  0  0  0  0  0  0  0
  1  2  1  0
  2  3  1  0
  3  4  1  0
  4  5  1  0
  5  6  1  0
  6  7  1  0
  7  8  1  0
  7  9  1  0
  2 10  1  0
 10 11  1  0
 11 12  1  0
 12 13  1  0
 13 14  1  1
 13 15  1  0
 15 16  1  0
 16 17  1  0
 17 18  2  0
 18 19  1  0
 19 20  1  0
 20 21  1  0
 21 22  1  0
 22 23  1  0
 22 24  1  0
 24 25  1  0
 24 26  1  0
 19 27  1  0
 27 28  1  6
 27 29  1  0
 29 30  1  0
 30 31  1  0
 31 32  1  6
  7  5  1  0
 31 10  1  0
 31 13  1  0
 27 15  1  0
 24 18  1  0
  1 33  1  0
  1 34  1  0
  1 35  1  0
  2 36  1  6
  3 37  1  0
  3 38  1  0
  4 39  1  0
  4 40  1  0
  5 41  1  1
  8 42  1  0
  8 43  1  0
  8 44  1  0
  9 45  1  0
  9 46  1  0
  9 47  1  0
 10 48  1  1
 11 49  1  0
 11 50  1  0
 12 51  1  0
 12 52  1  0
 14 53  1  0
 14 54  1  0
 14 55  1  0
 15 56  1  6
 16 57  1  0
 16 58  1  0
 17 59  1  0
 19 60  1  1
 20 61  1  0
 20 62  1  0
 21 63  1  0
 21 64  1  0
 22 65  1  1
 23 66  1  0
 25 67  1  0
 25 68  1  0
 25 69  1  0
 26 70  1  0
 26 71  1  0
 26 72  1  0
 28 73  1  0
 28 74  1  0
 28 75  1  0
 29 76  1  0
 29 77  1  0
 30 78  1  0
 30 79  1  0
 32 80  1  0
 32 81  1  0
 32 82  1  0
M  END
>  <meeko>  (13) 
{"is_sidechain": [false], "intermolecular_energy": 2.731, "internal_energy": -0.839}

$$$$
EPH_relaxed_0001_pdb2pqr_Repair_143_r2_0001_out
     RDKit          3D

 82 86  0  0  0  0  0  0  0  0999 V2000
    0.5620    9.7060    1.1340 C   0  0  0  0  0  0  0  0  0  0  0  0
    0.6280   10.2600   -0.2920 C   0  0  2  0  0  0  0  0  0  0  0  0
    1.0400    9.1830   -1.3150 C   0  0  0  0  0  0  0  0  0  0  0  0
   -0.0820    8.7860   -2.2770 C   0  0  0  0  0  0  0  0  0  0  0  0
   -1.3060    8.3280   -1.5430 C   0  0  2  0  0  0  0  0  0  0  0  0
   -2.5380    8.5350   -2.2460 O   0  0  0  0  0  0  0  0  0  0  0  0
   -2.3730    9.2740   -1.0250 C   0  0  0  0  0  0  0  0  0  0  0  0
   -2.2650   10.7540   -1.2180 C   0  0  0  0  0  0  0  0  0  0  0  0
   -3.2630    8.8080    0.0860 C   0  0  0  0  0  0  0  0  0  0  0  0
    1.5990   11.4330   -0.3490 C   0  0  1  0  0  0  0  0  0  0  0  0
    2.9250   11.0760   -1.0730 C   0  0  0  0  0  0  0  0  0  0  0  0
    3.3780   12.3500   -1.8310 C   0  0  0  0  0  0  0  0  0  0  0  0
    2.4910   13.4800   -1.2590 C   0  0  1  0  0  0  0  0  0  0  0  0
    3.1740   13.8850    0.0850 C   0  0  0  0  0  0  0  0  0  0  0  0
    2.2650   14.7180   -2.1870 C   0  0  2  0  0  0  0  0  0  0  0  0
    3.5370   15.5040   -2.5480 C   0  0  0  0  0  0  0  0  0  0  0  0
    3.8830   16.6190   -1.6170 C   0  0  0  0  0  0  0  0  0  0  0  0
    3.0570   17.1590   -0.7020 C   0  0  0  0  0  0  0  0  0  0  0  0
    1.5930   16.7110   -0.6010 C   0  0  1  0  0  0  0  0  0  0  0  0
    0.6760   17.9590   -0.5010 C   0  0  0  0  0  0  0  0  0  0  0  0
    1.0800   18.8920    0.6360 C   0  0  0  0  0  0  0  0  0  0  0  0
    2.5230   19.3610    0.4700 C   0  0  2  0  0  0  0  0  0  0  0  0
    2.6070   20.1930   -0.6920 O   0  0  0  0  0  0  0  0  0  0  0  0
    3.5380   18.1900    0.3480 C   0  0  0  0  0  0  0  0  0  0  0  0
    3.6680   17.4700    1.7130 C   0  0  0  0  0  0  0  0  0  0  0  0
    4.9340   18.7980    0.0440 C   0  0  0  0  0  0  0  0  0  0  0  0
    1.1050   15.6830   -1.7100 C   0  0  1  0  0  0  0  0  0  0  0  0
    0.6190   16.4540   -2.9750 C   0  0  0  0  0  0  0  0  0  0  0  0
   -0.1440   14.8930   -1.1650 C   0  0  0  0  0  0  0  0  0  0  0  0
    0.1420   13.6130   -0.3570 C   0  0  0  0  0  0  0  0  0  0  0  0
    1.1320   12.7070   -1.0960 C   0  0  2  0  0  0  0  0  0  0  0  0
    0.4620   12.2660   -2.4420 C   0  0  0  0  0  0  0  0  0  0  0  0
    0.6604   10.5324    1.8533 H   0  0  0  0  0  0  0  0  0  0  0  0
   -0.4028    9.2001    1.2865 H   0  0  0  0  0  0  0  0  0  0  0  0
    1.3809    8.9876    1.2865 H   0  0  0  0  0  0  0  0  0  0  0  0
   -0.3824   10.6010   -0.5620 H   0  0  0  0  0  0  0  0  0  0  0  0
    1.8832    9.5700   -1.9059 H   0  0  0  0  0  0  0  0  0  0  0  0
    1.3064    8.2820   -0.7430 H   0  0  0  0  0  0  0  0  0  0  0  0
   -0.3433    9.6555   -2.8980 H   0  0  0  0  0  0  0  0  0  0  0  0
    0.2777    7.9520   -2.8975 H   0  0  0  0  0  0  0  0  0  0  0  0
   -0.7419    7.5164   -1.0602 H   0  0  0  0  0  0  0  0  0  0  0  0
   -2.2288   11.2500   -0.2369 H   0  0  0  0  0  0  0  0  0  0  0  0
   -1.3476   10.9846   -1.7795 H   0  0  0  0  0  0  0  0  0  0  0  0
   -3.1392   11.1153   -1.7795 H   0  0  0  0  0  0  0  0  0  0  0  0
   -2.7994    9.0507    1.0535 H   0  0  0  0  0  0  0  0  0  0  0  0
   -4.2382    9.3112    0.0102 H   0  0  0  0  0  0  0  0  0  0  0  0
   -3.4050    7.7198    0.0102 H   0  0  0  0  0  0  0  0  0  0  0  0
    1.6988   11.6422    0.7263 H   0  0  0  0  0  0  0  0  0  0  0  0
    3.6893   10.7799   -0.3394 H   0  0  0  0  0  0  0  0  0  0  0  0
    2.7821   10.2340   -1.7662 H   0  0  0  0  0  0  0  0  0  0  0  0
    4.4415   12.5573   -1.6412 H   0  0  0  0  0  0  0  0  0  0  0  0
    3.2714   12.2471   -2.9210 H   0  0  0  0  0  0  0  0  0  0  0  0
    2.5664   13.5247    0.9282 H   0  0  0  0  0  0  0  0  0  0  0  0
    4.1765   13.4353    0.1369 H   0  0  0  0  0  0  0  0  0  0  0  0
    3.2603   14.9804    0.1369 H   0  0  0  0  0  0  0  0  0  0  0  0
    1.9267   14.2512   -3.1238 H   0  0  0  0  0  0  0  0  0  0  0  0
    4.3805   14.7981   -2.5614 H   0  0  0  0  0  0  0  0  0  0  0  0
    3.3391   15.9722   -3.5235 H   0  0  0  0  0  0  0  0  0  0  0  0
    4.8993   17.0343   -1.6848 H   0  0  0  0  0  0  0  0  0  0  0  0
    1.5189   16.1179    0.3224 H   0  0  0  0  0  0  0  0  0  0  0  0
    0.7312   18.5140   -1.4491 H   0  0  0  0  0  0  0  0  0  0  0  0
   -0.3460   17.6069   -0.2969 H   0  0  0  0  0  0  0  0  0  0  0  0
    0.4146   19.7679    0.6367 H   0  0  0  0  0  0  0  0  0  0  0  0
    0.9959   18.3444    1.5863 H   0  0  0  0  0  0  0  0  0  0  0  0
    2.7948   19.9184    1.3785 H   0  0  0  0  0  0  0  0  0  0  0  0
    2.9390   19.6450   -1.4230 H   0  0  0  0  0  0  0  0  0  0  0  0
    3.5364   18.1991    2.5261 H   0  0  0  0  0  0  0  0  0  0  0  0
    2.8961   16.6902    1.7912 H   0  0  0  0  0  0  0  0  0  0  0  0
    4.6638   17.0094    1.7912 H   0  0  0  0  0  0  0  0  0  0  0  0
    5.4498   19.0227    0.9892 H   0  0  0  0  0  0  0  0  0  0  0  0
    5.5292   18.0776   -0.5363 H   0  0  0  0  0  0  0  0  0  0  0  0
    4.8120   19.7245   -0.5363 H   0  0  0  0  0  0  0  0  0  0  0  0
    0.0560   17.3471   -2.6663 H   0  0  0  0  0  0  0  0  0  0  0  0
    1.4888   16.7583   -3.5756 H   0  0  0  0  0  0  0  0  0  0  0  0
   -0.0307   15.8005   -3.5756 H   0  0  0  0  0  0  0  0  0  0  0  0
   -0.7125   15.5758   -0.5165 H   0  0  0  0  0  0  0  0  0  0  0  0
   -0.6830   14.5529   -2.0616 H   0  0  0  0  0  0  0  0  0  0  0  0
    0.5678   13.8909    0.6184 H   0  0  0  0  0  0  0  0  0  0  0  0
   -0.8022   13.0647   -0.2232 H   0  0  0  0  0  0  0  0  0  0  0  0
   -0.4389   11.6730   -2.2261 H   0  0  0  0  0  0  0  0  0  0  0  0
    0.1835   13.1579   -3.0224 H   0  0  0  0  0  0  0  0  0  0  0  0
    1.1711   11.6575   -3.0224 H   0  0  0  0  0  0  0  0  0  0  0  0
  1  2  1  0
  2  3  1  0
  3  4  1  0
  4  5  1  0
  5  6  1  0
  6  7  1  0
  7  8  1  0
  7  9  1  0
  2 10  1  0
 10 11  1  0
 11 12  1  0
 12 13  1  0
 13 14  1  1
 13 15  1  0
 15 16  1  0
 16 17  1  0
 17 18  2  0
 18 19  1  0
 19 20  1  0
 20 21  1  0
 21 22  1  0
 22 23  1  0
 22 24  1  0
 24 25  1  0
 24 26  1  0
 19 27  1  0
 27 28  1  6
 27 29  1  0
 29 30  1  0
 30 31  1  0
 31 32  1  6
  7  5  1  0
 31 10  1  0
 31 13  1  0
 27 15  1  0
 24 18  1  0
  1 33  1  0
  1 34  1  0
  1 35  1  0
  2 36  1  6
  3 37  1  0
  3 38  1  0
  4 39  1  0
  4 40  1  0
  5 41  1  1
  8 42  1  0
  8 43  1  0
  8 44  1  0
  9 45  1  0
  9 46  1  0
  9 47  1  0
 10 48  1  1
 11 49  1  0
 11 50  1  0
 12 51  1  0
 12 52  1  0
 14 53  1  0
 14 54  1  0
 14 55  1  0
 15 56  1  6
 16 57  1  0
 16 58  1  0
 17 59  1  0
 19 60  1  1
 20 61  1  0
 20 62  1  0
 21 63  1  0
 21 64  1  0
 22 65  1  1
 23 66  1  0
 25 67  1  0
 25 68  1  0
 25 69  1  0
 26 70  1  0
 26 71  1  0
 26 72  1  0
 28 73  1  0
 28 74  1  0
 28 75  1  0
 29 76  1  0
 29 77  1  0
 30 78  1  0
 30 79  1  0
 32 80  1  0
 32 81  1  0
 32 82  1  0
M  END
>  <meeko>  (14) 
{"is_sidechain": [false], "intermolecular_energy": 2.731, "internal_energy": -0.839}

$$$$
EPH_relaxed_0001_pdb2pqr_Repair_143_r2_0001_out
     RDKit          3D

 82 86  0  0  0  0  0  0  0  0999 V2000
   -0.6520   10.7000   -1.9330 C   0  0  0  0  0  0  0  0  0  0  0  0
    0.5490   10.2970   -1.0730 C   0  0  2  0  0  0  0  0  0  0  0  0
    0.1280    9.8570    0.3430 C   0  0  0  0  0  0  0  0  0  0  0  0
    0.8930   10.5700    1.4620 C   0  0  0  0  0  0  0  0  0  0  0  0
    0.0630   11.6390    2.1060 C   0  0  2  0  0  0  0  0  0  0  0  0
    0.6490   12.9480    2.0820 O   0  0  0  0  0  0  0  0  0  0  0  0
    0.4680   12.3580    3.3800 C   0  0  0  0  0  0  0  0  0  0  0  0
    1.7480   12.0360    4.0850 C   0  0  0  0  0  0  0  0  0  0  0  0
   -0.5970   13.0180    4.1980 C   0  0  0  0  0  0  0  0  0  0  0  0
    1.5370   11.4540   -0.9870 C   0  0  1  0  0  0  0  0  0  0  0  0
    2.8900   11.1370   -1.6780 C   0  0  0  0  0  0  0  0  0  0  0  0
    3.3940   12.4630   -2.3040 C   0  0  0  0  0  0  0  0  0  0  0  0
    2.4970   13.5560   -1.6780 C   0  0  1  0  0  0  0  0  0  0  0  0
    3.1230   13.8340   -0.2760 C   0  0  0  0  0  0  0  0  0  0  0  0
    2.3310   14.8710   -2.5070 C   0  0  2  0  0  0  0  0  0  0  0  0
    3.6290   15.6630   -2.7410 C   0  0  0  0  0  0  0  0  0  0  0  0
    3.9460   16.6890   -1.7040 C   0  0  0  0  0  0  0  0  0  0  0  0
    3.0850   17.1630   -0.7840 C   0  0  0  0  0  0  0  0  0  0  0  0
    1.6130   16.7340   -0.7880 C   0  0  1  0  0  0  0  0  0  0  0  0
    0.7090   17.9840   -0.6230 C   0  0  0  0  0  0  0  0  0  0  0  0
    1.0720   18.8110    0.6060 C   0  0  0  0  0  0  0  0  0  0  0  0
    2.5280   19.2680    0.5450 C   0  0  2  0  0  0  0  0  0  0  0  0
    2.6760   20.1930   -0.5360 O   0  0  0  0  0  0  0  0  0  0  0  0
    3.5310   18.0940    0.3700 C   0  0  0  0  0  0  0  0  0  0  0  0
    3.5880   17.2590    1.6730 C   0  0  0  0  0  0  0  0  0  0  0  0
    4.9480   18.7020    0.1810 C   0  0  0  0  0  0  0  0  0  0  0  0
    1.1630   15.8120   -2.0020 C   0  0  1  0  0  0  0  0  0  0  0  0
    0.7460   16.6960   -3.2170 C   0  0  0  0  0  0  0  0  0  0  0  0
   -0.1200   15.0000   -1.5820 C   0  0  0  0  0  0  0  0  0  0  0  0
    0.1120   13.6520   -0.8740 C   0  0  0  0  0  0  0  0  0  0  0  0
    1.1220   12.7950   -1.6420 C   0  0  2  0  0  0  0  0  0  0  0  0
    0.5100   12.4810   -3.0500 C   0  0  0  0  0  0  0  0  0  0  0  0
   -1.4918   10.9818   -1.2809 H   0  0  0  0  0  0  0  0  0  0  0  0
   -0.3778   11.5553   -2.5680 H   0  0  0  0  0  0  0  0  0  0  0  0
   -0.9492    9.8524   -2.5680 H   0  0  0  0  0  0  0  0  0  0  0  0
    1.0284    9.4335   -1.5574 H   0  0  0  0  0  0  0  0  0  0  0  0
   -0.9446   10.0667    0.4673 H   0  0  0  0  0  0  0  0  0  0  0  0
    0.3586    8.7848    0.4284 H   0  0  0  0  0  0  0  0  0  0  0  0
    1.1783    9.8315    2.2257 H   0  0  0  0  0  0  0  0  0  0  0  0
    1.7822   11.0446    1.0215 H   0  0  0  0  0  0  0  0  0  0  0  0
   -0.8660   11.1303    1.8090 H   0  0  0  0  0  0  0  0  0  0  0  0
    1.5878   12.0763    5.1725 H   0  0  0  0  0  0  0  0  0  0  0  0
    2.0795   11.0265    3.8004 H   0  0  0  0  0  0  0  0  0  0  0  0
    2.5177   12.7685    3.8004 H   0  0  0  0  0  0  0  0  0  0  0  0
   -0.3761   12.8811    5.2668 H   0  0  0  0  0  0  0  0  0  0  0  0
   -0.6258   14.0925    3.9642 H   0  0  0  0  0  0  0  0  0  0  0  0
   -1.5720   12.5656    3.9642 H   0  0  0  0  0  0  0  0  0  0  0  0
    1.5895   11.5696    0.1056 H   0  0  0  0  0  0  0  0  0  0  0  0
    3.6156   10.7674   -0.9385 H   0  0  0  0  0  0  0  0  0  0  0  0
    2.7686   10.3588   -2.4459 H   0  0  0  0  0  0  0  0  0  0  0  0
    4.4504   12.6353   -2.0502 H   0  0  0  0  0  0  0  0  0  0  0  0
    3.3357   12.4542   -3.4024 H   0  0  0  0  0  0  0  0  0  0  0  0
    2.4185   13.5211    0.5087 H   0  0  0  0  0  0  0  0  0  0  0  0
    4.0604   13.2676   -0.1742 H   0  0  0  0  0  0  0  0  0  0  0  0
    3.3314   14.9093   -0.1742 H   0  0  0  0  0  0  0  0  0  0  0  0
    2.0309   14.4910   -3.4947 H   0  0  0  0  0  0  0  0  0  0  0  0
    4.4628   14.9463   -2.7760 H   0  0  0  0  0  0  0  0  0  0  0  0
    3.4830   16.2155   -3.6809 H   0  0  0  0  0  0  0  0  0  0  0  0
    4.9695   17.0917   -1.6905 H   0  0  0  0  0  0  0  0  0  0  0  0
    1.4885   16.0662    0.0772 H   0  0  0  0  0  0  0  0  0  0  0  0
    0.8149   18.6161   -1.5170 H   0  0  0  0  0  0  0  0  0  0  0  0
   -0.3256   17.6329   -0.4952 H   0  0  0  0  0  0  0  0  0  0  0  0
    0.4187   19.6949    0.6511 H   0  0  0  0  0  0  0  0  0  0  0  0
    0.9368   18.1871    1.5018 H   0  0  0  0  0  0  0  0  0  0  0  0
    2.7658   19.7426    1.5085 H   0  0  0  0  0  0  0  0  0  0  0  0
    3.5450   20.6190   -0.4420 H   0  0  0  0  0  0  0  0  0  0  0  0
    3.5421   17.9319    2.5420 H   0  0  0  0  0  0  0  0  0  0  0  0
    2.7352   16.5648    1.7013 H   0  0  0  0  0  0  0  0  0  0  0  0
    4.5273   16.6872    1.7013 H   0  0  0  0  0  0  0  0  0  0  0  0
    5.3984   18.8953    1.1658 H   0  0  0  0  0  0  0  0  0  0  0  0
    5.5786   17.9953   -0.3783 H   0  0  0  0  0  0  0  0  0  0  0  0
    4.8703   19.6460   -0.3783 H   0  0  0  0  0  0  0  0  0  0  0  0
    0.3032   17.6347   -2.8526 H   0  0  0  0  0  0  0  0  0  0  0  0
    1.6326   16.9216   -3.8277 H   0  0  0  0  0  0  0  0  0  0  0  0
    0.0080   16.1553   -3.8277 H   0  0  0  0  0  0  0  0  0  0  0  0
   -0.7085   15.6352   -0.9036 H   0  0  0  0  0  0  0  0  0  0  0  0
   -0.6220   14.7459   -2.5272 H   0  0  0  0  0  0  0  0  0  0  0  0
    0.4965   13.8395    0.1394 H   0  0  0  0  0  0  0  0  0  0  0  0
   -0.8445   13.1106   -0.8294 H   0  0  0  0  0  0  0  0  0  0  0  0
   -0.4623   11.9822   -2.9242 H   0  0  0  0  0  0  0  0  0  0  0  0
    0.3713   13.4193   -3.6071 H   0  0  0  0  0  0  0  0  0  0  0  0
    1.1913   11.8211   -3.6071 H   0  0  0  0  0  0  0  0  0  0  0  0
  1  2  1  0
  2  3  1  0
  3  4  1  0
  4  5  1  0
  5  6  1  0
  6  7  1  0
  7  8  1  0
  7  9  1  0
  2 10  1  0
 10 11  1  0
 11 12  1  0
 12 13  1  0
 13 14  1  1
 13 15  1  0
 15 16  1  0
 16 17  1  0
 17 18  2  0
 18 19  1  0
 19 20  1  0
 20 21  1  0
 21 22  1  0
 22 23  1  0
 22 24  1  0
 24 25  1  0
 24 26  1  0
 19 27  1  0
 27 28  1  6
 27 29  1  0
 29 30  1  0
 30 31  1  0
 31 32  1  6
  7  5  1  0
 31 10  1  0
 31 13  1  0
 27 15  1  0
 24 18  1  0
  1 33  1  0
  1 34  1  0
  1 35  1  0
  2 36  1  6
  3 37  1  0
  3 38  1  0
  4 39  1  0
  4 40  1  0
  5 41  1  1
  8 42  1  0
  8 43  1  0
  8 44  1  0
  9 45  1  0
  9 46  1  0
  9 47  1  0
 10 48  1  1
 11 49  1  0
 11 50  1  0
 12 51  1  0
 12 52  1  0
 14 53  1  0
 14 54  1  0
 14 55  1  0
 15 56  1  6
 16 57  1  0
 16 58  1  0
 17 59  1  0
 19 60  1  1
 20 61  1  0
 20 62  1  0
 21 63  1  0
 21 64  1  0
 22 65  1  1
 23 66  1  0
 25 67  1  0
 25 68  1  0
 25 69  1  0
 26 70  1  0
 26 71  1  0
 26 72  1  0
 28 73  1  0
 28 74  1  0
 28 75  1  0
 29 76  1  0
 29 77  1  0
 30 78  1  0
 30 79  1  0
 32 80  1  0
 32 81  1  0
 32 82  1  0
M  END
>  <meeko>  (15) 
{"is_sidechain": [false], "intermolecular_energy": 2.731, "internal_energy": -0.839}

$$$$
EPH_relaxed_0001_pdb2pqr_Repair_143_r2_0001_out
     RDKit          3D

 82 86  0  0  0  0  0  0  0  0999 V2000
    0.0730    7.8300   -2.4900 C   0  0  0  0  0  0  0  0  0  0  0  0
   -1.2530    8.2880   -1.8770 C   0  0  2  0  0  0  0  0  0  0  0  0
   -2.4690    7.7770   -2.6750 C   0  0  0  0  0  0  0  0  0  0  0  0
   -3.6650    7.3950   -1.7980 C   0  0  0  0  0  0  0  0  0  0  0  0
   -4.7210    6.6780   -2.5830 C   0  0  2  0  0  0  0  0  0  0  0  0
   -5.3120    7.4490   -3.6370 O   0  0  0  0  0  0  0  0  0  0  0  0
   -6.1880    7.0660   -2.5630 C   0  0  0  0  0  0  0  0  0  0  0  0
   -6.6790    8.2150   -1.7400 C   0  0  0  0  0  0  0  0  0  0  0  0
   -7.2050    6.0400   -2.9520 C   0  0  0  0  0  0  0  0  0  0  0  0
   -1.2880    9.8100   -1.7910 C   0  0  1  0  0  0  0  0  0  0  0  0
   -2.5990   10.3420   -1.1530 C   0  0  0  0  0  0  0  0  0  0  0  0
   -2.2190   11.6050   -0.3380 C   0  0  0  0  0  0  0  0  0  0  0  0
   -0.7820   11.9480   -0.7980 C   0  0  1  0  0  0  0  0  0  0  0  0
   -0.9650   12.7170   -2.1440 C   0  0  0  0  0  0  0  0  0  0  0  0
    0.0930   12.7560    0.2150 C   0  0  2  0  0  0  0  0  0  0  0  0
   -0.4390   14.1570    0.5650 C   0  0  0  0  0  0  0  0  0  0  0  0
    0.0520   15.2620   -0.3100 C   0  0  0  0  0  0  0  0  0  0  0  0
    1.1000   15.1870   -1.1520 C   0  0  0  0  0  0  0  0  0  0  0  0
    1.9730   13.9270   -1.2120 C   0  0  1  0  0  0  0  0  0  0  0  0
    3.4700   14.3330   -1.1920 C   0  0  0  0  0  0  0  0  0  0  0  0
    3.8180   15.3380   -2.2870 C   0  0  0  0  0  0  0  0  0  0  0  0
    2.9700   16.6000   -2.1580 C   0  0  2  0  0  0  0  0  0  0  0  0
    3.3340   17.2790   -0.9530 O   0  0  0  0  0  0  0  0  0  0  0  0
    1.4420   16.3150   -2.1560 C   0  0  0  0  0  0  0  0  0  0  0  0
    0.9960   15.8600   -3.5680 C   0  0  0  0  0  0  0  0  0  0  0  0
    0.7070   17.6540   -1.8790 C   0  0  0  0  0  0  0  0  0  0  0  0
    1.6330   12.7970   -0.1480 C   0  0  1  0  0  0  0  0  0  0  0  0
    2.3970   13.0720    1.1830 C   0  0  0  0  0  0  0  0  0  0  0  0
    2.1580   11.4130   -0.6830 C   0  0  0  0  0  0  0  0  0  0  0  0
    1.2010   10.6060   -1.5820 C   0  0  0  0  0  0  0  0  0  0  0  0
   -0.1880   10.5000   -0.9460 C   0  0  2  0  0  0  0  0  0  0  0  0
   -0.0400    9.7110    0.3990 C   0  0  0  0  0  0  0  0  0  0  0  0
    0.7831    7.5847   -1.6865 H   0  0  0  0  0  0  0  0  0  0  0  0
   -0.0989    6.9392   -3.1120 H   0  0  0  0  0  0  0  0  0  0  0  0
    0.4876    8.6370   -3.1120 H   0  0  0  0  0  0  0  0  0  0  0  0
   -1.3168    7.8572   -0.8669 H   0  0  0  0  0  0  0  0  0  0  0  0
   -2.7864    8.5690   -3.3692 H   0  0  0  0  0  0  0  0  0  0  0  0
   -2.1493    6.8636   -3.1979 H   0  0  0  0  0  0  0  0  0  0  0  0
   -3.3170    6.7390   -0.9865 H   0  0  0  0  0  0  0  0  0  0  0  0
   -4.1049    8.3197   -1.3961 H   0  0  0  0  0  0  0  0  0  0  0  0
   -4.2106    5.7152   -2.4329 H   0  0  0  0  0  0  0  0  0  0  0  0
   -6.5752    7.9720   -0.6722 H   0  0  0  0  0  0  0  0  0  0  0  0
   -6.0855    9.1118   -1.9714 H   0  0  0  0  0  0  0  0  0  0  0  0
   -7.7373    8.4059   -1.9714 H   0  0  0  0  0  0  0  0  0  0  0  0
   -7.6441    5.5970   -2.0459 H   0  0  0  0  0  0  0  0  0  0  0  0
   -7.9972    6.5166   -3.5480 H   0  0  0  0  0  0  0  0  0  0  0  0
   -6.7215    5.2520   -3.5480 H   0  0  0  0  0  0  0  0  0  0  0  0
   -1.1560   10.0581   -2.8545 H   0  0  0  0  0  0  0  0  0  0  0  0
   -3.3242   10.6018   -1.9382 H   0  0  0  0  0  0  0  0  0  0  0  0
   -3.0621    9.5804   -0.5084 H   0  0  0  0  0  0  0  0  0  0  0  0
   -2.9068   12.4336   -0.5624 H   0  0  0  0  0  0  0  0  0  0  0  0
   -2.2806   11.4356    0.7471 H   0  0  0  0  0  0  0  0  0  0  0  0
   -1.2150   13.7676   -1.9350 H   0  0  0  0  0  0  0  0  0  0  0  0
   -0.0307   12.6706   -2.7228 H   0  0  0  0  0  0  0  0  0  0  0  0
   -1.7782   12.2547   -2.7228 H   0  0  0  0  0  0  0  0  0  0  0  0
   -0.0029   12.1617    1.1356 H   0  0  0  0  0  0  0  0  0  0  0  0
   -1.5365   14.1309    0.4960 H   0  0  0  0  0  0  0  0  0  0  0  0
   -0.0664   14.3804    1.5756 H   0  0  0  0  0  0  0  0  0  0  0  0
   -0.4883   16.2190   -0.2630 H   0  0  0  0  0  0  0  0  0  0  0  0
    1.7324   13.4353   -2.1661 H   0  0  0  0  0  0  0  0  0  0  0  0
    3.7006   14.7822   -0.2147 H   0  0  0  0  0  0  0  0  0  0  0  0
    4.0649   13.4251   -1.3704 H   0  0  0  0  0  0  0  0  0  0  0  0
    4.8810   15.6083   -2.2030 H   0  0  0  0  0  0  0  0  0  0  0  0
    3.6147   14.8767   -3.2647 H   0  0  0  0  0  0  0  0  0  0  0  0
    3.1711   17.2234   -3.0417 H   0  0  0  0  0  0  0  0  0  0  0  0
    3.4840   16.6050   -0.2690 H   0  0  0  0  0  0  0  0  0  0  0  0
    0.2287   15.0772   -3.4757 H   0  0  0  0  0  0  0  0  0  0  0  0
    0.5799   16.7185   -4.1155 H   0  0  0  0  0  0  0  0  0  0  0  0
    1.8627   15.4611   -4.1155 H   0  0  0  0  0  0  0  0  0  0  0  0
    0.6224   17.8080   -0.7931 H   0  0  0  0  0  0  0  0  0  0  0  0
    1.2762   18.4836   -2.3238 H   0  0  0  0  0  0  0  0  0  0  0  0
   -0.2985   17.6192   -2.3238 H   0  0  0  0  0  0  0  0  0  0  0  0
    1.7436   12.8368    2.0361 H   0  0  0  0  0  0  0  0  0  0  0  0
    3.2974   12.4415    1.2260 H   0  0  0  0  0  0  0  0  0  0  0  0
    2.6890   14.1317    1.2260 H   0  0  0  0  0  0  0  0  0  0  0  0
    3.0740   11.6056   -1.2608 H   0  0  0  0  0  0  0  0  0  0  0  0
    2.3002   10.7932    0.2146 H   0  0  0  0  0  0  0  0  0  0  0  0
    1.1133   11.1082   -2.5567 H   0  0  0  0  0  0  0  0  0  0  0  0
    1.6082    9.5919   -1.7073 H   0  0  0  0  0  0  0  0  0  0  0  0
   -0.1695   10.4016    1.2454 H   0  0  0  0  0  0  0  0  0  0  0  0
   -0.8060    8.9231    0.4481 H   0  0  0  0  0  0  0  0  0  0  0  0
    0.9595    9.2543    0.4481 H   0  0  0  0  0  0  0  0  0  0  0  0
  1  2  1  0
  2  3  1  0
  3  4  1  0
  4  5  1  0
  5  6  1  0
  6  7  1  0
  7  8  1  0
  7  9  1  0
  2 10  1  0
 10 11  1  0
 11 12  1  0
 12 13  1  0
 13 14  1  6
 13 15  1  0
 15 16  1  0
 16 17  1  0
 17 18  2  0
 18 19  1  0
 19 20  1  0
 20 21  1  0
 21 22  1  0
 22 23  1  0
 22 24  1  0
 24 25  1  0
 24 26  1  0
 19 27  1  0
 27 28  1  1
 27 29  1  0
 29 30  1  0
 30 31  1  0
 31 32  1  1
  7  5  1  0
 31 10  1  0
 31 13  1  0
 27 15  1  0
 24 18  1  0
  1 33  1  0
  1 34  1  0
  1 35  1  0
  2 36  1  1
  3 37  1  0
  3 38  1  0
  4 39  1  0
  4 40  1  0
  5 41  1  6
  8 42  1  0
  8 43  1  0
  8 44  1  0
  9 45  1  0
  9 46  1  0
  9 47  1  0
 10 48  1  6
 11 49  1  0
 11 50  1  0
 12 51  1  0
 12 52  1  0
 14 53  1  0
 14 54  1  0
 14 55  1  0
 15 56  1  1
 16 57  1  0
 16 58  1  0
 17 59  1  0
 19 60  1  6
 20 61  1  0
 20 62  1  0
 21 63  1  0
 21 64  1  0
 22 65  1  6
 23 66  1  0
 25 67  1  0
 25 68  1  0
 25 69  1  0
 26 70  1  0
 26 71  1  0
 26 72  1  0
 28 73  1  0
 28 74  1  0
 28 75  1  0
 29 76  1  0
 29 77  1  0
 30 78  1  0
 30 79  1  0
 32 80  1  0
 32 81  1  0
 32 82  1  0
M  END
>  <meeko>  (16) 
{"is_sidechain": [false], "intermolecular_energy": 2.731, "internal_energy": -0.839}

$$$$
EPH_relaxed_0001_pdb2pqr_Repair_143_r2_0001_out
     RDKit          3D

 82 86  0  0  0  0  0  0  0  0999 V2000
    0.7730    8.5030   -0.2020 C   0  0  0  0  0  0  0  0  0  0  0  0
   -0.2490    9.2650   -1.0500 C   0  0  2  0  0  0  0  0  0  0  0  0
   -0.9330    8.3560   -2.0910 C   0  0  0  0  0  0  0  0  0  0  0  0
   -2.4520    8.2660   -1.9260 C   0  0  0  0  0  0  0  0  0  0  0  0
   -3.0250    7.1110   -2.6910 C   0  0  2  0  0  0  0  0  0  0  0  0
   -4.0580    7.4620   -3.6210 O   0  0  0  0  0  0  0  0  0  0  0  0
   -4.4520    6.6230   -2.5240 C   0  0  0  0  0  0  0  0  0  0  0  0
   -5.3940    7.2800   -1.5640 C   0  0  0  0  0  0  0  0  0  0  0  0
   -4.7800    5.2190   -2.9260 C   0  0  0  0  0  0  0  0  0  0  0  0
    0.4270   10.4390   -1.7470 C   0  0  1  0  0  0  0  0  0  0  0  0
    0.0870   10.5120   -3.2600 C   0  0  0  0  0  0  0  0  0  0  0  0
    0.0170   12.0150   -3.6310 C   0  0  0  0  0  0  0  0  0  0  0  0
    0.6390   12.7460   -2.4180 C   0  0  1  0  0  0  0  0  0  0  0  0
    2.1810   12.6350   -2.6310 C   0  0  0  0  0  0  0  0  0  0  0  0
    0.1910   14.2280   -2.2000 C   0  0  2  0  0  0  0  0  0  0  0  0
    0.5590   15.1950   -3.3380 C   0  0  0  0  0  0  0  0  0  0  0  0
    1.8840   15.8700   -3.1980 C   0  0  0  0  0  0  0  0  0  0  0  0
    2.6160   15.9290   -2.0700 C   0  0  0  0  0  0  0  0  0  0  0  0
    2.0780   15.3590   -0.7510 C   0  0  1  0  0  0  0  0  0  0  0  0
    2.3170   16.3820    0.3900 C   0  0  0  0  0  0  0  0  0  0  0  0
    3.7770   16.8140    0.4930 C   0  0  0  0  0  0  0  0  0  0  0  0
    4.2580   17.4280   -0.8190 C   0  0  2  0  0  0  0  0  0  0  0  0
    3.5590   18.6580   -1.0360 O   0  0  0  0  0  0  0  0  0  0  0  0
    4.0590   16.4910   -2.0430 C   0  0  0  0  0  0  0  0  0  0  0  0
    5.0440   15.3000   -1.9530 C   0  0  0  0  0  0  0  0  0  0  0  0
    4.4520   17.2830   -3.3190 C   0  0  0  0  0  0  0  0  0  0  0  0
    0.5830   14.8220   -0.7860 C   0  0  1  0  0  0  0  0  0  0  0  0
   -0.4090   15.9920   -0.5040 C   0  0  0  0  0  0  0  0  0  0  0  0
    0.3830   13.7800    0.3770 C   0  0  0  0  0  0  0  0  0  0  0  0
    0.7300   12.3120    0.0630 C   0  0  0  0  0  0  0  0  0  0  0  0
    0.0740   11.8620   -1.2460 C   0  0  2  0  0  0  0  0  0  0  0  0
   -1.4790   11.9410   -1.0550 C   0  0  0  0  0  0  0  0  0  0  0  0
    0.5573    8.6639    0.8646 H   0  0  0  0  0  0  0  0  0  0  0  0
    0.7111    7.4288   -0.4307 H   0  0  0  0  0  0  0  0  0  0  0  0
    1.7849    8.8689   -0.4307 H   0  0  0  0  0  0  0  0  0  0  0  0
   -1.0315    9.6360   -0.3717 H   0  0  0  0  0  0  0  0  0  0  0  0
   -0.7155    8.7519   -3.0940 H   0  0  0  0  0  0  0  0  0  0  0  0
   -0.5331    7.3418   -1.9442 H   0  0  0  0  0  0  0  0  0  0  0  0
   -2.6879    8.1392   -0.8591 H   0  0  0  0  0  0  0  0  0  0  0  0
   -2.8954    9.1923   -2.3201 H   0  0  0  0  0  0  0  0  0  0  0  0
   -2.0583    6.5866   -2.6695 H   0  0  0  0  0  0  0  0  0  0  0  0
   -5.0792    7.0604   -0.5331 H   0  0  0  0  0  0  0  0  0  0  0  0
   -5.3837    8.3679   -1.7267 H   0  0  0  0  0  0  0  0  0  0  0  0
   -6.4113    6.8945   -1.7267 H   0  0  0  0  0  0  0  0  0  0  0  0
   -4.9237    4.6038   -2.0255 H   0  0  0  0  0  0  0  0  0  0  0  0
   -5.7033    5.2150   -3.5240 H   0  0  0  0  0  0  0  0  0  0  0  0
   -3.9541    4.8064   -3.5240 H   0  0  0  0  0  0  0  0  0  0  0  0
    1.4781   10.2090   -1.5183 H   0  0  0  0  0  0  0  0  0  0  0  0
    0.8706   10.0127   -3.8488 H   0  0  0  0  0  0  0  0  0  0  0  0
   -0.8665   10.0075   -3.4751 H   0  0  0  0  0  0  0  0  0  0  0  0
    0.5957   12.2168   -4.5445 H   0  0  0  0  0  0  0  0  0  0  0  0
   -1.0117   12.3467   -3.8352 H   0  0  0  0  0  0  0  0  0  0  0  0
    2.6845   12.5988   -1.6537 H   0  0  0  0  0  0  0  0  0  0  0  0
    2.4082   11.7182   -3.1947 H   0  0  0  0  0  0  0  0  0  0  0  0
    2.5372   13.5098   -3.1947 H   0  0  0  0  0  0  0  0  0  0  0  0
   -0.9059   14.1484   -2.2197 H   0  0  0  0  0  0  0  0  0  0  0  0
    0.5653   14.6256   -4.2792 H   0  0  0  0  0  0  0  0  0  0  0  0
   -0.1947   15.9958   -3.3127 H   0  0  0  0  0  0  0  0  0  0  0  0
    2.2964   16.3603   -4.0922 H   0  0  0  0  0  0  0  0  0  0  0  0
    2.6548   14.4425   -0.5579 H   0  0  0  0  0  0  0  0  0  0  0  0
    1.6986   17.2718    0.2009 H   0  0  0  0  0  0  0  0  0  0  0  0
    2.0457   15.8941    1.3378 H   0  0  0  0  0  0  0  0  0  0  0  0
    3.8763   17.5585    1.2966 H   0  0  0  0  0  0  0  0  0  0  0  0
    4.3908   15.9278    0.7118 H   0  0  0  0  0  0  0  0  0  0  0  0
    5.3409   17.5975   -0.7265 H   0  0  0  0  0  0  0  0  0  0  0  0
    3.1030   18.8870   -0.2080 H   0  0  0  0  0  0  0  0  0  0  0  0
    5.2389   15.0644   -0.8963 H   0  0  0  0  0  0  0  0  0  0  0  0
    4.6044   14.4223   -2.4494 H   0  0  0  0  0  0  0  0  0  0  0  0
    5.9886   15.5671   -2.4494 H   0  0  0  0  0  0  0  0  0  0  0  0
    4.9237   18.2337   -3.0297 H   0  0  0  0  0  0  0  0  0  0  0  0
    5.1599   16.6890   -3.9157 H   0  0  0  0  0  0  0  0  0  0  0  0
    3.5508   17.4875   -3.9157 H   0  0  0  0  0  0  0  0  0  0  0  0
   -0.5209   16.1240    0.5823 H   0  0  0  0  0  0  0  0  0  0  0  0
   -0.0178   16.9194   -0.9477 H   0  0  0  0  0  0  0  0  0  0  0  0
   -1.3879   15.7577   -0.9477 H   0  0  0  0  0  0  0  0  0  0  0  0
    1.0137   14.0978    1.2204 H   0  0  0  0  0  0  0  0  0  0  0  0
   -0.6977   13.7823    0.5823 H   0  0  0  0  0  0  0  0  0  0  0  0
    1.8216   12.2118   -0.0284 H   0  0  0  0  0  0  0  0  0  0  0  0
    0.3526   11.6797    0.8802 H   0  0  0  0  0  0  0  0  0  0  0  0
   -1.7162   11.9531    0.0191 H   0  0  0  0  0  0  0  0  0  0  0  0
   -1.8600   12.8597   -1.5250 H   0  0  0  0  0  0  0  0  0  0  0  0
   -1.9512   11.0657   -1.5250 H   0  0  0  0  0  0  0  0  0  0  0  0
  1  2  1  0
  2  3  1  0
  3  4  1  0
  4  5  1  0
  5  6  1  0
  6  7  1  0
  7  8  1  0
  7  9  1  0
  2 10  1  0
 10 11  1  0
 11 12  1  0
 12 13  1  0
 13 14  1  6
 13 15  1  0
 15 16  1  0
 16 17  1  0
 17 18  2  0
 18 19  1  0
 19 20  1  0
 20 21  1  0
 21 22  1  0
 22 23  1  0
 22 24  1  0
 24 25  1  0
 24 26  1  0
 19 27  1  0
 27 28  1  1
 27 29  1  0
 29 30  1  0
 30 31  1  0
 31 32  1  1
  7  5  1  0
 31 10  1  0
 31 13  1  0
 27 15  1  0
 24 18  1  0
  1 33  1  0
  1 34  1  0
  1 35  1  0
  2 36  1  1
  3 37  1  0
  3 38  1  0
  4 39  1  0
  4 40  1  0
  5 41  1  6
  8 42  1  0
  8 43  1  0
  8 44  1  0
  9 45  1  0
  9 46  1  0
  9 47  1  0
 10 48  1  6
 11 49  1  0
 11 50  1  0
 12 51  1  0
 12 52  1  0
 14 53  1  0
 14 54  1  0
 14 55  1  0
 15 56  1  1
 16 57  1  0
 16 58  1  0
 17 59  1  0
 19 60  1  1
 20 61  1  0
 20 62  1  0
 21 63  1  0
 21 64  1  0
 22 65  1  1
 23 66  1  0
 25 67  1  0
 25 68  1  0
 25 69  1  0
 26 70  1  0
 26 71  1  0
 26 72  1  0
 28 73  1  0
 28 74  1  0
 28 75  1  0
 29 76  1  0
 29 77  1  0
 30 78  1  0
 30 79  1  0
 32 80  1  0
 32 81  1  0
 32 82  1  0
M  END
>  <meeko>  (17) 
{"is_sidechain": [false], "intermolecular_energy": 2.731, "internal_energy": -0.839}

$$$$
EPH_relaxed_0001_pdb2pqr_Repair_143_r2_0001_out
     RDKit          3D

 82 86  0  0  0  0  0  0  0  0999 V2000
   -1.4210   10.4090    1.6700 C   0  0  0  0  0  0  0  0  0  0  0  0
   -2.0410   10.1210    0.3000 C   0  0  2  0  0  0  0  0  0  0  0  0
   -2.8310    8.7970    0.2870 C   0  0  0  0  0  0  0  0  0  0  0  0
   -4.2010    8.9050   -0.3890 C   0  0  0  0  0  0  0  0  0  0  0  0
   -4.7210    7.5620   -0.8060 C   0  0  2  0  0  0  0  0  0  0  0  0
   -4.8490    7.3840   -2.2230 O   0  0  0  0  0  0  0  0  0  0  0  0
   -6.0710    7.3560   -1.4670 C   0  0  0  0  0  0  0  0  0  0  0  0
   -6.9860    8.5070   -1.7480 C   0  0  0  0  0  0  0  0  0  0  0  0
   -6.7040    6.0020   -1.3940 C   0  0  0  0  0  0  0  0  0  0  0  0
   -0.9530   10.0890   -0.7670 C   0  0  1  0  0  0  0  0  0  0  0  0
   -1.3460    9.2260   -1.9950 C   0  0  0  0  0  0  0  0  0  0  0  0
   -0.7290    9.9130   -3.2410 C   0  0  0  0  0  0  0  0  0  0  0  0
    0.2650   10.9470   -2.6630 C   0  0  1  0  0  0  0  0  0  0  0  0
    1.5480   10.1250   -2.3240 C   0  0  0  0  0  0  0  0  0  0  0  0
    0.5910   12.1760   -3.5730 C   0  0  2  0  0  0  0  0  0  0  0  0
    1.2740   11.8360   -4.9090 C   0  0  0  0  0  0  0  0  0  0  0  0
    2.7660   11.8210   -4.8770 C   0  0  0  0  0  0  0  0  0  0  0  0
    3.5330   12.3430   -3.9020 C   0  0  0  0  0  0  0  0  0  0  0  0
    2.9050   13.1170   -2.7350 C   0  0  1  0  0  0  0  0  0  0  0  0
    3.6950   14.4310   -2.5000 C   0  0  0  0  0  0  0  0  0  0  0  0
    5.1880   14.1880   -2.3030 C   0  0  0  0  0  0  0  0  0  0  0  0
    5.7880   13.4690   -3.5080 C   0  0  2  0  0  0  0  0  0  0  0  0
    5.7380   14.3440   -4.6390 O   0  0  0  0  0  0  0  0  0  0  0  0
    5.0660   12.1350   -3.8470 C   0  0  0  0  0  0  0  0  0  0  0  0
    5.3750   11.0830   -2.7530 C   0  0  0  0  0  0  0  0  0  0  0  0
    5.6760   11.5830   -5.1640 C   0  0  0  0  0  0  0  0  0  0  0  0
    1.3360   13.3560   -2.8270 C   0  0  1  0  0  0  0  0  0  0  0  0
    1.0420   14.6540   -3.6400 C   0  0  0  0  0  0  0  0  0  0  0  0
    0.7680   13.6020   -1.3790 C   0  0  0  0  0  0  0  0  0  0  0  0
    0.3530   12.3550   -0.5750 C   0  0  0  0  0  0  0  0  0  0  0  0
   -0.5470   11.4390   -1.4100 C   0  0  2  0  0  0  0  0  0  0  0  0
   -1.8560   12.2320   -1.7460 C   0  0  0  0  0  0  0  0  0  0  0  0
   -2.1141   10.0870    2.4611 H   0  0  0  0  0  0  0  0  0  0  0  0
   -0.4733    9.8589    1.7666 H   0  0  0  0  0  0  0  0  0  0  0  0
   -1.2301   11.4880    1.7666 H   0  0  0  0  0  0  0  0  0  0  0  0
   -2.7517   10.9317    0.0816 H   0  0  0  0  0  0  0  0  0  0  0  0
   -2.2369    8.0432   -0.2504 H   0  0  0  0  0  0  0  0  0  0  0  0
   -3.0108    8.5193    1.3361 H   0  0  0  0  0  0  0  0  0  0  0  0
   -4.9120    9.3591    0.3169 H   0  0  0  0  0  0  0  0  0  0  0  0
   -4.0905    9.5250   -1.2908 H   0  0  0  0  0  0  0  0  0  0  0  0
   -4.2430    7.0813    0.0603 H   0  0  0  0  0  0  0  0  0  0  0  0
   -7.3313    8.9413   -0.7982 H   0  0  0  0  0  0  0  0  0  0  0  0
   -6.4465    9.2716   -2.3262 H   0  0  0  0  0  0  0  0  0  0  0  0
   -7.8526    8.1538   -2.3262 H   0  0  0  0  0  0  0  0  0  0  0  0
   -6.8377    5.7161   -0.3403 H   0  0  0  0  0  0  0  0  0  0  0  0
   -7.6834    6.0277   -1.8940 H   0  0  0  0  0  0  0  0  0  0  0  0
   -6.0562    5.2669   -1.8940 H   0  0  0  0  0  0  0  0  0  0  0  0
   -0.1198    9.6919   -0.1686 H   0  0  0  0  0  0  0  0  0  0  0  0
   -0.9446    8.2076   -1.8863 H   0  0  0  0  0  0  0  0  0  0  0  0
   -2.4392    9.1470   -2.0885 H   0  0  0  0  0  0  0  0  0  0  0  0
   -0.2040    9.1786   -3.8695 H   0  0  0  0  0  0  0  0  0  0  0  0
   -1.4921   10.3799   -3.8811 H   0  0  0  0  0  0  0  0  0  0  0  0
    1.6597   10.0534   -1.2320 H   0  0  0  0  0  0  0  0  0  0  0  0
    1.4597    9.1149   -2.7505 H   0  0  0  0  0  0  0  0  0  0  0  0
    2.4287   10.6274   -2.7505 H   0  0  0  0  0  0  0  0  0  0  0  0
   -0.4108   12.5467   -3.8355 H   0  0  0  0  0  0  0  0  0  0  0  0
    0.9308   10.8389   -5.2220 H   0  0  0  0  0  0  0  0  0  0  0  0
    0.9928   12.6382   -5.6071 H   0  0  0  0  0  0  0  0  0  0  0  0
    3.2827   11.3427   -5.7221 H   0  0  0  0  0  0  0  0  0  0  0  0
    2.9955   12.4651   -1.8536 H   0  0  0  0  0  0  0  0  0  0  0  0
    3.5564   15.0867   -3.3723 H   0  0  0  0  0  0  0  0  0  0  0  0
    3.3076   14.8939   -1.5804 H   0  0  0  0  0  0  0  0  0  0  0  0
    5.6957   15.1549   -2.1714 H   0  0  0  0  0  0  0  0  0  0  0  0
    5.3262   13.5564   -1.4131 H   0  0  0  0  0  0  0  0  0  0  0  0
    6.8258   13.2081   -3.2534 H   0  0  0  0  0  0  0  0  0  0  0  0
    5.4550   15.2190   -4.3220 H   0  0  0  0  0  0  0  0  0  0  0  0
    5.2417   11.5368   -1.7599 H   0  0  0  0  0  0  0  0  0  0  0  0
    4.6896   10.2294   -2.8611 H   0  0  0  0  0  0  0  0  0  0  0  0
    6.4131   10.7357   -2.8611 H   0  0  0  0  0  0  0  0  0  0  0  0
    6.4722   10.8625   -4.9255 H   0  0  0  0  0  0  0  0  0  0  0  0
    4.8913   11.0818   -5.7497 H   0  0  0  0  0  0  0  0  0  0  0  0
    6.0966   12.4137   -5.7497 H   0  0  0  0  0  0  0  0  0  0  0  0
    0.8534   15.4865   -2.9461 H   0  0  0  0  0  0  0  0  0  0  0  0
    1.9085   14.8939   -4.2737 H   0  0  0  0  0  0  0  0  0  0  0  0
    0.1566   14.4971   -4.2737 H   0  0  0  0  0  0  0  0  0  0  0  0
    1.5434   14.1272   -0.8020 H   0  0  0  0  0  0  0  0  0  0  0  0
   -0.1613   14.1717   -1.5270 H   0  0  0  0  0  0  0  0  0  0  0  0
    1.2558   11.8004   -0.2796 H   0  0  0  0  0  0  0  0  0  0  0  0
   -0.2067   12.6811    0.3141 H   0  0  0  0  0  0  0  0  0  0  0  0
   -2.3525   12.5328   -0.8117 H   0  0  0  0  0  0  0  0  0  0  0  0
   -1.6018   13.1281   -2.3311 H   0  0  0  0  0  0  0  0  0  0  0  0
   -2.5326   11.5918   -2.3311 H   0  0  0  0  0  0  0  0  0  0  0  0
  1  2  1  0
  2  3  1  0
  3  4  1  0
  4  5  1  0
  5  6  1  0
  6  7  1  0
  7  8  1  0
  7  9  1  0
  2 10  1  0
 10 11  1  0
 11 12  1  0
 12 13  1  0
 13 14  1  1
 13 15  1  0
 15 16  1  0
 16 17  1  0
 17 18  2  0
 18 19  1  0
 19 20  1  0
 20 21  1  0
 21 22  1  0
 22 23  1  0
 22 24  1  0
 24 25  1  0
 24 26  1  0
 19 27  1  0
 27 28  1  6
 27 29  1  0
 29 30  1  0
 30 31  1  0
 31 32  1  6
  7  5  1  0
 31 10  1  0
 31 13  1  0
 27 15  1  0
 24 18  1  0
  1 33  1  0
  1 34  1  0
  1 35  1  0
  2 36  1  6
  3 37  1  0
  3 38  1  0
  4 39  1  0
  4 40  1  0
  5 41  1  1
  8 42  1  0
  8 43  1  0
  8 44  1  0
  9 45  1  0
  9 46  1  0
  9 47  1  0
 10 48  1  1
 11 49  1  0
 11 50  1  0
 12 51  1  0
 12 52  1  0
 14 53  1  0
 14 54  1  0
 14 55  1  0
 15 56  1  6
 16 57  1  0
 16 58  1  0
 17 59  1  0
 19 60  1  1
 20 61  1  0
 20 62  1  0
 21 63  1  0
 21 64  1  0
 22 65  1  1
 23 66  1  0
 25 67  1  0
 25 68  1  0
 25 69  1  0
 26 70  1  0
 26 71  1  0
 26 72  1  0
 28 73  1  0
 28 74  1  0
 28 75  1  0
 29 76  1  0
 29 77  1  0
 30 78  1  0
 30 79  1  0
 32 80  1  0
 32 81  1  0
 32 82  1  0
M  END
>  <meeko>  (18) 
{"is_sidechain": [false], "intermolecular_energy": 2.731, "internal_energy": -0.839}

$$$$
EPH_relaxed_0001_pdb2pqr_Repair_143_r2_0001_out
     RDKit          3D

 82 86  0  0  0  0  0  0  0  0999 V2000
    3.9310   18.4160    0.9200 C   0  0  0  0  0  0  0  0  0  0  0  0
    2.8280   18.5330   -0.1360 C   0  0  2  0  0  0  0  0  0  0  0  0
    1.4280   18.6590    0.4970 C   0  0  0  0  0  0  0  0  0  0  0  0
    0.8300   20.0650    0.3930 C   0  0  0  0  0  0  0  0  0  0  0  0
   -0.6680   20.0320    0.4040 C   0  0  2  0  0  0  0  0  0  0  0  0
   -1.2400   18.7370    0.1800 O   0  0  0  0  0  0  0  0  0  0  0  0
   -1.5070   19.7310   -0.8240 C   0  0  0  0  0  0  0  0  0  0  0  0
   -0.8750   19.4420   -2.1490 C   0  0  0  0  0  0  0  0  0  0  0  0
   -2.9300   20.1940   -0.8490 C   0  0  0  0  0  0  0  0  0  0  0  0
    2.8720   17.3270   -1.0680 C   0  0  1  0  0  0  0  0  0  0  0  0
    4.2250   17.2000   -1.8170 C   0  0  0  0  0  0  0  0  0  0  0  0
    4.5130   15.6830   -1.9660 C   0  0  0  0  0  0  0  0  0  0  0  0
    3.1760   14.9950   -1.6010 C   0  0  1  0  0  0  0  0  0  0  0  0
    2.3120   15.0860   -2.8980 C   0  0  0  0  0  0  0  0  0  0  0  0
    3.2760   13.5260   -1.0760 C   0  0  2  0  0  0  0  0  0  0  0  0
    3.8580   12.5130   -2.0770 C   0  0  0  0  0  0  0  0  0  0  0  0
    2.8570   11.8350   -2.9520 C   0  0  0  0  0  0  0  0  0  0  0  0
    1.5270   11.8140   -2.7480 C   0  0  0  0  0  0  0  0  0  0  0  0
    0.9130   12.4370   -1.4880 C   0  0  1  0  0  0  0  0  0  0  0  0
   -0.1220   11.4570   -0.8760 C   0  0  0  0  0  0  0  0  0  0  0  0
   -1.1800   11.0190   -1.8840 C   0  0  0  0  0  0  0  0  0  0  0  0
   -0.5350   10.3510   -3.0960 C   0  0  2  0  0  0  0  0  0  0  0  0
    0.0630    9.1190   -2.6810 O   0  0  0  0  0  0  0  0  0  0  0  0
    0.5340   11.2420   -3.7900 C   0  0  0  0  0  0  0  0  0  0  0  0
   -0.1610   12.4290   -4.5020 C   0  0  0  0  0  0  0  0  0  0  0  0
    1.2060   10.3990   -4.9070 C   0  0  0  0  0  0  0  0  0  0  0  0
    1.9470   12.9830   -0.4110 C   0  0  1  0  0  0  0  0  0  0  0  0
    2.3690   11.8330    0.5530 C   0  0  0  0  0  0  0  0  0  0  0  0
    1.2360   14.0700    0.4790 C   0  0  0  0  0  0  0  0  0  0  0  0
    1.2740   15.5220   -0.0350 C   0  0  0  0  0  0  0  0  0  0  0  0
    2.6980   15.9270   -0.4290 C   0  0  2  0  0  0  0  0  0  0  0  0
    3.5870   15.8670    0.8610 C   0  0  0  0  0  0  0  0  0  0  0  0
    3.4840   18.4634    1.9239 H   0  0  0  0  0  0  0  0  0  0  0  0
    4.4559   17.4571    0.7973 H   0  0  0  0  0  0  0  0  0  0  0  0
    4.6454   19.2434    0.7973 H   0  0  0  0  0  0  0  0  0  0  0  0
    3.0144   19.4534   -0.7088 H   0  0  0  0  0  0  0  0  0  0  0  0
    0.7523   17.9557   -0.0116 H   0  0  0  0  0  0  0  0  0  0  0  0
    1.5380   18.4347    1.5683 H   0  0  0  0  0  0  0  0  0  0  0  0
    1.1797   20.6652    1.2460 H   0  0  0  0  0  0  0  0  0  0  0  0
    1.1564   20.5070   -0.5600 H   0  0  0  0  0  0  0  0  0  0  0  0
   -0.7041   20.8488    1.1399 H   0  0  0  0  0  0  0  0  0  0  0  0
    0.1151   18.9892   -1.9920 H   0  0  0  0  0  0  0  0  0  0  0  0
   -1.5112   18.7453   -2.7146 H   0  0  0  0  0  0  0  0  0  0  0  0
   -0.7642   20.3789   -2.7146 H   0  0  0  0  0  0  0  0  0  0  0  0
   -3.2951   20.3128    0.1818 H   0  0  0  0  0  0  0  0  0  0  0  0
   -2.9925   21.1588   -1.3736 H   0  0  0  0  0  0  0  0  0  0  0  0
   -3.5483   19.4507   -1.3736 H   0  0  0  0  0  0  0  0  0  0  0  0
    2.0076   17.5575   -1.7081 H   0  0  0  0  0  0  0  0  0  0  0  0
    4.1549   17.6715   -2.8084 H   0  0  0  0  0  0  0  0  0  0  0  0
    5.0317   17.7028   -1.2635 H   0  0  0  0  0  0  0  0  0  0  0  0
    4.8043   15.4425   -2.9991 H   0  0  0  0  0  0  0  0  0  0  0  0
    5.3424   15.3505   -1.3244 H   0  0  0  0  0  0  0  0  0  0  0  0
    1.2522   15.1976   -2.6255 H   0  0  0  0  0  0  0  0  0  0  0  0
    2.6316   15.9555   -3.4912 H   0  0  0  0  0  0  0  0  0  0  0  0
    2.4434   14.1690   -3.4912 H   0  0  0  0  0  0  0  0  0  0  0  0
    4.0220   13.6139   -0.2724 H   0  0  0  0  0  0  0  0  0  0  0  0
    4.5701   13.0456   -2.7245 H   0  0  0  0  0  0  0  0  0  0  0  0
    4.3212   11.7193   -1.4725 H   0  0  0  0  0  0  0  0  0  0  0  0
    3.2387   11.3078   -3.8388 H   0  0  0  0  0  0  0  0  0  0  0  0
    0.4060   13.3552   -1.8193 H   0  0  0  0  0  0  0  0  0  0  0  0
    0.4092   10.5651   -0.5123 H   0  0  0  0  0  0  0  0  0  0  0  0
   -0.6370   11.9829   -0.0586 H   0  0  0  0  0  0  0  0  0  0  0  0
   -1.8639   10.3055   -1.4011 H   0  0  0  0  0  0  0  0  0  0  0  0
   -1.7302   11.9085   -2.2246 H   0  0  0  0  0  0  0  0  0  0  0  0
   -1.3289   10.1772   -3.8372 H   0  0  0  0  0  0  0  0  0  0  0  0
   -0.6050    8.6250   -2.1750 H   0  0  0  0  0  0  0  0  0  0  0  0
   -0.5664   13.1214   -3.7495 H   0  0  0  0  0  0  0  0  0  0  0  0
    0.5700   12.9581   -5.1311 H   0  0  0  0  0  0  0  0  0  0  0  0
   -0.9802   12.0505   -5.1311 H   0  0  0  0  0  0  0  0  0  0  0  0
    1.8299    9.6164   -4.4506 H   0  0  0  0  0  0  0  0  0  0  0  0
    0.4298    9.9318   -5.5309 H   0  0  0  0  0  0  0  0  0  0  0  0
    1.8345   11.0515   -5.5309 H   0  0  0  0  0  0  0  0  0  0  0  0
    2.2473   12.1646    1.5947 H   0  0  0  0  0  0  0  0  0  0  0  0
    1.7356   10.9520    0.3723 H   0  0  0  0  0  0  0  0  0  0  0  0
    3.4219   11.5708    0.3723 H   0  0  0  0  0  0  0  0  0  0  0  0
    0.1797   13.7797    0.5784 H   0  0  0  0  0  0  0  0  0  0  0  0
    1.8010   14.0838    1.4227 H   0  0  0  0  0  0  0  0  0  0  0  0
    0.6186   15.6098   -0.9141 H   0  0  0  0  0  0  0  0  0  0  0  0
    0.9298   16.1882    0.7699 H   0  0  0  0  0  0  0  0  0  0  0  0
    2.9435   15.9104    1.7521 H   0  0  0  0  0  0  0  0  0  0  0  0
    4.1601   14.9281    0.8680 H   0  0  0  0  0  0  0  0  0  0  0  0
    4.2811   16.7203    0.8680 H   0  0  0  0  0  0  0  0  0  0  0  0
  1  2  1  0
  2  3  1  0
  3  4  1  0
  4  5  1  0
  5  6  1  0
  6  7  1  0
  7  8  1  0
  7  9  1  0
  2 10  1  0
 10 11  1  0
 11 12  1  0
 12 13  1  0
 13 14  1  6
 13 15  1  0
 15 16  1  0
 16 17  1  0
 17 18  2  0
 18 19  1  0
 19 20  1  0
 20 21  1  0
 21 22  1  0
 22 23  1  0
 22 24  1  0
 24 25  1  0
 24 26  1  0
 19 27  1  0
 27 28  1  1
 27 29  1  0
 29 30  1  0
 30 31  1  0
 31 32  1  1
  7  5  1  0
 31 10  1  0
 31 13  1  0
 27 15  1  0
 24 18  1  0
  1 33  1  0
  1 34  1  0
  1 35  1  0
  2 36  1  6
  3 37  1  0
  3 38  1  0
  4 39  1  0
  4 40  1  0
  5 41  1  1
  8 42  1  0
  8 43  1  0
  8 44  1  0
  9 45  1  0
  9 46  1  0
  9 47  1  0
 10 48  1  6
 11 49  1  0
 11 50  1  0
 12 51  1  0
 12 52  1  0
 14 53  1  0
 14 54  1  0
 14 55  1  0
 15 56  1  1
 16 57  1  0
 16 58  1  0
 17 59  1  0
 19 60  1  6
 20 61  1  0
 20 62  1  0
 21 63  1  0
 21 64  1  0
 22 65  1  6
 23 66  1  0
 25 67  1  0
 25 68  1  0
 25 69  1  0
 26 70  1  0
 26 71  1  0
 26 72  1  0
 28 73  1  0
 28 74  1  0
 28 75  1  0
 29 76  1  0
 29 77  1  0
 30 78  1  0
 30 79  1  0
 32 80  1  0
 32 81  1  0
 32 82  1  0
M  END
>  <meeko>  (19) 
{"is_sidechain": [false], "intermolecular_energy": 2.731, "internal_energy": -0.839}

$$$$
