EPH_relaxed_0001_pdb2pqr_Repair_265_r2_0001_out
     RDKit          3D

 82 86  0  0  0  0  0  0  0  0999 V2000
   -5.1510    5.8400   -1.6710 C   0  0  0  0  0  0  0  0  0  0  0  0
   -5.4400    7.3420   -1.7600 C   0  0  2  0  0  0  0  0  0  0  0  0
   -5.2120    8.0580   -0.4140 C   0  0  0  0  0  0  0  0  0  0  0  0
   -4.1660    9.1730   -0.4800 C   0  0  0  0  0  0  0  0  0  0  0  0
   -2.8060    8.6390   -0.8150 C   0  0  2  0  0  0  0  0  0  0  0  0
   -1.7850    8.9580    0.1390 O   0  0  0  0  0  0  0  0  0  0  0  0
   -1.6250    9.5220   -1.1730 C   0  0  0  0  0  0  0  0  0  0  0  0
   -1.7500   11.0130   -1.2140 C   0  0  0  0  0  0  0  0  0  0  0  0
   -0.4950    8.9250   -1.9520 C   0  0  0  0  0  0  0  0  0  0  0  0
   -6.8710    7.5680   -2.2350 C   0  0  1  0  0  0  0  0  0  0  0  0
   -7.1670    6.8740   -3.5910 C   0  0  0  0  0  0  0  0  0  0  0  0
   -8.6420    6.4010   -3.5390 C   0  0  0  0  0  0  0  0  0  0  0  0
   -9.2390    7.1200   -2.3070 C   0  0  1  0  0  0  0  0  0  0  0  0
   -9.5860    8.5560   -2.8100 C   0  0  0  0  0  0  0  0  0  0  0  0
  -10.4700    6.4310   -1.6330 C   0  0  2  0  0  0  0  0  0  0  0  0
  -11.7170    6.3060   -2.5260 C   0  0  0  0  0  0  0  0  0  0  0  0
  -12.6720    7.4510   -2.4510 C   0  0  0  0  0  0  0  0  0  0  0  0
  -12.6840    8.3990   -1.4950 C   0  0  0  0  0  0  0  0  0  0  0  0
  -11.7290    8.3210   -0.2970 C   0  0  1  0  0  0  0  0  0  0  0  0
  -12.5160    8.5980    1.0110 C   0  0  0  0  0  0  0  0  0  0  0  0
  -13.2850    9.9150    0.9630 C   0  0  0  0  0  0  0  0  0  0  0  0
  -14.2660    9.9310   -0.2070 C   0  0  2  0  0  0  0  0  0  0  0  0
  -15.2850    8.9560    0.0320 O   0  0  0  0  0  0  0  0  0  0  0  0
  -13.5880    9.6530   -1.5780 C   0  0  0  0  0  0  0  0  0  0  0  0
  -12.7070   10.8630   -1.9780 C   0  0  0  0  0  0  0  0  0  0  0  0
  -14.7060    9.5570   -2.6520 C   0  0  0  0  0  0  0  0  0  0  0  0
  -10.8370    7.0090   -0.2060 C   0  0  1  0  0  0  0  0  0  0  0  0
  -11.6170    5.8860    0.5420 C   0  0  0  0  0  0  0  0  0  0  0  0
   -9.5590    7.3160    0.6610 C   0  0  0  0  0  0  0  0  0  0  0  0
   -8.3340    7.8830   -0.0820 C   0  0  0  0  0  0  0  0  0  0  0  0
   -8.0130    7.0490   -1.3260 C   0  0  2  0  0  0  0  0  0  0  0  0
   -7.6380    5.6040   -0.8490 C   0  0  0  0  0  0  0  0  0  0  0  0
   -5.0932    5.5397   -0.6144 H   0  0  0  0  0  0  0  0  0  0  0  0
   -5.9581    5.2813   -2.1674 H   0  0  0  0  0  0  0  0  0  0  0  0
   -4.1942    5.6207   -2.1674 H   0  0  0  0  0  0  0  0  0  0  0  0
   -4.7347    7.7727   -2.4860 H   0  0  0  0  0  0  0  0  0  0  0  0
   -6.1667    8.4963   -0.0877 H   0  0  0  0  0  0  0  0  0  0  0  0
   -4.8337    7.3036    0.2915 H   0  0  0  0  0  0  0  0  0  0  0  0
   -4.4649    9.8968   -1.2525 H   0  0  0  0  0  0  0  0  0  0  0  0
   -4.1122    9.6514    0.5091 H   0  0  0  0  0  0  0  0  0  0  0  0
   -3.2473    7.7609   -1.3091 H   0  0  0  0  0  0  0  0  0  0  0  0
   -1.7830   11.4066   -0.1873 H   0  0  0  0  0  0  0  0  0  0  0  0
   -0.8844   11.4391   -1.7424 H   0  0  0  0  0  0  0  0  0  0  0  0
   -2.6744   11.2891   -1.7424 H   0  0  0  0  0  0  0  0  0  0  0  0
    0.2591    8.5266   -1.2573 H   0  0  0  0  0  0  0  0  0  0  0  0
   -0.8764    8.1107   -2.5856 H   0  0  0  0  0  0  0  0  0  0  0  0
   -0.0372    9.6989   -2.5856 H   0  0  0  0  0  0  0  0  0  0  0  0
   -6.8836    8.6675   -2.2639 H   0  0  0  0  0  0  0  0  0  0  0  0
   -7.0261    7.5845   -4.4188 H   0  0  0  0  0  0  0  0  0  0  0  0
   -6.4861    6.0262   -3.7576 H   0  0  0  0  0  0  0  0  0  0  0  0
   -9.1759    6.6928   -4.4554 H   0  0  0  0  0  0  0  0  0  0  0  0
   -8.7268    5.3068   -3.4651 H   0  0  0  0  0  0  0  0  0  0  0  0
   -9.7460    9.2183   -1.9464 H   0  0  0  0  0  0  0  0  0  0  0  0
   -8.7553    8.9419   -3.4191 H   0  0  0  0  0  0  0  0  0  0  0  0
  -10.5013    8.5200   -3.4191 H   0  0  0  0  0  0  0  0  0  0  0  0
  -10.1087    5.4037   -1.4773 H   0  0  0  0  0  0  0  0  0  0  0  0
  -11.3802    6.2120   -3.5689 H   0  0  0  0  0  0  0  0  0  0  0  0
  -12.2668    5.4265   -2.1598 H   0  0  0  0  0  0  0  0  0  0  0  0
  -13.4303    7.5266   -3.2442 H   0  0  0  0  0  0  0  0  0  0  0  0
  -10.9778    9.1089   -0.4548 H   0  0  0  0  0  0  0  0  0  0  0  0
  -13.2309    7.7778    1.1728 H   0  0  0  0  0  0  0  0  0  0  0  0
  -11.7866    8.6668    1.8315 H   0  0  0  0  0  0  0  0  0  0  0  0
  -13.8430   10.0406    1.9026 H   0  0  0  0  0  0  0  0  0  0  0  0
  -12.5662   10.7370    0.8301 H   0  0  0  0  0  0  0  0  0  0  0  0
  -14.6918   10.9435   -0.2668 H   0  0  0  0  0  0  0  0  0  0  0  0
  -15.5430    8.5820   -0.8280 H   0  0  0  0  0  0  0  0  0  0  0  0
  -12.3409   11.3658   -1.0707 H   0  0  0  0  0  0  0  0  0  0  0  0
  -11.8512   10.5125   -2.5736 H   0  0  0  0  0  0  0  0  0  0  0  0
  -13.3034   11.5698   -2.5736 H   0  0  0  0  0  0  0  0  0  0  0  0
  -15.6844    9.4730   -2.1563 H   0  0  0  0  0  0  0  0  0  0  0  0
  -14.6895   10.4599   -3.2801 H   0  0  0  0  0  0  0  0  0  0  0  0
  -14.5358    8.6702   -3.2801 H   0  0  0  0  0  0  0  0  0  0  0  0
  -11.5166    6.0306    1.6278 H   0  0  0  0  0  0  0  0  0  0  0  0
  -12.6801    5.9298    0.2631 H   0  0  0  0  0  0  0  0  0  0  0  0
  -11.2048    4.9050    0.2631 H   0  0  0  0  0  0  0  0  0  0  0  0
   -9.8475    8.0457    1.4319 H   0  0  0  0  0  0  0  0  0  0  0  0
   -9.2333    6.3394    1.0487 H   0  0  0  0  0  0  0  0  0  0  0  0
   -8.5459    8.9182   -0.3876 H   0  0  0  0  0  0  0  0  0  0  0  0
   -7.4675    7.8511    0.5949 H   0  0  0  0  0  0  0  0  0  0  0  0
   -7.6296    5.5715    0.2505 H   0  0  0  0  0  0  0  0  0  0  0  0
   -8.3800    4.8876   -1.2313 H   0  0  0  0  0  0  0  0  0  0  0  0
   -6.6413    5.3388   -1.2313 H   0  0  0  0  0  0  0  0  0  0  0  0
  1  2  1  0
  2  3  1  0
  3  4  1  0
  4  5  1  0
  5  6  1  0
  6  7  1  0
  7  8  1  0
  7  9  1  0
  2 10  1  0
 10 11  1  0
 11 12  1  0
 12 13  1  0
 13 14  1  6
 13 15  1  0
 15 16  1  0
 16 17  1  0
 17 18  2  0
 18 19  1  0
 19 20  1  0
 20 21  1  0
 21 22  1  0
 22 23  1  0
 22 24  1  0
 24 25  1  0
 24 26  1  0
 19 27  1  0
 27 28  1  1
 27 29  1  0
 29 30  1  0
 30 31  1  0
 31 32  1  1
  7  5  1  0
 31 10  1  0
 31 13  1  0
 27 15  1  0
 24 18  1  0
  1 33  1  0
  1 34  1  0
  1 35  1  0
  2 36  1  6
  3 37  1  0
  3 38  1  0
  4 39  1  0
  4 40  1  0
  5 41  1  6
  8 42  1  0
  8 43  1  0
  8 44  1  0
  9 45  1  0
  9 46  1  0
  9 47  1  0
 10 48  1  6
 11 49  1  0
 11 50  1  0
 12 51  1  0
 12 52  1  0
 14 53  1  0
 14 54  1  0
 14 55  1  0
 15 56  1  1
 16 57  1  0
 16 58  1  0
 17 59  1  0
 19 60  1  6
 20 61  1  0
 20 62  1  0
 21 63  1  0
 21 64  1  0
 22 65  1  6
 23 66  1  0
 25 67  1  0
 25 68  1  0
 25 69  1  0
 26 70  1  0
 26 71  1  0
 26 72  1  0
 28 73  1  0
 28 74  1  0
 28 75  1  0
 29 76  1  0
 29 77  1  0
 30 78  1  0
 30 79  1  0
 32 80  1  0
 32 81  1  0
 32 82  1  0
M  END
>  <meeko>  (1) 
{"is_sidechain": [false], "intermolecular_energy": 2.731, "internal_energy": -0.839}

$$$$
EPH_relaxed_0001_pdb2pqr_Repair_265_r2_0001_out
     RDKit          3D

 82 86  0  0  0  0  0  0  0  0999 V2000
   -5.0080    8.5700   -0.5110 C   0  0  0  0  0  0  0  0  0  0  0  0
   -5.3450    7.4720   -1.5240 C   0  0  2  0  0  0  0  0  0  0  0  0
   -4.3430    7.4350   -2.6940 C   0  0  0  0  0  0  0  0  0  0  0  0
   -2.9130    7.0870   -2.2700 C   0  0  0  0  0  0  0  0  0  0  0  0
   -1.9330    8.1300   -2.7140 C   0  0  2  0  0  0  0  0  0  0  0  0
   -0.5820    7.9000   -2.2930 O   0  0  0  0  0  0  0  0  0  0  0  0
   -1.2220    9.0710   -1.7590 C   0  0  0  0  0  0  0  0  0  0  0  0
   -1.4630    9.0120   -0.2830 C   0  0  0  0  0  0  0  0  0  0  0  0
   -0.6740   10.3560   -2.2960 C   0  0  0  0  0  0  0  0  0  0  0  0
   -6.7600    7.6720   -2.0560 C   0  0  1  0  0  0  0  0  0  0  0  0
   -6.9860    6.9820   -3.4270 C   0  0  0  0  0  0  0  0  0  0  0  0
   -8.4520    6.4770   -3.4370 C   0  0  0  0  0  0  0  0  0  0  0  0
   -9.1130    7.1760   -2.2270 C   0  0  1  0  0  0  0  0  0  0  0  0
   -9.4700    8.6080   -2.7360 C   0  0  0  0  0  0  0  0  0  0  0  0
  -10.3560    6.4580   -1.6080 C   0  0  2  0  0  0  0  0  0  0  0  0
  -11.5630    6.3130   -2.5520 C   0  0  0  0  0  0  0  0  0  0  0  0
  -12.5440    7.4380   -2.5100 C   0  0  0  0  0  0  0  0  0  0  0  0
  -12.6140    8.3790   -1.5500 C   0  0  0  0  0  0  0  0  0  0  0  0
  -11.7080    8.3120   -0.3140 C   0  0  1  0  0  0  0  0  0  0  0  0
  -12.5530    8.5650    0.9620 C   0  0  0  0  0  0  0  0  0  0  0  0
  -13.3470    9.8650    0.8900 C   0  0  0  0  0  0  0  0  0  0  0  0
  -14.2790    9.8690   -0.3190 C   0  0  2  0  0  0  0  0  0  0  0  0
  -15.2870    8.8710   -0.1270 O   0  0  0  0  0  0  0  0  0  0  0  0
  -13.5400    9.6150   -1.6620 C   0  0  0  0  0  0  0  0  0  0  0  0
  -12.6690   10.8440   -2.0180 C   0  0  0  0  0  0  0  0  0  0  0  0
  -14.6110    9.5030   -2.7820 C   0  0  0  0  0  0  0  0  0  0  0  0
  -10.7930    7.0180   -0.1940 C   0  0  1  0  0  0  0  0  0  0  0  0
  -11.5790    5.8740    0.5150 C   0  0  0  0  0  0  0  0  0  0  0  0
   -9.5580    7.3450    0.7260 C   0  0  0  0  0  0  0  0  0  0  0  0
   -8.3160    7.9430    0.0370 C   0  0  0  0  0  0  0  0  0  0  0  0
   -7.9270    7.1240   -1.1970 C   0  0  2  0  0  0  0  0  0  0  0  0
   -7.5410    5.6840   -0.7130 C   0  0  0  0  0  0  0  0  0  0  0  0
   -5.1286    8.1771    0.5093 H   0  0  0  0  0  0  0  0  0  0  0  0
   -3.9681    8.8973   -0.6574 H   0  0  0  0  0  0  0  0  0  0  0  0
   -5.6853    9.4243   -0.6574 H   0  0  0  0  0  0  0  0  0  0  0  0
   -5.2775    6.5068   -1.0008 H   0  0  0  0  0  0  0  0  0  0  0  0
   -4.6834    6.6809   -3.4189 H   0  0  0  0  0  0  0  0  0  0  0  0
   -4.3133    8.4472   -3.1236 H   0  0  0  0  0  0  0  0  0  0  0  0
   -2.8759    7.0070   -1.1735 H   0  0  0  0  0  0  0  0  0  0  0  0
   -2.6373    6.1338   -2.7448 H   0  0  0  0  0  0  0  0  0  0  0  0
   -2.5054    8.3088   -3.6361 H   0  0  0  0  0  0  0  0  0  0  0  0
   -0.5286    9.2407    0.2505 H   0  0  0  0  0  0  0  0  0  0  0  0
   -2.2323    9.7483   -0.0074 H   0  0  0  0  0  0  0  0  0  0  0  0
   -1.8052    8.0036   -0.0074 H   0  0  0  0  0  0  0  0  0  0  0  0
   -0.3938   11.0131   -1.4595 H   0  0  0  0  0  0  0  0  0  0  0  0
    0.2134   10.1474   -2.9116 H   0  0  0  0  0  0  0  0  0  0  0  0
   -1.4389   10.8520   -2.9116 H   0  0  0  0  0  0  0  0  0  0  0  0
   -6.7943    8.7712   -2.0792 H   0  0  0  0  0  0  0  0  0  0  0  0
   -6.8275    7.7014   -4.2439 H   0  0  0  0  0  0  0  0  0  0  0  0
   -6.2807    6.1504   -3.5718 H   0  0  0  0  0  0  0  0  0  0  0  0
   -8.9548    6.7625   -4.3728 H   0  0  0  0  0  0  0  0  0  0  0  0
   -8.5162    5.3808   -3.3720 H   0  0  0  0  0  0  0  0  0  0  0  0
   -9.6356    9.2724   -1.8751 H   0  0  0  0  0  0  0  0  0  0  0  0
   -8.6415    8.9975   -3.3458 H   0  0  0  0  0  0  0  0  0  0  0  0
  -10.3844    8.5630   -3.3458 H   0  0  0  0  0  0  0  0  0  0  0  0
   -9.9796    5.4375   -1.4438 H   0  0  0  0  0  0  0  0  0  0  0  0
  -11.1822    6.2323   -3.5808 H   0  0  0  0  0  0  0  0  0  0  0  0
  -12.1090    5.4202   -2.2132 H   0  0  0  0  0  0  0  0  0  0  0  0
  -13.2708    7.5033   -3.3331 H   0  0  0  0  0  0  0  0  0  0  0  0
  -10.9672    9.1159   -0.4362 H   0  0  0  0  0  0  0  0  0  0  0  0
  -13.2563    7.7290    1.0905 H   0  0  0  0  0  0  0  0  0  0  0  0
  -11.8588    8.6447    1.8115 H   0  0  0  0  0  0  0  0  0  0  0  0
  -13.9458    9.9723    1.8065 H   0  0  0  0  0  0  0  0  0  0  0  0
  -12.6408   10.7026    0.7916 H   0  0  0  0  0  0  0  0  0  0  0  0
  -14.7231   10.8728   -0.3908 H   0  0  0  0  0  0  0  0  0  0  0  0
  -15.3040    8.6490    0.8190 H   0  0  0  0  0  0  0  0  0  0  0  0
  -12.3247   11.3297   -1.0930 H   0  0  0  0  0  0  0  0  0  0  0  0
  -11.7988   10.5185   -2.6070 H   0  0  0  0  0  0  0  0  0  0  0  0
  -13.2644   11.5572   -2.6070 H   0  0  0  0  0  0  0  0  0  0  0  0
  -15.6073    9.3988   -2.3275 H   0  0  0  0  0  0  0  0  0  0  0  0
  -14.5854   10.4087   -3.4057 H   0  0  0  0  0  0  0  0  0  0  0  0
  -14.3986    8.6222   -3.4057 H   0  0  0  0  0  0  0  0  0  0  0  0
  -11.4968    5.9937    1.6054 H   0  0  0  0  0  0  0  0  0  0  0  0
  -12.6377    5.9191    0.2200 H   0  0  0  0  0  0  0  0  0  0  0  0
  -11.1572    4.9018    0.2200 H   0  0  0  0  0  0  0  0  0  0  0  0
   -9.8928    8.0628    1.4894 H   0  0  0  0  0  0  0  0  0  0  0  0
   -9.2277    6.3726    1.1201 H   0  0  0  0  0  0  0  0  0  0  0  0
   -8.5375    8.9754   -0.2713 H   0  0  0  0  0  0  0  0  0  0  0  0
   -7.4773    7.9256    0.7486 H   0  0  0  0  0  0  0  0  0  0  0  0
   -7.5336    5.6565    0.3866 H   0  0  0  0  0  0  0  0  0  0  0  0
   -8.2768    4.9599   -1.0930 H   0  0  0  0  0  0  0  0  0  0  0  0
   -6.5417    5.4250   -1.0930 H   0  0  0  0  0  0  0  0  0  0  0  0
  1  2  1  0
  2  3  1  0
  3  4  1  0
  4  5  1  0
  5  6  1  0
  6  7  1  0
  7  8  1  0
  7  9  1  0
  2 10  1  0
 10 11  1  0
 11 12  1  0
 12 13  1  0
 13 14  1  6
 13 15  1  0
 15 16  1  0
 16 17  1  0
 17 18  2  0
 18 19  1  0
 19 20  1  0
 20 21  1  0
 21 22  1  0
 22 23  1  0
 22 24  1  0
 24 25  1  0
 24 26  1  0
 19 27  1  0
 27 28  1  1
 27 29  1  0
 29 30  1  0
 30 31  1  0
 31 32  1  1
  7  5  1  0
 31 10  1  0
 31 13  1  0
 27 15  1  0
 24 18  1  0
  1 33  1  0
  1 34  1  0
  1 35  1  0
  2 36  1  1
  3 37  1  0
  3 38  1  0
  4 39  1  0
  4 40  1  0
  5 41  1  6
  8 42  1  0
  8 43  1  0
  8 44  1  0
  9 45  1  0
  9 46  1  0
  9 47  1  0
 10 48  1  6
 11 49  1  0
 11 50  1  0
 12 51  1  0
 12 52  1  0
 14 53  1  0
 14 54  1  0
 14 55  1  0
 15 56  1  1
 16 57  1  0
 16 58  1  0
 17 59  1  0
 19 60  1  6
 20 61  1  0
 20 62  1  0
 21 63  1  0
 21 64  1  0
 22 65  1  6
 23 66  1  0
 25 67  1  0
 25 68  1  0
 25 69  1  0
 26 70  1  0
 26 71  1  0
 26 72  1  0
 28 73  1  0
 28 74  1  0
 28 75  1  0
 29 76  1  0
 29 77  1  0
 30 78  1  0
 30 79  1  0
 32 80  1  0
 32 81  1  0
 32 82  1  0
M  END
>  <meeko>  (2) 
{"is_sidechain": [false], "intermolecular_energy": 2.731, "internal_energy": -0.839}

$$$$
EPH_relaxed_0001_pdb2pqr_Repair_265_r2_0001_out
     RDKit          3D

 82 86  0  0  0  0  0  0  0  0999 V2000
   -4.5230    7.6580   -4.2370 C   0  0  0  0  0  0  0  0  0  0  0  0
   -3.7870    7.0540   -3.0380 C   0  0  2  0  0  0  0  0  0  0  0  0
   -4.6530    6.0270   -2.2820 C   0  0  0  0  0  0  0  0  0  0  0  0
   -6.1300    6.0520   -2.6850 C   0  0  0  0  0  0  0  0  0  0  0  0
   -7.0310    6.0870   -1.4870 C   0  0  2  0  0  0  0  0  0  0  0  0
   -8.3080    5.4660   -1.6810 O   0  0  0  0  0  0  0  0  0  0  0  0
   -8.3220    6.8810   -1.4350 C   0  0  0  0  0  0  0  0  0  0  0  0
   -8.7840    7.6970   -2.6020 C   0  0  0  0  0  0  0  0  0  0  0  0
   -8.8790    7.2550   -0.0970 C   0  0  0  0  0  0  0  0  0  0  0  0
   -3.3440    8.1620   -2.0890 C   0  0  1  0  0  0  0  0  0  0  0  0
   -3.8130    7.9210   -0.6300 C   0  0  0  0  0  0  0  0  0  0  0  0
   -2.6960    8.4670    0.2960 C   0  0  0  0  0  0  0  0  0  0  0  0
   -1.7840    9.2940   -0.6400 C   0  0  1  0  0  0  0  0  0  0  0  0
   -2.5050   10.6700   -0.7900 C   0  0  0  0  0  0  0  0  0  0  0  0
   -0.2990    9.4680   -0.1820 C   0  0  2  0  0  0  0  0  0  0  0  0
   -0.1100   10.2230    1.1450 C   0  0  0  0  0  0  0  0  0  0  0  0
    0.0500   11.7020    1.0200 C   0  0  0  0  0  0  0  0  0  0  0  0
    0.3270   12.3660   -0.1180 C   0  0  0  0  0  0  0  0  0  0  0  0
    0.6060   11.6090   -1.4230 C   0  0  1  0  0  0  0  0  0  0  0  0
    1.8650   12.2040   -2.1070 C   0  0  0  0  0  0  0  0  0  0  0  0
    1.7590   13.7110   -2.3180 C   0  0  0  0  0  0  0  0  0  0  0  0
    1.5390   14.4330   -0.9910 C   0  0  2  0  0  0  0  0  0  0  0  0
    2.7150   14.2890   -0.1880 O   0  0  0  0  0  0  0  0  0  0  0  0
    0.3030   13.9120   -0.2070 C   0  0  0  0  0  0  0  0  0  0  0  0
   -0.9940   14.3370   -0.9370 C   0  0  0  0  0  0  0  0  0  0  0  0
    0.2780   14.6240    1.1730 C   0  0  0  0  0  0  0  0  0  0  0  0
    0.6650   10.0250   -1.3060 C   0  0  1  0  0  0  0  0  0  0  0  0
    2.1070    9.5740   -0.9190 C   0  0  0  0  0  0  0  0  0  0  0  0
    0.3660    9.3940   -2.7170 C   0  0  0  0  0  0  0  0  0  0  0  0
   -1.1130    9.1360   -3.0640 C   0  0  0  0  0  0  0  0  0  0  0  0
   -1.8200    8.3920   -1.9270 C   0  0  2  0  0  0  0  0  0  0  0  0
   -1.1300    6.9940   -1.7680 C   0  0  0  0  0  0  0  0  0  0  0  0
   -5.3271    8.3179   -3.8792 H   0  0  0  0  0  0  0  0  0  0  0  0
   -3.8156    8.2393   -4.8466 H   0  0  0  0  0  0  0  0  0  0  0  0
   -4.9551    6.8508   -4.8466 H   0  0  0  0  0  0  0  0  0  0  0  0
   -2.9059    6.5208   -3.4244 H   0  0  0  0  0  0  0  0  0  0  0  0
   -4.2549    5.0216   -2.4837 H   0  0  0  0  0  0  0  0  0  0  0  0
   -4.6064    6.2905   -1.2151 H   0  0  0  0  0  0  0  0  0  0  0  0
   -6.3172    6.9459   -3.2981 H   0  0  0  0  0  0  0  0  0  0  0  0
   -6.3468    5.1338   -3.2505 H   0  0  0  0  0  0  0  0  0  0  0  0
   -6.1682    6.0364   -0.8066 H   0  0  0  0  0  0  0  0  0  0  0  0
   -9.2955    8.6004   -2.2382 H   0  0  0  0  0  0  0  0  0  0  0  0
   -7.9164    7.9876   -3.2126 H   0  0  0  0  0  0  0  0  0  0  0  0
   -9.4796    7.1026   -3.2126 H   0  0  0  0  0  0  0  0  0  0  0  0
   -8.2458    6.8298    0.6956 H   0  0  0  0  0  0  0  0  0  0  0  0
   -8.8996    8.3507   -0.0017 H   0  0  0  0  0  0  0  0  0  0  0  0
   -9.9010    6.8594   -0.0017 H   0  0  0  0  0  0  0  0  0  0  0  0
   -3.8047    9.0276   -2.5875 H   0  0  0  0  0  0  0  0  0  0  0  0
   -4.7557    8.4559   -0.4421 H   0  0  0  0  0  0  0  0  0  0  0  0
   -3.9915    6.8515   -0.4446 H   0  0  0  0  0  0  0  0  0  0  0  0
   -3.1223    9.1038    1.0851 H   0  0  0  0  0  0  0  0  0  0  0  0
   -2.1483    7.6625    0.8086 H   0  0  0  0  0  0  0  0  0  0  0  0
   -2.7207   11.0816    0.2070 H   0  0  0  0  0  0  0  0  0  0  0  0
   -1.8557   11.3660   -1.3414 H   0  0  0  0  0  0  0  0  0  0  0  0
   -3.4468   10.5323   -1.3414 H   0  0  0  0  0  0  0  0  0  0  0  0
    0.0092    8.4311    0.0175 H   0  0  0  0  0  0  0  0  0  0  0  0
   -0.9904   10.0284    1.7751 H   0  0  0  0  0  0  0  0  0  0  0  0
    0.8311    9.8504    1.5757 H   0  0  0  0  0  0  0  0  0  0  0  0
   -0.0685   12.3001    1.9355 H   0  0  0  0  0  0  0  0  0  0  0  0
   -0.2754   11.7672   -2.0619 H   0  0  0  0  0  0  0  0  0  0  0  0
    2.7409   11.9973   -1.4745 H   0  0  0  0  0  0  0  0  0  0  0  0
    1.9606   11.7342   -3.0970 H   0  0  0  0  0  0  0  0  0  0  0  0
    2.6894   14.0767   -2.7770 H   0  0  0  0  0  0  0  0  0  0  0  0
    0.9006   13.9142   -2.9751 H   0  0  0  0  0  0  0  0  0  0  0  0
    1.3409   15.4906   -1.2196 H   0  0  0  0  0  0  0  0  0  0  0  0
    3.4610   14.1160   -0.7870 H   0  0  0  0  0  0  0  0  0  0  0  0
   -1.7661   14.5900   -0.1954 H   0  0  0  0  0  0  0  0  0  0  0  0
   -0.7892   15.2150   -1.5672 H   0  0  0  0  0  0  0  0  0  0  0  0
   -1.3485   13.5080   -1.5672 H   0  0  0  0  0  0  0  0  0  0  0  0
    0.3044   13.8711    1.9746 H   0  0  0  0  0  0  0  0  0  0  0  0
    1.1535   15.2841    1.2609 H   0  0  0  0  0  0  0  0  0  0  0  0
   -0.6417   15.2211    1.2609 H   0  0  0  0  0  0  0  0  0  0  0  0
    2.2004    9.5448    0.1766 H   0  0  0  0  0  0  0  0  0  0  0  0
    2.3007    8.5724   -1.3303 H   0  0  0  0  0  0  0  0  0  0  0  0
    2.8369   10.2868   -1.3303 H   0  0  0  0  0  0  0  0  0  0  0  0
    0.7725   10.0753   -3.4790 H   0  0  0  0  0  0  0  0  0  0  0  0
    0.8333    8.3985   -2.6917 H   0  0  0  0  0  0  0  0  0  0  0  0
   -1.6168   10.0993   -3.2319 H   0  0  0  0  0  0  0  0  0  0  0  0
   -1.1578    8.5154   -3.9711 H   0  0  0  0  0  0  0  0  0  0  0  0
   -1.0151    6.7613   -0.6991 H   0  0  0  0  0  0  0  0  0  0  0  0
   -1.7507    6.2222   -2.2467 H   0  0  0  0  0  0  0  0  0  0  0  0
   -0.1399    7.0172   -2.2467 H   0  0  0  0  0  0  0  0  0  0  0  0
  1  2  1  0
  2  3  1  0
  3  4  1  0
  4  5  1  0
  5  6  1  0
  6  7  1  0
  7  8  1  0
  7  9  1  0
  2 10  1  0
 10 11  1  0
 11 12  1  0
 12 13  1  0
 13 14  1  6
 13 15  1  0
 15 16  1  0
 16 17  1  0
 17 18  2  0
 18 19  1  0
 19 20  1  0
 20 21  1  0
 21 22  1  0
 22 23  1  0
 22 24  1  0
 24 25  1  0
 24 26  1  0
 19 27  1  0
 27 28  1  1
 27 29  1  0
 29 30  1  0
 30 31  1  0
 31 32  1  1
  7  5  1  0
 31 10  1  0
 31 13  1  0
 27 15  1  0
 24 18  1  0
  1 33  1  0
  1 34  1  0
  1 35  1  0
  2 36  1  6
  3 37  1  0
  3 38  1  0
  4 39  1  0
  4 40  1  0
  5 41  1  1
  8 42  1  0
  8 43  1  0
  8 44  1  0
  9 45  1  0
  9 46  1  0
  9 47  1  0
 10 48  1  6
 11 49  1  0
 11 50  1  0
 12 51  1  0
 12 52  1  0
 14 53  1  0
 14 54  1  0
 14 55  1  0
 15 56  1  1
 16 57  1  0
 16 58  1  0
 17 59  1  0
 19 60  1  6
 20 61  1  0
 20 62  1  0
 21 63  1  0
 21 64  1  0
 22 65  1  6
 23 66  1  0
 25 67  1  0
 25 68  1  0
 25 69  1  0
 26 70  1  0
 26 71  1  0
 26 72  1  0
 28 73  1  0
 28 74  1  0
 28 75  1  0
 29 76  1  0
 29 77  1  0
 30 78  1  0
 30 79  1  0
 32 80  1  0
 32 81  1  0
 32 82  1  0
M  END
>  <meeko>  (3) 
{"is_sidechain": [false], "intermolecular_energy": 2.731, "internal_energy": -0.839}

$$$$
EPH_relaxed_0001_pdb2pqr_Repair_265_r2_0001_out
     RDKit          3D

 82 86  0  0  0  0  0  0  0  0999 V2000
   -2.5430    7.9050    0.0300 C   0  0  0  0  0  0  0  0  0  0  0  0
   -3.2280    9.2690   -0.0970 C   0  0  2  0  0  0  0  0  0  0  0  0
   -4.6700    9.1470   -0.6290 C   0  0  0  0  0  0  0  0  0  0  0  0
   -5.2060    7.7130   -0.6310 C   0  0  0  0  0  0  0  0  0  0  0  0
   -5.9560    7.4040   -1.8910 C   0  0  2  0  0  0  0  0  0  0  0  0
   -6.9070    8.4020   -2.2820 O   0  0  0  0  0  0  0  0  0  0  0  0
   -7.4460    7.1180   -1.9290 C   0  0  0  0  0  0  0  0  0  0  0  0
   -8.2740    7.1270   -0.6820 C   0  0  0  0  0  0  0  0  0  0  0  0
   -7.9990    6.3560   -3.0930 C   0  0  0  0  0  0  0  0  0  0  0  0
   -2.4110   10.1780   -1.0080 C   0  0  1  0  0  0  0  0  0  0  0  0
   -2.9940   11.6130   -1.0980 C   0  0  0  0  0  0  0  0  0  0  0  0
   -1.7870   12.5790   -1.2250 C   0  0  0  0  0  0  0  0  0  0  0  0
   -0.5840   11.6590   -1.5370 C   0  0  1  0  0  0  0  0  0  0  0  0
   -0.6810   11.3770   -3.0700 C   0  0  0  0  0  0  0  0  0  0  0  0
    0.8260   12.2070   -1.1400 C   0  0  2  0  0  0  0  0  0  0  0  0
    1.2530   13.4960   -1.8630 C   0  0  0  0  0  0  0  0  0  0  0  0
    2.0020   13.2930   -3.1390 C   0  0  0  0  0  0  0  0  0  0  0  0
    2.5670   12.1390   -3.5390 C   0  0  0  0  0  0  0  0  0  0  0  0
    2.5660   10.9040   -2.6290 C   0  0  1  0  0  0  0  0  0  0  0  0
    3.9830   10.2730   -2.6110 C   0  0  0  0  0  0  0  0  0  0  0  0
    4.5030    9.9650   -4.0120 C   0  0  0  0  0  0  0  0  0  0  0  0
    4.5440   11.2280   -4.8680 C   0  0  2  0  0  0  0  0  0  0  0  0
    5.5300   12.1160   -4.3330 O   0  0  0  0  0  0  0  0  0  0  0  0
    3.1740   11.9560   -4.9520 C   0  0  0  0  0  0  0  0  0  0  0  0
    2.1880   11.1140   -5.7990 C   0  0  0  0  0  0  0  0  0  0  0  0
    3.3860   13.2850   -5.7260 C   0  0  0  0  0  0  0  0  0  0  0  0
    1.9760   11.1200   -1.1690 C   0  0  1  0  0  0  0  0  0  0  0  0
    3.0960   11.6300   -0.2120 C   0  0  0  0  0  0  0  0  0  0  0  0
    1.5010    9.7320   -0.5960 C   0  0  0  0  0  0  0  0  0  0  0  0
    0.0590    9.3010   -0.9240 C   0  0  0  0  0  0  0  0  0  0  0  0
   -0.9320   10.4290   -0.6220 C   0  0  2  0  0  0  0  0  0  0  0  0
   -0.8730   10.7190    0.9160 C   0  0  0  0  0  0  0  0  0  0  0  0
   -2.4176    7.6553    1.0939 H   0  0  0  0  0  0  0  0  0  0  0  0
   -3.1623    7.1370   -0.4564 H   0  0  0  0  0  0  0  0  0  0  0  0
   -1.5571    7.9431   -0.4564 H   0  0  0  0  0  0  0  0  0  0  0  0
   -3.2842    9.7066    0.9106 H   0  0  0  0  0  0  0  0  0  0  0  0
   -5.3267    9.7623    0.0035 H   0  0  0  0  0  0  0  0  0  0  0  0
   -4.6564    9.4866   -1.6752 H   0  0  0  0  0  0  0  0  0  0  0  0
   -4.3600    7.0160   -0.5396 H   0  0  0  0  0  0  0  0  0  0  0  0
   -5.8991    7.6045    0.2163 H   0  0  0  0  0  0  0  0  0  0  0  0
   -5.0902    6.8639   -2.3016 H   0  0  0  0  0  0  0  0  0  0  0  0
   -7.6129    7.1198    0.1972 H   0  0  0  0  0  0  0  0  0  0  0  0
   -8.8990    8.0320   -0.6634 H   0  0  0  0  0  0  0  0  0  0  0  0
   -8.9185    6.2358   -0.6634 H   0  0  0  0  0  0  0  0  0  0  0  0
   -8.6080    5.5168   -2.7259 H   0  0  0  0  0  0  0  0  0  0  0  0
   -8.6245    7.0232   -3.7042 H   0  0  0  0  0  0  0  0  0  0  0  0
   -7.1707    5.9681   -3.7042 H   0  0  0  0  0  0  0  0  0  0  0  0
   -2.4620    9.5977   -1.9411 H   0  0  0  0  0  0  0  0  0  0  0  0
   -3.6454   11.7026   -1.9798 H   0  0  0  0  0  0  0  0  0  0  0  0
   -3.5982   11.8503   -0.2100 H   0  0  0  0  0  0  0  0  0  0  0  0
   -1.9487   13.2976   -2.0420 H   0  0  0  0  0  0  0  0  0  0  0  0
   -1.6315   13.1753   -0.3138 H   0  0  0  0  0  0  0  0  0  0  0  0
   -1.0349   10.3481   -3.2319 H   0  0  0  0  0  0  0  0  0  0  0  0
   -1.3875   12.0843   -3.5289 H   0  0  0  0  0  0  0  0  0  0  0  0
    0.3111   11.5000   -3.5289 H   0  0  0  0  0  0  0  0  0  0  0  0
    0.6804   12.4898   -0.0870 H   0  0  0  0  0  0  0  0  0  0  0  0
    0.3457   14.0751   -2.0898 H   0  0  0  0  0  0  0  0  0  0  0  0
    1.9459   14.0119   -1.1820 H   0  0  0  0  0  0  0  0  0  0  0  0
    2.1002   14.1602   -3.8086 H   0  0  0  0  0  0  0  0  0  0  0  0
    1.8489   10.1985   -3.0740 H   0  0  0  0  0  0  0  0  0  0  0  0
    4.6757   10.9751   -2.1240 H   0  0  0  0  0  0  0  0  0  0  0  0
    3.9186    9.3221   -2.0617 H   0  0  0  0  0  0  0  0  0  0  0  0
    5.5183    9.5486   -3.9358 H   0  0  0  0  0  0  0  0  0  0  0  0
    3.8250    9.2406   -4.4870 H   0  0  0  0  0  0  0  0  0  0  0  0
    4.7996   10.9232   -5.8936 H   0  0  0  0  0  0  0  0  0  0  0  0
    6.0070   12.5120   -5.0810 H   0  0  0  0  0  0  0  0  0  0  0  0
    1.5232   10.5463   -5.1313 H   0  0  0  0  0  0  0  0  0  0  0  0
    1.5870   11.7818   -6.4337 H   0  0  0  0  0  0  0  0  0  0  0  0
    2.7535   10.4158   -6.4337 H   0  0  0  0  0  0  0  0  0  0  0  0
    3.5175   14.1095   -5.0098 H   0  0  0  0  0  0  0  0  0  0  0  0
    4.2823   13.2021   -6.3583 H   0  0  0  0  0  0  0  0  0  0  0  0
    2.5084   13.4851   -6.3583 H   0  0  0  0  0  0  0  0  0  0  0  0
    2.7800   11.4861    0.8318 H   0  0  0  0  0  0  0  0  0  0  0  0
    4.0213   11.0645   -0.3963 H   0  0  0  0  0  0  0  0  0  0  0  0
    3.2769   12.6993   -0.3963 H   0  0  0  0  0  0  0  0  0  0  0  0
    2.1771    8.9598   -0.9918 H   0  0  0  0  0  0  0  0  0  0  0  0
    1.5242    9.8493    0.4975 H   0  0  0  0  0  0  0  0  0  0  0  0
   -0.0052    9.0416   -1.9910 H   0  0  0  0  0  0  0  0  0  0  0  0
   -0.1979    8.4319   -0.3005 H   0  0  0  0  0  0  0  0  0  0  0  0
   -1.0622    9.7889    1.4720 H   0  0  0  0  0  0  0  0  0  0  0  0
    0.1224   11.1068    1.1781 H   0  0  0  0  0  0  0  0  0  0  0  0
   -1.6378   11.4649    1.1781 H   0  0  0  0  0  0  0  0  0  0  0  0
  1  2  1  0
  2  3  1  0
  3  4  1  0
  4  5  1  0
  5  6  1  0
  6  7  1  0
  7  8  1  0
  7  9  1  0
  2 10  1  0
 10 11  1  0
 11 12  1  0
 12 13  1  0
 13 14  1  6
 13 15  1  0
 15 16  1  0
 16 17  1  0
 17 18  2  0
 18 19  1  0
 19 20  1  0
 20 21  1  0
 21 22  1  0
 22 23  1  0
 22 24  1  0
 24 25  1  0
 24 26  1  0
 19 27  1  0
 27 28  1  1
 27 29  1  0
 29 30  1  0
 30 31  1  0
 31 32  1  1
  7  5  1  0
 31 10  1  0
 31 13  1  0
 27 15  1  0
 24 18  1  0
  1 33  1  0
  1 34  1  0
  1 35  1  0
  2 36  1  1
  3 37  1  0
  3 38  1  0
  4 39  1  0
  4 40  1  0
  5 41  1  6
  8 42  1  0
  8 43  1  0
  8 44  1  0
  9 45  1  0
  9 46  1  0
  9 47  1  0
 10 48  1  6
 11 49  1  0
 11 50  1  0
 12 51  1  0
 12 52  1  0
 14 53  1  0
 14 54  1  0
 14 55  1  0
 15 56  1  1
 16 57  1  0
 16 58  1  0
 17 59  1  0
 19 60  1  6
 20 61  1  0
 20 62  1  0
 21 63  1  0
 21 64  1  0
 22 65  1  6
 23 66  1  0
 25 67  1  0
 25 68  1  0
 25 69  1  0
 26 70  1  0
 26 71  1  0
 26 72  1  0
 28 73  1  0
 28 74  1  0
 28 75  1  0
 29 76  1  0
 29 77  1  0
 30 78  1  0
 30 79  1  0
 32 80  1  0
 32 81  1  0
 32 82  1  0
M  END
>  <meeko>  (4) 
{"is_sidechain": [false], "intermolecular_energy": 2.731, "internal_energy": -0.839}

$$$$
EPH_relaxed_0001_pdb2pqr_Repair_265_r2_0001_out
     RDKit          3D

 82 86  0  0  0  0  0  0  0  0999 V2000
   -4.7420    7.0180   -3.1450 C   0  0  0  0  0  0  0  0  0  0  0  0
   -4.8100    7.3370   -1.6490 C   0  0  2  0  0  0  0  0  0  0  0  0
   -6.2610    7.5030   -1.1560 C   0  0  0  0  0  0  0  0  0  0  0  0
   -7.1680    6.3190   -1.5000 C   0  0  0  0  0  0  0  0  0  0  0  0
   -8.4800    6.7720   -2.0660 C   0  0  2  0  0  0  0  0  0  0  0  0
   -8.7440    8.1730   -1.9180 O   0  0  0  0  0  0  0  0  0  0  0  0
   -9.6260    7.2840   -1.2150 C   0  0  0  0  0  0  0  0  0  0  0  0
   -9.5150    7.3680    0.2750 C   0  0  0  0  0  0  0  0  0  0  0  0
  -11.0120    7.2390   -1.7790 C   0  0  0  0  0  0  0  0  0  0  0  0
   -4.0100    8.5990   -1.3500 C   0  0  1  0  0  0  0  0  0  0  0  0
   -4.5400    9.3620   -0.1070 C   0  0  0  0  0  0  0  0  0  0  0  0
   -3.3050    9.9800    0.5990 C   0  0  0  0  0  0  0  0  0  0  0  0
   -2.1570    9.8370   -0.4280 C   0  0  1  0  0  0  0  0  0  0  0  0
   -2.3490   11.0330   -1.4130 C   0  0  0  0  0  0  0  0  0  0  0  0
   -0.7080    9.7990    0.1570 C   0  0  2  0  0  0  0  0  0  0  0  0
   -0.2710   11.0720    0.9030 C   0  0  0  0  0  0  0  0  0  0  0  0
    0.3980   12.1070    0.0600 C   0  0  0  0  0  0  0  0  0  0  0  0
    0.8950   11.9080   -1.1750 C   0  0  0  0  0  0  0  0  0  0  0  0
    0.8960   10.5100   -1.8080 C   0  0  1  0  0  0  0  0  0  0  0  0
    2.2860   10.2270   -2.4350 C   0  0  0  0  0  0  0  0  0  0  0  0
    2.7170   11.3130   -3.4170 C   0  0  0  0  0  0  0  0  0  0  0  0
    2.7600   12.6780   -2.7360 C   0  0  2  0  0  0  0  0  0  0  0  0
    3.8070   12.6740   -1.7600 O   0  0  0  0  0  0  0  0  0  0  0  0
    1.4160   13.0680   -2.0590 C   0  0  0  0  0  0  0  0  0  0  0  0
    0.3530   13.3670   -3.1450 C   0  0  0  0  0  0  0  0  0  0  0  0
    1.6370   14.3980   -1.2900 C   0  0  0  0  0  0  0  0  0  0  0  0
    0.3950    9.3260   -0.8740 C   0  0  1  0  0  0  0  0  0  0  0  0
    1.5850    8.7740   -0.0310 C   0  0  0  0  0  0  0  0  0  0  0  0
   -0.1010    8.1350   -1.7760 C   0  0  0  0  0  0  0  0  0  0  0  0
   -1.5750    8.1680   -2.2230 C   0  0  0  0  0  0  0  0  0  0  0  0
   -2.5030    8.4280   -1.0330 C   0  0  2  0  0  0  0  0  0  0  0  0
   -2.3480    7.2300   -0.0350 C   0  0  0  0  0  0  0  0  0  0  0  0
   -4.5145    5.9506   -3.2823 H   0  0  0  0  0  0  0  0  0  0  0  0
   -5.7098    7.2499   -3.6137 H   0  0  0  0  0  0  0  0  0  0  0  0
   -3.9529    7.6244   -3.6137 H   0  0  0  0  0  0  0  0  0  0  0  0
   -4.3739    6.4840   -1.1085 H   0  0  0  0  0  0  0  0  0  0  0  0
   -6.2446    7.6215   -0.0625 H   0  0  0  0  0  0  0  0  0  0  0  0
   -6.6752    8.3841   -1.6680 H   0  0  0  0  0  0  0  0  0  0  0  0
   -6.6601    5.6844   -2.2411 H   0  0  0  0  0  0  0  0  0  0  0  0
   -7.3686    5.7602   -0.5740 H   0  0  0  0  0  0  0  0  0  0  0  0
   -8.4311    6.0061   -2.8540 H   0  0  0  0  0  0  0  0  0  0  0  0
  -10.3112    6.7655    0.7365 H   0  0  0  0  0  0  0  0  0  0  0  0
   -8.5341    6.9840    0.5918 H   0  0  0  0  0  0  0  0  0  0  0  0
   -9.6181    8.4163    0.5918 H   0  0  0  0  0  0  0  0  0  0  0  0
  -11.7420    7.2153   -0.9565 H   0  0  0  0  0  0  0  0  0  0  0  0
  -11.1854    8.1320   -2.3975 H   0  0  0  0  0  0  0  0  0  0  0  0
  -11.1271    6.3366   -2.3975 H   0  0  0  0  0  0  0  0  0  0  0  0
   -4.1354    9.1272   -2.3067 H   0  0  0  0  0  0  0  0  0  0  0  0
   -5.2352   10.1558   -0.4178 H   0  0  0  0  0  0  0  0  0  0  0  0
   -5.0841    8.6860    0.5690 H   0  0  0  0  0  0  0  0  0  0  0  0
   -3.4833   11.0390    0.8373 H   0  0  0  0  0  0  0  0  0  0  0  0
   -3.0765    9.4815    1.5525 H   0  0  0  0  0  0  0  0  0  0  0  0
   -2.4978   11.9599   -0.8397 H   0  0  0  0  0  0  0  0  0  0  0  0
   -1.4554   11.1332   -2.0467 H   0  0  0  0  0  0  0  0  0  0  0  0
   -3.2290   10.8485   -2.0467 H   0  0  0  0  0  0  0  0  0  0  0  0
   -0.7848    9.0150    0.9247 H   0  0  0  0  0  0  0  0  0  0  0  0
   -1.1660   11.5265    1.3529 H   0  0  0  0  0  0  0  0  0  0  0  0
    0.4780   10.7501    1.6415 H   0  0  0  0  0  0  0  0  0  0  0  0
    0.4927   13.1175    0.4841 H   0  0  0  0  0  0  0  0  0  0  0  0
    0.1287   10.5319   -2.5959 H   0  0  0  0  0  0  0  0  0  0  0  0
    3.0310   10.1655   -1.6280 H   0  0  0  0  0  0  0  0  0  0  0  0
    2.2145    9.2816   -2.9928 H   0  0  0  0  0  0  0  0  0  0  0  0
    3.7181   11.0719   -3.8038 H   0  0  0  0  0  0  0  0  0  0  0  0
    1.9868   11.3533   -4.2387 H   0  0  0  0  0  0  0  0  0  0  0  0
    2.9476   13.4299   -3.5167 H   0  0  0  0  0  0  0  0  0  0  0  0
    4.6170   12.9900   -2.1960 H   0  0  0  0  0  0  0  0  0  0  0  0
   -0.5987   13.6347   -2.6627 H   0  0  0  0  0  0  0  0  0  0  0  0
    0.6945   14.2039   -3.7718 H   0  0  0  0  0  0  0  0  0  0  0  0
    0.2082   12.4747   -3.7718 H   0  0  0  0  0  0  0  0  0  0  0  0
    1.6050   14.2053   -0.2075 H   0  0  0  0  0  0  0  0  0  0  0  0
    2.6173   14.8184   -1.5588 H   0  0  0  0  0  0  0  0  0  0  0  0
    0.8453   15.1129   -1.5588 H   0  0  0  0  0  0  0  0  0  0  0  0
    1.3562    8.8801    1.0397 H   0  0  0  0  0  0  0  0  0  0  0  0
    1.7412    7.7115   -0.2690 H   0  0  0  0  0  0  0  0  0  0  0  0
    2.4971    9.3410   -0.2690 H   0  0  0  0  0  0  0  0  0  0  0  0
    0.5214    8.1231   -2.6829 H   0  0  0  0  0  0  0  0  0  0  0  0
   -0.0124    7.2393   -1.1436 H   0  0  0  0  0  0  0  0  0  0  0  0
   -1.7082    8.9691   -2.9649 H   0  0  0  0  0  0  0  0  0  0  0  0
   -1.8308    7.1917   -2.6604 H   0  0  0  0  0  0  0  0  0  0  0  0
   -2.3965    7.6047    0.9981 H   0  0  0  0  0  0  0  0  0  0  0  0
   -3.1601    6.5069   -0.2012 H   0  0  0  0  0  0  0  0  0  0  0  0
   -1.3786    6.7374   -0.2012 H   0  0  0  0  0  0  0  0  0  0  0  0
  1  2  1  0
  2  3  1  0
  3  4  1  0
  4  5  1  0
  5  6  1  0
  6  7  1  0
  7  8  1  0
  7  9  1  0
  2 10  1  0
 10 11  1  0
 11 12  1  0
 12 13  1  0
 13 14  1  6
 13 15  1  0
 15 16  1  0
 16 17  1  0
 17 18  2  0
 18 19  1  0
 19 20  1  0
 20 21  1  0
 21 22  1  0
 22 23  1  0
 22 24  1  0
 24 25  1  0
 24 26  1  0
 19 27  1  0
 27 28  1  1
 27 29  1  0
 29 30  1  0
 30 31  1  0
 31 32  1  1
  7  5  1  0
 31 10  1  0
 31 13  1  0
 27 15  1  0
 24 18  1  0
  1 33  1  0
  1 34  1  0
  1 35  1  0
  2 36  1  1
  3 37  1  0
  3 38  1  0
  4 39  1  0
  4 40  1  0
  5 41  1  6
  8 42  1  0
  8 43  1  0
  8 44  1  0
  9 45  1  0
  9 46  1  0
  9 47  1  0
 10 48  1  6
 11 49  1  0
 11 50  1  0
 12 51  1  0
 12 52  1  0
 14 53  1  0
 14 54  1  0
 14 55  1  0
 15 56  1  1
 16 57  1  0
 16 58  1  0
 17 59  1  0
 19 60  1  6
 20 61  1  0
 20 62  1  0
 21 63  1  0
 21 64  1  0
 22 65  1  6
 23 66  1  0
 25 67  1  0
 25 68  1  0
 25 69  1  0
 26 70  1  0
 26 71  1  0
 26 72  1  0
 28 73  1  0
 28 74  1  0
 28 75  1  0
 29 76  1  0
 29 77  1  0
 30 78  1  0
 30 79  1  0
 32 80  1  0
 32 81  1  0
 32 82  1  0
M  END
>  <meeko>  (5) 
{"is_sidechain": [false], "intermolecular_energy": 2.731, "internal_energy": -0.839}

$$$$
EPH_relaxed_0001_pdb2pqr_Repair_265_r2_0001_out
     RDKit          3D

 82 86  0  0  0  0  0  0  0  0999 V2000
  -14.4160    5.5230    0.3230 C   0  0  0  0  0  0  0  0  0  0  0  0
  -13.8730    6.9470    0.1730 C   0  0  2  0  0  0  0  0  0  0  0  0
  -14.9840    7.9580   -0.1760 C   0  0  0  0  0  0  0  0  0  0  0  0
  -14.5760    9.4180    0.0370 C   0  0  0  0  0  0  0  0  0  0  0  0
  -15.2780   10.3350   -0.9190 C   0  0  2  0  0  0  0  0  0  0  0  0
  -15.0930   10.0120   -2.3030 O   0  0  0  0  0  0  0  0  0  0  0  0
  -14.5520   11.2700   -1.8680 C   0  0  0  0  0  0  0  0  0  0  0  0
  -13.0570   11.3350   -1.9080 C   0  0  0  0  0  0  0  0  0  0  0  0
  -15.2870   12.4590   -2.4020 C   0  0  0  0  0  0  0  0  0  0  0  0
  -12.7850    6.9790   -0.8940 C   0  0  1  0  0  0  0  0  0  0  0  0
  -13.1100    7.9640   -2.0480 C   0  0  0  0  0  0  0  0  0  0  0  0
  -11.7610    8.5740   -2.5090 C   0  0  0  0  0  0  0  0  0  0  0  0
  -10.6840    7.6870   -1.8420 C   0  0  1  0  0  0  0  0  0  0  0  0
  -10.5730    6.4310   -2.7610 C   0  0  0  0  0  0  0  0  0  0  0  0
   -9.2890    8.3530   -1.6050 C   0  0  2  0  0  0  0  0  0  0  0  0
   -8.5510    8.7930   -2.8810 C   0  0  0  0  0  0  0  0  0  0  0  0
   -7.6450    7.7670   -3.4790 C   0  0  0  0  0  0  0  0  0  0  0  0
   -7.2130    6.6510   -2.8630 C   0  0  0  0  0  0  0  0  0  0  0  0
   -7.5590    6.3780   -1.3930 C   0  0  1  0  0  0  0  0  0  0  0  0
   -6.2820    5.9260   -0.6370 C   0  0  0  0  0  0  0  0  0  0  0  0
   -5.5950    4.7390   -1.3050 C   0  0  0  0  0  0  0  0  0  0  0  0
   -5.2150    5.0690   -2.7460 C   0  0  2  0  0  0  0  0  0  0  0  0
   -4.2020    6.0790   -2.7350 O   0  0  0  0  0  0  0  0  0  0  0  0
   -6.4200    5.5460   -3.6040 C   0  0  0  0  0  0  0  0  0  0  0  0
   -7.3760    4.3550   -3.8660 C   0  0  0  0  0  0  0  0  0  0  0  0
   -5.8760    5.9800   -4.9910 C   0  0  0  0  0  0  0  0  0  0  0  0
   -8.3380    7.5390   -0.6370 C   0  0  1  0  0  0  0  0  0  0  0  0
   -7.3220    8.5630   -0.0450 C   0  0  0  0  0  0  0  0  0  0  0  0
   -9.1130    6.9240    0.5870 C   0  0  0  0  0  0  0  0  0  0  0  0
  -10.5330    6.3910    0.3140 C   0  0  0  0  0  0  0  0  0  0  0  0
  -11.3680    7.4220   -0.4510 C   0  0  2  0  0  0  0  0  0  0  0  0
  -11.5150    8.6890    0.4590 C   0  0  0  0  0  0  0  0  0  0  0  0
  -14.5098    5.2770    1.3910 H   0  0  0  0  0  0  0  0  0  0  0  0
  -15.4033    5.4546   -0.1571 H   0  0  0  0  0  0  0  0  0  0  0  0
  -13.7249    4.8146   -0.1571 H   0  0  0  0  0  0  0  0  0  0  0  0
  -13.4497    7.2439    1.1439 H   0  0  0  0  0  0  0  0  0  0  0  0
  -15.2559    7.8240   -1.2334 H   0  0  0  0  0  0  0  0  0  0  0  0
  -15.8263    7.7572    0.5024 H   0  0  0  0  0  0  0  0  0  0  0  0
  -14.8305    9.7128    1.0657 H   0  0  0  0  0  0  0  0  0  0  0  0
  -13.4936    9.5010   -0.1405 H   0  0  0  0  0  0  0  0  0  0  0  0
  -16.0917   10.5020   -0.1978 H   0  0  0  0  0  0  0  0  0  0  0  0
  -12.6631   11.3521   -0.8811 H   0  0  0  0  0  0  0  0  0  0  0  0
  -12.6656   10.4530   -2.4362 H   0  0  0  0  0  0  0  0  0  0  0  0
  -12.7437   12.2476   -2.4362 H   0  0  0  0  0  0  0  0  0  0  0  0
  -15.6617   13.0652   -1.5640 H   0  0  0  0  0  0  0  0  0  0  0  0
  -14.6058   13.0652   -3.0173 H   0  0  0  0  0  0  0  0  0  0  0  0
  -16.1338   12.1207   -3.0173 H   0  0  0  0  0  0  0  0  0  0  0  0
  -12.7748    5.9169   -1.1799 H   0  0  0  0  0  0  0  0  0  0  0  0
  -13.5873    7.4272   -2.8811 H   0  0  0  0  0  0  0  0  0  0  0  0
  -13.8045    8.7488   -1.7135 H   0  0  0  0  0  0  0  0  0  0  0  0
  -11.6717    8.5357   -3.6047 H   0  0  0  0  0  0  0  0  0  0  0  0
  -11.6634    9.6326   -2.2264 H   0  0  0  0  0  0  0  0  0  0  0  0
  -10.4931    5.5274   -2.1389 H   0  0  0  0  0  0  0  0  0  0  0  0
  -11.4685    6.3610   -3.3960 H   0  0  0  0  0  0  0  0  0  0  0  0
   -9.6791    6.5191   -3.3960 H   0  0  0  0  0  0  0  0  0  0  0  0
   -9.5570    9.2821   -1.0806 H   0  0  0  0  0  0  0  0  0  0  0  0
   -9.3057    9.0611   -3.6350 H   0  0  0  0  0  0  0  0  0  0  0  0
   -7.9062    9.6337   -2.5855 H   0  0  0  0  0  0  0  0  0  0  0  0
   -7.3018    7.9380   -4.5100 H   0  0  0  0  0  0  0  0  0  0  0  0
   -8.2972    5.5625   -1.3997 H   0  0  0  0  0  0  0  0  0  0  0  0
   -5.5757    6.7686   -0.6030 H   0  0  0  0  0  0  0  0  0  0  0  0
   -6.5858    5.6109    0.3721 H   0  0  0  0  0  0  0  0  0  0  0  0
   -4.6848    4.4860   -0.7415 H   0  0  0  0  0  0  0  0  0  0  0  0
   -6.2920    3.8881   -1.3117 H   0  0  0  0  0  0  0  0  0  0  0  0
   -4.8473    4.1423   -3.2109 H   0  0  0  0  0  0  0  0  0  0  0  0
   -3.4140    5.7020   -2.3100 H   0  0  0  0  0  0  0  0  0  0  0  0
   -7.7120    3.9364   -2.9058 H   0  0  0  0  0  0  0  0  0  0  0  0
   -8.2478    4.7038   -4.4391 H   0  0  0  0  0  0  0  0  0  0  0  0
   -6.8469    3.5793   -4.4391 H   0  0  0  0  0  0  0  0  0  0  0  0
   -5.0229    6.6606   -4.8536 H   0  0  0  0  0  0  0  0  0  0  0  0
   -5.5496    5.0914   -5.5513 H   0  0  0  0  0  0  0  0  0  0  0  0
   -6.6699    6.4956   -5.5513 H   0  0  0  0  0  0  0  0  0  0  0  0
   -7.3604    8.5243    1.0536 H   0  0  0  0  0  0  0  0  0  0  0  0
   -6.3068    8.3110   -0.3855 H   0  0  0  0  0  0  0  0  0  0  0  0
   -7.5820    9.5761   -0.3855 H   0  0  0  0  0  0  0  0  0  0  0  0
   -8.5126    6.0879    0.9748 H   0  0  0  0  0  0  0  0  0  0  0  0
   -9.2493    7.7589    1.2901 H   0  0  0  0  0  0  0  0  0  0  0  0
  -10.4630    5.4700   -0.2834 H   0  0  0  0  0  0  0  0  0  0  0  0
  -11.0229    6.1885    1.2779 H   0  0  0  0  0  0  0  0  0  0  0  0
  -11.4800    8.3872    1.5162 H   0  0  0  0  0  0  0  0  0  0  0  0
  -10.6919    9.3882    0.2498 H   0  0  0  0  0  0  0  0  0  0  0  0
  -12.4763    9.1811    0.2498 H   0  0  0  0  0  0  0  0  0  0  0  0
  1  2  1  0
  2  3  1  0
  3  4  1  0
  4  5  1  0
  5  6  1  0
  6  7  1  0
  7  8  1  0
  7  9  1  0
  2 10  1  0
 10 11  1  0
 11 12  1  0
 12 13  1  0
 13 14  1  6
 13 15  1  0
 15 16  1  0
 16 17  1  0
 17 18  2  0
 18 19  1  0
 19 20  1  0
 20 21  1  0
 21 22  1  0
 22 23  1  0
 22 24  1  0
 24 25  1  0
 24 26  1  0
 19 27  1  0
 27 28  1  1
 27 29  1  0
 29 30  1  0
 30 31  1  0
 31 32  1  1
  7  5  1  0
 31 10  1  0
 31 13  1  0
 27 15  1  0
 24 18  1  0
  1 33  1  0
  1 34  1  0
  1 35  1  0
  2 36  1  1
  3 37  1  0
  3 38  1  0
  4 39  1  0
  4 40  1  0
  5 41  1  1
  8 42  1  0
  8 43  1  0
  8 44  1  0
  9 45  1  0
  9 46  1  0
  9 47  1  0
 10 48  1  6
 11 49  1  0
 11 50  1  0
 12 51  1  0
 12 52  1  0
 14 53  1  0
 14 54  1  0
 14 55  1  0
 15 56  1  1
 16 57  1  0
 16 58  1  0
 17 59  1  0
 19 60  1  6
 20 61  1  0
 20 62  1  0
 21 63  1  0
 21 64  1  0
 22 65  1  6
 23 66  1  0
 25 67  1  0
 25 68  1  0
 25 69  1  0
 26 70  1  0
 26 71  1  0
 26 72  1  0
 28 73  1  0
 28 74  1  0
 28 75  1  0
 29 76  1  0
 29 77  1  0
 30 78  1  0
 30 79  1  0
 32 80  1  0
 32 81  1  0
 32 82  1  0
M  END
>  <meeko>  (6) 
{"is_sidechain": [false], "intermolecular_energy": 2.731, "internal_energy": -0.839}

$$$$
EPH_relaxed_0001_pdb2pqr_Repair_265_r2_0001_out
     RDKit          3D

 82 86  0  0  0  0  0  0  0  0999 V2000
   -1.1680   15.6860    0.1880 C   0  0  0  0  0  0  0  0  0  0  0  0
   -1.0640   14.4200    1.0430 C   0  0  2  0  0  0  0  0  0  0  0  0
   -0.9950   14.7410    2.5500 C   0  0  0  0  0  0  0  0  0  0  0  0
   -0.3100   13.6520    3.3800 C   0  0  0  0  0  0  0  0  0  0  0  0
   -0.2930   13.9960    4.8390 C   0  0  2  0  0  0  0  0  0  0  0  0
   -0.0290   12.8900    5.7120 O   0  0  0  0  0  0  0  0  0  0  0  0
   -1.3280   13.4940    5.8290 C   0  0  0  0  0  0  0  0  0  0  0  0
   -2.4530   12.6070    5.3980 C   0  0  0  0  0  0  0  0  0  0  0  0
   -1.5260   14.2540    7.1030 C   0  0  0  0  0  0  0  0  0  0  0  0
    0.1590   13.6110    0.6270 C   0  0  1  0  0  0  0  0  0  0  0  0
    0.5730   12.5620    1.6930 C   0  0  0  0  0  0  0  0  0  0  0  0
    1.1130   11.3300    0.9230 C   0  0  0  0  0  0  0  0  0  0  0  0
    1.3030   11.8300   -0.5280 C   0  0  1  0  0  0  0  0  0  0  0  0
    2.6710   12.5810   -0.5180 C   0  0  0  0  0  0  0  0  0  0  0  0
    1.2510   10.7390   -1.6470 C   0  0  2  0  0  0  0  0  0  0  0  0
    2.3530    9.6680   -1.5650 C   0  0  0  0  0  0  0  0  0  0  0  0
    3.6040    9.9800   -2.3180 C   0  0  0  0  0  0  0  0  0  0  0  0
    3.7330   10.9350   -3.2590 C   0  0  0  0  0  0  0  0  0  0  0  0
    2.5210   11.7540   -3.7210 C   0  0  1  0  0  0  0  0  0  0  0  0
    2.5040   11.8250   -5.2700 C   0  0  0  0  0  0  0  0  0  0  0  0
    3.8160   12.3470   -5.8470 C   0  0  0  0  0  0  0  0  0  0  0  0
    4.9890   11.4720   -5.4130 C   0  0  2  0  0  0  0  0  0  0  0  0
    4.8490   10.1820   -6.0150 O   0  0  0  0  0  0  0  0  0  0  0  0
    5.1020   11.3200   -3.8700 C   0  0  0  0  0  0  0  0  0  0  0  0
    5.5520   12.6640   -3.2470 C   0  0  0  0  0  0  0  0  0  0  0  0
    6.2360   10.3020   -3.5730 C   0  0  0  0  0  0  0  0  0  0  0  0
    1.1180   11.3200   -3.1130 C   0  0  1  0  0  0  0  0  0  0  0  0
    0.4880   10.1900   -3.9840 C   0  0  0  0  0  0  0  0  0  0  0  0
    0.1270   12.5410   -3.1850 C   0  0  0  0  0  0  0  0  0  0  0  0
    0.1400   13.5180   -1.9940 C   0  0  0  0  0  0  0  0  0  0  0  0
    0.0450   12.7630   -0.6650 C   0  0  2  0  0  0  0  0  0  0  0  0
   -1.3320   12.0150   -0.6370 C   0  0  0  0  0  0  0  0  0  0  0  0
   -1.2403   16.5663    0.8436 H   0  0  0  0  0  0  0  0  0  0  0  0
   -0.2741   15.7741   -0.4469 H   0  0  0  0  0  0  0  0  0  0  0  0
   -2.0643   15.6271   -0.4469 H   0  0  0  0  0  0  0  0  0  0  0  0
   -1.9764   13.8297    0.8723 H   0  0  0  0  0  0  0  0  0  0  0  0
   -0.4365   15.6797    2.6800 H   0  0  0  0  0  0  0  0  0  0  0  0
   -2.0315   14.8162    2.9107 H   0  0  0  0  0  0  0  0  0  0  0  0
   -0.8527   12.7050    3.2432 H   0  0  0  0  0  0  0  0  0  0  0  0
    0.7311   13.5625    3.0364 H   0  0  0  0  0  0  0  0  0  0  0  0
    0.0920   15.0031    4.6212 H   0  0  0  0  0  0  0  0  0  0  0  0
   -2.9633   12.2046    6.2855 H   0  0  0  0  0  0  0  0  0  0  0  0
   -3.1675   13.1874    4.7958 H   0  0  0  0  0  0  0  0  0  0  0  0
   -2.0553   11.7768    4.7958 H   0  0  0  0  0  0  0  0  0  0  0  0
   -1.3519   13.5859    7.9593 H   0  0  0  0  0  0  0  0  0  0  0  0
   -0.8167   15.0938    7.1430 H   0  0  0  0  0  0  0  0  0  0  0  0
   -2.5549   14.6409    7.1430 H   0  0  0  0  0  0  0  0  0  0  0  0
    0.8789   14.4293    0.4780 H   0  0  0  0  0  0  0  0  0  0  0  0
    1.3569   12.9742    2.3454 H   0  0  0  0  0  0  0  0  0  0  0  0
   -0.2816   12.2867    2.3285 H   0  0  0  0  0  0  0  0  0  0  0  0
    2.0713   10.9962    1.3474 H   0  0  0  0  0  0  0  0  0  0  0  0
    0.4307   10.4692    0.9818 H   0  0  0  0  0  0  0  0  0  0  0  0
    2.9866   12.7542    0.5214 H   0  0  0  0  0  0  0  0  0  0  0  0
    3.4275   11.9717   -1.0342 H   0  0  0  0  0  0  0  0  0  0  0  0
    2.5631   13.5464   -1.0342 H   0  0  0  0  0  0  0  0  0  0  0  0
    0.3089   10.2167   -1.4240 H   0  0  0  0  0  0  0  0  0  0  0  0
    2.6184    9.5340   -0.5059 H   0  0  0  0  0  0  0  0  0  0  0  0
    1.9342    8.7646   -2.0324 H   0  0  0  0  0  0  0  0  0  0  0  0
    4.4954    9.3793   -2.0846 H   0  0  0  0  0  0  0  0  0  0  0  0
    2.6582   12.7624   -3.3034 H   0  0  0  0  0  0  0  0  0  0  0  0
    2.3212   10.8156   -5.6671 H   0  0  0  0  0  0  0  0  0  0  0  0
    1.7085   12.5260   -5.5630 H   0  0  0  0  0  0  0  0  0  0  0  0
    3.7524   12.3451   -6.9452 H   0  0  0  0  0  0  0  0  0  0  0  0
    3.9824   13.3681   -5.4732 H   0  0  0  0  0  0  0  0  0  0  0  0
    5.9122   11.9680   -5.7473 H   0  0  0  0  0  0  0  0  0  0  0  0
    5.0860    9.5180   -5.3450 H   0  0  0  0  0  0  0  0  0  0  0  0
    5.5261   12.5866   -2.1500 H   0  0  0  0  0  0  0  0  0  0  0  0
    6.5765   12.8950   -3.5742 H   0  0  0  0  0  0  0  0  0  0  0  0
    4.8732   13.4653   -3.5742 H   0  0  0  0  0  0  0  0  0  0  0  0
    6.3562   10.1941   -2.4849 H   0  0  0  0  0  0  0  0  0  0  0  0
    5.9776    9.3270   -4.0118 H   0  0  0  0  0  0  0  0  0  0  0  0
    7.1776   10.6637   -4.0118 H   0  0  0  0  0  0  0  0  0  0  0  0
    0.0579    9.4185   -3.3285 H   0  0  0  0  0  0  0  0  0  0  0  0
   -0.3036   10.6146   -4.6189 H   0  0  0  0  0  0  0  0  0  0  0  0
    1.2654    9.7399   -4.6189 H   0  0  0  0  0  0  0  0  0  0  0  0
    0.3730   13.1162   -4.0898 H   0  0  0  0  0  0  0  0  0  0  0  0
   -0.8788   12.0957   -3.1807 H   0  0  0  0  0  0  0  0  0  0  0  0
    1.0754   14.0965   -2.0132 H   0  0  0  0  0  0  0  0  0  0  0  0
   -0.7285   14.1876   -2.0800 H   0  0  0  0  0  0  0  0  0  0  0  0
   -1.6379   11.8489    0.4065 H   0  0  0  0  0  0  0  0  0  0  0  0
   -2.0910   12.6248   -1.1489 H   0  0  0  0  0  0  0  0  0  0  0  0
   -1.2336   11.0464   -1.1489 H   0  0  0  0  0  0  0  0  0  0  0  0
  1  2  1  0
  2  3  1  0
  3  4  1  0
  4  5  1  0
  5  6  1  0
  6  7  1  0
  7  8  1  0
  7  9  1  0
  2 10  1  0
 10 11  1  0
 11 12  1  0
 12 13  1  0
 13 14  1  1
 13 15  1  0
 15 16  1  0
 16 17  1  0
 17 18  2  0
 18 19  1  0
 19 20  1  0
 20 21  1  0
 21 22  1  0
 22 23  1  0
 22 24  1  0
 24 25  1  0
 24 26  1  0
 19 27  1  0
 27 28  1  6
 27 29  1  0
 29 30  1  0
 30 31  1  0
 31 32  1  1
  7  5  1  0
 31 10  1  0
 31 13  1  0
 27 15  1  0
 24 18  1  0
  1 33  1  0
  1 34  1  0
  1 35  1  0
  2 36  1  1
  3 37  1  0
  3 38  1  0
  4 39  1  0
  4 40  1  0
  5 41  1  6
  8 42  1  0
  8 43  1  0
  8 44  1  0
  9 45  1  0
  9 46  1  0
  9 47  1  0
 10 48  1  6
 11 49  1  0
 11 50  1  0
 12 51  1  0
 12 52  1  0
 14 53  1  0
 14 54  1  0
 14 55  1  0
 15 56  1  1
 16 57  1  0
 16 58  1  0
 17 59  1  0
 19 60  1  1
 20 61  1  0
 20 62  1  0
 21 63  1  0
 21 64  1  0
 22 65  1  6
 23 66  1  0
 25 67  1  0
 25 68  1  0
 25 69  1  0
 26 70  1  0
 26 71  1  0
 26 72  1  0
 28 73  1  0
 28 74  1  0
 28 75  1  0
 29 76  1  0
 29 77  1  0
 30 78  1  0
 30 79  1  0
 32 80  1  0
 32 81  1  0
 32 82  1  0
M  END
>  <meeko>  (7) 
{"is_sidechain": [false], "intermolecular_energy": 2.731, "internal_energy": -0.839}

$$$$
EPH_relaxed_0001_pdb2pqr_Repair_265_r2_0001_out
     RDKit          3D

 82 86  0  0  0  0  0  0  0  0999 V2000
  -15.2710    9.0240    0.6780 C   0  0  0  0  0  0  0  0  0  0  0  0
  -14.4010    9.2130   -0.5680 C   0  0  2  0  0  0  0  0  0  0  0  0
  -14.7630    8.2160   -1.6870 C   0  0  0  0  0  0  0  0  0  0  0  0
  -14.8490    8.8550   -3.0760 C   0  0  0  0  0  0  0  0  0  0  0  0
  -15.2870   10.2860   -3.0020 C   0  0  2  0  0  0  0  0  0  0  0  0
  -14.8570   11.1010   -4.1000 O   0  0  0  0  0  0  0  0  0  0  0  0
  -14.3290   11.4460   -2.8090 C   0  0  0  0  0  0  0  0  0  0  0  0
  -12.8540   11.2250   -2.6760 C   0  0  0  0  0  0  0  0  0  0  0  0
  -14.8630   12.7330   -2.2620 C   0  0  0  0  0  0  0  0  0  0  0  0
  -12.9290    9.0710   -0.2000 C   0  0  1  0  0  0  0  0  0  0  0  0
  -12.6910    9.0940    1.3340 C   0  0  0  0  0  0  0  0  0  0  0  0
  -11.5120    8.1290    1.6190 C   0  0  0  0  0  0  0  0  0  0  0  0
  -10.8990    7.8410    0.2280 C   0  0  1  0  0  0  0  0  0  0  0  0
   -9.9850    9.0700   -0.0690 C   0  0  0  0  0  0  0  0  0  0  0  0
  -10.1200    6.4930    0.0820 C   0  0  2  0  0  0  0  0  0  0  0  0
   -8.8770    6.3580    0.9790 C   0  0  0  0  0  0  0  0  0  0  0  0
   -7.5990    6.8380    0.3740 C   0  0  0  0  0  0  0  0  0  0  0  0
   -7.3990    7.0910   -0.9330 C   0  0  0  0  0  0  0  0  0  0  0  0
   -8.4950    6.8040   -1.9680 C   0  0  1  0  0  0  0  0  0  0  0  0
   -7.8780    6.0610   -3.1820 C   0  0  0  0  0  0  0  0  0  0  0  0
   -6.6900    6.8070   -3.7820 C   0  0  0  0  0  0  0  0  0  0  0  0
   -5.5980    7.0230   -2.7380 C   0  0  2  0  0  0  0  0  0  0  0  0
   -5.0480    5.7520   -2.3770 O   0  0  0  0  0  0  0  0  0  0  0  0
   -6.1040    7.7540   -1.4630 C   0  0  0  0  0  0  0  0  0  0  0  0
   -6.4180    9.2320   -1.8010 C   0  0  0  0  0  0  0  0  0  0  0  0
   -4.9410    7.7810   -0.4350 C   0  0  0  0  0  0  0  0  0  0  0  0
   -9.8010    6.0870   -1.4140 C   0  0  1  0  0  0  0  0  0  0  0  0
   -9.6040    4.5410   -1.4230 C   0  0  0  0  0  0  0  0  0  0  0  0
  -11.0030    6.3880   -2.3850 C   0  0  0  0  0  0  0  0  0  0  0  0
  -11.8090    7.6740   -2.1160 C   0  0  0  0  0  0  0  0  0  0  0  0
  -12.2080    7.7720   -0.6400 C   0  0  2  0  0  0  0  0  0  0  0  0
  -13.1470    6.5600   -0.3170 C   0  0  0  0  0  0  0  0  0  0  0  0
  -14.6547    9.1579    1.5793 H   0  0  0  0  0  0  0  0  0  0  0  0
  -16.0823    9.7669    0.6749 H   0  0  0  0  0  0  0  0  0  0  0  0
  -15.7009    8.0115    0.6749 H   0  0  0  0  0  0  0  0  0  0  0  0
  -14.5921   10.2251   -0.9542 H   0  0  0  0  0  0  0  0  0  0  0  0
  -13.9945    7.4295   -1.7135 H   0  0  0  0  0  0  0  0  0  0  0  0
  -15.7618    7.8188   -1.4532 H   0  0  0  0  0  0  0  0  0  0  0  0
  -13.8579    8.8097   -3.5511 H   0  0  0  0  0  0  0  0  0  0  0  0
  -15.5939    8.2985   -3.6637 H   0  0  0  0  0  0  0  0  0  0  0  0
  -16.2128    9.9998   -2.4815 H   0  0  0  0  0  0  0  0  0  0  0  0
  -12.5839   11.1845   -1.6104 H   0  0  0  0  0  0  0  0  0  0  0  0
  -12.5803   10.2758   -3.1599 H   0  0  0  0  0  0  0  0  0  0  0  0
  -12.3142   12.0523   -3.1599 H   0  0  0  0  0  0  0  0  0  0  0  0
  -14.8486   12.6982   -1.1626 H   0  0  0  0  0  0  0  0  0  0  0  0
  -14.2369   13.5675   -2.6107 H   0  0  0  0  0  0  0  0  0  0  0  0
  -15.8960   12.8791   -2.6107 H   0  0  0  0  0  0  0  0  0  0  0  0
  -12.5190    9.9333   -0.7462 H   0  0  0  0  0  0  0  0  0  0  0  0
  -12.4348   10.1122    1.6622 H   0  0  0  0  0  0  0  0  0  0  0  0
  -13.5952    8.7839    1.8783 H   0  0  0  0  0  0  0  0  0  0  0  0
  -10.7715    8.6047    2.2788 H   0  0  0  0  0  0  0  0  0  0  0  0
  -11.8382    7.2109    2.1295 H   0  0  0  0  0  0  0  0  0  0  0  0
   -9.6524    9.5173    0.8793 H   0  0  0  0  0  0  0  0  0  0  0  0
   -9.1084    8.7437   -0.6479 H   0  0  0  0  0  0  0  0  0  0  0  0
  -10.5498    9.8156   -0.6479 H   0  0  0  0  0  0  0  0  0  0  0  0
  -10.8449    5.7588    0.4634 H   0  0  0  0  0  0  0  0  0  0  0  0
   -9.0563    6.9359    1.8977 H   0  0  0  0  0  0  0  0  0  0  0  0
   -8.7444    5.2804    1.1554 H   0  0  0  0  0  0  0  0  0  0  0  0
   -6.7492    6.9984    1.0537 H   0  0  0  0  0  0  0  0  0  0  0  0
   -8.8783    7.7850   -2.2854 H   0  0  0  0  0  0  0  0  0  0  0  0
   -7.5406    5.0671   -2.8529 H   0  0  0  0  0  0  0  0  0  0  0  0
   -8.6536    5.9884   -3.9586 H   0  0  0  0  0  0  0  0  0  0  0  0
   -6.2795    6.2188   -4.6160 H   0  0  0  0  0  0  0  0  0  0  0  0
   -7.0352    7.7891   -4.1374 H   0  0  0  0  0  0  0  0  0  0  0  0
   -4.8344    7.6733   -3.1896 H   0  0  0  0  0  0  0  0  0  0  0  0
   -4.4810    5.8870   -1.5980 H   0  0  0  0  0  0  0  0  0  0  0  0
   -6.5394    9.8035   -0.8690 H   0  0  0  0  0  0  0  0  0  0  0  0
   -5.5903    9.6579   -2.3871 H   0  0  0  0  0  0  0  0  0  0  0  0
   -7.3474    9.2846   -2.3871 H   0  0  0  0  0  0  0  0  0  0  0  0
   -5.3529    7.7714    0.5849 H   0  0  0  0  0  0  0  0  0  0  0  0
   -4.3022    6.8974   -0.5808 H   0  0  0  0  0  0  0  0  0  0  0  0
   -4.3439    8.6932   -0.5808 H   0  0  0  0  0  0  0  0  0  0  0  0
   -9.5569    4.1713   -0.3880 H   0  0  0  0  0  0  0  0  0  0  0  0
  -10.4490    4.0667   -1.9437 H   0  0  0  0  0  0  0  0  0  0  0  0
   -8.6671    4.2938   -1.9437 H   0  0  0  0  0  0  0  0  0  0  0  0
  -10.5974    6.4569   -3.4052 H   0  0  0  0  0  0  0  0  0  0  0  0
  -11.7144    5.5642   -2.2261 H   0  0  0  0  0  0  0  0  0  0  0  0
  -11.1938    8.5464   -2.3812 H   0  0  0  0  0  0  0  0  0  0  0  0
  -12.7241    7.6486   -2.7259 H   0  0  0  0  0  0  0  0  0  0  0  0
  -13.2358    6.4454    0.7734 H   0  0  0  0  0  0  0  0  0  0  0  0
  -14.1422    6.7419   -0.7488 H   0  0  0  0  0  0  0  0  0  0  0  0
  -12.7222    5.6418   -0.7488 H   0  0  0  0  0  0  0  0  0  0  0  0
  1  2  1  0
  2  3  1  0
  3  4  1  0
  4  5  1  0
  5  6  1  0
  6  7  1  0
  7  8  1  0
  7  9  1  0
  2 10  1  0
 10 11  1  0
 11 12  1  0
 12 13  1  0
 13 14  1  6
 13 15  1  0
 15 16  1  0
 16 17  1  0
 17 18  2  0
 18 19  1  0
 19 20  1  0
 20 21  1  0
 21 22  1  0
 22 23  1  0
 22 24  1  0
 24 25  1  0
 24 26  1  0
 19 27  1  0
 27 28  1  1
 27 29  1  0
 29 30  1  0
 30 31  1  0
 31 32  1  1
  7  5  1  0
 31 10  1  0
 31 13  1  0
 27 15  1  0
 24 18  1  0
  1 33  1  0
  1 34  1  0
  1 35  1  0
  2 36  1  6
  3 37  1  0
  3 38  1  0
  4 39  1  0
  4 40  1  0
  5 41  1  1
  8 42  1  0
  8 43  1  0
  8 44  1  0
  9 45  1  0
  9 46  1  0
  9 47  1  0
 10 48  1  6
 11 49  1  0
 11 50  1  0
 12 51  1  0
 12 52  1  0
 14 53  1  0
 14 54  1  0
 14 55  1  0
 15 56  1  1
 16 57  1  0
 16 58  1  0
 17 59  1  0
 19 60  1  6
 20 61  1  0
 20 62  1  0
 21 63  1  0
 21 64  1  0
 22 65  1  6
 23 66  1  0
 25 67  1  0
 25 68  1  0
 25 69  1  0
 26 70  1  0
 26 71  1  0
 26 72  1  0
 28 73  1  0
 28 74  1  0
 28 75  1  0
 29 76  1  0
 29 77  1  0
 30 78  1  0
 30 79  1  0
 32 80  1  0
 32 81  1  0
 32 82  1  0
M  END
>  <meeko>  (8) 
{"is_sidechain": [false], "intermolecular_energy": 2.731, "internal_energy": -0.839}

$$$$
EPH_relaxed_0001_pdb2pqr_Repair_265_r2_0001_out
     RDKit          3D

 82 86  0  0  0  0  0  0  0  0999 V2000
    4.2710   11.1370   -5.1910 C   0  0  0  0  0  0  0  0  0  0  0  0
    3.0250   11.8230   -5.7560 C   0  0  2  0  0  0  0  0  0  0  0  0
    3.3740   12.8480   -6.8540 C   0  0  0  0  0  0  0  0  0  0  0  0
    2.3060   13.9280   -7.0490 C   0  0  0  0  0  0  0  0  0  0  0  0
    2.4840   14.6540   -8.3480 C   0  0  2  0  0  0  0  0  0  0  0  0
    2.6110   16.0770   -8.2270 O   0  0  0  0  0  0  0  0  0  0  0  0
    1.4490   15.6020   -8.9250 C   0  0  0  0  0  0  0  0  0  0  0  0
    0.1590   15.8750   -8.2160 C   0  0  0  0  0  0  0  0  0  0  0  0
    1.4740   15.8800  -10.3960 C   0  0  0  0  0  0  0  0  0  0  0  0
    2.2530   12.5060   -4.6330 C   0  0  1  0  0  0  0  0  0  0  0  0
    1.2030   13.5200   -5.1600 C   0  0  0  0  0  0  0  0  0  0  0  0
   -0.0050   13.4570   -4.1910 C   0  0  0  0  0  0  0  0  0  0  0  0
    0.5160   12.6670   -2.9680 C   0  0  1  0  0  0  0  0  0  0  0  0
    1.3030   13.7150   -2.1190 C   0  0  0  0  0  0  0  0  0  0  0  0
   -0.5620   11.9240   -2.1130 C   0  0  2  0  0  0  0  0  0  0  0  0
   -1.6050   12.8360   -1.4430 C   0  0  0  0  0  0  0  0  0  0  0  0
   -1.2510   13.3110   -0.0730 C   0  0  0  0  0  0  0  0  0  0  0  0
   -0.2820   12.7950    0.7070 C   0  0  0  0  0  0  0  0  0  0  0  0
    0.5110   11.5590    0.2650 C   0  0  1  0  0  0  0  0  0  0  0  0
    0.5990   10.5520    1.4420 C   0  0  0  0  0  0  0  0  0  0  0  0
    1.1620   11.1840    2.7120 C   0  0  0  0  0  0  0  0  0  0  0  0
    0.3130   12.3730    3.1520 C   0  0  2  0  0  0  0  0  0  0  0  0
   -0.9730   11.8970    3.5580 O   0  0  0  0  0  0  0  0  0  0  0  0
    0.1460   13.4500    2.0440 C   0  0  0  0  0  0  0  0  0  0  0  0
    1.4940   14.1780    1.8180 C   0  0  0  0  0  0  0  0  0  0  0  0
   -0.8450   14.5250    2.5680 C   0  0  0  0  0  0  0  0  0  0  0  0
    0.0320   10.8760   -1.0880 C   0  0  1  0  0  0  0  0  0  0  0  0
   -1.1030    9.8480   -0.7930 C   0  0  0  0  0  0  0  0  0  0  0  0
    1.2280   10.0530   -1.6990 C   0  0  0  0  0  0  0  0  0  0  0  0
    2.1900   10.8140   -2.6300 C   0  0  0  0  0  0  0  0  0  0  0  0
    1.4170   11.6020   -3.6920 C   0  0  2  0  0  0  0  0  0  0  0  0
    0.6340   10.5720   -4.5760 C   0  0  0  0  0  0  0  0  0  0  0  0
    4.2341   11.1573   -4.0918 H   0  0  0  0  0  0  0  0  0  0  0  0
    4.3040   10.0935   -5.5376 H   0  0  0  0  0  0  0  0  0  0  0  0
    5.1704   11.6671   -5.5376 H   0  0  0  0  0  0  0  0  0  0  0  0
    2.3995   11.0446   -6.2174 H   0  0  0  0  0  0  0  0  0  0  0  0
    4.3197   13.3397   -6.5823 H   0  0  0  0  0  0  0  0  0  0  0  0
    3.4469   12.2929   -7.8009 H   0  0  0  0  0  0  0  0  0  0  0  0
    1.3134   13.4541   -7.0384 H   0  0  0  0  0  0  0  0  0  0  0  0
    2.4025   14.6579   -6.2317 H   0  0  0  0  0  0  0  0  0  0  0  0
    3.0225   13.7975   -8.7797 H   0  0  0  0  0  0  0  0  0  0  0  0
    0.3236   15.8402   -7.1289 H   0  0  0  0  0  0  0  0  0  0  0  0
   -0.2112   16.8714   -8.4991 H   0  0  0  0  0  0  0  0  0  0  0  0
   -0.5832   15.1140   -8.4991 H   0  0  0  0  0  0  0  0  0  0  0  0
    1.5714   16.9629  -10.5629 H   0  0  0  0  0  0  0  0  0  0  0  0
    2.3290   15.3602  -10.8529 H   0  0  0  0  0  0  0  0  0  0  0  0
    0.5400   15.5211  -10.8529 H   0  0  0  0  0  0  0  0  0  0  0  0
    3.0916   12.9527   -4.0787 H   0  0  0  0  0  0  0  0  0  0  0  0
    1.6280   14.5345   -5.1701 H   0  0  0  0  0  0  0  0  0  0  0  0
    0.8980   13.2744   -6.1879 H   0  0  0  0  0  0  0  0  0  0  0  0
   -0.3182   14.4690   -3.8947 H   0  0  0  0  0  0  0  0  0  0  0  0
   -0.8840   12.9816   -4.6508 H   0  0  0  0  0  0  0  0  0  0  0  0
    1.1492   13.5102   -1.0492 H   0  0  0  0  0  0  0  0  0  0  0  0
    2.3753   13.6472   -2.3549 H   0  0  0  0  0  0  0  0  0  0  0  0
    0.9389   14.7258   -2.3549 H   0  0  0  0  0  0  0  0  0  0  0  0
   -1.1110   11.3496   -2.8737 H   0  0  0  0  0  0  0  0  0  0  0  0
   -1.7452   13.7194   -2.0833 H   0  0  0  0  0  0  0  0  0  0  0  0
   -2.5132   12.2261   -1.3282 H   0  0  0  0  0  0  0  0  0  0  0  0
   -1.8302   14.1531    0.3336 H   0  0  0  0  0  0  0  0  0  0  0  0
    1.5176   11.9195    0.0065 H   0  0  0  0  0  0  0  0  0  0  0  0
   -0.4103   10.1702    1.6556 H   0  0  0  0  0  0  0  0  0  0  0  0
    1.2819    9.7442    1.1400 H   0  0  0  0  0  0  0  0  0  0  0  0
    1.1716   10.4319    3.5146 H   0  0  0  0  0  0  0  0  0  0  0  0
    2.1825   11.5387    2.5050 H   0  0  0  0  0  0  0  0  0  0  0  0
    0.8371   12.8609    3.9870 H   0  0  0  0  0  0  0  0  0  0  0  0
   -1.4090   12.6110    4.0530 H   0  0  0  0  0  0  0  0  0  0  0  0
    1.9463   14.4223    2.7905 H   0  0  0  0  0  0  0  0  0  0  0  0
    2.1734   13.5241    1.2515 H   0  0  0  0  0  0  0  0  0  0  0  0
    1.3198   15.1047    1.2515 H   0  0  0  0  0  0  0  0  0  0  0  0
   -0.8418   14.5215    3.6680 H   0  0  0  0  0  0  0  0  0  0  0  0
   -0.5372   15.5162    2.2036 H   0  0  0  0  0  0  0  0  0  0  0  0
   -1.8579   14.2987    2.2036 H   0  0  0  0  0  0  0  0  0  0  0  0
   -1.2245    9.7380    0.2947 H   0  0  0  0  0  0  0  0  0  0  0  0
   -2.0455   10.2061   -1.2328 H   0  0  0  0  0  0  0  0  0  0  0  0
   -0.8396    8.8748   -1.2328 H   0  0  0  0  0  0  0  0  0  0  0  0
    1.8202    9.6551   -0.8618 H   0  0  0  0  0  0  0  0  0  0  0  0
    0.7567    9.2887   -2.3344 H   0  0  0  0  0  0  0  0  0  0  0  0
    2.7926   11.5128   -2.0312 H   0  0  0  0  0  0  0  0  0  0  0  0
    2.8377   10.0839   -3.1374 H   0  0  0  0  0  0  0  0  0  0  0  0
    0.0967    9.8652   -3.9265 H   0  0  0  0  0  0  0  0  0  0  0  0
   -0.0872   11.1074   -5.2110 H   0  0  0  0  0  0  0  0  0  0  0  0
    1.3428   10.0203   -5.2110 H   0  0  0  0  0  0  0  0  0  0  0  0
  1  2  1  0
  2  3  1  0
  3  4  1  0
  4  5  1  0
  5  6  1  0
  6  7  1  0
  7  8  1  0
  7  9  1  0
  2 10  1  0
 10 11  1  0
 11 12  1  0
 12 13  1  0
 13 14  1  1
 13 15  1  0
 15 16  1  0
 16 17  1  0
 17 18  2  0
 18 19  1  0
 19 20  1  0
 20 21  1  0
 21 22  1  0
 22 23  1  0
 22 24  1  0
 24 25  1  0
 24 26  1  0
 19 27  1  0
 27 28  1  1
 27 29  1  0
 29 30  1  0
 30 31  1  0
 31 32  1  6
  7  5  1  0
 31 10  1  0
 31 13  1  0
 27 15  1  0
 24 18  1  0
  1 33  1  0
  1 34  1  0
  1 35  1  0
  2 36  1  6
  3 37  1  0
  3 38  1  0
  4 39  1  0
  4 40  1  0
  5 41  1  6
  8 42  1  0
  8 43  1  0
  8 44  1  0
  9 45  1  0
  9 46  1  0
  9 47  1  0
 10 48  1  1
 11 49  1  0
 11 50  1  0
 12 51  1  0
 12 52  1  0
 14 53  1  0
 14 54  1  0
 14 55  1  0
 15 56  1  6
 16 57  1  0
 16 58  1  0
 17 59  1  0
 19 60  1  6
 20 61  1  0
 20 62  1  0
 21 63  1  0
 21 64  1  0
 22 65  1  1
 23 66  1  0
 25 67  1  0
 25 68  1  0
 25 69  1  0
 26 70  1  0
 26 71  1  0
 26 72  1  0
 28 73  1  0
 28 74  1  0
 28 75  1  0
 29 76  1  0
 29 77  1  0
 30 78  1  0
 30 79  1  0
 32 80  1  0
 32 81  1  0
 32 82  1  0
M  END
>  <meeko>  (9) 
{"is_sidechain": [false], "intermolecular_energy": 2.731, "internal_energy": -0.839}

$$$$
EPH_relaxed_0001_pdb2pqr_Repair_265_r2_0001_out
     RDKit          3D

 82 86  0  0  0  0  0  0  0  0999 V2000
    0.3980   14.9010   -6.7870 C   0  0  0  0  0  0  0  0  0  0  0  0
    1.8100   14.4020   -6.4680 C   0  0  2  0  0  0  0  0  0  0  0  0
    2.6600   14.2140   -7.7400 C   0  0  0  0  0  0  0  0  0  0  0  0
    2.8800   15.5060   -8.5300 C   0  0  0  0  0  0  0  0  0  0  0  0
    2.6890   15.2960  -10.0020 C   0  0  2  0  0  0  0  0  0  0  0  0
    2.2140   16.4450  -10.7150 O   0  0  0  0  0  0  0  0  0  0  0  0
    1.3320   15.3110  -10.6800 C   0  0  0  0  0  0  0  0  0  0  0  0
    0.0740   15.5420   -9.9030 C   0  0  0  0  0  0  0  0  0  0  0  0
    1.1840   14.6220  -12.0010 C   0  0  0  0  0  0  0  0  0  0  0  0
    1.7350   13.0920   -5.6930 C   0  0  1  0  0  0  0  0  0  0  0  0
    3.0950   12.3460   -5.6470 C   0  0  0  0  0  0  0  0  0  0  0  0
    3.1770   11.6500   -4.2640 C   0  0  0  0  0  0  0  0  0  0  0  0
    1.7410   11.7380   -3.6970 C   0  0  1  0  0  0  0  0  0  0  0  0
    0.9670   10.5670   -4.3810 C   0  0  0  0  0  0  0  0  0  0  0  0
    1.6080   11.6850   -2.1400 C   0  0  2  0  0  0  0  0  0  0  0  0
    2.0950   10.3800   -1.4870 C   0  0  0  0  0  0  0  0  0  0  0  0
    1.0570    9.3190   -1.3310 C   0  0  0  0  0  0  0  0  0  0  0  0
   -0.2720    9.5030   -1.4350 C   0  0  0  0  0  0  0  0  0  0  0  0
   -0.8590   10.9050   -1.6400 C   0  0  1  0  0  0  0  0  0  0  0  0
   -2.0510   11.1150   -0.6700 C   0  0  0  0  0  0  0  0  0  0  0  0
   -3.1040   10.0180   -0.7920 C   0  0  0  0  0  0  0  0  0  0  0  0
   -2.4950    8.6450   -0.5230 C   0  0  2  0  0  0  0  0  0  0  0  0
   -2.0970    8.5770    0.8490 O   0  0  0  0  0  0  0  0  0  0  0  0
   -1.2780    8.3260   -1.4360 C   0  0  0  0  0  0  0  0  0  0  0  0
   -1.7620    8.1020   -2.8900 C   0  0  0  0  0  0  0  0  0  0  0  0
   -0.6710    6.9750   -0.9680 C   0  0  0  0  0  0  0  0  0  0  0  0
    0.1820   12.1060   -1.5970 C   0  0  1  0  0  0  0  0  0  0  0  0
    0.3880   12.5780   -0.1250 C   0  0  0  0  0  0  0  0  0  0  0  0
   -0.4170   13.3350   -2.3780 C   0  0  0  0  0  0  0  0  0  0  0  0
   -0.1500   13.3910   -3.8940 C   0  0  0  0  0  0  0  0  0  0  0  0
    1.3350   13.1720   -4.1980 C   0  0  2  0  0  0  0  0  0  0  0  0
    2.1370   14.3460   -3.5410 C   0  0  0  0  0  0  0  0  0  0  0  0
   -0.1438   15.0925   -5.8491 H   0  0  0  0  0  0  0  0  0  0  0  0
    0.4610   15.8313   -7.3706 H   0  0  0  0  0  0  0  0  0  0  0  0
   -0.1375   14.1377   -7.3706 H   0  0  0  0  0  0  0  0  0  0  0  0
    2.3019   15.1700   -5.8530 H   0  0  0  0  0  0  0  0  0  0  0  0
    3.6421   13.8156   -7.4455 H   0  0  0  0  0  0  0  0  0  0  0  0
    2.1075   13.5260   -8.3968 H   0  0  0  0  0  0  0  0  0  0  0  0
    2.1620   16.2632   -8.1819 H   0  0  0  0  0  0  0  0  0  0  0  0
    3.9154   15.8377   -8.3628 H   0  0  0  0  0  0  0  0  0  0  0  0
    3.5201   14.5760  -10.0304 H   0  0  0  0  0  0  0  0  0  0  0  0
    0.2954   15.5013   -8.8263 H   0  0  0  0  0  0  0  0  0  0  0  0
   -0.3368   16.5306  -10.1558 H   0  0  0  0  0  0  0  0  0  0  0  0
   -0.6612   14.7638  -10.1558 H   0  0  0  0  0  0  0  0  0  0  0  0
    0.9556   13.5586  -11.8364 H   0  0  0  0  0  0  0  0  0  0  0  0
    0.3657   15.0892  -12.5686 H   0  0  0  0  0  0  0  0  0  0  0  0
    2.1220   14.7120  -12.5686 H   0  0  0  0  0  0  0  0  0  0  0  0
    0.9464   12.5834   -6.2670 H   0  0  0  0  0  0  0  0  0  0  0  0
    3.1437   11.5972   -6.4513 H   0  0  0  0  0  0  0  0  0  0  0  0
    3.9333   13.0441   -5.7881 H   0  0  0  0  0  0  0  0  0  0  0  0
    3.4869   10.6004   -4.3753 H   0  0  0  0  0  0  0  0  0  0  0  0
    3.9166   12.1238   -3.6018 H   0  0  0  0  0  0  0  0  0  0  0  0
    0.5347    9.9130   -3.6093 H   0  0  0  0  0  0  0  0  0  0  0  0
    0.1612   10.9768   -5.0078 H   0  0  0  0  0  0  0  0  0  0  0  0
    1.6598    9.9863   -5.0078 H   0  0  0  0  0  0  0  0  0  0  0  0
    2.3157   12.4624   -1.8164 H   0  0  0  0  0  0  0  0  0  0  0  0
    2.9072    9.9723   -2.1068 H   0  0  0  0  0  0  0  0  0  0  0  0
    2.4106   10.6490   -0.4682 H   0  0  0  0  0  0  0  0  0  0  0  0
    1.4082    8.2998   -1.1124 H   0  0  0  0  0  0  0  0  0  0  0  0
   -1.2150   10.9359   -2.6803 H   0  0  0  0  0  0  0  0  0  0  0  0
   -1.6690   11.1241    0.3615 H   0  0  0  0  0  0  0  0  0  0  0  0
   -2.5309   12.0695   -0.9321 H   0  0  0  0  0  0  0  0  0  0  0  0
   -3.9054   10.2056   -0.0622 H   0  0  0  0  0  0  0  0  0  0  0  0
   -3.5057   10.0293   -1.8160 H   0  0  0  0  0  0  0  0  0  0  0  0
   -3.2647    7.8928   -0.7505 H   0  0  0  0  0  0  0  0  0  0  0  0
   -2.8950    8.4050    1.3780 H   0  0  0  0  0  0  0  0  0  0  0  0
   -2.7602    7.6400   -2.8771 H   0  0  0  0  0  0  0  0  0  0  0  0
   -1.8120    9.0685   -3.4128 H   0  0  0  0  0  0  0  0  0  0  0  0
   -1.0576    7.4384   -3.4128 H   0  0  0  0  0  0  0  0  0  0  0  0
   -0.6558    6.9411    0.1314 H   0  0  0  0  0  0  0  0  0  0  0  0
   -1.2829    6.1455   -1.3520 H   0  0  0  0  0  0  0  0  0  0  0  0
    0.3556    6.8817   -1.3520 H   0  0  0  0  0  0  0  0  0  0  0  0
    0.0449   11.7918    0.5636 H   0  0  0  0  0  0  0  0  0  0  0  0
    1.4554   12.7783    0.0499 H   0  0  0  0  0  0  0  0  0  0  0  0
   -0.1909   13.4968    0.0499 H   0  0  0  0  0  0  0  0  0  0  0  0
   -1.5072   13.3227   -2.2323 H   0  0  0  0  0  0  0  0  0  0  0  0
    0.0934   14.2166   -1.9629 H   0  0  0  0  0  0  0  0  0  0  0  0
   -0.7387   12.6066   -4.3922 H   0  0  0  0  0  0  0  0  0  0  0  0
   -0.4408   14.3850   -4.2647 H   0  0  0  0  0  0  0  0  0  0  0  0
    2.0794   14.2616   -2.4458 H   0  0  0  0  0  0  0  0  0  0  0  0
    3.1891   14.2938   -3.8579 H   0  0  0  0  0  0  0  0  0  0  0  0
    1.7058   15.3071   -3.8579 H   0  0  0  0  0  0  0  0  0  0  0  0
  1  2  1  0
  2  3  1  0
  3  4  1  0
  4  5  1  0
  5  6  1  0
  6  7  1  0
  7  8  1  0
  7  9  1  0
  2 10  1  0
 10 11  1  0
 11 12  1  0
 12 13  1  0
 13 14  1  6
 13 15  1  0
 15 16  1  0
 16 17  1  0
 17 18  2  0
 18 19  1  0
 19 20  1  0
 20 21  1  0
 21 22  1  0
 22 23  1  0
 22 24  1  0
 24 25  1  0
 24 26  1  0
 19 27  1  0
 27 28  1  1
 27 29  1  0
 29 30  1  0
 30 31  1  0
 31 32  1  1
  7  5  1  0
 31 10  1  0
 31 13  1  0
 27 15  1  0
 24 18  1  0
  1 33  1  0
  1 34  1  0
  1 35  1  0
  2 36  1  1
  3 37  1  0
  3 38  1  0
  4 39  1  0
  4 40  1  0
  5 41  1  6
  8 42  1  0
  8 43  1  0
  8 44  1  0
  9 45  1  0
  9 46  1  0
  9 47  1  0
 10 48  1  6
 11 49  1  0
 11 50  1  0
 12 51  1  0
 12 52  1  0
 14 53  1  0
 14 54  1  0
 14 55  1  0
 15 56  1  1
 16 57  1  0
 16 58  1  0
 17 59  1  0
 19 60  1  6
 20 61  1  0
 20 62  1  0
 21 63  1  0
 21 64  1  0
 22 65  1  1
 23 66  1  0
 25 67  1  0
 25 68  1  0
 25 69  1  0
 26 70  1  0
 26 71  1  0
 26 72  1  0
 28 73  1  0
 28 74  1  0
 28 75  1  0
 29 76  1  0
 29 77  1  0
 30 78  1  0
 30 79  1  0
 32 80  1  0
 32 81  1  0
 32 82  1  0
M  END
>  <meeko>  (10) 
{"is_sidechain": [false], "intermolecular_energy": 2.731, "internal_energy": -0.839}

$$$$
EPH_relaxed_0001_pdb2pqr_Repair_265_r2_0001_out
     RDKit          3D

 82 86  0  0  0  0  0  0  0  0999 V2000
    1.0270   13.4750   -5.8010 C   0  0  0  0  0  0  0  0  0  0  0  0
    1.8630   13.0510   -4.5910 C   0  0  2  0  0  0  0  0  0  0  0  0
    2.5520   11.6890   -4.8090 C   0  0  0  0  0  0  0  0  0  0  0  0
    3.8720   11.7840   -5.5800 C   0  0  0  0  0  0  0  0  0  0  0  0
    4.8970   10.8310   -5.0440 C   0  0  2  0  0  0  0  0  0  0  0  0
    4.7630   10.5300   -3.6490 O   0  0  0  0  0  0  0  0  0  0  0  0
    5.9600   11.2250   -4.0360 C   0  0  0  0  0  0  0  0  0  0  0  0
    6.0510   12.6210   -3.5040 C   0  0  0  0  0  0  0  0  0  0  0  0
    7.1990   10.3910   -3.9400 C   0  0  0  0  0  0  0  0  0  0  0  0
    0.9860   12.9970   -3.3460 C   0  0  1  0  0  0  0  0  0  0  0  0
   -0.4820   12.6060   -3.6650 C   0  0  0  0  0  0  0  0  0  0  0  0
   -0.9890   11.7570   -2.4710 C   0  0  0  0  0  0  0  0  0  0  0  0
    0.0730   11.9640   -1.3670 C   0  0  1  0  0  0  0  0  0  0  0  0
   -0.2910   13.3330   -0.7110 C   0  0  0  0  0  0  0  0  0  0  0  0
    0.1910   10.8260   -0.3000 C   0  0  2  0  0  0  0  0  0  0  0  0
   -1.0690   10.5970    0.5520 C   0  0  0  0  0  0  0  0  0  0  0  0
   -1.1380   11.3900    1.8150 C   0  0  0  0  0  0  0  0  0  0  0  0
   -0.1060   12.0330    2.3910 C   0  0  0  0  0  0  0  0  0  0  0  0
    1.3130   11.9200    1.8180 C   0  0  1  0  0  0  0  0  0  0  0  0
    2.3160   11.6450    2.9680 C   0  0  0  0  0  0  0  0  0  0  0  0
    2.2200   12.6770    4.0880 C   0  0  0  0  0  0  0  0  0  0  0  0
    0.8100   12.7190    4.6720 C   0  0  2  0  0  0  0  0  0  0  0  0
    0.5500   11.4790    5.3360 O   0  0  0  0  0  0  0  0  0  0  0  0
   -0.2880   12.9800    3.6030 C   0  0  0  0  0  0  0  0  0  0  0  0
   -0.1860   14.4410    3.0980 C   0  0  0  0  0  0  0  0  0  0  0  0
   -1.6700   12.8570    4.2990 C   0  0  0  0  0  0  0  0  0  0  0  0
    1.4900   10.9140    0.6000 C   0  0  1  0  0  0  0  0  0  0  0  0
    1.7590    9.4740    1.1340 C   0  0  0  0  0  0  0  0  0  0  0  0
    2.7640   11.3270   -0.2270 C   0  0  0  0  0  0  0  0  0  0  0  0
    2.5600   12.3670   -1.3450 C   0  0  0  0  0  0  0  0  0  0  0  0
    1.3790   11.9830   -2.2420 C   0  0  2  0  0  0  0  0  0  0  0  0
    1.7260   10.6200   -2.9320 C   0  0  0  0  0  0  0  0  0  0  0  0
    0.0955   13.9474   -5.4557 H   0  0  0  0  0  0  0  0  0  0  0  0
    1.5986   14.1922   -6.4084 H   0  0  0  0  0  0  0  0  0  0  0  0
    0.7861   12.5901   -6.4084 H   0  0  0  0  0  0  0  0  0  0  0  0
    2.6541   13.8033   -4.4563 H   0  0  0  0  0  0  0  0  0  0  0  0
    2.7558   11.2413   -3.8251 H   0  0  0  0  0  0  0  0  0  0  0  0
    1.8687   11.0761   -5.4151 H   0  0  0  0  0  0  0  0  0  0  0  0
    3.6847   11.5480   -6.6379 H   0  0  0  0  0  0  0  0  0  0  0  0
    4.2622   12.8063   -5.4671 H   0  0  0  0  0  0  0  0  0  0  0  0
    4.9550   10.3124   -6.0123 H   0  0  0  0  0  0  0  0  0  0  0  0
    6.0493   12.5951   -2.4043 H   0  0  0  0  0  0  0  0  0  0  0  0
    6.9815   13.0885   -3.8584 H   0  0  0  0  0  0  0  0  0  0  0  0
    5.1890   13.2053   -3.8584 H   0  0  0  0  0  0  0  0  0  0  0  0
    7.4474   10.2238   -2.8815 H   0  0  0  0  0  0  0  0  0  0  0  0
    7.0286    9.4230   -4.4340 H   0  0  0  0  0  0  0  0  0  0  0  0
    8.0317   10.9132   -4.4340 H   0  0  0  0  0  0  0  0  0  0  0  0
    1.1236   14.0251   -2.9799 H   0  0  0  0  0  0  0  0  0  0  0  0
   -1.0990   13.5098   -3.7760 H   0  0  0  0  0  0  0  0  0  0  0  0
   -0.5441   12.0401   -4.6062 H   0  0  0  0  0  0  0  0  0  0  0  0
   -1.9743   12.1110   -2.1334 H   0  0  0  0  0  0  0  0  0  0  0  0
   -1.1141   10.6968   -2.7362 H   0  0  0  0  0  0  0  0  0  0  0  0
   -0.2645   13.2334    0.3842 H   0  0  0  0  0  0  0  0  0  0  0  0
    0.4355   14.0959   -1.0275 H   0  0  0  0  0  0  0  0  0  0  0  0
   -1.3005   13.6344   -1.0275 H   0  0  0  0  0  0  0  0  0  0  0  0
    0.2958    9.9267   -0.9247 H   0  0  0  0  0  0  0  0  0  0  0  0
   -1.9451   10.8565   -0.0604 H   0  0  0  0  0  0  0  0  0  0  0  0
   -1.0419    9.5406    0.8573 H   0  0  0  0  0  0  0  0  0  0  0  0
   -2.1147   11.4540    2.3169 H   0  0  0  0  0  0  0  0  0  0  0  0
    1.5332   12.8940    1.3567 H   0  0  0  0  0  0  0  0  0  0  0  0
    2.1076   10.6495    3.3871 H   0  0  0  0  0  0  0  0  0  0  0  0
    3.3306   11.7029    2.5469 H   0  0  0  0  0  0  0  0  0  0  0  0
    2.9315   12.4117    4.8839 H   0  0  0  0  0  0  0  0  0  0  0  0
    2.4580   13.6678    3.6737 H   0  0  0  0  0  0  0  0  0  0  0  0
    0.7688   13.5631    5.3761 H   0  0  0  0  0  0  0  0  0  0  0  0
    1.3620   11.2180    5.8020 H   0  0  0  0  0  0  0  0  0  0  0  0
   -0.1383   15.1240    3.9589 H   0  0  0  0  0  0  0  0  0  0  0  0
    0.7223   14.5556    2.4883 H   0  0  0  0  0  0  0  0  0  0  0  0
   -1.0696   14.6807    2.4883 H   0  0  0  0  0  0  0  0  0  0  0  0
   -1.5333   12.8692    5.3904 H   0  0  0  0  0  0  0  0  0  0  0  0
   -2.3077   13.7019    3.9999 H   0  0  0  0  0  0  0  0  0  0  0  0
   -2.1484   11.9127    3.9999 H   0  0  0  0  0  0  0  0  0  0  0  0
    1.7570    9.4845    2.2339 H   0  0  0  0  0  0  0  0  0  0  0  0
    0.9720    8.7959    0.7724 H   0  0  0  0  0  0  0  0  0  0  0  0
    2.7377    9.1257    0.7724 H   0  0  0  0  0  0  0  0  0  0  0  0
    3.5003   11.7380    0.4794 H   0  0  0  0  0  0  0  0  0  0  0  0
    3.0821   10.4090   -0.7428 H   0  0  0  0  0  0  0  0  0  0  0  0
    2.3626   13.3493   -0.8911 H   0  0  0  0  0  0  0  0  0  0  0  0
    3.4708   12.4035   -1.9607 H   0  0  0  0  0  0  0  0  0  0  0  0
    1.9199    9.8583   -2.1624 H   0  0  0  0  0  0  0  0  0  0  0  0
    0.8805   10.3007   -3.5590 H   0  0  0  0  0  0  0  0  0  0  0  0
    2.6213   10.7439   -3.5590 H   0  0  0  0  0  0  0  0  0  0  0  0
  1  2  1  0
  2  3  1  0
  3  4  1  0
  4  5  1  0
  5  6  1  0
  6  7  1  0
  7  8  1  0
  7  9  1  0
  2 10  1  0
 10 11  1  0
 11 12  1  0
 12 13  1  0
 13 14  1  1
 13 15  1  0
 15 16  1  0
 16 17  1  0
 17 18  2  0
 18 19  1  0
 19 20  1  0
 20 21  1  0
 21 22  1  0
 22 23  1  0
 22 24  1  0
 24 25  1  0
 24 26  1  0
 19 27  1  0
 27 28  1  1
 27 29  1  0
 29 30  1  0
 30 31  1  0
 31 32  1  6
  7  5  1  0
 31 10  1  0
 31 13  1  0
 27 15  1  0
 24 18  1  0
  1 33  1  0
  1 34  1  0
  1 35  1  0
  2 36  1  1
  3 37  1  0
  3 38  1  0
  4 39  1  0
  4 40  1  0
  5 41  1  6
  8 42  1  0
  8 43  1  0
  8 44  1  0
  9 45  1  0
  9 46  1  0
  9 47  1  0
 10 48  1  1
 11 49  1  0
 11 50  1  0
 12 51  1  0
 12 52  1  0
 14 53  1  0
 14 54  1  0
 14 55  1  0
 15 56  1  6
 16 57  1  0
 16 58  1  0
 17 59  1  0
 19 60  1  6
 20 61  1  0
 20 62  1  0
 21 63  1  0
 21 64  1  0
 22 65  1  1
 23 66  1  0
 25 67  1  0
 25 68  1  0
 25 69  1  0
 26 70  1  0
 26 71  1  0
 26 72  1  0
 28 73  1  0
 28 74  1  0
 28 75  1  0
 29 76  1  0
 29 77  1  0
 30 78  1  0
 30 79  1  0
 32 80  1  0
 32 81  1  0
 32 82  1  0
M  END
>  <meeko>  (11) 
{"is_sidechain": [false], "intermolecular_energy": 2.731, "internal_energy": -0.839}

$$$$
EPH_relaxed_0001_pdb2pqr_Repair_265_r2_0001_out
     RDKit          3D

 82 86  0  0  0  0  0  0  0  0999 V2000
    3.2100   12.1760   -5.4950 C   0  0  0  0  0  0  0  0  0  0  0  0
    1.7510   12.6190   -5.6310 C   0  0  2  0  0  0  0  0  0  0  0  0
    1.6270   14.1270   -5.9300 C   0  0  0  0  0  0  0  0  0  0  0  0
    0.7710   14.4420   -7.1600 C   0  0  0  0  0  0  0  0  0  0  0  0
    0.9460   15.8610   -7.6080 C   0  0  2  0  0  0  0  0  0  0  0  0
   -0.0640   16.3330   -8.5090 O   0  0  0  0  0  0  0  0  0  0  0  0
    1.2700   16.2540   -9.0370 C   0  0  0  0  0  0  0  0  0  0  0  0
    1.4390   15.2240  -10.1100 C   0  0  0  0  0  0  0  0  0  0  0  0
    1.9000   17.5880   -9.2880 C   0  0  0  0  0  0  0  0  0  0  0  0
    0.9830   12.2750   -4.3600 C   0  0  1  0  0  0  0  0  0  0  0  0
   -0.0940   11.1820   -4.5900 C   0  0  0  0  0  0  0  0  0  0  0  0
   -0.1480   10.3280   -3.2970 C   0  0  0  0  0  0  0  0  0  0  0  0
    0.6470   11.1490   -2.2550 C   0  0  1  0  0  0  0  0  0  0  0  0
   -0.3590   12.2230   -1.7370 C   0  0  0  0  0  0  0  0  0  0  0  0
    1.2830   10.3390   -1.0780 C   0  0  2  0  0  0  0  0  0  0  0  0
    0.2780    9.6140   -0.1670 C   0  0  0  0  0  0  0  0  0  0  0  0
   -0.2040   10.4020    1.0060 C   0  0  0  0  0  0  0  0  0  0  0  0
    0.3630   11.5270    1.4780 C   0  0  0  0  0  0  0  0  0  0  0  0
    1.6680   12.0650    0.8750 C   0  0  1  0  0  0  0  0  0  0  0  0
    2.6470   12.4450    2.0160 C   0  0  0  0  0  0  0  0  0  0  0  0
    2.0280   13.4110    3.0220 C   0  0  0  0  0  0  0  0  0  0  0  0
    0.7660   12.8170    3.6420 C   0  0  2  0  0  0  0  0  0  0  0  0
    1.1330   11.6890    4.4430 O   0  0  0  0  0  0  0  0  0  0  0  0
   -0.2920   12.3870    2.5880 C   0  0  0  0  0  0  0  0  0  0  0  0
   -0.9090   13.6440    1.9270 C   0  0  0  0  0  0  0  0  0  0  0  0
   -1.4510   11.6760    3.3360 C   0  0  0  0  0  0  0  0  0  0  0  0
    2.3470   11.1510   -0.2330 C   0  0  1  0  0  0  0  0  0  0  0  0
    3.2770   10.0980    0.4420 C   0  0  0  0  0  0  0  0  0  0  0  0
    3.2740   12.0450   -1.1390 C   0  0  0  0  0  0  0  0  0  0  0  0
    2.6120   12.7220   -2.3550 C   0  0  0  0  0  0  0  0  0  0  0  0
    1.7960   11.7130   -3.1680 C   0  0  2  0  0  0  0  0  0  0  0  0
    2.7860   10.6310   -3.7200 C   0  0  0  0  0  0  0  0  0  0  0  0
    3.4713   12.0967   -4.4294 H   0  0  0  0  0  0  0  0  0  0  0  0
    3.3426   11.1971   -5.9789 H   0  0  0  0  0  0  0  0  0  0  0  0
    3.8645   12.9159   -5.9789 H   0  0  0  0  0  0  0  0  0  0  0  0
    1.3188   12.0769   -6.4850 H   0  0  0  0  0  0  0  0  0  0  0  0
    1.1737   14.6182   -5.0563 H   0  0  0  0  0  0  0  0  0  0  0  0
    2.6411   14.4976   -6.1405 H   0  0  0  0  0  0  0  0  0  0  0  0
    1.0646   13.7704   -7.9802 H   0  0  0  0  0  0  0  0  0  0  0  0
   -0.2851   14.2955   -6.8896 H   0  0  0  0  0  0  0  0  0  0  0  0
    1.4058   16.1323   -6.6462 H   0  0  0  0  0  0  0  0  0  0  0  0
    1.6008   14.2381   -9.6497 H   0  0  0  0  0  0  0  0  0  0  0  0
    0.5339   15.1931  -10.7344 H   0  0  0  0  0  0  0  0  0  0  0  0
    2.3065   15.4839  -10.7344 H   0  0  0  0  0  0  0  0  0  0  0  0
    2.1286   18.0721   -8.3271 H   0  0  0  0  0  0  0  0  0  0  0  0
    2.8294   17.4527   -9.8607 H   0  0  0  0  0  0  0  0  0  0  0  0
    1.2051   18.2198   -9.8607 H   0  0  0  0  0  0  0  0  0  0  0  0
    0.5872   13.2702   -4.1091 H   0  0  0  0  0  0  0  0  0  0  0  0
   -1.0726   11.6480   -4.7773 H   0  0  0  0  0  0  0  0  0  0  0  0
    0.1538   10.5609   -5.4634 H   0  0  0  0  0  0  0  0  0  0  0  0
   -1.1881   10.1861   -2.9683 H   0  0  0  0  0  0  0  0  0  0  0  0
    0.2711    9.3216   -3.4435 H   0  0  0  0  0  0  0  0  0  0  0  0
   -0.3600   12.2241   -0.6370 H   0  0  0  0  0  0  0  0  0  0  0  0
   -0.0576   13.2151   -2.1044 H   0  0  0  0  0  0  0  0  0  0  0  0
   -1.3686   11.9871   -2.1044 H   0  0  0  0  0  0  0  0  0  0  0  0
    1.8324    9.5464   -1.6071 H   0  0  0  0  0  0  0  0  0  0  0  0
   -0.5967    9.3410   -0.7756 H   0  0  0  0  0  0  0  0  0  0  0  0
    0.8139    8.7477    0.2481 H   0  0  0  0  0  0  0  0  0  0  0  0
   -1.0983   10.0314    1.5284 H   0  0  0  0  0  0  0  0  0  0  0  0
    1.3924   12.9646    0.3051 H   0  0  0  0  0  0  0  0  0  0  0  0
    2.9444   11.5277    2.5453 H   0  0  0  0  0  0  0  0  0  0  0  0
    3.5121   12.9481    1.5594 H   0  0  0  0  0  0  0  0  0  0  0  0
    2.7577   13.6178    3.8187 H   0  0  0  0  0  0  0  0  0  0  0  0
    1.7584   14.3396    2.4975 H   0  0  0  0  0  0  0  0  0  0  0  0
    0.2978   13.6031    4.2526 H   0  0  0  0  0  0  0  0  0  0  0  0
    0.4980   10.9770    4.2570 H   0  0  0  0  0  0  0  0  0  0  0  0
   -1.2502   14.3391    2.7083 H   0  0  0  0  0  0  0  0  0  0  0  0
   -0.1513   14.1387    1.3016 H   0  0  0  0  0  0  0  0  0  0  0  0
   -1.7638   13.3472    1.3016 H   0  0  0  0  0  0  0  0  0  0  0  0
   -1.2987   11.7694    4.4214 H   0  0  0  0  0  0  0  0  0  0  0  0
   -2.4075   12.1429    3.0584 H   0  0  0  0  0  0  0  0  0  0  0  0
   -1.4682   10.6117    3.0584 H   0  0  0  0  0  0  0  0  0  0  0  0
    3.1985   10.1869    1.5356 H   0  0  0  0  0  0  0  0  0  0  0  0
    2.9713    9.0874    0.1334 H   0  0  0  0  0  0  0  0  0  0  0  0
    4.3176   10.2765    0.1334 H   0  0  0  0  0  0  0  0  0  0  0  0
    3.6945   12.8388   -0.5041 H   0  0  0  0  0  0  0  0  0  0  0  0
    4.0162   11.3528   -1.5633 H   0  0  0  0  0  0  0  0  0  0  0  0
    1.9454   13.5228   -2.0022 H   0  0  0  0  0  0  0  0  0  0  0  0
    3.4021   13.1344   -2.9997 H   0  0  0  0  0  0  0  0  0  0  0  0
    3.2643   10.1083   -2.8785 H   0  0  0  0  0  0  0  0  0  0  0  0
    2.2317    9.9063   -4.3345 H   0  0  0  0  0  0  0  0  0  0  0  0
    3.5570   11.1189   -4.3345 H   0  0  0  0  0  0  0  0  0  0  0  0
  1  2  1  0
  2  3  1  0
  3  4  1  0
  4  5  1  0
  5  6  1  0
  6  7  1  0
  7  8  1  0
  7  9  1  0
  2 10  1  0
 10 11  1  0
 11 12  1  0
 12 13  1  0
 13 14  1  1
 13 15  1  0
 15 16  1  0
 16 17  1  0
 17 18  2  0
 18 19  1  0
 19 20  1  0
 20 21  1  0
 21 22  1  0
 22 23  1  0
 22 24  1  0
 24 25  1  0
 24 26  1  0
 19 27  1  0
 27 28  1  1
 27 29  1  0
 29 30  1  0
 30 31  1  0
 31 32  1  6
  7  5  1  0
 31 10  1  0
 31 13  1  0
 27 15  1  0
 24 18  1  0
  1 33  1  0
  1 34  1  0
  1 35  1  0
  2 36  1  6
  3 37  1  0
  3 38  1  0
  4 39  1  0
  4 40  1  0
  5 41  1  1
  8 42  1  0
  8 43  1  0
  8 44  1  0
  9 45  1  0
  9 46  1  0
  9 47  1  0
 10 48  1  1
 11 49  1  0
 11 50  1  0
 12 51  1  0
 12 52  1  0
 14 53  1  0
 14 54  1  0
 14 55  1  0
 15 56  1  6
 16 57  1  0
 16 58  1  0
 17 59  1  0
 19 60  1  6
 20 61  1  0
 20 62  1  0
 21 63  1  0
 21 64  1  0
 22 65  1  1
 23 66  1  0
 25 67  1  0
 25 68  1  0
 25 69  1  0
 26 70  1  0
 26 71  1  0
 26 72  1  0
 28 73  1  0
 28 74  1  0
 28 75  1  0
 29 76  1  0
 29 77  1  0
 30 78  1  0
 30 79  1  0
 32 80  1  0
 32 81  1  0
 32 82  1  0
M  END
>  <meeko>  (12) 
{"is_sidechain": [false], "intermolecular_energy": 2.731, "internal_energy": -0.839}

$$$$
EPH_relaxed_0001_pdb2pqr_Repair_265_r2_0001_out
     RDKit          3D

 82 86  0  0  0  0  0  0  0  0999 V2000
    3.4340   14.1580   -7.4490 C   0  0  0  0  0  0  0  0  0  0  0  0
    1.9970   13.7060   -7.1710 C   0  0  2  0  0  0  0  0  0  0  0  0
    1.0840   14.8840   -6.7750 C   0  0  0  0  0  0  0  0  0  0  0  0
    0.7040   15.7900   -7.9500 C   0  0  0  0  0  0  0  0  0  0  0  0
    1.8290   15.9280   -8.9300 C   0  0  2  0  0  0  0  0  0  0  0  0
    1.5910   16.8680   -9.9860 O   0  0  0  0  0  0  0  0  0  0  0  0
    1.7340   15.4940  -10.3800 C   0  0  0  0  0  0  0  0  0  0  0  0
    0.4830   14.8850  -10.9320 C   0  0  0  0  0  0  0  0  0  0  0  0
    3.0000   15.2090  -11.1270 C   0  0  0  0  0  0  0  0  0  0  0  0
    1.9880   12.6480   -6.0740 C   0  0  1  0  0  0  0  0  0  0  0  0
    3.4090   12.1220   -5.7400 C   0  0  0  0  0  0  0  0  0  0  0  0
    3.4320   11.8310   -4.2170 C   0  0  0  0  0  0  0  0  0  0  0  0
    1.9470   11.8810   -3.7880 C   0  0  1  0  0  0  0  0  0  0  0  0
    1.3710   10.4820   -4.1740 C   0  0  0  0  0  0  0  0  0  0  0  0
    1.6720   12.2240   -2.2880 C   0  0  2  0  0  0  0  0  0  0  0  0
    2.2310   11.2110   -1.2730 C   0  0  0  0  0  0  0  0  0  0  0  0
    1.3020   10.1050   -0.8990 C   0  0  0  0  0  0  0  0  0  0  0  0
   -0.0230   10.0840   -1.1330 C   0  0  0  0  0  0  0  0  0  0  0  0
   -0.7340   11.2950   -1.7510 C   0  0  1  0  0  0  0  0  0  0  0  0
   -2.0280   11.5990   -0.9520 C   0  0  0  0  0  0  0  0  0  0  0  0
   -2.9430   10.3830   -0.8360 C   0  0  0  0  0  0  0  0  0  0  0  0
   -2.2190    9.2190   -0.1640 C   0  0  2  0  0  0  0  0  0  0  0  0
   -1.9500    9.5670    1.1970 O   0  0  0  0  0  0  0  0  0  0  0  0
   -0.8940    8.8290   -0.8760 C   0  0  0  0  0  0  0  0  0  0  0  0
   -1.2110    8.1690   -2.2410 C   0  0  0  0  0  0  0  0  0  0  0  0
   -0.1940    7.7390   -0.0190 C   0  0  0  0  0  0  0  0  0  0  0  0
    0.1650   12.5870   -1.9710 C   0  0  1  0  0  0  0  0  0  0  0  0
    0.1780   13.4540   -0.6750 C   0  0  0  0  0  0  0  0  0  0  0  0
   -0.4840   13.4790   -3.0950 C   0  0  0  0  0  0  0  0  0  0  0  0
   -0.0810   13.1680   -4.5490 C   0  0  0  0  0  0  0  0  0  0  0  0
    1.4410   13.0680   -4.6860 C   0  0  2  0  0  0  0  0  0  0  0  0
    2.0470   14.4670   -4.3260 C   0  0  0  0  0  0  0  0  0  0  0  0
    3.9575   14.3227   -6.4957 H   0  0  0  0  0  0  0  0  0  0  0  0
    3.9577   13.3812   -8.0255 H   0  0  0  0  0  0  0  0  0  0  0  0
    3.4187   15.0947   -8.0255 H   0  0  0  0  0  0  0  0  0  0  0  0
    1.5984   13.2785   -8.1028 H   0  0  0  0  0  0  0  0  0  0  0  0
    0.1606   14.4761   -6.3381 H   0  0  0  0  0  0  0  0  0  0  0  0
    1.6482   15.5024   -6.0614 H   0  0  0  0  0  0  0  0  0  0  0  0
   -0.1669   15.3588   -8.4654 H   0  0  0  0  0  0  0  0  0  0  0  0
    0.4718   16.7887   -7.5517 H   0  0  0  0  0  0  0  0  0  0  0  0
    2.5698   15.7182   -8.1444 H   0  0  0  0  0  0  0  0  0  0  0  0
   -0.1673   14.5684  -10.1032 H   0  0  0  0  0  0  0  0  0  0  0  0
   -0.0446   15.6271  -11.5492 H   0  0  0  0  0  0  0  0  0  0  0  0
    0.7416   14.0120  -11.5492 H   0  0  0  0  0  0  0  0  0  0  0  0
    3.8148   15.0256  -10.4111 H   0  0  0  0  0  0  0  0  0  0  0  0
    2.8604   14.3198  -11.7593 H   0  0  0  0  0  0  0  0  0  0  0  0
    3.2549   16.0722  -11.7593 H   0  0  0  0  0  0  0  0  0  0  0  0
    1.3166   11.9089   -6.5355 H   0  0  0  0  0  0  0  0  0  0  0  0
    3.6143   11.2007   -6.3048 H   0  0  0  0  0  0  0  0  0  0  0  0
    4.1775   12.8603   -6.0126 H   0  0  0  0  0  0  0  0  0  0  0  0
    3.8605   10.8377   -4.0178 H   0  0  0  0  0  0  0  0  0  0  0  0
    4.0507   12.5528   -3.6636 H   0  0  0  0  0  0  0  0  0  0  0  0
    1.1381    9.9164   -3.2597 H   0  0  0  0  0  0  0  0  0  0  0  0
    0.4540   10.6139   -4.7671 H   0  0  0  0  0  0  0  0  0  0  0  0
    2.1150    9.9301   -4.7671 H   0  0  0  0  0  0  0  0  0  0  0  0
    2.2585   13.1437   -2.1464 H   0  0  0  0  0  0  0  0  0  0  0  0
    3.1376   10.7620   -1.7049 H   0  0  0  0  0  0  0  0  0  0  0  0
    2.4175   11.7775   -0.3487 H   0  0  0  0  0  0  0  0  0  0  0  0
    1.7370    9.2330   -0.3888 H   0  0  0  0  0  0  0  0  0  0  0  0
   -0.9911   11.0049   -2.7804 H   0  0  0  0  0  0  0  0  0  0  0  0
   -1.7487   11.9280    0.0598 H   0  0  0  0  0  0  0  0  0  0  0  0
   -2.5793   12.3814   -1.4941 H   0  0  0  0  0  0  0  0  0  0  0  0
   -3.8256   10.6522   -0.2372 H   0  0  0  0  0  0  0  0  0  0  0  0
   -3.2450   10.0725   -1.8471 H   0  0  0  0  0  0  0  0  0  0  0  0
   -2.8783    8.3406   -0.2259 H   0  0  0  0  0  0  0  0  0  0  0  0
   -1.0340    9.3040    1.3920 H   0  0  0  0  0  0  0  0  0  0  0  0
   -1.6817    7.1889   -2.0739 H   0  0  0  0  0  0  0  0  0  0  0  0
   -1.8978    8.8135   -2.8092 H   0  0  0  0  0  0  0  0  0  0  0  0
   -0.2786    8.0358   -2.8092 H   0  0  0  0  0  0  0  0  0  0  0  0
   -0.3380    7.9632    1.0483 H   0  0  0  0  0  0  0  0  0  0  0  0
   -0.6299    6.7556   -0.2492 H   0  0  0  0  0  0  0  0  0  0  0  0
    0.8816    7.7263   -0.2492 H   0  0  0  0  0  0  0  0  0  0  0  0
    0.1681   12.7960    0.2064 H   0  0  0  0  0  0  0  0  0  0  0  0
    1.0856   14.0753   -0.6586 H   0  0  0  0  0  0  0  0  0  0  0  0
   -0.7105   14.1023   -0.6586 H   0  0  0  0  0  0  0  0  0  0  0  0
   -1.5756   13.3654   -3.0209 H   0  0  0  0  0  0  0  0  0  0  0  0
   -0.1119   14.4966   -2.9050 H   0  0  0  0  0  0  0  0  0  0  0  0
   -0.5332   12.2118   -4.8512 H   0  0  0  0  0  0  0  0  0  0  0  0
   -0.4386   13.9838   -5.1944 H   0  0  0  0  0  0  0  0  0  0  0  0
    2.0941   14.5758   -3.2324 H   0  0  0  0  0  0  0  0  0  0  0  0
    3.0604   14.5468   -4.7464 H   0  0  0  0  0  0  0  0  0  0  0  0
    1.4121   15.2608   -4.7464 H   0  0  0  0  0  0  0  0  0  0  0  0
  1  2  1  0
  2  3  1  0
  3  4  1  0
  4  5  1  0
  5  6  1  0
  6  7  1  0
  7  8  1  0
  7  9  1  0
  2 10  1  0
 10 11  1  0
 11 12  1  0
 12 13  1  0
 13 14  1  6
 13 15  1  0
 15 16  1  0
 16 17  1  0
 17 18  2  0
 18 19  1  0
 19 20  1  0
 20 21  1  0
 21 22  1  0
 22 23  1  0
 22 24  1  0
 24 25  1  0
 24 26  1  0
 19 27  1  0
 27 28  1  1
 27 29  1  0
 29 30  1  0
 30 31  1  0
 31 32  1  1
  7  5  1  0
 31 10  1  0
 31 13  1  0
 27 15  1  0
 24 18  1  0
  1 33  1  0
  1 34  1  0
  1 35  1  0
  2 36  1  6
  3 37  1  0
  3 38  1  0
  4 39  1  0
  4 40  1  0
  5 41  1  1
  8 42  1  0
  8 43  1  0
  8 44  1  0
  9 45  1  0
  9 46  1  0
  9 47  1  0
 10 48  1  6
 11 49  1  0
 11 50  1  0
 12 51  1  0
 12 52  1  0
 14 53  1  0
 14 54  1  0
 14 55  1  0
 15 56  1  1
 16 57  1  0
 16 58  1  0
 17 59  1  0
 19 60  1  6
 20 61  1  0
 20 62  1  0
 21 63  1  0
 21 64  1  0
 22 65  1  1
 23 66  1  0
 25 67  1  0
 25 68  1  0
 25 69  1  0
 26 70  1  0
 26 71  1  0
 26 72  1  0
 28 73  1  0
 28 74  1  0
 28 75  1  0
 29 76  1  0
 29 77  1  0
 30 78  1  0
 30 79  1  0
 32 80  1  0
 32 81  1  0
 32 82  1  0
M  END
>  <meeko>  (13) 
{"is_sidechain": [false], "intermolecular_energy": 2.731, "internal_energy": -0.839}

$$$$
EPH_relaxed_0001_pdb2pqr_Repair_265_r2_0001_out
     RDKit          3D

 82 86  0  0  0  0  0  0  0  0999 V2000
    3.9700    9.7690   -4.6530 C   0  0  0  0  0  0  0  0  0  0  0  0
    3.6130   11.1120   -5.2970 C   0  0  2  0  0  0  0  0  0  0  0  0
    4.8640   11.8920   -5.7460 C   0  0  0  0  0  0  0  0  0  0  0  0
    6.1800   11.1620   -5.4600 C   0  0  0  0  0  0  0  0  0  0  0  0
    6.3470   10.8730   -3.9990 C   0  0  2  0  0  0  0  0  0  0  0  0
    7.1520   11.8230   -3.2880 O   0  0  0  0  0  0  0  0  0  0  0  0
    7.6720   10.4860   -3.3690 C   0  0  0  0  0  0  0  0  0  0  0  0
    8.9200   10.3670   -4.1870 C   0  0  0  0  0  0  0  0  0  0  0  0
    7.6570    9.7530   -2.0640 C   0  0  0  0  0  0  0  0  0  0  0  0
    2.7950   11.9530   -4.3240 C   0  0  1  0  0  0  0  0  0  0  0  0
    1.9180   13.0130   -5.0420 C   0  0  0  0  0  0  0  0  0  0  0  0
    0.6100   13.1430   -4.2190 C   0  0  0  0  0  0  0  0  0  0  0  0
    0.9110   12.4120   -2.8900 C   0  0  1  0  0  0  0  0  0  0  0  0
    1.7020   13.4490   -2.0320 C   0  0  0  0  0  0  0  0  0  0  0  0
   -0.3240   11.8460   -2.1170 C   0  0  2  0  0  0  0  0  0  0  0  0
   -1.3370   12.9030   -1.6420 C   0  0  0  0  0  0  0  0  0  0  0  0
   -1.0890   13.4540   -0.2770 C   0  0  0  0  0  0  0  0  0  0  0  0
   -0.2700   12.9180    0.6470 C   0  0  0  0  0  0  0  0  0  0  0  0
    0.4370   11.5800    0.3910 C   0  0  1  0  0  0  0  0  0  0  0  0
    0.2930   10.6710    1.6390 C   0  0  0  0  0  0  0  0  0  0  0  0
    0.7740   11.3500    2.9170 C   0  0  0  0  0  0  0  0  0  0  0  0
    0.0080   12.6460    3.1680 C   0  0  2  0  0  0  0  0  0  0  0  0
   -1.3580   12.3260    3.4530 O   0  0  0  0  0  0  0  0  0  0  0  0
    0.0730   13.6380    1.9740 C   0  0  0  0  0  0  0  0  0  0  0  0
    1.5050   14.2170    1.8560 C   0  0  0  0  0  0  0  0  0  0  0  0
   -0.8550   14.8400    2.2990 C   0  0  0  0  0  0  0  0  0  0  0  0
    0.0440   10.8350   -0.9570 C   0  0  1  0  0  0  0  0  0  0  0  0
   -1.2150    9.9450   -0.7240 C   0  0  0  0  0  0  0  0  0  0  0  0
    1.2100    9.8570   -1.3620 C   0  0  0  0  0  0  0  0  0  0  0  0
    2.3410   10.4460   -2.2260 C   0  0  0  0  0  0  0  0  0  0  0  0
    1.7740   11.2110   -3.4260 C   0  0  2  0  0  0  0  0  0  0  0  0
    0.9920   10.1890   -4.3190 C   0  0  0  0  0  0  0  0  0  0  0  0
    3.9434    9.8689   -3.5579 H   0  0  0  0  0  0  0  0  0  0  0  0
    3.2435    9.0060   -4.9693 H   0  0  0  0  0  0  0  0  0  0  0  0
    4.9795    9.4675   -4.9693 H   0  0  0  0  0  0  0  0  0  0  0  0
    3.0171   10.8997   -6.1969 H   0  0  0  0  0  0  0  0  0  0  0  0
    4.7930   12.0684   -6.8294 H   0  0  0  0  0  0  0  0  0  0  0  0
    4.8836   12.8282   -5.1689 H   0  0  0  0  0  0  0  0  0  0  0  0
    6.1886   10.2121   -6.0146 H   0  0  0  0  0  0  0  0  0  0  0  0
    7.0088   11.8116   -5.7781 H   0  0  0  0  0  0  0  0  0  0  0  0
    5.3462   10.4190   -3.9507 H   0  0  0  0  0  0  0  0  0  0  0  0
    9.7899   10.2841   -3.5188 H   0  0  0  0  0  0  0  0  0  0  0  0
    8.8584    9.4707   -4.8216 H   0  0  0  0  0  0  0  0  0  0  0  0
    9.0289   11.2588   -4.8216 H   0  0  0  0  0  0  0  0  0  0  0  0
    7.6718   10.4774   -1.2364 H   0  0  0  0  0  0  0  0  0  0  0  0
    6.7461    9.1398   -1.9983 H   0  0  0  0  0  0  0  0  0  0  0  0
    8.5420    9.1031   -1.9983 H   0  0  0  0  0  0  0  0  0  0  0  0
    3.6080   12.3642   -3.7076 H   0  0  0  0  0  0  0  0  0  0  0  0
    2.4425   13.9793   -5.0749 H   0  0  0  0  0  0  0  0  0  0  0  0
    1.7044   12.7126   -6.0784 H   0  0  0  0  0  0  0  0  0  0  0  0
    0.3706   14.2007   -4.0348 H   0  0  0  0  0  0  0  0  0  0  0  0
   -0.2571   12.7150   -4.7434 H   0  0  0  0  0  0  0  0  0  0  0  0
    1.5421   13.2394   -0.9641 H   0  0  0  0  0  0  0  0  0  0  0  0
    2.7747   13.3744   -2.2637 H   0  0  0  0  0  0  0  0  0  0  0  0
    1.3465   14.4639   -2.2637 H   0  0  0  0  0  0  0  0  0  0  0  0
   -0.8416   11.2642   -2.8939 H   0  0  0  0  0  0  0  0  0  0  0  0
   -1.3153   13.7398   -2.3557 H   0  0  0  0  0  0  0  0  0  0  0  0
   -2.3100   12.3922   -1.5924 H   0  0  0  0  0  0  0  0  0  0  0  0
   -1.6210   14.3769   -0.0028 H   0  0  0  0  0  0  0  0  0  0  0  0
    1.4974   11.8225    0.2274 H   0  0  0  0  0  0  0  0  0  0  0  0
   -0.7671   10.4034    1.7596 H   0  0  0  0  0  0  0  0  0  0  0  0
    0.9198    9.7816    1.4778 H   0  0  0  0  0  0  0  0  0  0  0  0
    0.6180   10.6693    3.7669 H   0  0  0  0  0  0  0  0  0  0  0  0
    1.8420   11.5893    2.8067 H   0  0  0  0  0  0  0  0  0  0  0  0
    0.4851   13.1507    4.0210 H   0  0  0  0  0  0  0  0  0  0  0  0
   -1.6560   11.6860    2.7840 H   0  0  0  0  0  0  0  0  0  0  0  0
    1.9172   14.3837    2.8621 H   0  0  0  0  0  0  0  0  0  0  0  0
    2.1440   13.5066    1.3110 H   0  0  0  0  0  0  0  0  0  0  0  0
    1.4707   15.1719    1.3110 H   0  0  0  0  0  0  0  0  0  0  0  0
   -0.9415   14.9520    3.3899 H   0  0  0  0  0  0  0  0  0  0  0  0
   -0.4295   15.7586    1.8687 H   0  0  0  0  0  0  0  0  0  0  0  0
   -1.8514   14.6608    1.8687 H   0  0  0  0  0  0  0  0  0  0  0  0
   -1.3845    9.8252    0.3562 H   0  0  0  0  0  0  0  0  0  0  0  0
   -2.0928   10.4244   -1.1819 H   0  0  0  0  0  0  0  0  0  0  0  0
   -1.0559    8.9576   -1.1819 H   0  0  0  0  0  0  0  0  0  0  0  0
    1.6631    9.4770   -0.4345 H   0  0  0  0  0  0  0  0  0  0  0  0
    0.7365    9.0892   -1.9915 H   0  0  0  0  0  0  0  0  0  0  0  0
    2.9416   11.1335   -1.6123 H   0  0  0  0  0  0  0  0  0  0  0  0
    2.9631    9.6194   -2.5997 H   0  0  0  0  0  0  0  0  0  0  0  0
    0.4496    9.4802   -3.6760 H   0  0  0  0  0  0  0  0  0  0  0  0
    0.2753   10.7303   -4.9541 H   0  0  0  0  0  0  0  0  0  0  0  0
    1.7019    9.6388   -4.9541 H   0  0  0  0  0  0  0  0  0  0  0  0
  1  2  1  0
  2  3  1  0
  3  4  1  0
  4  5  1  0
  5  6  1  0
  6  7  1  0
  7  8  1  0
  7  9  1  0
  2 10  1  0
 10 11  1  0
 11 12  1  0
 12 13  1  0
 13 14  1  1
 13 15  1  0
 15 16  1  0
 16 17  1  0
 17 18  2  0
 18 19  1  0
 19 20  1  0
 20 21  1  0
 21 22  1  0
 22 23  1  0
 22 24  1  0
 24 25  1  0
 24 26  1  0
 19 27  1  0
 27 28  1  1
 27 29  1  0
 29 30  1  0
 30 31  1  0
 31 32  1  6
  7  5  1  0
 31 10  1  0
 31 13  1  0
 27 15  1  0
 24 18  1  0
  1 33  1  0
  1 34  1  0
  1 35  1  0
  2 36  1  6
  3 37  1  0
  3 38  1  0
  4 39  1  0
  4 40  1  0
  5 41  1  1
  8 42  1  0
  8 43  1  0
  8 44  1  0
  9 45  1  0
  9 46  1  0
  9 47  1  0
 10 48  1  1
 11 49  1  0
 11 50  1  0
 12 51  1  0
 12 52  1  0
 14 53  1  0
 14 54  1  0
 14 55  1  0
 15 56  1  6
 16 57  1  0
 16 58  1  0
 17 59  1  0
 19 60  1  6
 20 61  1  0
 20 62  1  0
 21 63  1  0
 21 64  1  0
 22 65  1  1
 23 66  1  0
 25 67  1  0
 25 68  1  0
 25 69  1  0
 26 70  1  0
 26 71  1  0
 26 72  1  0
 28 73  1  0
 28 74  1  0
 28 75  1  0
 29 76  1  0
 29 77  1  0
 30 78  1  0
 30 79  1  0
 32 80  1  0
 32 81  1  0
 32 82  1  0
M  END
>  <meeko>  (14) 
{"is_sidechain": [false], "intermolecular_energy": 2.731, "internal_energy": -0.839}

$$$$
EPH_relaxed_0001_pdb2pqr_Repair_265_r2_0001_out
     RDKit          3D

 82 86  0  0  0  0  0  0  0  0999 V2000
    1.6400   14.0180   -2.7120 C   0  0  0  0  0  0  0  0  0  0  0  0
    1.6150   13.2830   -4.0540 C   0  0  2  0  0  0  0  0  0  0  0  0
    0.8250   14.0600   -5.1270 C   0  0  0  0  0  0  0  0  0  0  0  0
    1.5530   14.1650   -6.4700 C   0  0  0  0  0  0  0  0  0  0  0  0
    1.1500   15.3970   -7.2240 C   0  0  2  0  0  0  0  0  0  0  0  0
    0.4220   15.1480   -8.4330 O   0  0  0  0  0  0  0  0  0  0  0  0
    1.7100   15.7650   -8.5850 C   0  0  0  0  0  0  0  0  0  0  0  0
    2.7210   14.9030   -9.2720 C   0  0  0  0  0  0  0  0  0  0  0  0
    1.6450   17.1960   -9.0220 C   0  0  0  0  0  0  0  0  0  0  0  0
    1.0180   11.8920   -3.8740 C   0  0  1  0  0  0  0  0  0  0  0  0
    2.0860   10.7680   -3.9530 C   0  0  0  0  0  0  0  0  0  0  0  0
    1.6470    9.6630   -2.9580 C   0  0  0  0  0  0  0  0  0  0  0  0
    0.1890   10.0260   -2.5900 C   0  0  1  0  0  0  0  0  0  0  0  0
   -0.6710    9.4790   -3.7720 C   0  0  0  0  0  0  0  0  0  0  0  0
   -0.3260    9.5020   -1.2100 C   0  0  2  0  0  0  0  0  0  0  0  0
   -0.3660    7.9700   -1.0680 C   0  0  0  0  0  0  0  0  0  0  0  0
   -1.6490    7.3250   -1.4750 C   0  0  0  0  0  0  0  0  0  0  0  0
   -2.8190    7.9620   -1.6660 C   0  0  0  0  0  0  0  0  0  0  0  0
   -2.9550    9.4620   -1.3760 C   0  0  1  0  0  0  0  0  0  0  0  0
   -4.2510    9.7160   -0.5610 C   0  0  0  0  0  0  0  0  0  0  0  0
   -5.4900    9.1380   -1.2380 C   0  0  0  0  0  0  0  0  0  0  0  0
   -5.3400    7.6350   -1.4570 C   0  0  2  0  0  0  0  0  0  0  0  0
   -5.3190    6.9830   -0.1840 O   0  0  0  0  0  0  0  0  0  0  0  0
   -4.0630    7.2570   -2.2590 C   0  0  0  0  0  0  0  0  0  0  0  0
   -4.2220    7.7070   -3.7320 C   0  0  0  0  0  0  0  0  0  0  0  0
   -3.9580    5.7080   -2.2870 C   0  0  0  0  0  0  0  0  0  0  0  0
   -1.6820   10.1620   -0.7310 C   0  0  1  0  0  0  0  0  0  0  0  0
   -1.7240   10.0170    0.8210 C   0  0  0  0  0  0  0  0  0  0  0  0
   -1.7350   11.7060   -1.0350 C   0  0  0  0  0  0  0  0  0  0  0  0
   -1.1030   12.1760   -2.3590 C   0  0  0  0  0  0  0  0  0  0  0  0
    0.3020   11.5930   -2.5330 C   0  0  2  0  0  0  0  0  0  0  0  0
    1.1960   12.1440   -1.3700 C   0  0  0  0  0  0  0  0  0  0  0  0
    1.6151   13.2852   -1.8921 H   0  0  0  0  0  0  0  0  0  0  0  0
    2.5591   14.6181   -2.6396 H   0  0  0  0  0  0  0  0  0  0  0  0
    0.7638   14.6791   -2.6396 H   0  0  0  0  0  0  0  0  0  0  0  0
    2.6543   13.1992   -4.4046 H   0  0  0  0  0  0  0  0  0  0  0  0
   -0.1346   13.5478   -5.2910 H   0  0  0  0  0  0  0  0  0  0  0  0
    0.6938   15.0853   -4.7508 H   0  0  0  0  0  0  0  0  0  0  0  0
    2.6371   14.1980   -6.2863 H   0  0  0  0  0  0  0  0  0  0  0  0
    1.2827   13.2879   -7.0763 H   0  0  0  0  0  0  0  0  0  0  0  0
    1.0518   15.9662   -6.2879 H   0  0  0  0  0  0  0  0  0  0  0  0
    3.3313   14.3826   -8.5192 H   0  0  0  0  0  0  0  0  0  0  0  0
    2.2049   14.1628   -9.9010 H   0  0  0  0  0  0  0  0  0  0  0  0
    3.3703   15.5297   -9.9010 H   0  0  0  0  0  0  0  0  0  0  0  0
    1.6154   17.8486   -8.1370 H   0  0  0  0  0  0  0  0  0  0  0  0
    2.5332   17.4360   -9.6250 H   0  0  0  0  0  0  0  0  0  0  0  0
    0.7387   17.3544   -9.6250 H   0  0  0  0  0  0  0  0  0  0  0  0
    0.2884   11.8973   -4.6972 H   0  0  0  0  0  0  0  0  0  0  0  0
    2.1331   10.3614   -4.9740 H   0  0  0  0  0  0  0  0  0  0  0  0
    3.0846   11.1535   -3.6996 H   0  0  0  0  0  0  0  0  0  0  0  0
    1.6923    8.6721   -3.4334 H   0  0  0  0  0  0  0  0  0  0  0  0
    2.3003    9.6138   -2.0744 H   0  0  0  0  0  0  0  0  0  0  0  0
   -1.5358    8.9290   -3.3724 H   0  0  0  0  0  0  0  0  0  0  0  0
   -1.0237   10.3191   -4.3883 H   0  0  0  0  0  0  0  0  0  0  0  0
   -0.0597    8.8034   -4.3883 H   0  0  0  0  0  0  0  0  0  0  0  0
    0.4579    9.8463   -0.5193 H   0  0  0  0  0  0  0  0  0  0  0  0
    0.4379    7.5499   -1.6903 H   0  0  0  0  0  0  0  0  0  0  0  0
   -0.2475    7.7608    0.0054 H   0  0  0  0  0  0  0  0  0  0  0  0
   -1.6372    6.2364   -1.6322 H   0  0  0  0  0  0  0  0  0  0  0  0
   -3.0269    9.9560   -2.3562 H   0  0  0  0  0  0  0  0  0  0  0  0
   -4.1413    9.2512    0.4299 H   0  0  0  0  0  0  0  0  0  0  0  0
   -4.3894   10.8046   -0.4842 H   0  0  0  0  0  0  0  0  0  0  0  0
   -6.3677    9.3233   -0.6014 H   0  0  0  0  0  0  0  0  0  0  0  0
   -5.6152    9.6249   -2.2164 H   0  0  0  0  0  0  0  0  0  0  0  0
   -6.1984    7.3025   -2.0591 H   0  0  0  0  0  0  0  0  0  0  0  0
   -5.5390    6.0470   -0.3280 H   0  0  0  0  0  0  0  0  0  0  0  0
   -4.5883    8.7438   -3.7611 H   0  0  0  0  0  0  0  0  0  0  0  0
   -3.2485    7.6477   -4.2406 H   0  0  0  0  0  0  0  0  0  0  0  0
   -4.9421    7.0492   -4.2406 H   0  0  0  0  0  0  0  0  0  0  0  0
   -3.9319    5.3236   -1.2567 H   0  0  0  0  0  0  0  0  0  0  0  0
   -4.8299    5.2908   -2.8121 H   0  0  0  0  0  0  0  0  0  0  0  0
   -3.0377    5.4123   -2.8121 H   0  0  0  0  0  0  0  0  0  0  0  0
   -1.4467   10.9744    1.2863 H   0  0  0  0  0  0  0  0  0  0  0  0
   -2.7402    9.7371    1.1357 H   0  0  0  0  0  0  0  0  0  0  0  0
   -1.0148    9.2373    1.1357 H   0  0  0  0  0  0  0  0  0  0  0  0
   -2.7930   12.0067   -1.0462 H   0  0  0  0  0  0  0  0  0  0  0  0
   -1.1303   12.1755   -0.2451 H   0  0  0  0  0  0  0  0  0  0  0  0
   -1.7355   11.8466   -3.1965 H   0  0  0  0  0  0  0  0  0  0  0  0
   -1.0277   13.2733   -2.3416 H   0  0  0  0  0  0  0  0  0  0  0  0
    0.7499   11.8691   -0.4028 H   0  0  0  0  0  0  0  0  0  0  0  0
    2.2041   11.7103   -1.4454 H   0  0  0  0  0  0  0  0  0  0  0  0
    1.2616   13.2395   -1.4454 H   0  0  0  0  0  0  0  0  0  0  0  0
  1  2  1  0
  2  3  1  0
  3  4  1  0
  4  5  1  0
  5  6  1  0
  6  7  1  0
  7  8  1  0
  7  9  1  0
  2 10  1  0
 10 11  1  0
 11 12  1  0
 12 13  1  0
 13 14  1  6
 13 15  1  0
 15 16  1  0
 16 17  1  0
 17 18  2  0
 18 19  1  0
 19 20  1  0
 20 21  1  0
 21 22  1  0
 22 23  1  0
 22 24  1  0
 24 25  1  0
 24 26  1  0
 19 27  1  0
 27 28  1  1
 27 29  1  0
 29 30  1  0
 30 31  1  0
 31 32  1  1
  7  5  1  0
 31 10  1  0
 31 13  1  0
 27 15  1  0
 24 18  1  0
  1 33  1  0
  1 34  1  0
  1 35  1  0
  2 36  1  6
  3 37  1  0
  3 38  1  0
  4 39  1  0
  4 40  1  0
  5 41  1  1
  8 42  1  0
  8 43  1  0
  8 44  1  0
  9 45  1  0
  9 46  1  0
  9 47  1  0
 10 48  1  6
 11 49  1  0
 11 50  1  0
 12 51  1  0
 12 52  1  0
 14 53  1  0
 14 54  1  0
 14 55  1  0
 15 56  1  1
 16 57  1  0
 16 58  1  0
 17 59  1  0
 19 60  1  6
 20 61  1  0
 20 62  1  0
 21 63  1  0
 21 64  1  0
 22 65  1  6
 23 66  1  0
 25 67  1  0
 25 68  1  0
 25 69  1  0
 26 70  1  0
 26 71  1  0
 26 72  1  0
 28 73  1  0
 28 74  1  0
 28 75  1  0
 29 76  1  0
 29 77  1  0
 30 78  1  0
 30 79  1  0
 32 80  1  0
 32 81  1  0
 32 82  1  0
M  END
>  <meeko>  (15) 
{"is_sidechain": [false], "intermolecular_energy": 2.731, "internal_energy": -0.839}

$$$$
EPH_relaxed_0001_pdb2pqr_Repair_265_r2_0001_out
     RDKit          3D

 82 86  0  0  0  0  0  0  0  0999 V2000
    1.3850   13.2160   -4.6750 C   0  0  0  0  0  0  0  0  0  0  0  0
    1.5490   12.6980   -3.2430 C   0  0  2  0  0  0  0  0  0  0  0  0
    3.0320   12.5570   -2.8440 C   0  0  0  0  0  0  0  0  0  0  0  0
    3.8400   11.6580   -3.7830 C   0  0  0  0  0  0  0  0  0  0  0  0
    5.2450   11.4690   -3.2980 C   0  0  2  0  0  0  0  0  0  0  0  0
    6.2010   12.3750   -3.8640 O   0  0  0  0  0  0  0  0  0  0  0  0
    6.3780   10.9860   -4.1830 C   0  0  0  0  0  0  0  0  0  0  0  0
    6.1560   10.6600   -5.6270 C   0  0  0  0  0  0  0  0  0  0  0  0
    7.5780   10.3670   -3.5360 C   0  0  0  0  0  0  0  0  0  0  0  0
    0.8390   11.3580   -3.0900 C   0  0  1  0  0  0  0  0  0  0  0  0
    1.8260   10.1800   -2.8770 C   0  0  0  0  0  0  0  0  0  0  0  0
    1.1290    9.1820   -1.9150 C   0  0  0  0  0  0  0  0  0  0  0  0
   -0.3450    9.6470   -1.8720 C   0  0  1  0  0  0  0  0  0  0  0  0
   -0.9910    9.0500   -3.1620 C   0  0  0  0  0  0  0  0  0  0  0  0
   -1.1540    9.2620   -0.5900 C   0  0  2  0  0  0  0  0  0  0  0  0
   -1.3210    7.7510   -0.3530 C   0  0  0  0  0  0  0  0  0  0  0  0
   -2.5390    7.1400   -0.9640 C   0  0  0  0  0  0  0  0  0  0  0  0
   -3.6040    7.8190   -1.4280 C   0  0  0  0  0  0  0  0  0  0  0  0
   -3.6960    9.3420   -1.2750 C   0  0  1  0  0  0  0  0  0  0  0  0
   -5.1070    9.7260   -0.7560 C   0  0  0  0  0  0  0  0  0  0  0  0
   -6.2250    9.1590   -1.6250 C   0  0  0  0  0  0  0  0  0  0  0  0
   -6.1340    7.6370   -1.7050 C   0  0  2  0  0  0  0  0  0  0  0  0
   -6.4050    7.0900   -0.4110 O   0  0  0  0  0  0  0  0  0  0  0  0
   -4.7530    7.1320   -2.2080 C   0  0  0  0  0  0  0  0  0  0  0  0
   -4.5900    7.4690   -3.7110 C   0  0  0  0  0  0  0  0  0  0  0  0
   -4.7460    5.5820   -2.1080 C   0  0  0  0  0  0  0  0  0  0  0  0
   -2.5310   10.0270   -0.4390 C   0  0  1  0  0  0  0  0  0  0  0  0
   -2.8850   10.0100    1.0800 C   0  0  0  0  0  0  0  0  0  0  0  0
   -2.4230   11.5420   -0.8530 C   0  0  0  0  0  0  0  0  0  0  0  0
   -1.5140   11.8710   -2.0530 C   0  0  0  0  0  0  0  0  0  0  0  0
   -0.1430   11.2050   -1.9020 C   0  0  2  0  0  0  0  0  0  0  0  0
    0.5400   11.8020   -0.6250 C   0  0  0  0  0  0  0  0  0  0  0  0
    1.0531   14.2644   -4.6499 H   0  0  0  0  0  0  0  0  0  0  0  0
    2.3483   13.1489   -5.2018 H   0  0  0  0  0  0  0  0  0  0  0  0
    0.6358   12.6067   -5.2018 H   0  0  0  0  0  0  0  0  0  0  0  0
    1.0939   13.4384   -2.5688 H   0  0  0  0  0  0  0  0  0  0  0  0
    3.4881   13.5580   -2.8441 H   0  0  0  0  0  0  0  0  0  0  0  0
    3.0537   12.0854   -1.8505 H   0  0  0  0  0  0  0  0  0  0  0  0
    3.3494   10.6755   -3.8453 H   0  0  0  0  0  0  0  0  0  0  0  0
    3.8806   12.1422   -4.7699 H   0  0  0  0  0  0  0  0  0  0  0  0
    4.8848   11.1365   -2.3133 H   0  0  0  0  0  0  0  0  0  0  0  0
    5.5385    9.7532   -5.7074 H   0  0  0  0  0  0  0  0  0  0  0  0
    5.6408   11.4991   -6.1173 H   0  0  0  0  0  0  0  0  0  0  0  0
    7.1255   10.4881   -6.1173 H   0  0  0  0  0  0  0  0  0  0  0  0
    7.4736   10.4209   -2.4423 H   0  0  0  0  0  0  0  0  0  0  0  0
    7.6593    9.3145   -3.8452 H   0  0  0  0  0  0  0  0  0  0  0  0
    8.4828   10.9109   -3.8452 H   0  0  0  0  0  0  0  0  0  0  0  0
    0.2857   11.3330   -4.0404 H   0  0  0  0  0  0  0  0  0  0  0  0
    2.0449    9.6905   -3.8375 H   0  0  0  0  0  0  0  0  0  0  0  0
    2.7792   10.5337   -2.4572 H   0  0  0  0  0  0  0  0  0  0  0  0
    1.2011    8.1548   -2.3020 H   0  0  0  0  0  0  0  0  0  0  0  0
    1.5924    9.1712   -0.9174 H   0  0  0  0  0  0  0  0  0  0  0  0
   -1.7720    8.3283   -2.8807 H   0  0  0  0  0  0  0  0  0  0  0  0
   -1.4376    9.8602   -3.7571 H   0  0  0  0  0  0  0  0  0  0  0  0
   -0.2185    8.5410   -3.7571 H   0  0  0  0  0  0  0  0  0  0  0  0
   -0.4997    9.6200    0.2185 H   0  0  0  0  0  0  0  0  0  0  0  0
   -0.4396    7.2421   -0.7704 H   0  0  0  0  0  0  0  0  0  0  0  0
   -1.4296    7.6238    0.7342 H   0  0  0  0  0  0  0  0  0  0  0  0
   -2.5680    6.0431   -1.0412 H   0  0  0  0  0  0  0  0  0  0  0  0
   -3.5422    9.7583   -2.2815 H   0  0  0  0  0  0  0  0  0  0  0  0
   -5.2241    9.3379    0.2666 H   0  0  0  0  0  0  0  0  0  0  0  0
   -5.1859   10.8228   -0.7847 H   0  0  0  0  0  0  0  0  0  0  0  0
   -7.1960    9.4394   -1.1909 H   0  0  0  0  0  0  0  0  0  0  0  0
   -6.1246    9.5710   -2.6400 H   0  0  0  0  0  0  0  0  0  0  0  0
   -6.8782    7.3001   -2.4417 H   0  0  0  0  0  0  0  0  0  0  0  0
   -7.2010    7.5290   -0.0670 H   0  0  0  0  0  0  0  0  0  0  0  0
   -4.1132    8.4547   -3.8161 H   0  0  0  0  0  0  0  0  0  0  0  0
   -3.9620    6.7047   -4.1921 H   0  0  0  0  0  0  0  0  0  0  0  0
   -5.5790    7.4869   -4.1921 H   0  0  0  0  0  0  0  0  0  0  0  0
   -4.7446    5.2829   -1.0495 H   0  0  0  0  0  0  0  0  0  0  0  0
   -5.6423    5.1787   -2.6019 H   0  0  0  0  0  0  0  0  0  0  0  0
   -3.8461    5.1868   -2.6019 H   0  0  0  0  0  0  0  0  0  0  0  0
   -1.9594   10.0544    1.6727 H   0  0  0  0  0  0  0  0  0  0  0  0
   -3.5157   10.8789    1.3193 H   0  0  0  0  0  0  0  0  0  0  0  0
   -3.4295    9.0847    1.3193 H   0  0  0  0  0  0  0  0  0  0  0  0
   -3.4364   11.8934   -1.0969 H   0  0  0  0  0  0  0  0  0  0  0  0
   -1.9562   12.0431    0.0078 H   0  0  0  0  0  0  0  0  0  0  0  0
   -1.9906   11.5079   -2.9755 H   0  0  0  0  0  0  0  0  0  0  0  0
   -1.3713   12.9609   -2.0961 H   0  0  0  0  0  0  0  0  0  0  0  0
    0.0633   11.3853    0.2745 H   0  0  0  0  0  0  0  0  0  0  0  0
    1.6092   11.5437   -0.6264 H   0  0  0  0  0  0  0  0  0  0  0  0
    0.4271   12.8962   -0.6264 H   0  0  0  0  0  0  0  0  0  0  0  0
  1  2  1  0
  2  3  1  0
  3  4  1  0
  4  5  1  0
  5  6  1  0
  6  7  1  0
  7  8  1  0
  7  9  1  0
  2 10  1  0
 10 11  1  0
 11 12  1  0
 12 13  1  0
 13 14  1  6
 13 15  1  0
 15 16  1  0
 16 17  1  0
 17 18  2  0
 18 19  1  0
 19 20  1  0
 20 21  1  0
 21 22  1  0
 22 23  1  0
 22 24  1  0
 24 25  1  0
 24 26  1  0
 19 27  1  0
 27 28  1  1
 27 29  1  0
 29 30  1  0
 30 31  1  0
 31 32  1  1
  7  5  1  0
 31 10  1  0
 31 13  1  0
 27 15  1  0
 24 18  1  0
  1 33  1  0
  1 34  1  0
  1 35  1  0
  2 36  1  1
  3 37  1  0
  3 38  1  0
  4 39  1  0
  4 40  1  0
  5 41  1  1
  8 42  1  0
  8 43  1  0
  8 44  1  0
  9 45  1  0
  9 46  1  0
  9 47  1  0
 10 48  1  6
 11 49  1  0
 11 50  1  0
 12 51  1  0
 12 52  1  0
 14 53  1  0
 14 54  1  0
 14 55  1  0
 15 56  1  1
 16 57  1  0
 16 58  1  0
 17 59  1  0
 19 60  1  6
 20 61  1  0
 20 62  1  0
 21 63  1  0
 21 64  1  0
 22 65  1  6
 23 66  1  0
 25 67  1  0
 25 68  1  0
 25 69  1  0
 26 70  1  0
 26 71  1  0
 26 72  1  0
 28 73  1  0
 28 74  1  0
 28 75  1  0
 29 76  1  0
 29 77  1  0
 30 78  1  0
 30 79  1  0
 32 80  1  0
 32 81  1  0
 32 82  1  0
M  END
>  <meeko>  (16) 
{"is_sidechain": [false], "intermolecular_energy": 2.731, "internal_energy": -0.839}

$$$$
EPH_relaxed_0001_pdb2pqr_Repair_265_r2_0001_out
     RDKit          3D

 82 86  0  0  0  0  0  0  0  0999 V2000
   -4.7910    6.2410    1.1360 C   0  0  0  0  0  0  0  0  0  0  0  0
   -4.9920    7.1220   -0.1000 C   0  0  2  0  0  0  0  0  0  0  0  0
   -5.9050    6.4530   -1.1470 C   0  0  0  0  0  0  0  0  0  0  0  0
   -7.2040    7.2190   -1.4110 C   0  0  0  0  0  0  0  0  0  0  0  0
   -8.1890    7.0390   -0.2960 C   0  0  2  0  0  0  0  0  0  0  0  0
   -9.0970    5.9430   -0.4710 O   0  0  0  0  0  0  0  0  0  0  0  0
   -9.6830    7.2550   -0.4560 C   0  0  0  0  0  0  0  0  0  0  0  0
  -10.2740    7.6720   -1.7660 C   0  0  0  0  0  0  0  0  0  0  0  0
  -10.5000    7.5370    0.7660 C   0  0  0  0  0  0  0  0  0  0  0  0
   -3.6420    7.4570   -0.7240 C   0  0  1  0  0  0  0  0  0  0  0  0
   -3.4920    6.8920   -2.1620 C   0  0  0  0  0  0  0  0  0  0  0  0
   -2.6510    7.9210   -2.9610 C   0  0  0  0  0  0  0  0  0  0  0  0
   -2.0690    8.8690   -1.8850 C   0  0  1  0  0  0  0  0  0  0  0  0
   -0.8300    8.1120   -1.3120 C   0  0  0  0  0  0  0  0  0  0  0  0
   -1.6960   10.3100   -2.3630 C   0  0  2  0  0  0  0  0  0  0  0  0
   -0.5920   10.3770   -3.4330 C   0  0  0  0  0  0  0  0  0  0  0  0
    0.8000   10.4940   -2.9070 C   0  0  0  0  0  0  0  0  0  0  0  0
    1.1340   10.8280   -1.6470 C   0  0  0  0  0  0  0  0  0  0  0  0
    0.0600   11.2270   -0.6260 C   0  0  1  0  0  0  0  0  0  0  0  0
    0.5070   12.5100    0.1220 C   0  0  0  0  0  0  0  0  0  0  0  0
    1.8880   12.3670    0.7540 C   0  0  0  0  0  0  0  0  0  0  0  0
    2.9380   12.0280   -0.3000 C   0  0  2  0  0  0  0  0  0  0  0  0
    3.0870   13.1480   -1.1790 O   0  0  0  0  0  0  0  0  0  0  0  0
    2.5910   10.7580   -1.1260 C   0  0  0  0  0  0  0  0  0  0  0  0
    2.7260    9.5020   -0.2300 C   0  0  0  0  0  0  0  0  0  0  0  0
    3.6560   10.6090   -2.2450 C   0  0  0  0  0  0  0  0  0  0  0  0
   -1.4230   11.3330   -1.1870 C   0  0  1  0  0  0  0  0  0  0  0  0
   -1.6720   12.7570   -1.7700 C   0  0  0  0  0  0  0  0  0  0  0  0
   -2.4370   11.1570    0.0050 C   0  0  0  0  0  0  0  0  0  0  0  0
   -2.8600    9.7170    0.3520 C   0  0  0  0  0  0  0  0  0  0  0  0
   -3.2950    8.9560   -0.9040 C   0  0  2  0  0  0  0  0  0  0  0  0
   -4.5540    9.6810   -1.4910 C   0  0  0  0  0  0  0  0  0  0  0  0
   -4.9291    6.8463    2.0441 H   0  0  0  0  0  0  0  0  0  0  0  0
   -5.5254    5.4221    1.1260 H   0  0  0  0  0  0  0  0  0  0  0  0
   -3.7741    5.8217    1.1260 H   0  0  0  0  0  0  0  0  0  0  0  0
   -5.4892    8.0464    0.2291 H   0  0  0  0  0  0  0  0  0  0  0  0
   -5.3493    6.3754   -2.0932 H   0  0  0  0  0  0  0  0  0  0  0  0
   -6.1884    5.4693   -0.7443 H   0  0  0  0  0  0  0  0  0  0  0  0
   -6.9724    8.2895   -1.5129 H   0  0  0  0  0  0  0  0  0  0  0  0
   -7.6540    6.8239   -2.3337 H   0  0  0  0  0  0  0  0  0  0  0  0
   -7.4632    7.4184    0.4384 H   0  0  0  0  0  0  0  0  0  0  0  0
  -11.1606    8.2976   -1.5857 H   0  0  0  0  0  0  0  0  0  0  0  0
   -9.5301    8.2463   -2.3376 H   0  0  0  0  0  0  0  0  0  0  0  0
  -10.5657    6.7786   -2.3376 H   0  0  0  0  0  0  0  0  0  0  0  0
   -9.8998    7.3298    1.6642 H   0  0  0  0  0  0  0  0  0  0  0  0
  -10.8073    8.5932    0.7659 H   0  0  0  0  0  0  0  0  0  0  0  0
  -11.3934    6.8952    0.7659 H   0  0  0  0  0  0  0  0  0  0  0  0
   -2.9748    7.0036    0.0239 H   0  0  0  0  0  0  0  0  0  0  0  0
   -2.9768    5.9205   -2.1355 H   0  0  0  0  0  0  0  0  0  0  0  0
   -4.4752    6.7367   -2.6301 H   0  0  0  0  0  0  0  0  0  0  0  0
   -1.8435    7.4177   -3.5129 H   0  0  0  0  0  0  0  0  0  0  0  0
   -3.2510    8.4585   -3.7100 H   0  0  0  0  0  0  0  0  0  0  0  0
   -0.8638    8.1327   -0.2127 H   0  0  0  0  0  0  0  0  0  0  0  0
   -0.8448    7.0685   -1.6597 H   0  0  0  0  0  0  0  0  0  0  0  0
    0.0917    8.6014   -1.6597 H   0  0  0  0  0  0  0  0  0  0  0  0
   -2.6187   10.6382   -2.8639 H   0  0  0  0  0  0  0  0  0  0  0  0
   -0.6503    9.4610   -4.0392 H   0  0  0  0  0  0  0  0  0  0  0  0
   -0.7790   11.2973   -4.0058 H   0  0  0  0  0  0  0  0  0  0  0  0
    1.6222   10.2900   -3.6086 H   0  0  0  0  0  0  0  0  0  0  0  0
   -0.0125   10.3889    0.0827 H   0  0  0  0  0  0  0  0  0  0  0  0
    0.5314   13.3451   -0.5936 H   0  0  0  0  0  0  0  0  0  0  0  0
   -0.2140   12.6925    0.9324 H   0  0  0  0  0  0  0  0  0  0  0  0
    2.1605   13.3145    1.2418 H   0  0  0  0  0  0  0  0  0  0  0  0
    1.8540   11.5508    1.4907 H   0  0  0  0  0  0  0  0  0  0  0  0
    3.8774   11.8099    0.2291 H   0  0  0  0  0  0  0  0  0  0  0  0
    2.2780   13.6830   -1.1130 H   0  0  0  0  0  0  0  0  0  0  0  0
    2.6938    9.8012    0.8280 H   0  0  0  0  0  0  0  0  0  0  0  0
    1.8970    8.8104   -0.4408 H   0  0  0  0  0  0  0  0  0  0  0  0
    3.6830    9.0023   -0.4408 H   0  0  0  0  0  0  0  0  0  0  0  0
    4.6482   10.4702   -1.7908 H   0  0  0  0  0  0  0  0  0  0  0  0
    3.4129    9.7361   -2.8687 H   0  0  0  0  0  0  0  0  0  0  0  0
    3.6618   11.5151   -2.8687 H   0  0  0  0  0  0  0  0  0  0  0  0
   -1.7974   13.4741   -0.9453 H   0  0  0  0  0  0  0  0  0  0  0  0
   -0.8124   13.0556   -2.3881 H   0  0  0  0  0  0  0  0  0  0  0  0
   -2.5819   12.7462   -2.3881 H   0  0  0  0  0  0  0  0  0  0  0  0
   -1.9740   11.5930    0.9025 H   0  0  0  0  0  0  0  0  0  0  0  0
   -3.3598   11.6553   -0.3270 H   0  0  0  0  0  0  0  0  0  0  0  0
   -2.0098    9.1935    0.8136 H   0  0  0  0  0  0  0  0  0  0  0  0
   -3.7102    9.7593    1.0487 H   0  0  0  0  0  0  0  0  0  0  0  0
   -5.1853   10.0445   -0.6668 H   0  0  0  0  0  0  0  0  0  0  0  0
   -4.2321   10.5320   -2.1091 H   0  0  0  0  0  0  0  0  0  0  0  0
   -5.1285    8.9754   -2.1091 H   0  0  0  0  0  0  0  0  0  0  0  0
  1  2  1  0
  2  3  1  0
  3  4  1  0
  4  5  1  0
  5  6  1  0
  6  7  1  0
  7  8  1  0
  7  9  1  0
  2 10  1  0
 10 11  1  0
 11 12  1  0
 12 13  1  0
 13 14  1  1
 13 15  1  0
 15 16  1  0
 16 17  1  0
 17 18  2  0
 18 19  1  0
 19 20  1  0
 20 21  1  0
 21 22  1  0
 22 23  1  0
 22 24  1  0
 24 25  1  0
 24 26  1  0
 19 27  1  0
 27 28  1  6
 27 29  1  0
 29 30  1  0
 30 31  1  0
 31 32  1  6
  7  5  1  0
 31 10  1  0
 31 13  1  0
 27 15  1  0
 24 18  1  0
  1 33  1  0
  1 34  1  0
  1 35  1  0
  2 36  1  1
  3 37  1  0
  3 38  1  0
  4 39  1  0
  4 40  1  0
  5 41  1  1
  8 42  1  0
  8 43  1  0
  8 44  1  0
  9 45  1  0
  9 46  1  0
  9 47  1  0
 10 48  1  1
 11 49  1  0
 11 50  1  0
 12 51  1  0
 12 52  1  0
 14 53  1  0
 14 54  1  0
 14 55  1  0
 15 56  1  6
 16 57  1  0
 16 58  1  0
 17 59  1  0
 19 60  1  1
 20 61  1  0
 20 62  1  0
 21 63  1  0
 21 64  1  0
 22 65  1  1
 23 66  1  0
 25 67  1  0
 25 68  1  0
 25 69  1  0
 26 70  1  0
 26 71  1  0
 26 72  1  0
 28 73  1  0
 28 74  1  0
 28 75  1  0
 29 76  1  0
 29 77  1  0
 30 78  1  0
 30 79  1  0
 32 80  1  0
 32 81  1  0
 32 82  1  0
M  END
>  <meeko>  (17) 
{"is_sidechain": [false], "intermolecular_energy": 2.731, "internal_energy": -0.839}

$$$$
EPH_relaxed_0001_pdb2pqr_Repair_265_r2_0001_out
     RDKit          3D

 82 86  0  0  0  0  0  0  0  0999 V2000
  -11.4510    8.8850   -2.7200 C   0  0  0  0  0  0  0  0  0  0  0  0
  -11.0560    7.6200   -1.9540 C   0  0  2  0  0  0  0  0  0  0  0  0
  -12.1430    7.1860   -0.9500 C   0  0  0  0  0  0  0  0  0  0  0  0
  -13.5470    7.6750   -1.3150 C   0  0  0  0  0  0  0  0  0  0  0  0
  -13.7460    9.1150   -0.9460 C   0  0  2  0  0  0  0  0  0  0  0  0
  -15.1020    9.4760   -0.6550 O   0  0  0  0  0  0  0  0  0  0  0  0
  -14.5140   10.1000   -1.8080 C   0  0  0  0  0  0  0  0  0  0  0  0
  -15.1320    9.6860   -3.1060 C   0  0  0  0  0  0  0  0  0  0  0  0
  -14.2470   11.5630   -1.6320 C   0  0  0  0  0  0  0  0  0  0  0  0
   -9.7350    7.8440   -1.2260 C   0  0  1  0  0  0  0  0  0  0  0  0
   -9.8440    7.5900    0.3010 C   0  0  0  0  0  0  0  0  0  0  0  0
   -8.4900    6.9820    0.7500 C   0  0  0  0  0  0  0  0  0  0  0  0
   -7.5420    7.2130   -0.4490 C   0  0  1  0  0  0  0  0  0  0  0  0
   -7.0680    8.6930   -0.3060 C   0  0  0  0  0  0  0  0  0  0  0  0
   -6.3330    6.2290   -0.5730 C   0  0  2  0  0  0  0  0  0  0  0  0
   -5.3340    6.2720    0.5960 C   0  0  0  0  0  0  0  0  0  0  0  0
   -4.2050    7.2350    0.4360 C   0  0  0  0  0  0  0  0  0  0  0  0
   -3.8380    7.8260   -0.7170 C   0  0  0  0  0  0  0  0  0  0  0  0
   -4.5270    7.4660   -2.0400 C   0  0  1  0  0  0  0  0  0  0  0  0
   -3.4550    7.2370   -3.1370 C   0  0  0  0  0  0  0  0  0  0  0  0
   -2.5010    8.4200   -3.2780 C   0  0  0  0  0  0  0  0  0  0  0  0
   -1.7920    8.7090   -1.9580 C   0  0  2  0  0  0  0  0  0  0  0  0
   -0.9240    7.6130   -1.6500 O   0  0  0  0  0  0  0  0  0  0  0  0
   -2.7720    8.9470   -0.7750 C   0  0  0  0  0  0  0  0  0  0  0  0
   -3.5000   10.3010   -0.9670 C   0  0  0  0  0  0  0  0  0  0  0  0
   -1.9300    9.0870    0.5220 C   0  0  0  0  0  0  0  0  0  0  0  0
   -5.5900    6.2870   -1.9700 C   0  0  1  0  0  0  0  0  0  0  0  0
   -4.8740    4.9140   -2.1510 C   0  0  0  0  0  0  0  0  0  0  0  0
   -6.5940    6.4270   -3.1750 C   0  0  0  0  0  0  0  0  0  0  0  0
   -7.8310    7.3170   -2.9500 C   0  0  0  0  0  0  0  0  0  0  0  0
   -8.5360    6.9550   -1.6390 C   0  0  2  0  0  0  0  0  0  0  0  0
   -9.0430    5.4780   -1.7620 C   0  0  0  0  0  0  0  0  0  0  0  0
  -11.7003    9.6834   -2.0056 H   0  0  0  0  0  0  0  0  0  0  0  0
  -10.6110    9.2080   -3.3524 H   0  0  0  0  0  0  0  0  0  0  0  0
  -12.3256    8.6726   -3.3524 H   0  0  0  0  0  0  0  0  0  0  0  0
  -10.9428    6.8099   -2.6894 H   0  0  0  0  0  0  0  0  0  0  0  0
  -12.1580    6.0869   -0.9076 H   0  0  0  0  0  0  0  0  0  0  0  0
  -11.8859    7.6394    0.0187 H   0  0  0  0  0  0  0  0  0  0  0  0
  -13.6935    7.5613   -2.3993 H   0  0  0  0  0  0  0  0  0  0  0  0
  -14.2766    7.0730   -0.7535 H   0  0  0  0  0  0  0  0  0  0  0  0
  -12.7486    9.1597   -0.4842 H   0  0  0  0  0  0  0  0  0  0  0  0
  -16.0310    9.0837   -2.9085 H   0  0  0  0  0  0  0  0  0  0  0  0
  -15.4096   10.5811   -3.6820 H   0  0  0  0  0  0  0  0  0  0  0  0
  -14.4098    9.0887   -3.6820 H   0  0  0  0  0  0  0  0  0  0  0  0
  -14.2035   11.8013   -0.5590 H   0  0  0  0  0  0  0  0  0  0  0  0
  -13.2871   11.8199   -2.1039 H   0  0  0  0  0  0  0  0  0  0  0  0
  -15.0542   12.1424   -2.1039 H   0  0  0  0  0  0  0  0  0  0  0  0
   -9.5431    8.8894   -1.5095 H   0  0  0  0  0  0  0  0  0  0  0  0
  -10.0286    8.5364    0.8304 H   0  0  0  0  0  0  0  0  0  0  0  0
  -10.6780    6.9104    0.5303 H   0  0  0  0  0  0  0  0  0  0  0  0
   -8.1129    7.4942    1.6475 H   0  0  0  0  0  0  0  0  0  0  0  0
   -8.5776    5.9176    1.0135 H   0  0  0  0  0  0  0  0  0  0  0  0
   -6.9856    8.9502    0.7603 H   0  0  0  0  0  0  0  0  0  0  0  0
   -6.0868    8.8120   -0.7888 H   0  0  0  0  0  0  0  0  0  0  0  0
   -7.7975    9.3599   -0.7888 H   0  0  0  0  0  0  0  0  0  0  0  0
   -6.8226    5.2459   -0.5120 H   0  0  0  0  0  0  0  0  0  0  0  0
   -5.8877    6.5459    1.5061 H   0  0  0  0  0  0  0  0  0  0  0  0
   -4.8767    5.2726    0.6418 H   0  0  0  0  0  0  0  0  0  0  0  0
   -3.6234    7.4830    1.3362 H   0  0  0  0  0  0  0  0  0  0  0  0
   -5.1508    8.3330   -2.3032 H   0  0  0  0  0  0  0  0  0  0  0  0
   -2.8708    6.3417   -2.8779 H   0  0  0  0  0  0  0  0  0  0  0  0
   -3.9793    7.1143   -4.0962 H   0  0  0  0  0  0  0  0  0  0  0  0
   -1.7496    8.1869   -4.0468 H   0  0  0  0  0  0  0  0  0  0  0  0
   -3.0829    9.3080   -3.5658 H   0  0  0  0  0  0  0  0  0  0  0  0
   -1.2235    9.6418   -2.0873 H   0  0  0  0  0  0  0  0  0  0  0  0
   -0.1630    7.9690   -1.1620 H   0  0  0  0  0  0  0  0  0  0  0  0
   -3.7332   10.7347    0.0167 H   0  0  0  0  0  0  0  0  0  0  0  0
   -2.8508   10.9902   -1.5270 H   0  0  0  0  0  0  0  0  0  0  0  0
   -4.4329   10.1395   -1.5270 H   0  0  0  0  0  0  0  0  0  0  0  0
   -2.5857    8.9780    1.3984 H   0  0  0  0  0  0  0  0  0  0  0  0
   -1.1566    8.3051    0.5432 H   0  0  0  0  0  0  0  0  0  0  0  0
   -1.4512   10.0771    0.5432 H   0  0  0  0  0  0  0  0  0  0  0  0
   -4.6499    4.4843   -1.1635 H   0  0  0  0  0  0  0  0  0  0  0  0
   -5.5298    4.2292   -2.7086 H   0  0  0  0  0  0  0  0  0  0  0  0
   -3.9371    5.0598   -2.7086 H   0  0  0  0  0  0  0  0  0  0  0  0
   -6.0355    6.8429   -4.0266 H   0  0  0  0  0  0  0  0  0  0  0  0
   -6.9936    5.4147   -3.3351 H   0  0  0  0  0  0  0  0  0  0  0  0
   -7.5143    8.3697   -2.9095 H   0  0  0  0  0  0  0  0  0  0  0  0
   -8.5334    7.1579   -3.7814 H   0  0  0  0  0  0  0  0  0  0  0  0
   -9.1881    5.0552   -0.7569 H   0  0  0  0  0  0  0  0  0  0  0  0
   -9.9979    5.4624   -2.3077 H   0  0  0  0  0  0  0  0  0  0  0  0
   -8.2990    4.8792   -2.3077 H   0  0  0  0  0  0  0  0  0  0  0  0
  1  2  1  0
  2  3  1  0
  3  4  1  0
  4  5  1  0
  5  6  1  0
  6  7  1  0
  7  8  1  0
  7  9  1  0
  2 10  1  0
 10 11  1  0
 11 12  1  0
 12 13  1  0
 13 14  1  6
 13 15  1  0
 15 16  1  0
 16 17  1  0
 17 18  2  0
 18 19  1  0
 19 20  1  0
 20 21  1  0
 21 22  1  0
 22 23  1  0
 22 24  1  0
 24 25  1  0
 24 26  1  0
 19 27  1  0
 27 28  1  6
 27 29  1  0
 29 30  1  0
 30 31  1  0
 31 32  1  6
  7  5  1  0
 31 10  1  0
 31 13  1  0
 27 15  1  0
 24 18  1  0
  1 33  1  0
  1 34  1  0
  1 35  1  0
  2 36  1  6
  3 37  1  0
  3 38  1  0
  4 39  1  0
  4 40  1  0
  5 41  1  1
  8 42  1  0
  8 43  1  0
  8 44  1  0
  9 45  1  0
  9 46  1  0
  9 47  1  0
 10 48  1  1
 11 49  1  0
 11 50  1  0
 12 51  1  0
 12 52  1  0
 14 53  1  0
 14 54  1  0
 14 55  1  0
 15 56  1  6
 16 57  1  0
 16 58  1  0
 17 59  1  0
 19 60  1  6
 20 61  1  0
 20 62  1  0
 21 63  1  0
 21 64  1  0
 22 65  1  6
 23 66  1  0
 25 67  1  0
 25 68  1  0
 25 69  1  0
 26 70  1  0
 26 71  1  0
 26 72  1  0
 28 73  1  0
 28 74  1  0
 28 75  1  0
 29 76  1  0
 29 77  1  0
 30 78  1  0
 30 79  1  0
 32 80  1  0
 32 81  1  0
 32 82  1  0
M  END
>  <meeko>  (18) 
{"is_sidechain": [false], "intermolecular_energy": 2.731, "internal_energy": -0.839}

$$$$
