EPH_relaxed_0001_pdb2pqr_Repair_296_r2_0001_out
     RDKit          3D

 82 86  0  0  0  0  0  0  0  0999 V2000
   -1.5700    8.5320   -1.7910 C   0  0  0  0  0  0  0  0  0  0  0  0
   -1.9820    9.1360   -0.4460 C   0  0  2  0  0  0  0  0  0  0  0  0
   -3.4700    9.5380   -0.4210 C   0  0  0  0  0  0  0  0  0  0  0  0
   -4.4270    8.3500   -0.2930 C   0  0  0  0  0  0  0  0  0  0  0  0
   -5.0760    8.0160   -1.6020 C   0  0  2  0  0  0  0  0  0  0  0  0
   -6.3400    8.6540   -1.8240 O   0  0  0  0  0  0  0  0  0  0  0  0
   -6.3630    7.2210   -1.7200 C   0  0  0  0  0  0  0  0  0  0  0  0
   -7.0770    6.7100   -0.5080 C   0  0  0  0  0  0  0  0  0  0  0  0
   -6.6600    6.5280   -3.0130 C   0  0  0  0  0  0  0  0  0  0  0  0
   -1.1100   10.3460   -0.1310 C   0  0  1  0  0  0  0  0  0  0  0  0
   -0.0290   10.0410    0.9400 C   0  0  0  0  0  0  0  0  0  0  0  0
    1.2240   10.8720    0.5600 C   0  0  0  0  0  0  0  0  0  0  0  0
    0.7200   11.8700   -0.5080 C   0  0  1  0  0  0  0  0  0  0  0  0
    0.0470   13.0210    0.3040 C   0  0  0  0  0  0  0  0  0  0  0  0
    1.7940   12.4180   -1.5030 C   0  0  2  0  0  0  0  0  0  0  0  0
    2.9260   13.2350   -0.8560 C   0  0  0  0  0  0  0  0  0  0  0  0
    2.6760   14.7040   -0.7570 C   0  0  0  0  0  0  0  0  0  0  0  0
    1.7210   15.3810   -1.4210 C   0  0  0  0  0  0  0  0  0  0  0  0
    0.8300   14.6780   -2.4530 C   0  0  1  0  0  0  0  0  0  0  0  0
    0.7430   15.5440   -3.7370 C   0  0  0  0  0  0  0  0  0  0  0  0
    0.2880   16.9720   -3.4500 C   0  0  0  0  0  0  0  0  0  0  0  0
    1.2320   17.6570   -2.4650 C   0  0  2  0  0  0  0  0  0  0  0  0
    2.5060   17.8310   -3.0920 O   0  0  0  0  0  0  0  0  0  0  0  0
    1.4060   16.8700   -1.1350 C   0  0  0  0  0  0  0  0  0  0  0  0
    0.0960   16.9410   -0.3130 C   0  0  0  0  0  0  0  0  0  0  0  0
    2.4890   17.5940   -0.2900 C   0  0  0  0  0  0  0  0  0  0  0  0
    1.1920   13.1620   -2.7630 C   0  0  1  0  0  0  0  0  0  0  0  0
    2.2750   13.0910   -3.8820 C   0  0  0  0  0  0  0  0  0  0  0  0
   -0.0840   12.4360   -3.3330 C   0  0  0  0  0  0  0  0  0  0  0  0
   -1.0460   11.8110   -2.3050 C   0  0  0  0  0  0  0  0  0  0  0  0
   -0.2830   10.9490   -1.2940 C   0  0  2  0  0  0  0  0  0  0  0  0
    0.3860    9.7700   -2.0780 C   0  0  0  0  0  0  0  0  0  0  0  0
   -0.9579    7.6346   -1.6178 H   0  0  0  0  0  0  0  0  0  0  0  0
   -2.4700    8.2576   -2.3608 H   0  0  0  0  0  0  0  0  0  0  0  0
   -0.9861    9.2698   -2.3608 H   0  0  0  0  0  0  0  0  0  0  0  0
   -1.8366    8.3625    0.3225 H   0  0  0  0  0  0  0  0  0  0  0  0
   -3.6338   10.2095    0.4347 H   0  0  0  0  0  0  0  0  0  0  0  0
   -3.6877   10.0235   -1.3837 H   0  0  0  0  0  0  0  0  0  0  0  0
   -3.8623    7.4739    0.0585 H   0  0  0  0  0  0  0  0  0  0  0  0
   -5.2177    8.6227    0.4215 H   0  0  0  0  0  0  0  0  0  0  0  0
   -4.0946    7.9070   -2.0868 H   0  0  0  0  0  0  0  0  0  0  0  0
   -6.5690    7.0736    0.3974 H   0  0  0  0  0  0  0  0  0  0  0  0
   -8.1161    7.0708   -0.5153 H   0  0  0  0  0  0  0  0  0  0  0  0
   -7.0707    5.6100   -0.5153 H   0  0  0  0  0  0  0  0  0  0  0  0
   -7.0857    5.5348   -2.8073 H   0  0  0  0  0  0  0  0  0  0  0  0
   -7.3818    7.1238   -3.5910 H   0  0  0  0  0  0  0  0  0  0  0  0
   -5.7308    6.4162   -3.5910 H   0  0  0  0  0  0  0  0  0  0  0  0
   -1.8881   11.0565    0.1849 H   0  0  0  0  0  0  0  0  0  0  0  0
   -0.3900   10.3342    1.9368 H   0  0  0  0  0  0  0  0  0  0  0  0
    0.2042    8.9664    0.9711 H   0  0  0  0  0  0  0  0  0  0  0  0
    1.6160   11.4072    1.4375 H   0  0  0  0  0  0  0  0  0  0  0  0
    2.0456   10.2422    0.1881 H   0  0  0  0  0  0  0  0  0  0  0  0
    0.1612   12.8257    1.3805 H   0  0  0  0  0  0  0  0  0  0  0  0
    0.5281   13.9775    0.0518 H   0  0  0  0  0  0  0  0  0  0  0  0
   -1.0225   13.0708    0.0518 H   0  0  0  0  0  0  0  0  0  0  0  0
    2.2646   11.4951   -1.8727 H   0  0  0  0  0  0  0  0  0  0  0  0
    3.0859   12.8481    0.1612 H   0  0  0  0  0  0  0  0  0  0  0  0
    3.7998   13.1186   -1.5139 H   0  0  0  0  0  0  0  0  0  0  0  0
    3.3274   15.2815   -0.0846 H   0  0  0  0  0  0  0  0  0  0  0  0
   -0.1645   14.5953   -1.9904 H   0  0  0  0  0  0  0  0  0  0  0  0
    1.7369   15.5784   -4.2071 H   0  0  0  0  0  0  0  0  0  0  0  0
   -0.0032   15.0829   -4.4008 H   0  0  0  0  0  0  0  0  0  0  0  0
    0.2741   17.5415   -4.3910 H   0  0  0  0  0  0  0  0  0  0  0  0
   -0.7181   16.9379   -3.0067 H   0  0  0  0  0  0  0  0  0  0  0  0
    0.7851   18.6264   -2.1994 H   0  0  0  0  0  0  0  0  0  0  0  0
    2.3760   18.3980   -3.8700 H   0  0  0  0  0  0  0  0  0  0  0  0
    0.3356   16.9280    0.7605 H   0  0  0  0  0  0  0  0  0  0  0  0
   -0.4406   17.8695   -0.5577 H   0  0  0  0  0  0  0  0  0  0  0  0
   -0.5378   16.0759   -0.5577 H   0  0  0  0  0  0  0  0  0  0  0  0
    2.2755   17.4513    0.7796 H   0  0  0  0  0  0  0  0  0  0  0  0
    3.4785   17.1751   -0.5255 H   0  0  0  0  0  0  0  0  0  0  0  0
    2.4802   18.6685   -0.5255 H   0  0  0  0  0  0  0  0  0  0  0  0
    3.2726   13.0256   -3.4232 H   0  0  0  0  0  0  0  0  0  0  0  0
    2.0996   12.2024   -4.5062 H   0  0  0  0  0  0  0  0  0  0  0  0
    2.2171   13.9949   -4.5062 H   0  0  0  0  0  0  0  0  0  0  0  0
   -0.6541   13.1743   -3.9160 H   0  0  0  0  0  0  0  0  0  0  0  0
    0.3043   11.5878   -3.9160 H   0  0  0  0  0  0  0  0  0  0  0  0
   -1.5713   12.6149   -1.7685 H   0  0  0  0  0  0  0  0  0  0  0  0
   -1.7641   11.1719   -2.8397 H   0  0  0  0  0  0  0  0  0  0  0  0
    0.7989    9.0424   -1.3638 H   0  0  0  0  0  0  0  0  0  0  0  0
   -0.3666    9.2765   -2.7105 H   0  0  0  0  0  0  0  0  0  0  0  0
    1.1957   10.1630   -2.7105 H   0  0  0  0  0  0  0  0  0  0  0  0
  1  2  1  0
  2  3  1  0
  3  4  1  0
  4  5  1  0
  5  6  1  0
  6  7  1  0
  7  8  1  0
  7  9  1  0
  2 10  1  0
 10 11  1  0
 11 12  1  0
 12 13  1  0
 13 14  1  1
 13 15  1  0
 15 16  1  0
 16 17  1  0
 17 18  2  0
 18 19  1  0
 19 20  1  0
 20 21  1  0
 21 22  1  0
 22 23  1  0
 22 24  1  0
 24 25  1  0
 24 26  1  0
 19 27  1  0
 27 28  1  6
 27 29  1  0
 29 30  1  0
 30 31  1  0
 31 32  1  6
  7  5  1  0
 31 10  1  0
 31 13  1  0
 27 15  1  0
 24 18  1  0
  1 33  1  0
  1 34  1  0
  1 35  1  0
  2 36  1  1
  3 37  1  0
  3 38  1  0
  4 39  1  0
  4 40  1  0
  5 41  1  6
  8 42  1  0
  8 43  1  0
  8 44  1  0
  9 45  1  0
  9 46  1  0
  9 47  1  0
 10 48  1  1
 11 49  1  0
 11 50  1  0
 12 51  1  0
 12 52  1  0
 14 53  1  0
 14 54  1  0
 14 55  1  0
 15 56  1  6
 16 57  1  0
 16 58  1  0
 17 59  1  0
 19 60  1  1
 20 61  1  0
 20 62  1  0
 21 63  1  0
 21 64  1  0
 22 65  1  1
 23 66  1  0
 25 67  1  0
 25 68  1  0
 25 69  1  0
 26 70  1  0
 26 71  1  0
 26 72  1  0
 28 73  1  0
 28 74  1  0
 28 75  1  0
 29 76  1  0
 29 77  1  0
 30 78  1  0
 30 79  1  0
 32 80  1  0
 32 81  1  0
 32 82  1  0
M  END
>  <meeko>  (1) 
{"is_sidechain": [false], "intermolecular_energy": 2.731, "internal_energy": -0.839}

$$$$
EPH_relaxed_0001_pdb2pqr_Repair_296_r2_0001_out
     RDKit          3D

 82 86  0  0  0  0  0  0  0  0999 V2000
    1.9710   19.6740   -0.6170 C   0  0  0  0  0  0  0  0  0  0  0  0
    2.3630   18.4560    0.2240 C   0  0  2  0  0  0  0  0  0  0  0  0
    3.8180   18.0160   -0.0350 C   0  0  0  0  0  0  0  0  0  0  0  0
    4.7330   18.1690    1.1830 C   0  0  0  0  0  0  0  0  0  0  0  0
    4.0790   18.9660    2.2710 C   0  0  2  0  0  0  0  0  0  0  0  0
    4.7850   20.1560    2.6480 O   0  0  0  0  0  0  0  0  0  0  0  0
    4.6750   19.1380    3.6560 C   0  0  0  0  0  0  0  0  0  0  0  0
    5.9790   18.5060    4.0280 C   0  0  0  0  0  0  0  0  0  0  0  0
    3.7640   19.5040    4.7860 C   0  0  0  0  0  0  0  0  0  0  0  0
    1.4110   17.3000   -0.0610 C   0  0  1  0  0  0  0  0  0  0  0  0
    0.1410   17.7480   -0.8310 C   0  0  0  0  0  0  0  0  0  0  0  0
   -0.2400   16.5840   -1.7810 C   0  0  0  0  0  0  0  0  0  0  0  0
    0.6130   15.3890   -1.2950 C   0  0  1  0  0  0  0  0  0  0  0  0
   -0.1670   14.8120   -0.0720 C   0  0  0  0  0  0  0  0  0  0  0  0
    0.9210   14.2830   -2.3560 C   0  0  2  0  0  0  0  0  0  0  0  0
   -0.3120   13.5500   -2.9130 C   0  0  0  0  0  0  0  0  0  0  0  0
   -0.7160   12.3230   -2.1640 C   0  0  0  0  0  0  0  0  0  0  0  0
    0.0440   11.6690   -1.2660 C   0  0  0  0  0  0  0  0  0  0  0  0
    1.4920   12.1000   -0.9970 C   0  0  1  0  0  0  0  0  0  0  0  0
    2.4110   10.8500   -0.9900 C   0  0  0  0  0  0  0  0  0  0  0  0
    1.9320    9.7760   -0.0180 C   0  0  0  0  0  0  0  0  0  0  0  0
    0.5100    9.3320   -0.3540 C   0  0  2  0  0  0  0  0  0  0  0  0
    0.5240    8.6600   -1.6170 O   0  0  0  0  0  0  0  0  0  0  0  0
   -0.5050   10.5090   -0.4000 C   0  0  0  0  0  0  0  0  0  0  0  0
   -0.7450   11.0440    1.0340 C   0  0  0  0  0  0  0  0  0  0  0  0
   -1.8670    9.9460   -0.8870 C   0  0  0  0  0  0  0  0  0  0  0  0
    2.0520   13.2650   -1.9210 C   0  0  1  0  0  0  0  0  0  0  0  0
    2.6400   12.6650   -3.2350 C   0  0  0  0  0  0  0  0  0  0  0  0
    3.2470   13.9770   -1.1840 C   0  0  0  0  0  0  0  0  0  0  0  0
    2.8870   15.1400   -0.2400 C   0  0  0  0  0  0  0  0  0  0  0  0
    1.9470   16.1340   -0.9290 C   0  0  2  0  0  0  0  0  0  0  0  0
    2.7120   16.7480   -2.1510 C   0  0  0  0  0  0  0  0  0  0  0  0
    1.7026   20.5079    0.0483 H   0  0  0  0  0  0  0  0  0  0  0  0
    2.8193   19.9697   -1.2517 H   0  0  0  0  0  0  0  0  0  0  0  0
    1.1094   19.4194   -1.2517 H   0  0  0  0  0  0  0  0  0  0  0  0
    2.2892   18.7465    1.2824 H   0  0  0  0  0  0  0  0  0  0  0  0
    3.8127   16.9576   -0.3347 H   0  0  0  0  0  0  0  0  0  0  0  0
    4.2174   18.6728   -0.8218 H   0  0  0  0  0  0  0  0  0  0  0  0
    4.9791   17.1698    1.5717 H   0  0  0  0  0  0  0  0  0  0  0  0
    5.6407   18.7029    0.8651 H   0  0  0  0  0  0  0  0  0  0  0  0
    3.0801   18.6550    1.9311 H   0  0  0  0  0  0  0  0  0  0  0  0
    6.0665   18.4636    5.1237 H   0  0  0  0  0  0  0  0  0  0  0  0
    6.0229   17.4866    3.6169 H   0  0  0  0  0  0  0  0  0  0  0  0
    6.8063   19.1031    3.6169 H   0  0  0  0  0  0  0  0  0  0  0  0
    4.2673   19.3018    5.7430 H   0  0  0  0  0  0  0  0  0  0  0  0
    3.5125   20.5730    4.7227 H   0  0  0  0  0  0  0  0  0  0  0  0
    2.8428   18.9062    4.7227 H   0  0  0  0  0  0  0  0  0  0  0  0
    1.2316   16.9519    0.9669 H   0  0  0  0  0  0  0  0  0  0  0  0
   -0.6797   17.9454   -0.1257 H   0  0  0  0  0  0  0  0  0  0  0  0
    0.3274   18.6736   -1.3955 H   0  0  0  0  0  0  0  0  0  0  0  0
   -1.3126   16.3532   -1.7017 H   0  0  0  0  0  0  0  0  0  0  0  0
   -0.0522   16.8287   -2.8369 H   0  0  0  0  0  0  0  0  0  0  0  0
    0.3030   15.1597    0.8598 H   0  0  0  0  0  0  0  0  0  0  0  0
   -1.2109   15.1569   -0.1070 H   0  0  0  0  0  0  0  0  0  0  0  0
   -0.1427   13.7128   -0.1070 H   0  0  0  0  0  0  0  0  0  0  0  0
    1.3238   14.8681   -3.1959 H   0  0  0  0  0  0  0  0  0  0  0  0
   -1.1594   14.2512   -2.8993 H   0  0  0  0  0  0  0  0  0  0  0  0
   -0.0357   13.2132   -3.9231 H   0  0  0  0  0  0  0  0  0  0  0  0
   -1.7197   11.9194   -2.3630 H   0  0  0  0  0  0  0  0  0  0  0  0
    1.4904   12.5676   -0.0013 H   0  0  0  0  0  0  0  0  0  0  0  0
    2.4334   10.4233   -2.0036 H   0  0  0  0  0  0  0  0  0  0  0  0
    3.4107   11.1729   -0.6640 H   0  0  0  0  0  0  0  0  0  0  0  0
    2.6046    8.9078   -0.0805 H   0  0  0  0  0  0  0  0  0  0  0  0
    1.9384   10.1945    0.9992 H   0  0  0  0  0  0  0  0  0  0  0  0
    0.1752    8.6605    0.4503 H   0  0  0  0  0  0  0  0  0  0  0  0
    1.3690    8.8660   -2.0510 H   0  0  0  0  0  0  0  0  0  0  0  0
   -0.4089   10.2948    1.7659 H   0  0  0  0  0  0  0  0  0  0  0  0
   -0.1788   11.9762    1.1771 H   0  0  0  0  0  0  0  0  0  0  0  0
   -1.8177   11.2409    1.1771 H   0  0  0  0  0  0  0  0  0  0  0  0
   -2.4895    9.6887   -0.0173 H   0  0  0  0  0  0  0  0  0  0  0  0
   -2.3815   10.7052   -1.4944 H   0  0  0  0  0  0  0  0  0  0  0  0
   -1.6953    9.0451   -1.4944 H   0  0  0  0  0  0  0  0  0  0  0  0
    3.3898   11.8999   -2.9853 H   0  0  0  0  0  0  0  0  0  0  0  0
    1.8310   12.2073   -3.8232 H   0  0  0  0  0  0  0  0  0  0  0  0
    3.1139   13.4646   -3.8232 H   0  0  0  0  0  0  0  0  0  0  0  0
    3.7719   13.2154   -0.5886 H   0  0  0  0  0  0  0  0  0  0  0  0
    3.8488   14.4319   -1.9846 H   0  0  0  0  0  0  0  0  0  0  0  0
    2.3909   14.7367    0.6551 H   0  0  0  0  0  0  0  0  0  0  0  0
    3.8123   15.6663    0.0371 H   0  0  0  0  0  0  0  0  0  0  0  0
    3.5217   17.3979   -1.7877 H   0  0  0  0  0  0  0  0  0  0  0  0
    3.1378   15.9381   -2.7615 H   0  0  0  0  0  0  0  0  0  0  0  0
    2.0135   17.3390   -2.7615 H   0  0  0  0  0  0  0  0  0  0  0  0
  1  2  1  0
  2  3  1  0
  3  4  1  0
  4  5  1  0
  5  6  1  0
  6  7  1  0
  7  8  1  0
  7  9  1  0
  2 10  1  0
 10 11  1  0
 11 12  1  0
 12 13  1  0
 13 14  1  1
 13 15  1  0
 15 16  1  0
 16 17  1  0
 17 18  2  0
 18 19  1  0
 19 20  1  0
 20 21  1  0
 21 22  1  0
 22 23  1  0
 22 24  1  0
 24 25  1  0
 24 26  1  0
 19 27  1  0
 27 28  1  6
 27 29  1  0
 29 30  1  0
 30 31  1  0
 31 32  1  6
  7  5  1  0
 31 10  1  0
 31 13  1  0
 27 15  1  0
 24 18  1  0
  1 33  1  0
  1 34  1  0
  1 35  1  0
  2 36  1  1
  3 37  1  0
  3 38  1  0
  4 39  1  0
  4 40  1  0
  5 41  1  1
  8 42  1  0
  8 43  1  0
  8 44  1  0
  9 45  1  0
  9 46  1  0
  9 47  1  0
 10 48  1  1
 11 49  1  0
 11 50  1  0
 12 51  1  0
 12 52  1  0
 14 53  1  0
 14 54  1  0
 14 55  1  0
 15 56  1  6
 16 57  1  0
 16 58  1  0
 17 59  1  0
 19 60  1  1
 20 61  1  0
 20 62  1  0
 21 63  1  0
 21 64  1  0
 22 65  1  1
 23 66  1  0
 25 67  1  0
 25 68  1  0
 25 69  1  0
 26 70  1  0
 26 71  1  0
 26 72  1  0
 28 73  1  0
 28 74  1  0
 28 75  1  0
 29 76  1  0
 29 77  1  0
 30 78  1  0
 30 79  1  0
 32 80  1  0
 32 81  1  0
 32 82  1  0
M  END
>  <meeko>  (2) 
{"is_sidechain": [false], "intermolecular_energy": 2.731, "internal_energy": -0.839}

$$$$
EPH_relaxed_0001_pdb2pqr_Repair_296_r2_0001_out
     RDKit          3D

 82 86  0  0  0  0  0  0  0  0999 V2000
    2.4380   18.0510   -2.6290 C   0  0  0  0  0  0  0  0  0  0  0  0
    1.1080   17.6850   -1.9650 C   0  0  2  0  0  0  0  0  0  0  0  0
    1.1870   17.7590   -0.4270 C   0  0  0  0  0  0  0  0  0  0  0  0
    0.8190   19.1320    0.1430 C   0  0  0  0  0  0  0  0  0  0  0  0
   -0.6330   19.2100    0.5060 C   0  0  2  0  0  0  0  0  0  0  0  0
   -1.4770   18.2900   -0.1980 O   0  0  0  0  0  0  0  0  0  0  0  0
   -1.7100   19.6840   -0.4520 C   0  0  0  0  0  0  0  0  0  0  0  0
   -1.3800   20.1120   -1.8480 C   0  0  0  0  0  0  0  0  0  0  0  0
   -2.9980   20.1930    0.1150 C   0  0  0  0  0  0  0  0  0  0  0  0
    0.6780   16.2890   -2.3980 C   0  0  1  0  0  0  0  0  0  0  0  0
    0.8130   16.0690   -3.9290 C   0  0  0  0  0  0  0  0  0  0  0  0
    1.2270   14.5890   -4.1340 C   0  0  0  0  0  0  0  0  0  0  0  0
    0.9940   13.9250   -2.7570 C   0  0  1  0  0  0  0  0  0  0  0  0
   -0.5370   13.6220   -2.7110 C   0  0  0  0  0  0  0  0  0  0  0  0
    1.8440   12.6480   -2.4530 C   0  0  2  0  0  0  0  0  0  0  0  0
    1.5920   11.4570   -3.3930 C   0  0  0  0  0  0  0  0  0  0  0  0
    0.5260   10.5100   -2.9520 C   0  0  0  0  0  0  0  0  0  0  0  0
   -0.0030   10.4490   -1.7150 C   0  0  0  0  0  0  0  0  0  0  0  0
    0.5410   11.3280   -0.5820 C   0  0  1  0  0  0  0  0  0  0  0  0
    0.7410   10.4650    0.6920 C   0  0  0  0  0  0  0  0  0  0  0  0
   -0.5240    9.7120    1.0930 C   0  0  0  0  0  0  0  0  0  0  0  0
   -1.0000    8.8050   -0.0380 C   0  0  2  0  0  0  0  0  0  0  0  0
   -0.0380    7.7640   -0.2310 O   0  0  0  0  0  0  0  0  0  0  0  0
   -1.2270    9.5630   -1.3770 C   0  0  0  0  0  0  0  0  0  0  0  0
   -2.4700   10.4780   -1.2530 C   0  0  0  0  0  0  0  0  0  0  0  0
   -1.5680    8.5120   -2.4680 C   0  0  0  0  0  0  0  0  0  0  0  0
    1.8210   12.2010   -0.9350 C   0  0  1  0  0  0  0  0  0  0  0  0
    3.1170   11.3660   -0.6980 C   0  0  0  0  0  0  0  0  0  0  0  0
    1.8960   13.4260    0.0510 C   0  0  0  0  0  0  0  0  0  0  0  0
    1.1330   14.6990   -0.3630 C   0  0  0  0  0  0  0  0  0  0  0  0
    1.4600   15.0880   -1.8080 C   0  0  2  0  0  0  0  0  0  0  0  0
    2.9890   15.4200   -1.8790 C   0  0  0  0  0  0  0  0  0  0  0  0
    3.1902   18.2580   -1.8536 H   0  0  0  0  0  0  0  0  0  0  0  0
    2.7780   17.2130   -3.2553 H   0  0  0  0  0  0  0  0  0  0  0  0
    2.3014   18.9449   -3.2553 H   0  0  0  0  0  0  0  0  0  0  0  0
    0.3605   18.4225   -2.2927 H   0  0  0  0  0  0  0  0  0  0  0  0
    0.4966   17.0124   -0.0075 H   0  0  0  0  0  0  0  0  0  0  0  0
    2.2336   17.5656   -0.1492 H   0  0  0  0  0  0  0  0  0  0  0  0
    1.4222   19.3174    1.0440 H   0  0  0  0  0  0  0  0  0  0  0  0
    1.0208   19.8892   -0.6289 H   0  0  0  0  0  0  0  0  0  0  0  0
   -0.3836   19.4985    1.5378 H   0  0  0  0  0  0  0  0  0  0  0  0
   -0.7086   20.9827   -1.8155 H   0  0  0  0  0  0  0  0  0  0  0  0
   -0.8832   19.2855   -2.3771 H   0  0  0  0  0  0  0  0  0  0  0  0
   -2.3057   20.3823   -2.3771 H   0  0  0  0  0  0  0  0  0  0  0  0
   -2.9481   20.1733    1.2137 H   0  0  0  0  0  0  0  0  0  0  0  0
   -3.1662   21.2252   -0.2260 H   0  0  0  0  0  0  0  0  0  0  0  0
   -3.8264   19.5546   -0.2260 H   0  0  0  0  0  0  0  0  0  0  0  0
   -0.3545   16.2894   -2.0185 H   0  0  0  0  0  0  0  0  0  0  0  0
   -0.1484   16.2656   -4.4261 H   0  0  0  0  0  0  0  0  0  0  0  0
    1.5596   16.7513   -4.3615 H   0  0  0  0  0  0  0  0  0  0  0  0
    0.6023   14.1141   -4.9049 H   0  0  0  0  0  0  0  0  0  0  0  0
    2.2684   14.4902   -4.4741 H   0  0  0  0  0  0  0  0  0  0  0  0
   -0.8666   13.5568   -1.6636 H   0  0  0  0  0  0  0  0  0  0  0  0
   -1.0859   14.4289   -3.2185 H   0  0  0  0  0  0  0  0  0  0  0  0
   -0.7372   12.6668   -3.2185 H   0  0  0  0  0  0  0  0  0  0  0  0
    2.8671   12.9885   -2.6707 H   0  0  0  0  0  0  0  0  0  0  0  0
    1.3061   11.8558   -4.3775 H   0  0  0  0  0  0  0  0  0  0  0  0
    2.5268   10.8774   -3.4064 H   0  0  0  0  0  0  0  0  0  0  0  0
    0.1399    9.8023   -3.7004 H   0  0  0  0  0  0  0  0  0  0  0  0
   -0.2256   12.0949   -0.3971 H   0  0  0  0  0  0  0  0  0  0  0  0
    1.5407    9.7343    0.5010 H   0  0  0  0  0  0  0  0  0  0  0  0
    1.0015   11.1437    1.5176 H   0  0  0  0  0  0  0  0  0  0  0  0
   -0.3117    9.0988    1.9812 H   0  0  0  0  0  0  0  0  0  0  0  0
   -1.3145   10.4449    1.3118 H   0  0  0  0  0  0  0  0  0  0  0  0
   -1.9759    8.3929    0.2584 H   0  0  0  0  0  0  0  0  0  0  0  0
   -0.5180    6.9690   -0.5190 H   0  0  0  0  0  0  0  0  0  0  0  0
   -2.6975   10.6454   -0.1899 H   0  0  0  0  0  0  0  0  0  0  0  0
   -2.2653   11.4426   -1.7405 H   0  0  0  0  0  0  0  0  0  0  0  0
   -3.3302    9.9960   -1.7405 H   0  0  0  0  0  0  0  0  0  0  0  0
   -1.8734    7.5707   -1.9876 H   0  0  0  0  0  0  0  0  0  0  0  0
   -2.3904    8.8876   -3.0946 H   0  0  0  0  0  0  0  0  0  0  0  0
   -0.6818    8.3332   -3.0946 H   0  0  0  0  0  0  0  0  0  0  0  0
    3.2892   11.2551    0.3828 H   0  0  0  0  0  0  0  0  0  0  0  0
    3.0014   10.3720   -1.1548 H   0  0  0  0  0  0  0  0  0  0  0  0
    3.9743   11.8820   -1.1548 H   0  0  0  0  0  0  0  0  0  0  0  0
    1.4939   13.0976    1.0208 H   0  0  0  0  0  0  0  0  0  0  0  0
    2.9563   13.7183    0.0666 H   0  0  0  0  0  0  0  0  0  0  0  0
    0.0520   14.5152   -0.2756 H   0  0  0  0  0  0  0  0  0  0  0  0
    1.4381   15.5222    0.2997 H   0  0  0  0  0  0  0  0  0  0  0  0
    3.3929   15.5077   -0.8596 H   0  0  0  0  0  0  0  0  0  0  0  0
    3.5146   14.6150   -2.4136 H   0  0  0  0  0  0  0  0  0  0  0  0
    3.1334   16.3704   -2.4136 H   0  0  0  0  0  0  0  0  0  0  0  0
  1  2  1  0
  2  3  1  0
  3  4  1  0
  4  5  1  0
  5  6  1  0
  6  7  1  0
  7  8  1  0
  7  9  1  0
  2 10  1  0
 10 11  1  0
 11 12  1  0
 12 13  1  0
 13 14  1  1
 13 15  1  0
 15 16  1  0
 16 17  1  0
 17 18  2  0
 18 19  1  0
 19 20  1  0
 20 21  1  0
 21 22  1  0
 22 23  1  0
 22 24  1  0
 24 25  1  0
 24 26  1  0
 19 27  1  0
 27 28  1  6
 27 29  1  0
 29 30  1  0
 30 31  1  0
 31 32  1  1
  7  5  1  0
 31 10  1  0
 31 13  1  0
 27 15  1  0
 24 18  1  0
  1 33  1  0
  1 34  1  0
  1 35  1  0
  2 36  1  6
  3 37  1  0
  3 38  1  0
  4 39  1  0
  4 40  1  0
  5 41  1  1
  8 42  1  0
  8 43  1  0
  8 44  1  0
  9 45  1  0
  9 46  1  0
  9 47  1  0
 10 48  1  1
 11 49  1  0
 11 50  1  0
 12 51  1  0
 12 52  1  0
 14 53  1  0
 14 54  1  0
 14 55  1  0
 15 56  1  6
 16 57  1  0
 16 58  1  0
 17 59  1  0
 19 60  1  1
 20 61  1  0
 20 62  1  0
 21 63  1  0
 21 64  1  0
 22 65  1  1
 23 66  1  0
 25 67  1  0
 25 68  1  0
 25 69  1  0
 26 70  1  0
 26 71  1  0
 26 72  1  0
 28 73  1  0
 28 74  1  0
 28 75  1  0
 29 76  1  0
 29 77  1  0
 30 78  1  0
 30 79  1  0
 32 80  1  0
 32 81  1  0
 32 82  1  0
M  END
>  <meeko>  (3) 
{"is_sidechain": [false], "intermolecular_energy": 2.731, "internal_energy": -0.839}

$$$$
EPH_relaxed_0001_pdb2pqr_Repair_296_r2_0001_out
     RDKit          3D

 82 86  0  0  0  0  0  0  0  0999 V2000
    1.9190   18.4340   -2.0120 C   0  0  0  0  0  0  0  0  0  0  0  0
    1.5320   17.4460   -0.9080 C   0  0  2  0  0  0  0  0  0  0  0  0
    2.7340   17.0690   -0.0190 C   0  0  0  0  0  0  0  0  0  0  0  0
    3.6880   18.2350    0.2540 C   0  0  0  0  0  0  0  0  0  0  0  0
    3.4570   18.8360    1.6070 C   0  0  2  0  0  0  0  0  0  0  0  0
    3.9030   20.1910    1.7450 O   0  0  0  0  0  0  0  0  0  0  0  0
    4.5780   19.2170    2.5560 C   0  0  0  0  0  0  0  0  0  0  0  0
    6.0140   19.0100    2.1900 C   0  0  0  0  0  0  0  0  0  0  0  0
    4.2710   19.3310    4.0170 C   0  0  0  0  0  0  0  0  0  0  0  0
    0.9250   16.1910   -1.5230 C   0  0  1  0  0  0  0  0  0  0  0  0
    0.7210   16.3150   -3.0560 C   0  0  0  0  0  0  0  0  0  0  0  0
    0.9790   14.9100   -3.6570 C   0  0  0  0  0  0  0  0  0  0  0  0
    0.9940   13.9600   -2.4360 C   0  0  1  0  0  0  0  0  0  0  0  0
   -0.5110   13.6880   -2.1210 C   0  0  0  0  0  0  0  0  0  0  0  0
    1.7980   12.6300   -2.6050 C   0  0  2  0  0  0  0  0  0  0  0  0
    1.2720   11.6840   -3.6990 C   0  0  0  0  0  0  0  0  0  0  0  0
    0.2590   10.6860   -3.2460 C   0  0  0  0  0  0  0  0  0  0  0  0
   -0.0020   10.3620   -1.9660 C   0  0  0  0  0  0  0  0  0  0  0  0
    0.8270   10.9540   -0.8190 C   0  0  1  0  0  0  0  0  0  0  0  0
    1.2290    9.8260    0.1670 C   0  0  0  0  0  0  0  0  0  0  0  0
    0.0270    9.0300    0.6660 C   0  0  0  0  0  0  0  0  0  0  0  0
   -0.7380    8.4080   -0.4990 C   0  0  2  0  0  0  0  0  0  0  0  0
    0.0880    7.4160   -1.1160 O   0  0  0  0  0  0  0  0  0  0  0  0
   -1.1860    9.4490   -1.5630 C   0  0  0  0  0  0  0  0  0  0  0  0
   -2.3090   10.3410   -0.9770 C   0  0  0  0  0  0  0  0  0  0  0  0
   -1.8210    8.6760   -2.7500 C   0  0  0  0  0  0  0  0  0  0  0  0
    2.0630   11.8560   -1.2500 C   0  0  1  0  0  0  0  0  0  0  0  0
    3.3180   10.9620   -1.4870 C   0  0  0  0  0  0  0  0  0  0  0  0
    2.4270   12.8290   -0.0670 C   0  0  0  0  0  0  0  0  0  0  0  0
    1.6850   14.1780   -0.0230 C   0  0  0  0  0  0  0  0  0  0  0  0
    1.7280   14.8730   -1.3870 C   0  0  2  0  0  0  0  0  0  0  0  0
    3.2280   15.1790   -1.7210 C   0  0  0  0  0  0  0  0  0  0  0  0
    2.2844   19.3668   -1.5577 H   0  0  0  0  0  0  0  0  0  0  0  0
    2.7116   17.9949   -2.6357 H   0  0  0  0  0  0  0  0  0  0  0  0
    1.0390   18.6500   -2.6357 H   0  0  0  0  0  0  0  0  0  0  0  0
    0.7891   17.9416   -0.2658 H   0  0  0  0  0  0  0  0  0  0  0  0
    2.3514   16.7007    0.9443 H   0  0  0  0  0  0  0  0  0  0  0  0
    3.3084   16.3045   -0.5627 H   0  0  0  0  0  0  0  0  0  0  0  0
    4.7237   17.8684    0.1990 H   0  0  0  0  0  0  0  0  0  0  0  0
    3.5039   19.0124   -0.5021 H   0  0  0  0  0  0  0  0  0  0  0  0
    2.5463   18.2344    1.7441 H   0  0  0  0  0  0  0  0  0  0  0  0
    6.6170   18.9231    3.1059 H   0  0  0  0  0  0  0  0  0  0  0  0
    6.1122   18.0884    1.5975 H   0  0  0  0  0  0  0  0  0  0  0  0
    6.3685   19.8663    1.5975 H   0  0  0  0  0  0  0  0  0  0  0  0
    5.1445   19.0066    4.6016 H   0  0  0  0  0  0  0  0  0  0  0  0
    4.0341   20.3770    4.2614 H   0  0  0  0  0  0  0  0  0  0  0  0
    3.4088   18.6931    4.2614 H   0  0  0  0  0  0  0  0  0  0  0  0
   -0.0031   16.1285   -0.9359 H   0  0  0  0  0  0  0  0  0  0  0  0
   -0.3071   16.6382   -3.2763 H   0  0  0  0  0  0  0  0  0  0  0  0
    1.4060   17.0603   -3.4864 H   0  0  0  0  0  0  0  0  0  0  0  0
    0.1753   14.6326   -4.3550 H   0  0  0  0  0  0  0  0  0  0  0  0
    1.9168   14.8673   -4.2303 H   0  0  0  0  0  0  0  0  0  0  0  0
   -0.6585   13.6613   -1.0313 H   0  0  0  0  0  0  0  0  0  0  0  0
   -1.1271   14.4894   -2.5549 H   0  0  0  0  0  0  0  0  0  0  0  0
   -0.8076   12.7217   -2.5549 H   0  0  0  0  0  0  0  0  0  0  0  0
    2.7740   12.9885   -2.9640 H   0  0  0  0  0  0  0  0  0  0  0  0
    0.8144   12.2984   -4.4884 H   0  0  0  0  0  0  0  0  0  0  0  0
    2.1404   11.1021   -4.0413 H   0  0  0  0  0  0  0  0  0  0  0  0
   -0.3238   10.1716   -4.0243 H   0  0  0  0  0  0  0  0  0  0  0  0
    0.1702   11.6762   -0.3119 H   0  0  0  0  0  0  0  0  0  0  0  0
    1.9189    9.1392   -0.3452 H   0  0  0  0  0  0  0  0  0  0  0  0
    1.7026   10.2986    1.0402 H   0  0  0  0  0  0  0  0  0  0  0  0
    0.3777    8.2298    1.3344 H   0  0  0  0  0  0  0  0  0  0  0  0
   -0.6472    9.7129    1.2036 H   0  0  0  0  0  0  0  0  0  0  0  0
   -1.6564    7.9620   -0.0895 H   0  0  0  0  0  0  0  0  0  0  0  0
   -0.2090    7.3160   -2.0360 H   0  0  0  0  0  0  0  0  0  0  0  0
   -2.2676   10.3081    0.1217 H   0  0  0  0  0  0  0  0  0  0  0  0
   -2.1698   11.3774   -1.3183 H   0  0  0  0  0  0  0  0  0  0  0  0
   -3.2870    9.9708   -1.3183 H   0  0  0  0  0  0  0  0  0  0  0  0
   -2.4744    7.8806   -2.3620 H   0  0  0  0  0  0  0  0  0  0  0  0
   -2.4133    9.3699   -3.3645 H   0  0  0  0  0  0  0  0  0  0  0  0
   -1.0253    8.2297   -3.3645 H   0  0  0  0  0  0  0  0  0  0  0  0
    3.7416   10.6603   -0.5177 H   0  0  0  0  0  0  0  0  0  0  0  0
    3.0279   10.0660   -2.0553 H   0  0  0  0  0  0  0  0  0  0  0  0
    4.0701   11.5290   -2.0553 H   0  0  0  0  0  0  0  0  0  0  0  0
    2.2146   12.3017    0.8747 H   0  0  0  0  0  0  0  0  0  0  0  0
    3.4848   13.0877   -0.2226 H   0  0  0  0  0  0  0  0  0  0  0  0
    0.6362   14.0026    0.2584 H   0  0  0  0  0  0  0  0  0  0  0  0
    2.1792   14.8258    0.7160 H   0  0  0  0  0  0  0  0  0  0  0  0
    3.7956   15.2948   -0.7859 H   0  0  0  0  0  0  0  0  0  0  0  0
    3.6502   14.3485   -2.3058 H   0  0  0  0  0  0  0  0  0  0  0  0
    3.2912   16.1085   -2.3058 H   0  0  0  0  0  0  0  0  0  0  0  0
  1  2  1  0
  2  3  1  0
  3  4  1  0
  4  5  1  0
  5  6  1  0
  6  7  1  0
  7  8  1  0
  7  9  1  0
  2 10  1  0
 10 11  1  0
 11 12  1  0
 12 13  1  0
 13 14  1  1
 13 15  1  0
 15 16  1  0
 16 17  1  0
 17 18  2  0
 18 19  1  0
 19 20  1  0
 20 21  1  0
 21 22  1  0
 22 23  1  0
 22 24  1  0
 24 25  1  0
 24 26  1  0
 19 27  1  0
 27 28  1  6
 27 29  1  0
 29 30  1  0
 30 31  1  0
 31 32  1  6
  7  5  1  0
 31 10  1  0
 31 13  1  0
 27 15  1  0
 24 18  1  0
  1 33  1  0
  1 34  1  0
  1 35  1  0
  2 36  1  1
  3 37  1  0
  3 38  1  0
  4 39  1  0
  4 40  1  0
  5 41  1  1
  8 42  1  0
  8 43  1  0
  8 44  1  0
  9 45  1  0
  9 46  1  0
  9 47  1  0
 10 48  1  1
 11 49  1  0
 11 50  1  0
 12 51  1  0
 12 52  1  0
 14 53  1  0
 14 54  1  0
 14 55  1  0
 15 56  1  6
 16 57  1  0
 16 58  1  0
 17 59  1  0
 19 60  1  1
 20 61  1  0
 20 62  1  0
 21 63  1  0
 21 64  1  0
 22 65  1  1
 23 66  1  0
 25 67  1  0
 25 68  1  0
 25 69  1  0
 26 70  1  0
 26 71  1  0
 26 72  1  0
 28 73  1  0
 28 74  1  0
 28 75  1  0
 29 76  1  0
 29 77  1  0
 30 78  1  0
 30 79  1  0
 32 80  1  0
 32 81  1  0
 32 82  1  0
M  END
>  <meeko>  (4) 
{"is_sidechain": [false], "intermolecular_energy": 2.731, "internal_energy": -0.839}

$$$$
EPH_relaxed_0001_pdb2pqr_Repair_296_r2_0001_out
     RDKit          3D

 82 86  0  0  0  0  0  0  0  0999 V2000
    3.8130   17.9450    0.7030 C   0  0  0  0  0  0  0  0  0  0  0  0
    2.7310   18.3980   -0.2810 C   0  0  2  0  0  0  0  0  0  0  0  0
    2.0020   19.6680    0.2020 C   0  0  0  0  0  0  0  0  0  0  0  0
    0.7570   19.3800    1.0460 C   0  0  0  0  0  0  0  0  0  0  0  0
   -0.4620   20.0430    0.4790 C   0  0  2  0  0  0  0  0  0  0  0  0
   -1.5460   20.1940    1.4040 O   0  0  0  0  0  0  0  0  0  0  0  0
   -1.7860   19.3300    0.2820 C   0  0  0  0  0  0  0  0  0  0  0  0
   -1.9590   17.8890    0.6500 C   0  0  0  0  0  0  0  0  0  0  0  0
   -2.7590   19.8870   -0.7100 C   0  0  0  0  0  0  0  0  0  0  0  0
    1.7260   17.2730   -0.5030 C   0  0  1  0  0  0  0  0  0  0  0  0
    0.5040   17.7230   -1.3460 C   0  0  0  0  0  0  0  0  0  0  0  0
    0.0870   16.5070   -2.2130 C   0  0  0  0  0  0  0  0  0  0  0  0
    0.8600   15.3120   -1.6070 C   0  0  1  0  0  0  0  0  0  0  0  0
    0.0180   14.8770   -0.3670 C   0  0  0  0  0  0  0  0  0  0  0  0
    1.1390   14.1100   -2.5670 C   0  0  2  0  0  0  0  0  0  0  0  0
   -0.1160   13.3990   -3.1020 C   0  0  0  0  0  0  0  0  0  0  0  0
   -0.6060   12.2590   -2.2720 C   0  0  0  0  0  0  0  0  0  0  0  0
    0.0920   11.6410   -1.3020 C   0  0  0  0  0  0  0  0  0  0  0  0
    1.5530   12.0170   -1.0210 C   0  0  1  0  0  0  0  0  0  0  0  0
    2.4030   10.7270   -0.8860 C   0  0  0  0  0  0  0  0  0  0  0  0
    1.8400    9.7610    0.1520 C   0  0  0  0  0  0  0  0  0  0  0  0
    0.4070    9.3650   -0.1930 C   0  0  2  0  0  0  0  0  0  0  0  0
    0.4190    8.5930   -1.3980 O   0  0  0  0  0  0  0  0  0  0  0  0
   -0.5420   10.5840   -0.3640 C   0  0  0  0  0  0  0  0  0  0  0  0
   -0.7930   11.2450    1.0140 C   0  0  0  0  0  0  0  0  0  0  0  0
   -1.9180   10.0540   -0.8480 C   0  0  0  0  0  0  0  0  0  0  0  0
    2.2000   13.0730   -2.0170 C   0  0  1  0  0  0  0  0  0  0  0  0
    2.7920   12.3400   -3.2600 C   0  0  0  0  0  0  0  0  0  0  0  0
    3.4110   13.7800   -1.3010 C   0  0  0  0  0  0  0  0  0  0  0  0
    3.0880   15.0330   -0.4630 C   0  0  0  0  0  0  0  0  0  0  0  0
    2.2230   16.0150   -1.2580 C   0  0  2  0  0  0  0  0  0  0  0  0
    3.0530   16.4880   -2.5000 C   0  0  0  0  0  0  0  0  0  0  0  0
    3.4573   18.0939    1.7332 H   0  0  0  0  0  0  0  0  0  0  0  0
    4.0327   16.8793    0.5414 H   0  0  0  0  0  0  0  0  0  0  0  0
    4.7264   18.5363    0.5414 H   0  0  0  0  0  0  0  0  0  0  0  0
    3.2291   18.6441   -1.2304 H   0  0  0  0  0  0  0  0  0  0  0  0
    2.7026   20.2613    0.8079 H   0  0  0  0  0  0  0  0  0  0  0  0
    1.6641   20.2058   -0.6961 H   0  0  0  0  0  0  0  0  0  0  0  0
    0.5903   18.2931    1.0762 H   0  0  0  0  0  0  0  0  0  0  0  0
    0.9270   19.7807    2.0562 H   0  0  0  0  0  0  0  0  0  0  0  0
    0.1552   20.6532   -0.1968 H   0  0  0  0  0  0  0  0  0  0  0  0
   -1.9710   17.7892    1.7454 H   0  0  0  0  0  0  0  0  0  0  0  0
   -2.9083   17.5166    0.2375 H   0  0  0  0  0  0  0  0  0  0  0  0
   -1.1248   17.3025    0.2375 H   0  0  0  0  0  0  0  0  0  0  0  0
   -3.5937   20.3648   -0.1763 H   0  0  0  0  0  0  0  0  0  0  0  0
   -2.2529   20.6322   -1.3413 H   0  0  0  0  0  0  0  0  0  0  0  0
   -3.1453   19.0733   -1.3413 H   0  0  0  0  0  0  0  0  0  0  0  0
    1.4989   17.0181    0.5427 H   0  0  0  0  0  0  0  0  0  0  0  0
   -0.3240   18.0188   -0.6850 H   0  0  0  0  0  0  0  0  0  0  0  0
    0.7556   18.5893   -1.9754 H   0  0  0  0  0  0  0  0  0  0  0  0
   -0.9983   16.3394   -2.1503 H   0  0  0  0  0  0  0  0  0  0  0  0
    0.3174   16.6557   -3.2783 H   0  0  0  0  0  0  0  0  0  0  0  0
    0.5522   15.1530    0.5541 H   0  0  0  0  0  0  0  0  0  0  0  0
   -0.9581   15.3836   -0.3906 H   0  0  0  0  0  0  0  0  0  0  0  0
   -0.1336   13.7878   -0.3906 H   0  0  0  0  0  0  0  0  0  0  0  0
    1.5974   14.6039   -3.4364 H   0  0  0  0  0  0  0  0  0  0  0  0
   -0.9244   14.1419   -3.1701 H   0  0  0  0  0  0  0  0  0  0  0  0
    0.1693   12.9678   -4.0729 H   0  0  0  0  0  0  0  0  0  0  0  0
   -1.6243   11.8932   -2.4704 H   0  0  0  0  0  0  0  0  0  0  0  0
    1.5488   12.5622   -0.0656 H   0  0  0  0  0  0  0  0  0  0  0  0
    2.4308   10.2194   -1.8615 H   0  0  0  0  0  0  0  0  0  0  0  0
    3.4092   11.0235   -0.5549 H   0  0  0  0  0  0  0  0  0  0  0  0
    2.4665    8.8573    0.1801 H   0  0  0  0  0  0  0  0  0  0  0  0
    1.8404   10.2595    1.1326 H   0  0  0  0  0  0  0  0  0  0  0  0
    0.0154    8.7785    0.6512 H   0  0  0  0  0  0  0  0  0  0  0  0
    0.1740    7.6810   -1.1650 H   0  0  0  0  0  0  0  0  0  0  0  0
   -0.5249   10.5389    1.8137 H   0  0  0  0  0  0  0  0  0  0  0  0
   -0.1766   12.1516    1.1035 H   0  0  0  0  0  0  0  0  0  0  0  0
   -1.8558   11.5140    1.1035 H   0  0  0  0  0  0  0  0  0  0  0  0
   -2.5449    9.8125    0.0230 H   0  0  0  0  0  0  0  0  0  0  0  0
   -2.4150   10.8250   -1.4550 H   0  0  0  0  0  0  0  0  0  0  0  0
   -1.7694    9.1488   -1.4550 H   0  0  0  0  0  0  0  0  0  0  0  0
    3.4505   11.5247   -2.9257 H   0  0  0  0  0  0  0  0  0  0  0  0
    1.9728   11.9249   -3.8654 H   0  0  0  0  0  0  0  0  0  0  0  0
    3.3702   13.0535   -3.8654 H   0  0  0  0  0  0  0  0  0  0  0  0
    3.8778   13.0429   -0.6311 H   0  0  0  0  0  0  0  0  0  0  0  0
    4.0580   14.1376   -2.1156 H   0  0  0  0  0  0  0  0  0  0  0  0
    2.5460   14.7291    0.4447 H   0  0  0  0  0  0  0  0  0  0  0  0
    4.0322   15.5314   -0.1985 H   0  0  0  0  0  0  0  0  0  0  0  0
    3.9614   17.0057   -2.1583 H   0  0  0  0  0  0  0  0  0  0  0  0
    3.3348   15.6149   -3.1068 H   0  0  0  0  0  0  0  0  0  0  0  0
    2.4454   17.1755   -3.1068 H   0  0  0  0  0  0  0  0  0  0  0  0
  1  2  1  0
  2  3  1  0
  3  4  1  0
  4  5  1  0
  5  6  1  0
  6  7  1  0
  7  8  1  0
  7  9  1  0
  2 10  1  0
 10 11  1  0
 11 12  1  0
 12 13  1  0
 13 14  1  1
 13 15  1  0
 15 16  1  0
 16 17  1  0
 17 18  2  0
 18 19  1  0
 19 20  1  0
 20 21  1  0
 21 22  1  0
 22 23  1  0
 22 24  1  0
 24 25  1  0
 24 26  1  0
 19 27  1  0
 27 28  1  6
 27 29  1  0
 29 30  1  0
 30 31  1  0
 31 32  1  6
  7  5  1  0
 31 10  1  0
 31 13  1  0
 27 15  1  0
 24 18  1  0
  1 33  1  0
  1 34  1  0
  1 35  1  0
  2 36  1  6
  3 37  1  0
  3 38  1  0
  4 39  1  0
  4 40  1  0
  5 41  1  6
  8 42  1  0
  8 43  1  0
  8 44  1  0
  9 45  1  0
  9 46  1  0
  9 47  1  0
 10 48  1  1
 11 49  1  0
 11 50  1  0
 12 51  1  0
 12 52  1  0
 14 53  1  0
 14 54  1  0
 14 55  1  0
 15 56  1  6
 16 57  1  0
 16 58  1  0
 17 59  1  0
 19 60  1  1
 20 61  1  0
 20 62  1  0
 21 63  1  0
 21 64  1  0
 22 65  1  1
 23 66  1  0
 25 67  1  0
 25 68  1  0
 25 69  1  0
 26 70  1  0
 26 71  1  0
 26 72  1  0
 28 73  1  0
 28 74  1  0
 28 75  1  0
 29 76  1  0
 29 77  1  0
 30 78  1  0
 30 79  1  0
 32 80  1  0
 32 81  1  0
 32 82  1  0
M  END
>  <meeko>  (5) 
{"is_sidechain": [false], "intermolecular_energy": 2.731, "internal_energy": -0.839}

$$$$
EPH_relaxed_0001_pdb2pqr_Repair_296_r2_0001_out
     RDKit          3D

 82 86  0  0  0  0  0  0  0  0999 V2000
   -5.1270    5.8900   -1.6740 C   0  0  0  0  0  0  0  0  0  0  0  0
   -5.4250    7.3910   -1.7430 C   0  0  2  0  0  0  0  0  0  0  0  0
   -5.2100    8.0890   -0.3850 C   0  0  0  0  0  0  0  0  0  0  0  0
   -4.1470    9.1910   -0.4210 C   0  0  0  0  0  0  0  0  0  0  0  0
   -2.8170    8.6630   -0.8660 C   0  0  2  0  0  0  0  0  0  0  0  0
   -1.7390    8.9120    0.0460 O   0  0  0  0  0  0  0  0  0  0  0  0
   -1.6460    9.5540   -1.2360 C   0  0  0  0  0  0  0  0  0  0  0  0
   -1.7500   11.0450   -1.1790 C   0  0  0  0  0  0  0  0  0  0  0  0
   -0.5700    8.9930   -2.1140 C   0  0  0  0  0  0  0  0  0  0  0  0
   -6.8530    7.6160   -2.2250 C   0  0  1  0  0  0  0  0  0  0  0  0
   -7.1380    6.9330   -3.5890 C   0  0  0  0  0  0  0  0  0  0  0  0
   -8.6110    6.4530   -3.5500 C   0  0  0  0  0  0  0  0  0  0  0  0
   -9.2190    7.1580   -2.3150 C   0  0  1  0  0  0  0  0  0  0  0  0
   -9.5700    8.5970   -2.8070 C   0  0  0  0  0  0  0  0  0  0  0  0
  -10.4510    6.4570   -1.6560 C   0  0  2  0  0  0  0  0  0  0  0  0
  -11.6920    6.3350   -2.5580 C   0  0  0  0  0  0  0  0  0  0  0  0
  -12.6530    7.4750   -2.4780 C   0  0  0  0  0  0  0  0  0  0  0  0
  -12.6750    8.4130   -1.5130 C   0  0  0  0  0  0  0  0  0  0  0  0
  -11.7270    8.3280   -0.3100 C   0  0  1  0  0  0  0  0  0  0  0  0
  -12.5230    8.5890    0.9960 C   0  0  0  0  0  0  0  0  0  0  0  0
  -13.2980    9.9030    0.9560 C   0  0  0  0  0  0  0  0  0  0  0  0
  -14.2710    9.9260   -0.2200 C   0  0  2  0  0  0  0  0  0  0  0  0
  -15.2870    8.9440    0.0040 O   0  0  0  0  0  0  0  0  0  0  0  0
  -13.5840    9.6640   -1.5900 C   0  0  0  0  0  0  0  0  0  0  0  0
  -12.7060   10.8810   -1.9720 C   0  0  0  0  0  0  0  0  0  0  0  0
  -14.6940    9.5740   -2.6710 C   0  0  0  0  0  0  0  0  0  0  0  0
  -10.8290    7.0190   -0.2260 C   0  0  1  0  0  0  0  0  0  0  0  0
  -11.6090    5.8850    0.5070 C   0  0  0  0  0  0  0  0  0  0  0  0
   -9.5580    7.3230    0.6520 C   0  0  0  0  0  0  0  0  0  0  0  0
   -8.3320    7.9040   -0.0780 C   0  0  0  0  0  0  0  0  0  0  0  0
   -7.9980    7.0830   -1.3270 C   0  0  2  0  0  0  0  0  0  0  0  0
   -7.6200    5.6350   -0.8620 C   0  0  0  0  0  0  0  0  0  0  0  0
   -5.0648    5.5765   -0.6214 H   0  0  0  0  0  0  0  0  0  0  0  0
   -5.9321    5.3329   -2.1755 H   0  0  0  0  0  0  0  0  0  0  0  0
   -4.1702    5.6827   -2.1755 H   0  0  0  0  0  0  0  0  0  0  0  0
   -4.7175    7.8362   -2.4580 H   0  0  0  0  0  0  0  0  0  0  0  0
   -6.1640    8.5368   -0.0697 H   0  0  0  0  0  0  0  0  0  0  0  0
   -4.8540    7.3217    0.3182 H   0  0  0  0  0  0  0  0  0  0  0  0
   -4.4709    9.9762   -1.1199 H   0  0  0  0  0  0  0  0  0  0  0  0
   -4.0338    9.5920    0.5970 H   0  0  0  0  0  0  0  0  0  0  0  0
   -3.2977    7.8217   -1.3868 H   0  0  0  0  0  0  0  0  0  0  0  0
   -1.7727   11.3711   -0.1287 H   0  0  0  0  0  0  0  0  0  0  0  0
   -0.8809   11.4927   -1.6832 H   0  0  0  0  0  0  0  0  0  0  0  0
   -2.6728   11.3677   -1.6832 H   0  0  0  0  0  0  0  0  0  0  0  0
    0.2325    8.5746   -1.4887 H   0  0  0  0  0  0  0  0  0  0  0  0
   -0.9913    8.1998   -2.7490 H   0  0  0  0  0  0  0  0  0  0  0  0
   -0.1609    9.7926   -2.7490 H   0  0  0  0  0  0  0  0  0  0  0  0
   -6.8702    8.7157   -2.2449 H   0  0  0  0  0  0  0  0  0  0  0  0
   -6.9954    7.6516   -4.4095 H   0  0  0  0  0  0  0  0  0  0  0  0
   -6.4524    6.0898   -3.7592 H   0  0  0  0  0  0  0  0  0  0  0  0
   -9.1407    6.7507   -4.4669 H   0  0  0  0  0  0  0  0  0  0  0  0
   -8.6911    5.3578   -3.4864 H   0  0  0  0  0  0  0  0  0  0  0  0
   -9.7299    9.2527   -1.9384 H   0  0  0  0  0  0  0  0  0  0  0  0
   -8.7412    8.9891   -3.4147 H   0  0  0  0  0  0  0  0  0  0  0  0
  -10.4863    8.5634   -3.4147 H   0  0  0  0  0  0  0  0  0  0  0  0
  -10.0864    5.4297   -1.5086 H   0  0  0  0  0  0  0  0  0  0  0  0
  -11.3483    6.2526   -3.5997 H   0  0  0  0  0  0  0  0  0  0  0  0
  -12.2400    5.4495   -2.2036 H   0  0  0  0  0  0  0  0  0  0  0  0
  -13.4067    7.5550   -3.2752 H   0  0  0  0  0  0  0  0  0  0  0  0
  -10.9787    9.1209   -0.4559 H   0  0  0  0  0  0  0  0  0  0  0  0
  -13.2350    7.7640    1.1459 H   0  0  0  0  0  0  0  0  0  0  0  0
  -11.7987    8.6534    1.8214 H   0  0  0  0  0  0  0  0  0  0  0  0
  -13.8628   10.0166    1.8930 H   0  0  0  0  0  0  0  0  0  0  0  0
  -12.5823   10.7296    0.8361 H   0  0  0  0  0  0  0  0  0  0  0  0
  -14.7001   10.9375   -0.2733 H   0  0  0  0  0  0  0  0  0  0  0  0
  -16.0600    9.1930   -0.5310 H   0  0  0  0  0  0  0  0  0  0  0  0
  -12.3484   11.3766   -1.0574 H   0  0  0  0  0  0  0  0  0  0  0  0
  -11.8446   10.5399   -2.5650 H   0  0  0  0  0  0  0  0  0  0  0  0
  -13.3013   11.5909   -2.5650 H   0  0  0  0  0  0  0  0  0  0  0  0
  -15.6762    9.4944   -2.1822 H   0  0  0  0  0  0  0  0  0  0  0  0
  -14.6688   10.4771   -3.2985 H   0  0  0  0  0  0  0  0  0  0  0  0
  -14.5237    8.6867   -3.2985 H   0  0  0  0  0  0  0  0  0  0  0  0
  -11.5161    6.0200    1.5947 H   0  0  0  0  0  0  0  0  0  0  0  0
  -12.6705    5.9265    0.2217 H   0  0  0  0  0  0  0  0  0  0  0  0
  -11.1905    4.9085    0.2217 H   0  0  0  0  0  0  0  0  0  0  0  0
   -9.8547    8.0430    1.4289 H   0  0  0  0  0  0  0  0  0  0  0  0
   -9.2297    6.3442    1.0316 H   0  0  0  0  0  0  0  0  0  0  0  0
   -8.5484    8.9405   -0.3759 H   0  0  0  0  0  0  0  0  0  0  0  0
   -7.4696    7.8716    0.6041 H   0  0  0  0  0  0  0  0  0  0  0  0
   -7.6093    5.5940    0.2372 H   0  0  0  0  0  0  0  0  0  0  0  0
   -8.3617    4.9205   -1.2484 H   0  0  0  0  0  0  0  0  0  0  0  0
   -6.6237    5.3742   -1.2484 H   0  0  0  0  0  0  0  0  0  0  0  0
  1  2  1  0
  2  3  1  0
  3  4  1  0
  4  5  1  0
  5  6  1  0
  6  7  1  0
  7  8  1  0
  7  9  1  0
  2 10  1  0
 10 11  1  0
 11 12  1  0
 12 13  1  0
 13 14  1  6
 13 15  1  0
 15 16  1  0
 16 17  1  0
 17 18  2  0
 18 19  1  0
 19 20  1  0
 20 21  1  0
 21 22  1  0
 22 23  1  0
 22 24  1  0
 24 25  1  0
 24 26  1  0
 19 27  1  0
 27 28  1  1
 27 29  1  0
 29 30  1  0
 30 31  1  0
 31 32  1  1
  7  5  1  0
 31 10  1  0
 31 13  1  0
 27 15  1  0
 24 18  1  0
  1 33  1  0
  1 34  1  0
  1 35  1  0
  2 36  1  6
  3 37  1  0
  3 38  1  0
  4 39  1  0
  4 40  1  0
  5 41  1  6
  8 42  1  0
  8 43  1  0
  8 44  1  0
  9 45  1  0
  9 46  1  0
  9 47  1  0
 10 48  1  6
 11 49  1  0
 11 50  1  0
 12 51  1  0
 12 52  1  0
 14 53  1  0
 14 54  1  0
 14 55  1  0
 15 56  1  1
 16 57  1  0
 16 58  1  0
 17 59  1  0
 19 60  1  6
 20 61  1  0
 20 62  1  0
 21 63  1  0
 21 64  1  0
 22 65  1  6
 23 66  1  0
 25 67  1  0
 25 68  1  0
 25 69  1  0
 26 70  1  0
 26 71  1  0
 26 72  1  0
 28 73  1  0
 28 74  1  0
 28 75  1  0
 29 76  1  0
 29 77  1  0
 30 78  1  0
 30 79  1  0
 32 80  1  0
 32 81  1  0
 32 82  1  0
M  END
>  <meeko>  (6) 
{"is_sidechain": [false], "intermolecular_energy": 2.731, "internal_energy": -0.839}

$$$$
EPH_relaxed_0001_pdb2pqr_Repair_296_r2_0001_out
     RDKit          3D

 82 86  0  0  0  0  0  0  0  0999 V2000
   -1.8800    7.8510   -2.2530 C   0  0  0  0  0  0  0  0  0  0  0  0
   -2.0730    8.5300   -0.8940 C   0  0  2  0  0  0  0  0  0  0  0  0
   -3.5450    8.5070   -0.4370 C   0  0  0  0  0  0  0  0  0  0  0  0
   -4.4910    7.8440   -1.4420 C   0  0  0  0  0  0  0  0  0  0  0  0
   -5.6540    7.1890   -0.7600 C   0  0  2  0  0  0  0  0  0  0  0  0
   -6.2160    6.0780   -1.4700 O   0  0  0  0  0  0  0  0  0  0  0  0
   -7.0700    7.2210   -1.3030 C   0  0  0  0  0  0  0  0  0  0  0  0
   -7.3990    7.9270   -2.5820 C   0  0  0  0  0  0  0  0  0  0  0  0
   -8.2060    6.9930   -0.3560 C   0  0  0  0  0  0  0  0  0  0  0  0
   -1.5690    9.9670   -0.9540 C   0  0  1  0  0  0  0  0  0  0  0  0
   -1.1130   10.4990    0.4300 C   0  0  0  0  0  0  0  0  0  0  0  0
    0.0900   11.4420    0.1730 C   0  0  0  0  0  0  0  0  0  0  0  0
    0.0780   11.6830   -1.3550 C   0  0  1  0  0  0  0  0  0  0  0  0
   -1.0000   12.7900   -1.5770 C   0  0  0  0  0  0  0  0  0  0  0  0
    1.4460   12.0700   -2.0050 C   0  0  2  0  0  0  0  0  0  0  0  0
    2.0520   13.3950   -1.5100 C   0  0  0  0  0  0  0  0  0  0  0  0
    1.6590   14.6060   -2.2890 C   0  0  0  0  0  0  0  0  0  0  0  0
    1.0850   14.6010   -3.5060 C   0  0  0  0  0  0  0  0  0  0  0  0
    0.8640   13.2880   -4.2680 C   0  0  1  0  0  0  0  0  0  0  0  0
    1.3300   13.4570   -5.7380 C   0  0  0  0  0  0  0  0  0  0  0  0
    0.6720   14.6480   -6.4270 C   0  0  0  0  0  0  0  0  0  0  0  0
    0.9620   15.9430   -5.6720 C   0  0  2  0  0  0  0  0  0  0  0  0
    2.3600   16.2300   -5.7710 O   0  0  0  0  0  0  0  0  0  0  0  0
    0.5440   15.8880   -4.1760 C   0  0  0  0  0  0  0  0  0  0  0  0
   -1.0010   15.8800   -4.0680 C   0  0  0  0  0  0  0  0  0  0  0  0
    1.0200   17.2020   -3.4990 C   0  0  0  0  0  0  0  0  0  0  0  0
    1.4610   11.9820   -3.5850 C   0  0  1  0  0  0  0  0  0  0  0  0
    2.9500   11.7940   -4.0060 C   0  0  0  0  0  0  0  0  0  0  0  0
    0.6850   10.7220   -4.1210 C   0  0  0  0  0  0  0  0  0  0  0  0
   -0.5950   10.3190   -3.3640 C   0  0  0  0  0  0  0  0  0  0  0  0
   -0.3410   10.2520   -1.8550 C   0  0  2  0  0  0  0  0  0  0  0  0
    0.7230    9.1310   -1.5980 C   0  0  0  0  0  0  0  0  0  0  0  0
   -1.5822    6.8032   -2.1003 H   0  0  0  0  0  0  0  0  0  0  0  0
   -2.8235    7.8855   -2.8174 H   0  0  0  0  0  0  0  0  0  0  0  0
   -1.0957    8.3766   -2.8174 H   0  0  0  0  0  0  0  0  0  0  0  0
   -1.4889    7.9619   -0.1550 H   0  0  0  0  0  0  0  0  0  0  0  0
   -3.6052    7.9554    0.5128 H   0  0  0  0  0  0  0  0  0  0  0  0
   -3.8665    9.5540   -0.3352 H   0  0  0  0  0  0  0  0  0  0  0  0
   -4.8693    8.6103   -2.1345 H   0  0  0  0  0  0  0  0  0  0  0  0
   -3.9286    7.0679   -1.9818 H   0  0  0  0  0  0  0  0  0  0  0  0
   -5.2382    7.4289    0.2297 H   0  0  0  0  0  0  0  0  0  0  0  0
   -7.8537    8.9027   -2.3557 H   0  0  0  0  0  0  0  0  0  0  0  0
   -6.4784    8.0778   -3.1649 H   0  0  0  0  0  0  0  0  0  0  0  0
   -8.1066    7.3191   -3.1649 H   0  0  0  0  0  0  0  0  0  0  0  0
   -7.8409    7.0663    0.6790 H   0  0  0  0  0  0  0  0  0  0  0  0
   -8.9828    7.7531   -0.5255 H   0  0  0  0  0  0  0  0  0  0  0  0
   -8.6294    5.9920   -0.5255 H   0  0  0  0  0  0  0  0  0  0  0  0
   -2.4619   10.4585   -1.3676 H   0  0  0  0  0  0  0  0  0  0  0  0
   -1.9323   11.0530    0.9115 H   0  0  0  0  0  0  0  0  0  0  0  0
   -0.8304    9.6715    1.0974 H   0  0  0  0  0  0  0  0  0  0  0  0
   -0.0367   12.3899    0.7166 H   0  0  0  0  0  0  0  0  0  0  0  0
    1.0402   11.0096    0.5195 H   0  0  0  0  0  0  0  0  0  0  0  0
   -1.3561   13.1557   -0.6026 H   0  0  0  0  0  0  0  0  0  0  0  0
   -0.5583   13.6238   -2.1424 H   0  0  0  0  0  0  0  0  0  0  0  0
   -1.8452   12.3706   -2.1424 H   0  0  0  0  0  0  0  0  0  0  0  0
    2.1149   11.2790   -1.6351 H   0  0  0  0  0  0  0  0  0  0  0  0
    1.7362   13.5445   -0.4670 H   0  0  0  0  0  0  0  0  0  0  0  0
    3.1408   13.2956   -1.6307 H   0  0  0  0  0  0  0  0  0  0  0  0
    1.8553   15.5858   -1.8292 H   0  0  0  0  0  0  0  0  0  0  0  0
   -0.2192   13.0984   -4.2398 H   0  0  0  0  0  0  0  0  0  0  0  0
    2.4203   13.6022   -5.7478 H   0  0  0  0  0  0  0  0  0  0  0  0
    1.0374   12.5500   -6.2873 H   0  0  0  0  0  0  0  0  0  0  0  0
    1.0637   14.7329   -7.4514 H   0  0  0  0  0  0  0  0  0  0  0  0
   -0.4160   14.4871   -6.4437 H   0  0  0  0  0  0  0  0  0  0  0  0
    0.3590   16.7375   -6.1359 H   0  0  0  0  0  0  0  0  0  0  0  0
    2.4540   17.0900   -6.2160 H   0  0  0  0  0  0  0  0  0  0  0  0
   -1.2944   15.8785   -3.0079 H   0  0  0  0  0  0  0  0  0  0  0  0
   -1.4076   16.7761   -4.5597 H   0  0  0  0  0  0  0  0  0  0  0  0
   -1.3983   14.9798   -4.5597 H   0  0  0  0  0  0  0  0  0  0  0  0
    0.9784   17.0872   -2.4058 H   0  0  0  0  0  0  0  0  0  0  0  0
    2.0538   17.4189   -3.8058 H   0  0  0  0  0  0  0  0  0  0  0  0
    0.3649   18.0307   -3.8058 H   0  0  0  0  0  0  0  0  0  0  0  0
    3.5782   11.7147   -3.1065 H   0  0  0  0  0  0  0  0  0  0  0  0
    3.0488   10.8762   -4.6043 H   0  0  0  0  0  0  0  0  0  0  0  0
    3.2738   12.6584   -4.6043 H   0  0  0  0  0  0  0  0  0  0  0  0
    0.4042   10.9238   -5.1652 H   0  0  0  0  0  0  0  0  0  0  0  0
    1.3775    9.8784   -3.9839 H   0  0  0  0  0  0  0  0  0  0  0  0
   -1.3806   11.0625   -3.5641 H   0  0  0  0  0  0  0  0  0  0  0  0
   -0.9095    9.3238   -3.7114 H   0  0  0  0  0  0  0  0  0  0  0  0
    0.8549    8.9920   -0.5148 H   0  0  0  0  0  0  0  0  0  0  0  0
    0.3791    8.1887   -2.0494 H   0  0  0  0  0  0  0  0  0  0  0  0
    1.6820    9.4253   -2.0494 H   0  0  0  0  0  0  0  0  0  0  0  0
  1  2  1  0
  2  3  1  0
  3  4  1  0
  4  5  1  0
  5  6  1  0
  6  7  1  0
  7  8  1  0
  7  9  1  0
  2 10  1  0
 10 11  1  0
 11 12  1  0
 12 13  1  0
 13 14  1  1
 13 15  1  0
 15 16  1  0
 16 17  1  0
 17 18  2  0
 18 19  1  0
 19 20  1  0
 20 21  1  0
 21 22  1  0
 22 23  1  0
 22 24  1  0
 24 25  1  0
 24 26  1  0
 19 27  1  0
 27 28  1  6
 27 29  1  0
 29 30  1  0
 30 31  1  0
 31 32  1  6
  7  5  1  0
 31 10  1  0
 31 13  1  0
 27 15  1  0
 24 18  1  0
  1 33  1  0
  1 34  1  0
  1 35  1  0
  2 36  1  1
  3 37  1  0
  3 38  1  0
  4 39  1  0
  4 40  1  0
  5 41  1  1
  8 42  1  0
  8 43  1  0
  8 44  1  0
  9 45  1  0
  9 46  1  0
  9 47  1  0
 10 48  1  6
 11 49  1  0
 11 50  1  0
 12 51  1  0
 12 52  1  0
 14 53  1  0
 14 54  1  0
 14 55  1  0
 15 56  1  1
 16 57  1  0
 16 58  1  0
 17 59  1  0
 19 60  1  6
 20 61  1  0
 20 62  1  0
 21 63  1  0
 21 64  1  0
 22 65  1  6
 23 66  1  0
 25 67  1  0
 25 68  1  0
 25 69  1  0
 26 70  1  0
 26 71  1  0
 26 72  1  0
 28 73  1  0
 28 74  1  0
 28 75  1  0
 29 76  1  0
 29 77  1  0
 30 78  1  0
 30 79  1  0
 32 80  1  0
 32 81  1  0
 32 82  1  0
M  END
>  <meeko>  (7) 
{"is_sidechain": [false], "intermolecular_energy": 2.731, "internal_energy": -0.839}

$$$$
EPH_relaxed_0001_pdb2pqr_Repair_296_r2_0001_out
     RDKit          3D

 82 86  0  0  0  0  0  0  0  0999 V2000
    0.4550    8.8280   -2.3710 C   0  0  0  0  0  0  0  0  0  0  0  0
    1.1980    9.9710   -3.0680 C   0  0  2  0  0  0  0  0  0  0  0  0
    2.6980    9.9940   -2.7090 C   0  0  0  0  0  0  0  0  0  0  0  0
    3.5840   10.5980   -3.8020 C   0  0  0  0  0  0  0  0  0  0  0  0
    4.9810   10.8330   -3.3150 C   0  0  2  0  0  0  0  0  0  0  0  0
    5.5800   12.0500   -3.7790 O   0  0  0  0  0  0  0  0  0  0  0  0
    6.1960   10.8300   -4.2250 C   0  0  0  0  0  0  0  0  0  0  0  0
    6.0680   10.5870   -5.6960 C   0  0  0  0  0  0  0  0  0  0  0  0
    7.5420   10.5790   -3.6210 C   0  0  0  0  0  0  0  0  0  0  0  0
    0.5560   11.3050   -2.7080 C   0  0  1  0  0  0  0  0  0  0  0  0
   -0.8170   11.1360   -2.0030 C   0  0  0  0  0  0  0  0  0  0  0  0
   -0.9310   12.2830   -0.9660 C   0  0  0  0  0  0  0  0  0  0  0  0
    0.2120   13.2570   -1.3340 C   0  0  1  0  0  0  0  0  0  0  0  0
   -0.3480   14.1030   -2.5200 C   0  0  0  0  0  0  0  0  0  0  0  0
    0.7450   14.1650   -0.1780 C   0  0  2  0  0  0  0  0  0  0  0  0
   -0.2860   15.1420    0.4130 C   0  0  0  0  0  0  0  0  0  0  0  0
   -0.3390   16.4840   -0.2380 C   0  0  0  0  0  0  0  0  0  0  0  0
    0.5960   16.9900   -1.0630 C   0  0  0  0  0  0  0  0  0  0  0  0
    1.8990   16.2290   -1.3390 C   0  0  1  0  0  0  0  0  0  0  0  0
    3.1020   17.2020   -1.2230 C   0  0  0  0  0  0  0  0  0  0  0  0
    2.9460   18.4330   -2.1110 C   0  0  0  0  0  0  0  0  0  0  0  0
    1.6690   19.1950   -1.7680 C   0  0  2  0  0  0  0  0  0  0  0  0
    1.8000   19.7450   -0.4530 O   0  0  0  0  0  0  0  0  0  0  0  0
    0.3910   18.3140   -1.8410 C   0  0  0  0  0  0  0  0  0  0  0  0
    0.0810   17.9670   -3.3180 C   0  0  0  0  0  0  0  0  0  0  0  0
   -0.8060   19.1650   -1.3350 C   0  0  0  0  0  0  0  0  0  0  0  0
    2.1120   14.8940   -0.5040 C   0  0  1  0  0  0  0  0  0  0  0  0
    2.7780   15.2240    0.8670 C   0  0  0  0  0  0  0  0  0  0  0  0
    3.1190   13.9600   -1.2740 C   0  0  0  0  0  0  0  0  0  0  0  0
    2.5170   13.0010   -2.3190 C   0  0  0  0  0  0  0  0  0  0  0  0
    1.3310   12.2280   -1.7350 C   0  0  2  0  0  0  0  0  0  0  0  0
    1.8680   11.3500   -0.5530 C   0  0  0  0  0  0  0  0  0  0  0  0
    0.5344    8.9501   -1.2807 H   0  0  0  0  0  0  0  0  0  0  0  0
   -0.6046    8.8459   -2.6658 H   0  0  0  0  0  0  0  0  0  0  0  0
    0.9014    7.8669   -2.6658 H   0  0  0  0  0  0  0  0  0  0  0  0
    1.1208    9.8021   -4.1522 H   0  0  0  0  0  0  0  0  0  0  0  0
    2.8262   10.5867   -1.7912 H   0  0  0  0  0  0  0  0  0  0  0  0
    3.0137    8.9481   -2.5812 H   0  0  0  0  0  0  0  0  0  0  0  0
    3.6160    9.9071   -4.6574 H   0  0  0  0  0  0  0  0  0  0  0  0
    3.1549   11.5677   -4.0947 H   0  0  0  0  0  0  0  0  0  0  0  0
    4.7650   10.3112   -2.3711 H   0  0  0  0  0  0  0  0  0  0  0  0
    5.5615    9.6255   -5.8661 H   0  0  0  0  0  0  0  0  0  0  0  0
    5.4796   11.3970   -6.1516 H   0  0  0  0  0  0  0  0  0  0  0  0
    7.0688   10.5599   -6.1516 H   0  0  0  0  0  0  0  0  0  0  0  0
    7.4603   10.5942   -2.5241 H   0  0  0  0  0  0  0  0  0  0  0  0
    7.9129    9.5962   -3.9474 H   0  0  0  0  0  0  0  0  0  0  0  0
    8.2422   11.3621   -3.9474 H   0  0  0  0  0  0  0  0  0  0  0  0
    0.5118   11.7637   -3.7068 H   0  0  0  0  0  0  0  0  0  0  0  0
   -1.6319   11.2077   -2.7384 H   0  0  0  0  0  0  0  0  0  0  0  0
   -0.8923   10.1531   -1.5149 H   0  0  0  0  0  0  0  0  0  0  0  0
   -1.9077   12.7827   -1.0456 H   0  0  0  0  0  0  0  0  0  0  0  0
   -0.8516   11.9189    0.0690 H   0  0  0  0  0  0  0  0  0  0  0  0
   -0.9146   14.9589   -2.1245 H   0  0  0  0  0  0  0  0  0  0  0  0
    0.4869   14.4689   -3.1357 H   0  0  0  0  0  0  0  0  0  0  0  0
   -1.0110   13.4774   -3.1357 H   0  0  0  0  0  0  0  0  0  0  0  0
    0.9543   13.4349    0.6177 H   0  0  0  0  0  0  0  0  0  0  0  0
   -1.2809   14.6814    0.3236 H   0  0  0  0  0  0  0  0  0  0  0  0
    0.0252   15.3204    1.4529 H   0  0  0  0  0  0  0  0  0  0  0  0
   -1.2164   17.1125   -0.0255 H   0  0  0  0  0  0  0  0  0  0  0  0
    1.8197   15.8548   -2.3704 H   0  0  0  0  0  0  0  0  0  0  0  0
    3.1903   17.5306   -0.1769 H   0  0  0  0  0  0  0  0  0  0  0  0
    4.0013   16.6624   -1.5549 H   0  0  0  0  0  0  0  0  0  0  0  0
    3.8114   19.0957   -1.9629 H   0  0  0  0  0  0  0  0  0  0  0  0
    2.8879   18.1045   -3.1592 H   0  0  0  0  0  0  0  0  0  0  0  0
    1.5459   19.9880   -2.5203 H   0  0  0  0  0  0  0  0  0  0  0  0
    2.5970   19.3600   -0.0510 H   0  0  0  0  0  0  0  0  0  0  0  0
   -0.6514   17.1472   -3.3561 H   0  0  0  0  0  0  0  0  0  0  0  0
   -0.3327   18.8520   -3.8235 H   0  0  0  0  0  0  0  0  0  0  0  0
    1.0069   17.6553   -3.8235 H   0  0  0  0  0  0  0  0  0  0  0  0
   -0.8132   19.1701   -0.2350 H   0  0  0  0  0  0  0  0  0  0  0  0
   -0.7058   20.1958   -1.7058 H   0  0  0  0  0  0  0  0  0  0  0  0
   -1.7466   18.7317   -1.7058 H   0  0  0  0  0  0  0  0  0  0  0  0
    2.1176   14.8968    1.6836 H   0  0  0  0  0  0  0  0  0  0  0  0
    3.7418   14.6992    0.9422 H   0  0  0  0  0  0  0  0  0  0  0  0
    2.9443   16.3088    0.9422 H   0  0  0  0  0  0  0  0  0  0  0  0
    3.8419   14.6064   -1.7931 H   0  0  0  0  0  0  0  0  0  0  0  0
    3.5544   13.3081   -0.5023 H   0  0  0  0  0  0  0  0  0  0  0  0
    2.1745   13.5836   -3.1869 H   0  0  0  0  0  0  0  0  0  0  0  0
    3.2912   12.2801   -2.6204 H   0  0  0  0  0  0  0  0  0  0  0  0
    1.5855   11.8118    0.4046 H   0  0  0  0  0  0  0  0  0  0  0  0
    1.4315   10.3424   -0.6170 H   0  0  0  0  0  0  0  0  0  0  0  0
    2.9639   11.2796   -0.6170 H   0  0  0  0  0  0  0  0  0  0  0  0
  1  2  1  0
  2  3  1  0
  3  4  1  0
  4  5  1  0
  5  6  1  0
  6  7  1  0
  7  8  1  0
  7  9  1  0
  2 10  1  0
 10 11  1  0
 11 12  1  0
 12 13  1  0
 13 14  1  6
 13 15  1  0
 15 16  1  0
 16 17  1  0
 17 18  2  0
 18 19  1  0
 19 20  1  0
 20 21  1  0
 21 22  1  0
 22 23  1  0
 22 24  1  0
 24 25  1  0
 24 26  1  0
 19 27  1  0
 27 28  1  1
 27 29  1  0
 29 30  1  0
 30 31  1  0
 31 32  1  1
  7  5  1  0
 31 10  1  0
 31 13  1  0
 27 15  1  0
 24 18  1  0
  1 33  1  0
  1 34  1  0
  1 35  1  0
  2 36  1  6
  3 37  1  0
  3 38  1  0
  4 39  1  0
  4 40  1  0
  5 41  1  1
  8 42  1  0
  8 43  1  0
  8 44  1  0
  9 45  1  0
  9 46  1  0
  9 47  1  0
 10 48  1  6
 11 49  1  0
 11 50  1  0
 12 51  1  0
 12 52  1  0
 14 53  1  0
 14 54  1  0
 14 55  1  0
 15 56  1  1
 16 57  1  0
 16 58  1  0
 17 59  1  0
 19 60  1  6
 20 61  1  0
 20 62  1  0
 21 63  1  0
 21 64  1  0
 22 65  1  6
 23 66  1  0
 25 67  1  0
 25 68  1  0
 25 69  1  0
 26 70  1  0
 26 71  1  0
 26 72  1  0
 28 73  1  0
 28 74  1  0
 28 75  1  0
 29 76  1  0
 29 77  1  0
 30 78  1  0
 30 79  1  0
 32 80  1  0
 32 81  1  0
 32 82  1  0
M  END
>  <meeko>  (8) 
{"is_sidechain": [false], "intermolecular_energy": 2.731, "internal_energy": -0.839}

$$$$
EPH_relaxed_0001_pdb2pqr_Repair_296_r2_0001_out
     RDKit          3D

 82 86  0  0  0  0  0  0  0  0999 V2000
   -1.0140   16.5770   -5.9220 C   0  0  0  0  0  0  0  0  0  0  0  0
    0.1190   15.9100   -6.7080 C   0  0  2  0  0  0  0  0  0  0  0  0
   -0.2340   15.7360   -8.1990 C   0  0  0  0  0  0  0  0  0  0  0  0
    0.4950   16.7150   -9.1230 C   0  0  0  0  0  0  0  0  0  0  0  0
    1.8770   16.2410   -9.4550 C   0  0  2  0  0  0  0  0  0  0  0  0
    2.3920   16.7220  -10.7040 O   0  0  0  0  0  0  0  0  0  0  0  0
    2.1850   15.3040  -10.6080 C   0  0  0  0  0  0  0  0  0  0  0  0
    1.1030   14.7850  -11.5030 C   0  0  0  0  0  0  0  0  0  0  0  0
    3.4540   14.5110  -10.5670 C   0  0  0  0  0  0  0  0  0  0  0  0
    0.4550   14.5580   -6.0910 C   0  0  1  0  0  0  0  0  0  0  0  0
    1.6460   13.8570   -6.7980 C   0  0  0  0  0  0  0  0  0  0  0  0
    2.4280   13.0900   -5.7020 C   0  0  0  0  0  0  0  0  0  0  0  0
    1.4880   13.0980   -4.4730 C   0  0  1  0  0  0  0  0  0  0  0  0
    0.4740   11.9410   -4.7370 C   0  0  0  0  0  0  0  0  0  0  0  0
    2.1760   12.9560   -3.0760 C   0  0  2  0  0  0  0  0  0  0  0  0
    2.9310   11.6350   -2.8520 C   0  0  0  0  0  0  0  0  0  0  0  0
    2.1230   10.5320   -2.2530 C   0  0  0  0  0  0  0  0  0  0  0  0
    0.9300   10.6770   -1.6480 C   0  0  0  0  0  0  0  0  0  0  0  0
    0.3190   12.0670   -1.4320 C   0  0  1  0  0  0  0  0  0  0  0  0
   -0.2040   12.1830    0.0240 C   0  0  0  0  0  0  0  0  0  0  0  0
   -1.1680   11.0600    0.3900 C   0  0  0  0  0  0  0  0  0  0  0  0
   -0.5060    9.6950    0.2190 C   0  0  2  0  0  0  0  0  0  0  0  0
    0.5410    9.5660    1.1850 O   0  0  0  0  0  0  0  0  0  0  0  0
    0.0680    9.4670   -1.2080 C   0  0  0  0  0  0  0  0  0  0  0  0
   -1.0960    9.3070   -2.2170 C   0  0  0  0  0  0  0  0  0  0  0  0
    0.8300    8.1150   -1.2060 C   0  0  0  0  0  0  0  0  0  0  0  0
    1.2330   13.2980   -1.8520 C   0  0  1  0  0  0  0  0  0  0  0  0
    2.1660   13.6960   -0.6680 C   0  0  0  0  0  0  0  0  0  0  0  0
    0.3160   14.5470   -2.1340 C   0  0  0  0  0  0  0  0  0  0  0  0
   -0.2360   14.6950   -3.5650 C   0  0  0  0  0  0  0  0  0  0  0  0
    0.8810   14.5430   -4.6010 C   0  0  2  0  0  0  0  0  0  0  0  0
    1.9060   15.7070   -4.3750 C   0  0  0  0  0  0  0  0  0  0  0  0
   -0.8266   16.4667   -4.8437 H   0  0  0  0  0  0  0  0  0  0  0  0
   -1.0589   17.6456   -6.1789 H   0  0  0  0  0  0  0  0  0  0  0  0
   -1.9702   16.0977   -6.1789 H   0  0  0  0  0  0  0  0  0  0  0  0
    0.9957   16.5719   -6.6508 H   0  0  0  0  0  0  0  0  0  0  0  0
    0.0298   14.7117   -8.5010 H   0  0  0  0  0  0  0  0  0  0  0  0
   -1.3102   15.9397   -8.3001 H   0  0  0  0  0  0  0  0  0  0  0  0
   -0.0793   16.8198  -10.0553 H   0  0  0  0  0  0  0  0  0  0  0  0
    0.5800   17.6796   -8.6012 H   0  0  0  0  0  0  0  0  0  0  0  0
    2.1494   16.2151   -8.3896 H   0  0  0  0  0  0  0  0  0  0  0  0
    0.2790   14.3897  -10.8909 H   0  0  0  0  0  0  0  0  0  0  0  0
    0.7291   15.6018  -12.1379 H   0  0  0  0  0  0  0  0  0  0  0  0
    1.5059   13.9822  -12.1379 H   0  0  0  0  0  0  0  0  0  0  0  0
    3.7407   14.3318   -9.5203 H   0  0  0  0  0  0  0  0  0  0  0  0
    3.3009   13.5476  -11.0753 H   0  0  0  0  0  0  0  0  0  0  0  0
    4.2528   15.0709  -11.0753 H   0  0  0  0  0  0  0  0  0  0  0  0
   -0.5157   14.0546   -6.2104 H   0  0  0  0  0  0  0  0  0  0  0  0
    1.2747   13.1554   -7.5595 H   0  0  0  0  0  0  0  0  0  0  0  0
    2.2916   14.5898   -7.3041 H   0  0  0  0  0  0  0  0  0  0  0  0
    2.6374   12.0592   -6.0239 H   0  0  0  0  0  0  0  0  0  0  0  0
    3.4024   13.5518   -5.4846 H   0  0  0  0  0  0  0  0  0  0  0  0
    0.1202   11.5373   -3.7769 H   0  0  0  0  0  0  0  0  0  0  0  0
   -0.3818   12.3271   -5.3101 H   0  0  0  0  0  0  0  0  0  0  0  0
    0.9691   11.1432   -5.3101 H   0  0  0  0  0  0  0  0  0  0  0  0
    2.9484   13.7384   -3.1124 H   0  0  0  0  0  0  0  0  0  0  0  0
    3.3081   11.2897   -3.8260 H   0  0  0  0  0  0  0  0  0  0  0  0
    3.7262   11.8586   -2.1256 H   0  0  0  0  0  0  0  0  0  0  0  0
    2.5379    9.5149   -2.3111 H   0  0  0  0  0  0  0  0  0  0  0  0
   -0.5219   12.1426   -2.1371 H   0  0  0  0  0  0  0  0  0  0  0  0
    0.6545   12.1486    0.7109 H   0  0  0  0  0  0  0  0  0  0  0  0
   -0.7514   13.1335    0.1075 H   0  0  0  0  0  0  0  0  0  0  0  0
   -1.4794   11.1802    1.4381 H   0  0  0  0  0  0  0  0  0  0  0  0
   -2.0396   11.1137   -0.2789 H   0  0  0  0  0  0  0  0  0  0  0  0
   -1.2823    8.9306    0.3706 H   0  0  0  0  0  0  0  0  0  0  0  0
    0.9560   10.4390    1.2880 H   0  0  0  0  0  0  0  0  0  0  0  0
   -2.0409    9.1771   -1.6691 H   0  0  0  0  0  0  0  0  0  0  0  0
   -1.1592   10.2049   -2.8493 H   0  0  0  0  0  0  0  0  0  0  0  0
   -0.9146    8.4253   -2.8493 H   0  0  0  0  0  0  0  0  0  0  0  0
    1.0094    7.7967   -0.1684 H   0  0  0  0  0  0  0  0  0  0  0  0
    0.2279    7.3540   -1.7241 H   0  0  0  0  0  0  0  0  0  0  0  0
    1.7928    8.2360   -1.7241 H   0  0  0  0  0  0  0  0  0  0  0  0
    1.6610   13.4806    0.2852 H   0  0  0  0  0  0  0  0  0  0  0  0
    3.1000   13.1180   -0.7269 H   0  0  0  0  0  0  0  0  0  0  0  0
    2.3952   14.7702   -0.7269 H   0  0  0  0  0  0  0  0  0  0  0  0
   -0.5436   14.4899   -1.4500 H   0  0  0  0  0  0  0  0  0  0  0  0
    0.9667   15.4212   -1.9848 H   0  0  0  0  0  0  0  0  0  0  0  0
   -0.9966   13.9197   -3.7394 H   0  0  0  0  0  0  0  0  0  0  0  0
   -0.6773   15.6972   -3.6691 H   0  0  0  0  0  0  0  0  0  0  0  0
    2.0470   15.8671   -3.2959 H   0  0  0  0  0  0  0  0  0  0  0  0
    2.8693   15.4419   -4.8353 H   0  0  0  0  0  0  0  0  0  0  0  0
    1.5211   16.6290   -4.8353 H   0  0  0  0  0  0  0  0  0  0  0  0
  1  2  1  0
  2  3  1  0
  3  4  1  0
  4  5  1  0
  5  6  1  0
  6  7  1  0
  7  8  1  0
  7  9  1  0
  2 10  1  0
 10 11  1  0
 11 12  1  0
 12 13  1  0
 13 14  1  6
 13 15  1  0
 15 16  1  0
 16 17  1  0
 17 18  2  0
 18 19  1  0
 19 20  1  0
 20 21  1  0
 21 22  1  0
 22 23  1  0
 22 24  1  0
 24 25  1  0
 24 26  1  0
 19 27  1  0
 27 28  1  1
 27 29  1  0
 29 30  1  0
 30 31  1  0
 31 32  1  6
  7  5  1  0
 31 10  1  0
 31 13  1  0
 27 15  1  0
 24 18  1  0
  1 33  1  0
  1 34  1  0
  1 35  1  0
  2 36  1  6
  3 37  1  0
  3 38  1  0
  4 39  1  0
  4 40  1  0
  5 41  1  1
  8 42  1  0
  8 43  1  0
  8 44  1  0
  9 45  1  0
  9 46  1  0
  9 47  1  0
 10 48  1  1
 11 49  1  0
 11 50  1  0
 12 51  1  0
 12 52  1  0
 14 53  1  0
 14 54  1  0
 14 55  1  0
 15 56  1  6
 16 57  1  0
 16 58  1  0
 17 59  1  0
 19 60  1  6
 20 61  1  0
 20 62  1  0
 21 63  1  0
 21 64  1  0
 22 65  1  1
 23 66  1  0
 25 67  1  0
 25 68  1  0
 25 69  1  0
 26 70  1  0
 26 71  1  0
 26 72  1  0
 28 73  1  0
 28 74  1  0
 28 75  1  0
 29 76  1  0
 29 77  1  0
 30 78  1  0
 30 79  1  0
 32 80  1  0
 32 81  1  0
 32 82  1  0
M  END
>  <meeko>  (9) 
{"is_sidechain": [false], "intermolecular_energy": 2.731, "internal_energy": -0.839}

$$$$
EPH_relaxed_0001_pdb2pqr_Repair_296_r2_0001_out
     RDKit          3D

 82 86  0  0  0  0  0  0  0  0999 V2000
    2.2980   17.3530   -7.1270 C   0  0  0  0  0  0  0  0  0  0  0  0
    1.4170   16.1000   -7.1260 C   0  0  2  0  0  0  0  0  0  0  0  0
    0.1360   16.2910   -7.9640 C   0  0  0  0  0  0  0  0  0  0  0  0
    0.3440   16.0690   -9.4640 C   0  0  0  0  0  0  0  0  0  0  0  0
    1.7810   15.8010   -9.7920 C   0  0  2  0  0  0  0  0  0  0  0  0
    2.2700   16.4900  -10.9500 O   0  0  0  0  0  0  0  0  0  0  0  0
    2.2310   15.0560  -11.0350 C   0  0  0  0  0  0  0  0  0  0  0  0
    1.2440   14.5330  -12.0310 C   0  0  0  0  0  0  0  0  0  0  0  0
    3.5840   14.4150  -11.0350 C   0  0  0  0  0  0  0  0  0  0  0  0
    1.0520   15.7220   -5.6960 C   0  0  1  0  0  0  0  0  0  0  0  0
   -0.2990   16.3360   -5.2420 C   0  0  0  0  0  0  0  0  0  0  0  0
   -0.9690   15.2980   -4.3040 C   0  0  0  0  0  0  0  0  0  0  0  0
    0.1510   14.2800   -3.9860 C   0  0  1  0  0  0  0  0  0  0  0  0
    0.9910   14.9490   -2.8530 C   0  0  0  0  0  0  0  0  0  0  0  0
   -0.3150   12.8420   -3.5860 C   0  0  2  0  0  0  0  0  0  0  0  0
   -1.1520   12.7620   -2.2970 C   0  0  0  0  0  0  0  0  0  0  0  0
   -0.3710   12.5540   -1.0420 C   0  0  0  0  0  0  0  0  0  0  0  0
    0.9120   12.1530   -0.9770 C   0  0  0  0  0  0  0  0  0  0  0  0
    1.6830   11.7690   -2.2460 C   0  0  1  0  0  0  0  0  0  0  0  0
    2.4400   10.4360   -2.0090 C   0  0  0  0  0  0  0  0  0  0  0  0
    3.3360   10.4830   -0.7750 C   0  0  0  0  0  0  0  0  0  0  0  0
    2.5240   10.8100    0.4760 C   0  0  2  0  0  0  0  0  0  0  0  0
    1.6360    9.7210    0.7470 O   0  0  0  0  0  0  0  0  0  0  0  0
    1.7100   12.1280    0.3510 C   0  0  0  0  0  0  0  0  0  0  0  0
    2.6760   13.3390    0.3600 C   0  0  0  0  0  0  0  0  0  0  0  0
    0.8280   12.2670    1.6210 C   0  0  0  0  0  0  0  0  0  0  0  0
    0.8400   11.7610   -3.5930 C   0  0  1  0  0  0  0  0  0  0  0  0
    0.1510   10.3750   -3.7820 C   0  0  0  0  0  0  0  0  0  0  0  0
    1.8190   11.9390   -4.8140 C   0  0  0  0  0  0  0  0  0  0  0  0
    2.1470   13.3840   -5.2360 C   0  0  0  0  0  0  0  0  0  0  0  0
    0.8690   14.2160   -5.3830 C   0  0  2  0  0  0  0  0  0  0  0  0
    0.0140   13.5800   -6.5310 C   0  0  0  0  0  0  0  0  0  0  0  0
    2.5093   17.6535   -6.0901 H   0  0  0  0  0  0  0  0  0  0  0  0
    3.2434   17.1361   -7.6458 H   0  0  0  0  0  0  0  0  0  0  0  0
    1.7740   18.1693   -7.6458 H   0  0  0  0  0  0  0  0  0  0  0  0
    1.9966   15.2874   -7.5884 H   0  0  0  0  0  0  0  0  0  0  0  0
   -0.6212   15.5766   -7.6088 H   0  0  0  0  0  0  0  0  0  0  0  0
   -0.1804   17.3365   -7.8343 H   0  0  0  0  0  0  0  0  0  0  0  0
   -0.2610   15.2078   -9.7839 H   0  0  0  0  0  0  0  0  0  0  0  0
    0.0376   16.9845   -9.9912 H   0  0  0  0  0  0  0  0  0  0  0  0
    2.0242   15.6735   -8.7268 H   0  0  0  0  0  0  0  0  0  0  0  0
    0.3923   14.0817  -11.5010 H   0  0  0  0  0  0  0  0  0  0  0  0
    0.8866   15.3601  -12.6621 H   0  0  0  0  0  0  0  0  0  0  0  0
    1.7276   13.7728  -12.6621 H   0  0  0  0  0  0  0  0  0  0  0  0
    3.9154   14.2580   -9.9979 H   0  0  0  0  0  0  0  0  0  0  0  0
    3.5308   13.4463  -11.5535 H   0  0  0  0  0  0  0  0  0  0  0  0
    4.2999   15.0697  -11.5535 H   0  0  0  0  0  0  0  0  0  0  0  0
    1.9374   16.1102   -5.1712 H   0  0  0  0  0  0  0  0  0  0  0  0
   -0.1245   17.2780   -4.7015 H   0  0  0  0  0  0  0  0  0  0  0  0
   -0.9415   16.5602   -6.1063 H   0  0  0  0  0  0  0  0  0  0  0  0
   -1.3276   15.7812   -3.3832 H   0  0  0  0  0  0  0  0  0  0  0  0
   -1.8462   14.8223   -4.7669 H   0  0  0  0  0  0  0  0  0  0  0  0
    0.5995   14.6372   -1.8735 H   0  0  0  0  0  0  0  0  0  0  0  0
    2.0422   14.6381   -2.9436 H   0  0  0  0  0  0  0  0  0  0  0  0
    0.9232   16.0432   -2.9436 H   0  0  0  0  0  0  0  0  0  0  0  0
   -1.0017   12.5806   -4.4046 H   0  0  0  0  0  0  0  0  0  0  0  0
   -1.7125   13.7032   -2.1966 H   0  0  0  0  0  0  0  0  0  0  0  0
   -1.7949   11.8761   -2.4059 H   0  0  0  0  0  0  0  0  0  0  0  0
   -0.8878   12.7446   -0.0899 H   0  0  0  0  0  0  0  0  0  0  0  0
    2.4040   12.5810   -2.4213 H   0  0  0  0  0  0  0  0  0  0  0  0
    1.7026    9.6302   -1.8788 H   0  0  0  0  0  0  0  0  0  0  0  0
    3.0843   10.2582   -2.8827 H   0  0  0  0  0  0  0  0  0  0  0  0
    3.8204    9.5041   -0.6442 H   0  0  0  0  0  0  0  0  0  0  0  0
    4.0915   11.2695   -0.9191 H   0  0  0  0  0  0  0  0  0  0  0  0
    3.2358   10.9577    1.3016 H   0  0  0  0  0  0  0  0  0  0  0  0
    1.9090    8.9730    0.1880 H   0  0  0  0  0  0  0  0  0  0  0  0
    2.9009   13.6209    1.3992 H   0  0  0  0  0  0  0  0  0  0  0  0
    3.6087   13.0679   -0.1564 H   0  0  0  0  0  0  0  0  0  0  0  0
    2.2044   14.1881   -0.1564 H   0  0  0  0  0  0  0  0  0  0  0  0
    1.4577   12.1678    2.5174 H   0  0  0  0  0  0  0  0  0  0  0  0
    0.3405   13.2531    1.6227 H   0  0  0  0  0  0  0  0  0  0  0  0
    0.0608   11.4787    1.6227 H   0  0  0  0  0  0  0  0  0  0  0  0
   -0.0670    9.9365   -2.7970 H   0  0  0  0  0  0  0  0  0  0  0  0
   -0.7873   10.5052   -4.3412 H   0  0  0  0  0  0  0  0  0  0  0  0
    0.8212    9.7056   -4.3412 H   0  0  0  0  0  0  0  0  0  0  0  0
    2.7669   11.4445   -4.5554 H   0  0  0  0  0  0  0  0  0  0  0  0
    1.2902   11.5010   -5.6734 H   0  0  0  0  0  0  0  0  0  0  0  0
    2.7904   13.8447   -4.4719 H   0  0  0  0  0  0  0  0  0  0  0  0
    2.6617   13.3573   -6.2078 H   0  0  0  0  0  0  0  0  0  0  0  0
   -0.7960   12.9775   -6.0942 H   0  0  0  0  0  0  0  0  0  0  0  0
   -0.4173   14.3786   -7.1525 H   0  0  0  0  0  0  0  0  0  0  0  0
    0.6548   12.9373   -7.1525 H   0  0  0  0  0  0  0  0  0  0  0  0
  1  2  1  0
  2  3  1  0
  3  4  1  0
  4  5  1  0
  5  6  1  0
  6  7  1  0
  7  8  1  0
  7  9  1  0
  2 10  1  0
 10 11  1  0
 11 12  1  0
 12 13  1  0
 13 14  1  1
 13 15  1  0
 15 16  1  0
 16 17  1  0
 17 18  2  0
 18 19  1  0
 19 20  1  0
 20 21  1  0
 21 22  1  0
 22 23  1  0
 22 24  1  0
 24 25  1  0
 24 26  1  0
 19 27  1  0
 27 28  1  6
 27 29  1  0
 29 30  1  0
 30 31  1  0
 31 32  1  6
  7  5  1  0
 31 10  1  0
 31 13  1  0
 27 15  1  0
 24 18  1  0
  1 33  1  0
  1 34  1  0
  1 35  1  0
  2 36  1  6
  3 37  1  0
  3 38  1  0
  4 39  1  0
  4 40  1  0
  5 41  1  1
  8 42  1  0
  8 43  1  0
  8 44  1  0
  9 45  1  0
  9 46  1  0
  9 47  1  0
 10 48  1  1
 11 49  1  0
 11 50  1  0
 12 51  1  0
 12 52  1  0
 14 53  1  0
 14 54  1  0
 14 55  1  0
 15 56  1  6
 16 57  1  0
 16 58  1  0
 17 59  1  0
 19 60  1  6
 20 61  1  0
 20 62  1  0
 21 63  1  0
 21 64  1  0
 22 65  1  1
 23 66  1  0
 25 67  1  0
 25 68  1  0
 25 69  1  0
 26 70  1  0
 26 71  1  0
 26 72  1  0
 28 73  1  0
 28 74  1  0
 28 75  1  0
 29 76  1  0
 29 77  1  0
 30 78  1  0
 30 79  1  0
 32 80  1  0
 32 81  1  0
 32 82  1  0
M  END
>  <meeko>  (10) 
{"is_sidechain": [false], "intermolecular_energy": 2.731, "internal_energy": -0.839}

$$$$
EPH_relaxed_0001_pdb2pqr_Repair_296_r2_0001_out
     RDKit          3D

 82 86  0  0  0  0  0  0  0  0999 V2000
    0.0770   17.6770   -2.4280 C   0  0  0  0  0  0  0  0  0  0  0  0
   -0.1310   16.7980   -1.1910 C   0  0  2  0  0  0  0  0  0  0  0  0
   -0.1390   17.6230    0.1120 C   0  0  0  0  0  0  0  0  0  0  0  0
    0.4260   19.0360   -0.0500 C   0  0  0  0  0  0  0  0  0  0  0  0
    1.5810   19.2810    0.8730 C   0  0  2  0  0  0  0  0  0  0  0  0
    2.5660   20.1940    0.3710 O   0  0  0  0  0  0  0  0  0  0  0  0
    3.0010   18.8400    0.5710 C   0  0  0  0  0  0  0  0  0  0  0  0
    3.3420   18.1170   -0.6950 C   0  0  0  0  0  0  0  0  0  0  0  0
    3.9580   18.6760    1.7110 C   0  0  0  0  0  0  0  0  0  0  0  0
    0.9530   15.7290   -1.1250 C   0  0  1  0  0  0  0  0  0  0  0  0
    1.1520   15.1690    0.3090 C   0  0  0  0  0  0  0  0  0  0  0  0
    1.5050   13.6670    0.1570 C   0  0  0  0  0  0  0  0  0  0  0  0
    1.8220   13.4910   -1.3470 C   0  0  1  0  0  0  0  0  0  0  0  0
    3.2950   13.9820   -1.5070 C   0  0  0  0  0  0  0  0  0  0  0  0
    1.6260   12.0530   -1.9310 C   0  0  2  0  0  0  0  0  0  0  0  0
    2.5310   10.9710   -1.3170 C   0  0  0  0  0  0  0  0  0  0  0  0
    3.8400   10.7680   -2.0060 C   0  0  0  0  0  0  0  0  0  0  0  0
    4.1560   11.2210   -3.2340 C   0  0  0  0  0  0  0  0  0  0  0  0
    3.1120   11.9350   -4.1030 C   0  0  1  0  0  0  0  0  0  0  0  0
    3.1560   11.3600   -5.5430 C   0  0  0  0  0  0  0  0  0  0  0  0
    4.5550   11.4110   -6.1510 C   0  0  0  0  0  0  0  0  0  0  0  0
    5.5520   10.6410   -5.2890 C   0  0  2  0  0  0  0  0  0  0  0  0
    5.2190    9.2500   -5.3300 O   0  0  0  0  0  0  0  0  0  0  0  0
    5.5890   11.1260   -3.8130 C   0  0  0  0  0  0  0  0  0  0  0  0
    6.2350   12.5310   -3.7430 C   0  0  0  0  0  0  0  0  0  0  0  0
    6.5280   10.1760   -3.0210 C   0  0  0  0  0  0  0  0  0  0  0  0
    1.6380   11.9890   -3.5120 C   0  0  1  0  0  0  0  0  0  0  0  0
    0.8570   10.6990   -3.9110 C   0  0  0  0  0  0  0  0  0  0  0  0
    0.8660   13.1950   -4.1660 C   0  0  0  0  0  0  0  0  0  0  0  0
    1.0030   14.5650   -3.4740 C   0  0  0  0  0  0  0  0  0  0  0  0
    0.7410   14.4480   -1.9690 C   0  0  2  0  0  0  0  0  0  0  0  0
   -0.7410   13.9770   -1.7770 C   0  0  0  0  0  0  0  0  0  0  0  0
    0.3197   18.7025   -2.1125 H   0  0  0  0  0  0  0  0  0  0  0  0
    0.9044   17.2731   -3.0299 H   0  0  0  0  0  0  0  0  0  0  0  0
   -0.8436   17.6867   -3.0299 H   0  0  0  0  0  0  0  0  0  0  0  0
   -1.1176   16.3207   -1.2854 H   0  0  0  0  0  0  0  0  0  0  0  0
   -1.1774   17.7029    0.4659 H   0  0  0  0  0  0  0  0  0  0  0  0
    0.5099   17.0979    0.8284 H   0  0  0  0  0  0  0  0  0  0  0  0
    0.7653   19.1673   -1.0881 H   0  0  0  0  0  0  0  0  0  0  0  0
   -0.3696   19.7537    0.1987 H   0  0  0  0  0  0  0  0  0  0  0  0
    0.9367   19.1429    1.7538 H   0  0  0  0  0  0  0  0  0  0  0  0
    3.7996   17.1468   -0.4513 H   0  0  0  0  0  0  0  0  0  0  0  0
    2.4261   17.9534   -1.2819 H   0  0  0  0  0  0  0  0  0  0  0  0
    4.0508   18.7196   -1.2819 H   0  0  0  0  0  0  0  0  0  0  0  0
    3.4141   18.7692    2.6626 H   0  0  0  0  0  0  0  0  0  0  0  0
    4.4297   17.6839    1.6539 H   0  0  0  0  0  0  0  0  0  0  0  0
    4.7331   19.4544    1.6539 H   0  0  0  0  0  0  0  0  0  0  0  0
    1.8033   16.3034   -1.5212 H   0  0  0  0  0  0  0  0  0  0  0  0
    1.9716   15.7017    0.8134 H   0  0  0  0  0  0  0  0  0  0  0  0
    0.2436   15.3021    0.9148 H   0  0  0  0  0  0  0  0  0  0  0  0
    2.3806   13.4098    0.7711 H   0  0  0  0  0  0  0  0  0  0  0  0
    0.6879   13.0105    0.4907 H   0  0  0  0  0  0  0  0  0  0  0  0
    3.7419   14.1310   -0.5130 H   0  0  0  0  0  0  0  0  0  0  0  0
    3.8746   13.2285   -2.0604 H   0  0  0  0  0  0  0  0  0  0  0  0
    3.3066   14.9326   -2.0604 H   0  0  0  0  0  0  0  0  0  0  0  0
    0.6038   11.8043   -1.6096 H   0  0  0  0  0  0  0  0  0  0  0  0
    2.7361   11.2516   -0.2734 H   0  0  0  0  0  0  0  0  0  0  0  0
    1.9833   10.0225   -1.4187 H   0  0  0  0  0  0  0  0  0  0  0  0
    4.6113   10.2005   -1.4647 H   0  0  0  0  0  0  0  0  0  0  0  0
    3.4017   12.9961   -4.1161 H   0  0  0  0  0  0  0  0  0  0  0  0
    2.8218   10.3124   -5.5147 H   0  0  0  0  0  0  0  0  0  0  0  0
    2.4968   11.9785   -6.1698 H   0  0  0  0  0  0  0  0  0  0  0  0
    4.5275   10.9643   -7.1559 H   0  0  0  0  0  0  0  0  0  0  0  0
    4.8761   12.4616   -6.2062 H   0  0  0  0  0  0  0  0  0  0  0  0
    6.5547   10.8220   -5.7035 H   0  0  0  0  0  0  0  0  0  0  0  0
    4.2750    9.1800   -5.5520 H   0  0  0  0  0  0  0  0  0  0  0  0
    6.3684   12.8212   -2.6904 H   0  0  0  0  0  0  0  0  0  0  0  0
    7.2138   12.5099   -4.2444 H   0  0  0  0  0  0  0  0  0  0  0  0
    5.5818   13.2603   -4.2444 H   0  0  0  0  0  0  0  0  0  0  0  0
    6.3779   10.3279   -1.9419 H   0  0  0  0  0  0  0  0  0  0  0  0
    6.2969    9.1322   -3.2800 H   0  0  0  0  0  0  0  0  0  0  0  0
    7.5744   10.3950   -3.2800 H   0  0  0  0  0  0  0  0  0  0  0  0
    0.5360   10.1689   -3.0022 H   0  0  0  0  0  0  0  0  0  0  0  0
   -0.0262   10.9744   -4.5061 H   0  0  0  0  0  0  0  0  0  0  0  0
    1.5104   10.0441   -4.5061 H   0  0  0  0  0  0  0  0  0  0  0  0
    1.2328   13.3049   -5.1972 H   0  0  0  0  0  0  0  0  0  0  0  0
   -0.1994   12.9348   -4.0809 H   0  0  0  0  0  0  0  0  0  0  0  0
    2.0217   14.9482   -3.6332 H   0  0  0  0  0  0  0  0  0  0  0  0
    0.2610   15.2522   -3.9067 H   0  0  0  0  0  0  0  0  0  0  0  0
   -0.9667   13.9053   -0.7028 H   0  0  0  0  0  0  0  0  0  0  0  0
   -1.4204   14.7035   -2.2467 H   0  0  0  0  0  0  0  0  0  0  0  0
   -0.8763   12.9916   -2.2467 H   0  0  0  0  0  0  0  0  0  0  0  0
  1  2  1  0
  2  3  1  0
  3  4  1  0
  4  5  1  0
  5  6  1  0
  6  7  1  0
  7  8  1  0
  7  9  1  0
  2 10  1  0
 10 11  1  0
 11 12  1  0
 12 13  1  0
 13 14  1  1
 13 15  1  0
 15 16  1  0
 16 17  1  0
 17 18  2  0
 18 19  1  0
 19 20  1  0
 20 21  1  0
 21 22  1  0
 22 23  1  0
 22 24  1  0
 24 25  1  0
 24 26  1  0
 19 27  1  0
 27 28  1  1
 27 29  1  0
 29 30  1  0
 30 31  1  0
 31 32  1  6
  7  5  1  0
 31 10  1  0
 31 13  1  0
 27 15  1  0
 24 18  1  0
  1 33  1  0
  1 34  1  0
  1 35  1  0
  2 36  1  6
  3 37  1  0
  3 38  1  0
  4 39  1  0
  4 40  1  0
  5 41  1  1
  8 42  1  0
  8 43  1  0
  8 44  1  0
  9 45  1  0
  9 46  1  0
  9 47  1  0
 10 48  1  6
 11 49  1  0
 11 50  1  0
 12 51  1  0
 12 52  1  0
 14 53  1  0
 14 54  1  0
 14 55  1  0
 15 56  1  1
 16 57  1  0
 16 58  1  0
 17 59  1  0
 19 60  1  6
 20 61  1  0
 20 62  1  0
 21 63  1  0
 21 64  1  0
 22 65  1  6
 23 66  1  0
 25 67  1  0
 25 68  1  0
 25 69  1  0
 26 70  1  0
 26 71  1  0
 26 72  1  0
 28 73  1  0
 28 74  1  0
 28 75  1  0
 29 76  1  0
 29 77  1  0
 30 78  1  0
 30 79  1  0
 32 80  1  0
 32 81  1  0
 32 82  1  0
M  END
>  <meeko>  (11) 
{"is_sidechain": [false], "intermolecular_energy": 2.731, "internal_energy": -0.839}

$$$$
EPH_relaxed_0001_pdb2pqr_Repair_296_r2_0001_out
     RDKit          3D

 82 86  0  0  0  0  0  0  0  0999 V2000
    2.8330   18.9610   -1.1760 C   0  0  0  0  0  0  0  0  0  0  0  0
    2.5650   17.9050   -2.2510 C   0  0  2  0  0  0  0  0  0  0  0  0
    1.1620   18.0530   -2.8750 C   0  0  0  0  0  0  0  0  0  0  0  0
    0.4370   19.3360   -2.4580 C   0  0  0  0  0  0  0  0  0  0  0  0
   -0.8670   19.0400   -1.7810 C   0  0  2  0  0  0  0  0  0  0  0  0
   -1.6640   20.1940   -1.4860 O   0  0  0  0  0  0  0  0  0  0  0  0
   -1.1810   19.4520   -0.3550 C   0  0  0  0  0  0  0  0  0  0  0  0
   -0.1860   20.1940    0.4800 C   0  0  0  0  0  0  0  0  0  0  0  0
   -2.2540   18.7130    0.3830 C   0  0  0  0  0  0  0  0  0  0  0  0
    2.7260   16.5090   -1.6600 C   0  0  1  0  0  0  0  0  0  0  0  0
    3.4330   16.5230   -0.2780 C   0  0  0  0  0  0  0  0  0  0  0  0
    2.7940   15.3880    0.5620 C   0  0  0  0  0  0  0  0  0  0  0  0
    1.9880   14.5520   -0.4590 C   0  0  1  0  0  0  0  0  0  0  0  0
    3.0430   13.6260   -1.1410 C   0  0  0  0  0  0  0  0  0  0  0  0
    0.7850   13.7340    0.1130 C   0  0  2  0  0  0  0  0  0  0  0  0
    1.1620   12.6500    1.1380 C   0  0  0  0  0  0  0  0  0  0  0  0
    1.4430   11.3010    0.5650 C   0  0  0  0  0  0  0  0  0  0  0  0
    1.1220   10.8970   -0.6780 C   0  0  0  0  0  0  0  0  0  0  0  0
    0.3190   11.8050   -1.6190 C   0  0  1  0  0  0  0  0  0  0  0  0
   -0.8180   10.9850   -2.2830 C   0  0  0  0  0  0  0  0  0  0  0  0
   -0.3040    9.7300   -2.9820 C   0  0  0  0  0  0  0  0  0  0  0  0
    0.4380    8.8260   -2.0020 C   0  0  2  0  0  0  0  0  0  0  0  0
   -0.4970    8.3170   -1.0450 O   0  0  0  0  0  0  0  0  0  0  0  0
    1.6020    9.5460   -1.2640 C   0  0  0  0  0  0  0  0  0  0  0  0
    2.7530    9.8290   -2.2600 C   0  0  0  0  0  0  0  0  0  0  0  0
    2.1750    8.5660   -0.2050 C   0  0  0  0  0  0  0  0  0  0  0  0
   -0.1990   13.1690   -0.9900 C   0  0  1  0  0  0  0  0  0  0  0  0
   -1.5730   12.9440   -0.2890 C   0  0  0  0  0  0  0  0  0  0  0  0
   -0.4560   14.2040   -2.1490 C   0  0  0  0  0  0  0  0  0  0  0  0
    0.7430   15.0670   -2.5880 C   0  0  0  0  0  0  0  0  0  0  0  0
    1.4340   15.7020   -1.3780 C   0  0  2  0  0  0  0  0  0  0  0  0
    0.4040   16.6570   -0.6850 C   0  0  0  0  0  0  0  0  0  0  0  0
    2.7180   18.5079   -0.1802 H   0  0  0  0  0  0  0  0  0  0  0  0
    3.8573   19.3461   -1.2876 H   0  0  0  0  0  0  0  0  0  0  0  0
    2.1162   19.7879   -1.2876 H   0  0  0  0  0  0  0  0  0  0  0  0
    3.3014   18.0571   -3.0539 H   0  0  0  0  0  0  0  0  0  0  0  0
    1.2668   18.0531   -3.9700 H   0  0  0  0  0  0  0  0  0  0  0  0
    0.5573   17.2087   -2.5124 H   0  0  0  0  0  0  0  0  0  0  0  0
    1.0790   19.8991   -1.7647 H   0  0  0  0  0  0  0  0  0  0  0  0
    0.2276   19.9221   -3.3650 H   0  0  0  0  0  0  0  0  0  0  0  0
   -0.9479   18.0766   -2.3057 H   0  0  0  0  0  0  0  0  0  0  0  0
   -0.4062   20.0298    1.5452 H   0  0  0  0  0  0  0  0  0  0  0  0
    0.8268   19.8289    0.2544 H   0  0  0  0  0  0  0  0  0  0  0  0
   -0.2470   21.2689    0.2544 H   0  0  0  0  0  0  0  0  0  0  0  0
   -2.0958   18.8220    1.4661 H   0  0  0  0  0  0  0  0  0  0  0  0
   -3.2367   19.1268    0.1125 H   0  0  0  0  0  0  0  0  0  0  0  0
   -2.2178   17.6474    0.1125 H   0  0  0  0  0  0  0  0  0  0  0  0
    3.2983   16.0317   -2.4691 H   0  0  0  0  0  0  0  0  0  0  0  0
    4.5109   16.3418   -0.4020 H   0  0  0  0  0  0  0  0  0  0  0  0
    3.3124   17.4975    0.2178 H   0  0  0  0  0  0  0  0  0  0  0  0
    3.5715   14.7734    1.0392 H   0  0  0  0  0  0  0  0  0  0  0  0
    2.1619   15.7760    1.3744 H   0  0  0  0  0  0  0  0  0  0  0  0
    3.6315   13.1095   -0.3684 H   0  0  0  0  0  0  0  0  0  0  0  0
    2.5281   12.8829   -1.7676 H   0  0  0  0  0  0  0  0  0  0  0  0
    3.7130   14.2329   -1.7676 H   0  0  0  0  0  0  0  0  0  0  0  0
    0.2279   14.4974    0.6759 H   0  0  0  0  0  0  0  0  0  0  0  0
    2.0624   12.9864    1.6728 H   0  0  0  0  0  0  0  0  0  0  0  0
    0.2833   12.5274    1.7883 H   0  0  0  0  0  0  0  0  0  0  0  0
    1.9559   10.5754    1.2135 H   0  0  0  0  0  0  0  0  0  0  0  0
    1.0268   12.1510   -2.3867 H   0  0  0  0  0  0  0  0  0  0  0  0
   -1.5371   10.6862   -1.5061 H   0  0  0  0  0  0  0  0  0  0  0  0
   -1.2876   11.6231   -3.0461 H   0  0  0  0  0  0  0  0  0  0  0  0
   -1.1566    9.1789   -3.4055 H   0  0  0  0  0  0  0  0  0  0  0  0
    0.3924   10.0315   -3.7783 H   0  0  0  0  0  0  0  0  0  0  0  0
    0.8929    8.0115   -2.5849 H   0  0  0  0  0  0  0  0  0  0  0  0
   -0.4270    7.3480   -1.0520 H   0  0  0  0  0  0  0  0  0  0  0  0
    3.6735   10.0553   -1.7019 H   0  0  0  0  0  0  0  0  0  0  0  0
    2.9161    8.9442   -2.8929 H   0  0  0  0  0  0  0  0  0  0  0  0
    2.4872   10.6885   -2.8929 H   0  0  0  0  0  0  0  0  0  0  0  0
    1.9533    8.9452    0.8035 H   0  0  0  0  0  0  0  0  0  0  0  0
    1.7135    7.5759   -0.3341 H   0  0  0  0  0  0  0  0  0  0  0  0
    3.2642    8.4825   -0.3341 H   0  0  0  0  0  0  0  0  0  0  0  0
   -1.4359   12.9664    0.8022 H   0  0  0  0  0  0  0  0  0  0  0  0
   -2.2715   13.7397   -0.5873 H   0  0  0  0  0  0  0  0  0  0  0  0
   -1.9812   11.9671   -0.5873 H   0  0  0  0  0  0  0  0  0  0  0  0
   -0.8000   13.6401   -3.0286 H   0  0  0  0  0  0  0  0  0  0  0  0
   -1.1895   14.9157   -1.7422 H   0  0  0  0  0  0  0  0  0  0  0  0
    1.4655   14.4334   -3.1234 H   0  0  0  0  0  0  0  0  0  0  0  0
    0.3754   15.8704   -3.2433 H   0  0  0  0  0  0  0  0  0  0  0  0
    0.4994   16.5686    0.4073 H   0  0  0  0  0  0  0  0  0  0  0  0
    0.6053   17.6952   -0.9878 H   0  0  0  0  0  0  0  0  0  0  0  0
   -0.6160   16.3780   -0.9878 H   0  0  0  0  0  0  0  0  0  0  0  0
  1  2  1  0
  2  3  1  0
  3  4  1  0
  4  5  1  0
  5  6  1  0
  6  7  1  0
  7  8  1  0
  7  9  1  0
  2 10  1  0
 10 11  1  0
 11 12  1  0
 12 13  1  0
 13 14  1  6
 13 15  1  0
 15 16  1  0
 16 17  1  0
 17 18  2  0
 18 19  1  0
 19 20  1  0
 20 21  1  0
 21 22  1  0
 22 23  1  0
 22 24  1  0
 24 25  1  0
 24 26  1  0
 19 27  1  0
 27 28  1  1
 27 29  1  0
 29 30  1  0
 30 31  1  0
 31 32  1  1
  7  5  1  0
 31 10  1  0
 31 13  1  0
 27 15  1  0
 24 18  1  0
  1 33  1  0
  1 34  1  0
  1 35  1  0
  2 36  1  6
  3 37  1  0
  3 38  1  0
  4 39  1  0
  4 40  1  0
  5 41  1  6
  8 42  1  0
  8 43  1  0
  8 44  1  0
  9 45  1  0
  9 46  1  0
  9 47  1  0
 10 48  1  6
 11 49  1  0
 11 50  1  0
 12 51  1  0
 12 52  1  0
 14 53  1  0
 14 54  1  0
 14 55  1  0
 15 56  1  1
 16 57  1  0
 16 58  1  0
 17 59  1  0
 19 60  1  6
 20 61  1  0
 20 62  1  0
 21 63  1  0
 21 64  1  0
 22 65  1  6
 23 66  1  0
 25 67  1  0
 25 68  1  0
 25 69  1  0
 26 70  1  0
 26 71  1  0
 26 72  1  0
 28 73  1  0
 28 74  1  0
 28 75  1  0
 29 76  1  0
 29 77  1  0
 30 78  1  0
 30 79  1  0
 32 80  1  0
 32 81  1  0
 32 82  1  0
M  END
>  <meeko>  (12) 
{"is_sidechain": [false], "intermolecular_energy": 2.731, "internal_energy": -0.839}

$$$$
EPH_relaxed_0001_pdb2pqr_Repair_296_r2_0001_out
     RDKit          3D

 82 86  0  0  0  0  0  0  0  0999 V2000
   -3.9860    7.3450   -3.5640 C   0  0  0  0  0  0  0  0  0  0  0  0
   -3.6950    7.2740   -2.0630 C   0  0  2  0  0  0  0  0  0  0  0  0
   -4.9360    6.8560   -1.2490 C   0  0  0  0  0  0  0  0  0  0  0  0
   -6.1060    6.3770   -2.1130 C   0  0  0  0  0  0  0  0  0  0  0  0
   -7.4160    6.9070   -1.6160 C   0  0  2  0  0  0  0  0  0  0  0  0
   -8.3570    5.9010   -1.2190 O   0  0  0  0  0  0  0  0  0  0  0  0
   -8.7310    6.7100   -2.3470 C   0  0  0  0  0  0  0  0  0  0  0  0
   -8.7990    5.9570   -3.6390 C   0  0  0  0  0  0  0  0  0  0  0  0
   -9.8560    7.6550   -2.0640 C   0  0  0  0  0  0  0  0  0  0  0  0
   -3.1780    8.6200   -1.5690 C   0  0  1  0  0  0  0  0  0  0  0  0
   -3.8270    9.0550   -0.2280 C   0  0  0  0  0  0  0  0  0  0  0  0
   -2.7370    9.8120    0.5730 C   0  0  0  0  0  0  0  0  0  0  0  0
   -1.6120   10.0770   -0.4550 C   0  0  1  0  0  0  0  0  0  0  0  0
   -2.0820   11.3370   -1.2480 C   0  0  0  0  0  0  0  0  0  0  0  0
   -0.1730   10.2660    0.1280 C   0  0  2  0  0  0  0  0  0  0  0  0
   -0.0020   11.4770    1.0620 C   0  0  0  0  0  0  0  0  0  0  0  0
    0.4070   12.7460    0.3910 C   0  0  0  0  0  0  0  0  0  0  0  0
    0.9030   12.8480   -0.8560 C   0  0  0  0  0  0  0  0  0  0  0  0
    1.1880   11.5950   -1.6940 C   0  0  1  0  0  0  0  0  0  0  0  0
    2.5900   11.7170   -2.3480 C   0  0  0  0  0  0  0  0  0  0  0  0
    2.7520   13.0050   -3.1490 C   0  0  0  0  0  0  0  0  0  0  0  0
    2.5170   14.2290   -2.2680 C   0  0  2  0  0  0  0  0  0  0  0  0
    3.5660   14.3050   -1.2970 O   0  0  0  0  0  0  0  0  0  0  0  0
    1.1400   14.2120   -1.5490 C   0  0  0  0  0  0  0  0  0  0  0  0
    0.0090   14.4330   -2.5850 C   0  0  0  0  0  0  0  0  0  0  0  0
    1.0890   15.4280   -0.5850 C   0  0  0  0  0  0  0  0  0  0  0  0
    0.9790   10.2040   -0.9550 C   0  0  1  0  0  0  0  0  0  0  0  0
    2.2810    9.8020   -0.1980 C   0  0  0  0  0  0  0  0  0  0  0  0
    0.7270    9.0820   -2.0320 C   0  0  0  0  0  0  0  0  0  0  0  0
   -0.7300    8.8630   -2.4800 C   0  0  0  0  0  0  0  0  0  0  0  0
   -1.6620    8.7340   -1.2700 C   0  0  2  0  0  0  0  0  0  0  0  0
   -1.2270    7.4620   -0.4650 C   0  0  0  0  0  0  0  0  0  0  0  0
   -5.0438    7.6031   -3.7206 H   0  0  0  0  0  0  0  0  0  0  0  0
   -3.3488    8.1140   -4.0251 H   0  0  0  0  0  0  0  0  0  0  0  0
   -3.7746    6.3689   -4.0251 H   0  0  0  0  0  0  0  0  0  0  0  0
   -2.9261    6.5020   -1.9122 H   0  0  0  0  0  0  0  0  0  0  0  0
   -4.6477    6.0392   -0.5710 H   0  0  0  0  0  0  0  0  0  0  0  0
   -5.2809    7.7490   -0.7072 H   0  0  0  0  0  0  0  0  0  0  0  0
   -5.9508    6.7219   -3.1459 H   0  0  0  0  0  0  0  0  0  0  0  0
   -6.1403    5.2786   -2.0648 H   0  0  0  0  0  0  0  0  0  0  0  0
   -6.9253    7.8039   -1.2100 H   0  0  0  0  0  0  0  0  0  0  0  0
   -8.8962    4.8811   -3.4317 H   0  0  0  0  0  0  0  0  0  0  0  0
   -9.6699    6.2991   -4.2174 H   0  0  0  0  0  0  0  0  0  0  0  0
   -7.8809    6.1375   -4.2174 H   0  0  0  0  0  0  0  0  0  0  0  0
   -9.9815    7.7604   -0.9763 H   0  0  0  0  0  0  0  0  0  0  0  0
   -9.6291    8.6374   -2.5038 H   0  0  0  0  0  0  0  0  0  0  0  0
  -10.7845    7.2620   -2.5038 H   0  0  0  0  0  0  0  0  0  0  0  0
   -3.4393    9.2456   -2.4353 H   0  0  0  0  0  0  0  0  0  0  0  0
   -4.6844    9.7170   -0.4195 H   0  0  0  0  0  0  0  0  0  0  0  0
   -4.1950    8.1834    0.3332 H   0  0  0  0  0  0  0  0  0  0  0  0
   -3.1329   10.7591    0.9684 H   0  0  0  0  0  0  0  0  0  0  0  0
   -2.3823    9.2373    1.4413 H   0  0  0  0  0  0  0  0  0  0  0  0
   -2.3765   12.1265   -0.5409 H   0  0  0  0  0  0  0  0  0  0  0  0
   -1.2588   11.7000   -1.8809 H   0  0  0  0  0  0  0  0  0  0  0  0
   -2.9418   11.0723   -1.8809 H   0  0  0  0  0  0  0  0  0  0  0  0
   -0.0584    9.3774    0.7662 H   0  0  0  0  0  0  0  0  0  0  0  0
   -0.9624   11.6543    1.5683 H   0  0  0  0  0  0  0  0  0  0  0  0
    0.8168   11.2183    1.7495 H   0  0  0  0  0  0  0  0  0  0  0  0
    0.2933   13.6776    0.9648 H   0  0  0  0  0  0  0  0  0  0  0  0
    0.4129   11.5686   -2.4741 H   0  0  0  0  0  0  0  0  0  0  0  0
    3.3520   11.6968   -1.5549 H   0  0  0  0  0  0  0  0  0  0  0  0
    2.7079   10.8738   -3.0444 H   0  0  0  0  0  0  0  0  0  0  0  0
    3.7716   13.0476   -3.5597 H   0  0  0  0  0  0  0  0  0  0  0  0
    2.0096   13.0091   -3.9607 H   0  0  0  0  0  0  0  0  0  0  0  0
    2.5165   15.1123   -2.9236 H   0  0  0  0  0  0  0  0  0  0  0  0
    3.3220   13.7260   -0.5550 H   0  0  0  0  0  0  0  0  0  0  0  0
   -0.9391   14.6183   -2.0589 H   0  0  0  0  0  0  0  0  0  0  0  0
    0.2539   15.3003   -3.2158 H   0  0  0  0  0  0  0  0  0  0  0  0
   -0.0906   13.5373   -3.2158 H   0  0  0  0  0  0  0  0  0  0  0  0
    1.1039   15.0718    0.4556 H   0  0  0  0  0  0  0  0  0  0  0  0
    1.9608   16.0745   -0.7638 H   0  0  0  0  0  0  0  0  0  0  0  0
    0.1661   15.9992   -0.7638 H   0  0  0  0  0  0  0  0  0  0  0  0
    2.1060    9.8560    0.8867 H   0  0  0  0  0  0  0  0  0  0  0  0
    2.5629    8.7750   -0.4732 H   0  0  0  0  0  0  0  0  0  0  0  0
    3.0928   10.4913   -0.4732 H   0  0  0  0  0  0  0  0  0  0  0  0
    1.3144    9.3406   -2.9254 H   0  0  0  0  0  0  0  0  0  0  0  0
    1.0215    8.1421   -1.5422 H   0  0  0  0  0  0  0  0  0  0  0  0
   -1.0509    9.7189   -3.0919 H   0  0  0  0  0  0  0  0  0  0  0  0
   -0.7816    7.9320   -3.0635 H   0  0  0  0  0  0  0  0  0  0  0  0
   -1.2976    7.6685    0.6131 H   0  0  0  0  0  0  0  0  0  0  0  0
   -1.8888    6.6217   -0.7215 H   0  0  0  0  0  0  0  0  0  0  0  0
   -0.1892    7.2029   -0.7215 H   0  0  0  0  0  0  0  0  0  0  0  0
  1  2  1  0
  2  3  1  0
  3  4  1  0
  4  5  1  0
  5  6  1  0
  6  7  1  0
  7  8  1  0
  7  9  1  0
  2 10  1  0
 10 11  1  0
 11 12  1  0
 12 13  1  0
 13 14  1  6
 13 15  1  0
 15 16  1  0
 16 17  1  0
 17 18  2  0
 18 19  1  0
 19 20  1  0
 20 21  1  0
 21 22  1  0
 22 23  1  0
 22 24  1  0
 24 25  1  0
 24 26  1  0
 19 27  1  0
 27 28  1  1
 27 29  1  0
 29 30  1  0
 30 31  1  0
 31 32  1  1
  7  5  1  0
 31 10  1  0
 31 13  1  0
 27 15  1  0
 24 18  1  0
  1 33  1  0
  1 34  1  0
  1 35  1  0
  2 36  1  6
  3 37  1  0
  3 38  1  0
  4 39  1  0
  4 40  1  0
  5 41  1  1
  8 42  1  0
  8 43  1  0
  8 44  1  0
  9 45  1  0
  9 46  1  0
  9 47  1  0
 10 48  1  6
 11 49  1  0
 11 50  1  0
 12 51  1  0
 12 52  1  0
 14 53  1  0
 14 54  1  0
 14 55  1  0
 15 56  1  1
 16 57  1  0
 16 58  1  0
 17 59  1  0
 19 60  1  6
 20 61  1  0
 20 62  1  0
 21 63  1  0
 21 64  1  0
 22 65  1  6
 23 66  1  0
 25 67  1  0
 25 68  1  0
 25 69  1  0
 26 70  1  0
 26 71  1  0
 26 72  1  0
 28 73  1  0
 28 74  1  0
 28 75  1  0
 29 76  1  0
 29 77  1  0
 30 78  1  0
 30 79  1  0
 32 80  1  0
 32 81  1  0
 32 82  1  0
M  END
>  <meeko>  (13) 
{"is_sidechain": [false], "intermolecular_energy": 2.731, "internal_energy": -0.839}

$$$$
EPH_relaxed_0001_pdb2pqr_Repair_296_r2_0001_out
     RDKit          3D

 82 86  0  0  0  0  0  0  0  0999 V2000
   -0.1750    9.3300   -2.2190 C   0  0  0  0  0  0  0  0  0  0  0  0
    0.9140   10.2900   -2.7040 C   0  0  2  0  0  0  0  0  0  0  0  0
    2.2910    9.6040   -2.8020 C   0  0  0  0  0  0  0  0  0  0  0  0
    3.2060   10.2090   -3.8710 C   0  0  0  0  0  0  0  0  0  0  0  0
    4.5560   10.5490   -3.3170 C   0  0  2  0  0  0  0  0  0  0  0  0
    5.0520   11.8390   -3.6960 O   0  0  0  0  0  0  0  0  0  0  0  0
    5.7970   10.7090   -4.1750 C   0  0  0  0  0  0  0  0  0  0  0  0
    5.7460   10.5320   -5.6610 C   0  0  0  0  0  0  0  0  0  0  0  0
    7.1390   10.5540   -3.5300 C   0  0  0  0  0  0  0  0  0  0  0  0
    0.9970   11.4950   -1.7740 C   0  0  1  0  0  0  0  0  0  0  0  0
    2.1030   11.3420   -0.6960 C   0  0  0  0  0  0  0  0  0  0  0  0
    2.6900   12.7570   -0.4540 C   0  0  0  0  0  0  0  0  0  0  0  0
    1.6920   13.7160   -1.1440 C   0  0  1  0  0  0  0  0  0  0  0  0
    0.5270   13.8870   -0.1190 C   0  0  0  0  0  0  0  0  0  0  0  0
    2.2650   15.0970   -1.6020 C   0  0  2  0  0  0  0  0  0  0  0  0
    2.7900   15.9940   -0.4670 C   0  0  0  0  0  0  0  0  0  0  0  0
    1.7850   16.9250    0.1270 C   0  0  0  0  0  0  0  0  0  0  0  0
    0.5950   17.2410   -0.4170 C   0  0  0  0  0  0  0  0  0  0  0  0
    0.1980   16.7180   -1.8030 C   0  0  1  0  0  0  0  0  0  0  0  0
   -0.3860   17.8810   -2.6480 C   0  0  0  0  0  0  0  0  0  0  0  0
   -1.5340   18.5970   -1.9440 C   0  0  0  0  0  0  0  0  0  0  0  0
   -1.0850   19.1530   -0.5950 C   0  0  2  0  0  0  0  0  0  0  0  0
   -0.1300   20.1940   -0.8210 O   0  0  0  0  0  0  0  0  0  0  0  0
   -0.4700   18.0740    0.3390 C   0  0  0  0  0  0  0  0  0  0  0  0
   -1.5820   17.1130    0.8270 C   0  0  0  0  0  0  0  0  0  0  0  0
    0.0700   18.7910    1.6060 C   0  0  0  0  0  0  0  0  0  0  0  0
    1.3160   15.9000   -2.5810 C   0  0  1  0  0  0  0  0  0  0  0  0
    2.2290   16.8760   -3.3840 C   0  0  0  0  0  0  0  0  0  0  0  0
    0.6240   14.9650   -3.6430 C   0  0  0  0  0  0  0  0  0  0  0  0
    0.1880   13.5690   -3.1600 C   0  0  0  0  0  0  0  0  0  0  0  0
    1.3270   12.8660   -2.4150 C   0  0  2  0  0  0  0  0  0  0  0  0
    2.5060   12.6610   -3.4270 C   0  0  0  0  0  0  0  0  0  0  0  0
   -0.1894    9.3173   -1.1192 H   0  0  0  0  0  0  0  0  0  0  0  0
   -1.1531    9.6651   -2.5946 H   0  0  0  0  0  0  0  0  0  0  0  0
    0.0348    8.3176   -2.5946 H   0  0  0  0  0  0  0  0  0  0  0  0
    0.6371   10.6203   -3.7161 H   0  0  0  0  0  0  0  0  0  0  0  0
    2.7922    9.6904   -1.8266 H   0  0  0  0  0  0  0  0  0  0  0  0
    2.1091    8.5579   -3.0894 H   0  0  0  0  0  0  0  0  0  0  0  0
    3.3285    9.4827   -4.6880 H   0  0  0  0  0  0  0  0  0  0  0  0
    2.7411   11.1371   -4.2351 H   0  0  0  0  0  0  0  0  0  0  0  0
    4.3570    9.9600   -2.4095 H   0  0  0  0  0  0  0  0  0  0  0  0
    5.4486    9.4997   -5.8973 H   0  0  0  0  0  0  0  0  0  0  0  0
    5.0130   11.2318   -6.0887 H   0  0  0  0  0  0  0  0  0  0  0  0
    6.7390   10.7345   -6.0887 H   0  0  0  0  0  0  0  0  0  0  0  0
    7.0238   10.5673   -2.4361 H   0  0  0  0  0  0  0  0  0  0  0  0
    7.5866    9.5982   -3.8400 H   0  0  0  0  0  0  0  0  0  0  0  0
    7.7927   11.3826   -3.8400 H   0  0  0  0  0  0  0  0  0  0  0  0
   -0.0319   11.4997   -1.3851 H   0  0  0  0  0  0  0  0  0  0  0  0
    1.6720   10.9462    0.2355 H   0  0  0  0  0  0  0  0  0  0  0  0
    2.8838   10.6417   -1.0275 H   0  0  0  0  0  0  0  0  0  0  0  0
    2.7540   12.9720    0.6229 H   0  0  0  0  0  0  0  0  0  0  0  0
    3.7103   12.8593   -0.8521 H   0  0  0  0  0  0  0  0  0  0  0  0
    0.9271   13.8283    0.9040 H   0  0  0  0  0  0  0  0  0  0  0  0
    0.0469   14.8652   -0.2694 H   0  0  0  0  0  0  0  0  0  0  0  0
   -0.2139   13.0880   -0.2694 H   0  0  0  0  0  0  0  0  0  0  0  0
    3.1503   14.8035   -2.1851 H   0  0  0  0  0  0  0  0  0  0  0  0
    3.1653   15.3420    0.3355 H   0  0  0  0  0  0  0  0  0  0  0  0
    3.5662   16.6307   -0.9166 H   0  0  0  0  0  0  0  0  0  0  0  0
    2.0384   17.3919    1.0902 H   0  0  0  0  0  0  0  0  0  0  0  0
   -0.5771   15.9568   -1.6304 H   0  0  0  0  0  0  0  0  0  0  0  0
    0.4144   18.6089   -2.8467 H   0  0  0  0  0  0  0  0  0  0  0  0
   -0.7824   17.4504   -3.5794 H   0  0  0  0  0  0  0  0  0  0  0  0
   -1.8832   19.4262   -2.5769 H   0  0  0  0  0  0  0  0  0  0  0  0
   -2.3461   17.8749   -1.7733 H   0  0  0  0  0  0  0  0  0  0  0  0
   -1.9792   19.5377   -0.0828 H   0  0  0  0  0  0  0  0  0  0  0  0
    0.7560   19.8080   -0.7190 H   0  0  0  0  0  0  0  0  0  0  0  0
   -1.5980   17.0992    1.9268 H   0  0  0  0  0  0  0  0  0  0  0  0
   -2.5562   17.4582    0.4504 H   0  0  0  0  0  0  0  0  0  0  0  0
   -1.3817   16.0991    0.4504 H   0  0  0  0  0  0  0  0  0  0  0  0
   -0.3116   18.2843    2.5047 H   0  0  0  0  0  0  0  0  0  0  0  0
    1.1695   18.7580    1.6054 H   0  0  0  0  0  0  0  0  0  0  0  0
   -0.2654   19.8386    1.6054 H   0  0  0  0  0  0  0  0  0  0  0  0
    2.8086   17.4956   -2.6839 H   0  0  0  0  0  0  0  0  0  0  0  0
    2.9172   16.2969   -4.0173 H   0  0  0  0  0  0  0  0  0  0  0  0
    1.6054   17.5241   -4.0173 H   0  0  0  0  0  0  0  0  0  0  0  0
   -0.2730   15.4853   -4.0101 H   0  0  0  0  0  0  0  0  0  0  0  0
    1.3934   14.7780   -4.4065 H   0  0  0  0  0  0  0  0  0  0  0  0
   -0.6730   13.6749   -2.4836 H   0  0  0  0  0  0  0  0  0  0  0  0
   -0.0837   12.9634   -4.0372 H   0  0  0  0  0  0  0  0  0  0  0  0
    3.4416   12.4983   -2.8719 H   0  0  0  0  0  0  0  0  0  0  0  0
    2.2981   11.7855   -4.0597 H   0  0  0  0  0  0  0  0  0  0  0  0
    2.6058   13.5553   -4.0597 H   0  0  0  0  0  0  0  0  0  0  0  0
  1  2  1  0
  2  3  1  0
  3  4  1  0
  4  5  1  0
  5  6  1  0
  6  7  1  0
  7  8  1  0
  7  9  1  0
  2 10  1  0
 10 11  1  0
 11 12  1  0
 12 13  1  0
 13 14  1  1
 13 15  1  0
 15 16  1  0
 16 17  1  0
 17 18  2  0
 18 19  1  0
 19 20  1  0
 20 21  1  0
 21 22  1  0
 22 23  1  0
 22 24  1  0
 24 25  1  0
 24 26  1  0
 19 27  1  0
 27 28  1  6
 27 29  1  0
 29 30  1  0
 30 31  1  0
 31 32  1  6
  7  5  1  0
 31 10  1  0
 31 13  1  0
 27 15  1  0
 24 18  1  0
  1 33  1  0
  1 34  1  0
  1 35  1  0
  2 36  1  6
  3 37  1  0
  3 38  1  0
  4 39  1  0
  4 40  1  0
  5 41  1  1
  8 42  1  0
  8 43  1  0
  8 44  1  0
  9 45  1  0
  9 46  1  0
  9 47  1  0
 10 48  1  1
 11 49  1  0
 11 50  1  0
 12 51  1  0
 12 52  1  0
 14 53  1  0
 14 54  1  0
 14 55  1  0
 15 56  1  6
 16 57  1  0
 16 58  1  0
 17 59  1  0
 19 60  1  1
 20 61  1  0
 20 62  1  0
 21 63  1  0
 21 64  1  0
 22 65  1  1
 23 66  1  0
 25 67  1  0
 25 68  1  0
 25 69  1  0
 26 70  1  0
 26 71  1  0
 26 72  1  0
 28 73  1  0
 28 74  1  0
 28 75  1  0
 29 76  1  0
 29 77  1  0
 30 78  1  0
 30 79  1  0
 32 80  1  0
 32 81  1  0
 32 82  1  0
M  END
>  <meeko>  (14) 
{"is_sidechain": [false], "intermolecular_energy": 2.731, "internal_energy": -0.839}

$$$$
EPH_relaxed_0001_pdb2pqr_Repair_296_r2_0001_out
     RDKit          3D

 82 86  0  0  0  0  0  0  0  0999 V2000
    1.9220   18.7130   -1.9540 C   0  0  0  0  0  0  0  0  0  0  0  0
    2.3200   17.5770   -2.9000 C   0  0  2  0  0  0  0  0  0  0  0  0
    1.3110   17.4030   -4.0540 C   0  0  0  0  0  0  0  0  0  0  0  0
    1.8620   16.6030   -5.2370 C   0  0  0  0  0  0  0  0  0  0  0  0
    0.7720   16.1770   -6.1740 C   0  0  2  0  0  0  0  0  0  0  0  0
    1.0500   14.9790   -6.9100 O   0  0  0  0  0  0  0  0  0  0  0  0
    0.9170   16.1820   -7.6840 C   0  0  0  0  0  0  0  0  0  0  0  0
    2.1850   16.6240   -8.3440 C   0  0  0  0  0  0  0  0  0  0  0  0
   -0.3230   16.2270   -8.5220 C   0  0  0  0  0  0  0  0  0  0  0  0
    2.4500   16.2730   -2.1220 C   0  0  1  0  0  0  0  0  0  0  0  0
    3.0440   16.4820   -0.7030 C   0  0  0  0  0  0  0  0  0  0  0  0
    2.3540   15.4500    0.2260 C   0  0  0  0  0  0  0  0  0  0  0  0
    1.6420   14.4720   -0.7370 C   0  0  1  0  0  0  0  0  0  0  0  0
    2.7590   13.4890   -1.2080 C   0  0  0  0  0  0  0  0  0  0  0  0
    0.4070   13.7080   -0.1580 C   0  0  2  0  0  0  0  0  0  0  0  0
    0.7140   12.7740    1.0260 C   0  0  0  0  0  0  0  0  0  0  0  0
    1.0560   11.3690    0.6570 C   0  0  0  0  0  0  0  0  0  0  0  0
    0.8400   10.8010   -0.5440 C   0  0  0  0  0  0  0  0  0  0  0  0
    0.1040   11.5620   -1.6540 C   0  0  1  0  0  0  0  0  0  0  0  0
   -0.9670   10.6380   -2.2920 C   0  0  0  0  0  0  0  0  0  0  0  0
   -0.3840    9.3150   -2.7790 C   0  0  0  0  0  0  0  0  0  0  0  0
    0.2890    8.5620   -1.6350 C   0  0  2  0  0  0  0  0  0  0  0  0
   -0.7130    8.1600   -0.6960 O   0  0  0  0  0  0  0  0  0  0  0  0
    1.3810    9.3960   -0.9100 C   0  0  0  0  0  0  0  0  0  0  0  0
    2.6050    9.5740   -1.8420 C   0  0  0  0  0  0  0  0  0  0  0  0
    1.8800    8.5740    0.3090 C   0  0  0  0  0  0  0  0  0  0  0  0
   -0.4790   12.9840   -1.2510 C   0  0  1  0  0  0  0  0  0  0  0  0
   -1.9020   12.8210   -0.6350 C   0  0  0  0  0  0  0  0  0  0  0  0
   -0.6550   13.8550   -2.5510 C   0  0  0  0  0  0  0  0  0  0  0  0
    0.5640   14.6800   -3.0050 C   0  0  0  0  0  0  0  0  0  0  0  0
    1.1500   15.4810   -1.8380 C   0  0  2  0  0  0  0  0  0  0  0  0
    0.0560   16.4940   -1.3570 C   0  0  0  0  0  0  0  0  0  0  0  0
    2.0386   18.3803   -0.9120 H   0  0  0  0  0  0  0  0  0  0  0  0
    2.5684   19.5844   -2.1351 H   0  0  0  0  0  0  0  0  0  0  0  0
    0.8731   18.9905   -2.1351 H   0  0  0  0  0  0  0  0  0  0  0  0
    3.2902   17.8421   -3.3454 H   0  0  0  0  0  0  0  0  0  0  0  0
    0.4244   16.8812   -3.6645 H   0  0  0  0  0  0  0  0  0  0  0  0
    1.0742   18.4097   -4.4288 H   0  0  0  0  0  0  0  0  0  0  0  0
    2.5804   17.2288   -5.7868 H   0  0  0  0  0  0  0  0  0  0  0  0
    2.3481   15.6985   -4.8426 H   0  0  0  0  0  0  0  0  0  0  0  0
    0.0032   16.5917   -5.5055 H   0  0  0  0  0  0  0  0  0  0  0  0
    2.9277   16.8829   -7.5750 H   0  0  0  0  0  0  0  0  0  0  0  0
    2.5754   15.8089   -8.9711 H   0  0  0  0  0  0  0  0  0  0  0  0
    1.9841   17.5051   -8.9711 H   0  0  0  0  0  0  0  0  0  0  0  0
   -1.2067   16.2591   -7.8678 H   0  0  0  0  0  0  0  0  0  0  0  0
   -0.3041   17.1250   -9.1569 H   0  0  0  0  0  0  0  0  0  0  0  0
   -0.3692   15.3299   -9.1569 H   0  0  0  0  0  0  0  0  0  0  0  0
    3.0903   15.7076   -2.8151 H   0  0  0  0  0  0  0  0  0  0  0  0
    4.1306   16.3113   -0.7181 H   0  0  0  0  0  0  0  0  0  0  0  0
    2.8718   17.5094   -0.3496 H   0  0  0  0  0  0  0  0  0  0  0  0
    3.0986   14.9194    0.8376 H   0  0  0  0  0  0  0  0  0  0  0  0
    1.6548   15.9249    0.9300 H   0  0  0  0  0  0  0  0  0  0  0  0
    3.2564   13.0513   -0.3299 H   0  0  0  0  0  0  0  0  0  0  0  0
    2.3106   12.6872   -1.8130 H   0  0  0  0  0  0  0  0  0  0  0  0
    3.4973   14.0357   -1.8130 H   0  0  0  0  0  0  0  0  0  0  0  0
   -0.2024   14.5249    0.2559 H   0  0  0  0  0  0  0  0  0  0  0  0
    1.5648   13.1965    1.5806 H   0  0  0  0  0  0  0  0  0  0  0  0
   -0.2121   12.7168    1.6168 H   0  0  0  0  0  0  0  0  0  0  0  0
    1.5243   10.7447    1.4322 H   0  0  0  0  0  0  0  0  0  0  0  0
    0.8672   11.8219   -2.4024 H   0  0  0  0  0  0  0  0  0  0  0  0
   -1.7424   10.4263   -1.5411 H   0  0  0  0  0  0  0  0  0  0  0  0
   -1.3816   11.1617   -3.1660 H   0  0  0  0  0  0  0  0  0  0  0  0
   -1.1936    8.6948   -3.1912 H   0  0  0  0  0  0  0  0  0  0  0  0
    0.3698    9.5266   -3.5517 H   0  0  0  0  0  0  0  0  0  0  0  0
    0.7993    7.6898   -2.0695 H   0  0  0  0  0  0  0  0  0  0  0  0
   -1.4030    8.8450   -0.6910 H   0  0  0  0  0  0  0  0  0  0  0  0
    3.5124    9.7060   -1.2344 H   0  0  0  0  0  0  0  0  0  0  0  0
    2.7152    8.6824   -2.4768 H   0  0  0  0  0  0  0  0  0  0  0  0
    2.4567   10.4600   -2.4768 H   0  0  0  0  0  0  0  0  0  0  0  0
    1.5753    9.0759    1.2392 H   0  0  0  0  0  0  0  0  0  0  0  0
    1.4414    7.5658    0.2757 H   0  0  0  0  0  0  0  0  0  0  0  0
    2.9769    8.4979    0.2757 H   0  0  0  0  0  0  0  0  0  0  0  0
   -1.8296   12.8293    0.4626 H   0  0  0  0  0  0  0  0  0  0  0  0
   -2.5424   13.6517   -0.9665 H   0  0  0  0  0  0  0  0  0  0  0  0
   -2.3380   11.8670   -0.9665 H   0  0  0  0  0  0  0  0  0  0  0  0
   -0.9215   13.1750   -3.3735 H   0  0  0  0  0  0  0  0  0  0  0  0
   -1.4264   14.5971   -2.2978 H   0  0  0  0  0  0  0  0  0  0  0  0
    1.3339   13.9987   -3.3963 H   0  0  0  0  0  0  0  0  0  0  0  0
    0.2398   15.3840   -3.7856 H   0  0  0  0  0  0  0  0  0  0  0  0
    0.0336   16.5147   -0.2574 H   0  0  0  0  0  0  0  0  0  0  0  0
    0.2934   17.4983   -1.7379 H   0  0  0  0  0  0  0  0  0  0  0  0
   -0.9271   16.1802   -1.7379 H   0  0  0  0  0  0  0  0  0  0  0  0
  1  2  1  0
  2  3  1  0
  3  4  1  0
  4  5  1  0
  5  6  1  0
  6  7  1  0
  7  8  1  0
  7  9  1  0
  2 10  1  0
 10 11  1  0
 11 12  1  0
 12 13  1  0
 13 14  1  6
 13 15  1  0
 15 16  1  0
 16 17  1  0
 17 18  2  0
 18 19  1  0
 19 20  1  0
 20 21  1  0
 21 22  1  0
 22 23  1  0
 22 24  1  0
 24 25  1  0
 24 26  1  0
 19 27  1  0
 27 28  1  1
 27 29  1  0
 29 30  1  0
 30 31  1  0
 31 32  1  1
  7  5  1  0
 31 10  1  0
 31 13  1  0
 27 15  1  0
 24 18  1  0
  1 33  1  0
  1 34  1  0
  1 35  1  0
  2 36  1  6
  3 37  1  0
  3 38  1  0
  4 39  1  0
  4 40  1  0
  5 41  1  6
  8 42  1  0
  8 43  1  0
  8 44  1  0
  9 45  1  0
  9 46  1  0
  9 47  1  0
 10 48  1  6
 11 49  1  0
 11 50  1  0
 12 51  1  0
 12 52  1  0
 14 53  1  0
 14 54  1  0
 14 55  1  0
 15 56  1  1
 16 57  1  0
 16 58  1  0
 17 59  1  0
 19 60  1  6
 20 61  1  0
 20 62  1  0
 21 63  1  0
 21 64  1  0
 22 65  1  6
 23 66  1  0
 25 67  1  0
 25 68  1  0
 25 69  1  0
 26 70  1  0
 26 71  1  0
 26 72  1  0
 28 73  1  0
 28 74  1  0
 28 75  1  0
 29 76  1  0
 29 77  1  0
 30 78  1  0
 30 79  1  0
 32 80  1  0
 32 81  1  0
 32 82  1  0
M  END
>  <meeko>  (15) 
{"is_sidechain": [false], "intermolecular_energy": 2.731, "internal_energy": -0.839}

$$$$
EPH_relaxed_0001_pdb2pqr_Repair_296_r2_0001_out
     RDKit          3D

 82 86  0  0  0  0  0  0  0  0999 V2000
    0.9490   14.9710   -2.5890 C   0  0  0  0  0  0  0  0  0  0  0  0
    1.1860   14.3210   -3.9550 C   0  0  2  0  0  0  0  0  0  0  0  0
    0.4510   15.0660   -5.0880 C   0  0  0  0  0  0  0  0  0  0  0  0
    0.9810   14.7360   -6.4860 C   0  0  0  0  0  0  0  0  0  0  0  0
    0.7930   15.8810   -7.4340 C   0  0  2  0  0  0  0  0  0  0  0  0
    0.3210   15.5090   -8.7360 O   0  0  0  0  0  0  0  0  0  0  0  0
    1.6360   16.0840   -8.6790 C   0  0  0  0  0  0  0  0  0  0  0  0
    2.7320   15.1320   -9.0420 C   0  0  0  0  0  0  0  0  0  0  0  0
    1.7210   17.4560   -9.2700 C   0  0  0  0  0  0  0  0  0  0  0  0
    0.7460   12.8620   -3.9200 C   0  0  1  0  0  0  0  0  0  0  0  0
    1.8770   11.8870   -4.3420 C   0  0  0  0  0  0  0  0  0  0  0  0
    1.7020   10.6040   -3.4890 C   0  0  0  0  0  0  0  0  0  0  0  0
    0.3000   10.7460   -2.8530 C   0  0  1  0  0  0  0  0  0  0  0  0
   -0.6940   10.2920   -3.9670 C   0  0  0  0  0  0  0  0  0  0  0  0
    0.0650    9.9680   -1.5170 C   0  0  2  0  0  0  0  0  0  0  0  0
    0.1780    8.4370   -1.6260 C   0  0  0  0  0  0  0  0  0  0  0  0
   -1.0960    7.7240   -1.9380 C   0  0  0  0  0  0  0  0  0  0  0  0
   -2.3300    8.2510   -1.8440 C   0  0  0  0  0  0  0  0  0  0  0  0
   -2.5430    9.6670   -1.2930 C   0  0  1  0  0  0  0  0  0  0  0  0
   -3.7030    9.6530   -0.2640 C   0  0  0  0  0  0  0  0  0  0  0  0
   -4.9840    9.0510   -0.8340 C   0  0  0  0  0  0  0  0  0  0  0  0
   -4.7460    7.6230   -1.3180 C   0  0  2  0  0  0  0  0  0  0  0  0
   -4.4610    6.7940   -0.1880 O   0  0  0  0  0  0  0  0  0  0  0  0
   -3.5920    7.5110   -2.3530 C   0  0  0  0  0  0  0  0  0  0  0  0
   -4.0280    8.1570   -3.6910 C   0  0  0  0  0  0  0  0  0  0  0  0
   -3.3630    6.0050   -2.6520 C   0  0  0  0  0  0  0  0  0  0  0  0
   -1.2440   10.3970   -0.7390 C   0  0  1  0  0  0  0  0  0  0  0  0
   -1.0180   10.0170    0.7570 C   0  0  0  0  0  0  0  0  0  0  0  0
   -1.4770   11.9540   -0.7710 C   0  0  0  0  0  0  0  0  0  0  0  0
   -1.1130   12.6830   -2.0790 C   0  0  0  0  0  0  0  0  0  0  0  0
    0.2890   12.2900   -2.5550 C   0  0  2  0  0  0  0  0  0  0  0  0
    1.3120   12.7540   -1.4640 C   0  0  0  0  0  0  0  0  0  0  0  0
    1.2092   14.2574   -1.7933 H   0  0  0  0  0  0  0  0  0  0  0  0
    1.5776   15.8689   -2.4962 H   0  0  0  0  0  0  0  0  0  0  0  0
   -0.1100   15.2536   -2.4962 H   0  0  0  0  0  0  0  0  0  0  0  0
    2.2639   14.3792   -4.1665 H   0  0  0  0  0  0  0  0  0  0  0  0
   -0.6144   14.7954   -5.0476 H   0  0  0  0  0  0  0  0  0  0  0  0
    0.6171   16.1413   -4.9266 H   0  0  0  0  0  0  0  0  0  0  0  0
    2.0540   14.5043   -6.4150 H   0  0  0  0  0  0  0  0  0  0  0  0
    0.4166   13.8745   -6.8724 H   0  0  0  0  0  0  0  0  0  0  0  0
    0.5269   16.5538   -6.6054 H   0  0  0  0  0  0  0  0  0  0  0  0
    3.1905   14.7338   -8.1248 H   0  0  0  0  0  0  0  0  0  0  0  0
    2.3166   14.3032   -9.6340 H   0  0  0  0  0  0  0  0  0  0  0  0
    3.4946   15.6593   -9.6340 H   0  0  0  0  0  0  0  0  0  0  0  0
    1.7672   18.2010   -8.4621 H   0  0  0  0  0  0  0  0  0  0  0  0
    2.6256   17.5323   -9.8912 H   0  0  0  0  0  0  0  0  0  0  0  0
    0.8327   17.6433   -9.8912 H   0  0  0  0  0  0  0  0  0  0  0  0
   -0.1073   12.9098   -4.6125 H   0  0  0  0  0  0  0  0  0  0  0  0
    1.7897   11.6457   -5.4117 H   0  0  0  0  0  0  0  0  0  0  0  0
    2.8676   12.3371   -4.1803 H   0  0  0  0  0  0  0  0  0  0  0  0
    1.7516    9.7065   -4.1231 H   0  0  0  0  0  0  0  0  0  0  0  0
    2.4936   10.4947   -2.7331 H   0  0  0  0  0  0  0  0  0  0  0  0
   -1.6010    9.8777   -3.5025 H   0  0  0  0  0  0  0  0  0  0  0  0
   -0.9640   11.1561   -4.5919 H   0  0  0  0  0  0  0  0  0  0  0  0
   -0.2177    9.5222   -4.5919 H   0  0  0  0  0  0  0  0  0  0  0  0
    0.9199   10.2882   -0.9033 H   0  0  0  0  0  0  0  0  0  0  0  0
    0.9009    8.2054   -2.4221 H   0  0  0  0  0  0  0  0  0  0  0  0
    0.4890    8.0833   -0.6319 H   0  0  0  0  0  0  0  0  0  0  0  0
   -1.0190    6.6791   -2.2732 H   0  0  0  0  0  0  0  0  0  0  0  0
   -2.8177   10.2916   -2.1558 H   0  0  0  0  0  0  0  0  0  0  0  0
   -3.3928    9.0599    0.6089 H   0  0  0  0  0  0  0  0  0  0  0  0
   -3.9180   10.6962    0.0108 H   0  0  0  0  0  0  0  0  0  0  0  0
   -5.7570    9.0420   -0.0515 H   0  0  0  0  0  0  0  0  0  0  0  0
   -5.3098    9.6622   -1.6886 H   0  0  0  0  0  0  0  0  0  0  0  0
   -5.6609    7.2926   -1.8317 H   0  0  0  0  0  0  0  0  0  0  0  0
   -5.2970    6.3890    0.0990 H   0  0  0  0  0  0  0  0  0  0  0  0
   -4.6326    9.0528   -3.4858 H   0  0  0  0  0  0  0  0  0  0  0  0
   -3.1361    8.4410   -4.2688 H   0  0  0  0  0  0  0  0  0  0  0  0
   -4.6250    7.4361   -4.2688 H   0  0  0  0  0  0  0  0  0  0  0  0
   -3.2789    5.4518   -1.7049 H   0  0  0  0  0  0  0  0  0  0  0  0
   -4.2119    5.6130   -3.2315 H   0  0  0  0  0  0  0  0  0  0  0  0
   -2.4360    5.8830   -3.2315 H   0  0  0  0  0  0  0  0  0  0  0  0
   -1.4733   10.7825    1.4026 H   0  0  0  0  0  0  0  0  0  0  0  0
   -1.4826    9.0412    0.9617 H   0  0  0  0  0  0  0  0  0  0  0  0
    0.0613    9.9594    0.9617 H   0  0  0  0  0  0  0  0  0  0  0  0
   -2.5441   12.1352   -0.5746 H   0  0  0  0  0  0  0  0  0  0  0  0
   -0.7934   12.3636   -0.0127 H   0  0  0  0  0  0  0  0  0  0  0  0
   -1.8447   12.4153   -2.8555 H   0  0  0  0  0  0  0  0  0  0  0  0
   -1.1285   13.7669   -1.8920 H   0  0  0  0  0  0  0  0  0  0  0  0
    0.8935   12.5642   -0.4646 H   0  0  0  0  0  0  0  0  0  0  0  0
    2.2516   12.1939   -1.5805 H   0  0  0  0  0  0  0  0  0  0  0  0
    1.5096   13.8298   -1.5805 H   0  0  0  0  0  0  0  0  0  0  0  0
  1  2  1  0
  2  3  1  0
  3  4  1  0
  4  5  1  0
  5  6  1  0
  6  7  1  0
  7  8  1  0
  7  9  1  0
  2 10  1  0
 10 11  1  0
 11 12  1  0
 12 13  1  0
 13 14  1  6
 13 15  1  0
 15 16  1  0
 16 17  1  0
 17 18  2  0
 18 19  1  0
 19 20  1  0
 20 21  1  0
 21 22  1  0
 22 23  1  0
 22 24  1  0
 24 25  1  0
 24 26  1  0
 19 27  1  0
 27 28  1  1
 27 29  1  0
 29 30  1  0
 30 31  1  0
 31 32  1  1
  7  5  1  0
 31 10  1  0
 31 13  1  0
 27 15  1  0
 24 18  1  0
  1 33  1  0
  1 34  1  0
  1 35  1  0
  2 36  1  6
  3 37  1  0
  3 38  1  0
  4 39  1  0
  4 40  1  0
  5 41  1  1
  8 42  1  0
  8 43  1  0
  8 44  1  0
  9 45  1  0
  9 46  1  0
  9 47  1  0
 10 48  1  6
 11 49  1  0
 11 50  1  0
 12 51  1  0
 12 52  1  0
 14 53  1  0
 14 54  1  0
 14 55  1  0
 15 56  1  1
 16 57  1  0
 16 58  1  0
 17 59  1  0
 19 60  1  6
 20 61  1  0
 20 62  1  0
 21 63  1  0
 21 64  1  0
 22 65  1  6
 23 66  1  0
 25 67  1  0
 25 68  1  0
 25 69  1  0
 26 70  1  0
 26 71  1  0
 26 72  1  0
 28 73  1  0
 28 74  1  0
 28 75  1  0
 29 76  1  0
 29 77  1  0
 30 78  1  0
 30 79  1  0
 32 80  1  0
 32 81  1  0
 32 82  1  0
M  END
>  <meeko>  (16) 
{"is_sidechain": [false], "intermolecular_energy": 2.731, "internal_energy": -0.839}

$$$$
EPH_relaxed_0001_pdb2pqr_Repair_296_r2_0001_out
     RDKit          3D

 82 86  0  0  0  0  0  0  0  0999 V2000
   -0.5060   17.0670   -5.5020 C   0  0  0  0  0  0  0  0  0  0  0  0
    0.1340   16.5860   -4.1970 C   0  0  2  0  0  0  0  0  0  0  0  0
    1.5210   17.2170   -3.9640 C   0  0  0  0  0  0  0  0  0  0  0  0
    1.6890   17.8380   -2.5750 C   0  0  0  0  0  0  0  0  0  0  0  0
    0.4190   18.4710   -2.0930 C   0  0  2  0  0  0  0  0  0  0  0  0
    0.5200   19.8710   -1.8030 O   0  0  0  0  0  0  0  0  0  0  0  0
    0.2340   19.0120   -0.6880 C   0  0  0  0  0  0  0  0  0  0  0  0
    1.3330   18.9430    0.3260 C   0  0  0  0  0  0  0  0  0  0  0  0
   -1.1580   19.1590   -0.1550 C   0  0  0  0  0  0  0  0  0  0  0  0
    0.2470   15.0660   -4.2030 C   0  0  1  0  0  0  0  0  0  0  0  0
    1.1260   14.5370   -5.3670 C   0  0  0  0  0  0  0  0  0  0  0  0
    1.8740   13.2890   -4.8310 C   0  0  0  0  0  0  0  0  0  0  0  0
    1.1590   12.9470   -3.5020 C   0  0  1  0  0  0  0  0  0  0  0  0
   -0.1180   12.1550   -3.9270 C   0  0  0  0  0  0  0  0  0  0  0  0
    2.0020   12.1590   -2.4470 C   0  0  2  0  0  0  0  0  0  0  0  0
    2.4650   10.7610   -2.8930 C   0  0  0  0  0  0  0  0  0  0  0  0
    1.5300    9.6450   -2.5650 C   0  0  0  0  0  0  0  0  0  0  0  0
    0.5070    9.7120   -1.6930 C   0  0  0  0  0  0  0  0  0  0  0  0
    0.2660   10.9760   -0.8570 C   0  0  1  0  0  0  0  0  0  0  0  0
    0.0120   10.5780    0.6210 C   0  0  0  0  0  0  0  0  0  0  0  0
   -1.1140    9.5590    0.7670 C   0  0  0  0  0  0  0  0  0  0  0  0
   -0.8110    8.2940   -0.0320 C   0  0  2  0  0  0  0  0  0  0  0  0
    0.3150    7.6360    0.5570 O   0  0  0  0  0  0  0  0  0  0  0  0
   -0.5280    8.5710   -1.5350 C   0  0  0  0  0  0  0  0  0  0  0  0
   -1.8380    9.0010   -2.2400 C   0  0  0  0  0  0  0  0  0  0  0  0
   -0.0990    7.2330   -2.1940 C   0  0  0  0  0  0  0  0  0  0  0  0
    1.3580   12.1210   -1.0020 C   0  0  1  0  0  0  0  0  0  0  0  0
    2.5270   11.8710   -0.0000 C   0  0  0  0  0  0  0  0  0  0  0  0
    0.7150   13.5000   -0.5970 C   0  0  0  0  0  0  0  0  0  0  0  0
   -0.0010   14.2860   -1.7110 C   0  0  0  0  0  0  0  0  0  0  0  0
    0.8810   14.3950   -2.9590 C   0  0  2  0  0  0  0  0  0  0  0  0
    2.1640   15.2060   -2.5680 C   0  0  0  0  0  0  0  0  0  0  0  0
   -1.3659   17.7133   -5.2722 H   0  0  0  0  0  0  0  0  0  0  0  0
    0.2337   17.6346   -6.0857 H   0  0  0  0  0  0  0  0  0  0  0  0
   -0.8455   16.1987   -6.0857 H   0  0  0  0  0  0  0  0  0  0  0  0
   -0.5174   16.9068   -3.3707 H   0  0  0  0  0  0  0  0  0  0  0  0
    2.2840   16.4346   -4.0892 H   0  0  0  0  0  0  0  0  0  0  0  0
    1.6308   18.0311   -4.6955 H   0  0  0  0  0  0  0  0  0  0  0  0
    1.9862   17.0510   -1.8663 H   0  0  0  0  0  0  0  0  0  0  0  0
    2.4588   18.6210   -2.6405 H   0  0  0  0  0  0  0  0  0  0  0  0
   -0.1831   17.7819   -2.7034 H   0  0  0  0  0  0  0  0  0  0  0  0
    0.9011   18.9701    1.3373 H   0  0  0  0  0  0  0  0  0  0  0  0
    1.8965   18.0077    0.1929 H   0  0  0  0  0  0  0  0  0  0  0  0
    2.0090   19.8005    0.1929 H   0  0  0  0  0  0  0  0  0  0  0  0
   -1.1317   19.1562    0.9447 H   0  0  0  0  0  0  0  0  0  0  0  0
   -1.5880   20.1075   -0.5091 H   0  0  0  0  0  0  0  0  0  0  0  0
   -1.7766   18.3212   -0.5091 H   0  0  0  0  0  0  0  0  0  0  0  0
   -0.8188   14.8022   -4.2701 H   0  0  0  0  0  0  0  0  0  0  0  0
    0.4939   14.2608   -6.2238 H   0  0  0  0  0  0  0  0  0  0  0  0
    1.8347   15.3061   -5.7080 H   0  0  0  0  0  0  0  0  0  0  0  0
    1.7937   12.4531   -5.5415 H   0  0  0  0  0  0  0  0  0  0  0  0
    2.9490   13.4750   -4.6907 H   0  0  0  0  0  0  0  0  0  0  0  0
   -0.6577   11.8203   -3.0288 H   0  0  0  0  0  0  0  0  0  0  0  0
   -0.7713   12.8067   -4.5258 H   0  0  0  0  0  0  0  0  0  0  0  0
    0.1755   11.2802   -4.5258 H   0  0  0  0  0  0  0  0  0  0  0  0
    2.9163   12.7663   -2.3741 H   0  0  0  0  0  0  0  0  0  0  0  0
    2.6016   10.7803   -3.9843 H   0  0  0  0  0  0  0  0  0  0  0  0
    3.3913   10.5554   -2.3366 H   0  0  0  0  0  0  0  0  0  0  0  0
    1.6906    8.6862   -3.0797 H   0  0  0  0  0  0  0  0  0  0  0  0
   -0.6335   11.4513   -1.2753 H   0  0  0  0  0  0  0  0  0  0  0  0
    0.9353   10.1448    1.0332 H   0  0  0  0  0  0  0  0  0  0  0  0
   -0.2869   11.4862    1.1648 H   0  0  0  0  0  0  0  0  0  0  0  0
   -1.2261    9.2959    1.8292 H   0  0  0  0  0  0  0  0  0  0  0  0
   -2.0430   10.0042    0.3813 H   0  0  0  0  0  0  0  0  0  0  0  0
   -1.7074    7.6575    0.0052 H   0  0  0  0  0  0  0  0  0  0  0  0
    0.0030    7.1740    1.3540 H   0  0  0  0  0  0  0  0  0  0  0  0
   -2.5968    9.2501   -1.4835 H   0  0  0  0  0  0  0  0  0  0  0  0
   -1.6438    9.8825   -2.8686 H   0  0  0  0  0  0  0  0  0  0  0  0
   -2.2040    8.1758   -2.8686 H   0  0  0  0  0  0  0  0  0  0  0  0
    0.1368    6.4975   -1.4107 H   0  0  0  0  0  0  0  0  0  0  0  0
   -0.9201    6.8523   -2.8192 H   0  0  0  0  0  0  0  0  0  0  0  0
    0.7904    7.4008   -2.8192 H   0  0  0  0  0  0  0  0  0  0  0  0
    2.1503   11.9516    1.0304 H   0  0  0  0  0  0  0  0  0  0  0  0
    2.9397   10.8643   -0.1619 H   0  0  0  0  0  0  0  0  0  0  0  0
    3.3154   12.6209   -0.1619 H   0  0  0  0  0  0  0  0  0  0  0  0
   -0.0203   13.3038    0.1973 H   0  0  0  0  0  0  0  0  0  0  0  0
    1.5613   14.1346   -0.2952 H   0  0  0  0  0  0  0  0  0  0  0  0
   -0.9346   13.7673   -1.9743 H   0  0  0  0  0  0  0  0  0  0  0  0
   -0.2147   15.3003   -1.3429 H   0  0  0  0  0  0  0  0  0  0  0  0
    2.2454   15.2575   -1.4722 H   0  0  0  0  0  0  0  0  0  0  0  0
    3.0534   14.7057   -2.9787 H   0  0  0  0  0  0  0  0  0  0  0  0
    2.0936   16.2240   -2.9787 H   0  0  0  0  0  0  0  0  0  0  0  0
  1  2  1  0
  2  3  1  0
  3  4  1  0
  4  5  1  0
  5  6  1  0
  6  7  1  0
  7  8  1  0
  7  9  1  0
  2 10  1  0
 10 11  1  0
 11 12  1  0
 12 13  1  0
 13 14  1  6
 13 15  1  0
 15 16  1  0
 16 17  1  0
 17 18  2  0
 18 19  1  0
 19 20  1  0
 20 21  1  0
 21 22  1  0
 22 23  1  0
 22 24  1  0
 24 25  1  0
 24 26  1  0
 19 27  1  0
 27 28  1  1
 27 29  1  0
 29 30  1  0
 30 31  1  0
 31 32  1  1
  7  5  1  0
 31 10  1  0
 31 13  1  0
 27 15  1  0
 24 18  1  0
  1 33  1  0
  1 34  1  0
  1 35  1  0
  2 36  1  1
  3 37  1  0
  3 38  1  0
  4 39  1  0
  4 40  1  0
  5 41  1  6
  8 42  1  0
  8 43  1  0
  8 44  1  0
  9 45  1  0
  9 46  1  0
  9 47  1  0
 10 48  1  6
 11 49  1  0
 11 50  1  0
 12 51  1  0
 12 52  1  0
 14 53  1  0
 14 54  1  0
 14 55  1  0
 15 56  1  1
 16 57  1  0
 16 58  1  0
 17 59  1  0
 19 60  1  6
 20 61  1  0
 20 62  1  0
 21 63  1  0
 21 64  1  0
 22 65  1  6
 23 66  1  0
 25 67  1  0
 25 68  1  0
 25 69  1  0
 26 70  1  0
 26 71  1  0
 26 72  1  0
 28 73  1  0
 28 74  1  0
 28 75  1  0
 29 76  1  0
 29 77  1  0
 30 78  1  0
 30 79  1  0
 32 80  1  0
 32 81  1  0
 32 82  1  0
M  END
>  <meeko>  (17) 
{"is_sidechain": [false], "intermolecular_energy": 2.731, "internal_energy": -0.839}

$$$$
EPH_relaxed_0001_pdb2pqr_Repair_296_r2_0001_out
     RDKit          3D

 82 86  0  0  0  0  0  0  0  0999 V2000
   -2.4940    7.7960   -0.0530 C   0  0  0  0  0  0  0  0  0  0  0  0
   -3.1550    9.1770   -0.1030 C   0  0  2  0  0  0  0  0  0  0  0  0
   -4.6260    9.1000   -0.5590 C   0  0  0  0  0  0  0  0  0  0  0  0
   -5.1710    7.6710   -0.6410 C   0  0  0  0  0  0  0  0  0  0  0  0
   -5.9530    7.4470   -1.9000 C   0  0  2  0  0  0  0  0  0  0  0  0
   -6.8870    8.4880   -2.2180 O   0  0  0  0  0  0  0  0  0  0  0  0
   -7.4500    7.2000   -1.9220 C   0  0  0  0  0  0  0  0  0  0  0  0
   -8.2540    7.1620   -0.6600 C   0  0  0  0  0  0  0  0  0  0  0  0
   -8.0440    6.5140   -3.1120 C   0  0  0  0  0  0  0  0  0  0  0  0
   -2.3690   10.0960   -1.0310 C   0  0  1  0  0  0  0  0  0  0  0  0
   -2.9940   11.5130   -1.1370 C   0  0  0  0  0  0  0  0  0  0  0  0
   -1.8160   12.5110   -1.2830 C   0  0  0  0  0  0  0  0  0  0  0  0
   -0.5870   11.6220   -1.5880 C   0  0  1  0  0  0  0  0  0  0  0  0
   -0.6830   11.3170   -3.1160 C   0  0  0  0  0  0  0  0  0  0  0  0
    0.8070   12.2150   -1.2040 C   0  0  2  0  0  0  0  0  0  0  0  0
    1.1940   13.5060   -1.9470 C   0  0  0  0  0  0  0  0  0  0  0  0
    1.9430   13.3080   -3.2230 C   0  0  0  0  0  0  0  0  0  0  0  0
    2.5390   12.1650   -3.6100 C   0  0  0  0  0  0  0  0  0  0  0  0
    2.5780   10.9430   -2.6830 C   0  0  1  0  0  0  0  0  0  0  0  0
    4.0130   10.3530   -2.6640 C   0  0  0  0  0  0  0  0  0  0  0  0
    4.5360   10.0410   -4.0620 C   0  0  0  0  0  0  0  0  0  0  0  0
    4.5370   11.2930   -4.9360 C   0  0  2  0  0  0  0  0  0  0  0  0
    5.4980   12.2170   -4.4170 O   0  0  0  0  0  0  0  0  0  0  0  0
    3.1450   11.9800   -5.0230 C   0  0  0  0  0  0  0  0  0  0  0  0
    2.1810   11.0990   -5.8550 C   0  0  0  0  0  0  0  0  0  0  0  0
    3.3160   13.3040   -5.8160 C   0  0  0  0  0  0  0  0  0  0  0  0
    1.9880   11.1620   -1.2240 C   0  0  1  0  0  0  0  0  0  0  0  0
    3.0970   11.7180   -0.2790 C   0  0  0  0  0  0  0  0  0  0  0  0
    1.5560    9.7690   -0.6300 C   0  0  0  0  0  0  0  0  0  0  0  0
    0.1250    9.2920   -0.9460 C   0  0  0  0  0  0  0  0  0  0  0  0
   -0.8970   10.3950   -0.6550 C   0  0  2  0  0  0  0  0  0  0  0  0
   -0.8390   10.7080    0.8800 C   0  0  0  0  0  0  0  0  0  0  0  0
   -2.3504    7.4960    0.9955 H   0  0  0  0  0  0  0  0  0  0  0  0
   -3.1386    7.0624   -0.5593 H   0  0  0  0  0  0  0  0  0  0  0  0
   -1.5183    7.8379   -0.5593 H   0  0  0  0  0  0  0  0  0  0  0  0
   -3.1470    9.5853    0.9184 H   0  0  0  0  0  0  0  0  0  0  0  0
   -5.2413    9.6659    0.1560 H   0  0  0  0  0  0  0  0  0  0  0  0
   -4.6701    9.5197   -1.5748 H   0  0  0  0  0  0  0  0  0  0  0  0
   -4.3273    6.9657   -0.6152 H   0  0  0  0  0  0  0  0  0  0  0  0
   -5.8446    7.5114    0.2139 H   0  0  0  0  0  0  0  0  0  0  0  0
   -5.1094    6.9084   -2.3564 H   0  0  0  0  0  0  0  0  0  0  0  0
   -7.5775    7.1940    0.2068 H   0  0  0  0  0  0  0  0  0  0  0  0
   -8.9301    8.0292   -0.6297 H   0  0  0  0  0  0  0  0  0  0  0  0
   -8.8453    6.2349   -0.6297 H   0  0  0  0  0  0  0  0  0  0  0  0
   -8.7294    5.7225   -2.7747 H   0  0  0  0  0  0  0  0  0  0  0  0
   -8.5986    7.2456   -3.7180 H   0  0  0  0  0  0  0  0  0  0  0  0
   -7.2406    6.0697   -3.7180 H   0  0  0  0  0  0  0  0  0  0  0  0
   -2.4073    9.5020   -1.9560 H   0  0  0  0  0  0  0  0  0  0  0  0
   -3.6519   11.5721   -2.0166 H   0  0  0  0  0  0  0  0  0  0  0  0
   -3.6007   11.7448   -0.2492 H   0  0  0  0  0  0  0  0  0  0  0  0
   -2.0020   13.2131   -2.1091 H   0  0  0  0  0  0  0  0  0  0  0  0
   -1.6740   13.1237   -0.3806 H   0  0  0  0  0  0  0  0  0  0  0  0
   -1.0103   10.2771   -3.2625 H   0  0  0  0  0  0  0  0  0  0  0  0
   -1.4099   11.9992   -3.5811 H   0  0  0  0  0  0  0  0  0  0  0  0
    0.3035   11.4598   -3.5811 H   0  0  0  0  0  0  0  0  0  0  0  0
    0.6571   12.5069   -0.1541 H   0  0  0  0  0  0  0  0  0  0  0  0
    0.2694   14.0555   -2.1775 H   0  0  0  0  0  0  0  0  0  0  0  0
    1.8749   14.0504   -1.2761 H   0  0  0  0  0  0  0  0  0  0  0  0
    2.0138   14.1687   -3.9043 H   0  0  0  0  0  0  0  0  0  0  0  0
    1.8799   10.2105   -3.1144 H   0  0  0  0  0  0  0  0  0  0  0  0
    4.6873   11.0813   -2.1897 H   0  0  0  0  0  0  0  0  0  0  0  0
    3.9778    9.4079   -2.1023 H   0  0  0  0  0  0  0  0  0  0  0  0
    5.5632    9.6553   -3.9843 H   0  0  0  0  0  0  0  0  0  0  0  0
    3.8775    9.2907   -4.5240 H   0  0  0  0  0  0  0  0  0  0  0  0
    4.7977   10.9816   -5.9583 H   0  0  0  0  0  0  0  0  0  0  0  0
    6.3370   11.7380   -4.3070 H   0  0  0  0  0  0  0  0  0  0  0  0
    1.5414   10.5145   -5.1773 H   0  0  0  0  0  0  0  0  0  0  0  0
    1.5525   11.7413   -6.4893 H   0  0  0  0  0  0  0  0  0  0  0  0
    2.7643   10.4154   -6.4893 H   0  0  0  0  0  0  0  0  0  0  0  0
    3.4242   14.1419   -5.1116 H   0  0  0  0  0  0  0  0  0  0  0  0
    4.2132   13.2390   -6.4491 H   0  0  0  0  0  0  0  0  0  0  0  0
    2.4317   13.4691   -6.4491 H   0  0  0  0  0  0  0  0  0  0  0  0
    2.7960   11.5671    0.7682 H   0  0  0  0  0  0  0  0  0  0  0  0
    4.0412   11.1867   -0.4693 H   0  0  0  0  0  0  0  0  0  0  0  0
    3.2361   12.7924   -0.4693 H   0  0  0  0  0  0  0  0  0  0  0  0
    2.2526    9.0113   -1.0182 H   0  0  0  0  0  0  0  0  0  0  0  0
    1.5804    9.9018    0.4617 H   0  0  0  0  0  0  0  0  0  0  0  0
    0.0641    9.0163   -2.0091 H   0  0  0  0  0  0  0  0  0  0  0  0
   -0.1042    8.4245   -0.3097 H   0  0  0  0  0  0  0  0  0  0  0  0
   -1.0105    9.7827    1.4496 H   0  0  0  0  0  0  0  0  0  0  0  0
    0.1502   11.1168    1.1337 H   0  0  0  0  0  0  0  0  0  0  0  0
   -1.6160   11.4441    1.1337 H   0  0  0  0  0  0  0  0  0  0  0  0
  1  2  1  0
  2  3  1  0
  3  4  1  0
  4  5  1  0
  5  6  1  0
  6  7  1  0
  7  8  1  0
  7  9  1  0
  2 10  1  0
 10 11  1  0
 11 12  1  0
 12 13  1  0
 13 14  1  6
 13 15  1  0
 15 16  1  0
 16 17  1  0
 17 18  2  0
 18 19  1  0
 19 20  1  0
 20 21  1  0
 21 22  1  0
 22 23  1  0
 22 24  1  0
 24 25  1  0
 24 26  1  0
 19 27  1  0
 27 28  1  1
 27 29  1  0
 29 30  1  0
 30 31  1  0
 31 32  1  1
  7  5  1  0
 31 10  1  0
 31 13  1  0
 27 15  1  0
 24 18  1  0
  1 33  1  0
  1 34  1  0
  1 35  1  0
  2 36  1  1
  3 37  1  0
  3 38  1  0
  4 39  1  0
  4 40  1  0
  5 41  1  6
  8 42  1  0
  8 43  1  0
  8 44  1  0
  9 45  1  0
  9 46  1  0
  9 47  1  0
 10 48  1  6
 11 49  1  0
 11 50  1  0
 12 51  1  0
 12 52  1  0
 14 53  1  0
 14 54  1  0
 14 55  1  0
 15 56  1  1
 16 57  1  0
 16 58  1  0
 17 59  1  0
 19 60  1  6
 20 61  1  0
 20 62  1  0
 21 63  1  0
 21 64  1  0
 22 65  1  6
 23 66  1  0
 25 67  1  0
 25 68  1  0
 25 69  1  0
 26 70  1  0
 26 71  1  0
 26 72  1  0
 28 73  1  0
 28 74  1  0
 28 75  1  0
 29 76  1  0
 29 77  1  0
 30 78  1  0
 30 79  1  0
 32 80  1  0
 32 81  1  0
 32 82  1  0
M  END
>  <meeko>  (18) 
{"is_sidechain": [false], "intermolecular_energy": 2.731, "internal_energy": -0.839}

$$$$
