EPH_relaxed_0001_pdb2pqr_Repair_352_r2_0001_out
     RDKit          3D

 82 86  0  0  0  0  0  0  0  0999 V2000
   -1.0110    8.0550   -2.3040 C   0  0  0  0  0  0  0  0  0  0  0  0
   -1.3830    8.4710   -0.8780 C   0  0  2  0  0  0  0  0  0  0  0  0
   -2.9010    8.6870   -0.7130 C   0  0  0  0  0  0  0  0  0  0  0  0
   -3.7480    7.8800   -1.7010 C   0  0  0  0  0  0  0  0  0  0  0  0
   -5.1920    7.8560   -1.3010 C   0  0  2  0  0  0  0  0  0  0  0  0
   -5.6780    6.5720   -0.8890 O   0  0  0  0  0  0  0  0  0  0  0  0
   -6.2640    7.1190   -2.0820 C   0  0  0  0  0  0  0  0  0  0  0  0
   -5.9370    6.3550   -3.3260 C   0  0  0  0  0  0  0  0  0  0  0  0
   -7.6900    7.5410   -1.9140 C   0  0  0  0  0  0  0  0  0  0  0  0
   -0.6320    9.7410   -0.4950 C   0  0  1  0  0  0  0  0  0  0  0  0
    0.4630    9.4870    0.5760 C   0  0  0  0  0  0  0  0  0  0  0  0
    1.6350   10.4480    0.2540 C   0  0  0  0  0  0  0  0  0  0  0  0
    1.0520   11.4450   -0.7750 C   0  0  1  0  0  0  0  0  0  0  0  0
    0.2650   12.4880    0.0780 C   0  0  0  0  0  0  0  0  0  0  0  0
    2.0800   12.1360   -1.7280 C   0  0  2  0  0  0  0  0  0  0  0  0
    3.1240   13.0240   -1.0280 C   0  0  0  0  0  0  0  0  0  0  0  0
    2.7370   14.4560   -0.8660 C   0  0  0  0  0  0  0  0  0  0  0  0
    1.7290   15.0720   -1.5120 C   0  0  0  0  0  0  0  0  0  0  0  0
    0.9180   14.3390   -2.5880 C   0  0  1  0  0  0  0  0  0  0  0  0
    0.7640   15.2520   -3.8320 C   0  0  0  0  0  0  0  0  0  0  0  0
    0.1750   16.6160   -3.4870 C   0  0  0  0  0  0  0  0  0  0  0  0
    1.0400   17.3390   -2.4580 C   0  0  2  0  0  0  0  0  0  0  0  0
    2.2990   17.6600   -3.0570 O   0  0  0  0  0  0  0  0  0  0  0  0
    1.2730   16.5110   -1.1630 C   0  0  0  0  0  0  0  0  0  0  0  0
   -0.0470   16.4210   -0.3580 C   0  0  0  0  0  0  0  0  0  0  0  0
    2.2740   17.2920   -0.2700 C   0  0  0  0  0  0  0  0  0  0  0  0
    1.4230   12.8790   -2.9620 C   0  0  1  0  0  0  0  0  0  0  0  0
    2.5200   12.9620   -4.0670 C   0  0  0  0  0  0  0  0  0  0  0  0
    0.2280   12.0640   -3.5830 C   0  0  0  0  0  0  0  0  0  0  0  0
   -0.6820   11.3060   -2.5990 C   0  0  0  0  0  0  0  0  0  0  0  0
    0.1470   10.4720   -1.6170 C   0  0  2  0  0  0  0  0  0  0  0  0
    0.9320    9.3990   -2.4450 C   0  0  0  0  0  0  0  0  0  0  0  0
   -0.2782    7.2355   -2.2675 H   0  0  0  0  0  0  0  0  0  0  0  0
   -1.9133    7.7167   -2.8344 H   0  0  0  0  0  0  0  0  0  0  0  0
   -0.5743    8.9140   -2.8344 H   0  0  0  0  0  0  0  0  0  0  0  0
   -1.0917    7.6495   -0.2070 H   0  0  0  0  0  0  0  0  0  0  0  0
   -3.1847    8.3934    0.3084 H   0  0  0  0  0  0  0  0  0  0  0  0
   -3.0983    9.7504   -0.9138 H   0  0  0  0  0  0  0  0  0  0  0  0
   -3.6619    8.3346   -2.6990 H   0  0  0  0  0  0  0  0  0  0  0  0
   -3.3760    6.8448   -1.7065 H   0  0  0  0  0  0  0  0  0  0  0  0
   -5.1300    8.8887   -0.9272 H   0  0  0  0  0  0  0  0  0  0  0  0
   -5.5175    5.3750   -3.0548 H   0  0  0  0  0  0  0  0  0  0  0  0
   -6.8522    6.2107   -3.9189 H   0  0  0  0  0  0  0  0  0  0  0  0
   -5.2008    6.9176   -3.9189 H   0  0  0  0  0  0  0  0  0  0  0  0
   -7.9277    7.6114   -0.8423 H   0  0  0  0  0  0  0  0  0  0  0  0
   -7.8403    8.5221   -2.3881 H   0  0  0  0  0  0  0  0  0  0  0  0
   -8.3501    6.7997   -2.3881 H   0  0  0  0  0  0  0  0  0  0  0  0
   -1.4762   10.3604   -0.1579 H   0  0  0  0  0  0  0  0  0  0  0  0
    0.0663    9.6966    1.5803 H   0  0  0  0  0  0  0  0  0  0  0  0
    0.7960    8.4387    0.5594 H   0  0  0  0  0  0  0  0  0  0  0  0
    1.9651   10.9752    1.1612 H   0  0  0  0  0  0  0  0  0  0  0  0
    2.5158    9.9156   -0.1343 H   0  0  0  0  0  0  0  0  0  0  0  0
    0.4215   12.2805    1.1469 H   0  0  0  0  0  0  0  0  0  0  0  0
    0.6263   13.5003   -0.1558 H   0  0  0  0  0  0  0  0  0  0  0  0
   -0.8076   12.4184   -0.1558 H   0  0  0  0  0  0  0  0  0  0  0  0
    2.6392   11.2794   -2.1324 H   0  0  0  0  0  0  0  0  0  0  0  0
    3.3090   12.6066   -0.0272 H   0  0  0  0  0  0  0  0  0  0  0  0
    4.0115   13.0203   -1.6779 H   0  0  0  0  0  0  0  0  0  0  0  0
    3.3251   15.0595   -0.1589 H   0  0  0  0  0  0  0  0  0  0  0  0
   -0.0692   14.1433   -2.1440 H   0  0  0  0  0  0  0  0  0  0  0  0
    1.7552   15.4004   -4.2854 H   0  0  0  0  0  0  0  0  0  0  0  0
    0.0711   14.7552   -4.5271 H   0  0  0  0  0  0  0  0  0  0  0  0
    0.1180   17.2252   -4.4011 H   0  0  0  0  0  0  0  0  0  0  0  0
   -0.8281   16.4677   -3.0605 H   0  0  0  0  0  0  0  0  0  0  0  0
    0.5010   18.2490   -2.1556 H   0  0  0  0  0  0  0  0  0  0  0  0
    2.7570   18.2800   -2.4650 H   0  0  0  0  0  0  0  0  0  0  0  0
    0.1783   16.4364    0.7186 H   0  0  0  0  0  0  0  0  0  0  0  0
   -0.6895   17.2774   -0.6104 H   0  0  0  0  0  0  0  0  0  0  0  0
   -0.5673   15.4853   -0.6104 H   0  0  0  0  0  0  0  0  0  0  0  0
    2.0401   17.1095    0.7892 H   0  0  0  0  0  0  0  0  0  0  0  0
    3.2981   16.9519   -0.4832 H   0  0  0  0  0  0  0  0  0  0  0  0
    2.1932   18.3681   -0.4832 H   0  0  0  0  0  0  0  0  0  0  0  0
    3.5108   13.0370   -3.5951 H   0  0  0  0  0  0  0  0  0  0  0  0
    2.4793   12.0582   -4.6927 H   0  0  0  0  0  0  0  0  0  0  0  0
    2.3438   13.8494   -4.6927 H   0  0  0  0  0  0  0  0  0  0  0  0
   -0.4025   12.7715   -4.1415 H   0  0  0  0  0  0  0  0  0  0  0  0
    0.7008   11.2833   -4.1969 H   0  0  0  0  0  0  0  0  0  0  0  0
   -1.2853   12.0321   -2.0344 H   0  0  0  0  0  0  0  0  0  0  0  0
   -1.3319   10.6289   -3.1727 H   0  0  0  0  0  0  0  0  0  0  0  0
    1.4395    8.7053   -1.7585 H   0  0  0  0  0  0  0  0  0  0  0  0
    0.2290    8.8387   -3.0790 H   0  0  0  0  0  0  0  0  0  0  0  0
    1.6788    9.8994   -3.0790 H   0  0  0  0  0  0  0  0  0  0  0  0
  1  2  1  0
  2  3  1  0
  3  4  1  0
  4  5  1  0
  5  6  1  0
  6  7  1  0
  7  8  1  0
  7  9  1  0
  2 10  1  0
 10 11  1  0
 11 12  1  0
 12 13  1  0
 13 14  1  1
 13 15  1  0
 15 16  1  0
 16 17  1  0
 17 18  2  0
 18 19  1  0
 19 20  1  0
 20 21  1  0
 21 22  1  0
 22 23  1  0
 22 24  1  0
 24 25  1  0
 24 26  1  0
 19 27  1  0
 27 28  1  6
 27 29  1  0
 29 30  1  0
 30 31  1  0
 31 32  1  6
  7  5  1  0
 31 10  1  0
 31 13  1  0
 27 15  1  0
 24 18  1  0
  1 33  1  0
  1 34  1  0
  1 35  1  0
  2 36  1  1
  3 37  1  0
  3 38  1  0
  4 39  1  0
  4 40  1  0
  5 41  1  1
  8 42  1  0
  8 43  1  0
  8 44  1  0
  9 45  1  0
  9 46  1  0
  9 47  1  0
 10 48  1  1
 11 49  1  0
 11 50  1  0
 12 51  1  0
 12 52  1  0
 14 53  1  0
 14 54  1  0
 14 55  1  0
 15 56  1  6
 16 57  1  0
 16 58  1  0
 17 59  1  0
 19 60  1  1
 20 61  1  0
 20 62  1  0
 21 63  1  0
 21 64  1  0
 22 65  1  1
 23 66  1  0
 25 67  1  0
 25 68  1  0
 25 69  1  0
 26 70  1  0
 26 71  1  0
 26 72  1  0
 28 73  1  0
 28 74  1  0
 28 75  1  0
 29 76  1  0
 29 77  1  0
 30 78  1  0
 30 79  1  0
 32 80  1  0
 32 81  1  0
 32 82  1  0
M  END
>  <meeko>  (1) 
{"is_sidechain": [false], "intermolecular_energy": 2.731, "internal_energy": -0.839}

$$$$
EPH_relaxed_0001_pdb2pqr_Repair_352_r2_0001_out
     RDKit          3D

 82 86  0  0  0  0  0  0  0  0999 V2000
    2.3280   19.6670   -0.9560 C   0  0  0  0  0  0  0  0  0  0  0  0
    2.1490   18.8220    0.3080 C   0  0  2  0  0  0  0  0  0  0  0  0
    3.5000   18.3980    0.9190 C   0  0  0  0  0  0  0  0  0  0  0  0
    3.7720   19.0090    2.2970 C   0  0  0  0  0  0  0  0  0  0  0  0
    5.2340   19.0110    2.6230 C   0  0  2  0  0  0  0  0  0  0  0  0
    5.6580   17.9430    3.4810 O   0  0  0  0  0  0  0  0  0  0  0  0
    5.7800   19.2710    4.0150 C   0  0  0  0  0  0  0  0  0  0  0  0
    4.8710   19.5480    5.1710 C   0  0  0  0  0  0  0  0  0  0  0  0
    7.1960   19.7370    4.1530 C   0  0  0  0  0  0  0  0  0  0  0  0
    1.3090   17.5900   -0.0050 C   0  0  1  0  0  0  0  0  0  0  0  0
    0.0270   17.9290   -0.8100 C   0  0  0  0  0  0  0  0  0  0  0  0
   -0.2250   16.7400   -1.7730 C   0  0  0  0  0  0  0  0  0  0  0  0
    0.7140   15.6210   -1.2640 C   0  0  1  0  0  0  0  0  0  0  0  0
   -0.0480   14.9750   -0.0640 C   0  0  0  0  0  0  0  0  0  0  0  0
    1.1470   14.5500   -2.3180 C   0  0  2  0  0  0  0  0  0  0  0  0
   -0.0020   13.7160   -2.9100 C   0  0  0  0  0  0  0  0  0  0  0  0
   -0.3200   12.4560   -2.1750 C   0  0  0  0  0  0  0  0  0  0  0  0
    0.4680   11.8660   -1.2560 C   0  0  0  0  0  0  0  0  0  0  0  0
    1.8640   12.4190   -0.9450 C   0  0  1  0  0  0  0  0  0  0  0  0
    2.8870   11.2530   -0.9130 C   0  0  0  0  0  0  0  0  0  0  0  0
    2.4750   10.1380    0.0430 C   0  0  0  0  0  0  0  0  0  0  0  0
    1.1070    9.5750   -0.3350 C   0  0  2  0  0  0  0  0  0  0  0  0
    1.2150    8.9110   -1.5970 O   0  0  0  0  0  0  0  0  0  0  0  0
   -0.0040   10.6600   -0.4070 C   0  0  0  0  0  0  0  0  0  0  0  0
   -0.3300   11.1670    1.0190 C   0  0  0  0  0  0  0  0  0  0  0  0
   -1.2980    9.9830   -0.9340 C   0  0  0  0  0  0  0  0  0  0  0  0
    2.3480   13.6310   -1.8520 C   0  0  1  0  0  0  0  0  0  0  0  0
    3.0230   13.0900   -3.1490 C   0  0  0  0  0  0  0  0  0  0  0  0
    3.4560   14.4410   -1.0790 C   0  0  0  0  0  0  0  0  0  0  0  0
    2.9700   15.5650   -0.1440 C   0  0  0  0  0  0  0  0  0  0  0  0
    1.9680   16.4770   -0.8580 C   0  0  2  0  0  0  0  0  0  0  0  0
    2.7120   17.1590   -2.0570 C   0  0  0  0  0  0  0  0  0  0  0  0
    2.5483   20.7071   -0.6736 H   0  0  0  0  0  0  0  0  0  0  0  0
    3.1608   19.2644   -1.5513 H   0  0  0  0  0  0  0  0  0  0  0  0
    1.4035   19.6367   -1.5513 H   0  0  0  0  0  0  0  0  0  0  0  0
    1.6313   19.4451    1.0522 H   0  0  0  0  0  0  0  0  0  0  0  0
    3.5080   17.3024    1.0173 H   0  0  0  0  0  0  0  0  0  0  0  0
    4.2872   18.7649    0.2439 H   0  0  0  0  0  0  0  0  0  0  0  0
    3.4031   20.0453    2.3067 H   0  0  0  0  0  0  0  0  0  0  0  0
    3.2532   18.3990    3.0512 H   0  0  0  0  0  0  0  0  0  0  0  0
    5.4764   19.4455    1.6419 H   0  0  0  0  0  0  0  0  0  0  0  0
    5.4146   19.3823    6.1128 H   0  0  0  0  0  0  0  0  0  0  0  0
    4.5269   20.5918    5.1250 H   0  0  0  0  0  0  0  0  0  0  0  0
    4.0033   18.8735    5.1250 H   0  0  0  0  0  0  0  0  0  0  0  0
    7.4520   19.8212    5.2195 H   0  0  0  0  0  0  0  0  0  0  0  0
    7.8690   19.0129    3.6705 H   0  0  0  0  0  0  0  0  0  0  0  0
    7.3075   20.7192    3.6705 H   0  0  0  0  0  0  0  0  0  0  0  0
    1.1313   17.2247    1.0172 H   0  0  0  0  0  0  0  0  0  0  0  0
   -0.8272   18.0514   -0.1278 H   0  0  0  0  0  0  0  0  0  0  0  0
    0.1482   18.8695   -1.3675 H   0  0  0  0  0  0  0  0  0  0  0  0
   -1.2755   16.4173   -1.7252 H   0  0  0  0  0  0  0  0  0  0  0  0
   -0.0290   17.0041   -2.8227 H   0  0  0  0  0  0  0  0  0  0  0  0
    0.3810   15.3387    0.8813 H   0  0  0  0  0  0  0  0  0  0  0  0
   -1.1117   15.2507   -0.1140 H   0  0  0  0  0  0  0  0  0  0  0  0
    0.0499   13.8805   -0.1140 H   0  0  0  0  0  0  0  0  0  0  0  0
    1.5223   15.1707   -3.1450 H   0  0  0  0  0  0  0  0  0  0  0  0
   -0.9066   14.3418   -2.9190 H   0  0  0  0  0  0  0  0  0  0  0  0
    0.3306   13.4079   -3.9122 H   0  0  0  0  0  0  0  0  0  0  0  0
   -1.2791   11.9683   -2.4034 H   0  0  0  0  0  0  0  0  0  0  0  0
    1.7932   12.8813    0.0506 H   0  0  0  0  0  0  0  0  0  0  0  0
    2.9754   10.8338   -1.9261 H   0  0  0  0  0  0  0  0  0  0  0  0
    3.8452   11.6598   -0.5576 H   0  0  0  0  0  0  0  0  0  0  0  0
    3.2214    9.3312   -0.0014 H   0  0  0  0  0  0  0  0  0  0  0  0
    2.4164   10.5511    1.0608 H   0  0  0  0  0  0  0  0  0  0  0  0
    0.8080    8.8738    0.4580 H   0  0  0  0  0  0  0  0  0  0  0  0
    0.3390    8.5490   -1.8150 H   0  0  0  0  0  0  0  0  0  0  0  0
    0.1094   10.4836    1.7605 H   0  0  0  0  0  0  0  0  0  0  0  0
    0.0899   12.1746    1.1548 H   0  0  0  0  0  0  0  0  0  0  0  0
   -1.4210   11.2031    1.1548 H   0  0  0  0  0  0  0  0  0  0  0  0
   -1.9155    9.6599   -0.0829 H   0  0  0  0  0  0  0  0  0  0  0  0
   -1.8640   10.7005   -1.5462 H   0  0  0  0  0  0  0  0  0  0  0  0
   -1.0313    9.1089   -1.5462 H   0  0  0  0  0  0  0  0  0  0  0  0
    3.8550   12.4232   -2.8786 H   0  0  0  0  0  0  0  0  0  0  0  0
    2.2834   12.5317   -3.7418 H   0  0  0  0  0  0  0  0  0  0  0  0
    3.4068   13.9334   -3.7418 H   0  0  0  0  0  0  0  0  0  0  0  0
    4.0273   13.7251   -0.4698 H   0  0  0  0  0  0  0  0  0  0  0  0
    4.0390   14.9493   -1.8611 H   0  0  0  0  0  0  0  0  0  0  0  0
    2.4851   15.1168    0.7358 H   0  0  0  0  0  0  0  0  0  0  0  0
    3.8382   16.1681    0.1603 H   0  0  0  0  0  0  0  0  0  0  0  0
    3.4709   17.8547   -1.6696 H   0  0  0  0  0  0  0  0  0  0  0  0
    3.2005   16.3884   -2.6715 H   0  0  0  0  0  0  0  0  0  0  0  0
    1.9867   17.7126   -2.6715 H   0  0  0  0  0  0  0  0  0  0  0  0
  1  2  1  0
  2  3  1  0
  3  4  1  0
  4  5  1  0
  5  6  1  0
  6  7  1  0
  7  8  1  0
  7  9  1  0
  2 10  1  0
 10 11  1  0
 11 12  1  0
 12 13  1  0
 13 14  1  1
 13 15  1  0
 15 16  1  0
 16 17  1  0
 17 18  2  0
 18 19  1  0
 19 20  1  0
 20 21  1  0
 21 22  1  0
 22 23  1  0
 22 24  1  0
 24 25  1  0
 24 26  1  0
 19 27  1  0
 27 28  1  6
 27 29  1  0
 29 30  1  0
 30 31  1  0
 31 32  1  6
  7  5  1  0
 31 10  1  0
 31 13  1  0
 27 15  1  0
 24 18  1  0
  1 33  1  0
  1 34  1  0
  1 35  1  0
  2 36  1  1
  3 37  1  0
  3 38  1  0
  4 39  1  0
  4 40  1  0
  5 41  1  6
  8 42  1  0
  8 43  1  0
  8 44  1  0
  9 45  1  0
  9 46  1  0
  9 47  1  0
 10 48  1  1
 11 49  1  0
 11 50  1  0
 12 51  1  0
 12 52  1  0
 14 53  1  0
 14 54  1  0
 14 55  1  0
 15 56  1  6
 16 57  1  0
 16 58  1  0
 17 59  1  0
 19 60  1  1
 20 61  1  0
 20 62  1  0
 21 63  1  0
 21 64  1  0
 22 65  1  1
 23 66  1  0
 25 67  1  0
 25 68  1  0
 25 69  1  0
 26 70  1  0
 26 71  1  0
 26 72  1  0
 28 73  1  0
 28 74  1  0
 28 75  1  0
 29 76  1  0
 29 77  1  0
 30 78  1  0
 30 79  1  0
 32 80  1  0
 32 81  1  0
 32 82  1  0
M  END
>  <meeko>  (2) 
{"is_sidechain": [false], "intermolecular_energy": 2.731, "internal_energy": -0.839}

$$$$
EPH_relaxed_0001_pdb2pqr_Repair_352_r2_0001_out
     RDKit          3D

 82 86  0  0  0  0  0  0  0  0999 V2000
    0.2180   18.2920   -0.0370 C   0  0  0  0  0  0  0  0  0  0  0  0
    1.3930   17.3390   -0.2770 C   0  0  2  0  0  0  0  0  0  0  0  0
    2.5770   18.0400   -0.9710 C   0  0  0  0  0  0  0  0  0  0  0  0
    3.8060   18.2080   -0.0730 C   0  0  0  0  0  0  0  0  0  0  0  0
    3.4380   18.7550    1.2730 C   0  0  2  0  0  0  0  0  0  0  0  0
    3.7750   20.1350    1.4700 O   0  0  0  0  0  0  0  0  0  0  0  0
    4.4600   19.1890    2.3070 C   0  0  0  0  0  0  0  0  0  0  0  0
    5.9290   19.0930    2.0400 C   0  0  0  0  0  0  0  0  0  0  0  0
    4.0440   19.2430    3.7440 C   0  0  0  0  0  0  0  0  0  0  0  0
    0.9340   16.1460   -1.1080 C   0  0  1  0  0  0  0  0  0  0  0  0
    1.0130   16.4160   -2.6340 C   0  0  0  0  0  0  0  0  0  0  0  0
    1.4040   15.0740   -3.3050 C   0  0  0  0  0  0  0  0  0  0  0  0
    1.2120   14.0130   -2.1960 C   0  0  1  0  0  0  0  0  0  0  0  0
   -0.3190   13.7090   -2.1920 C   0  0  0  0  0  0  0  0  0  0  0  0
    2.0590   12.7060   -2.3370 C   0  0  2  0  0  0  0  0  0  0  0  0
    1.7620   11.8680   -3.5920 C   0  0  0  0  0  0  0  0  0  0  0  0
    0.7030   10.8290   -3.4290 C   0  0  0  0  0  0  0  0  0  0  0  0
    0.2170   10.3840   -2.2550 C   0  0  0  0  0  0  0  0  0  0  0  0
    0.8100   10.8660   -0.9240 C   0  0  1  0  0  0  0  0  0  0  0  0
    1.0450    9.6500    0.0090 C   0  0  0  0  0  0  0  0  0  0  0  0
   -0.2120    8.8080    0.2010 C   0  0  0  0  0  0  0  0  0  0  0  0
   -0.7380    8.2990   -1.1380 C   0  0  2  0  0  0  0  0  0  0  0  0
    0.2070    7.3710   -1.6810 O   0  0  0  0  0  0  0  0  0  0  0  0
   -1.0030    9.4350   -2.1650 C   0  0  0  0  0  0  0  0  0  0  0  0
   -2.2320   10.2650   -1.7160 C   0  0  0  0  0  0  0  0  0  0  0  0
   -1.3930    8.7770   -3.5160 C   0  0  0  0  0  0  0  0  0  0  0  0
    2.0860   11.8080   -1.0340 C   0  0  1  0  0  0  0  0  0  0  0  0
    3.3800   10.9420   -1.1160 C   0  0  0  0  0  0  0  0  0  0  0  0
    2.2070   12.6640    0.2810 C   0  0  0  0  0  0  0  0  0  0  0  0
    1.4430   14.0020    0.3130 C   0  0  0  0  0  0  0  0  0  0  0  0
    1.7230   14.8230   -0.9500 C   0  0  2  0  0  0  0  0  0  0  0  0
    3.2530   15.1620   -0.9700 C   0  0  0  0  0  0  0  0  0  0  0  0
    0.0629   18.4178    1.0447 H   0  0  0  0  0  0  0  0  0  0  0  0
    0.4394   19.2689   -0.4917 H   0  0  0  0  0  0  0  0  0  0  0  0
   -0.6921   17.8737   -0.4917 H   0  0  0  0  0  0  0  0  0  0  0  0
    1.7446   16.9936    0.7064 H   0  0  0  0  0  0  0  0  0  0  0  0
    2.8673   17.4439   -1.8487 H   0  0  0  0  0  0  0  0  0  0  0  0
    2.2374   19.0503   -1.2430 H   0  0  0  0  0  0  0  0  0  0  0  0
    4.2872   17.2278    0.0599 H   0  0  0  0  0  0  0  0  0  0  0  0
    4.4901   18.9203   -0.5574 H   0  0  0  0  0  0  0  0  0  0  0  0
    2.5658   18.0874    1.3329 H   0  0  0  0  0  0  0  0  0  0  0  0
    6.4737   19.0574    2.9950 H   0  0  0  0  0  0  0  0  0  0  0  0
    6.1381   18.1793    1.4643 H   0  0  0  0  0  0  0  0  0  0  0  0
    6.2552   19.9717    1.4643 H   0  0  0  0  0  0  0  0  0  0  0  0
    4.9294   19.1281    4.3866 H   0  0  0  0  0  0  0  0  0  0  0  0
    3.5641   20.2110    3.9507 H   0  0  0  0  0  0  0  0  0  0  0  0
    3.3329   18.4296    3.9507 H   0  0  0  0  0  0  0  0  0  0  0  0
   -0.0845   16.0253   -0.7104 H   0  0  0  0  0  0  0  0  0  0  0  0
    0.0370   16.7573   -3.0095 H   0  0  0  0  0  0  0  0  0  0  0  0
    1.7507   17.2003   -2.8591 H   0  0  0  0  0  0  0  0  0  0  0  0
    0.7479   14.8628   -4.1623 H   0  0  0  0  0  0  0  0  0  0  0  0
    2.4319   15.0871   -3.6964 H   0  0  0  0  0  0  0  0  0  0  0  0
   -0.6760   13.6381   -1.1540 H   0  0  0  0  0  0  0  0  0  0  0  0
   -0.8549   14.5183   -2.7096 H   0  0  0  0  0  0  0  0  0  0  0  0
   -0.5050   12.7564   -2.7096 H   0  0  0  0  0  0  0  0  0  0  0  0
    3.0773   13.0983   -2.4753 H   0  0  0  0  0  0  0  0  0  0  0  0
    1.4451   12.5538   -4.3915 H   0  0  0  0  0  0  0  0  0  0  0  0
    2.6899   11.3234   -3.8208 H   0  0  0  0  0  0  0  0  0  0  0  0
    0.2839   10.3894   -4.3461 H   0  0  0  0  0  0  0  0  0  0  0  0
    0.0582   11.5357   -0.4808 H   0  0  0  0  0  0  0  0  0  0  0  0
    1.8303    9.0163   -0.4289 H   0  0  0  0  0  0  0  0  0  0  0  0
    1.3404   10.0381    0.9949 H   0  0  0  0  0  0  0  0  0  0  0  0
    0.0256    7.9482    0.8446 H   0  0  0  0  0  0  0  0  0  0  0  0
   -0.9865    9.4350    0.6667 H   0  0  0  0  0  0  0  0  0  0  0  0
   -1.7077    7.8153   -0.9489 H   0  0  0  0  0  0  0  0  0  0  0  0
    1.0920    7.7570   -1.5760 H   0  0  0  0  0  0  0  0  0  0  0  0
   -2.2738   10.2932   -0.6172 H   0  0  0  0  0  0  0  0  0  0  0  0
   -2.1447   11.2898   -2.1060 H   0  0  0  0  0  0  0  0  0  0  0  0
   -3.1500    9.8012   -2.1060 H   0  0  0  0  0  0  0  0  0  0  0  0
   -1.9453    7.8452   -3.3241 H   0  0  0  0  0  0  0  0  0  0  0  0
   -2.0277    9.4677   -4.0906 H   0  0  0  0  0  0  0  0  0  0  0  0
   -0.4824    8.5518   -4.0906 H   0  0  0  0  0  0  0  0  0  0  0  0
    3.7296   10.7080   -0.0996 H   0  0  0  0  0  0  0  0  0  0  0  0
    3.1621   10.0071   -1.6531 H   0  0  0  0  0  0  0  0  0  0  0  0
    4.1612   11.4999   -1.6531 H   0  0  0  0  0  0  0  0  0  0  0  0
    1.8353   12.0488    1.1137 H   0  0  0  0  0  0  0  0  0  0  0  0
    3.2701   12.9384    0.3485 H   0  0  0  0  0  0  0  0  0  0  0  0
    0.3639   13.7989    0.3784 H   0  0  0  0  0  0  0  0  0  0  0  0
    1.7798   14.5777    1.1877 H   0  0  0  0  0  0  0  0  0  0  0  0
    3.6239   15.2442    0.0623 H   0  0  0  0  0  0  0  0  0  0  0  0
    3.7988   14.3630   -1.4932 H   0  0  0  0  0  0  0  0  0  0  0  0
    3.4102   16.1168   -1.4932 H   0  0  0  0  0  0  0  0  0  0  0  0
  1  2  1  0
  2  3  1  0
  3  4  1  0
  4  5  1  0
  5  6  1  0
  6  7  1  0
  7  8  1  0
  7  9  1  0
  2 10  1  0
 10 11  1  0
 11 12  1  0
 12 13  1  0
 13 14  1  1
 13 15  1  0
 15 16  1  0
 16 17  1  0
 17 18  2  0
 18 19  1  0
 19 20  1  0
 20 21  1  0
 21 22  1  0
 22 23  1  0
 22 24  1  0
 24 25  1  0
 24 26  1  0
 19 27  1  0
 27 28  1  6
 27 29  1  0
 29 30  1  0
 30 31  1  0
 31 32  1  6
  7  5  1  0
 31 10  1  0
 31 13  1  0
 27 15  1  0
 24 18  1  0
  1 33  1  0
  1 34  1  0
  1 35  1  0
  2 36  1  1
  3 37  1  0
  3 38  1  0
  4 39  1  0
  4 40  1  0
  5 41  1  1
  8 42  1  0
  8 43  1  0
  8 44  1  0
  9 45  1  0
  9 46  1  0
  9 47  1  0
 10 48  1  1
 11 49  1  0
 11 50  1  0
 12 51  1  0
 12 52  1  0
 14 53  1  0
 14 54  1  0
 14 55  1  0
 15 56  1  6
 16 57  1  0
 16 58  1  0
 17 59  1  0
 19 60  1  1
 20 61  1  0
 20 62  1  0
 21 63  1  0
 21 64  1  0
 22 65  1  1
 23 66  1  0
 25 67  1  0
 25 68  1  0
 25 69  1  0
 26 70  1  0
 26 71  1  0
 26 72  1  0
 28 73  1  0
 28 74  1  0
 28 75  1  0
 29 76  1  0
 29 77  1  0
 30 78  1  0
 30 79  1  0
 32 80  1  0
 32 81  1  0
 32 82  1  0
M  END
>  <meeko>  (3) 
{"is_sidechain": [false], "intermolecular_energy": 2.731, "internal_energy": -0.839}

$$$$
EPH_relaxed_0001_pdb2pqr_Repair_352_r2_0001_out
     RDKit          3D

 82 86  0  0  0  0  0  0  0  0999 V2000
    2.2250   17.9700   -2.6450 C   0  0  0  0  0  0  0  0  0  0  0  0
    0.9700   17.4250   -1.9570 C   0  0  2  0  0  0  0  0  0  0  0  0
    1.0960   17.4450   -0.4200 C   0  0  0  0  0  0  0  0  0  0  0  0
    0.8690   18.8270    0.1980 C   0  0  0  0  0  0  0  0  0  0  0  0
   -0.5590   19.0240    0.6080 C   0  0  2  0  0  0  0  0  0  0  0  0
   -1.4970   18.1730   -0.0640 O   0  0  0  0  0  0  0  0  0  0  0  0
   -1.6250   19.5810   -0.3170 C   0  0  0  0  0  0  0  0  0  0  0  0
   -1.3080   19.9780   -1.7240 C   0  0  0  0  0  0  0  0  0  0  0  0
   -2.8490   20.1940    0.2900 C   0  0  0  0  0  0  0  0  0  0  0  0
    0.6890   16.0070   -2.4380 C   0  0  1  0  0  0  0  0  0  0  0  0
    1.0670   15.7950   -3.9280 C   0  0  0  0  0  0  0  0  0  0  0  0
    1.5880   14.3400   -4.0560 C   0  0  0  0  0  0  0  0  0  0  0  0
    1.1840   13.6640   -2.7240 C   0  0  1  0  0  0  0  0  0  0  0  0
   -0.3160   13.2770   -2.9100 C   0  0  0  0  0  0  0  0  0  0  0  0
    2.0470   12.4370   -2.2840 C   0  0  2  0  0  0  0  0  0  0  0  0
    2.0070   11.2330   -3.2420 C   0  0  0  0  0  0  0  0  0  0  0  0
    0.9390   10.2280   -2.9590 C   0  0  0  0  0  0  0  0  0  0  0  0
    0.2330   10.1380   -1.8170 C   0  0  0  0  0  0  0  0  0  0  0  0
    0.5490   11.0460   -0.6210 C   0  0  1  0  0  0  0  0  0  0  0  0
    0.6000   10.1960    0.6750 C   0  0  0  0  0  0  0  0  0  0  0  0
   -0.6680    9.3740    0.8860 C   0  0  0  0  0  0  0  0  0  0  0  0
   -0.9170    8.4420   -0.2970 C   0  0  2  0  0  0  0  0  0  0  0  0
    0.1200    7.4560   -0.3330 O   0  0  0  0  0  0  0  0  0  0  0  0
   -0.9780    9.1860   -1.6600 C   0  0  0  0  0  0  0  0  0  0  0  0
   -2.2740   10.0310   -1.7350 C   0  0  0  0  0  0  0  0  0  0  0  0
   -1.0910    8.1180   -2.7820 C   0  0  0  0  0  0  0  0  0  0  0  0
    1.8180   11.9890   -0.7830 C   0  0  1  0  0  0  0  0  0  0  0  0
    3.1060   11.2270   -0.3450 C   0  0  0  0  0  0  0  0  0  0  0  0
    1.6750   13.2160    0.1920 C   0  0  0  0  0  0  0  0  0  0  0  0
    0.9150   14.4450   -0.3440 C   0  0  0  0  0  0  0  0  0  0  0  0
    1.4360   14.8520   -1.7260 C   0  0  2  0  0  0  0  0  0  0  0  0
    2.9380   15.2680   -1.5670 C   0  0  0  0  0  0  0  0  0  0  0  0
    2.9528   18.2861   -1.8832 H   0  0  0  0  0  0  0  0  0  0  0  0
    2.6696   17.1839   -3.2730 H   0  0  0  0  0  0  0  0  0  0  0  0
    1.9540   18.8315   -3.2730 H   0  0  0  0  0  0  0  0  0  0  0  0
    0.1310   18.0828   -2.2281 H   0  0  0  0  0  0  0  0  0  0  0  0
    0.3522   16.7510   -0.0015 H   0  0  0  0  0  0  0  0  0  0  0  0
    2.1278   17.1502   -0.1781 H   0  0  0  0  0  0  0  0  0  0  0  0
    1.5118   18.9308    1.0846 H   0  0  0  0  0  0  0  0  0  0  0  0
    1.1157   19.5856   -0.5594 H   0  0  0  0  0  0  0  0  0  0  0  0
   -0.2537   19.2945    1.6296 H   0  0  0  0  0  0  0  0  0  0  0  0
   -0.6216   20.8376   -1.7167 H   0  0  0  0  0  0  0  0  0  0  0  0
   -0.8328   19.1338   -2.2450 H   0  0  0  0  0  0  0  0  0  0  0  0
   -2.2365   20.2546   -2.2450 H   0  0  0  0  0  0  0  0  0  0  0  0
   -2.7728   20.1558    1.3867 H   0  0  0  0  0  0  0  0  0  0  0  0
   -2.9345   21.2413   -0.0354 H   0  0  0  0  0  0  0  0  0  0  0  0
   -3.7388   19.6352   -0.0354 H   0  0  0  0  0  0  0  0  0  0  0  0
   -0.3876   15.9497   -2.2195 H   0  0  0  0  0  0  0  0  0  0  0  0
    0.1831   15.9382   -4.5669 H   0  0  0  0  0  0  0  0  0  0  0  0
    1.8324   16.5176   -4.2475 H   0  0  0  0  0  0  0  0  0  0  0  0
    1.1150   13.8315   -4.9090 H   0  0  0  0  0  0  0  0  0  0  0  0
    2.6728   14.2987   -4.2333 H   0  0  0  0  0  0  0  0  0  0  0  0
   -0.7882   13.1552   -1.9240 H   0  0  0  0  0  0  0  0  0  0  0  0
   -0.8330   14.0712   -3.4686 H   0  0  0  0  0  0  0  0  0  0  0  0
   -0.3843   12.3318   -3.4686 H   0  0  0  0  0  0  0  0  0  0  0  0
    3.0709   12.8342   -2.3467 H   0  0  0  0  0  0  0  0  0  0  0  0
    1.8526   11.6151   -4.2619 H   0  0  0  0  0  0  0  0  0  0  0  0
    2.9635   10.7063   -3.1091 H   0  0  0  0  0  0  0  0  0  0  0  0
    0.7102    9.4998   -3.7511 H   0  0  0  0  0  0  0  0  0  0  0  0
   -0.2781   11.7687   -0.5607 H   0  0  0  0  0  0  0  0  0  0  0  0
    1.4583    9.5107    0.6137 H   0  0  0  0  0  0  0  0  0  0  0  0
    0.6944   10.8882    1.5247 H   0  0  0  0  0  0  0  0  0  0  0  0
   -0.5595    8.7732    1.8010 H   0  0  0  0  0  0  0  0  0  0  0  0
   -1.5215   10.0620    0.9767 H   0  0  0  0  0  0  0  0  0  0  0  0
   -1.9027    7.9767   -0.1492 H   0  0  0  0  0  0  0  0  0  0  0  0
    0.8430    7.7690    0.2370 H   0  0  0  0  0  0  0  0  0  0  0  0
   -2.6228   10.2585   -0.7169 H   0  0  0  0  0  0  0  0  0  0  0  0
   -2.0692   10.9697   -2.2707 H   0  0  0  0  0  0  0  0  0  0  0  0
   -3.0503    9.4650   -2.2707 H   0  0  0  0  0  0  0  0  0  0  0  0
   -1.1965    7.1208   -2.3298 H   0  0  0  0  0  0  0  0  0  0  0  0
   -1.9714    8.3329   -3.4054 H   0  0  0  0  0  0  0  0  0  0  0  0
   -0.1851    8.1439   -3.4054 H   0  0  0  0  0  0  0  0  0  0  0  0
    3.1581   11.1962    0.7533 H   0  0  0  0  0  0  0  0  0  0  0  0
    3.0769   10.2007   -0.7397 H   0  0  0  0  0  0  0  0  0  0  0  0
    3.9915   11.7466   -0.7397 H   0  0  0  0  0  0  0  0  0  0  0  0
    1.1488   12.8660    1.0923 H   0  0  0  0  0  0  0  0  0  0  0  0
    2.7030   13.5667    0.3658 H   0  0  0  0  0  0  0  0  0  0  0  0
   -0.1550   14.2014   -0.4202 H   0  0  0  0  0  0  0  0  0  0  0  0
    1.0704   15.2838    0.3504 H   0  0  0  0  0  0  0  0  0  0  0  0
    3.1881   15.3373   -0.4981 H   0  0  0  0  0  0  0  0  0  0  0  0
    3.5800   14.5139   -2.0457 H   0  0  0  0  0  0  0  0  0  0  0  0
    3.1005   16.2450   -2.0457 H   0  0  0  0  0  0  0  0  0  0  0  0
  1  2  1  0
  2  3  1  0
  3  4  1  0
  4  5  1  0
  5  6  1  0
  6  7  1  0
  7  8  1  0
  7  9  1  0
  2 10  1  0
 10 11  1  0
 11 12  1  0
 12 13  1  0
 13 14  1  6
 13 15  1  0
 15 16  1  0
 16 17  1  0
 17 18  2  0
 18 19  1  0
 19 20  1  0
 20 21  1  0
 21 22  1  0
 22 23  1  0
 22 24  1  0
 24 25  1  0
 24 26  1  0
 19 27  1  0
 27 28  1  1
 27 29  1  0
 29 30  1  0
 30 31  1  0
 31 32  1  1
  7  5  1  0
 31 10  1  0
 31 13  1  0
 27 15  1  0
 24 18  1  0
  1 33  1  0
  1 34  1  0
  1 35  1  0
  2 36  1  1
  3 37  1  0
  3 38  1  0
  4 39  1  0
  4 40  1  0
  5 41  1  1
  8 42  1  0
  8 43  1  0
  8 44  1  0
  9 45  1  0
  9 46  1  0
  9 47  1  0
 10 48  1  6
 11 49  1  0
 11 50  1  0
 12 51  1  0
 12 52  1  0
 14 53  1  0
 14 54  1  0
 14 55  1  0
 15 56  1  1
 16 57  1  0
 16 58  1  0
 17 59  1  0
 19 60  1  1
 20 61  1  0
 20 62  1  0
 21 63  1  0
 21 64  1  0
 22 65  1  1
 23 66  1  0
 25 67  1  0
 25 68  1  0
 25 69  1  0
 26 70  1  0
 26 71  1  0
 26 72  1  0
 28 73  1  0
 28 74  1  0
 28 75  1  0
 29 76  1  0
 29 77  1  0
 30 78  1  0
 30 79  1  0
 32 80  1  0
 32 81  1  0
 32 82  1  0
M  END
>  <meeko>  (4) 
{"is_sidechain": [false], "intermolecular_energy": 2.731, "internal_energy": -0.839}

$$$$
EPH_relaxed_0001_pdb2pqr_Repair_352_r2_0001_out
     RDKit          3D

 82 86  0  0  0  0  0  0  0  0999 V2000
   -5.1130    8.2370   -0.3970 C   0  0  0  0  0  0  0  0  0  0  0  0
   -5.3960    7.3160   -1.5870 C   0  0  2  0  0  0  0  0  0  0  0  0
   -4.3750    7.5090   -2.7260 C   0  0  0  0  0  0  0  0  0  0  0  0
   -2.9190    7.3530   -2.2790 C   0  0  0  0  0  0  0  0  0  0  0  0
   -2.0920    8.5430   -2.6600 C   0  0  2  0  0  0  0  0  0  0  0  0
   -0.6970    8.2690   -2.8440 O   0  0  0  0  0  0  0  0  0  0  0  0
   -1.0320    9.1490   -1.7590 C   0  0  0  0  0  0  0  0  0  0  0  0
   -0.7430    8.5820   -0.4040 C   0  0  0  0  0  0  0  0  0  0  0  0
   -0.6250   10.5710   -1.9880 C   0  0  0  0  0  0  0  0  0  0  0  0
   -6.8080    7.5590   -2.1070 C   0  0  1  0  0  0  0  0  0  0  0  0
   -7.0620    6.8870   -3.4830 C   0  0  0  0  0  0  0  0  0  0  0  0
   -8.5410    6.4220   -3.4880 C   0  0  0  0  0  0  0  0  0  0  0  0
   -9.1750    7.1270   -2.2670 C   0  0  1  0  0  0  0  0  0  0  0  0
   -9.4970    8.5730   -2.7600 C   0  0  0  0  0  0  0  0  0  0  0  0
  -10.4330    6.4360   -1.6470 C   0  0  2  0  0  0  0  0  0  0  0  0
  -11.6490    6.3330   -2.5830 C   0  0  0  0  0  0  0  0  0  0  0  0
  -12.6000    7.4830   -2.5240 C   0  0  0  0  0  0  0  0  0  0  0  0
  -12.6390    8.4160   -1.5550 C   0  0  0  0  0  0  0  0  0  0  0  0
  -11.7260    8.3140   -0.3260 C   0  0  1  0  0  0  0  0  0  0  0  0
  -12.5560    8.5770    0.9580 C   0  0  0  0  0  0  0  0  0  0  0  0
  -13.3150    9.8990    0.9030 C   0  0  0  0  0  0  0  0  0  0  0  0
  -14.2550    9.9390   -0.2990 C   0  0  2  0  0  0  0  0  0  0  0  0
  -15.2870    8.9670   -0.1100 O   0  0  0  0  0  0  0  0  0  0  0  0
  -13.5320    9.6770   -1.6500 C   0  0  0  0  0  0  0  0  0  0  0  0
  -12.6310   10.8870   -2.0010 C   0  0  0  0  0  0  0  0  0  0  0  0
  -14.6120    9.6040   -2.7630 C   0  0  0  0  0  0  0  0  0  0  0  0
  -10.8450    6.9950   -0.2240 C   0  0  1  0  0  0  0  0  0  0  0  0
  -11.6570    5.8660    0.4800 C   0  0  0  0  0  0  0  0  0  0  0  0
   -9.5960    7.2810    0.6910 C   0  0  0  0  0  0  0  0  0  0  0  0
   -8.3430    7.8520   -0.0010 C   0  0  0  0  0  0  0  0  0  0  0  0
   -7.9840    7.0340   -1.2460 C   0  0  2  0  0  0  0  0  0  0  0  0
   -7.6340    5.5800   -0.7780 C   0  0  0  0  0  0  0  0  0  0  0  0
   -5.2820    7.6871    0.5406 H   0  0  0  0  0  0  0  0  0  0  0  0
   -4.0683    8.5790   -0.4383 H   0  0  0  0  0  0  0  0  0  0  0  0
   -5.7854    9.1066   -0.4383 H   0  0  0  0  0  0  0  0  0  0  0  0
   -5.3031    6.2788   -1.2326 H   0  0  0  0  0  0  0  0  0  0  0  0
   -4.5806    6.7623   -3.5071 H   0  0  0  0  0  0  0  0  0  0  0  0
   -4.4910    8.5402   -3.0910 H   0  0  0  0  0  0  0  0  0  0  0  0
   -2.8924    7.2356   -1.1856 H   0  0  0  0  0  0  0  0  0  0  0  0
   -2.4991    6.4687   -2.7806 H   0  0  0  0  0  0  0  0  0  0  0  0
   -2.9389    8.9862   -3.2043 H   0  0  0  0  0  0  0  0  0  0  0  0
   -1.0985    9.2795    0.3688 H   0  0  0  0  0  0  0  0  0  0  0  0
   -1.2593    7.6171   -0.2926 H   0  0  0  0  0  0  0  0  0  0  0  0
    0.3411    8.4328   -0.2926 H   0  0  0  0  0  0  0  0  0  0  0  0
   -0.4816   11.0719   -1.0192 H   0  0  0  0  0  0  0  0  0  0  0  0
    0.3163   10.5959   -2.5565 H   0  0  0  0  0  0  0  0  0  0  0  0
   -1.4106   11.0902   -2.5565 H   0  0  0  0  0  0  0  0  0  0  0  0
   -6.8123    8.6589   -2.1194 H   0  0  0  0  0  0  0  0  0  0  0  0
   -6.8893    7.6090   -4.2947 H   0  0  0  0  0  0  0  0  0  0  0  0
   -6.3806    6.0377   -3.6393 H   0  0  0  0  0  0  0  0  0  0  0  0
   -9.0419    6.7300   -4.4177 H   0  0  0  0  0  0  0  0  0  0  0  0
   -8.6345    5.3274   -3.4329 H   0  0  0  0  0  0  0  0  0  0  0  0
   -9.6438    9.2322   -1.8917 H   0  0  0  0  0  0  0  0  0  0  0  0
   -8.6604    8.9480   -3.3678 H   0  0  0  0  0  0  0  0  0  0  0  0
  -10.4137    8.5575   -3.3678 H   0  0  0  0  0  0  0  0  0  0  0  0
  -10.0839    5.4038   -1.4961 H   0  0  0  0  0  0  0  0  0  0  0  0
  -11.2773    6.2522   -3.6151 H   0  0  0  0  0  0  0  0  0  0  0  0
  -12.2164    5.4521   -2.2482 H   0  0  0  0  0  0  0  0  0  0  0  0
  -13.3302    7.5752   -3.3415 H   0  0  0  0  0  0  0  0  0  0  0  0
  -10.9649    9.0990   -0.4461 H   0  0  0  0  0  0  0  0  0  0  0  0
  -13.2809    7.7591    1.0831 H   0  0  0  0  0  0  0  0  0  0  0  0
  -11.8549    8.6293    1.8040 H   0  0  0  0  0  0  0  0  0  0  0  0
  -13.9042   10.0144    1.8247 H   0  0  0  0  0  0  0  0  0  0  0  0
  -12.5870   10.7180    0.8067 H   0  0  0  0  0  0  0  0  0  0  0  0
  -14.6725   10.9550   -0.3577 H   0  0  0  0  0  0  0  0  0  0  0  0
  -15.4140    8.8550    0.8480 H   0  0  0  0  0  0  0  0  0  0  0  0
  -12.2773   11.3619   -1.0740 H   0  0  0  0  0  0  0  0  0  0  0  0
  -11.7675   10.5428   -2.5891 H   0  0  0  0  0  0  0  0  0  0  0  0
  -13.2083   11.6156   -2.5891 H   0  0  0  0  0  0  0  0  0  0  0  0
  -15.6088    9.5366   -2.3028 H   0  0  0  0  0  0  0  0  0  0  0  0
  -14.5567   10.5079   -3.3874 H   0  0  0  0  0  0  0  0  0  0  0  0
  -14.4356    8.7157   -3.3874 H   0  0  0  0  0  0  0  0  0  0  0  0
  -11.5745    5.9807    1.5709 H   0  0  0  0  0  0  0  0  0  0  0  0
  -12.7139    5.9347    0.1830 H   0  0  0  0  0  0  0  0  0  0  0  0
  -11.2556    4.8859    0.1830 H   0  0  0  0  0  0  0  0  0  0  0  0
   -9.9068    8.0006    1.4627 H   0  0  0  0  0  0  0  0  0  0  0  0
   -9.2892    6.2968    1.0746 H   0  0  0  0  0  0  0  0  0  0  0  0
   -8.5388    8.8928   -0.2983 H   0  0  0  0  0  0  0  0  0  0  0  0
   -7.5004    7.8054    0.7046 H   0  0  0  0  0  0  0  0  0  0  0  0
   -7.6246    5.5409    0.3213 H   0  0  0  0  0  0  0  0  0  0  0  0
   -8.3891    4.8790   -1.1634 H   0  0  0  0  0  0  0  0  0  0  0  0
   -6.6427    5.2994   -1.1634 H   0  0  0  0  0  0  0  0  0  0  0  0
  1  2  1  0
  2  3  1  0
  3  4  1  0
  4  5  1  0
  5  6  1  0
  6  7  1  0
  7  8  1  0
  7  9  1  0
  2 10  1  0
 10 11  1  0
 11 12  1  0
 12 13  1  0
 13 14  1  6
 13 15  1  0
 15 16  1  0
 16 17  1  0
 17 18  2  0
 18 19  1  0
 19 20  1  0
 20 21  1  0
 21 22  1  0
 22 23  1  0
 22 24  1  0
 24 25  1  0
 24 26  1  0
 19 27  1  0
 27 28  1  1
 27 29  1  0
 29 30  1  0
 30 31  1  0
 31 32  1  1
  7  5  1  0
 31 10  1  0
 31 13  1  0
 27 15  1  0
 24 18  1  0
  1 33  1  0
  1 34  1  0
  1 35  1  0
  2 36  1  1
  3 37  1  0
  3 38  1  0
  4 39  1  0
  4 40  1  0
  5 41  1  6
  8 42  1  0
  8 43  1  0
  8 44  1  0
  9 45  1  0
  9 46  1  0
  9 47  1  0
 10 48  1  6
 11 49  1  0
 11 50  1  0
 12 51  1  0
 12 52  1  0
 14 53  1  0
 14 54  1  0
 14 55  1  0
 15 56  1  1
 16 57  1  0
 16 58  1  0
 17 59  1  0
 19 60  1  6
 20 61  1  0
 20 62  1  0
 21 63  1  0
 21 64  1  0
 22 65  1  6
 23 66  1  0
 25 67  1  0
 25 68  1  0
 25 69  1  0
 26 70  1  0
 26 71  1  0
 26 72  1  0
 28 73  1  0
 28 74  1  0
 28 75  1  0
 29 76  1  0
 29 77  1  0
 30 78  1  0
 30 79  1  0
 32 80  1  0
 32 81  1  0
 32 82  1  0
M  END
>  <meeko>  (5) 
{"is_sidechain": [false], "intermolecular_energy": 2.731, "internal_energy": -0.839}

$$$$
EPH_relaxed_0001_pdb2pqr_Repair_352_r2_0001_out
     RDKit          3D

 82 86  0  0  0  0  0  0  0  0999 V2000
    0.1190   10.3330   -3.5740 C   0  0  0  0  0  0  0  0  0  0  0  0
   -0.1700   10.1230   -2.0850 C   0  0  2  0  0  0  0  0  0  0  0  0
   -1.6370    9.7260   -1.8280 C   0  0  0  0  0  0  0  0  0  0  0  0
   -1.8170    8.2600   -1.4220 C   0  0  0  0  0  0  0  0  0  0  0  0
   -2.5080    7.4700   -2.4910 C   0  0  2  0  0  0  0  0  0  0  0  0
   -3.4730    8.2080   -3.2530 O   0  0  0  0  0  0  0  0  0  0  0  0
   -3.9860    7.1280   -2.4560 C   0  0  0  0  0  0  0  0  0  0  0  0
   -4.8620    7.5690   -1.3250 C   0  0  0  0  0  0  0  0  0  0  0  0
   -4.4710    5.9620   -3.2600 C   0  0  0  0  0  0  0  0  0  0  0  0
    0.1720   11.3870   -1.3050 C   0  0  1  0  0  0  0  0  0  0  0  0
    1.2720   11.1510   -0.2370 C   0  0  0  0  0  0  0  0  0  0  0  0
    2.1200   12.4480   -0.1740 C   0  0  0  0  0  0  0  0  0  0  0  0
    1.2900   13.4940   -0.9540 C   0  0  1  0  0  0  0  0  0  0  0  0
    0.2180   13.9960    0.0630 C   0  0  0  0  0  0  0  0  0  0  0  0
    2.0910   14.6820   -1.5820 C   0  0  2  0  0  0  0  0  0  0  0  0
    2.8170   15.5860   -0.5710 C   0  0  0  0  0  0  0  0  0  0  0  0
    2.0260   16.7500   -0.0730 C   0  0  0  0  0  0  0  0  0  0  0  0
    0.8950   17.2220   -0.6290 C   0  0  0  0  0  0  0  0  0  0  0  0
    0.3540   16.6310   -1.9370 C   0  0  1  0  0  0  0  0  0  0  0  0
   -0.0370   17.7800   -2.9030 C   0  0  0  0  0  0  0  0  0  0  0  0
   -1.0040   18.7740   -2.2680 C   0  0  0  0  0  0  0  0  0  0  0  0
   -0.4070   19.3840   -1.0030 C   0  0  2  0  0  0  0  0  0  0  0  0
    0.7150   20.1940   -1.3670 O   0  0  0  0  0  0  0  0  0  0  0  0
    0.0340   18.3210    0.0420 C   0  0  0  0  0  0  0  0  0  0  0  0
   -1.2170   17.6480    0.6590 C   0  0  0  0  0  0  0  0  0  0  0  0
    0.7470   19.0610    1.2050 C   0  0  0  0  0  0  0  0  0  0  0  0
    1.2690   15.5330   -2.6330 C   0  0  1  0  0  0  0  0  0  0  0  0
    2.3150   16.2240   -3.5610 C   0  0  0  0  0  0  0  0  0  0  0  0
    0.3750   14.6330   -3.5640 C   0  0  0  0  0  0  0  0  0  0  0  0
   -0.2930   13.4070   -2.9120 C   0  0  0  0  0  0  0  0  0  0  0  0
    0.7250   12.5910   -2.1090 C   0  0  2  0  0  0  0  0  0  0  0  0
    1.8040   12.0540   -3.1100 C   0  0  0  0  0  0  0  0  0  0  0  0
    1.0040   10.9761   -3.6886 H   0  0  0  0  0  0  0  0  0  0  0  0
    0.3083    9.3603   -4.0515 H   0  0  0  0  0  0  0  0  0  0  0  0
   -0.7477   10.8135   -4.0515 H   0  0  0  0  0  0  0  0  0  0  0  0
    0.4620    9.2913   -1.7402 H   0  0  0  0  0  0  0  0  0  0  0  0
   -2.0321   10.3607   -1.0211 H   0  0  0  0  0  0  0  0  0  0  0  0
   -2.1781    9.8655   -2.7755 H   0  0  0  0  0  0  0  0  0  0  0  0
   -0.8273    7.8177   -1.2352 H   0  0  0  0  0  0  0  0  0  0  0  0
   -2.4399    8.2291   -0.5159 H   0  0  0  0  0  0  0  0  0  0  0  0
   -1.6111    6.8523   -2.6463 H   0  0  0  0  0  0  0  0  0  0  0  0
   -4.3767    7.3247   -0.3685 H   0  0  0  0  0  0  0  0  0  0  0  0
   -5.0226    8.6554   -1.3877 H   0  0  0  0  0  0  0  0  0  0  0  0
   -5.8303    7.0510   -1.3877 H   0  0  0  0  0  0  0  0  0  0  0  0
   -4.8037    5.1622   -2.5821 H   0  0  0  0  0  0  0  0  0  0  0  0
   -5.3121    6.2785   -3.8943 H   0  0  0  0  0  0  0  0  0  0  0  0
   -3.6536    5.5886   -3.8943 H   0  0  0  0  0  0  0  0  0  0  0  0
   -0.8221   11.6287   -0.9009 H   0  0  0  0  0  0  0  0  0  0  0  0
    0.8125   10.9509    0.7422 H   0  0  0  0  0  0  0  0  0  0  0  0
    1.8960   10.2834   -0.4977 H   0  0  0  0  0  0  0  0  0  0  0  0
    2.2655   12.7667    0.8687 H   0  0  0  0  0  0  0  0  0  0  0  0
    3.1250   12.3108   -0.5997 H   0  0  0  0  0  0  0  0  0  0  0  0
    0.5782   13.8273    1.0886 H   0  0  0  0  0  0  0  0  0  0  0  0
    0.0410   15.0706   -0.0914 H   0  0  0  0  0  0  0  0  0  0  0  0
   -0.7208   13.4439   -0.0914 H   0  0  0  0  0  0  0  0  0  0  0  0
    2.8838   14.1634   -2.1410 H   0  0  0  0  0  0  0  0  0  0  0  0
    3.0972   14.9697    0.2960 H   0  0  0  0  0  0  0  0  0  0  0  0
    3.6787   16.0107   -1.1068 H   0  0  0  0  0  0  0  0  0  0  0  0
    2.3991   17.2655    0.8243 H   0  0  0  0  0  0  0  0  0  0  0  0
   -0.5415   16.0545   -1.6618 H   0  0  0  0  0  0  0  0  0  0  0  0
    0.8759   18.3169   -3.2003 H   0  0  0  0  0  0  0  0  0  0  0  0
   -0.5423   17.3299   -3.7702 H   0  0  0  0  0  0  0  0  0  0  0  0
   -1.2189   19.5773   -2.9881 H   0  0  0  0  0  0  0  0  0  0  0  0
   -1.9280   18.2415   -1.9985 H   0  0  0  0  0  0  0  0  0  0  0  0
   -1.1939   19.9858   -0.5249 H   0  0  0  0  0  0  0  0  0  0  0  0
    0.4540   21.1250   -1.2580 H   0  0  0  0  0  0  0  0  0  0  0  0
   -1.1493   17.6844    1.7563 H   0  0  0  0  0  0  0  0  0  0  0  0
   -2.1206   18.1817    0.3295 H   0  0  0  0  0  0  0  0  0  0  0  0
   -1.2696   16.5998    0.3295 H   0  0  0  0  0  0  0  0  0  0  0  0
    0.3762   18.6762    2.1665 H   0  0  0  0  0  0  0  0  0  0  0  0
    1.8319   18.8925    1.1364 H   0  0  0  0  0  0  0  0  0  0  0  0
    0.5383   20.1388    1.1364 H   0  0  0  0  0  0  0  0  0  0  0  0
    3.0757   16.7266   -2.9456 H   0  0  0  0  0  0  0  0  0  0  0  0
    2.7985   15.4670   -4.1959 H   0  0  0  0  0  0  0  0  0  0  0  0
    1.8084   16.9658   -4.1959 H   0  0  0  0  0  0  0  0  0  0  0  0
   -0.4239   15.2686   -3.9737 H   0  0  0  0  0  0  0  0  0  0  0  0
    1.0656   14.2196   -4.3138 H   0  0  0  0  0  0  0  0  0  0  0  0
   -1.0925   13.7486   -2.2381 H   0  0  0  0  0  0  0  0  0  0  0  0
   -0.7063   12.7684   -3.7066 H   0  0  0  0  0  0  0  0  0  0  0  0
    2.6497   11.6331   -2.5465 H   0  0  0  0  0  0  0  0  0  0  0  0
    1.3597   11.2719   -3.7432 H   0  0  0  0  0  0  0  0  0  0  0  0
    2.1601   12.8800   -3.7432 H   0  0  0  0  0  0  0  0  0  0  0  0
  1  2  1  0
  2  3  1  0
  3  4  1  0
  4  5  1  0
  5  6  1  0
  6  7  1  0
  7  8  1  0
  7  9  1  0
  2 10  1  0
 10 11  1  0
 11 12  1  0
 12 13  1  0
 13 14  1  1
 13 15  1  0
 15 16  1  0
 16 17  1  0
 17 18  2  0
 18 19  1  0
 19 20  1  0
 20 21  1  0
 21 22  1  0
 22 23  1  0
 22 24  1  0
 24 25  1  0
 24 26  1  0
 19 27  1  0
 27 28  1  6
 27 29  1  0
 29 30  1  0
 30 31  1  0
 31 32  1  6
  7  5  1  0
 31 10  1  0
 31 13  1  0
 27 15  1  0
 24 18  1  0
  1 33  1  0
  1 34  1  0
  1 35  1  0
  2 36  1  1
  3 37  1  0
  3 38  1  0
  4 39  1  0
  4 40  1  0
  5 41  1  6
  8 42  1  0
  8 43  1  0
  8 44  1  0
  9 45  1  0
  9 46  1  0
  9 47  1  0
 10 48  1  1
 11 49  1  0
 11 50  1  0
 12 51  1  0
 12 52  1  0
 14 53  1  0
 14 54  1  0
 14 55  1  0
 15 56  1  6
 16 57  1  0
 16 58  1  0
 17 59  1  0
 19 60  1  1
 20 61  1  0
 20 62  1  0
 21 63  1  0
 21 64  1  0
 22 65  1  1
 23 66  1  0
 25 67  1  0
 25 68  1  0
 25 69  1  0
 26 70  1  0
 26 71  1  0
 26 72  1  0
 28 73  1  0
 28 74  1  0
 28 75  1  0
 29 76  1  0
 29 77  1  0
 30 78  1  0
 30 79  1  0
 32 80  1  0
 32 81  1  0
 32 82  1  0
M  END
>  <meeko>  (6) 
{"is_sidechain": [false], "intermolecular_energy": 2.731, "internal_energy": -0.839}

$$$$
EPH_relaxed_0001_pdb2pqr_Repair_352_r2_0001_out
     RDKit          3D

 82 86  0  0  0  0  0  0  0  0999 V2000
    0.3770    9.2310   -3.0100 C   0  0  0  0  0  0  0  0  0  0  0  0
    1.3080   10.2630   -3.6530 C   0  0  2  0  0  0  0  0  0  0  0  0
    2.7730   10.0820   -3.2060 C   0  0  0  0  0  0  0  0  0  0  0  0
    3.7890   10.7340   -4.1470 C   0  0  0  0  0  0  0  0  0  0  0  0
    5.1390   10.8550   -3.5080 C   0  0  2  0  0  0  0  0  0  0  0  0
    5.8380   12.0690   -3.8100 O   0  0  0  0  0  0  0  0  0  0  0  0
    6.4380   10.8550   -4.2910 C   0  0  0  0  0  0  0  0  0  0  0  0
    6.4500   10.7320   -5.7830 C   0  0  0  0  0  0  0  0  0  0  0  0
    7.7020   10.4850   -3.5810 C   0  0  0  0  0  0  0  0  0  0  0  0
    0.8320   11.6720   -3.3180 C   0  0  1  0  0  0  0  0  0  0  0  0
   -0.7090   11.7590   -3.1540 C   0  0  0  0  0  0  0  0  0  0  0  0
   -0.9820   12.8080   -2.0450 C   0  0  0  0  0  0  0  0  0  0  0  0
    0.3740   13.5240   -1.8430 C   0  0  1  0  0  0  0  0  0  0  0  0
    0.4470   14.5750   -2.9950 C   0  0  0  0  0  0  0  0  0  0  0  0
    0.6060   14.1830   -0.4450 C   0  0  2  0  0  0  0  0  0  0  0  0
   -0.3730   15.3140   -0.0850 C   0  0  0  0  0  0  0  0  0  0  0  0
    0.0590   16.6850   -0.4900 C   0  0  0  0  0  0  0  0  0  0  0  0
    1.3050   17.0350   -0.8590 C   0  0  0  0  0  0  0  0  0  0  0  0
    2.4580   16.0240   -0.7990 C   0  0  1  0  0  0  0  0  0  0  0  0
    3.6910   16.6840   -0.1290 C   0  0  0  0  0  0  0  0  0  0  0  0
    4.0950   17.9900   -0.8060 C   0  0  0  0  0  0  0  0  0  0  0  0
    2.9420   18.9900   -0.7940 C   0  0  2  0  0  0  0  0  0  0  0  0
    2.6840   19.3800    0.5590 O   0  0  0  0  0  0  0  0  0  0  0  0
    1.6410   18.4330   -1.4350 C   0  0  0  0  0  0  0  0  0  0  0  0
    1.8320   18.2950   -2.9650 C   0  0  0  0  0  0  0  0  0  0  0  0
    0.5190   19.4860   -1.2310 C   0  0  0  0  0  0  0  0  0  0  0  0
    2.1060   14.6080   -0.1690 C   0  0  1  0  0  0  0  0  0  0  0  0
    2.2770   14.6570    1.3800 C   0  0  0  0  0  0  0  0  0  0  0  0
    3.1360   13.5410   -0.6960 C   0  0  0  0  0  0  0  0  0  0  0  0
    2.7920   12.8380   -2.0230 C   0  0  0  0  0  0  0  0  0  0  0  0
    1.3550   12.3070   -2.0050 C   0  0  2  0  0  0  0  0  0  0  0  0
    1.2570   11.2300   -0.8710 C   0  0  0  0  0  0  0  0  0  0  0  0
    0.4458    9.3072   -1.9148 H   0  0  0  0  0  0  0  0  0  0  0  0
   -0.6586    9.4239   -3.3267 H   0  0  0  0  0  0  0  0  0  0  0  0
    0.6751    8.2206   -3.3267 H   0  0  0  0  0  0  0  0  0  0  0  0
    1.2732   10.1073   -4.7414 H   0  0  0  0  0  0  0  0  0  0  0  0
    2.8888   10.5280   -2.2072 H   0  0  0  0  0  0  0  0  0  0  0  0
    2.9789    9.0014   -3.2099 H   0  0  0  0  0  0  0  0  0  0  0  0
    3.8784   10.1202   -5.0554 H   0  0  0  0  0  0  0  0  0  0  0  0
    3.4322   11.7461   -4.3883 H   0  0  0  0  0  0  0  0  0  0  0  0
    4.8036   10.2752   -2.6354 H   0  0  0  0  0  0  0  0  0  0  0  0
    6.5533    9.6732   -6.0628 H   0  0  0  0  0  0  0  0  0  0  0  0
    5.5089   11.1290   -6.1912 H   0  0  0  0  0  0  0  0  0  0  0  0
    7.2967   11.3034   -6.1912 H   0  0  0  0  0  0  0  0  0  0  0  0
    7.5394   10.5326   -2.4941 H   0  0  0  0  0  0  0  0  0  0  0  0
    7.9956    9.4632   -3.8635 H   0  0  0  0  0  0  0  0  0  0  0  0
    8.5002   11.1872   -3.8635 H   0  0  0  0  0  0  0  0  0  0  0  0
    1.2376   12.2139   -4.1851 H   0  0  0  0  0  0  0  0  0  0  0  0
   -1.1732   12.0773   -4.0991 H   0  0  0  0  0  0  0  0  0  0  0  0
   -1.1336   10.7805   -2.8854 H   0  0  0  0  0  0  0  0  0  0  0  0
   -1.7540   13.5222   -2.3675 H   0  0  0  0  0  0  0  0  0  0  0  0
   -1.3529   12.3475   -1.1174 H   0  0  0  0  0  0  0  0  0  0  0  0
    0.5172   15.5853   -2.5657 H   0  0  0  0  0  0  0  0  0  0  0  0
    1.3336   14.3779   -3.6155 H   0  0  0  0  0  0  0  0  0  0  0  0
   -0.4584   14.5024   -3.6155 H   0  0  0  0  0  0  0  0  0  0  0  0
    0.3753   13.3577    0.2447 H   0  0  0  0  0  0  0  0  0  0  0  0
   -1.3337   15.1013   -0.5768 H   0  0  0  0  0  0  0  0  0  0  0  0
   -0.4332   15.3261    1.0133 H   0  0  0  0  0  0  0  0  0  0  0  0
   -0.7059   17.4756   -0.4864 H   0  0  0  0  0  0  0  0  0  0  0  0
    2.6930   15.7682   -1.8427 H   0  0  0  0  0  0  0  0  0  0  0  0
    3.4509   16.8922    0.9241 H   0  0  0  0  0  0  0  0  0  0  0  0
    4.5353   15.9849   -0.2209 H   0  0  0  0  0  0  0  0  0  0  0  0
    4.9526   18.4229   -0.2702 H   0  0  0  0  0  0  0  0  0  0  0  0
    4.3629   17.7755   -1.8511 H   0  0  0  0  0  0  0  0  0  0  0  0
    3.2471   19.8526   -1.4046 H   0  0  0  0  0  0  0  0  0  0  0  0
    3.3950   19.9830    0.8320 H   0  0  0  0  0  0  0  0  0  0  0  0
    2.7081   17.6620   -3.1695 H   0  0  0  0  0  0  0  0  0  0  0  0
    0.9358   17.8345   -3.4063 H   0  0  0  0  0  0  0  0  0  0  0  0
    1.9878   19.2905   -3.4063 H   0  0  0  0  0  0  0  0  0  0  0  0
    0.3533   19.6415   -0.1547 H   0  0  0  0  0  0  0  0  0  0  0  0
    0.8189   20.4363   -1.6969 H   0  0  0  0  0  0  0  0  0  0  0  0
   -0.4104   19.1265   -1.6969 H   0  0  0  0  0  0  0  0  0  0  0  0
    1.3268   14.3847    1.8626 H   0  0  0  0  0  0  0  0  0  0  0  0
    3.0598   13.9470    1.6851 H   0  0  0  0  0  0  0  0  0  0  0  0
    2.5650   15.6738    1.6851 H   0  0  0  0  0  0  0  0  0  0  0  0
    4.1023   14.0493   -0.8297 H   0  0  0  0  0  0  0  0  0  0  0  0
    3.1351   12.7426    0.0607 H   0  0  0  0  0  0  0  0  0  0  0  0
    2.9001   13.5560   -2.8493 H   0  0  0  0  0  0  0  0  0  0  0  0
    3.4783   11.9891   -2.1587 H   0  0  0  0  0  0  0  0  0  0  0  0
    1.3021   11.7254    0.1101 H   0  0  0  0  0  0  0  0  0  0  0  0
    0.3056   10.6857   -0.9635 H   0  0  0  0  0  0  0  0  0  0  0  0
    2.0945   10.5229   -0.9635 H   0  0  0  0  0  0  0  0  0  0  0  0
  1  2  1  0
  2  3  1  0
  3  4  1  0
  4  5  1  0
  5  6  1  0
  6  7  1  0
  7  8  1  0
  7  9  1  0
  2 10  1  0
 10 11  1  0
 11 12  1  0
 12 13  1  0
 13 14  1  6
 13 15  1  0
 15 16  1  0
 16 17  1  0
 17 18  2  0
 18 19  1  0
 19 20  1  0
 20 21  1  0
 21 22  1  0
 22 23  1  0
 22 24  1  0
 24 25  1  0
 24 26  1  0
 19 27  1  0
 27 28  1  1
 27 29  1  0
 29 30  1  0
 30 31  1  0
 31 32  1  1
  7  5  1  0
 31 10  1  0
 31 13  1  0
 27 15  1  0
 24 18  1  0
  1 33  1  0
  1 34  1  0
  1 35  1  0
  2 36  1  6
  3 37  1  0
  3 38  1  0
  4 39  1  0
  4 40  1  0
  5 41  1  1
  8 42  1  0
  8 43  1  0
  8 44  1  0
  9 45  1  0
  9 46  1  0
  9 47  1  0
 10 48  1  6
 11 49  1  0
 11 50  1  0
 12 51  1  0
 12 52  1  0
 14 53  1  0
 14 54  1  0
 14 55  1  0
 15 56  1  1
 16 57  1  0
 16 58  1  0
 17 59  1  0
 19 60  1  6
 20 61  1  0
 20 62  1  0
 21 63  1  0
 21 64  1  0
 22 65  1  6
 23 66  1  0
 25 67  1  0
 25 68  1  0
 25 69  1  0
 26 70  1  0
 26 71  1  0
 26 72  1  0
 28 73  1  0
 28 74  1  0
 28 75  1  0
 29 76  1  0
 29 77  1  0
 30 78  1  0
 30 79  1  0
 32 80  1  0
 32 81  1  0
 32 82  1  0
M  END
>  <meeko>  (7) 
{"is_sidechain": [false], "intermolecular_energy": 2.731, "internal_energy": -0.839}

$$$$
EPH_relaxed_0001_pdb2pqr_Repair_352_r2_0001_out
     RDKit          3D

 82 86  0  0  0  0  0  0  0  0999 V2000
    0.2080   17.7800   -2.5520 C   0  0  0  0  0  0  0  0  0  0  0  0
   -0.0450   16.8820   -1.3380 C   0  0  2  0  0  0  0  0  0  0  0  0
   -0.0950   17.6840   -0.0220 C   0  0  0  0  0  0  0  0  0  0  0  0
    0.5180   19.0830   -0.1310 C   0  0  0  0  0  0  0  0  0  0  0  0
    1.6490   19.2690    0.8350 C   0  0  2  0  0  0  0  0  0  0  0  0
    2.6570   20.1940    0.4050 O   0  0  0  0  0  0  0  0  0  0  0  0
    3.0730   18.8270    0.5500 C   0  0  0  0  0  0  0  0  0  0  0  0
    3.4410   18.1630   -0.7390 C   0  0  0  0  0  0  0  0  0  0  0  0
    3.9950   18.5970    1.7070 C   0  0  0  0  0  0  0  0  0  0  0  0
    1.0320   15.8070   -1.2520 C   0  0  1  0  0  0  0  0  0  0  0  0
    1.2400   15.2830    0.1940 C   0  0  0  0  0  0  0  0  0  0  0  0
    1.5810   13.7750    0.0780 C   0  0  0  0  0  0  0  0  0  0  0  0
    1.8840   13.5580   -1.4230 C   0  0  1  0  0  0  0  0  0  0  0  0
    3.3590   14.0340   -1.6070 C   0  0  0  0  0  0  0  0  0  0  0  0
    1.6730   12.1070   -1.9670 C   0  0  2  0  0  0  0  0  0  0  0  0
    2.5760   11.0350   -1.3320 C   0  0  0  0  0  0  0  0  0  0  0  0
    3.8780   10.8050   -2.0260 C   0  0  0  0  0  0  0  0  0  0  0  0
    4.1860   11.2230   -3.2680 C   0  0  0  0  0  0  0  0  0  0  0  0
    3.1410   11.9210   -4.1470 C   0  0  1  0  0  0  0  0  0  0  0  0
    3.1690   11.3080   -5.5720 C   0  0  0  0  0  0  0  0  0  0  0  0
    4.5620   11.3330   -6.1920 C   0  0  0  0  0  0  0  0  0  0  0  0
    5.5620   10.5790   -5.3180 C   0  0  2  0  0  0  0  0  0  0  0  0
    5.2190    9.1900   -5.3200 O   0  0  0  0  0  0  0  0  0  0  0  0
    5.6140   11.1030   -3.8560 C   0  0  0  0  0  0  0  0  0  0  0  0
    6.2710   12.5050   -3.8280 C   0  0  0  0  0  0  0  0  0  0  0  0
    6.5540   10.1670   -3.0470 C   0  0  0  0  0  0  0  0  0  0  0  0
    1.6720   12.0010   -3.5450 C   0  0  1  0  0  0  0  0  0  0  0  0
    0.8790   10.7060   -3.9040 C   0  0  0  0  0  0  0  0  0  0  0  0
    0.9020   13.1950   -4.2250 C   0  0  0  0  0  0  0  0  0  0  0  0
    1.0540   14.5810   -3.5700 C   0  0  0  0  0  0  0  0  0  0  0  0
    0.8040   14.5060   -2.0610 C   0  0  2  0  0  0  0  0  0  0  0  0
   -0.6790   14.0500   -1.8440 C   0  0  0  0  0  0  0  0  0  0  0  0
    0.4916   18.7866   -2.2108 H   0  0  0  0  0  0  0  0  0  0  0  0
    1.0216   17.3557   -3.1587 H   0  0  0  0  0  0  0  0  0  0  0  0
   -0.7074   17.8429   -3.1587 H   0  0  0  0  0  0  0  0  0  0  0  0
   -1.0297   16.4113   -1.4752 H   0  0  0  0  0  0  0  0  0  0  0  0
   -1.1471   17.7884    0.2815 H   0  0  0  0  0  0  0  0  0  0  0  0
    0.5012   17.1280    0.7165 H   0  0  0  0  0  0  0  0  0  0  0  0
    0.8953   19.2283   -1.1540 H   0  0  0  0  0  0  0  0  0  0  0  0
   -0.2630   19.8195    0.1091 H   0  0  0  0  0  0  0  0  0  0  0  0
    0.9793   19.0954    1.6902 H   0  0  0  0  0  0  0  0  0  0  0  0
    3.9644   17.2186   -0.5286 H   0  0  0  0  0  0  0  0  0  0  0  0
    2.5290   17.9557   -1.3181 H   0  0  0  0  0  0  0  0  0  0  0  0
    4.1002   18.8264   -1.3181 H   0  0  0  0  0  0  0  0  0  0  0  0
    3.4432   18.7347    2.6486 H   0  0  0  0  0  0  0  0  0  0  0  0
    4.3922   17.5722    1.6612 H   0  0  0  0  0  0  0  0  0  0  0  0
    4.8270   19.3151    1.6612 H   0  0  0  0  0  0  0  0  0  0  0  0
    1.8830   16.3653   -1.6693 H   0  0  0  0  0  0  0  0  0  0  0  0
    2.0679   15.8226    0.6771 H   0  0  0  0  0  0  0  0  0  0  0  0
    0.3380   15.4384    0.8042 H   0  0  0  0  0  0  0  0  0  0  0  0
    2.4599   13.5273    0.6914 H   0  0  0  0  0  0  0  0  0  0  0  0
    0.7621   13.1334    0.4353 H   0  0  0  0  0  0  0  0  0  0  0  0
    3.8219   14.1834   -0.6204 H   0  0  0  0  0  0  0  0  0  0  0  0
    3.9232   13.2723   -2.1652 H   0  0  0  0  0  0  0  0  0  0  0  0
    3.3715   14.9818   -2.1652 H   0  0  0  0  0  0  0  0  0  0  0  0
    0.6517   11.8746   -1.6310 H   0  0  0  0  0  0  0  0  0  0  0  0
    2.7916   11.3414   -0.2978 H   0  0  0  0  0  0  0  0  0  0  0  0
    2.0211   10.0880   -1.4044 H   0  0  0  0  0  0  0  0  0  0  0  0
    4.6503   10.2471   -1.4762 H   0  0  0  0  0  0  0  0  0  0  0  0
    3.4382   12.9792   -4.1912 H   0  0  0  0  0  0  0  0  0  0  0  0
    2.8278   10.2639   -5.5135 H   0  0  0  0  0  0  0  0  0  0  0  0
    2.5089   11.9145   -6.2094 H   0  0  0  0  0  0  0  0  0  0  0  0
    4.5229   10.8600   -7.1844 H   0  0  0  0  0  0  0  0  0  0  0  0
    4.8896   12.3796   -6.2774 H   0  0  0  0  0  0  0  0  0  0  0  0
    6.5627   10.7416   -5.7447 H   0  0  0  0  0  0  0  0  0  0  0  0
    4.3080    9.1110   -4.9890 H   0  0  0  0  0  0  0  0  0  0  0  0
    6.4186   12.8200   -2.7844 H   0  0  0  0  0  0  0  0  0  0  0  0
    7.2438   12.4643   -4.3398 H   0  0  0  0  0  0  0  0  0  0  0  0
    5.6173   13.2266   -4.3398 H   0  0  0  0  0  0  0  0  0  0  0  0
    6.3932   10.3271   -1.9707 H   0  0  0  0  0  0  0  0  0  0  0  0
    6.3334    9.1192   -3.2988 H   0  0  0  0  0  0  0  0  0  0  0  0
    7.6009   10.3920   -3.2988 H   0  0  0  0  0  0  0  0  0  0  0  0
    0.5681   10.1982   -2.9791 H   0  0  0  0  0  0  0  0  0  0  0  0
   -0.0110   10.9725   -4.4930 H   0  0  0  0  0  0  0  0  0  0  0  0
    1.5209   10.0344   -4.4930 H   0  0  0  0  0  0  0  0  0  0  0  0
    1.2611   13.2754   -5.2616 H   0  0  0  0  0  0  0  0  0  0  0  0
   -0.1644   12.9444   -4.1253 H   0  0  0  0  0  0  0  0  0  0  0  0
    2.0740   14.9527   -3.7475 H   0  0  0  0  0  0  0  0  0  0  0  0
    0.3127   15.2615   -4.0144 H   0  0  0  0  0  0  0  0  0  0  0  0
   -0.8888   13.9855   -0.7661 H   0  0  0  0  0  0  0  0  0  0  0  0
   -1.3587   14.7806   -2.3068 H   0  0  0  0  0  0  0  0  0  0  0  0
   -0.8308   13.0637   -2.3068 H   0  0  0  0  0  0  0  0  0  0  0  0
  1  2  1  0
  2  3  1  0
  3  4  1  0
  4  5  1  0
  5  6  1  0
  6  7  1  0
  7  8  1  0
  7  9  1  0
  2 10  1  0
 10 11  1  0
 11 12  1  0
 12 13  1  0
 13 14  1  1
 13 15  1  0
 15 16  1  0
 16 17  1  0
 17 18  2  0
 18 19  1  0
 19 20  1  0
 20 21  1  0
 21 22  1  0
 22 23  1  0
 22 24  1  0
 24 25  1  0
 24 26  1  0
 19 27  1  0
 27 28  1  1
 27 29  1  0
 29 30  1  0
 30 31  1  0
 31 32  1  6
  7  5  1  0
 31 10  1  0
 31 13  1  0
 27 15  1  0
 24 18  1  0
  1 33  1  0
  1 34  1  0
  1 35  1  0
  2 36  1  6
  3 37  1  0
  3 38  1  0
  4 39  1  0
  4 40  1  0
  5 41  1  1
  8 42  1  0
  8 43  1  0
  8 44  1  0
  9 45  1  0
  9 46  1  0
  9 47  1  0
 10 48  1  6
 11 49  1  0
 11 50  1  0
 12 51  1  0
 12 52  1  0
 14 53  1  0
 14 54  1  0
 14 55  1  0
 15 56  1  1
 16 57  1  0
 16 58  1  0
 17 59  1  0
 19 60  1  6
 20 61  1  0
 20 62  1  0
 21 63  1  0
 21 64  1  0
 22 65  1  6
 23 66  1  0
 25 67  1  0
 25 68  1  0
 25 69  1  0
 26 70  1  0
 26 71  1  0
 26 72  1  0
 28 73  1  0
 28 74  1  0
 28 75  1  0
 29 76  1  0
 29 77  1  0
 30 78  1  0
 30 79  1  0
 32 80  1  0
 32 81  1  0
 32 82  1  0
M  END
>  <meeko>  (8) 
{"is_sidechain": [false], "intermolecular_energy": 2.731, "internal_energy": -0.839}

$$$$
EPH_relaxed_0001_pdb2pqr_Repair_352_r2_0001_out
     RDKit          3D

 82 86  0  0  0  0  0  0  0  0999 V2000
    3.9210   17.9350    0.3940 C   0  0  0  0  0  0  0  0  0  0  0  0
    2.6630   18.4320   -0.3230 C   0  0  2  0  0  0  0  0  0  0  0  0
    1.9610   19.5640    0.4530 C   0  0  0  0  0  0  0  0  0  0  0  0
    0.6230   19.1490    1.0710 C   0  0  0  0  0  0  0  0  0  0  0  0
   -0.5210   19.9230    0.4880 C   0  0  2  0  0  0  0  0  0  0  0  0
   -1.5920   20.1880    1.4020 O   0  0  0  0  0  0  0  0  0  0  0  0
   -1.9070   19.3410    0.2850 C   0  0  0  0  0  0  0  0  0  0  0  0
   -2.2230   17.9280    0.6630 C   0  0  0  0  0  0  0  0  0  0  0  0
   -2.8120   19.9810   -0.7210 C   0  0  0  0  0  0  0  0  0  0  0  0
    1.6970   17.2730   -0.5410 C   0  0  1  0  0  0  0  0  0  0  0  0
    0.4480   17.6840   -1.3670 C   0  0  0  0  0  0  0  0  0  0  0  0
    0.0660   16.4590   -2.2380 C   0  0  0  0  0  0  0  0  0  0  0  0
    0.8890   15.2900   -1.6490 C   0  0  1  0  0  0  0  0  0  0  0  0
    0.0770   14.8160   -0.4020 C   0  0  0  0  0  0  0  0  0  0  0  0
    1.1980   14.1040   -2.6200 C   0  0  2  0  0  0  0  0  0  0  0  0
   -0.0360   13.3520   -3.1460 C   0  0  0  0  0  0  0  0  0  0  0  0
   -0.4750   12.1890   -2.3180 C   0  0  0  0  0  0  0  0  0  0  0  0
    0.2570   11.5910   -1.3600 C   0  0  0  0  0  0  0  0  0  0  0  0
    1.7060   12.0180   -1.0940 C   0  0  1  0  0  0  0  0  0  0  0  0
    2.6040   10.7580   -0.9780 C   0  0  0  0  0  0  0  0  0  0  0  0
    2.0880    9.7660    0.0600 C   0  0  0  0  0  0  0  0  0  0  0  0
    0.6660    9.3210   -0.2710 C   0  0  2  0  0  0  0  0  0  0  0  0
    0.6920    8.5570   -1.4810 O   0  0  0  0  0  0  0  0  0  0  0  0
   -0.3280   10.5060   -0.4220 C   0  0  0  0  0  0  0  0  0  0  0  0
   -0.5860   11.1490    0.9630 C   0  0  0  0  0  0  0  0  0  0  0  0
   -1.6900    9.9300   -0.8940 C   0  0  0  0  0  0  0  0  0  0  0  0
    2.3030   13.1030   -2.0900 C   0  0  1  0  0  0  0  0  0  0  0  0
    2.9060   12.4000   -3.3440 C   0  0  0  0  0  0  0  0  0  0  0  0
    3.4960   13.8490   -1.3830 C   0  0  0  0  0  0  0  0  0  0  0  0
    3.1390   15.0830   -0.5330 C   0  0  0  0  0  0  0  0  0  0  0  0
    2.2290   16.0390   -1.3110 C   0  0  2  0  0  0  0  0  0  0  0  0
    3.0270   16.5490   -2.5590 C   0  0  0  0  0  0  0  0  0  0  0  0
    3.7706   17.9944    1.4820 H   0  0  0  0  0  0  0  0  0  0  0  0
    4.1182   16.8914    0.1076 H   0  0  0  0  0  0  0  0  0  0  0  0
    4.7782   18.5620    0.1076 H   0  0  0  0  0  0  0  0  0  0  0  0
    2.9762   18.8428   -1.2941 H   0  0  0  0  0  0  0  0  0  0  0  0
    2.6286   19.8967    1.2615 H   0  0  0  0  0  0  0  0  0  0  0  0
    1.7464   20.3645   -0.2703 H   0  0  0  0  0  0  0  0  0  0  0  0
    0.4608   18.0773    0.8833 H   0  0  0  0  0  0  0  0  0  0  0  0
    0.6641   19.3584    2.1501 H   0  0  0  0  0  0  0  0  0  0  0  0
    0.1583   20.4637   -0.1874 H   0  0  0  0  0  0  0  0  0  0  0  0
   -2.2433   17.8374    1.7591 H   0  0  0  0  0  0  0  0  0  0  0  0
   -3.2055   17.6500    0.2539 H   0  0  0  0  0  0  0  0  0  0  0  0
   -1.4525   17.2579    0.2539 H   0  0  0  0  0  0  0  0  0  0  0  0
   -3.6027   20.5402   -0.1995 H   0  0  0  0  0  0  0  0  0  0  0  0
   -2.2306   20.6699   -1.3514 H   0  0  0  0  0  0  0  0  0  0  0  0
   -3.2677   19.2032   -1.3514 H   0  0  0  0  0  0  0  0  0  0  0  0
    1.4929   17.0034    0.5057 H   0  0  0  0  0  0  0  0  0  0  0  0
   -0.3824   17.9444   -0.6942 H   0  0  0  0  0  0  0  0  0  0  0  0
    0.6597   18.5635   -1.9928 H   0  0  0  0  0  0  0  0  0  0  0  0
   -1.0117   16.2511   -2.1644 H   0  0  0  0  0  0  0  0  0  0  0  0
    0.2785   16.6230   -3.3047 H   0  0  0  0  0  0  0  0  0  0  0  0
    0.6015   15.1222    0.5151 H   0  0  0  0  0  0  0  0  0  0  0  0
   -0.9240   15.2716   -0.4214 H   0  0  0  0  0  0  0  0  0  0  0  0
   -0.0184   13.7203   -0.4214 H   0  0  0  0  0  0  0  0  0  0  0  0
    1.6266   14.6197   -3.4920 H   0  0  0  0  0  0  0  0  0  0  0  0
   -0.8715   14.0655   -3.2000 H   0  0  0  0  0  0  0  0  0  0  0  0
    0.2534   12.9380   -4.1232 H   0  0  0  0  0  0  0  0  0  0  0  0
   -1.4814   11.7874   -2.5072 H   0  0  0  0  0  0  0  0  0  0  0  0
    1.6931   12.5570   -0.1352 H   0  0  0  0  0  0  0  0  0  0  0  0
    2.6384   10.2580   -1.9572 H   0  0  0  0  0  0  0  0  0  0  0  0
    3.6030   11.0881   -0.6570 H   0  0  0  0  0  0  0  0  0  0  0  0
    2.7467    8.8851    0.0749 H   0  0  0  0  0  0  0  0  0  0  0  0
    2.0820   10.2582    1.0437 H   0  0  0  0  0  0  0  0  0  0  0  0
    0.3050    8.7156    0.5735 H   0  0  0  0  0  0  0  0  0  0  0  0
    1.4480    8.8660   -2.0080 H   0  0  0  0  0  0  0  0  0  0  0  0
   -0.3017   10.4404    1.7549 H   0  0  0  0  0  0  0  0  0  0  0  0
    0.0138   12.0661    1.0589 H   0  0  0  0  0  0  0  0  0  0  0  0
   -1.6533   11.3972    1.0589 H   0  0  0  0  0  0  0  0  0  0  0  0
   -2.3022    9.6711   -0.0175 H   0  0  0  0  0  0  0  0  0  0  0  0
   -2.2163   10.6826   -1.4995 H   0  0  0  0  0  0  0  0  0  0  0  0
   -1.5167    9.0281   -1.4995 H   0  0  0  0  0  0  0  0  0  0  0  0
    3.5910   11.6015   -3.0228 H   0  0  0  0  0  0  0  0  0  0  0  0
    2.0945   11.9665   -3.9470 H   0  0  0  0  0  0  0  0  0  0  0  0
    3.4580   13.1360   -3.9470 H   0  0  0  0  0  0  0  0  0  0  0  0
    3.9971   13.1248   -0.7238 H   0  0  0  0  0  0  0  0  0  0  0  0
    4.1193   14.2355   -2.2028 H   0  0  0  0  0  0  0  0  0  0  0  0
    2.6196   14.7539    0.3791 H   0  0  0  0  0  0  0  0  0  0  0  0
    4.0679   15.6133   -0.2764 H   0  0  0  0  0  0  0  0  0  0  0  0
    3.9099   17.1133   -2.2242 H   0  0  0  0  0  0  0  0  0  0  0  0
    3.3494   15.6891   -3.1646 H   0  0  0  0  0  0  0  0  0  0  0  0
    2.3820   17.2027   -3.1646 H   0  0  0  0  0  0  0  0  0  0  0  0
  1  2  1  0
  2  3  1  0
  3  4  1  0
  4  5  1  0
  5  6  1  0
  6  7  1  0
  7  8  1  0
  7  9  1  0
  2 10  1  0
 10 11  1  0
 11 12  1  0
 12 13  1  0
 13 14  1  1
 13 15  1  0
 15 16  1  0
 16 17  1  0
 17 18  2  0
 18 19  1  0
 19 20  1  0
 20 21  1  0
 21 22  1  0
 22 23  1  0
 22 24  1  0
 24 25  1  0
 24 26  1  0
 19 27  1  0
 27 28  1  6
 27 29  1  0
 29 30  1  0
 30 31  1  0
 31 32  1  6
  7  5  1  0
 31 10  1  0
 31 13  1  0
 27 15  1  0
 24 18  1  0
  1 33  1  0
  1 34  1  0
  1 35  1  0
  2 36  1  6
  3 37  1  0
  3 38  1  0
  4 39  1  0
  4 40  1  0
  5 41  1  6
  8 42  1  0
  8 43  1  0
  8 44  1  0
  9 45  1  0
  9 46  1  0
  9 47  1  0
 10 48  1  1
 11 49  1  0
 11 50  1  0
 12 51  1  0
 12 52  1  0
 14 53  1  0
 14 54  1  0
 14 55  1  0
 15 56  1  6
 16 57  1  0
 16 58  1  0
 17 59  1  0
 19 60  1  1
 20 61  1  0
 20 62  1  0
 21 63  1  0
 21 64  1  0
 22 65  1  1
 23 66  1  0
 25 67  1  0
 25 68  1  0
 25 69  1  0
 26 70  1  0
 26 71  1  0
 26 72  1  0
 28 73  1  0
 28 74  1  0
 28 75  1  0
 29 76  1  0
 29 77  1  0
 30 78  1  0
 30 79  1  0
 32 80  1  0
 32 81  1  0
 32 82  1  0
M  END
>  <meeko>  (9) 
{"is_sidechain": [false], "intermolecular_energy": 2.731, "internal_energy": -0.839}

$$$$
EPH_relaxed_0001_pdb2pqr_Repair_352_r2_0001_out
     RDKit          3D

 82 86  0  0  0  0  0  0  0  0999 V2000
   -1.1970   16.3990   -5.8950 C   0  0  0  0  0  0  0  0  0  0  0  0
    0.0060   15.6800   -6.5120 C   0  0  2  0  0  0  0  0  0  0  0  0
   -0.2450   15.2830   -7.9800 C   0  0  0  0  0  0  0  0  0  0  0  0
    0.3030   16.2920   -8.9930 C   0  0  0  0  0  0  0  0  0  0  0  0
    1.7320   16.0050   -9.3440 C   0  0  2  0  0  0  0  0  0  0  0  0
    2.2100   16.6850  -10.5110 O   0  0  0  0  0  0  0  0  0  0  0  0
    2.1520   15.2520  -10.5920 C   0  0  0  0  0  0  0  0  0  0  0  0
    1.1420   14.7380  -11.5700 C   0  0  0  0  0  0  0  0  0  0  0  0
    3.4970   14.5940  -10.6130 C   0  0  0  0  0  0  0  0  0  0  0  0
    0.3500   14.4440   -5.6890 C   0  0  1  0  0  0  0  0  0  0  0  0
    1.4290   13.5570   -6.3670 C   0  0  0  0  0  0  0  0  0  0  0  0
    2.2920   12.9540   -5.2290 C   0  0  0  0  0  0  0  0  0  0  0  0
    1.4900   13.2400   -3.9380 C   0  0  1  0  0  0  0  0  0  0  0  0
    0.4060   12.1180   -3.8810 C   0  0  0  0  0  0  0  0  0  0  0  0
    2.3160   13.3120   -2.6120 C   0  0  2  0  0  0  0  0  0  0  0  0
    3.0360   12.0100   -2.2210 C   0  0  0  0  0  0  0  0  0  0  0  0
    2.2520   11.0830   -1.3520 C   0  0  0  0  0  0  0  0  0  0  0  0
    1.1370   11.4060   -0.6710 C   0  0  0  0  0  0  0  0  0  0  0  0
    0.6110   12.8470   -0.6590 C   0  0  1  0  0  0  0  0  0  0  0  0
    0.2520   13.2550    0.7940 C   0  0  0  0  0  0  0  0  0  0  0  0
   -0.7140   12.2760    1.4550 C   0  0  0  0  0  0  0  0  0  0  0  0
   -0.1310   10.8650    1.4760 C   0  0  2  0  0  0  0  0  0  0  0  0
    1.0080   10.8500    2.3430 O   0  0  0  0  0  0  0  0  0  0  0  0
    0.2780   10.3500    0.0680 C   0  0  0  0  0  0  0  0  0  0  0  0
   -0.9920   10.0800   -0.7760 C   0  0  0  0  0  0  0  0  0  0  0  0
    0.9800    8.9770    0.2470 C   0  0  0  0  0  0  0  0  0  0  0  0
    1.5240   13.9250   -1.3870 C   0  0  1  0  0  0  0  0  0  0  0  0
    2.5940   14.4730   -0.3950 C   0  0  0  0  0  0  0  0  0  0  0  0
    0.6340   15.1550   -1.8050 C   0  0  0  0  0  0  0  0  0  0  0  0
   -0.0600   15.0760   -3.1780 C   0  0  0  0  0  0  0  0  0  0  0  0
    0.9320   14.6720   -4.2720 C   0  0  2  0  0  0  0  0  0  0  0  0
    2.0220   15.7940   -4.3670 C   0  0  0  0  0  0  0  0  0  0  0  0
   -1.1264   16.3568   -4.7981 H   0  0  0  0  0  0  0  0  0  0  0  0
   -1.2036   17.4493   -6.2218 H   0  0  0  0  0  0  0  0  0  0  0  0
   -2.1252   15.9074   -6.2218 H   0  0  0  0  0  0  0  0  0  0  0  0
    0.8530   16.3818   -6.5008 H   0  0  0  0  0  0  0  0  0  0  0  0
    0.2354   14.3107   -8.1638 H   0  0  0  0  0  0  0  0  0  0  0  0
   -1.3353   15.2459   -8.1210 H   0  0  0  0  0  0  0  0  0  0  0  0
   -0.3053   16.2445   -9.9082 H   0  0  0  0  0  0  0  0  0  0  0  0
    0.2557   17.2931   -8.5397 H   0  0  0  0  0  0  0  0  0  0  0  0
    1.9912   15.8767   -8.2827 H   0  0  0  0  0  0  0  0  0  0  0  0
    0.2907   14.3048  -11.0244 H   0  0  0  0  0  0  0  0  0  0  0  0
    0.7892   15.5662  -12.2021 H   0  0  0  0  0  0  0  0  0  0  0  0
    1.6039   13.9653  -12.2021 H   0  0  0  0  0  0  0  0  0  0  0  0
    3.8394   14.4265   -9.5812 H   0  0  0  0  0  0  0  0  0  0  0  0
    3.4251   13.6293  -11.1366 H   0  0  0  0  0  0  0  0  0  0  0  0
    4.2145   15.2429  -11.1366 H   0  0  0  0  0  0  0  0  0  0  0  0
   -0.6480   13.9872   -5.6162 H   0  0  0  0  0  0  0  0  0  0  0  0
    0.9499   12.7534   -6.9455 H   0  0  0  0  0  0  0  0  0  0  0  0
    2.0463   14.1468   -7.0606 H   0  0  0  0  0  0  0  0  0  0  0  0
    2.4230   11.8714   -5.3730 H   0  0  0  0  0  0  0  0  0  0  0  0
    3.3024   13.3876   -5.1971 H   0  0  0  0  0  0  0  0  0  0  0  0
    0.1777   11.8817   -2.8312 H   0  0  0  0  0  0  0  0  0  0  0  0
   -0.5077   12.4649   -4.3858 H   0  0  0  0  0  0  0  0  0  0  0  0
    0.7842   11.2168   -4.3858 H   0  0  0  0  0  0  0  0  0  0  0  0
    3.1109   14.0280   -2.8679 H   0  0  0  0  0  0  0  0  0  0  0  0
    3.2929   11.4729   -3.1459 H   0  0  0  0  0  0  0  0  0  0  0  0
    3.9123   12.3132   -1.6292 H   0  0  0  0  0  0  0  0  0  0  0  0
    2.6163   10.0491   -1.2607 H   0  0  0  0  0  0  0  0  0  0  0  0
   -0.2960   12.8444   -1.2814 H   0  0  0  0  0  0  0  0  0  0  0  0
    1.1769   13.2932    1.3882 H   0  0  0  0  0  0  0  0  0  0  0  0
   -0.2434   14.2362    0.7525 H   0  0  0  0  0  0  0  0  0  0  0  0
   -0.9060   12.6017    2.4880 H   0  0  0  0  0  0  0  0  0  0  0  0
   -1.6495   12.2610    0.8765 H   0  0  0  0  0  0  0  0  0  0  0  0
   -0.9177   10.1884    1.8410 H   0  0  0  0  0  0  0  0  0  0  0  0
    1.4550   11.7090    2.2560 H   0  0  0  0  0  0  0  0  0  0  0  0
   -1.8456    9.8985   -0.1063 H   0  0  0  0  0  0  0  0  0  0  0  0
   -1.2030   10.9534   -1.4106 H   0  0  0  0  0  0  0  0  0  0  0  0
   -0.8295    9.1963   -1.4106 H   0  0  0  0  0  0  0  0  0  0  0  0
    1.0914    8.7592    1.3195 H   0  0  0  0  0  0  0  0  0  0  0  0
    0.3733    8.1906   -0.2258 H   0  0  0  0  0  0  0  0  0  0  0  0
    1.9727    9.0083   -0.2258 H   0  0  0  0  0  0  0  0  0  0  0  0
    2.2582   14.3010    0.6383 H   0  0  0  0  0  0  0  0  0  0  0  0
    3.5489   13.9530   -0.5616 H   0  0  0  0  0  0  0  0  0  0  0  0
    2.7301   15.5518   -0.5616 H   0  0  0  0  0  0  0  0  0  0  0  0
   -0.1498   15.2730   -1.0423 H   0  0  0  0  0  0  0  0  0  0  0  0
    1.3320   16.0015   -1.8838 H   0  0  0  0  0  0  0  0  0  0  0  0
   -0.8669   14.3299   -3.1308 H   0  0  0  0  0  0  0  0  0  0  0  0
   -0.4665   16.0684   -3.4227 H   0  0  0  0  0  0  0  0  0  0  0  0
    2.3208   16.1016   -3.3540 H   0  0  0  0  0  0  0  0  0  0  0  0
    2.8993   15.4081   -4.9068 H   0  0  0  0  0  0  0  0  0  0  0  0
    1.6109   16.6598   -4.9068 H   0  0  0  0  0  0  0  0  0  0  0  0
  1  2  1  0
  2  3  1  0
  3  4  1  0
  4  5  1  0
  5  6  1  0
  6  7  1  0
  7  8  1  0
  7  9  1  0
  2 10  1  0
 10 11  1  0
 11 12  1  0
 12 13  1  0
 13 14  1  1
 13 15  1  0
 15 16  1  0
 16 17  1  0
 17 18  2  0
 18 19  1  0
 19 20  1  0
 20 21  1  0
 21 22  1  0
 22 23  1  0
 22 24  1  0
 24 25  1  0
 24 26  1  0
 19 27  1  0
 27 28  1  1
 27 29  1  0
 29 30  1  0
 30 31  1  0
 31 32  1  6
  7  5  1  0
 31 10  1  0
 31 13  1  0
 27 15  1  0
 24 18  1  0
  1 33  1  0
  1 34  1  0
  1 35  1  0
  2 36  1  6
  3 37  1  0
  3 38  1  0
  4 39  1  0
  4 40  1  0
  5 41  1  1
  8 42  1  0
  8 43  1  0
  8 44  1  0
  9 45  1  0
  9 46  1  0
  9 47  1  0
 10 48  1  1
 11 49  1  0
 11 50  1  0
 12 51  1  0
 12 52  1  0
 14 53  1  0
 14 54  1  0
 14 55  1  0
 15 56  1  6
 16 57  1  0
 16 58  1  0
 17 59  1  0
 19 60  1  6
 20 61  1  0
 20 62  1  0
 21 63  1  0
 21 64  1  0
 22 65  1  1
 23 66  1  0
 25 67  1  0
 25 68  1  0
 25 69  1  0
 26 70  1  0
 26 71  1  0
 26 72  1  0
 28 73  1  0
 28 74  1  0
 28 75  1  0
 29 76  1  0
 29 77  1  0
 30 78  1  0
 30 79  1  0
 32 80  1  0
 32 81  1  0
 32 82  1  0
M  END
>  <meeko>  (10) 
{"is_sidechain": [false], "intermolecular_energy": 2.731, "internal_energy": -0.839}

$$$$
EPH_relaxed_0001_pdb2pqr_Repair_352_r2_0001_out
     RDKit          3D

 82 86  0  0  0  0  0  0  0  0999 V2000
    1.4690   19.2360   -2.2730 C   0  0  0  0  0  0  0  0  0  0  0  0
    1.8360   18.9270   -0.8190 C   0  0  2  0  0  0  0  0  0  0  0  0
    3.3400   19.1280   -0.5450 C   0  0  0  0  0  0  0  0  0  0  0  0
    3.8890   18.2290    0.5650 C   0  0  0  0  0  0  0  0  0  0  0  0
    3.7400   18.8610    1.9160 C   0  0  2  0  0  0  0  0  0  0  0  0
    4.2580   20.1940    2.0130 O   0  0  0  0  0  0  0  0  0  0  0  0
    4.9150   19.2000    2.8150 C   0  0  0  0  0  0  0  0  0  0  0  0
    6.3240   18.9160    2.3990 C   0  0  0  0  0  0  0  0  0  0  0  0
    4.6700   19.3520    4.2840 C   0  0  0  0  0  0  0  0  0  0  0  0
    1.4300   17.4990   -0.4730 C   0  0  1  0  0  0  0  0  0  0  0  0
    0.1110   17.4340    0.3420 C   0  0  0  0  0  0  0  0  0  0  0  0
   -0.6310   16.1500   -0.1100 C   0  0  0  0  0  0  0  0  0  0  0  0
    0.4230   15.3530   -0.9130 C   0  0  1  0  0  0  0  0  0  0  0  0
    1.2850   14.6260    0.1670 C   0  0  0  0  0  0  0  0  0  0  0  0
   -0.1310   14.3510   -1.9780 C   0  0  2  0  0  0  0  0  0  0  0  0
   -0.9890   13.2060   -1.4120 C   0  0  0  0  0  0  0  0  0  0  0  0
   -0.2390   11.9670   -1.0490 C   0  0  0  0  0  0  0  0  0  0  0  0
    1.0170   11.6730   -1.4320 C   0  0  0  0  0  0  0  0  0  0  0  0
    1.7820   12.5890   -2.3950 C   0  0  1  0  0  0  0  0  0  0  0  0
    2.4570   11.7330   -3.4990 C   0  0  0  0  0  0  0  0  0  0  0  0
    3.3360   10.6260   -2.9240 C   0  0  0  0  0  0  0  0  0  0  0  0
    2.5280    9.7020   -2.0170 C   0  0  2  0  0  0  0  0  0  0  0  0
    1.5750    8.9930   -2.8150 O   0  0  0  0  0  0  0  0  0  0  0  0
    1.7940   10.4550   -0.8730 C   0  0  0  0  0  0  0  0  0  0  0  0
    2.8280   10.9700    0.1590 C   0  0  0  0  0  0  0  0  0  0  0  0
    0.9040    9.4300   -0.1200 C   0  0  0  0  0  0  0  0  0  0  0  0
    0.9590   13.8120   -2.9900 C   0  0  1  0  0  0  0  0  0  0  0  0
    0.1930   13.3640   -4.2720 C   0  0  0  0  0  0  0  0  0  0  0  0
    1.9630   14.9360   -3.4430 C   0  0  0  0  0  0  0  0  0  0  0  0
    2.3810   15.9660   -2.3760 C   0  0  0  0  0  0  0  0  0  0  0  0
    1.1560   16.5320   -1.6510 C   0  0  2  0  0  0  0  0  0  0  0  0
    0.2810   17.2870   -2.7090 C   0  0  0  0  0  0  0  0  0  0  0  0
    0.6277   19.9443   -2.2962 H   0  0  0  0  0  0  0  0  0  0  0  0
    2.3363   19.6799   -2.7837 H   0  0  0  0  0  0  0  0  0  0  0  0
    1.1793   18.3058   -2.7837 H   0  0  0  0  0  0  0  0  0  0  0  0
    1.2865   19.6348   -0.1810 H   0  0  0  0  0  0  0  0  0  0  0  0
    3.8934   18.9134   -1.4711 H   0  0  0  0  0  0  0  0  0  0  0  0
    3.4694   20.1677   -0.2099 H   0  0  0  0  0  0  0  0  0  0  0  0
    3.3406   17.2755    0.5552 H   0  0  0  0  0  0  0  0  0  0  0  0
    4.9612   18.0695    0.3778 H   0  0  0  0  0  0  0  0  0  0  0  0
    2.8067   18.3081    2.0984 H   0  0  0  0  0  0  0  0  0  0  0  0
    6.9519   18.7894    3.2933 H   0  0  0  0  0  0  0  0  0  0  0  0
    6.3505   17.9945    1.7990 H   0  0  0  0  0  0  0  0  0  0  0  0
    6.7054   19.7553    1.7990 H   0  0  0  0  0  0  0  0  0  0  0  0
    5.4748   18.8527    4.8435 H   0  0  0  0  0  0  0  0  0  0  0  0
    4.6511   20.4207    4.5439 H   0  0  0  0  0  0  0  0  0  0  0  0
    3.7041   18.8943    4.5439 H   0  0  0  0  0  0  0  0  0  0  0  0
    2.3293   17.1793    0.0739 H   0  0  0  0  0  0  0  0  0  0  0  0
    0.3328   17.3844    1.4183 H   0  0  0  0  0  0  0  0  0  0  0  0
   -0.5053   18.3284    0.1681 H   0  0  0  0  0  0  0  0  0  0  0  0
   -0.9738   15.5725    0.7612 H   0  0  0  0  0  0  0  0  0  0  0  0
   -1.5278   16.3743   -0.7062 H   0  0  0  0  0  0  0  0  0  0  0  0
    0.9391   14.9178    1.1696 H   0  0  0  0  0  0  0  0  0  0  0  0
    1.1826   13.5375    0.0461 H   0  0  0  0  0  0  0  0  0  0  0  0
    2.3406   14.9106    0.0461 H   0  0  0  0  0  0  0  0  0  0  0  0
   -0.8204   14.9813   -2.5589 H   0  0  0  0  0  0  0  0  0  0  0  0
   -1.4942   13.5750   -0.5072 H   0  0  0  0  0  0  0  0  0  0  0  0
   -1.6816   12.9180   -2.2166 H   0  0  0  0  0  0  0  0  0  0  0  0
   -0.7570   11.2325   -0.4149 H   0  0  0  0  0  0  0  0  0  0  0  0
    2.5510   13.0911   -1.7895 H   0  0  0  0  0  0  0  0  0  0  0  0
    1.6725   11.2745   -4.1189 H   0  0  0  0  0  0  0  0  0  0  0  0
    3.1022   12.3989   -4.0908 H   0  0  0  0  0  0  0  0  0  0  0  0
    3.7604   10.0375   -3.7508 H   0  0  0  0  0  0  0  0  0  0  0  0
    4.1375   11.0882   -2.3291 H   0  0  0  0  0  0  0  0  0  0  0  0
    3.2352    9.0115   -1.5342 H   0  0  0  0  0  0  0  0  0  0  0  0
    1.1630    9.6320   -3.4200 H   0  0  0  0  0  0  0  0  0  0  0  0
    2.4543   10.7839    1.1767 H   0  0  0  0  0  0  0  0  0  0  0  0
    3.7824   10.4420    0.0166 H   0  0  0  0  0  0  0  0  0  0  0  0
    2.9816   12.0499    0.0166 H   0  0  0  0  0  0  0  0  0  0  0  0
    1.0236    9.5678    0.9648 H   0  0  0  0  0  0  0  0  0  0  0  0
   -0.1493    9.5868   -0.3956 H   0  0  0  0  0  0  0  0  0  0  0  0
    1.2070    8.4091   -0.3956 H   0  0  0  0  0  0  0  0  0  0  0  0
   -0.7232   12.8281   -3.9832 H   0  0  0  0  0  0  0  0  0  0  0  0
   -0.0725   14.2492   -4.8686 H   0  0  0  0  0  0  0  0  0  0  0  0
    0.8343   12.6986   -4.8686 H   0  0  0  0  0  0  0  0  0  0  0  0
    2.8767   14.4405   -3.8031 H   0  0  0  0  0  0  0  0  0  0  0  0
    1.4214   15.5152   -4.2053 H   0  0  0  0  0  0  0  0  0  0  0  0
    3.0393   15.4774   -1.6426 H   0  0  0  0  0  0  0  0  0  0  0  0
    2.9071   16.7935   -2.8743 H   0  0  0  0  0  0  0  0  0  0  0  0
   -0.4540   17.9212   -2.1916 H   0  0  0  0  0  0  0  0  0  0  0  0
    0.9281   17.9149   -3.3391 H   0  0  0  0  0  0  0  0  0  0  0  0
   -0.2454   16.5549   -3.3391 H   0  0  0  0  0  0  0  0  0  0  0  0
  1  2  1  0
  2  3  1  0
  3  4  1  0
  4  5  1  0
  5  6  1  0
  6  7  1  0
  7  8  1  0
  7  9  1  0
  2 10  1  0
 10 11  1  0
 11 12  1  0
 12 13  1  0
 13 14  1  1
 13 15  1  0
 15 16  1  0
 16 17  1  0
 17 18  2  0
 18 19  1  0
 19 20  1  0
 20 21  1  0
 21 22  1  0
 22 23  1  0
 22 24  1  0
 24 25  1  0
 24 26  1  0
 19 27  1  0
 27 28  1  6
 27 29  1  0
 29 30  1  0
 30 31  1  0
 31 32  1  6
  7  5  1  0
 31 10  1  0
 31 13  1  0
 27 15  1  0
 24 18  1  0
  1 33  1  0
  1 34  1  0
  1 35  1  0
  2 36  1  1
  3 37  1  0
  3 38  1  0
  4 39  1  0
  4 40  1  0
  5 41  1  1
  8 42  1  0
  8 43  1  0
  8 44  1  0
  9 45  1  0
  9 46  1  0
  9 47  1  0
 10 48  1  1
 11 49  1  0
 11 50  1  0
 12 51  1  0
 12 52  1  0
 14 53  1  0
 14 54  1  0
 14 55  1  0
 15 56  1  6
 16 57  1  0
 16 58  1  0
 17 59  1  0
 19 60  1  1
 20 61  1  0
 20 62  1  0
 21 63  1  0
 21 64  1  0
 22 65  1  1
 23 66  1  0
 25 67  1  0
 25 68  1  0
 25 69  1  0
 26 70  1  0
 26 71  1  0
 26 72  1  0
 28 73  1  0
 28 74  1  0
 28 75  1  0
 29 76  1  0
 29 77  1  0
 30 78  1  0
 30 79  1  0
 32 80  1  0
 32 81  1  0
 32 82  1  0
M  END
>  <meeko>  (11) 
{"is_sidechain": [false], "intermolecular_energy": 2.731, "internal_energy": -0.839}

$$$$
EPH_relaxed_0001_pdb2pqr_Repair_352_r2_0001_out
     RDKit          3D

 82 86  0  0  0  0  0  0  0  0999 V2000
    0.2230    9.3260   -2.3620 C   0  0  0  0  0  0  0  0  0  0  0  0
    1.2400   10.3690   -2.8310 C   0  0  2  0  0  0  0  0  0  0  0  0
    2.6600    9.7820   -2.9530 C   0  0  0  0  0  0  0  0  0  0  0  0
    3.5760   10.5740   -3.8910 C   0  0  0  0  0  0  0  0  0  0  0  0
    4.9610   10.7030   -3.3340 C   0  0  2  0  0  0  0  0  0  0  0  0
    5.6210   11.9360   -3.6500 O   0  0  0  0  0  0  0  0  0  0  0  0
    6.2090   10.7450   -4.1970 C   0  0  0  0  0  0  0  0  0  0  0  0
    6.1290   10.6570   -5.6890 C   0  0  0  0  0  0  0  0  0  0  0  0
    7.5210   10.3800   -3.5760 C   0  0  0  0  0  0  0  0  0  0  0  0
    1.2480   11.5550   -1.8730 C   0  0  1  0  0  0  0  0  0  0  0  0
    2.3120   11.4110   -0.7530 C   0  0  0  0  0  0  0  0  0  0  0  0
    2.8450   12.8370   -0.4560 C   0  0  0  0  0  0  0  0  0  0  0  0
    1.8470   13.7820   -1.1670 C   0  0  1  0  0  0  0  0  0  0  0  0
    0.6360   13.8950   -0.1890 C   0  0  0  0  0  0  0  0  0  0  0  0
    2.3960   15.1890   -1.5710 C   0  0  2  0  0  0  0  0  0  0  0  0
    2.8460   16.0750   -0.3960 C   0  0  0  0  0  0  0  0  0  0  0  0
    1.7890   16.9620    0.1740 C   0  0  0  0  0  0  0  0  0  0  0  0
    0.6140   17.2560   -0.4120 C   0  0  0  0  0  0  0  0  0  0  0  0
    0.2910   16.7520   -1.8250 C   0  0  1  0  0  0  0  0  0  0  0  0
   -0.2920   17.9160   -2.6690 C   0  0  0  0  0  0  0  0  0  0  0  0
   -1.4900   18.5810   -1.9990 C   0  0  0  0  0  0  0  0  0  0  0  0
   -1.1140   19.1210   -0.6210 C   0  0  2  0  0  0  0  0  0  0  0  0
   -0.1830   20.1940   -0.7850 O   0  0  0  0  0  0  0  0  0  0  0  0
   -0.5070   18.0390    0.3150 C   0  0  0  0  0  0  0  0  0  0  0  0
   -1.6080   17.0350    0.7350 C   0  0  0  0  0  0  0  0  0  0  0  0
   -0.0420   18.7430    1.6190 C   0  0  0  0  0  0  0  0  0  0  0  0
    1.4650   15.9850   -2.5720 C   0  0  1  0  0  0  0  0  0  0  0  0
    2.3800   17.0060   -3.3150 C   0  0  0  0  0  0  0  0  0  0  0  0
    0.8470   15.0540   -3.6820 C   0  0  0  0  0  0  0  0  0  0  0  0
    0.4340   13.6350   -3.2480 C   0  0  0  0  0  0  0  0  0  0  0  0
    1.5620   12.9500   -2.4700 C   0  0  2  0  0  0  0  0  0  0  0  0
    2.7870   12.8020   -3.4350 C   0  0  0  0  0  0  0  0  0  0  0  0
    0.2012    9.3037   -1.2624 H   0  0  0  0  0  0  0  0  0  0  0  0
   -0.7747    9.5893   -2.7432 H   0  0  0  0  0  0  0  0  0  0  0  0
    0.5114    8.3353   -2.7432 H   0  0  0  0  0  0  0  0  0  0  0  0
    0.9331   10.7022   -3.8334 H   0  0  0  0  0  0  0  0  0  0  0  0
    3.1167    9.7674   -1.9524 H   0  0  0  0  0  0  0  0  0  0  0  0
    2.5552    8.7744   -3.3817 H   0  0  0  0  0  0  0  0  0  0  0  0
    3.6282   10.0557   -4.8599 H   0  0  0  0  0  0  0  0  0  0  0  0
    3.1573   11.5846   -4.0068 H   0  0  0  0  0  0  0  0  0  0  0  0
    4.6903   10.0972   -2.4567 H   0  0  0  0  0  0  0  0  0  0  0  0
    5.4140    9.8705   -5.9721 H   0  0  0  0  0  0  0  0  0  0  0  0
    5.7925   11.6221   -6.0957 H   0  0  0  0  0  0  0  0  0  0  0  0
    7.1217   10.4138   -6.0957 H   0  0  0  0  0  0  0  0  0  0  0  0
    7.4279   10.4059   -2.4803 H   0  0  0  0  0  0  0  0  0  0  0  0
    7.8090    9.3676   -3.8957 H   0  0  0  0  0  0  0  0  0  0  0  0
    8.2904   11.0982   -3.8957 H   0  0  0  0  0  0  0  0  0  0  0  0
    0.2040   11.5201   -1.5281 H   0  0  0  0  0  0  0  0  0  0  0  0
    1.8549   10.9816    0.1507 H   0  0  0  0  0  0  0  0  0  0  0  0
    3.1271   10.7420   -1.0663 H   0  0  0  0  0  0  0  0  0  0  0  0
    2.8577   13.0292    0.6270 H   0  0  0  0  0  0  0  0  0  0  0  0
    3.8773   12.9786   -0.8085 H   0  0  0  0  0  0  0  0  0  0  0  0
    0.9986   13.8612    0.8490 H   0  0  0  0  0  0  0  0  0  0  0  0
    0.1114   14.8460   -0.3633 H   0  0  0  0  0  0  0  0  0  0  0  0
   -0.0555   13.0575   -0.3633 H   0  0  0  0  0  0  0  0  0  0  0  0
    3.3133   14.9353   -2.1225 H   0  0  0  0  0  0  0  0  0  0  0  0
    3.2071   15.4164    0.4077 H   0  0  0  0  0  0  0  0  0  0  0  0
    3.6210   16.7441   -0.7982 H   0  0  0  0  0  0  0  0  0  0  0  0
    1.9878   17.4138    1.1570 H   0  0  0  0  0  0  0  0  0  0  0  0
   -0.4670   15.9645   -1.7016 H   0  0  0  0  0  0  0  0  0  0  0  0
    0.4934   18.6717   -2.8176 H   0  0  0  0  0  0  0  0  0  0  0  0
   -0.6352   17.4955   -3.6258 H   0  0  0  0  0  0  0  0  0  0  0  0
   -1.8389   19.4127   -2.6287 H   0  0  0  0  0  0  0  0  0  0  0  0
   -2.2854   17.8310   -1.8773 H   0  0  0  0  0  0  0  0  0  0  0  0
   -2.0391   19.4694   -0.1385 H   0  0  0  0  0  0  0  0  0  0  0  0
    0.6660   19.9080   -0.4070 H   0  0  0  0  0  0  0  0  0  0  0  0
   -1.6609   16.9868    1.8327 H   0  0  0  0  0  0  0  0  0  0  0  0
   -2.5779   17.3661    0.3354 H   0  0  0  0  0  0  0  0  0  0  0  0
   -1.3675   16.0388    0.3354 H   0  0  0  0  0  0  0  0  0  0  0  0
   -0.4121   18.1827    2.4902 H   0  0  0  0  0  0  0  0  0  0  0  0
    1.0571   18.7775    1.6452 H   0  0  0  0  0  0  0  0  0  0  0  0
   -0.4417   19.7675    1.6452 H   0  0  0  0  0  0  0  0  0  0  0  0
    2.9249   17.6141   -2.5779 H   0  0  0  0  0  0  0  0  0  0  0  0
    3.0991   16.4627   -3.9456 H   0  0  0  0  0  0  0  0  0  0  0  0
    1.7614   17.6615   -3.9456 H   0  0  0  0  0  0  0  0  0  0  0  0
   -0.0493   15.5556   -4.0757 H   0  0  0  0  0  0  0  0  0  0  0  0
    1.6532   14.9071   -4.4158 H   0  0  0  0  0  0  0  0  0  0  0  0
   -0.4576   13.6998   -2.6070 H   0  0  0  0  0  0  0  0  0  0  0  0
    0.2181   13.0414   -4.1486 H   0  0  0  0  0  0  0  0  0  0  0  0
    3.7080   12.6907   -2.8440 H   0  0  0  0  0  0  0  0  0  0  0  0
    2.6489   11.9140   -4.0693 H   0  0  0  0  0  0  0  0  0  0  0  0
    2.8643   13.6973   -4.0693 H   0  0  0  0  0  0  0  0  0  0  0  0
  1  2  1  0
  2  3  1  0
  3  4  1  0
  4  5  1  0
  5  6  1  0
  6  7  1  0
  7  8  1  0
  7  9  1  0
  2 10  1  0
 10 11  1  0
 11 12  1  0
 12 13  1  0
 13 14  1  1
 13 15  1  0
 15 16  1  0
 16 17  1  0
 17 18  2  0
 18 19  1  0
 19 20  1  0
 20 21  1  0
 21 22  1  0
 22 23  1  0
 22 24  1  0
 24 25  1  0
 24 26  1  0
 19 27  1  0
 27 28  1  6
 27 29  1  0
 29 30  1  0
 30 31  1  0
 31 32  1  6
  7  5  1  0
 31 10  1  0
 31 13  1  0
 27 15  1  0
 24 18  1  0
  1 33  1  0
  1 34  1  0
  1 35  1  0
  2 36  1  6
  3 37  1  0
  3 38  1  0
  4 39  1  0
  4 40  1  0
  5 41  1  1
  8 42  1  0
  8 43  1  0
  8 44  1  0
  9 45  1  0
  9 46  1  0
  9 47  1  0
 10 48  1  1
 11 49  1  0
 11 50  1  0
 12 51  1  0
 12 52  1  0
 14 53  1  0
 14 54  1  0
 14 55  1  0
 15 56  1  6
 16 57  1  0
 16 58  1  0
 17 59  1  0
 19 60  1  1
 20 61  1  0
 20 62  1  0
 21 63  1  0
 21 64  1  0
 22 65  1  1
 23 66  1  0
 25 67  1  0
 25 68  1  0
 25 69  1  0
 26 70  1  0
 26 71  1  0
 26 72  1  0
 28 73  1  0
 28 74  1  0
 28 75  1  0
 29 76  1  0
 29 77  1  0
 30 78  1  0
 30 79  1  0
 32 80  1  0
 32 81  1  0
 32 82  1  0
M  END
>  <meeko>  (12) 
{"is_sidechain": [false], "intermolecular_energy": 2.731, "internal_energy": -0.839}

$$$$
EPH_relaxed_0001_pdb2pqr_Repair_352_r2_0001_out
     RDKit          3D

 82 86  0  0  0  0  0  0  0  0999 V2000
   -0.7590   10.3010   -2.4220 C   0  0  0  0  0  0  0  0  0  0  0  0
    0.2720   10.1010   -1.3080 C   0  0  2  0  0  0  0  0  0  0  0  0
   -0.2980    9.2880   -0.1290 C   0  0  0  0  0  0  0  0  0  0  0  0
    0.1420    9.8030    1.2440 C   0  0  0  0  0  0  0  0  0  0  0  0
   -0.7940   10.8490    1.7700 C   0  0  2  0  0  0  0  0  0  0  0  0
   -0.5420   12.1750    1.2860 O   0  0  0  0  0  0  0  0  0  0  0  0
   -0.3610   11.9700    2.6970 C   0  0  0  0  0  0  0  0  0  0  0  0
    1.0580   12.1000    3.1540 C   0  0  0  0  0  0  0  0  0  0  0  0
   -1.3990   12.6410    3.5420 C   0  0  0  0  0  0  0  0  0  0  0  0
    0.7720   11.4540   -0.8140 C   0  0  1  0  0  0  0  0  0  0  0  0
    2.1510   11.3590   -0.1080 C   0  0  0  0  0  0  0  0  0  0  0  0
    2.9180   12.6620   -0.4490 C   0  0  0  0  0  0  0  0  0  0  0  0
    1.8470   13.5990   -1.0550 C   0  0  1  0  0  0  0  0  0  0  0  0
    1.1050   14.2090    0.1760 C   0  0  0  0  0  0  0  0  0  0  0  0
    2.3680   14.7100   -2.0230 C   0  0  2  0  0  0  0  0  0  0  0  0
    3.3210   15.7370   -1.3860 C   0  0  0  0  0  0  0  0  0  0  0  0
    2.6620   16.9440   -0.8060 C   0  0  0  0  0  0  0  0  0  0  0  0
    1.3960   17.3350   -1.0440 C   0  0  0  0  0  0  0  0  0  0  0  0
    0.5170   16.5850   -2.0530 C   0  0  1  0  0  0  0  0  0  0  0  0
   -0.1970   17.6050   -2.9780 C   0  0  0  0  0  0  0  0  0  0  0  0
   -0.9750   18.6590   -2.1960 C   0  0  0  0  0  0  0  0  0  0  0  0
   -0.0560   19.4230   -1.2460 C   0  0  2  0  0  0  0  0  0  0  0  0
    0.8680   20.1940   -2.0200 O   0  0  0  0  0  0  0  0  0  0  0  0
    0.7250   18.4970   -0.2720 C   0  0  0  0  0  0  0  0  0  0  0  0
   -0.2530   17.8910    0.7650 C   0  0  0  0  0  0  0  0  0  0  0  0
    1.7180   19.3790    0.5320 C   0  0  0  0  0  0  0  0  0  0  0  0
    1.2320   15.4210   -2.8650 C   0  0  1  0  0  0  0  0  0  0  0  0
    1.9200   16.0050   -4.1370 C   0  0  0  0  0  0  0  0  0  0  0  0
    0.1420   14.4060   -3.3760 C   0  0  0  0  0  0  0  0  0  0  0  0
   -0.2430   13.2610   -2.4210 C   0  0  0  0  0  0  0  0  0  0  0  0
    1.0040   12.5570   -1.8770 C   0  0  2  0  0  0  0  0  0  0  0  0
    1.7590   11.9150   -3.0900 C   0  0  0  0  0  0  0  0  0  0  0  0
   -1.7467   10.4926   -1.9774 H   0  0  0  0  0  0  0  0  0  0  0  0
   -0.4645   11.1588   -3.0445 H   0  0  0  0  0  0  0  0  0  0  0  0
   -0.8066    9.3953   -3.0445 H   0  0  0  0  0  0  0  0  0  0  0  0
    1.1094    9.5266   -1.7309 H   0  0  0  0  0  0  0  0  0  0  0  0
   -1.3962    9.3272   -0.1789 H   0  0  0  0  0  0  0  0  0  0  0  0
    0.0905    8.2636   -0.2275 H   0  0  0  0  0  0  0  0  0  0  0  0
    0.1670    8.9597    1.9498 H   0  0  0  0  0  0  0  0  0  0  0  0
    1.1382   10.2570    1.1367 H   0  0  0  0  0  0  0  0  0  0  0  0
   -1.6147   10.1190    1.8287 H   0  0  0  0  0  0  0  0  0  0  0  0
    1.0903   12.1030    4.2535 H   0  0  0  0  0  0  0  0  0  0  0  0
    1.6453   11.2519    2.7722 H   0  0  0  0  0  0  0  0  0  0  0  0
    1.4815   13.0407    2.7722 H   0  0  0  0  0  0  0  0  0  0  0  0
   -1.1617   12.4876    4.6051 H   0  0  0  0  0  0  0  0  0  0  0  0
   -1.4114   13.7185    3.3209 H   0  0  0  0  0  0  0  0  0  0  0  0
   -2.3866   12.2099    3.3209 H   0  0  0  0  0  0  0  0  0  0  0  0
   -0.0662   11.7333   -0.1587 H   0  0  0  0  0  0  0  0  0  0  0  0
    2.0145   11.2734    0.9801 H   0  0  0  0  0  0  0  0  0  0  0  0
    2.7078   10.4727   -0.4461 H   0  0  0  0  0  0  0  0  0  0  0  0
    3.3528   13.1054    0.4589 H   0  0  0  0  0  0  0  0  0  0  0  0
    3.7553   12.4841   -1.1399 H   0  0  0  0  0  0  0  0  0  0  0  0
    1.5624   13.8330    1.1031 H   0  0  0  0  0  0  0  0  0  0  0  0
    1.1853   15.3057    0.1461 H   0  0  0  0  0  0  0  0  0  0  0  0
    0.0446   13.9181    0.1461 H   0  0  0  0  0  0  0  0  0  0  0  0
    2.9801   14.1350   -2.7334 H   0  0  0  0  0  0  0  0  0  0  0  0
    3.8754   15.2326   -0.5809 H   0  0  0  0  0  0  0  0  0  0  0  0
    3.9630   16.1028   -2.2009 H   0  0  0  0  0  0  0  0  0  0  0  0
    3.2618   17.5671   -0.1263 H   0  0  0  0  0  0  0  0  0  0  0  0
   -0.2280   16.0367   -1.4577 H   0  0  0  0  0  0  0  0  0  0  0  0
    0.5598   18.1112   -3.5953 H   0  0  0  0  0  0  0  0  0  0  0  0
   -0.9171   17.0485   -3.5958 H   0  0  0  0  0  0  0  0  0  0  0  0
   -1.4313   19.3676   -2.9029 H   0  0  0  0  0  0  0  0  0  0  0  0
   -1.7512   18.1537   -1.6026 H   0  0  0  0  0  0  0  0  0  0  0  0
   -0.6905   20.0703   -0.6228 H   0  0  0  0  0  0  0  0  0  0  0  0
    0.6000   20.1260   -2.9520 H   0  0  0  0  0  0  0  0  0  0  0  0
    0.1057   18.1133    1.7808 H   0  0  0  0  0  0  0  0  0  0  0  0
   -1.2527   18.3281    0.6253 H   0  0  0  0  0  0  0  0  0  0  0  0
   -0.3066   16.8012    0.6253 H   0  0  0  0  0  0  0  0  0  0  0  0
    1.5510   19.2306    1.6091 H   0  0  0  0  0  0  0  0  0  0  0  0
    2.7497   19.0941    0.2783 H   0  0  0  0  0  0  0  0  0  0  0  0
    1.5568   20.4371    0.2783 H   0  0  0  0  0  0  0  0  0  0  0  0
    2.7266   16.6897   -3.8360 H   0  0  0  0  0  0  0  0  0  0  0  0
    2.3405   15.1839   -4.7361 H   0  0  0  0  0  0  0  0  0  0  0  0
    1.1781   16.5533   -4.7361 H   0  0  0  0  0  0  0  0  0  0  0  0
   -0.7712   14.9797   -3.5928 H   0  0  0  0  0  0  0  0  0  0  0  0
    0.5949   13.9127   -4.2487 H   0  0  0  0  0  0  0  0  0  0  0  0
   -0.8194   13.6729   -1.5795 H   0  0  0  0  0  0  0  0  0  0  0  0
   -0.8446   12.5275   -2.9779 H   0  0  0  0  0  0  0  0  0  0  0  0
    2.5476   11.2445   -2.7178 H   0  0  0  0  0  0  0  0  0  0  0  0
    1.0480   11.3406   -3.7020 H   0  0  0  0  0  0  0  0  0  0  0  0
    2.2116   12.7091   -3.7020 H   0  0  0  0  0  0  0  0  0  0  0  0
  1  2  1  0
  2  3  1  0
  3  4  1  0
  4  5  1  0
  5  6  1  0
  6  7  1  0
  7  8  1  0
  7  9  1  0
  2 10  1  0
 10 11  1  0
 11 12  1  0
 12 13  1  0
 13 14  1  1
 13 15  1  0
 15 16  1  0
 16 17  1  0
 17 18  2  0
 18 19  1  0
 19 20  1  0
 20 21  1  0
 21 22  1  0
 22 23  1  0
 22 24  1  0
 24 25  1  0
 24 26  1  0
 19 27  1  0
 27 28  1  6
 27 29  1  0
 29 30  1  0
 30 31  1  0
 31 32  1  6
  7  5  1  0
 31 10  1  0
 31 13  1  0
 27 15  1  0
 24 18  1  0
  1 33  1  0
  1 34  1  0
  1 35  1  0
  2 36  1  6
  3 37  1  0
  3 38  1  0
  4 39  1  0
  4 40  1  0
  5 41  1  1
  8 42  1  0
  8 43  1  0
  8 44  1  0
  9 45  1  0
  9 46  1  0
  9 47  1  0
 10 48  1  1
 11 49  1  0
 11 50  1  0
 12 51  1  0
 12 52  1  0
 14 53  1  0
 14 54  1  0
 14 55  1  0
 15 56  1  6
 16 57  1  0
 16 58  1  0
 17 59  1  0
 19 60  1  1
 20 61  1  0
 20 62  1  0
 21 63  1  0
 21 64  1  0
 22 65  1  1
 23 66  1  0
 25 67  1  0
 25 68  1  0
 25 69  1  0
 26 70  1  0
 26 71  1  0
 26 72  1  0
 28 73  1  0
 28 74  1  0
 28 75  1  0
 29 76  1  0
 29 77  1  0
 30 78  1  0
 30 79  1  0
 32 80  1  0
 32 81  1  0
 32 82  1  0
M  END
>  <meeko>  (13) 
{"is_sidechain": [false], "intermolecular_energy": 2.731, "internal_energy": -0.839}

$$$$
EPH_relaxed_0001_pdb2pqr_Repair_352_r2_0001_out
     RDKit          3D

 82 86  0  0  0  0  0  0  0  0999 V2000
    2.7300   11.5530   -5.7290 C   0  0  0  0  0  0  0  0  0  0  0  0
    2.0430   11.2990   -4.3840 C   0  0  2  0  0  0  0  0  0  0  0  0
    0.9640   10.2020   -4.4810 C   0  0  0  0  0  0  0  0  0  0  0  0
    0.8050    9.3800   -3.1990 C   0  0  0  0  0  0  0  0  0  0  0  0
   -0.6370    9.1880   -2.8390 C   0  0  2  0  0  0  0  0  0  0  0  0
   -1.1810   10.2020   -1.9840 O   0  0  0  0  0  0  0  0  0  0  0  0
   -1.1140    8.8780   -1.4320 C   0  0  0  0  0  0  0  0  0  0  0  0
   -0.1520    8.7410   -0.2940 C   0  0  0  0  0  0  0  0  0  0  0  0
   -2.4520    8.2290   -1.2570 C   0  0  0  0  0  0  0  0  0  0  0  0
    1.4260   12.5920   -3.8640 C   0  0  1  0  0  0  0  0  0  0  0  0
   -0.1240   12.5340   -3.8070 C   0  0  0  0  0  0  0  0  0  0  0  0
   -0.5570   13.3590   -2.5680 C   0  0  0  0  0  0  0  0  0  0  0  0
    0.7150   14.1310   -2.1490 C   0  0  1  0  0  0  0  0  0  0  0  0
    0.7700   15.3630   -3.1050 C   0  0  0  0  0  0  0  0  0  0  0  0
    0.7990   14.5620   -0.6480 C   0  0  2  0  0  0  0  0  0  0  0  0
   -0.2960   15.5400   -0.1870 C   0  0  0  0  0  0  0  0  0  0  0  0
    0.0400   16.9870   -0.3300 C   0  0  0  0  0  0  0  0  0  0  0  0
    1.2720   17.4870   -0.5390 C   0  0  0  0  0  0  0  0  0  0  0  0
    2.5020   16.5700   -0.5550 C   0  0  1  0  0  0  0  0  0  0  0  0
    3.6280   17.1990    0.3060 C   0  0  0  0  0  0  0  0  0  0  0  0
    3.9600   18.6270   -0.1170 C   0  0  0  0  0  0  0  0  0  0  0  0
    2.7260   19.5210   -0.0320 C   0  0  2  0  0  0  0  0  0  0  0  0
    2.3490   19.6580    1.3420 O   0  0  0  0  0  0  0  0  0  0  0  0
    1.5210   18.9830   -0.8540 C   0  0  0  0  0  0  0  0  0  0  0  0
    1.8210   19.1180   -2.3670 C   0  0  0  0  0  0  0  0  0  0  0  0
    0.3010   19.9000   -0.5690 C   0  0  0  0  0  0  0  0  0  0  0  0
    2.2350   15.0460   -0.1920 C   0  0  1  0  0  0  0  0  0  0  0  0
    2.3020   14.8480    1.3530 C   0  0  0  0  0  0  0  0  0  0  0  0
    3.3860   14.1630   -0.8030 C   0  0  0  0  0  0  0  0  0  0  0  0
    3.1900   13.6680   -2.2490 C   0  0  0  0  0  0  0  0  0  0  0  0
    1.8070   13.0350   -2.4290 C   0  0  2  0  0  0  0  0  0  0  0  0
    1.7300   11.7800   -1.4950 C   0  0  0  0  0  0  0  0  0  0  0  0
    3.7488   11.9297   -5.5550 H   0  0  0  0  0  0  0  0  0  0  0  0
    2.7788   10.6135   -6.2990 H   0  0  0  0  0  0  0  0  0  0  0  0
    2.1559   12.2983   -6.2990 H   0  0  0  0  0  0  0  0  0  0  0  0
    2.8115   10.9445   -3.6813 H   0  0  0  0  0  0  0  0  0  0  0  0
    0.0004   10.6817   -4.7077 H   0  0  0  0  0  0  0  0  0  0  0  0
    1.2828    9.5065   -5.2714 H   0  0  0  0  0  0  0  0  0  0  0  0
    1.2696    8.3941   -3.3477 H   0  0  0  0  0  0  0  0  0  0  0  0
    1.2935    9.9262   -2.3786 H   0  0  0  0  0  0  0  0  0  0  0  0
   -0.8399    8.7108   -3.8091 H   0  0  0  0  0  0  0  0  0  0  0  0
   -0.6971    8.8186    0.6583 H   0  0  0  0  0  0  0  0  0  0  0  0
    0.3475    7.7627   -0.3519 H   0  0  0  0  0  0  0  0  0  0  0  0
    0.6008    9.5410   -0.3519 H   0  0  0  0  0  0  0  0  0  0  0  0
   -2.6706    8.1230   -0.1842 H   0  0  0  0  0  0  0  0  0  0  0  0
   -3.2261    8.8517   -1.7291 H   0  0  0  0  0  0  0  0  0  0  0  0
   -2.4422    7.2355   -1.7291 H   0  0  0  0  0  0  0  0  0  0  0  0
    1.8369   13.3005   -4.5983 H   0  0  0  0  0  0  0  0  0  0  0  0
   -0.5533   12.9698   -4.7212 H   0  0  0  0  0  0  0  0  0  0  0  0
   -0.4780   11.4951   -3.7332 H   0  0  0  0  0  0  0  0  0  0  0  0
   -1.3661   14.0568   -2.8296 H   0  0  0  0  0  0  0  0  0  0  0  0
   -0.9445   12.7232   -1.7583 H   0  0  0  0  0  0  0  0  0  0  0  0
    0.8113   16.2873   -2.5100 H   0  0  0  0  0  0  0  0  0  0  0  0
    1.6660   15.2951   -3.7395 H   0  0  0  0  0  0  0  0  0  0  0  0
   -0.1285   15.3752   -3.7395 H   0  0  0  0  0  0  0  0  0  0  0  0
    0.5975   13.6180   -0.1205 H   0  0  0  0  0  0  0  0  0  0  0  0
   -1.2009   15.3410   -0.7799 H   0  0  0  0  0  0  0  0  0  0  0  0
   -0.4276   15.3633    0.8907 H   0  0  0  0  0  0  0  0  0  0  0  0
   -0.7895   17.7058   -0.2585 H   0  0  0  0  0  0  0  0  0  0  0  0
    2.8241   16.5114   -1.6051 H   0  0  0  0  0  0  0  0  0  0  0  0
    3.3042   17.2089    1.3572 H   0  0  0  0  0  0  0  0  0  0  0  0
    4.5338   16.5906    0.1670 H   0  0  0  0  0  0  0  0  0  0  0  0
    4.7408   19.0269    0.5466 H   0  0  0  0  0  0  0  0  0  0  0  0
    4.3120   18.6120   -1.1590 H   0  0  0  0  0  0  0  0  0  0  0  0
    2.9936   20.4943   -0.4691 H   0  0  0  0  0  0  0  0  0  0  0  0
    2.6590   20.5270    1.6470 H   0  0  0  0  0  0  0  0  0  0  0  0
    2.8162   19.5658   -2.5049 H   0  0  0  0  0  0  0  0  0  0  0  0
    1.7985   18.1230   -2.8355 H   0  0  0  0  0  0  0  0  0  0  0  0
    1.0614   19.7611   -2.8355 H   0  0  0  0  0  0  0  0  0  0  0  0
    0.1651   20.0022    0.5178 H   0  0  0  0  0  0  0  0  0  0  0  0
    0.4764   20.8917   -1.0114 H   0  0  0  0  0  0  0  0  0  0  0  0
   -0.6029   19.4558   -1.0114 H   0  0  0  0  0  0  0  0  0  0  0  0
    1.9883   15.7749    1.8554 H   0  0  0  0  0  0  0  0  0  0  0  0
    1.6317   14.0268    1.6468 H   0  0  0  0  0  0  0  0  0  0  0  0
    3.3332   14.6026    1.6468 H   0  0  0  0  0  0  0  0  0  0  0  0
    4.3108   14.7580   -0.7776 H   0  0  0  0  0  0  0  0  0  0  0  0
    3.4066   13.2516   -0.1875 H   0  0  0  0  0  0  0  0  0  0  0  0
    3.2880   14.5203   -2.9375 H   0  0  0  0  0  0  0  0  0  0  0  0
    3.9547   12.9077   -2.4661 H   0  0  0  0  0  0  0  0  0  0  0  0
    1.7498   12.1035   -0.4438 H   0  0  0  0  0  0  0  0  0  0  0  0
    0.7966   11.2326   -1.6926 H   0  0  0  0  0  0  0  0  0  0  0  0
    2.5895   11.1226   -1.6926 H   0  0  0  0  0  0  0  0  0  0  0  0
  1  2  1  0
  2  3  1  0
  3  4  1  0
  4  5  1  0
  5  6  1  0
  6  7  1  0
  7  8  1  0
  7  9  1  0
  2 10  1  0
 10 11  1  0
 11 12  1  0
 12 13  1  0
 13 14  1  6
 13 15  1  0
 15 16  1  0
 16 17  1  0
 17 18  2  0
 18 19  1  0
 19 20  1  0
 20 21  1  0
 21 22  1  0
 22 23  1  0
 22 24  1  0
 24 25  1  0
 24 26  1  0
 19 27  1  0
 27 28  1  1
 27 29  1  0
 29 30  1  0
 30 31  1  0
 31 32  1  1
  7  5  1  0
 31 10  1  0
 31 13  1  0
 27 15  1  0
 24 18  1  0
  1 33  1  0
  1 34  1  0
  1 35  1  0
  2 36  1  1
  3 37  1  0
  3 38  1  0
  4 39  1  0
  4 40  1  0
  5 41  1  6
  8 42  1  0
  8 43  1  0
  8 44  1  0
  9 45  1  0
  9 46  1  0
  9 47  1  0
 10 48  1  6
 11 49  1  0
 11 50  1  0
 12 51  1  0
 12 52  1  0
 14 53  1  0
 14 54  1  0
 14 55  1  0
 15 56  1  1
 16 57  1  0
 16 58  1  0
 17 59  1  0
 19 60  1  6
 20 61  1  0
 20 62  1  0
 21 63  1  0
 21 64  1  0
 22 65  1  6
 23 66  1  0
 25 67  1  0
 25 68  1  0
 25 69  1  0
 26 70  1  0
 26 71  1  0
 26 72  1  0
 28 73  1  0
 28 74  1  0
 28 75  1  0
 29 76  1  0
 29 77  1  0
 30 78  1  0
 30 79  1  0
 32 80  1  0
 32 81  1  0
 32 82  1  0
M  END
>  <meeko>  (14) 
{"is_sidechain": [false], "intermolecular_energy": 2.731, "internal_energy": -0.839}

$$$$
EPH_relaxed_0001_pdb2pqr_Repair_352_r2_0001_out
     RDKit          3D

 82 86  0  0  0  0  0  0  0  0999 V2000
    0.9580    9.3520   -0.0790 C   0  0  0  0  0  0  0  0  0  0  0  0
   -0.2520   10.2890   -0.1520 C   0  0  2  0  0  0  0  0  0  0  0  0
   -0.8590   10.3440   -1.5680 C   0  0  0  0  0  0  0  0  0  0  0  0
    0.1110    9.9090   -2.6710 C   0  0  0  0  0  0  0  0  0  0  0  0
    0.0790   10.8480   -3.8390 C   0  0  2  0  0  0  0  0  0  0  0  0
    0.5810   10.2960   -5.0640 O   0  0  0  0  0  0  0  0  0  0  0  0
    1.3270   11.3920   -4.5090 C   0  0  0  0  0  0  0  0  0  0  0  0
    2.6950   11.0160   -4.0320 C   0  0  0  0  0  0  0  0  0  0  0  0
    1.2200   12.6570   -5.3010 C   0  0  0  0  0  0  0  0  0  0  0  0
    0.1470   11.6890    0.2980 C   0  0  1  0  0  0  0  0  0  0  0  0
    1.2520   11.6740    1.3880 C   0  0  0  0  0  0  0  0  0  0  0  0
    2.1480   12.9130    1.1340 C   0  0  0  0  0  0  0  0  0  0  0  0
    1.3480   13.7730    0.1280 C   0  0  1  0  0  0  0  0  0  0  0  0
    0.3090   14.5470    0.9980 C   0  0  0  0  0  0  0  0  0  0  0  0
    2.1840   14.7420   -0.7710 C   0  0  2  0  0  0  0  0  0  0  0  0
    2.9570   15.8340   -0.0100 C   0  0  0  0  0  0  0  0  0  0  0  0
    2.2160   17.1140    0.1960 C   0  0  0  0  0  0  0  0  0  0  0  0
    1.0960   17.4830   -0.4540 C   0  0  0  0  0  0  0  0  0  0  0  0
    0.5160   16.6150   -1.5780 C   0  0  1  0  0  0  0  0  0  0  0  0
    0.1560   17.5130   -2.7910 C   0  0  0  0  0  0  0  0  0  0  0  0
   -0.7650   18.6680   -2.4110 C   0  0  0  0  0  0  0  0  0  0  0  0
   -0.1290   19.5410   -1.3320 C   0  0  2  0  0  0  0  0  0  0  0  0
    1.0180   20.1940   -1.8850 O   0  0  0  0  0  0  0  0  0  0  0  0
    0.2850   18.7430   -0.0640 C   0  0  0  0  0  0  0  0  0  0  0  0
   -0.9820   18.2880    0.7020 C   0  0  0  0  0  0  0  0  0  0  0  0
    1.0410   19.7120    0.8850 C   0  0  0  0  0  0  0  0  0  0  0  0
    1.3810   15.3480   -1.9920 C   0  0  1  0  0  0  0  0  0  0  0  0
    2.4390   15.7530   -3.0640 C   0  0  0  0  0  0  0  0  0  0  0  0
    0.4410   14.2860   -2.6760 C   0  0  0  0  0  0  0  0  0  0  0  0
   -0.2630   13.2800   -1.7460 C   0  0  0  0  0  0  0  0  0  0  0  0
    0.7340   12.6410   -0.7740 C   0  0  2  0  0  0  0  0  0  0  0  0
    1.7790   11.8370   -1.6200 C   0  0  0  0  0  0  0  0  0  0  0  0
    1.2085    9.1580    0.9744 H   0  0  0  0  0  0  0  0  0  0  0  0
    0.7172    8.4025   -0.5795 H   0  0  0  0  0  0  0  0  0  0  0  0
    1.8170    9.8228   -0.5795 H   0  0  0  0  0  0  0  0  0  0  0  0
   -1.0227    9.8873    0.5223 H   0  0  0  0  0  0  0  0  0  0  0  0
   -1.7363    9.6811   -1.5958 H   0  0  0  0  0  0  0  0  0  0  0  0
   -1.1202   11.3942   -1.7653 H   0  0  0  0  0  0  0  0  0  0  0  0
    1.1311    9.8858   -2.2600 H   0  0  0  0  0  0  0  0  0  0  0  0
   -0.1946    8.9128   -3.0233 H   0  0  0  0  0  0  0  0  0  0  0  0
   -0.8233   11.3414   -3.4487 H   0  0  0  0  0  0  0  0  0  0  0  0
    2.7114   11.0115   -2.9321 H   0  0  0  0  0  0  0  0  0  0  0  0
    2.9514   10.0141   -4.4067 H   0  0  0  0  0  0  0  0  0  0  0  0
    3.4275   11.7461   -4.4067 H   0  0  0  0  0  0  0  0  0  0  0  0
    1.1475   13.5140   -4.6152 H   0  0  0  0  0  0  0  0  0  0  0  0
    2.1119   12.7692   -5.9350 H   0  0  0  0  0  0  0  0  0  0  0  0
    0.3220   12.6178   -5.9350 H   0  0  0  0  0  0  0  0  0  0  0  0
   -0.8323   12.0599    0.6348 H   0  0  0  0  0  0  0  0  0  0  0  0
    0.7982   11.7335    2.3882 H   0  0  0  0  0  0  0  0  0  0  0  0
    1.8399   10.7454    1.3415 H   0  0  0  0  0  0  0  0  0  0  0  0
    2.3188   13.4670    2.0688 H   0  0  0  0  0  0  0  0  0  0  0  0
    3.1415   12.6379    0.7502 H   0  0  0  0  0  0  0  0  0  0  0  0
    0.5285   14.3835    2.0634 H   0  0  0  0  0  0  0  0  0  0  0  0
    0.3696   15.6218    0.7719 H   0  0  0  0  0  0  0  0  0  0  0  0
   -0.7035   14.1813    0.7719 H   0  0  0  0  0  0  0  0  0  0  0  0
    2.9484   14.0724   -1.1921 H   0  0  0  0  0  0  0  0  0  0  0  0
    3.2256   15.4338    0.9788 H   0  0  0  0  0  0  0  0  0  0  0  0
    3.8268   16.0832   -0.6356 H   0  0  0  0  0  0  0  0  0  0  0  0
    2.6193   17.8147    0.9419 H   0  0  0  0  0  0  0  0  0  0  0  0
   -0.3962   16.1562   -1.1689 H   0  0  0  0  0  0  0  0  0  0  0  0
    1.0846   17.9262   -3.2117 H   0  0  0  0  0  0  0  0  0  0  0  0
   -0.3769   16.8879   -3.5226 H   0  0  0  0  0  0  0  0  0  0  0  0
   -0.9590   19.2821   -3.3028 H   0  0  0  0  0  0  0  0  0  0  0  0
   -1.7047   18.2529   -2.0179 H   0  0  0  0  0  0  0  0  0  0  0  0
   -0.8856   20.2716   -1.0097 H   0  0  0  0  0  0  0  0  0  0  0  0
    1.7480   20.0950   -1.2510 H   0  0  0  0  0  0  0  0  0  0  0  0
   -0.7992   18.3536    1.7847 H   0  0  0  0  0  0  0  0  0  0  0  0
   -1.8268   18.9389    0.4326 H   0  0  0  0  0  0  0  0  0  0  0  0
   -1.2197   17.2483    0.4326 H   0  0  0  0  0  0  0  0  0  0  0  0
    0.8296   19.4411    1.9300 H   0  0  0  0  0  0  0  0  0  0  0  0
    2.1226   19.6382    0.6987 H   0  0  0  0  0  0  0  0  0  0  0  0
    0.7063   20.7432    0.6987 H   0  0  0  0  0  0  0  0  0  0  0  0
    3.3534   16.1030   -2.5627 H   0  0  0  0  0  0  0  0  0  0  0  0
    2.6760   14.8820   -3.6927 H   0  0  0  0  0  0  0  0  0  0  0  0
    2.0338   16.5596   -3.6927 H   0  0  0  0  0  0  0  0  0  0  0  0
   -0.3391   14.8356   -3.2231 H   0  0  0  0  0  0  0  0  0  0  0  0
    1.1055   13.6778   -3.3073 H   0  0  0  0  0  0  0  0  0  0  0  0
   -1.0403   13.8046   -1.1710 H   0  0  0  0  0  0  0  0  0  0  0  0
   -0.7098   12.4860   -2.3624 H   0  0  0  0  0  0  0  0  0  0  0  0
    2.4675   11.3073   -0.9451 H   0  0  0  0  0  0  0  0  0  0  0  0
    1.2540   11.1077   -2.2544 H   0  0  0  0  0  0  0  0  0  0  0  0
    2.3493   12.5314   -2.2544 H   0  0  0  0  0  0  0  0  0  0  0  0
  1  2  1  0
  2  3  1  0
  3  4  1  0
  4  5  1  0
  5  6  1  0
  6  7  1  0
  7  8  1  0
  7  9  1  0
  2 10  1  0
 10 11  1  0
 11 12  1  0
 12 13  1  0
 13 14  1  1
 13 15  1  0
 15 16  1  0
 16 17  1  0
 17 18  2  0
 18 19  1  0
 19 20  1  0
 20 21  1  0
 21 22  1  0
 22 23  1  0
 22 24  1  0
 24 25  1  0
 24 26  1  0
 19 27  1  0
 27 28  1  6
 27 29  1  0
 29 30  1  0
 30 31  1  0
 31 32  1  6
  7  5  1  0
 31 10  1  0
 31 13  1  0
 27 15  1  0
 24 18  1  0
  1 33  1  0
  1 34  1  0
  1 35  1  0
  2 36  1  1
  3 37  1  0
  3 38  1  0
  4 39  1  0
  4 40  1  0
  5 41  1  6
  8 42  1  0
  8 43  1  0
  8 44  1  0
  9 45  1  0
  9 46  1  0
  9 47  1  0
 10 48  1  1
 11 49  1  0
 11 50  1  0
 12 51  1  0
 12 52  1  0
 14 53  1  0
 14 54  1  0
 14 55  1  0
 15 56  1  6
 16 57  1  0
 16 58  1  0
 17 59  1  0
 19 60  1  1
 20 61  1  0
 20 62  1  0
 21 63  1  0
 21 64  1  0
 22 65  1  1
 23 66  1  0
 25 67  1  0
 25 68  1  0
 25 69  1  0
 26 70  1  0
 26 71  1  0
 26 72  1  0
 28 73  1  0
 28 74  1  0
 28 75  1  0
 29 76  1  0
 29 77  1  0
 30 78  1  0
 30 79  1  0
 32 80  1  0
 32 81  1  0
 32 82  1  0
M  END
>  <meeko>  (15) 
{"is_sidechain": [false], "intermolecular_energy": 2.731, "internal_energy": -0.839}

$$$$
EPH_relaxed_0001_pdb2pqr_Repair_352_r2_0001_out
     RDKit          3D

 82 86  0  0  0  0  0  0  0  0999 V2000
    0.2900   15.7140   -8.3510 C   0  0  0  0  0  0  0  0  0  0  0  0
    1.5300   15.8780   -7.4690 C   0  0  2  0  0  0  0  0  0  0  0  0
    2.6890   14.9670   -7.9200 C   0  0  0  0  0  0  0  0  0  0  0  0
    2.4680   14.3240   -9.2920 C   0  0  0  0  0  0  0  0  0  0  0  0
    2.9750   15.1960  -10.4010 C   0  0  2  0  0  0  0  0  0  0  0  0
    2.1340   16.3130  -10.7160 O   0  0  0  0  0  0  0  0  0  0  0  0
    2.2850   15.3230  -11.7460 C   0  0  0  0  0  0  0  0  0  0  0  0
    1.0300   14.5690  -12.0540 C   0  0  0  0  0  0  0  0  0  0  0  0
    3.0870   15.7930  -12.9200 C   0  0  0  0  0  0  0  0  0  0  0  0
    1.1760   15.5890   -6.0150 C   0  0  1  0  0  0  0  0  0  0  0  0
   -0.1410   16.2800   -5.5720 C   0  0  0  0  0  0  0  0  0  0  0  0
   -0.8350   15.3200   -4.5720 C   0  0  0  0  0  0  0  0  0  0  0  0
    0.2480   14.2740   -4.2190 C   0  0  1  0  0  0  0  0  0  0  0  0
    1.1340   14.9640   -3.1350 C   0  0  0  0  0  0  0  0  0  0  0  0
   -0.2700   12.8790   -3.7380 C   0  0  2  0  0  0  0  0  0  0  0  0
   -1.0860   12.9000   -2.4340 C   0  0  0  0  0  0  0  0  0  0  0  0
   -0.2920   12.7230   -1.1820 C   0  0  0  0  0  0  0  0  0  0  0  0
    0.9750   12.2720   -1.1160 C   0  0  0  0  0  0  0  0  0  0  0  0
    1.7070   11.7930   -2.3770 C   0  0  1  0  0  0  0  0  0  0  0  0
    2.4130   10.4430   -2.0830 C   0  0  0  0  0  0  0  0  0  0  0  0
    3.3310   10.5160   -0.8670 C   0  0  0  0  0  0  0  0  0  0  0  0
    2.5560   10.9390    0.3780 C   0  0  2  0  0  0  0  0  0  0  0  0
    1.6290    9.9030    0.7180 O   0  0  0  0  0  0  0  0  0  0  0  0
    1.7940   12.2820    0.1980 C   0  0  0  0  0  0  0  0  0  0  0  0
    2.8080   13.4510    0.1290 C   0  0  0  0  0  0  0  0  0  0  0  0
    0.9410   12.5220    1.4720 C   0  0  0  0  0  0  0  0  0  0  0  0
    0.8400   11.7510   -3.7080 C   0  0  1  0  0  0  0  0  0  0  0  0
    0.0920   10.3870   -3.8140 C   0  0  0  0  0  0  0  0  0  0  0  0
    1.8040   11.8270   -4.9510 C   0  0  0  0  0  0  0  0  0  0  0  0
    2.1830   13.2330   -5.4520 C   0  0  0  0  0  0  0  0  0  0  0  0
    0.9380   14.1090   -5.6220 C   0  0  2  0  0  0  0  0  0  0  0  0
    0.0370   13.4520   -6.7220 C   0  0  0  0  0  0  0  0  0  0  0  0
   -0.5996   15.5963   -7.7147 H   0  0  0  0  0  0  0  0  0  0  0  0
    0.1714   16.6043   -8.9861 H   0  0  0  0  0  0  0  0  0  0  0  0
    0.4069   14.8235   -8.9861 H   0  0  0  0  0  0  0  0  0  0  0  0
    1.8709   16.9191   -7.5689 H   0  0  0  0  0  0  0  0  0  0  0  0
    3.6081   15.5698   -7.9629 H   0  0  0  0  0  0  0  0  0  0  0  0
    2.7580   14.1484   -7.1885 H   0  0  0  0  0  0  0  0  0  0  0  0
    2.9991   13.3613   -9.3242 H   0  0  0  0  0  0  0  0  0  0  0  0
    1.3865   14.1824   -9.4342 H   0  0  0  0  0  0  0  0  0  0  0  0
    4.0180   14.9833  -10.1239 H   0  0  0  0  0  0  0  0  0  0  0  0
    0.5394   14.2743  -11.1146 H   0  0  0  0  0  0  0  0  0  0  0  0
    0.3514   15.2091  -12.6369 H   0  0  0  0  0  0  0  0  0  0  0  0
    1.2765   13.6693  -12.6369 H   0  0  0  0  0  0  0  0  0  0  0  0
    3.9849   16.3192  -12.5637 H   0  0  0  0  0  0  0  0  0  0  0  0
    3.3867   14.9276  -13.5294 H   0  0  0  0  0  0  0  0  0  0  0  0
    2.4785   16.4774  -13.5294 H   0  0  0  0  0  0  0  0  0  0  0  0
    2.0854   15.9671   -5.5250 H   0  0  0  0  0  0  0  0  0  0  0  0
    0.0808   17.2403   -5.0835 H   0  0  0  0  0  0  0  0  0  0  0  0
   -0.7892   16.4860   -6.4365 H   0  0  0  0  0  0  0  0  0  0  0  0
   -1.1575   15.8638   -3.6719 H   0  0  0  0  0  0  0  0  0  0  0  0
   -1.7385   14.8578   -4.9964 H   0  0  0  0  0  0  0  0  0  0  0  0
    0.7739   14.6835   -2.1342 H   0  0  0  0  0  0  0  0  0  0  0  0
    2.1781   14.6388   -3.2534 H   0  0  0  0  0  0  0  0  0  0  0  0
    1.0744   16.0560   -3.2534 H   0  0  0  0  0  0  0  0  0  0  0  0
   -0.9819   12.6053   -4.5306 H   0  0  0  0  0  0  0  0  0  0  0  0
   -1.6050   13.8680   -2.3734 H   0  0  0  0  0  0  0  0  0  0  0  0
   -1.7668   12.0377   -2.4871 H   0  0  0  0  0  0  0  0  0  0  0  0
   -0.7838   12.9831   -0.2331 H   0  0  0  0  0  0  0  0  0  0  0  0
    2.4565   12.5648   -2.6061 H   0  0  0  0  0  0  0  0  0  0  0  0
    1.6458    9.6763   -1.9001 H   0  0  0  0  0  0  0  0  0  0  0  0
    3.0342   10.1938   -2.9560 H   0  0  0  0  0  0  0  0  0  0  0  0
    3.7779    9.5259   -0.6936 H   0  0  0  0  0  0  0  0  0  0  0  0
    4.1143   11.2630   -1.0632 H   0  0  0  0  0  0  0  0  0  0  0  0
    3.2877   11.0982    1.1838 H   0  0  0  0  0  0  0  0  0  0  0  0
    1.3580   10.0430    1.6410 H   0  0  0  0  0  0  0  0  0  0  0  0
    3.0783   13.7626    1.1487 H   0  0  0  0  0  0  0  0  0  0  0  0
    3.7114   13.1218   -0.4054 H   0  0  0  0  0  0  0  0  0  0  0  0
    2.3544   14.2988   -0.4054 H   0  0  0  0  0  0  0  0  0  0  0  0
    1.5590   12.3481    2.3652 H   0  0  0  0  0  0  0  0  0  0  0  0
    0.5729   13.5586    1.4769 H   0  0  0  0  0  0  0  0  0  0  0  0
    0.0864   11.8294    1.4769 H   0  0  0  0  0  0  0  0  0  0  0  0
   -0.1178   10.0044   -2.8042 H   0  0  0  0  0  0  0  0  0  0  0  0
   -0.8545   10.5290   -4.3563 H   0  0  0  0  0  0  0  0  0  0  0  0
    0.7206    9.6653   -4.3563 H   0  0  0  0  0  0  0  0  0  0  0  0
    2.7355   11.3076   -4.6817 H   0  0  0  0  0  0  0  0  0  0  0  0
    1.2426   11.3687   -5.7785 H   0  0  0  0  0  0  0  0  0  0  0  0
    2.8581   13.7049   -4.7229 H   0  0  0  0  0  0  0  0  0  0  0  0
    2.6789   13.1352   -6.4290 H   0  0  0  0  0  0  0  0  0  0  0  0
   -0.7624   12.8691   -6.2412 H   0  0  0  0  0  0  0  0  0  0  0  0
   -0.4088   14.2385   -7.3487 H   0  0  0  0  0  0  0  0  0  0  0  0
    0.6495   12.7871   -7.3487 H   0  0  0  0  0  0  0  0  0  0  0  0
  1  2  1  0
  2  3  1  0
  3  4  1  0
  4  5  1  0
  5  6  1  0
  6  7  1  0
  7  8  1  0
  7  9  1  0
  2 10  1  0
 10 11  1  0
 11 12  1  0
 12 13  1  0
 13 14  1  1
 13 15  1  0
 15 16  1  0
 16 17  1  0
 17 18  2  0
 18 19  1  0
 19 20  1  0
 20 21  1  0
 21 22  1  0
 22 23  1  0
 22 24  1  0
 24 25  1  0
 24 26  1  0
 19 27  1  0
 27 28  1  6
 27 29  1  0
 29 30  1  0
 30 31  1  0
 31 32  1  6
  7  5  1  0
 31 10  1  0
 31 13  1  0
 27 15  1  0
 24 18  1  0
  1 33  1  0
  1 34  1  0
  1 35  1  0
  2 36  1  1
  3 37  1  0
  3 38  1  0
  4 39  1  0
  4 40  1  0
  5 41  1  6
  8 42  1  0
  8 43  1  0
  8 44  1  0
  9 45  1  0
  9 46  1  0
  9 47  1  0
 10 48  1  1
 11 49  1  0
 11 50  1  0
 12 51  1  0
 12 52  1  0
 14 53  1  0
 14 54  1  0
 14 55  1  0
 15 56  1  6
 16 57  1  0
 16 58  1  0
 17 59  1  0
 19 60  1  6
 20 61  1  0
 20 62  1  0
 21 63  1  0
 21 64  1  0
 22 65  1  1
 23 66  1  0
 25 67  1  0
 25 68  1  0
 25 69  1  0
 26 70  1  0
 26 71  1  0
 26 72  1  0
 28 73  1  0
 28 74  1  0
 28 75  1  0
 29 76  1  0
 29 77  1  0
 30 78  1  0
 30 79  1  0
 32 80  1  0
 32 81  1  0
 32 82  1  0
M  END
>  <meeko>  (16) 
{"is_sidechain": [false], "intermolecular_energy": 2.731, "internal_energy": -0.839}

$$$$
EPH_relaxed_0001_pdb2pqr_Repair_352_r2_0001_out
     RDKit          3D

 82 86  0  0  0  0  0  0  0  0999 V2000
   -1.6220   14.8540    0.5960 C   0  0  0  0  0  0  0  0  0  0  0  0
   -0.2820   15.5370    0.3060 C   0  0  2  0  0  0  0  0  0  0  0  0
   -0.3750   16.5190   -0.8800 C   0  0  0  0  0  0  0  0  0  0  0  0
    0.0030   17.9580   -0.5180 C   0  0  0  0  0  0  0  0  0  0  0  0
    1.4280   18.0590   -0.0630 C   0  0  2  0  0  0  0  0  0  0  0  0
    2.0840   19.2830   -0.4190 O   0  0  0  0  0  0  0  0  0  0  0  0
    2.6100   18.0850   -1.0140 C   0  0  0  0  0  0  0  0  0  0  0  0
    2.4200   18.0090   -2.4970 C   0  0  0  0  0  0  0  0  0  0  0  0
    3.9570   17.6930   -0.4920 C   0  0  0  0  0  0  0  0  0  0  0  0
    0.7870   14.4870    0.0300 C   0  0  1  0  0  0  0  0  0  0  0  0
    0.8900   13.4270    1.1590 C   0  0  0  0  0  0  0  0  0  0  0  0
    1.2400   12.0790    0.4770 C   0  0  0  0  0  0  0  0  0  0  0  0
    1.6510   12.4660   -0.9630 C   0  0  1  0  0  0  0  0  0  0  0  0
    3.1350   12.9350   -0.8440 C   0  0  0  0  0  0  0  0  0  0  0  0
    1.4830   11.3560   -2.0510 C   0  0  2  0  0  0  0  0  0  0  0  0
    2.3380   10.0950   -1.8360 C   0  0  0  0  0  0  0  0  0  0  0  0
    3.6870   10.1230   -2.4750 C   0  0  0  0  0  0  0  0  0  0  0  0
    4.0840   10.9900   -3.4250 C   0  0  0  0  0  0  0  0  0  0  0  0
    3.1050   12.0080   -4.0220 C   0  0  1  0  0  0  0  0  0  0  0  0
    3.2370   12.0100   -5.5670 C   0  0  0  0  0  0  0  0  0  0  0  0
    4.6720   12.2390   -6.0320 C   0  0  0  0  0  0  0  0  0  0  0  0
    5.6060   11.1730   -5.4650 C   0  0  2  0  0  0  0  0  0  0  0  0
    5.2660    9.9090   -6.0410 O   0  0  0  0  0  0  0  0  0  0  0  0
    5.5510   11.0730   -3.9140 C   0  0  0  0  0  0  0  0  0  0  0  0
    6.2030   12.3300   -3.2880 C   0  0  0  0  0  0  0  0  0  0  0  0
    6.4300    9.8680   -3.4830 C   0  0  0  0  0  0  0  0  0  0  0  0
    1.5960   11.8840   -3.5390 C   0  0  1  0  0  0  0  0  0  0  0  0
    0.8330   10.8610   -4.4340 C   0  0  0  0  0  0  0  0  0  0  0  0
    0.8770   13.2710   -3.7380 C   0  0  0  0  0  0  0  0  0  0  0  0
    0.9790   14.2800   -2.5780 C   0  0  0  0  0  0  0  0  0  0  0  0
    0.6200   13.6190   -1.2430 C   0  0  2  0  0  0  0  0  0  0  0  0
   -0.8740   13.1570   -1.3250 C   0  0  0  0  0  0  0  0  0  0  0  0
   -1.7678   14.7797    1.6838 H   0  0  0  0  0  0  0  0  0  0  0  0
   -2.4381   15.4461    0.1563 H   0  0  0  0  0  0  0  0  0  0  0  0
   -1.6224   13.8457    0.1563 H   0  0  0  0  0  0  0  0  0  0  0  0
   -0.0084   16.1210    1.1972 H   0  0  0  0  0  0  0  0  0  0  0  0
    0.3029   16.1708   -1.6733 H   0  0  0  0  0  0  0  0  0  0  0  0
   -1.4263   16.5342   -1.2034 H   0  0  0  0  0  0  0  0  0  0  0  0
   -0.1347   18.5962   -1.4033 H   0  0  0  0  0  0  0  0  0  0  0  0
   -0.6450   18.2853    0.3084 H   0  0  0  0  0  0  0  0  0  0  0  0
    1.2116   17.4514    0.8281 H   0  0  0  0  0  0  0  0  0  0  0  0
    1.4196   17.6088   -2.7185 H   0  0  0  0  0  0  0  0  0  0  0  0
    2.5168   19.0151   -2.9311 H   0  0  0  0  0  0  0  0  0  0  0  0
    3.1840   17.3472   -2.9311 H   0  0  0  0  0  0  0  0  0  0  0  0
    3.9397   17.6980    0.6079 H   0  0  0  0  0  0  0  0  0  0  0  0
    4.2096   16.6841   -0.8501 H   0  0  0  0  0  0  0  0  0  0  0  0
    4.7116   18.4088   -0.8501 H   0  0  0  0  0  0  0  0  0  0  0  0
    1.6650   15.1416   -0.0730 H   0  0  0  0  0  0  0  0  0  0  0  0
    1.6801   13.7076    1.8710 H   0  0  0  0  0  0  0  0  0  0  0  0
   -0.0542   13.3530    1.7184 H   0  0  0  0  0  0  0  0  0  0  0  0
    2.0724   11.5843    0.9988 H   0  0  0  0  0  0  0  0  0  0  0  0
    0.3981   11.3713    0.4948 H   0  0  0  0  0  0  0  0  0  0  0  0
    3.4082   13.0213    0.2180 H   0  0  0  0  0  0  0  0  0  0  0  0
    3.7920   12.2007   -1.3331 H   0  0  0  0  0  0  0  0  0  0  0  0
    3.2506   13.9135   -1.3331 H   0  0  0  0  0  0  0  0  0  0  0  0
    0.4404   11.0381   -1.9029 H   0  0  0  0  0  0  0  0  0  0  0  0
    2.4774    9.9593   -0.7533 H   0  0  0  0  0  0  0  0  0  0  0  0
    1.7907    9.2705   -2.3163 H   0  0  0  0  0  0  0  0  0  0  0  0
    4.4181    9.3718   -2.1414 H   0  0  0  0  0  0  0  0  0  0  0  0
    3.4038   12.9878   -3.6210 H   0  0  0  0  0  0  0  0  0  0  0  0
    2.8927   11.0386   -5.9514 H   0  0  0  0  0  0  0  0  0  0  0  0
    2.6250   12.8385   -5.9530 H   0  0  0  0  0  0  0  0  0  0  0  0
    4.7051   12.1990   -7.1308 H   0  0  0  0  0  0  0  0  0  0  0  0
    5.0045   13.2241   -5.6727 H   0  0  0  0  0  0  0  0  0  0  0  0
    6.6348   11.4634   -5.7243 H   0  0  0  0  0  0  0  0  0  0  0  0
    5.9440    9.6960   -6.7050 H   0  0  0  0  0  0  0  0  0  0  0  0
    6.1643   12.2555   -2.1912 H   0  0  0  0  0  0  0  0  0  0  0  0
    7.2512   12.4003   -3.6140 H   0  0  0  0  0  0  0  0  0  0  0  0
    5.6567   13.2274   -3.6140 H   0  0  0  0  0  0  0  0  0  0  0  0
    6.4679    9.8160   -2.3849 H   0  0  0  0  0  0  0  0  0  0  0  0
    5.9968    8.9378   -3.8794 H   0  0  0  0  0  0  0  0  0  0  0  0
    7.4480    9.9964   -3.8794 H   0  0  0  0  0  0  0  0  0  0  0  0
    0.2975   10.1430   -3.7954 H   0  0  0  0  0  0  0  0  0  0  0  0
    0.1116   11.3960   -5.0691 H   0  0  0  0  0  0  0  0  0  0  0  0
    1.5515   10.3221   -5.0691 H   0  0  0  0  0  0  0  0  0  0  0  0
    1.3107   13.7454   -4.6306 H   0  0  0  0  0  0  0  0  0  0  0  0
   -0.1936   13.0311   -3.8171 H   0  0  0  0  0  0  0  0  0  0  0  0
    2.0085   14.6636   -2.5242 H   0  0  0  0  0  0  0  0  0  0  0  0
    0.2713   15.1013   -2.7643 H   0  0  0  0  0  0  0  0  0  0  0  0
   -1.2757   13.0328   -0.3085 H   0  0  0  0  0  0  0  0  0  0  0  0
   -1.4632   13.9149   -1.8620 H   0  0  0  0  0  0  0  0  0  0  0  0
   -0.9325   12.1988   -1.8620 H   0  0  0  0  0  0  0  0  0  0  0  0
  1  2  1  0
  2  3  1  0
  3  4  1  0
  4  5  1  0
  5  6  1  0
  6  7  1  0
  7  8  1  0
  7  9  1  0
  2 10  1  0
 10 11  1  0
 11 12  1  0
 12 13  1  0
 13 14  1  1
 13 15  1  0
 15 16  1  0
 16 17  1  0
 17 18  2  0
 18 19  1  0
 19 20  1  0
 20 21  1  0
 21 22  1  0
 22 23  1  0
 22 24  1  0
 24 25  1  0
 24 26  1  0
 19 27  1  0
 27 28  1  6
 27 29  1  0
 29 30  1  0
 30 31  1  0
 31 32  1  6
  7  5  1  0
 31 10  1  0
 31 13  1  0
 27 15  1  0
 24 18  1  0
  1 33  1  0
  1 34  1  0
  1 35  1  0
  2 36  1  1
  3 37  1  0
  3 38  1  0
  4 39  1  0
  4 40  1  0
  5 41  1  1
  8 42  1  0
  8 43  1  0
  8 44  1  0
  9 45  1  0
  9 46  1  0
  9 47  1  0
 10 48  1  6
 11 49  1  0
 11 50  1  0
 12 51  1  0
 12 52  1  0
 14 53  1  0
 14 54  1  0
 14 55  1  0
 15 56  1  6
 16 57  1  0
 16 58  1  0
 17 59  1  0
 19 60  1  1
 20 61  1  0
 20 62  1  0
 21 63  1  0
 21 64  1  0
 22 65  1  1
 23 66  1  0
 25 67  1  0
 25 68  1  0
 25 69  1  0
 26 70  1  0
 26 71  1  0
 26 72  1  0
 28 73  1  0
 28 74  1  0
 28 75  1  0
 29 76  1  0
 29 77  1  0
 30 78  1  0
 30 79  1  0
 32 80  1  0
 32 81  1  0
 32 82  1  0
M  END
>  <meeko>  (17) 
{"is_sidechain": [false], "intermolecular_energy": 2.731, "internal_energy": -0.839}

$$$$
EPH_relaxed_0001_pdb2pqr_Repair_352_r2_0001_out
     RDKit          3D

 82 86  0  0  0  0  0  0  0  0999 V2000
    3.0040   12.2360   -5.4890 C   0  0  0  0  0  0  0  0  0  0  0  0
    1.5990   12.8450   -5.5210 C   0  0  2  0  0  0  0  0  0  0  0  0
    1.6340   14.3830   -5.6140 C   0  0  0  0  0  0  0  0  0  0  0  0
    0.8920   14.9440   -6.8300 C   0  0  0  0  0  0  0  0  0  0  0  0
    1.7660   14.9740   -8.0470 C   0  0  2  0  0  0  0  0  0  0  0  0
    2.4000   16.2350   -8.2980 O   0  0  0  0  0  0  0  0  0  0  0  0
    1.4500   15.7960   -9.2830 C   0  0  0  0  0  0  0  0  0  0  0  0
    0.2200   16.6450   -9.3630 C   0  0  0  0  0  0  0  0  0  0  0  0
    2.0730   15.3980  -10.5850 C   0  0  0  0  0  0  0  0  0  0  0  0
    0.8180   12.4150   -4.2850 C   0  0  1  0  0  0  0  0  0  0  0  0
   -0.1810   11.2640   -4.5790 C   0  0  0  0  0  0  0  0  0  0  0  0
   -0.2170   10.3690   -3.3140 C   0  0  0  0  0  0  0  0  0  0  0  0
    0.4950   11.2040   -2.2240 C   0  0  1  0  0  0  0  0  0  0  0  0
   -0.5920   12.1980   -1.7070 C   0  0  0  0  0  0  0  0  0  0  0  0
    1.1470   10.4000   -1.0530 C   0  0  2  0  0  0  0  0  0  0  0  0
    0.1630    9.5860   -0.1940 C   0  0  0  0  0  0  0  0  0  0  0  0
   -0.4000   10.3050    0.9860 C   0  0  0  0  0  0  0  0  0  0  0  0
    0.0820   11.4490    1.5080 C   0  0  0  0  0  0  0  0  0  0  0  0
    1.3660   12.0850    0.9610 C   0  0  1  0  0  0  0  0  0  0  0  0
    2.2870   12.4900    2.1420 C   0  0  0  0  0  0  0  0  0  0  0  0
    1.5800   13.3830    3.1560 C   0  0  0  0  0  0  0  0  0  0  0  0
    0.3400   12.6930    3.7200 C   0  0  2  0  0  0  0  0  0  0  0  0
    0.7550   11.5660    4.4980 O   0  0  0  0  0  0  0  0  0  0  0  0
   -0.6570   12.2310    2.6210 C   0  0  0  0  0  0  0  0  0  0  0  0
   -1.3340   13.4680    1.9790 C   0  0  0  0  0  0  0  0  0  0  0  0
   -1.7910   11.4270    3.3130 C   0  0  0  0  0  0  0  0  0  0  0  0
    2.1330   11.2500   -0.1530 C   0  0  1  0  0  0  0  0  0  0  0  0
    3.1080   10.2360    0.5190 C   0  0  0  0  0  0  0  0  0  0  0  0
    3.0270   12.2280   -1.0040 C   0  0  0  0  0  0  0  0  0  0  0  0
    2.3590   12.8990   -2.2190 C   0  0  0  0  0  0  0  0  0  0  0  0
    1.6310   11.8670   -3.0850 C   0  0  2  0  0  0  0  0  0  0  0  0
    2.7030   10.8660   -3.6390 C   0  0  0  0  0  0  0  0  0  0  0  0
    3.3205   12.0988   -4.4445 H   0  0  0  0  0  0  0  0  0  0  0  0
    2.9931   11.2618   -5.9998 H   0  0  0  0  0  0  0  0  0  0  0  0
    3.7075   12.9100   -5.9998 H   0  0  0  0  0  0  0  0  0  0  0  0
    1.0975   12.4718   -6.4261 H   0  0  0  0  0  0  0  0  0  0  0  0
    1.1728   14.7963   -4.7049 H   0  0  0  0  0  0  0  0  0  0  0  0
    2.6895   14.6743   -5.7194 H   0  0  0  0  0  0  0  0  0  0  0  0
    0.0157   14.3118   -7.0359 H   0  0  0  0  0  0  0  0  0  0  0  0
    0.5882   15.9760   -6.6004 H   0  0  0  0  0  0  0  0  0  0  0  0
    2.0300   13.9146   -7.9129 H   0  0  0  0  0  0  0  0  0  0  0  0
   -0.1269   16.8845   -8.3470 H   0  0  0  0  0  0  0  0  0  0  0  0
    0.4517   17.5764   -9.9004 H   0  0  0  0  0  0  0  0  0  0  0  0
   -0.5687   16.0981   -9.9004 H   0  0  0  0  0  0  0  0  0  0  0  0
    2.9856   14.8150  -10.3918 H   0  0  0  0  0  0  0  0  0  0  0  0
    1.3620   14.7864  -11.1599 H   0  0  0  0  0  0  0  0  0  0  0  0
    2.3291   16.3002  -11.1599 H   0  0  0  0  0  0  0  0  0  0  0  0
    0.3531   13.3755   -4.0179 H   0  0  0  0  0  0  0  0  0  0  0  0
   -1.1816   11.6735   -4.7819 H   0  0  0  0  0  0  0  0  0  0  0  0
    0.1302   10.6870   -5.4623 H   0  0  0  0  0  0  0  0  0  0  0  0
   -1.2549   10.1525   -3.0210 H   0  0  0  0  0  0  0  0  0  0  0  0
    0.2693    9.3960   -3.4778 H   0  0  0  0  0  0  0  0  0  0  0  0
   -0.5938   12.1997   -0.6070 H   0  0  0  0  0  0  0  0  0  0  0  0
   -0.3680   13.2102   -2.0748 H   0  0  0  0  0  0  0  0  0  0  0  0
   -1.5802   11.8846   -2.0748 H   0  0  0  0  0  0  0  0  0  0  0  0
    1.7608    9.6601   -1.5876 H   0  0  0  0  0  0  0  0  0  0  0  0
   -0.6754    9.2791   -0.8366 H   0  0  0  0  0  0  0  0  0  0  0  0
    0.7400    8.7418    0.2114 H   0  0  0  0  0  0  0  0  0  0  0  0
   -1.2833    9.8633    1.4704 H   0  0  0  0  0  0  0  0  0  0  0  0
    1.0500   12.9828    0.4096 H   0  0  0  0  0  0  0  0  0  0  0  0
    2.6271   11.5771    2.6529 H   0  0  0  0  0  0  0  0  0  0  0  0
    3.1310   13.0601    1.7266 H   0  0  0  0  0  0  0  0  0  0  0  0
    2.2721   13.6096    3.9804 H   0  0  0  0  0  0  0  0  0  0  0  0
    1.2674   14.3087    2.6507 H   0  0  0  0  0  0  0  0  0  0  0  0
   -0.1950   13.4283    4.3389 H   0  0  0  0  0  0  0  0  0  0  0  0
    0.6540   10.7730    3.9450 H   0  0  0  0  0  0  0  0  0  0  0  0
   -1.7005   14.1377    2.7709 H   0  0  0  0  0  0  0  0  0  0  0  0
   -0.6032   14.0035    1.3551 H   0  0  0  0  0  0  0  0  0  0  0  0
   -2.1789   13.1411    1.3551 H   0  0  0  0  0  0  0  0  0  0  0  0
   -1.6817   11.5045    4.4048 H   0  0  0  0  0  0  0  0  0  0  0  0
   -2.7668   11.8362    3.0122 H   0  0  0  0  0  0  0  0  0  0  0  0
   -1.7278   10.3708    3.0122 H   0  0  0  0  0  0  0  0  0  0  0  0
    3.0275   10.3198    1.6128 H   0  0  0  0  0  0  0  0  0  0  0  0
    2.8448    9.2139    0.2092 H   0  0  0  0  0  0  0  0  0  0  0  0
    4.1397   10.4589    0.2092 H   0  0  0  0  0  0  0  0  0  0  0  0
    3.3777   13.0266   -0.3338 H   0  0  0  0  0  0  0  0  0  0  0  0
    3.8236   11.5971   -1.4252 H   0  0  0  0  0  0  0  0  0  0  0  0
    1.6339   13.6460   -1.8637 H   0  0  0  0  0  0  0  0  0  0  0  0
    3.1399   13.3785   -2.8275 H   0  0  0  0  0  0  0  0  0  0  0  0
    3.2215   10.3818   -2.7984 H   0  0  0  0  0  0  0  0  0  0  0  0
    2.2068   10.1005   -4.2537 H   0  0  0  0  0  0  0  0  0  0  0  0
    3.4328   11.4134   -4.2537 H   0  0  0  0  0  0  0  0  0  0  0  0
  1  2  1  0
  2  3  1  0
  3  4  1  0
  4  5  1  0
  5  6  1  0
  6  7  1  0
  7  8  1  0
  7  9  1  0
  2 10  1  0
 10 11  1  0
 11 12  1  0
 12 13  1  0
 13 14  1  1
 13 15  1  0
 15 16  1  0
 16 17  1  0
 17 18  2  0
 18 19  1  0
 19 20  1  0
 20 21  1  0
 21 22  1  0
 22 23  1  0
 22 24  1  0
 24 25  1  0
 24 26  1  0
 19 27  1  0
 27 28  1  1
 27 29  1  0
 29 30  1  0
 30 31  1  0
 31 32  1  6
  7  5  1  0
 31 10  1  0
 31 13  1  0
 27 15  1  0
 24 18  1  0
  1 33  1  0
  1 34  1  0
  1 35  1  0
  2 36  1  6
  3 37  1  0
  3 38  1  0
  4 39  1  0
  4 40  1  0
  5 41  1  6
  8 42  1  0
  8 43  1  0
  8 44  1  0
  9 45  1  0
  9 46  1  0
  9 47  1  0
 10 48  1  1
 11 49  1  0
 11 50  1  0
 12 51  1  0
 12 52  1  0
 14 53  1  0
 14 54  1  0
 14 55  1  0
 15 56  1  6
 16 57  1  0
 16 58  1  0
 17 59  1  0
 19 60  1  6
 20 61  1  0
 20 62  1  0
 21 63  1  0
 21 64  1  0
 22 65  1  1
 23 66  1  0
 25 67  1  0
 25 68  1  0
 25 69  1  0
 26 70  1  0
 26 71  1  0
 26 72  1  0
 28 73  1  0
 28 74  1  0
 28 75  1  0
 29 76  1  0
 29 77  1  0
 30 78  1  0
 30 79  1  0
 32 80  1  0
 32 81  1  0
 32 82  1  0
M  END
>  <meeko>  (18) 
{"is_sidechain": [false], "intermolecular_energy": 2.731, "internal_energy": -0.839}

$$$$
EPH_relaxed_0001_pdb2pqr_Repair_352_r2_0001_out
     RDKit          3D

 82 86  0  0  0  0  0  0  0  0999 V2000
    3.2030   11.3510   -4.2360 C   0  0  0  0  0  0  0  0  0  0  0  0
    2.0510   11.8860   -5.0920 C   0  0  2  0  0  0  0  0  0  0  0  0
    2.5530   12.5810   -6.3730 C   0  0  0  0  0  0  0  0  0  0  0  0
    1.9000   13.9420   -6.6310 C   0  0  0  0  0  0  0  0  0  0  0  0
    2.3570   14.5400   -7.9270 C   0  0  2  0  0  0  0  0  0  0  0  0
    2.4520   15.9700   -7.9260 O   0  0  0  0  0  0  0  0  0  0  0  0
    1.4720   15.4010   -8.8090 C   0  0  0  0  0  0  0  0  0  0  0  0
    0.0580   15.7110   -8.4300 C   0  0  0  0  0  0  0  0  0  0  0  0
    1.8190   15.5320  -10.2590 C   0  0  0  0  0  0  0  0  0  0  0  0
    1.2010   12.8510   -4.2740 C   0  0  1  0  0  0  0  0  0  0  0  0
   -0.1950   12.2680   -3.9230 C   0  0  0  0  0  0  0  0  0  0  0  0
   -0.5610   12.8010   -2.5140 C   0  0  0  0  0  0  0  0  0  0  0  0
    0.4670   13.9240   -2.2430 C   0  0  1  0  0  0  0  0  0  0  0  0
   -0.0920   15.1710   -2.9980 C   0  0  0  0  0  0  0  0  0  0  0  0
    0.7620   14.2430   -0.7410 C   0  0  2  0  0  0  0  0  0  0  0  0
   -0.4440   14.7550    0.0660 C   0  0  0  0  0  0  0  0  0  0  0  0
   -0.6210   16.2380    0.0770 C   0  0  0  0  0  0  0  0  0  0  0  0
    0.3080   17.1390   -0.2930 C   0  0  0  0  0  0  0  0  0  0  0  0
    1.7230   16.6960   -0.6870 C   0  0  1  0  0  0  0  0  0  0  0  0
    2.7650   17.6020    0.0210 C   0  0  0  0  0  0  0  0  0  0  0  0
    2.5240   19.0850   -0.2420 C   0  0  0  0  0  0  0  0  0  0  0  0
    1.1280   19.5000    0.2160 C   0  0  2  0  0  0  0  0  0  0  0  0
    1.0610   19.3970    1.6420 O   0  0  0  0  0  0  0  0  0  0  0  0
   -0.0050   18.6500   -0.4240 C   0  0  0  0  0  0  0  0  0  0  0  0
   -0.1260   18.9930   -1.9290 C   0  0  0  0  0  0  0  0  0  0  0  0
   -1.3480   19.0760    0.2280 C   0  0  0  0  0  0  0  0  0  0  0  0
    2.0390   15.1480   -0.5090 C   0  0  1  0  0  0  0  0  0  0  0  0
    2.5250   14.8680    0.9460 C   0  0  0  0  0  0  0  0  0  0  0  0
    3.2320   14.7550   -1.4590 C   0  0  0  0  0  0  0  0  0  0  0  0
    2.8660   14.3340   -2.8950 C   0  0  0  0  0  0  0  0  0  0  0  0
    1.7490   13.2860   -2.8920 C   0  0  2  0  0  0  0  0  0  0  0  0
    2.2910   12.0120   -2.1590 C   0  0  0  0  0  0  0  0  0  0  0  0
    2.9531   11.4671   -3.1711 H   0  0  0  0  0  0  0  0  0  0  0  0
    3.3633   10.2863   -4.4611 H   0  0  0  0  0  0  0  0  0  0  0  0
    4.1199   11.9155   -4.4611 H   0  0  0  0  0  0  0  0  0  0  0  0
    1.4413   11.0246   -5.4021 H   0  0  0  0  0  0  0  0  0  0  0  0
    3.6396   12.7282   -6.2853 H   0  0  0  0  0  0  0  0  0  0  0  0
    2.2846   11.9302   -7.2182 H   0  0  0  0  0  0  0  0  0  0  0  0
    0.8081   13.8129   -6.6635 H   0  0  0  0  0  0  0  0  0  0  0  0
    2.1928   14.6222   -5.8176 H   0  0  0  0  0  0  0  0  0  0  0  0
    2.9785   13.6582   -8.1419 H   0  0  0  0  0  0  0  0  0  0  0  0
   -0.0319   15.7307   -7.3339 H   0  0  0  0  0  0  0  0  0  0  0  0
   -0.2244   16.6924   -8.8388 H   0  0  0  0  0  0  0  0  0  0  0  0
   -0.6091   14.9378   -8.8388 H   0  0  0  0  0  0  0  0  0  0  0  0
    2.8440   15.9190  -10.3572 H   0  0  0  0  0  0  0  0  0  0  0  0
    1.7512   14.5464  -10.7427 H   0  0  0  0  0  0  0  0  0  0  0  0
    1.1168   16.2269  -10.7427 H   0  0  0  0  0  0  0  0  0  0  0  0
    1.1861   13.7103   -4.9606 H   0  0  0  0  0  0  0  0  0  0  0  0
   -0.9408   12.6014   -4.6596 H   0  0  0  0  0  0  0  0  0  0  0  0
   -0.1786   11.1682   -3.9372 H   0  0  0  0  0  0  0  0  0  0  0  0
   -1.5854   13.2016   -2.5043 H   0  0  0  0  0  0  0  0  0  0  0  0
   -0.5288   12.0121   -1.7481 H   0  0  0  0  0  0  0  0  0  0  0  0
   -0.4284   15.9215   -2.2675 H   0  0  0  0  0  0  0  0  0  0  0  0
    0.6989   15.6024   -3.6292 H   0  0  0  0  0  0  0  0  0  0  0  0
   -0.9403   14.8677   -3.6292 H   0  0  0  0  0  0  0  0  0  0  0  0
    0.9964   13.2497   -0.3305 H   0  0  0  0  0  0  0  0  0  0  0  0
   -1.3535   14.3073   -0.3610 H   0  0  0  0  0  0  0  0  0  0  0  0
   -0.2576   14.4630    1.1100 H   0  0  0  0  0  0  0  0  0  0  0  0
   -1.5926   16.6267    0.4161 H   0  0  0  0  0  0  0  0  0  0  0  0
    1.7918   16.8294   -1.7767 H   0  0  0  0  0  0  0  0  0  0  0  0
    2.7100   17.4224    1.1049 H   0  0  0  0  0  0  0  0  0  0  0  0
    3.7568   17.3481   -0.3812 H   0  0  0  0  0  0  0  0  0  0  0  0
    3.2731   19.6745    0.3069 H   0  0  0  0  0  0  0  0  0  0  0  0
    2.6079   19.2682   -1.3234 H   0  0  0  0  0  0  0  0  0  0  0  0
    0.9667   20.5365   -0.1151 H   0  0  0  0  0  0  0  0  0  0  0  0
    1.9640   19.2470    1.9690 H   0  0  0  0  0  0  0  0  0  0  0  0
   -0.4900   20.0249   -2.0418 H   0  0  0  0  0  0  0  0  0  0  0  0
    0.8600   18.8977   -2.4072 H   0  0  0  0  0  0  0  0  0  0  0  0
   -0.8340   18.3001   -2.4072 H   0  0  0  0  0  0  0  0  0  0  0  0
   -1.2500   19.0449    1.3232 H   0  0  0  0  0  0  0  0  0  0  0  0
   -1.6012   20.0986   -0.0886 H   0  0  0  0  0  0  0  0  0  0  0  0
   -2.1443   18.3864   -0.0886 H   0  0  0  0  0  0  0  0  0  0  0  0
    1.8008   15.2852    1.6612 H   0  0  0  0  0  0  0  0  0  0  0  0
    2.6102   13.7824    1.1016 H   0  0  0  0  0  0  0  0  0  0  0  0
    3.5069   15.3389    1.1016 H   0  0  0  0  0  0  0  0  0  0  0  0
    3.9030   15.6239   -1.5276 H   0  0  0  0  0  0  0  0  0  0  0  0
    3.6814   13.8609   -1.0023 H   0  0  0  0  0  0  0  0  0  0  0  0
    2.5276   15.2188   -3.4540 H   0  0  0  0  0  0  0  0  0  0  0  0
    3.7564   13.8957   -3.3694 H   0  0  0  0  0  0  0  0  0  0  0  0
    2.2279   12.1603   -1.0709 H   0  0  0  0  0  0  0  0  0  0  0  0
    1.6864   11.1389   -2.4457 H   0  0  0  0  0  0  0  0  0  0  0  0
    3.3393   11.8421   -2.4457 H   0  0  0  0  0  0  0  0  0  0  0  0
  1  2  1  0
  2  3  1  0
  3  4  1  0
  4  5  1  0
  5  6  1  0
  6  7  1  0
  7  8  1  0
  7  9  1  0
  2 10  1  0
 10 11  1  0
 11 12  1  0
 12 13  1  0
 13 14  1  6
 13 15  1  0
 15 16  1  0
 16 17  1  0
 17 18  2  0
 18 19  1  0
 19 20  1  0
 20 21  1  0
 21 22  1  0
 22 23  1  0
 22 24  1  0
 24 25  1  0
 24 26  1  0
 19 27  1  0
 27 28  1  1
 27 29  1  0
 29 30  1  0
 30 31  1  0
 31 32  1  1
  7  5  1  0
 31 10  1  0
 31 13  1  0
 27 15  1  0
 24 18  1  0
  1 33  1  0
  1 34  1  0
  1 35  1  0
  2 36  1  6
  3 37  1  0
  3 38  1  0
  4 39  1  0
  4 40  1  0
  5 41  1  6
  8 42  1  0
  8 43  1  0
  8 44  1  0
  9 45  1  0
  9 46  1  0
  9 47  1  0
 10 48  1  6
 11 49  1  0
 11 50  1  0
 12 51  1  0
 12 52  1  0
 14 53  1  0
 14 54  1  0
 14 55  1  0
 15 56  1  1
 16 57  1  0
 16 58  1  0
 17 59  1  0
 19 60  1  6
 20 61  1  0
 20 62  1  0
 21 63  1  0
 21 64  1  0
 22 65  1  1
 23 66  1  0
 25 67  1  0
 25 68  1  0
 25 69  1  0
 26 70  1  0
 26 71  1  0
 26 72  1  0
 28 73  1  0
 28 74  1  0
 28 75  1  0
 29 76  1  0
 29 77  1  0
 30 78  1  0
 30 79  1  0
 32 80  1  0
 32 81  1  0
 32 82  1  0
M  END
>  <meeko>  (19) 
{"is_sidechain": [false], "intermolecular_energy": 2.731, "internal_energy": -0.839}

$$$$
EPH_relaxed_0001_pdb2pqr_Repair_352_r2_0001_out
     RDKit          3D

 82 86  0  0  0  0  0  0  0  0999 V2000
    2.7770   19.4260   -1.2080 C   0  0  0  0  0  0  0  0  0  0  0  0
    2.4640   18.3920   -2.2930 C   0  0  2  0  0  0  0  0  0  0  0  0
    0.9980   18.4690   -2.7630 C   0  0  0  0  0  0  0  0  0  0  0  0
    0.2110   19.6230   -2.1370 C   0  0  0  0  0  0  0  0  0  0  0  0
   -1.0700   19.1500   -1.5190 C   0  0  2  0  0  0  0  0  0  0  0  0
   -1.9850   20.1940   -1.1630 O   0  0  0  0  0  0  0  0  0  0  0  0
   -1.4520   19.4210   -0.0760 C   0  0  0  0  0  0  0  0  0  0  0  0
   -0.5540   20.1950    0.8370 C   0  0  0  0  0  0  0  0  0  0  0  0
   -2.4590   18.5270    0.5780 C   0  0  0  0  0  0  0  0  0  0  0  0
    2.7740   16.9910   -1.7790 C   0  0  1  0  0  0  0  0  0  0  0  0
    3.6240   17.0040   -0.4810 C   0  0  0  0  0  0  0  0  0  0  0  0
    3.1510   15.8020    0.3760 C   0  0  0  0  0  0  0  0  0  0  0  0
    2.2910   14.9510   -0.5870 C   0  0  1  0  0  0  0  0  0  0  0  0
    3.3190   14.1180   -1.4140 C   0  0  0  0  0  0  0  0  0  0  0  0
    1.2090   14.0380    0.0770 C   0  0  2  0  0  0  0  0  0  0  0  0
    1.7600   12.9460    1.0110 C   0  0  0  0  0  0  0  0  0  0  0  0
    2.0590   11.6380    0.3570 C   0  0  0  0  0  0  0  0  0  0  0  0
    1.6300   11.2560   -0.8610 C   0  0  0  0  0  0  0  0  0  0  0  0
    0.6760   12.1410   -1.6730 C   0  0  1  0  0  0  0  0  0  0  0  0
   -0.4750   11.2730   -2.2450 C   0  0  0  0  0  0  0  0  0  0  0  0
    0.0360   10.0780   -3.0450 C   0  0  0  0  0  0  0  0  0  0  0  0
    0.9340    9.1910   -2.1870 C   0  0  2  0  0  0  0  0  0  0  0  0
    0.1410    8.5910   -1.1570 O   0  0  0  0  0  0  0  0  0  0  0  0
    2.1250    9.9600   -1.5480 C   0  0  0  0  0  0  0  0  0  0  0  0
    3.1420   10.3500   -2.6480 C   0  0  0  0  0  0  0  0  0  0  0  0
    2.8680    8.9840   -0.5970 C   0  0  0  0  0  0  0  0  0  0  0  0
    0.1480   13.4480   -0.9380 C   0  0  1  0  0  0  0  0  0  0  0  0
   -1.1260   13.1100   -0.1040 C   0  0  0  0  0  0  0  0  0  0  0  0
   -0.2960   14.5020   -2.0200 C   0  0  0  0  0  0  0  0  0  0  0  0
    0.7920   15.4550   -2.5490 C   0  0  0  0  0  0  0  0  0  0  0  0
    1.5720   16.0920   -1.3950 C   0  0  2  0  0  0  0  0  0  0  0  0
    0.5670   16.9550   -0.5570 C   0  0  0  0  0  0  0  0  0  0  0  0
    2.6390   18.9702   -0.2164 H   0  0  0  0  0  0  0  0  0  0  0  0
    3.8180   19.7651   -1.3140 H   0  0  0  0  0  0  0  0  0  0  0  0
    2.0988   20.2855   -1.3140 H   0  0  0  0  0  0  0  0  0  0  0  0
    3.1004   18.6192   -3.1610 H   0  0  0  0  0  0  0  0  0  0  0  0
    0.9898   18.5955   -3.8557 H   0  0  0  0  0  0  0  0  0  0  0  0
    0.5090   17.5365   -2.4448 H   0  0  0  0  0  0  0  0  0  0  0  0
    0.8290   20.0952   -1.3591 H   0  0  0  0  0  0  0  0  0  0  0  0
   -0.0370   20.3404   -2.9332 H   0  0  0  0  0  0  0  0  0  0  0  0
   -1.0431   18.2254   -2.1143 H   0  0  0  0  0  0  0  0  0  0  0  0
   -0.8133   19.9715    1.8824 H   0  0  0  0  0  0  0  0  0  0  0  0
    0.4921   19.9109    0.6499 H   0  0  0  0  0  0  0  0  0  0  0  0
   -0.6807   21.2715    0.6499 H   0  0  0  0  0  0  0  0  0  0  0  0
   -2.3668   18.6088    1.6711 H   0  0  0  0  0  0  0  0  0  0  0  0
   -3.4713   18.8293    0.2717 H   0  0  0  0  0  0  0  0  0  0  0  0
   -2.2788   17.4860    0.2717 H   0  0  0  0  0  0  0  0  0  0  0  0
    3.2842   16.5802   -2.6627 H   0  0  0  0  0  0  0  0  0  0  0  0
    4.6911   16.8978   -0.7260 H   0  0  0  0  0  0  0  0  0  0  0  0
    3.4980   17.9512    0.0639 H   0  0  0  0  0  0  0  0  0  0  0  0
    4.0119   15.2234    0.7421 H   0  0  0  0  0  0  0  0  0  0  0  0
    2.5892   16.1200    1.2666 H   0  0  0  0  0  0  0  0  0  0  0  0
    3.9876   13.5762   -0.7289 H   0  0  0  0  0  0  0  0  0  0  0  0
    2.7816   13.3975   -2.0481 H   0  0  0  0  0  0  0  0  0  0  0  0
    3.9125   14.7931   -2.0481 H   0  0  0  0  0  0  0  0  0  0  0  0
    0.6716   14.7440    0.7272 H   0  0  0  0  0  0  0  0  0  0  0  0
    2.6909   13.3216    1.4608 H   0  0  0  0  0  0  0  0  0  0  0  0
    0.9657   12.7444    1.7448 H   0  0  0  0  0  0  0  0  0  0  0  0
    2.6825   10.9258    0.9174 H   0  0  0  0  0  0  0  0  0  0  0  0
    1.2743   12.5570   -2.4970 H   0  0  0  0  0  0  0  0  0  0  0  0
   -1.0863   10.9024   -1.4089 H   0  0  0  0  0  0  0  0  0  0  0  0
   -1.0629   11.9049   -2.9270 H   0  0  0  0  0  0  0  0  0  0  0  0
   -0.8223    9.4873   -3.3977 H   0  0  0  0  0  0  0  0  0  0  0  0
    0.6224   10.4511   -3.8976 H   0  0  0  0  0  0  0  0  0  0  0  0
    1.3715    8.4278   -2.8474 H   0  0  0  0  0  0  0  0  0  0  0  0
    0.6110    8.7140   -0.3150 H   0  0  0  0  0  0  0  0  0  0  0  0
    4.0710   10.7062   -2.1788 H   0  0  0  0  0  0  0  0  0  0  0  0
    3.3604    9.4718   -3.2734 H   0  0  0  0  0  0  0  0  0  0  0  0
    2.7173   11.1490   -3.2734 H   0  0  0  0  0  0  0  0  0  0  0  0
    2.6586    9.2590    0.4473 H   0  0  0  0  0  0  0  0  0  0  0  0
    2.5213    7.9566   -0.7821 H   0  0  0  0  0  0  0  0  0  0  0  0
    3.9506    9.0447   -0.7821 H   0  0  0  0  0  0  0  0  0  0  0  0
   -0.8895   13.1727    0.9684 H   0  0  0  0  0  0  0  0  0  0  0  0
   -1.9238   13.8276   -0.3461 H   0  0  0  0  0  0  0  0  0  0  0  0
   -1.4632   12.0913   -0.3461 H   0  0  0  0  0  0  0  0  0  0  0  0
   -0.6986   13.9466   -2.8799 H   0  0  0  0  0  0  0  0  0  0  0  0
   -1.0226   15.1505   -1.5087 H   0  0  0  0  0  0  0  0  0  0  0  0
    1.4885   14.8884   -3.1845 H   0  0  0  0  0  0  0  0  0  0  0  0
    0.3064   16.2548   -3.1274 H   0  0  0  0  0  0  0  0  0  0  0  0
    0.7526   16.7957    0.5155 H   0  0  0  0  0  0  0  0  0  0  0  0
    0.7067   18.0189   -0.7992 H   0  0  0  0  0  0  0  0  0  0  0  0
   -0.4635   16.6561   -0.7992 H   0  0  0  0  0  0  0  0  0  0  0  0
  1  2  1  0
  2  3  1  0
  3  4  1  0
  4  5  1  0
  5  6  1  0
  6  7  1  0
  7  8  1  0
  7  9  1  0
  2 10  1  0
 10 11  1  0
 11 12  1  0
 12 13  1  0
 13 14  1  6
 13 15  1  0
 15 16  1  0
 16 17  1  0
 17 18  2  0
 18 19  1  0
 19 20  1  0
 20 21  1  0
 21 22  1  0
 22 23  1  0
 22 24  1  0
 24 25  1  0
 24 26  1  0
 19 27  1  0
 27 28  1  1
 27 29  1  0
 29 30  1  0
 30 31  1  0
 31 32  1  1
  7  5  1  0
 31 10  1  0
 31 13  1  0
 27 15  1  0
 24 18  1  0
  1 33  1  0
  1 34  1  0
  1 35  1  0
  2 36  1  6
  3 37  1  0
  3 38  1  0
  4 39  1  0
  4 40  1  0
  5 41  1  6
  8 42  1  0
  8 43  1  0
  8 44  1  0
  9 45  1  0
  9 46  1  0
  9 47  1  0
 10 48  1  6
 11 49  1  0
 11 50  1  0
 12 51  1  0
 12 52  1  0
 14 53  1  0
 14 54  1  0
 14 55  1  0
 15 56  1  1
 16 57  1  0
 16 58  1  0
 17 59  1  0
 19 60  1  6
 20 61  1  0
 20 62  1  0
 21 63  1  0
 21 64  1  0
 22 65  1  6
 23 66  1  0
 25 67  1  0
 25 68  1  0
 25 69  1  0
 26 70  1  0
 26 71  1  0
 26 72  1  0
 28 73  1  0
 28 74  1  0
 28 75  1  0
 29 76  1  0
 29 77  1  0
 30 78  1  0
 30 79  1  0
 32 80  1  0
 32 81  1  0
 32 82  1  0
M  END
>  <meeko>  (20) 
{"is_sidechain": [false], "intermolecular_energy": 2.731, "internal_energy": -0.839}

$$$$
