EPH_relaxed_0001_pdb2pqr_Repair_305_r2_0001_out
     RDKit          3D

 82 86  0  0  0  0  0  0  0  0999 V2000
    3.1930   17.3580   -2.7480 C   0  0  0  0  0  0  0  0  0  0  0  0
    1.7900   17.5140   -3.3430 C   0  0  2  0  0  0  0  0  0  0  0  0
    0.9010   18.4470   -2.4970 C   0  0  0  0  0  0  0  0  0  0  0  0
    0.8360   18.0610   -1.0170 C   0  0  0  0  0  0  0  0  0  0  0  0
    1.1800   19.2160   -0.1270 C   0  0  2  0  0  0  0  0  0  0  0  0
    2.3060   19.9910   -0.5600 O   0  0  0  0  0  0  0  0  0  0  0  0
    2.4590   19.2930    0.6870 C   0  0  0  0  0  0  0  0  0  0  0  0
    3.4750   18.1950    0.6500 C   0  0  0  0  0  0  0  0  0  0  0  0
    2.4930   20.1940    1.8820 C   0  0  0  0  0  0  0  0  0  0  0  0
    1.1290   16.1470   -3.4790 C   0  0  1  0  0  0  0  0  0  0  0  0
    0.8330   15.7720   -4.9560 C   0  0  0  0  0  0  0  0  0  0  0  0
    1.0330   14.2390   -5.0760 C   0  0  0  0  0  0  0  0  0  0  0  0
    1.1100   13.7400   -3.6140 C   0  0  1  0  0  0  0  0  0  0  0  0
   -0.3750   13.6350   -3.1470 C   0  0  0  0  0  0  0  0  0  0  0  0
    1.8840   12.4010   -3.3810 C   0  0  2  0  0  0  0  0  0  0  0  0
    1.2790   11.1680   -4.0750 C   0  0  0  0  0  0  0  0  0  0  0  0
    0.2820   10.4060   -3.2660 C   0  0  0  0  0  0  0  0  0  0  0  0
    0.0960   10.5270   -1.9380 C   0  0  0  0  0  0  0  0  0  0  0  0
    1.0030   11.4330   -1.0950 C   0  0  1  0  0  0  0  0  0  0  0  0
    1.4500   10.6740    0.1820 C   0  0  0  0  0  0  0  0  0  0  0  0
    0.2700   10.1250    0.9790 C   0  0  0  0  0  0  0  0  0  0  0  0
   -0.5740    9.1830    0.1240 C   0  0  2  0  0  0  0  0  0  0  0  0
    0.1980    8.0170   -0.1770 O   0  0  0  0  0  0  0  0  0  0  0  0
   -1.0730    9.8350   -1.1950 C   0  0  0  0  0  0  0  0  0  0  0  0
   -2.1460   10.9060   -0.8740 C   0  0  0  0  0  0  0  0  0  0  0  0
   -1.7910    8.7390   -2.0280 C   0  0  0  0  0  0  0  0  0  0  0  0
    2.2220   12.1030   -1.8640 C   0  0  1  0  0  0  0  0  0  0  0  0
    3.4470   11.1390   -1.8620 C   0  0  0  0  0  0  0  0  0  0  0  0
    2.6720   13.3960   -1.0870 C   0  0  0  0  0  0  0  0  0  0  0  0
    1.9520   14.7090   -1.4470 C   0  0  0  0  0  0  0  0  0  0  0  0
    1.9210   14.9190   -2.9630 C   0  0  2  0  0  0  0  0  0  0  0  0
    3.4010   15.0500   -3.4590 C   0  0  0  0  0  0  0  0  0  0  0  0
    3.1285   17.3652   -1.6499 H   0  0  0  0  0  0  0  0  0  0  0  0
    3.6297   16.4058   -3.0834 H   0  0  0  0  0  0  0  0  0  0  0  0
    3.8282   18.1910   -3.0834 H   0  0  0  0  0  0  0  0  0  0  0  0
    1.9005   17.9745   -4.3358 H   0  0  0  0  0  0  0  0  0  0  0  0
    1.3004   19.4692   -2.5719 H   0  0  0  0  0  0  0  0  0  0  0  0
   -0.1210   18.3651   -2.8954 H   0  0  0  0  0  0  0  0  0  0  0  0
   -0.1834   17.7211   -0.7818 H   0  0  0  0  0  0  0  0  0  0  0  0
    1.5695   17.2609   -0.8390 H   0  0  0  0  0  0  0  0  0  0  0  0
    0.1229   19.3519    0.1450 H   0  0  0  0  0  0  0  0  0  0  0  0
    3.7414   17.9071    1.6777 H   0  0  0  0  0  0  0  0  0  0  0  0
    3.0560   17.3254    0.1225 H   0  0  0  0  0  0  0  0  0  0  0  0
    4.3745   18.5454    0.1225 H   0  0  0  0  0  0  0  0  0  0  0  0
    2.4701   19.5874    2.7993 H   0  0  0  0  0  0  0  0  0  0  0  0
    3.4144   20.7945    1.8624 H   0  0  0  0  0  0  0  0  0  0  0  0
    1.6194   20.8622    1.8624 H   0  0  0  0  0  0  0  0  0  0  0  0
    0.2385   16.3092   -2.8539 H   0  0  0  0  0  0  0  0  0  0  0  0
   -0.2017   16.0406   -5.2151 H   0  0  0  0  0  0  0  0  0  0  0  0
    1.5009   16.3128   -5.6427 H   0  0  0  0  0  0  0  0  0  0  0  0
    0.1836   13.7764   -5.6000 H   0  0  0  0  0  0  0  0  0  0  0  0
    1.9327   13.9796   -5.6533 H   0  0  0  0  0  0  0  0  0  0  0  0
   -0.4143   13.6322   -2.0477 H   0  0  0  0  0  0  0  0  0  0  0  0
   -0.9422   14.4953   -3.5320 H   0  0  0  0  0  0  0  0  0  0  0  0
   -0.8155   12.7035   -3.5320 H   0  0  0  0  0  0  0  0  0  0  0  0
    2.8407   12.5903   -3.8897 H   0  0  0  0  0  0  0  0  0  0  0  0
    0.7820   11.5062   -4.9962 H   0  0  0  0  0  0  0  0  0  0  0  0
    2.1167   10.4780   -4.2542 H   0  0  0  0  0  0  0  0  0  0  0  0
   -0.3543    9.6849   -3.8000 H   0  0  0  0  0  0  0  0  0  0  0  0
    0.3898   12.3030   -0.8173 H   0  0  0  0  0  0  0  0  0  0  0  0
    2.0963    9.8348   -0.1146 H   0  0  0  0  0  0  0  0  0  0  0  0
    1.9844   11.3884    0.8255 H   0  0  0  0  0  0  0  0  0  0  0  0
    0.6501    9.5751    1.8526 H   0  0  0  0  0  0  0  0  0  0  0  0
   -0.3600   10.9678    1.2997 H   0  0  0  0  0  0  0  0  0  0  0  0
   -1.4717    8.9252    0.7051 H   0  0  0  0  0  0  0  0  0  0  0  0
    0.9630    8.3000   -0.7070 H   0  0  0  0  0  0  0  0  0  0  0  0
   -2.2478   11.0076    0.2165 H   0  0  0  0  0  0  0  0  0  0  0  0
   -1.8414   11.8710   -1.3053 H   0  0  0  0  0  0  0  0  0  0  0  0
   -3.1104   10.5996   -1.3053 H   0  0  0  0  0  0  0  0  0  0  0  0
   -2.2655    8.0147   -1.3495 H   0  0  0  0  0  0  0  0  0  0  0  0
   -2.5594    9.2051   -2.6623 H   0  0  0  0  0  0  0  0  0  0  0  0
   -1.0568    8.2207   -2.6623 H   0  0  0  0  0  0  0  0  0  0  0  0
    3.7341   10.9131   -0.8244 H   0  0  0  0  0  0  0  0  0  0  0  0
    3.1802   10.2060   -2.3801 H   0  0  0  0  0  0  0  0  0  0  0  0
    4.2911   11.6176   -2.3801 H   0  0  0  0  0  0  0  0  0  0  0  0
    2.5120   13.2121   -0.0143 H   0  0  0  0  0  0  0  0  0  0  0  0
    3.7213   13.5548   -1.3763 H   0  0  0  0  0  0  0  0  0  0  0  0
    0.9201   14.6691   -1.0681 H   0  0  0  0  0  0  0  0  0  0  0  0
    2.4986   15.5460   -0.9881 H   0  0  0  0  0  0  0  0  0  0  0  0
    4.0746   15.1096   -2.5914 H   0  0  0  0  0  0  0  0  0  0  0  0
    3.6631   14.1715   -4.0670 H   0  0  0  0  0  0  0  0  0  0  0  0
    3.5047   15.9608   -4.0670 H   0  0  0  0  0  0  0  0  0  0  0  0
  1  2  1  0
  2  3  1  0
  3  4  1  0
  4  5  1  0
  5  6  1  0
  6  7  1  0
  7  8  1  0
  7  9  1  0
  2 10  1  0
 10 11  1  0
 11 12  1  0
 12 13  1  0
 13 14  1  1
 13 15  1  0
 15 16  1  0
 16 17  1  0
 17 18  2  0
 18 19  1  0
 19 20  1  0
 20 21  1  0
 21 22  1  0
 22 23  1  0
 22 24  1  0
 24 25  1  0
 24 26  1  0
 19 27  1  0
 27 28  1  6
 27 29  1  0
 29 30  1  0
 30 31  1  0
 31 32  1  6
  7  5  1  0
 31 10  1  0
 31 13  1  0
 27 15  1  0
 24 18  1  0
  1 33  1  0
  1 34  1  0
  1 35  1  0
  2 36  1  6
  3 37  1  0
  3 38  1  0
  4 39  1  0
  4 40  1  0
  5 41  1  1
  8 42  1  0
  8 43  1  0
  8 44  1  0
  9 45  1  0
  9 46  1  0
  9 47  1  0
 10 48  1  1
 11 49  1  0
 11 50  1  0
 12 51  1  0
 12 52  1  0
 14 53  1  0
 14 54  1  0
 14 55  1  0
 15 56  1  6
 16 57  1  0
 16 58  1  0
 17 59  1  0
 19 60  1  1
 20 61  1  0
 20 62  1  0
 21 63  1  0
 21 64  1  0
 22 65  1  1
 23 66  1  0
 25 67  1  0
 25 68  1  0
 25 69  1  0
 26 70  1  0
 26 71  1  0
 26 72  1  0
 28 73  1  0
 28 74  1  0
 28 75  1  0
 29 76  1  0
 29 77  1  0
 30 78  1  0
 30 79  1  0
 32 80  1  0
 32 81  1  0
 32 82  1  0
M  END
>  <meeko>  (1) 
{"is_sidechain": [false], "intermolecular_energy": 2.731, "internal_energy": -0.839}

$$$$
EPH_relaxed_0001_pdb2pqr_Repair_305_r2_0001_out
     RDKit          3D

 82 86  0  0  0  0  0  0  0  0999 V2000
    3.8850   17.4160   -3.8390 C   0  0  0  0  0  0  0  0  0  0  0  0
    2.5510   17.4340   -3.0860 C   0  0  2  0  0  0  0  0  0  0  0  0
    2.7390   17.6930   -1.5780 C   0  0  0  0  0  0  0  0  0  0  0  0
    2.1200   19.0080   -1.0970 C   0  0  0  0  0  0  0  0  0  0  0  0
    0.8390   18.7790   -0.3540 C   0  0  2  0  0  0  0  0  0  0  0  0
    0.0550   17.6800   -0.8370 O   0  0  0  0  0  0  0  0  0  0  0  0
   -0.5330   18.9850   -0.9680 C   0  0  0  0  0  0  0  0  0  0  0  0
   -0.6940   19.4400   -2.3840 C   0  0  0  0  0  0  0  0  0  0  0  0
   -1.6980   19.2150   -0.0560 C   0  0  0  0  0  0  0  0  0  0  0  0
    1.8160   16.1170   -3.3010 C   0  0  1  0  0  0  0  0  0  0  0  0
    1.6930   15.7390   -4.8020 C   0  0  0  0  0  0  0  0  0  0  0  0
    1.7950   14.1940   -4.8840 C   0  0  0  0  0  0  0  0  0  0  0  0
    1.6390   13.7150   -3.4220 C   0  0  1  0  0  0  0  0  0  0  0  0
    0.1010   13.7250   -3.1580 C   0  0  0  0  0  0  0  0  0  0  0  0
    2.2750   12.3280   -3.0780 C   0  0  2  0  0  0  0  0  0  0  0  0
    1.6790   11.1310   -3.8390 C   0  0  0  0  0  0  0  0  0  0  0  0
    0.5300   10.4560   -3.1660 C   0  0  0  0  0  0  0  0  0  0  0  0
    0.1780   10.6110   -1.8760 C   0  0  0  0  0  0  0  0  0  0  0  0
    1.0270   11.4630   -0.9250 C   0  0  1  0  0  0  0  0  0  0  0  0
    1.2420   10.6950    0.4060 C   0  0  0  0  0  0  0  0  0  0  0  0
   -0.0700   10.2450    1.0400 C   0  0  0  0  0  0  0  0  0  0  0  0
   -0.8590    9.3530    0.0860 C   0  0  2  0  0  0  0  0  0  0  0  0
   -0.1410    8.1290   -0.1010 O   0  0  0  0  0  0  0  0  0  0  0  0
   -1.1280   10.0170   -1.2930 C   0  0  0  0  0  0  0  0  0  0  0  0
   -2.1530   11.1670   -1.1260 C   0  0  0  0  0  0  0  0  0  0  0  0
   -1.8060    8.9610   -2.2070 C   0  0  0  0  0  0  0  0  0  0  0  0
    2.3840   12.0310   -1.5280 C   0  0  1  0  0  0  0  0  0  0  0  0
    3.5240   10.9820   -1.3540 C   0  0  0  0  0  0  0  0  0  0  0  0
    2.8190   13.3010   -0.7050 C   0  0  0  0  0  0  0  0  0  0  0  0
    2.2520   14.6570   -1.1670 C   0  0  0  0  0  0  0  0  0  0  0  0
    2.4390   14.8440   -2.6760 C   0  0  2  0  0  0  0  0  0  0  0  0
    3.9780   14.8600   -2.9690 C   0  0  0  0  0  0  0  0  0  0  0  0
    4.7140   17.4048   -3.1161 H   0  0  0  0  0  0  0  0  0  0  0  0
    3.9373   16.5171   -4.4708 H   0  0  0  0  0  0  0  0  0  0  0  0
    3.9615   18.3132   -4.4708 H   0  0  0  0  0  0  0  0  0  0  0  0
    1.9531   18.2638   -3.4909 H   0  0  0  0  0  0  0  0  0  0  0  0
    2.2722   16.8660   -1.0229 H   0  0  0  0  0  0  0  0  0  0  0  0
    3.8217   17.7623   -1.3965 H   0  0  0  0  0  0  0  0  0  0  0  0
    2.8331   19.5147   -0.4301 H   0  0  0  0  0  0  0  0  0  0  0  0
    1.8984   19.6256   -1.9799 H   0  0  0  0  0  0  0  0  0  0  0  0
    1.2900   19.1405    0.5819 H   0  0  0  0  0  0  0  0  0  0  0  0
   -1.0609   20.4769   -2.3965 H   0  0  0  0  0  0  0  0  0  0  0  0
    0.2770   19.3884   -2.8984 H   0  0  0  0  0  0  0  0  0  0  0  0
   -1.4164   18.7892   -2.8984 H   0  0  0  0  0  0  0  0  0  0  0  0
   -1.3636   19.1490    0.9898 H   0  0  0  0  0  0  0  0  0  0  0  0
   -2.1192   20.2136   -0.2439 H   0  0  0  0  0  0  0  0  0  0  0  0
   -2.4671   18.4514   -0.2439 H   0  0  0  0  0  0  0  0  0  0  0  0
    0.8646   16.3542   -2.8025 H   0  0  0  0  0  0  0  0  0  0  0  0
    0.7244   16.0763   -5.1994 H   0  0  0  0  0  0  0  0  0  0  0  0
    2.4843   16.2192   -5.3964 H   0  0  0  0  0  0  0  0  0  0  0  0
    0.9920   13.7847   -5.5146 H   0  0  0  0  0  0  0  0  0  0  0  0
    2.7425   13.8616   -5.3332 H   0  0  0  0  0  0  0  0  0  0  0  0
   -0.0849   13.7262   -2.0738 H   0  0  0  0  0  0  0  0  0  0  0  0
   -0.3423   14.6260   -3.6070 H   0  0  0  0  0  0  0  0  0  0  0  0
   -0.3539   12.8298   -3.6070 H   0  0  0  0  0  0  0  0  0  0  0  0
    3.3027   12.4400   -3.4539 H   0  0  0  0  0  0  0  0  0  0  0  0
    1.3353   11.4892   -4.8206 H   0  0  0  0  0  0  0  0  0  0  0  0
    2.4801   10.3797   -3.9002 H   0  0  0  0  0  0  0  0  0  0  0  0
   -0.0808    9.7742   -3.7760 H   0  0  0  0  0  0  0  0  0  0  0  0
    0.4477   12.3792   -0.7378 H   0  0  0  0  0  0  0  0  0  0  0  0
    1.8593    9.8070    0.2050 H   0  0  0  0  0  0  0  0  0  0  0  0
    1.7357   11.3802    1.1108 H   0  0  0  0  0  0  0  0  0  0  0  0
    0.1488    9.6832    1.9601 H   0  0  0  0  0  0  0  0  0  0  0  0
   -0.6736   11.1359    1.2677 H   0  0  0  0  0  0  0  0  0  0  0  0
   -1.8428    9.1707    0.5430 H   0  0  0  0  0  0  0  0  0  0  0  0
    0.0910    7.7870    0.7790 H   0  0  0  0  0  0  0  0  0  0  0  0
   -2.3212   11.3557   -0.0554 H   0  0  0  0  0  0  0  0  0  0  0  0
   -1.7623   12.0784   -1.6020 H   0  0  0  0  0  0  0  0  0  0  0  0
   -3.1032   10.8832   -1.6020 H   0  0  0  0  0  0  0  0  0  0  0  0
   -2.2960    8.1978   -1.5846 H   0  0  0  0  0  0  0  0  0  0  0  0
   -2.5570    9.4537   -2.8420 H   0  0  0  0  0  0  0  0  0  0  0  0
   -1.0454    8.4832   -2.8420 H   0  0  0  0  0  0  0  0  0  0  0  0
    3.7069   10.8137   -0.2825 H   0  0  0  0  0  0  0  0  0  0  0  0
    3.2266   10.0352   -1.8284 H   0  0  0  0  0  0  0  0  0  0  0  0
    4.4429   11.3570   -1.8284 H   0  0  0  0  0  0  0  0  0  0  0  0
    2.5032   13.1461    0.3372 H   0  0  0  0  0  0  0  0  0  0  0  0
    3.9065   13.3794   -0.8509 H   0  0  0  0  0  0  0  0  0  0  0  0
    1.1787   14.6980   -0.9296 H   0  0  0  0  0  0  0  0  0  0  0  0
    2.7928   15.4597   -0.6444 H   0  0  0  0  0  0  0  0  0  0  0  0
    4.5321   14.8658   -2.0188 H   0  0  0  0  0  0  0  0  0  0  0  0
    4.2505   13.9646   -3.5470 H   0  0  0  0  0  0  0  0  0  0  0  0
    4.2319   15.7608   -3.5470 H   0  0  0  0  0  0  0  0  0  0  0  0
  1  2  1  0
  2  3  1  0
  3  4  1  0
  4  5  1  0
  5  6  1  0
  6  7  1  0
  7  8  1  0
  7  9  1  0
  2 10  1  0
 10 11  1  0
 11 12  1  0
 12 13  1  0
 13 14  1  1
 13 15  1  0
 15 16  1  0
 16 17  1  0
 17 18  2  0
 18 19  1  0
 19 20  1  0
 20 21  1  0
 21 22  1  0
 22 23  1  0
 22 24  1  0
 24 25  1  0
 24 26  1  0
 19 27  1  0
 27 28  1  6
 27 29  1  0
 29 30  1  0
 30 31  1  0
 31 32  1  1
  7  5  1  0
 31 10  1  0
 31 13  1  0
 27 15  1  0
 24 18  1  0
  1 33  1  0
  1 34  1  0
  1 35  1  0
  2 36  1  6
  3 37  1  0
  3 38  1  0
  4 39  1  0
  4 40  1  0
  5 41  1  1
  8 42  1  0
  8 43  1  0
  8 44  1  0
  9 45  1  0
  9 46  1  0
  9 47  1  0
 10 48  1  1
 11 49  1  0
 11 50  1  0
 12 51  1  0
 12 52  1  0
 14 53  1  0
 14 54  1  0
 14 55  1  0
 15 56  1  6
 16 57  1  0
 16 58  1  0
 17 59  1  0
 19 60  1  1
 20 61  1  0
 20 62  1  0
 21 63  1  0
 21 64  1  0
 22 65  1  1
 23 66  1  0
 25 67  1  0
 25 68  1  0
 25 69  1  0
 26 70  1  0
 26 71  1  0
 26 72  1  0
 28 73  1  0
 28 74  1  0
 28 75  1  0
 29 76  1  0
 29 77  1  0
 30 78  1  0
 30 79  1  0
 32 80  1  0
 32 81  1  0
 32 82  1  0
M  END
>  <meeko>  (2) 
{"is_sidechain": [false], "intermolecular_energy": 2.731, "internal_energy": -0.839}

$$$$
EPH_relaxed_0001_pdb2pqr_Repair_305_r2_0001_out
     RDKit          3D

 82 86  0  0  0  0  0  0  0  0999 V2000
    4.8570   17.2010   -1.4940 C   0  0  0  0  0  0  0  0  0  0  0  0
    3.5030   17.9100   -1.3940 C   0  0  2  0  0  0  0  0  0  0  0  0
    3.4510   18.8960   -0.2110 C   0  0  0  0  0  0  0  0  0  0  0  0
    3.7930   18.2580    1.1380 C   0  0  0  0  0  0  0  0  0  0  0  0
    3.8120   19.2720    2.2420 C   0  0  2  0  0  0  0  0  0  0  0  0
    4.9080   20.1940    2.1890 O   0  0  0  0  0  0  0  0  0  0  0  0
    4.8770   19.3120    3.3220 C   0  0  0  0  0  0  0  0  0  0  0  0
    5.9960   18.3190    3.3520 C   0  0  0  0  0  0  0  0  0  0  0  0
    4.5600   20.0010    4.6130 C   0  0  0  0  0  0  0  0  0  0  0  0
    2.3860   16.8810   -1.2650 C   0  0  1  0  0  0  0  0  0  0  0  0
    0.9900   17.4690   -1.6040 C   0  0  0  0  0  0  0  0  0  0  0  0
    0.1830   16.3370   -2.2900 C   0  0  0  0  0  0  0  0  0  0  0  0
    1.0070   15.0550   -2.0270 C   0  0  1  0  0  0  0  0  0  0  0  0
    0.6230   14.6220   -0.5770 C   0  0  0  0  0  0  0  0  0  0  0  0
    0.8130   13.8870   -3.0480 C   0  0  2  0  0  0  0  0  0  0  0  0
   -0.6100   13.3060   -3.1130 C   0  0  0  0  0  0  0  0  0  0  0  0
   -0.8760   12.1660   -2.1870 C   0  0  0  0  0  0  0  0  0  0  0  0
    0.0620   11.4450   -1.5450 C   0  0  0  0  0  0  0  0  0  0  0  0
    1.5550   11.6900   -1.7990 C   0  0  1  0  0  0  0  0  0  0  0  0
    2.2740   10.3310   -2.0060 C   0  0  0  0  0  0  0  0  0  0  0  0
    2.0300    9.3590   -0.8560 C   0  0  0  0  0  0  0  0  0  0  0  0
    0.5380    9.0950   -0.6720 C   0  0  2  0  0  0  0  0  0  0  0  0
    0.0500    8.3890   -1.8170 O   0  0  0  0  0  0  0  0  0  0  0  0
   -0.2930   10.3930   -0.4650 C   0  0  0  0  0  0  0  0  0  0  0  0
    0.0250   10.9980    0.9250 C   0  0  0  0  0  0  0  0  0  0  0  0
   -1.7940    9.9990   -0.4340 C   0  0  0  0  0  0  0  0  0  0  0  0
    1.9010   12.7430   -2.9380 C   0  0  1  0  0  0  0  0  0  0  0  0
    1.9410   12.0320   -4.3250 C   0  0  0  0  0  0  0  0  0  0  0  0
    3.3470   13.3130   -2.6890 C   0  0  0  0  0  0  0  0  0  0  0  0
    3.4600   14.5410   -1.7650 C   0  0  0  0  0  0  0  0  0  0  0  0
    2.4630   15.6290   -2.1750 C   0  0  2  0  0  0  0  0  0  0  0  0
    2.8380   16.1000   -3.6220 C   0  0  0  0  0  0  0  0  0  0  0  0
    5.2411   16.9999   -0.4831 H   0  0  0  0  0  0  0  0  0  0  0  0
    4.7345   16.2513   -2.0354 H   0  0  0  0  0  0  0  0  0  0  0  0
    5.5678   17.8426   -2.0354 H   0  0  0  0  0  0  0  0  0  0  0  0
    3.3654   18.4936   -2.3162 H   0  0  0  0  0  0  0  0  0  0  0  0
    4.1686   19.7072   -0.4033 H   0  0  0  0  0  0  0  0  0  0  0  0
    2.4152   19.2595   -0.1411 H   0  0  0  0  0  0  0  0  0  0  0  0
    3.0394   17.4914    1.3710 H   0  0  0  0  0  0  0  0  0  0  0  0
    4.7967   17.8141    1.0628 H   0  0  0  0  0  0  0  0  0  0  0  0
    2.7130   19.2771    2.2886 H   0  0  0  0  0  0  0  0  0  0  0  0
    6.2546   18.0895    4.3962 H   0  0  0  0  0  0  0  0  0  0  0  0
    5.6818   17.3970    2.8409 H   0  0  0  0  0  0  0  0  0  0  0  0
    6.8741   18.7406    2.8409 H   0  0  0  0  0  0  0  0  0  0  0  0
    4.8561   19.3574    5.4545 H   0  0  0  0  0  0  0  0  0  0  0  0
    5.1114   20.9513    4.6665 H   0  0  0  0  0  0  0  0  0  0  0  0
    3.4796   20.2005    4.6665 H   0  0  0  0  0  0  0  0  0  0  0  0
    2.5240   16.5903   -0.2131 H   0  0  0  0  0  0  0  0  0  0  0  0
    0.4816   17.7927   -0.6838 H   0  0  0  0  0  0  0  0  0  0  0  0
    1.0797   18.3454   -2.2627 H   0  0  0  0  0  0  0  0  0  0  0  0
   -0.8200   16.2516   -1.8465 H   0  0  0  0  0  0  0  0  0  0  0  0
    0.0334   16.5234   -3.3637 H   0  0  0  0  0  0  0  0  0  0  0  0
    1.1719   15.2409    0.1480 H   0  0  0  0  0  0  0  0  0  0  0  0
   -0.4587   14.7559   -0.4287 H   0  0  0  0  0  0  0  0  0  0  0  0
    0.8852   13.5641   -0.4287 H   0  0  0  0  0  0  0  0  0  0  0  0
    0.9740   14.3887   -4.0136 H   0  0  0  0  0  0  0  0  0  0  0  0
   -1.3178   14.1126   -2.8713 H   0  0  0  0  0  0  0  0  0  0  0  0
   -0.7291   12.9057   -4.1306 H   0  0  0  0  0  0  0  0  0  0  0  0
   -1.9273   11.8919   -2.0147 H   0  0  0  0  0  0  0  0  0  0  0  0
    1.9408   12.1830   -0.8945 H   0  0  0  0  0  0  0  0  0  0  0  0
    1.9056    9.8754   -2.9370 H   0  0  0  0  0  0  0  0  0  0  0  0
    3.3551   10.5289   -2.0523 H   0  0  0  0  0  0  0  0  0  0  0  0
    2.5396    8.4087   -1.0736 H   0  0  0  0  0  0  0  0  0  0  0  0
    2.4245    9.8039    0.0694 H   0  0  0  0  0  0  0  0  0  0  0  0
    0.4193    8.4971    0.2437 H   0  0  0  0  0  0  0  0  0  0  0  0
    0.6790    8.5370   -2.5430 H   0  0  0  0  0  0  0  0  0  0  0  0
   -0.3327   10.3174    1.7117 H   0  0  0  0  0  0  0  0  0  0  0  0
    1.1118   11.1352    1.0252 H   0  0  0  0  0  0  0  0  0  0  0  0
   -0.4782   11.9710    1.0252 H   0  0  0  0  0  0  0  0  0  0  0  0
   -2.1285    9.9112    0.6102 H   0  0  0  0  0  0  0  0  0  0  0  0
   -2.3866   10.7720   -0.9451 H   0  0  0  0  0  0  0  0  0  0  0  0
   -1.9306    9.0346   -0.9451 H   0  0  0  0  0  0  0  0  0  0  0  0
    2.0022   10.9437   -4.1775 H   0  0  0  0  0  0  0  0  0  0  0  0
    1.0278   12.2749   -4.8880 H   0  0  0  0  0  0  0  0  0  0  0  0
    2.8212   12.3758   -4.8880 H   0  0  0  0  0  0  0  0  0  0  0  0
    3.9508   12.5070   -2.2466 H   0  0  0  0  0  0  0  0  0  0  0  0
    3.6929   13.6608   -3.6736 H   0  0  0  0  0  0  0  0  0  0  0  0
    3.2510   14.2330   -0.7299 H   0  0  0  0  0  0  0  0  0  0  0  0
    4.4781   14.9492   -1.8470 H   0  0  0  0  0  0  0  0  0  0  0  0
    3.5221   16.9593   -3.5621 H   0  0  0  0  0  0  0  0  0  0  0  0
    3.3302   15.2762   -4.1597 H   0  0  0  0  0  0  0  0  0  0  0  0
    1.9249   16.3951   -4.1597 H   0  0  0  0  0  0  0  0  0  0  0  0
  1  2  1  0
  2  3  1  0
  3  4  1  0
  4  5  1  0
  5  6  1  0
  6  7  1  0
  7  8  1  0
  7  9  1  0
  2 10  1  0
 10 11  1  0
 11 12  1  0
 12 13  1  0
 13 14  1  1
 13 15  1  0
 15 16  1  0
 16 17  1  0
 17 18  2  0
 18 19  1  0
 19 20  1  0
 20 21  1  0
 21 22  1  0
 22 23  1  0
 22 24  1  0
 24 25  1  0
 24 26  1  0
 19 27  1  0
 27 28  1  6
 27 29  1  0
 29 30  1  0
 30 31  1  0
 31 32  1  6
  7  5  1  0
 31 10  1  0
 31 13  1  0
 27 15  1  0
 24 18  1  0
  1 33  1  0
  1 34  1  0
  1 35  1  0
  2 36  1  6
  3 37  1  0
  3 38  1  0
  4 39  1  0
  4 40  1  0
  5 41  1  1
  8 42  1  0
  8 43  1  0
  8 44  1  0
  9 45  1  0
  9 46  1  0
  9 47  1  0
 10 48  1  1
 11 49  1  0
 11 50  1  0
 12 51  1  0
 12 52  1  0
 14 53  1  0
 14 54  1  0
 14 55  1  0
 15 56  1  6
 16 57  1  0
 16 58  1  0
 17 59  1  0
 19 60  1  1
 20 61  1  0
 20 62  1  0
 21 63  1  0
 21 64  1  0
 22 65  1  1
 23 66  1  0
 25 67  1  0
 25 68  1  0
 25 69  1  0
 26 70  1  0
 26 71  1  0
 26 72  1  0
 28 73  1  0
 28 74  1  0
 28 75  1  0
 29 76  1  0
 29 77  1  0
 30 78  1  0
 30 79  1  0
 32 80  1  0
 32 81  1  0
 32 82  1  0
M  END
>  <meeko>  (3) 
{"is_sidechain": [false], "intermolecular_energy": 2.731, "internal_energy": -0.839}

$$$$
EPH_relaxed_0001_pdb2pqr_Repair_305_r2_0001_out
     RDKit          3D

 82 86  0  0  0  0  0  0  0  0999 V2000
    4.1870   18.0540   -0.5480 C   0  0  0  0  0  0  0  0  0  0  0  0
    3.0830   18.4260   -1.5410 C   0  0  2  0  0  0  0  0  0  0  0  0
    2.3510   19.7210   -1.1370 C   0  0  0  0  0  0  0  0  0  0  0  0
    1.5650   19.6010    0.1710 C   0  0  0  0  0  0  0  0  0  0  0  0
    0.1940   20.1930    0.0510 C   0  0  2  0  0  0  0  0  0  0  0  0
   -0.5710   20.1840    1.2630 O   0  0  0  0  0  0  0  0  0  0  0  0
   -1.0820   19.3830    0.1860 C   0  0  0  0  0  0  0  0  0  0  0  0
   -1.0460   17.9100    0.4530 C   0  0  0  0  0  0  0  0  0  0  0  0
   -2.3400   19.9210   -0.4220 C   0  0  0  0  0  0  0  0  0  0  0  0
    2.0860   17.2800   -1.6630 C   0  0  1  0  0  0  0  0  0  0  0  0
    0.8320   17.6650   -2.4920 C   0  0  0  0  0  0  0  0  0  0  0  0
    0.4030   16.3950   -3.2720 C   0  0  0  0  0  0  0  0  0  0  0  0
    1.2090   15.2470   -2.6200 C   0  0  1  0  0  0  0  0  0  0  0  0
    0.4110   14.8780   -1.3300 C   0  0  0  0  0  0  0  0  0  0  0  0
    1.4720   13.9920   -3.5150 C   0  0  2  0  0  0  0  0  0  0  0  0
    0.2090   13.2370   -3.9670 C   0  0  0  0  0  0  0  0  0  0  0  0
   -0.2400   12.1440   -3.0550 C   0  0  0  0  0  0  0  0  0  0  0  0
    0.4960   11.5930   -2.0720 C   0  0  0  0  0  0  0  0  0  0  0  0
    1.9600   12.0010   -1.8610 C   0  0  1  0  0  0  0  0  0  0  0  0
    2.8290   10.7290   -1.6770 C   0  0  0  0  0  0  0  0  0  0  0  0
    2.3110    9.8220   -0.5650 C   0  0  0  0  0  0  0  0  0  0  0  0
    0.8720    9.3910   -0.8400 C   0  0  2  0  0  0  0  0  0  0  0  0
    0.8560    8.5480   -1.9960 O   0  0  0  0  0  0  0  0  0  0  0  0
   -0.0960   10.5880   -1.0520 C   0  0  0  0  0  0  0  0  0  0  0  0
   -0.3110   11.3290    0.2910 C   0  0  0  0  0  0  0  0  0  0  0  0
   -1.4800   10.0160   -1.4600 C   0  0  0  0  0  0  0  0  0  0  0  0
    2.5630   13.0010   -2.9380 C   0  0  1  0  0  0  0  0  0  0  0  0
    3.1230   12.2010   -4.1530 C   0  0  0  0  0  0  0  0  0  0  0  0
    3.7870   13.7620   -2.3050 C   0  0  0  0  0  0  0  0  0  0  0  0
    3.4750   15.0600   -1.5340 C   0  0  0  0  0  0  0  0  0  0  0  0
    2.5730   15.9840   -2.3580 C   0  0  2  0  0  0  0  0  0  0  0  0
    3.3580   16.3890   -3.6520 C   0  0  0  0  0  0  0  0  0  0  0  0
    3.8139   18.1797    0.4791 H   0  0  0  0  0  0  0  0  0  0  0  0
    4.4834   17.0064   -0.7048 H   0  0  0  0  0  0  0  0  0  0  0  0
    5.0570   18.7086   -0.7048 H   0  0  0  0  0  0  0  0  0  0  0  0
    3.5612   18.6076   -2.5148 H   0  0  0  0  0  0  0  0  0  0  0  0
    3.0977   20.5204   -1.0214 H   0  0  0  0  0  0  0  0  0  0  0  0
    1.6220   19.9394   -1.9313 H   0  0  0  0  0  0  0  0  0  0  0  0
    1.4719   18.5371    0.4344 H   0  0  0  0  0  0  0  0  0  0  0  0
    2.1100   20.1543    0.9500 H   0  0  0  0  0  0  0  0  0  0  0  0
    0.5415   20.9003   -0.7164 H   0  0  0  0  0  0  0  0  0  0  0  0
   -1.0417   17.7342    1.5389 H   0  0  0  0  0  0  0  0  0  0  0  0
   -1.9328   17.4349    0.0081 H   0  0  0  0  0  0  0  0  0  0  0  0
   -0.1370   17.4788    0.0081 H   0  0  0  0  0  0  0  0  0  0  0  0
   -3.0353   20.2184    0.3768 H   0  0  0  0  0  0  0  0  0  0  0  0
   -2.1013   20.7958   -1.0448 H   0  0  0  0  0  0  0  0  0  0  0  0
   -2.8076   19.1442   -1.0448 H   0  0  0  0  0  0  0  0  0  0  0  0
    1.8964   17.0869   -0.5968 H   0  0  0  0  0  0  0  0  0  0  0  0
    0.0214   17.9906   -1.8234 H   0  0  0  0  0  0  0  0  0  0  0  0
    1.0530   18.4946   -3.1797 H   0  0  0  0  0  0  0  0  0  0  0  0
   -0.6778   16.2202   -3.1654 H   0  0  0  0  0  0  0  0  0  0  0  0
    0.5983   16.4819   -4.3510 H   0  0  0  0  0  0  0  0  0  0  0  0
    1.0014   15.1510   -0.4429 H   0  0  0  0  0  0  0  0  0  0  0  0
   -0.5423   15.4267   -1.3190 H   0  0  0  0  0  0  0  0  0  0  0  0
    0.2116   13.7963   -1.3190 H   0  0  0  0  0  0  0  0  0  0  0  0
    1.8965   14.4372   -4.4270 H   0  0  0  0  0  0  0  0  0  0  0  0
   -0.6103   13.9659   -4.0534 H   0  0  0  0  0  0  0  0  0  0  0  0
    0.4686   12.7518   -4.9195 H   0  0  0  0  0  0  0  0  0  0  0  0
   -1.2592   11.7558   -3.1985 H   0  0  0  0  0  0  0  0  0  0  0  0
    1.9791   12.6035   -0.9409 H   0  0  0  0  0  0  0  0  0  0  0  0
    2.8310   10.1638   -2.6207 H   0  0  0  0  0  0  0  0  0  0  0  0
    3.8420   11.0544   -1.3976 H   0  0  0  0  0  0  0  0  0  0  0  0
    2.9491    8.9282   -0.5026 H   0  0  0  0  0  0  0  0  0  0  0  0
    2.3362   10.3787    0.3834 H   0  0  0  0  0  0  0  0  0  0  0  0
    0.5134    8.8519    0.0493 H   0  0  0  0  0  0  0  0  0  0  0  0
    0.1710    7.8720   -1.8570 H   0  0  0  0  0  0  0  0  0  0  0  0
   -0.1113   10.6408    1.1256 H   0  0  0  0  0  0  0  0  0  0  0  0
    0.3754   12.1865    0.3506 H   0  0  0  0  0  0  0  0  0  0  0  0
   -1.3498   11.6860    0.3506 H   0  0  0  0  0  0  0  0  0  0  0  0
   -2.0589    9.7767   -0.5558 H   0  0  0  0  0  0  0  0  0  0  0  0
   -2.0240   10.7630   -2.0567 H   0  0  0  0  0  0  0  0  0  0  0  0
   -1.3379    9.1029   -2.0567 H   0  0  0  0  0  0  0  0  0  0  0  0
    3.7183   11.3506   -3.7891 H   0  0  0  0  0  0  0  0  0  0  0  0
    2.2872   11.8289   -4.7636 H   0  0  0  0  0  0  0  0  0  0  0  0
    3.7587   12.8590   -4.7636 H   0  0  0  0  0  0  0  0  0  0  0  0
    4.2834   13.0716   -1.6072 H   0  0  0  0  0  0  0  0  0  0  0  0
    4.4040   14.0761   -3.1598 H   0  0  0  0  0  0  0  0  0  0  0  0
    2.9657   14.8058   -0.5927 H   0  0  0  0  0  0  0  0  0  0  0  0
    4.4210   15.5833   -1.3309 H   0  0  0  0  0  0  0  0  0  0  0  0
    4.3029   16.8765   -3.3701 H   0  0  0  0  0  0  0  0  0  0  0  0
    3.5729   15.4892   -4.2472 H   0  0  0  0  0  0  0  0  0  0  0  0
    2.7493   17.0856   -4.2472 H   0  0  0  0  0  0  0  0  0  0  0  0
  1  2  1  0
  2  3  1  0
  3  4  1  0
  4  5  1  0
  5  6  1  0
  6  7  1  0
  7  8  1  0
  7  9  1  0
  2 10  1  0
 10 11  1  0
 11 12  1  0
 12 13  1  0
 13 14  1  1
 13 15  1  0
 15 16  1  0
 16 17  1  0
 17 18  2  0
 18 19  1  0
 19 20  1  0
 20 21  1  0
 21 22  1  0
 22 23  1  0
 22 24  1  0
 24 25  1  0
 24 26  1  0
 19 27  1  0
 27 28  1  6
 27 29  1  0
 29 30  1  0
 30 31  1  0
 31 32  1  6
  7  5  1  0
 31 10  1  0
 31 13  1  0
 27 15  1  0
 24 18  1  0
  1 33  1  0
  1 34  1  0
  1 35  1  0
  2 36  1  6
  3 37  1  0
  3 38  1  0
  4 39  1  0
  4 40  1  0
  5 41  1  6
  8 42  1  0
  8 43  1  0
  8 44  1  0
  9 45  1  0
  9 46  1  0
  9 47  1  0
 10 48  1  1
 11 49  1  0
 11 50  1  0
 12 51  1  0
 12 52  1  0
 14 53  1  0
 14 54  1  0
 14 55  1  0
 15 56  1  6
 16 57  1  0
 16 58  1  0
 17 59  1  0
 19 60  1  1
 20 61  1  0
 20 62  1  0
 21 63  1  0
 21 64  1  0
 22 65  1  1
 23 66  1  0
 25 67  1  0
 25 68  1  0
 25 69  1  0
 26 70  1  0
 26 71  1  0
 26 72  1  0
 28 73  1  0
 28 74  1  0
 28 75  1  0
 29 76  1  0
 29 77  1  0
 30 78  1  0
 30 79  1  0
 32 80  1  0
 32 81  1  0
 32 82  1  0
M  END
>  <meeko>  (4) 
{"is_sidechain": [false], "intermolecular_energy": 2.731, "internal_energy": -0.839}

$$$$
EPH_relaxed_0001_pdb2pqr_Repair_305_r2_0001_out
     RDKit          3D

 82 86  0  0  0  0  0  0  0  0999 V2000
    5.2240   15.6600   -4.5400 C   0  0  0  0  0  0  0  0  0  0  0  0
    4.2460   14.8910   -5.4320 C   0  0  2  0  0  0  0  0  0  0  0  0
    3.0060   15.7330   -5.7950 C   0  0  0  0  0  0  0  0  0  0  0  0
    2.0470   15.0310   -6.7610 C   0  0  0  0  0  0  0  0  0  0  0  0
    2.4480   15.2410   -8.1900 C   0  0  2  0  0  0  0  0  0  0  0  0
    2.5210   16.6130   -8.5960 O   0  0  0  0  0  0  0  0  0  0  0  0
    1.5180   15.8140   -9.2440 C   0  0  0  0  0  0  0  0  0  0  0  0
    0.1140   16.2120   -8.9130 C   0  0  0  0  0  0  0  0  0  0  0  0
    1.8100   15.5320  -10.6850 C   0  0  0  0  0  0  0  0  0  0  0  0
    3.8160   13.6020   -4.7410 C   0  0  1  0  0  0  0  0  0  0  0  0
    5.0080   12.6500   -4.4580 C   0  0  0  0  0  0  0  0  0  0  0  0
    4.7020   11.9360   -3.1160 C   0  0  0  0  0  0  0  0  0  0  0  0
    3.2120   12.2460   -2.8400 C   0  0  1  0  0  0  0  0  0  0  0  0
    2.4210   11.2190   -3.7110 C   0  0  0  0  0  0  0  0  0  0  0  0
    2.7620   12.2010   -1.3440 C   0  0  2  0  0  0  0  0  0  0  0  0
    2.9020   10.8290   -0.6610 C   0  0  0  0  0  0  0  0  0  0  0  0
    1.7030    9.9440   -0.7560 C   0  0  0  0  0  0  0  0  0  0  0  0
    0.4670   10.3380   -1.1130 C   0  0  0  0  0  0  0  0  0  0  0  0
    0.1560   11.8180   -1.3720 C   0  0  1  0  0  0  0  0  0  0  0  0
   -1.1600   12.2050   -0.6480 C   0  0  0  0  0  0  0  0  0  0  0  0
   -2.3230   11.2900   -1.0200 C   0  0  0  0  0  0  0  0  0  0  0  0
   -1.9990    9.8350   -0.6930 C   0  0  2  0  0  0  0  0  0  0  0  0
   -1.9010    9.6920    0.7270 O   0  0  0  0  0  0  0  0  0  0  0  0
   -0.6870    9.3350   -1.3600 C   0  0  0  0  0  0  0  0  0  0  0  0
   -0.8970    9.2050   -2.8890 C   0  0  0  0  0  0  0  0  0  0  0  0
   -0.4010    7.9020   -0.8370 C   0  0  0  0  0  0  0  0  0  0  0  0
    1.3380   12.8370   -1.0750 C   0  0  1  0  0  0  0  0  0  0  0  0
    1.3140   13.2570    0.4260 C   0  0  0  0  0  0  0  0  0  0  0  0
    1.1040   14.1530   -1.9080 C   0  0  0  0  0  0  0  0  0  0  0  0
    1.6770   14.1810   -3.3390 C   0  0  0  0  0  0  0  0  0  0  0  0
    3.1410   13.7310   -3.3520 C   0  0  2  0  0  0  0  0  0  0  0  0
    3.9650   14.7570   -2.5030 C   0  0  0  0  0  0  0  0  0  0  0  0
    4.9832   15.4707   -3.4835 H   0  0  0  0  0  0  0  0  0  0  0  0
    6.2509   15.3249   -4.7478 H   0  0  0  0  0  0  0  0  0  0  0  0
    5.1406   16.7370   -4.7478 H   0  0  0  0  0  0  0  0  0  0  0  0
    4.7698   14.6535   -6.3697 H   0  0  0  0  0  0  0  0  0  0  0  0
    2.4592   15.9633   -4.8687 H   0  0  0  0  0  0  0  0  0  0  0  0
    3.3694   16.6381   -6.3036 H   0  0  0  0  0  0  0  0  0  0  0  0
    2.0493   13.9525   -6.5448 H   0  0  0  0  0  0  0  0  0  0  0  0
    1.0436   15.4590   -6.6198 H   0  0  0  0  0  0  0  0  0  0  0  0
    3.0750   14.3374   -8.1715 H   0  0  0  0  0  0  0  0  0  0  0  0
   -0.0093   16.2470   -7.8205 H   0  0  0  0  0  0  0  0  0  0  0  0
   -0.0954   17.2049   -9.3376 H   0  0  0  0  0  0  0  0  0  0  0  0
   -0.5853   15.4767   -9.3376 H   0  0  0  0  0  0  0  0  0  0  0  0
    2.5996   14.7695  -10.7567 H   0  0  0  0  0  0  0  0  0  0  0  0
    0.8986   15.1636  -11.1785 H   0  0  0  0  0  0  0  0  0  0  0  0
    2.1464   16.4557  -11.1785 H   0  0  0  0  0  0  0  0  0  0  0  0
    3.0903   13.2299   -5.4792 H   0  0  0  0  0  0  0  0  0  0  0  0
    5.1028   11.9109   -5.2672 H   0  0  0  0  0  0  0  0  0  0  0  0
    5.9542   13.2081   -4.4014 H   0  0  0  0  0  0  0  0  0  0  0  0
    4.8625   10.8516   -3.2076 H   0  0  0  0  0  0  0  0  0  0  0  0
    5.3573   12.2794   -2.3019 H   0  0  0  0  0  0  0  0  0  0  0  0
    1.8824   10.5196   -3.0547 H   0  0  0  0  0  0  0  0  0  0  0  0
    1.7002   11.7550   -4.3459 H   0  0  0  0  0  0  0  0  0  0  0  0
    3.1233   10.6590   -4.3459 H   0  0  0  0  0  0  0  0  0  0  0  0
    3.5007   12.8545   -0.8569 H   0  0  0  0  0  0  0  0  0  0  0  0
    3.7499   10.3035   -1.1245 H   0  0  0  0  0  0  0  0  0  0  0  0
    3.0439   11.0353    0.4101 H   0  0  0  0  0  0  0  0  0  0  0  0
    1.8420    8.8801   -0.5136 H   0  0  0  0  0  0  0  0  0  0  0  0
    0.0260   11.9154   -2.4599 H   0  0  0  0  0  0  0  0  0  0  0  0
   -0.9963   12.1435    0.4380 H   0  0  0  0  0  0  0  0  0  0  0  0
   -1.4252   13.2259   -0.9601 H   0  0  0  0  0  0  0  0  0  0  0  0
   -3.2162   11.5955   -0.4553 H   0  0  0  0  0  0  0  0  0  0  0  0
   -2.5040   11.3746   -2.1017 H   0  0  0  0  0  0  0  0  0  0  0  0
   -2.8131    9.2167   -1.0991 H   0  0  0  0  0  0  0  0  0  0  0  0
   -1.9180   10.5840    1.1140 H   0  0  0  0  0  0  0  0  0  0  0  0
   -1.8172    8.6353   -3.0856 H   0  0  0  0  0  0  0  0  0  0  0  0
   -0.9842   10.2073   -3.3337 H   0  0  0  0  0  0  0  0  0  0  0  0
   -0.0387    8.6800   -3.3337 H   0  0  0  0  0  0  0  0  0  0  0  0
   -0.4018    7.9062    0.2630 H   0  0  0  0  0  0  0  0  0  0  0  0
   -1.1800    7.2163   -1.2017 H   0  0  0  0  0  0  0  0  0  0  0  0
    0.5815    7.5679   -1.2017 H   0  0  0  0  0  0  0  0  0  0  0  0
    1.3653   12.3588    1.0589 H   0  0  0  0  0  0  0  0  0  0  0  0
    2.1766   13.9055    0.6391 H   0  0  0  0  0  0  0  0  0  0  0  0
    0.3832   13.8030    0.6391 H   0  0  0  0  0  0  0  0  0  0  0  0
    0.0180   14.3118   -1.9812 H   0  0  0  0  0  0  0  0  0  0  0  0
    1.6491   14.9386   -1.3642 H   0  0  0  0  0  0  0  0  0  0  0  0
    1.0872   13.5055   -3.9761 H   0  0  0  0  0  0  0  0  0  0  0  0
    1.6236   15.2122   -3.7182 H   0  0  0  0  0  0  0  0  0  0  0  0
    3.8059   14.5589   -1.4328 H   0  0  0  0  0  0  0  0  0  0  0  0
    5.0342   14.6540   -2.7399 H   0  0  0  0  0  0  0  0  0  0  0  0
    3.6337   15.7788   -2.7399 H   0  0  0  0  0  0  0  0  0  0  0  0
  1  2  1  0
  2  3  1  0
  3  4  1  0
  4  5  1  0
  5  6  1  0
  6  7  1  0
  7  8  1  0
  7  9  1  0
  2 10  1  0
 10 11  1  0
 11 12  1  0
 12 13  1  0
 13 14  1  6
 13 15  1  0
 15 16  1  0
 16 17  1  0
 17 18  2  0
 18 19  1  0
 19 20  1  0
 20 21  1  0
 21 22  1  0
 22 23  1  0
 22 24  1  0
 24 25  1  0
 24 26  1  0
 19 27  1  0
 27 28  1  1
 27 29  1  0
 29 30  1  0
 30 31  1  0
 31 32  1  1
  7  5  1  0
 31 10  1  0
 31 13  1  0
 27 15  1  0
 24 18  1  0
  1 33  1  0
  1 34  1  0
  1 35  1  0
  2 36  1  6
  3 37  1  0
  3 38  1  0
  4 39  1  0
  4 40  1  0
  5 41  1  6
  8 42  1  0
  8 43  1  0
  8 44  1  0
  9 45  1  0
  9 46  1  0
  9 47  1  0
 10 48  1  6
 11 49  1  0
 11 50  1  0
 12 51  1  0
 12 52  1  0
 14 53  1  0
 14 54  1  0
 14 55  1  0
 15 56  1  1
 16 57  1  0
 16 58  1  0
 17 59  1  0
 19 60  1  6
 20 61  1  0
 20 62  1  0
 21 63  1  0
 21 64  1  0
 22 65  1  6
 23 66  1  0
 25 67  1  0
 25 68  1  0
 25 69  1  0
 26 70  1  0
 26 71  1  0
 26 72  1  0
 28 73  1  0
 28 74  1  0
 28 75  1  0
 29 76  1  0
 29 77  1  0
 30 78  1  0
 30 79  1  0
 32 80  1  0
 32 81  1  0
 32 82  1  0
M  END
>  <meeko>  (5) 
{"is_sidechain": [false], "intermolecular_energy": 2.731, "internal_energy": -0.839}

$$$$
EPH_relaxed_0001_pdb2pqr_Repair_305_r2_0001_out
     RDKit          3D

 82 86  0  0  0  0  0  0  0  0999 V2000
    2.4390   20.1940   -0.1930 C   0  0  0  0  0  0  0  0  0  0  0  0
    2.4370   18.9970    0.7610 C   0  0  2  0  0  0  0  0  0  0  0  0
    3.8450   18.6880    1.3080 C   0  0  0  0  0  0  0  0  0  0  0  0
    4.3460   19.7090    2.3330 C   0  0  0  0  0  0  0  0  0  0  0  0
    5.5450   19.2050    3.0780 C   0  0  2  0  0  0  0  0  0  0  0  0
    5.3850   17.9050    3.6600 O   0  0  0  0  0  0  0  0  0  0  0  0
    5.5680   18.9930    4.5800 C   0  0  0  0  0  0  0  0  0  0  0  0
    4.3690   19.2820    5.4280 C   0  0  0  0  0  0  0  0  0  0  0  0
    6.8920   18.9740    5.2790 C   0  0  0  0  0  0  0  0  0  0  0  0
    1.8710   17.7710    0.0560 C   0  0  1  0  0  0  0  0  0  0  0  0
    0.3490   17.8920   -0.2240 C   0  0  0  0  0  0  0  0  0  0  0  0
    0.0850   17.1780   -1.5750 C   0  0  0  0  0  0  0  0  0  0  0  0
    1.3850   16.3910   -1.8610 C   0  0  1  0  0  0  0  0  0  0  0  0
    1.2620   15.0900   -1.0060 C   0  0  0  0  0  0  0  0  0  0  0  0
    1.6810   16.0690   -3.3620 C   0  0  2  0  0  0  0  0  0  0  0  0
    0.6420   15.1710   -4.0550 C   0  0  0  0  0  0  0  0  0  0  0  0
    0.9140   13.7050   -3.9780 C   0  0  0  0  0  0  0  0  0  0  0  0
    2.0870   13.1440   -3.6290 C   0  0  0  0  0  0  0  0  0  0  0  0
    3.3250   14.0100   -3.3600 C   0  0  1  0  0  0  0  0  0  0  0  0
    4.5500   13.4040   -4.0930 C   0  0  0  0  0  0  0  0  0  0  0  0
    4.7770   11.9370   -3.7390 C   0  0  0  0  0  0  0  0  0  0  0  0
    3.5460   11.0990   -4.0750 C   0  0  2  0  0  0  0  0  0  0  0  0
    3.3750   11.0790   -5.4950 O   0  0  0  0  0  0  0  0  0  0  0  0
    2.2460   11.6210   -3.4000 C   0  0  0  0  0  0  0  0  0  0  0  0
    2.3120   11.3630   -1.8750 C   0  0  0  0  0  0  0  0  0  0  0  0
    1.0590   10.7740   -3.9330 C   0  0  0  0  0  0  0  0  0  0  0  0
    3.1560   15.5660   -3.6380 C   0  0  1  0  0  0  0  0  0  0  0  0
    3.4590   15.8750   -5.1360 C   0  0  0  0  0  0  0  0  0  0  0  0
    4.2260   16.3570   -2.7960 C   0  0  0  0  0  0  0  0  0  0  0  0
    3.8280   16.7500   -1.3600 C   0  0  0  0  0  0  0  0  0  0  0  0
    2.4510   17.4210   -1.3370 C   0  0  2  0  0  0  0  0  0  0  0  0
    2.5490   18.7440   -2.1710 C   0  0  0  0  0  0  0  0  0  0  0  0
    2.4406   21.1271    0.3895 H   0  0  0  0  0  0  0  0  0  0  0  0
    3.3371   20.1561   -0.8270 H   0  0  0  0  0  0  0  0  0  0  0  0
    1.5408   20.1591   -0.8270 H   0  0  0  0  0  0  0  0  0  0  0  0
    1.8001   19.2588    1.6188 H   0  0  0  0  0  0  0  0  0  0  0  0
    3.8217   17.6981    1.7871 H   0  0  0  0  0  0  0  0  0  0  0  0
    4.5366   18.7252    0.4534 H   0  0  0  0  0  0  0  0  0  0  0  0
    4.6166   20.6372    1.8084 H   0  0  0  0  0  0  0  0  0  0  0  0
    3.5406   19.8875    3.0606 H   0  0  0  0  0  0  0  0  0  0  0  0
    6.2227   19.7422    2.3982 H   0  0  0  0  0  0  0  0  0  0  0  0
    4.6465   19.2151    6.4903 H   0  0  0  0  0  0  0  0  0  0  0  0
    4.0001   20.2948    5.2085 H   0  0  0  0  0  0  0  0  0  0  0  0
    3.5792   18.5485    5.2085 H   0  0  0  0  0  0  0  0  0  0  0  0
    6.7321   18.9763    6.3673 H   0  0  0  0  0  0  0  0  0  0  0  0
    7.4454   18.0678    4.9916 H   0  0  0  0  0  0  0  0  0  0  0  0
    7.4712   19.8639    4.9916 H   0  0  0  0  0  0  0  0  0  0  0  0
    2.1480   16.9950    0.7848 H   0  0  0  0  0  0  0  0  0  0  0  0
   -0.2239   17.4062    0.5796 H   0  0  0  0  0  0  0  0  0  0  0  0
    0.0377   18.9462   -0.2667 H   0  0  0  0  0  0  0  0  0  0  0  0
   -0.7726   16.4941   -1.4917 H   0  0  0  0  0  0  0  0  0  0  0  0
   -0.1595   17.8863   -2.3803 H   0  0  0  0  0  0  0  0  0  0  0  0
    1.2866   15.3498    0.0626 H   0  0  0  0  0  0  0  0  0  0  0  0
    0.3122   14.5864   -1.2392 H   0  0  0  0  0  0  0  0  0  0  0  0
    2.1006   14.4174   -1.2392 H   0  0  0  0  0  0  0  0  0  0  0  0
    1.5856   17.0562   -3.8377 H   0  0  0  0  0  0  0  0  0  0  0  0
   -0.3360   15.3603   -3.5885 H   0  0  0  0  0  0  0  0  0  0  0  0
    0.6783   15.4317   -5.1230 H   0  0  0  0  0  0  0  0  0  0  0  0
    0.0857   13.0256   -4.2276 H   0  0  0  0  0  0  0  0  0  0  0  0
    3.4878   13.9786   -2.2726 H   0  0  0  0  0  0  0  0  0  0  0  0
    4.3867   13.4837   -5.1779 H   0  0  0  0  0  0  0  0  0  0  0  0
    5.4407   13.9658   -3.7753 H   0  0  0  0  0  0  0  0  0  0  0  0
    5.6376   11.5578   -4.3096 H   0  0  0  0  0  0  0  0  0  0  0  0
    4.9693   11.8618   -2.6586 H   0  0  0  0  0  0  0  0  0  0  0  0
    3.7195   10.0866   -3.6813 H   0  0  0  0  0  0  0  0  0  0  0  0
    2.8900   10.2680   -5.7220 H   0  0  0  0  0  0  0  0  0  0  0  0
    2.0744   12.2917   -1.3354 H   0  0  0  0  0  0  0  0  0  0  0  0
    1.5841   10.5844   -1.6030 H   0  0  0  0  0  0  0  0  0  0  0  0
    3.3244   11.0296   -1.6030 H   0  0  0  0  0  0  0  0  0  0  0  0
    0.4889   10.3672   -3.0848 H   0  0  0  0  0  0  0  0  0  0  0  0
    0.4019   11.4085   -4.5459 H   0  0  0  0  0  0  0  0  0  0  0  0
    1.4453    9.9463   -4.5459 H   0  0  0  0  0  0  0  0  0  0  0  0
    4.2278   16.6591   -5.2004 H   0  0  0  0  0  0  0  0  0  0  0  0
    3.8227   14.9631   -5.6322 H   0  0  0  0  0  0  0  0  0  0  0  0
    2.5402   16.2208   -5.6322 H   0  0  0  0  0  0  0  0  0  0  0  0
    5.1281   15.7308   -2.7317 H   0  0  0  0  0  0  0  0  0  0  0  0
    4.3634   17.3101   -3.3277 H   0  0  0  0  0  0  0  0  0  0  0  0
    3.7981   15.8456   -0.7346 H   0  0  0  0  0  0  0  0  0  0  0  0
    4.5716   17.4618   -0.9722 H   0  0  0  0  0  0  0  0  0  0  0  0
    2.6127   19.6040   -1.4881 H   0  0  0  0  0  0  0  0  0  0  0  0
    3.4472   18.7120   -2.8052 H   0  0  0  0  0  0  0  0  0  0  0  0
    1.6559   18.8447   -2.8052 H   0  0  0  0  0  0  0  0  0  0  0  0
  1  2  1  0
  2  3  1  0
  3  4  1  0
  4  5  1  0
  5  6  1  0
  6  7  1  0
  7  8  1  0
  7  9  1  0
  2 10  1  0
 10 11  1  0
 11 12  1  0
 12 13  1  0
 13 14  1  1
 13 15  1  0
 15 16  1  0
 16 17  1  0
 17 18  2  0
 18 19  1  0
 19 20  1  0
 20 21  1  0
 21 22  1  0
 22 23  1  0
 22 24  1  0
 24 25  1  0
 24 26  1  0
 19 27  1  0
 27 28  1  6
 27 29  1  0
 29 30  1  0
 30 31  1  0
 31 32  1  6
  7  5  1  0
 31 10  1  0
 31 13  1  0
 27 15  1  0
 24 18  1  0
  1 33  1  0
  1 34  1  0
  1 35  1  0
  2 36  1  1
  3 37  1  0
  3 38  1  0
  4 39  1  0
  4 40  1  0
  5 41  1  6
  8 42  1  0
  8 43  1  0
  8 44  1  0
  9 45  1  0
  9 46  1  0
  9 47  1  0
 10 48  1  1
 11 49  1  0
 11 50  1  0
 12 51  1  0
 12 52  1  0
 14 53  1  0
 14 54  1  0
 14 55  1  0
 15 56  1  6
 16 57  1  0
 16 58  1  0
 17 59  1  0
 19 60  1  1
 20 61  1  0
 20 62  1  0
 21 63  1  0
 21 64  1  0
 22 65  1  1
 23 66  1  0
 25 67  1  0
 25 68  1  0
 25 69  1  0
 26 70  1  0
 26 71  1  0
 26 72  1  0
 28 73  1  0
 28 74  1  0
 28 75  1  0
 29 76  1  0
 29 77  1  0
 30 78  1  0
 30 79  1  0
 32 80  1  0
 32 81  1  0
 32 82  1  0
M  END
>  <meeko>  (6) 
{"is_sidechain": [false], "intermolecular_energy": 2.731, "internal_energy": -0.839}

$$$$
EPH_relaxed_0001_pdb2pqr_Repair_305_r2_0001_out
     RDKit          3D

 82 86  0  0  0  0  0  0  0  0999 V2000
   -2.1260    8.1700   -2.1460 C   0  0  0  0  0  0  0  0  0  0  0  0
   -2.3260    8.8360   -0.7810 C   0  0  2  0  0  0  0  0  0  0  0  0
   -3.8150    9.0890   -0.4710 C   0  0  0  0  0  0  0  0  0  0  0  0
   -4.6530    7.8100   -0.3960 C   0  0  0  0  0  0  0  0  0  0  0  0
   -5.4180    7.5730   -1.6640 C   0  0  2  0  0  0  0  0  0  0  0  0
   -6.4150    8.5610   -1.9550 O   0  0  0  0  0  0  0  0  0  0  0  0
   -6.8960    7.2320   -1.6980 C   0  0  0  0  0  0  0  0  0  0  0  0
   -7.6970    7.1070   -0.4400 C   0  0  0  0  0  0  0  0  0  0  0  0
   -7.4430    6.5440   -2.9090 C   0  0  0  0  0  0  0  0  0  0  0  0
   -1.5520   10.1480   -0.7250 C   0  0  1  0  0  0  0  0  0  0  0  0
   -1.2120   10.5790    0.7270 C   0  0  0  0  0  0  0  0  0  0  0  0
    0.1740   11.2720    0.6750 C   0  0  0  0  0  0  0  0  0  0  0  0
    0.4340   11.5130   -0.8310 C   0  0  1  0  0  0  0  0  0  0  0  0
   -0.3670   12.8080   -1.1740 C   0  0  0  0  0  0  0  0  0  0  0  0
    1.9310   11.6280   -1.2640 C   0  0  2  0  0  0  0  0  0  0  0  0
    2.7000   12.8090   -0.6470 C   0  0  0  0  0  0  0  0  0  0  0  0
    2.6660   14.0750   -1.4370 C   0  0  0  0  0  0  0  0  0  0  0  0
    2.2890   14.1830   -2.7250 C   0  0  0  0  0  0  0  0  0  0  0  0
    1.9360   12.9390   -3.5490 C   0  0  1  0  0  0  0  0  0  0  0  0
    2.6370   13.0160   -4.9310 C   0  0  0  0  0  0  0  0  0  0  0  0
    2.3290   14.3140   -5.6710 C   0  0  0  0  0  0  0  0  0  0  0  0
    2.7470   15.5270   -4.8440 C   0  0  2  0  0  0  0  0  0  0  0  0
    4.1740   15.5370   -4.7310 O   0  0  0  0  0  0  0  0  0  0  0  0
    2.1100   15.5520   -3.4270 C   0  0  0  0  0  0  0  0  0  0  0  0
    0.5930   15.8430   -3.5440 C   0  0  0  0  0  0  0  0  0  0  0  0
    2.7230   16.7470   -2.6490 C   0  0  0  0  0  0  0  0  0  0  0  0
    2.1630   11.5410   -2.8270 C   0  0  1  0  0  0  0  0  0  0  0  0
    3.6340   11.0680   -3.0340 C   0  0  0  0  0  0  0  0  0  0  0  0
    1.2470   10.4560   -3.5080 C   0  0  0  0  0  0  0  0  0  0  0  0
   -0.1830   10.3080   -2.9560 C   0  0  0  0  0  0  0  0  0  0  0  0
   -0.1720   10.1910   -1.4290 C   0  0  2  0  0  0  0  0  0  0  0  0
    0.6070    8.8840   -1.0550 C   0  0  0  0  0  0  0  0  0  0  0  0
   -1.8124    7.1256   -2.0019 H   0  0  0  0  0  0  0  0  0  0  0  0
   -3.0712    8.1948   -2.7081 H   0  0  0  0  0  0  0  0  0  0  0  0
   -1.3508    8.7114   -2.7081 H   0  0  0  0  0  0  0  0  0  0  0  0
   -1.9425    8.1449   -0.0159 H   0  0  0  0  0  0  0  0  0  0  0  0
   -3.8852    9.6076    0.4965 H   0  0  0  0  0  0  0  0  0  0  0  0
   -4.2186    9.6901   -1.2991 H   0  0  0  0  0  0  0  0  0  0  0  0
   -3.9838    6.9552   -0.2183 H   0  0  0  0  0  0  0  0  0  0  0  0
   -5.3764    7.9216    0.4252 H   0  0  0  0  0  0  0  0  0  0  0  0
   -4.5413    7.1023   -2.1328 H   0  0  0  0  0  0  0  0  0  0  0  0
   -7.0319    7.2108    0.4300 H   0  0  0  0  0  0  0  0  0  0  0  0
   -8.4624    7.8966   -0.4127 H   0  0  0  0  0  0  0  0  0  0  0  0
   -8.1854    6.1218   -0.4127 H   0  0  0  0  0  0  0  0  0  0  0  0
   -8.0994    5.7184   -2.5966 H   0  0  0  0  0  0  0  0  0  0  0  0
   -8.0189    7.2628   -3.5103 H   0  0  0  0  0  0  0  0  0  0  0  0
   -6.6128    6.1450   -3.5103 H   0  0  0  0  0  0  0  0  0  0  0  0
   -2.2625   10.8037   -1.2497 H   0  0  0  0  0  0  0  0  0  0  0  0
   -1.9722   11.2801    1.1019 H   0  0  0  0  0  0  0  0  0  0  0  0
   -1.1946    9.7112    1.4027 H   0  0  0  0  0  0  0  0  0  0  0  0
    0.1520   12.2257    1.2227 H   0  0  0  0  0  0  0  0  0  0  0  0
    0.9623   10.6634    1.1421 H   0  0  0  0  0  0  0  0  0  0  0  0
   -0.6750   13.3060   -0.2428 H   0  0  0  0  0  0  0  0  0  0  0  0
    0.2686   13.4878   -1.7604 H   0  0  0  0  0  0  0  0  0  0  0  0
   -1.2591   12.5428   -1.7604 H   0  0  0  0  0  0  0  0  0  0  0  0
    2.3730   10.7214   -0.8249 H   0  0  0  0  0  0  0  0  0  0  0  0
    2.2686   13.0150    0.3437 H   0  0  0  0  0  0  0  0  0  0  0  0
    3.7552   12.5002   -0.6128 H   0  0  0  0  0  0  0  0  0  0  0  0
    2.9750   14.9975   -0.9236 H   0  0  0  0  0  0  0  0  0  0  0  0
    0.8444   12.9634   -3.6824 H   0  0  0  0  0  0  0  0  0  0  0  0
    3.7242   12.9459   -4.7794 H   0  0  0  0  0  0  0  0  0  0  0  0
    2.2595   12.1843   -5.5440 H   0  0  0  0  0  0  0  0  0  0  0  0
    2.8766   14.3229   -6.6250 H   0  0  0  0  0  0  0  0  0  0  0  0
    1.2448   14.3675   -5.8487 H   0  0  0  0  0  0  0  0  0  0  0  0
    2.3830   16.4241   -5.3662 H   0  0  0  0  0  0  0  0  0  0  0  0
    4.4960   16.3560   -5.1440 H   0  0  0  0  0  0  0  0  0  0  0  0
    0.1570   15.9266   -2.5376 H   0  0  0  0  0  0  0  0  0  0  0  0
    0.4416   16.7866   -4.0888 H   0  0  0  0  0  0  0  0  0  0  0  0
    0.1032   15.0224   -4.0888 H   0  0  0  0  0  0  0  0  0  0  0  0
    2.6305   16.5668   -1.5678 H   0  0  0  0  0  0  0  0  0  0  0  0
    3.7856   16.8506   -2.9139 H   0  0  0  0  0  0  0  0  0  0  0  0
    2.1873   17.6705   -2.9139 H   0  0  0  0  0  0  0  0  0  0  0  0
    4.1111   10.9146   -2.0548 H   0  0  0  0  0  0  0  0  0  0  0  0
    3.6395   10.1228   -3.5966 H   0  0  0  0  0  0  0  0  0  0  0  0
    4.1894   11.8329   -3.5966 H   0  0  0  0  0  0  0  0  0  0  0  0
    1.1669   10.7106   -4.5751 H   0  0  0  0  0  0  0  0  0  0  0  0
    1.7370    9.4937   -3.2987 H   0  0  0  0  0  0  0  0  0  0  0  0
   -0.7733   11.1900   -3.2450 H   0  0  0  0  0  0  0  0  0  0  0  0
   -0.6275    9.3930   -3.3746 H   0  0  0  0  0  0  0  0  0  0  0  0
    0.6626    8.7908    0.0396 H   0  0  0  0  0  0  0  0  0  0  0  0
    0.0812    8.0120   -1.4710 H   0  0  0  0  0  0  0  0  0  0  0  0
    1.6242    8.9316   -1.4710 H   0  0  0  0  0  0  0  0  0  0  0  0
  1  2  1  0
  2  3  1  0
  3  4  1  0
  4  5  1  0
  5  6  1  0
  6  7  1  0
  7  8  1  0
  7  9  1  0
  2 10  1  0
 10 11  1  0
 11 12  1  0
 12 13  1  0
 13 14  1  6
 13 15  1  0
 15 16  1  0
 16 17  1  0
 17 18  2  0
 18 19  1  0
 19 20  1  0
 20 21  1  0
 21 22  1  0
 22 23  1  0
 22 24  1  0
 24 25  1  0
 24 26  1  0
 19 27  1  0
 27 28  1  1
 27 29  1  0
 29 30  1  0
 30 31  1  0
 31 32  1  6
  7  5  1  0
 31 10  1  0
 31 13  1  0
 27 15  1  0
 24 18  1  0
  1 33  1  0
  1 34  1  0
  1 35  1  0
  2 36  1  1
  3 37  1  0
  3 38  1  0
  4 39  1  0
  4 40  1  0
  5 41  1  6
  8 42  1  0
  8 43  1  0
  8 44  1  0
  9 45  1  0
  9 46  1  0
  9 47  1  0
 10 48  1  6
 11 49  1  0
 11 50  1  0
 12 51  1  0
 12 52  1  0
 14 53  1  0
 14 54  1  0
 14 55  1  0
 15 56  1  1
 16 57  1  0
 16 58  1  0
 17 59  1  0
 19 60  1  6
 20 61  1  0
 20 62  1  0
 21 63  1  0
 21 64  1  0
 22 65  1  6
 23 66  1  0
 25 67  1  0
 25 68  1  0
 25 69  1  0
 26 70  1  0
 26 71  1  0
 26 72  1  0
 28 73  1  0
 28 74  1  0
 28 75  1  0
 29 76  1  0
 29 77  1  0
 30 78  1  0
 30 79  1  0
 32 80  1  0
 32 81  1  0
 32 82  1  0
M  END
>  <meeko>  (7) 
{"is_sidechain": [false], "intermolecular_energy": 2.731, "internal_energy": -0.839}

$$$$
EPH_relaxed_0001_pdb2pqr_Repair_305_r2_0001_out
     RDKit          3D

 82 86  0  0  0  0  0  0  0  0999 V2000
   -0.8970    8.2340   -1.6220 C   0  0  0  0  0  0  0  0  0  0  0  0
   -0.9620    9.2290   -0.4600 C   0  0  2  0  0  0  0  0  0  0  0  0
   -2.3030    9.9880   -0.4190 C   0  0  0  0  0  0  0  0  0  0  0  0
   -3.4940    9.1110   -0.0230 C   0  0  0  0  0  0  0  0  0  0  0  0
   -4.3280    8.7380   -1.2110 C   0  0  2  0  0  0  0  0  0  0  0  0
   -5.7380    8.9330   -1.0390 O   0  0  0  0  0  0  0  0  0  0  0  0
   -5.3030    7.5750   -1.2180 C   0  0  0  0  0  0  0  0  0  0  0  0
   -5.4940    6.7110   -0.0110 C   0  0  0  0  0  0  0  0  0  0  0  0
   -5.7010    6.9830   -2.5330 C   0  0  0  0  0  0  0  0  0  0  0  0
    0.1940   10.2180   -0.5580 C   0  0  1  0  0  0  0  0  0  0  0  0
    1.5800    9.5220   -0.5240 C   0  0  0  0  0  0  0  0  0  0  0  0
    2.5140   10.3390   -1.4530 C   0  0  0  0  0  0  0  0  0  0  0  0
    1.7410   11.6510   -1.7270 C   0  0  1  0  0  0  0  0  0  0  0  0
    2.0050   12.5410   -0.4710 C   0  0  0  0  0  0  0  0  0  0  0  0
    2.1000   12.4010   -3.0510 C   0  0  2  0  0  0  0  0  0  0  0  0
    3.5530   12.8970   -3.1470 C   0  0  0  0  0  0  0  0  0  0  0  0
    3.7910   14.2780   -2.6310 C   0  0  0  0  0  0  0  0  0  0  0  0
    2.8370   15.1920   -2.3750 C   0  0  0  0  0  0  0  0  0  0  0  0
    1.3640   14.9060   -2.6970 C   0  0  1  0  0  0  0  0  0  0  0  0
    0.7460   16.1290   -3.4240 C   0  0  0  0  0  0  0  0  0  0  0  0
    0.9310   17.4280   -2.6450 C   0  0  0  0  0  0  0  0  0  0  0  0
    2.4110   17.7080   -2.3940 C   0  0  2  0  0  0  0  0  0  0  0  0
    3.0480   17.9750   -3.6480 O   0  0  0  0  0  0  0  0  0  0  0  0
    3.1420   16.5400   -1.6750 C   0  0  0  0  0  0  0  0  0  0  0  0
    2.6560   16.4470   -0.2080 C   0  0  0  0  0  0  0  0  0  0  0  0
    4.6530   16.8900   -1.6110 C   0  0  0  0  0  0  0  0  0  0  0  0
    1.0730   13.5370   -3.4500 C   0  0  1  0  0  0  0  0  0  0  0  0
    1.2090   13.7380   -4.9910 C   0  0  0  0  0  0  0  0  0  0  0  0
   -0.4200   13.1140   -3.1880 C   0  0  0  0  0  0  0  0  0  0  0  0
   -0.6920   12.2720   -1.9260 C   0  0  0  0  0  0  0  0  0  0  0  0
    0.2770   11.0900   -1.8360 C   0  0  2  0  0  0  0  0  0  0  0  0
    0.0200   10.1650   -3.0740 C   0  0  0  0  0  0  0  0  0  0  0  0
   -0.8301    7.2104   -1.2249 H   0  0  0  0  0  0  0  0  0  0  0  0
   -1.8033    8.3299   -2.2379 H   0  0  0  0  0  0  0  0  0  0  0  0
   -0.0109    8.4470   -2.2379 H   0  0  0  0  0  0  0  0  0  0  0  0
   -0.8809    8.6531    0.4737 H   0  0  0  0  0  0  0  0  0  0  0  0
   -2.2166   10.8067    0.3106 H   0  0  0  0  0  0  0  0  0  0  0  0
   -2.4972   10.3533   -1.4382 H   0  0  0  0  0  0  0  0  0  0  0  0
   -3.1180    8.1923    0.4510 H   0  0  0  0  0  0  0  0  0  0  0  0
   -4.1251    9.6840    0.6723 H   0  0  0  0  0  0  0  0  0  0  0  0
   -3.5189    9.0266   -1.8981 H   0  0  0  0  0  0  0  0  0  0  0  0
   -5.3603    7.3160    0.8979 H   0  0  0  0  0  0  0  0  0  0  0  0
   -6.5080    6.2848   -0.0219 H   0  0  0  0  0  0  0  0  0  0  0  0
   -4.7541    5.8971   -0.0219 H   0  0  0  0  0  0  0  0  0  0  0  0
   -6.3072    6.0814   -2.3608 H   0  0  0  0  0  0  0  0  0  0  0  0
   -6.2896    7.7173   -3.1026 H   0  0  0  0  0  0  0  0  0  0  0  0
   -4.7989    6.7151   -3.1026 H   0  0  0  0  0  0  0  0  0  0  0  0
   -0.0289   10.8495    0.3146 H   0  0  0  0  0  0  0  0  0  0  0  0
    1.9763    9.5171    0.5021 H   0  0  0  0  0  0  0  0  0  0  0  0
    1.5054    8.4770   -0.8593 H   0  0  0  0  0  0  0  0  0  0  0  0
    3.4713   10.5493   -0.9537 H   0  0  0  0  0  0  0  0  0  0  0  0
    2.7590    9.7979   -2.3788 H   0  0  0  0  0  0  0  0  0  0  0  0
    1.8298   11.9504    0.4403 H   0  0  0  0  0  0  0  0  0  0  0  0
    3.0466   12.8943   -0.4843 H   0  0  0  0  0  0  0  0  0  0  0  0
    1.3245   13.4051   -0.4843 H   0  0  0  0  0  0  0  0  0  0  0  0
    2.0065   11.6062   -3.8057 H   0  0  0  0  0  0  0  0  0  0  0  0
    4.1869   12.2055   -2.5724 H   0  0  0  0  0  0  0  0  0  0  0  0
    3.7940   12.9273   -4.2199 H   0  0  0  0  0  0  0  0  0  0  0  0
    4.8341   14.5731   -2.4444 H   0  0  0  0  0  0  0  0  0  0  0  0
    0.8640   14.7561   -1.7287 H   0  0  0  0  0  0  0  0  0  0  0  0
    1.2282   16.2356   -4.4069 H   0  0  0  0  0  0  0  0  0  0  0  0
   -0.3348   15.9488   -3.5206 H   0  0  0  0  0  0  0  0  0  0  0  0
    0.5005   18.2589   -3.2232 H   0  0  0  0  0  0  0  0  0  0  0  0
    0.4226   17.3307   -1.6744 H   0  0  0  0  0  0  0  0  0  0  0  0
    2.4736   18.5773   -1.7229 H   0  0  0  0  0  0  0  0  0  0  0  0
    2.7930   18.8730   -3.9210 H   0  0  0  0  0  0  0  0  0  0  0  0
    3.5061   16.6097    0.4709 H   0  0  0  0  0  0  0  0  0  0  0  0
    1.8895   17.2148   -0.0263 H   0  0  0  0  0  0  0  0  0  0  0  0
    2.2271   15.4505   -0.0263 H   0  0  0  0  0  0  0  0  0  0  0  0
    4.9682   16.9630   -0.5597 H   0  0  0  0  0  0  0  0  0  0  0  0
    5.2334   16.1025   -2.1140 H   0  0  0  0  0  0  0  0  0  0  0  0
    4.8281   17.8525   -2.1140 H   0  0  0  0  0  0  0  0  0  0  0  0
    1.8151   14.6337   -5.1919 H   0  0  0  0  0  0  0  0  0  0  0  0
    1.6978   12.8577   -5.4339 H   0  0  0  0  0  0  0  0  0  0  0  0
    0.2100   13.8643   -5.4339 H   0  0  0  0  0  0  0  0  0  0  0  0
   -1.0178   14.0341   -3.1095 H   0  0  0  0  0  0  0  0  0  0  0  0
   -0.6870   12.4617   -4.0325 H   0  0  0  0  0  0  0  0  0  0  0  0
   -0.5685   12.9070   -1.0363 H   0  0  0  0  0  0  0  0  0  0  0  0
   -1.7185   11.8804   -1.9803 H   0  0  0  0  0  0  0  0  0  0  0  0
   -0.2595    9.1589   -2.7282 H   0  0  0  0  0  0  0  0  0  0  0  0
   -0.7958   10.5838   -3.6815 H   0  0  0  0  0  0  0  0  0  0  0  0
    0.9349   10.1029   -3.6815 H   0  0  0  0  0  0  0  0  0  0  0  0
  1  2  1  0
  2  3  1  0
  3  4  1  0
  4  5  1  0
  5  6  1  0
  6  7  1  0
  7  8  1  0
  7  9  1  0
  2 10  1  0
 10 11  1  0
 11 12  1  0
 12 13  1  0
 13 14  1  1
 13 15  1  0
 15 16  1  0
 16 17  1  0
 17 18  2  0
 18 19  1  0
 19 20  1  0
 20 21  1  0
 21 22  1  0
 22 23  1  0
 22 24  1  0
 24 25  1  0
 24 26  1  0
 19 27  1  0
 27 28  1  6
 27 29  1  0
 29 30  1  0
 30 31  1  0
 31 32  1  6
  7  5  1  0
 31 10  1  0
 31 13  1  0
 27 15  1  0
 24 18  1  0
  1 33  1  0
  1 34  1  0
  1 35  1  0
  2 36  1  1
  3 37  1  0
  3 38  1  0
  4 39  1  0
  4 40  1  0
  5 41  1  6
  8 42  1  0
  8 43  1  0
  8 44  1  0
  9 45  1  0
  9 46  1  0
  9 47  1  0
 10 48  1  1
 11 49  1  0
 11 50  1  0
 12 51  1  0
 12 52  1  0
 14 53  1  0
 14 54  1  0
 14 55  1  0
 15 56  1  6
 16 57  1  0
 16 58  1  0
 17 59  1  0
 19 60  1  1
 20 61  1  0
 20 62  1  0
 21 63  1  0
 21 64  1  0
 22 65  1  1
 23 66  1  0
 25 67  1  0
 25 68  1  0
 25 69  1  0
 26 70  1  0
 26 71  1  0
 26 72  1  0
 28 73  1  0
 28 74  1  0
 28 75  1  0
 29 76  1  0
 29 77  1  0
 30 78  1  0
 30 79  1  0
 32 80  1  0
 32 81  1  0
 32 82  1  0
M  END
>  <meeko>  (8) 
{"is_sidechain": [false], "intermolecular_energy": 2.731, "internal_energy": -0.839}

$$$$
EPH_relaxed_0001_pdb2pqr_Repair_305_r2_0001_out
     RDKit          3D

 82 86  0  0  0  0  0  0  0  0999 V2000
    3.5060   15.8440   -6.3450 C   0  0  0  0  0  0  0  0  0  0  0  0
    2.5390   14.7210   -6.7330 C   0  0  2  0  0  0  0  0  0  0  0  0
    1.0990   15.2360   -6.9280 C   0  0  0  0  0  0  0  0  0  0  0  0
    0.8280   15.7890   -8.3290 C   0  0  0  0  0  0  0  0  0  0  0  0
    2.0580   15.7600   -9.1850 C   0  0  2  0  0  0  0  0  0  0  0  0
    2.0300   16.6550  -10.3050 O   0  0  0  0  0  0  0  0  0  0  0  0
    2.0700   15.2520  -10.6150 C   0  0  0  0  0  0  0  0  0  0  0  0
    0.8270   14.7390  -11.2710 C   0  0  0  0  0  0  0  0  0  0  0  0
    3.3700   14.8020  -11.2040 C   0  0  0  0  0  0  0  0  0  0  0  0
    2.5620   13.6260   -5.6740 C   0  0  1  0  0  0  0  0  0  0  0  0
    4.0010   13.2680   -5.2160 C   0  0  0  0  0  0  0  0  0  0  0  0
    3.9170   12.9190   -3.7080 C   0  0  0  0  0  0  0  0  0  0  0  0
    2.4040   12.7650   -3.4270 C   0  0  1  0  0  0  0  0  0  0  0  0
    2.0520   11.3230   -3.9080 C   0  0  0  0  0  0  0  0  0  0  0  0
    1.9470   13.0090   -1.9520 C   0  0  2  0  0  0  0  0  0  0  0  0
    2.5330   12.0320   -0.9170 C   0  0  0  0  0  0  0  0  0  0  0  0
    1.7220   10.8040   -0.6690 C   0  0  0  0  0  0  0  0  0  0  0  0
    0.4380   10.6270   -1.0340 C   0  0  0  0  0  0  0  0  0  0  0  0
   -0.3600   11.7640   -1.6840 C   0  0  1  0  0  0  0  0  0  0  0  0
   -1.7530   11.8710   -1.0090 C   0  0  0  0  0  0  0  0  0  0  0  0
   -2.5100   10.5460   -1.0190 C   0  0  0  0  0  0  0  0  0  0  0  0
   -1.7100    9.4550   -0.3140 C   0  0  2  0  0  0  0  0  0  0  0  0
   -1.6180    9.7770    1.0770 O   0  0  0  0  0  0  0  0  0  0  0  0
   -0.2840    9.2630   -0.9020 C   0  0  0  0  0  0  0  0  0  0  0  0
   -0.3830    8.6270   -2.3100 C   0  0  0  0  0  0  0  0  0  0  0  0
    0.4650    8.2350   -0.0120 C   0  0  0  0  0  0  0  0  0  0  0  0
    0.3820   13.1670   -1.7760 C   0  0  1  0  0  0  0  0  0  0  0  0
    0.1610   13.9730   -0.4600 C   0  0  0  0  0  0  0  0  0  0  0  0
   -0.2670   14.0170   -2.9310 C   0  0  0  0  0  0  0  0  0  0  0  0
    0.3090   13.8190   -4.3470 C   0  0  0  0  0  0  0  0  0  0  0  0
    1.8370   13.9160   -4.3350 C   0  0  2  0  0  0  0  0  0  0  0  0
    2.2220   15.3630   -3.8760 C   0  0  0  0  0  0  0  0  0  0  0  0
    3.5661   15.9137   -5.2489 H   0  0  0  0  0  0  0  0  0  0  0  0
    4.5037   15.6263   -6.7538 H   0  0  0  0  0  0  0  0  0  0  0  0
    3.1426   16.7984   -6.7538 H   0  0  0  0  0  0  0  0  0  0  0  0
    2.8764   14.3124   -7.6970 H   0  0  0  0  0  0  0  0  0  0  0  0
    0.4043   14.4034   -6.7429 H   0  0  0  0  0  0  0  0  0  0  0  0
    0.9562   16.0667   -6.2213 H   0  0  0  0  0  0  0  0  0  0  0  0
    0.0466   15.1802   -8.8073 H   0  0  0  0  0  0  0  0  0  0  0  0
    0.5060   16.8359   -8.2276 H   0  0  0  0  0  0  0  0  0  0  0  0
    2.6874   15.5265   -8.3136 H   0  0  0  0  0  0  0  0  0  0  0  0
    0.1021   14.4398  -10.4997 H   0  0  0  0  0  0  0  0  0  0  0  0
    0.3899   15.5302  -11.8978 H   0  0  0  0  0  0  0  0  0  0  0  0
    1.0752   13.8698  -11.8978 H   0  0  0  0  0  0  0  0  0  0  0  0
    4.0743   14.5582  -10.3949 H   0  0  0  0  0  0  0  0  0  0  0  0
    3.2019   13.9098  -11.8250 H   0  0  0  0  0  0  0  0  0  0  0  0
    3.7895   15.6072  -11.8250 H   0  0  0  0  0  0  0  0  0  0  0  0
    2.0375   12.8291   -6.2215 H   0  0  0  0  0  0  0  0  0  0  0  0
    4.3754   12.4039   -5.7844 H   0  0  0  0  0  0  0  0  0  0  0  0
    4.6907   14.1072   -5.3892 H   0  0  0  0  0  0  0  0  0  0  0  0
    4.4488   11.9796   -3.4966 H   0  0  0  0  0  0  0  0  0  0  0  0
    4.3826   13.6888   -3.0751 H   0  0  0  0  0  0  0  0  0  0  0  0
    1.8935   10.6736   -3.0344 H   0  0  0  0  0  0  0  0  0  0  0  0
    1.1347   11.3524   -4.5143 H   0  0  0  0  0  0  0  0  0  0  0  0
    2.8797   10.9264   -4.5143 H   0  0  0  0  0  0  0  0  0  0  0  0
    2.3944   13.9881   -1.7255 H   0  0  0  0  0  0  0  0  0  0  0  0
    3.5262   11.7178   -1.2704 H   0  0  0  0  0  0  0  0  0  0  0  0
    2.5575   12.5784    0.0374 H   0  0  0  0  0  0  0  0  0  0  0  0
    2.2150    9.9729   -0.1434 H   0  0  0  0  0  0  0  0  0  0  0  0
   -0.4779   11.4865   -2.7419 H   0  0  0  0  0  0  0  0  0  0  0  0
   -1.6158   12.1912    0.0344 H   0  0  0  0  0  0  0  0  0  0  0  0
   -2.3466   12.5996   -1.5807 H   0  0  0  0  0  0  0  0  0  0  0  0
   -3.4723   10.6774   -0.5025 H   0  0  0  0  0  0  0  0  0  0  0  0
   -2.6722   10.2425   -2.0638 H   0  0  0  0  0  0  0  0  0  0  0  0
   -2.2422    8.5046   -0.4674 H   0  0  0  0  0  0  0  0  0  0  0  0
   -0.9860   10.5100    1.1680 H   0  0  0  0  0  0  0  0  0  0  0  0
   -0.5515    7.5444   -2.2123 H   0  0  0  0  0  0  0  0  0  0  0  0
   -1.2214    9.0805   -2.8591 H   0  0  0  0  0  0  0  0  0  0  0  0
    0.5535    8.8042   -2.8591 H   0  0  0  0  0  0  0  0  0  0  0  0
    0.2918    8.4727    1.0479 H   0  0  0  0  0  0  0  0  0  0  0  0
    0.0911    7.2230   -0.2266 H   0  0  0  0  0  0  0  0  0  0  0  0
    1.5429    8.2808   -0.2266 H   0  0  0  0  0  0  0  0  0  0  0  0
    0.3405   13.3183    0.4055 H   0  0  0  0  0  0  0  0  0  0  0  0
    0.8594   14.8222   -0.4285 H   0  0  0  0  0  0  0  0  0  0  0  0
   -0.8729   14.3472   -0.4285 H   0  0  0  0  0  0  0  0  0  0  0  0
   -1.3371   13.7651   -2.9687 H   0  0  0  0  0  0  0  0  0  0  0  0
   -0.0489   15.0644   -2.6752 H   0  0  0  0  0  0  0  0  0  0  0  0
    0.0142   12.8271   -4.7200 H   0  0  0  0  0  0  0  0  0  0  0  0
   -0.0877   14.6095   -5.0010 H   0  0  0  0  0  0  0  0  0  0  0  0
    2.2340   15.4080   -2.7770 H   0  0  0  0  0  0  0  0  0  0  0  0
    3.2192   15.6177   -4.2643 H   0  0  0  0  0  0  0  0  0  0  0  0
    1.4833   16.0796   -4.2643 H   0  0  0  0  0  0  0  0  0  0  0  0
  1  2  1  0
  2  3  1  0
  3  4  1  0
  4  5  1  0
  5  6  1  0
  6  7  1  0
  7  8  1  0
  7  9  1  0
  2 10  1  0
 10 11  1  0
 11 12  1  0
 12 13  1  0
 13 14  1  6
 13 15  1  0
 15 16  1  0
 16 17  1  0
 17 18  2  0
 18 19  1  0
 19 20  1  0
 20 21  1  0
 21 22  1  0
 22 23  1  0
 22 24  1  0
 24 25  1  0
 24 26  1  0
 19 27  1  0
 27 28  1  1
 27 29  1  0
 29 30  1  0
 30 31  1  0
 31 32  1  1
  7  5  1  0
 31 10  1  0
 31 13  1  0
 27 15  1  0
 24 18  1  0
  1 33  1  0
  1 34  1  0
  1 35  1  0
  2 36  1  6
  3 37  1  0
  3 38  1  0
  4 39  1  0
  4 40  1  0
  5 41  1  1
  8 42  1  0
  8 43  1  0
  8 44  1  0
  9 45  1  0
  9 46  1  0
  9 47  1  0
 10 48  1  6
 11 49  1  0
 11 50  1  0
 12 51  1  0
 12 52  1  0
 14 53  1  0
 14 54  1  0
 14 55  1  0
 15 56  1  1
 16 57  1  0
 16 58  1  0
 17 59  1  0
 19 60  1  6
 20 61  1  0
 20 62  1  0
 21 63  1  0
 21 64  1  0
 22 65  1  1
 23 66  1  0
 25 67  1  0
 25 68  1  0
 25 69  1  0
 26 70  1  0
 26 71  1  0
 26 72  1  0
 28 73  1  0
 28 74  1  0
 28 75  1  0
 29 76  1  0
 29 77  1  0
 30 78  1  0
 30 79  1  0
 32 80  1  0
 32 81  1  0
 32 82  1  0
M  END
>  <meeko>  (9) 
{"is_sidechain": [false], "intermolecular_energy": 2.731, "internal_energy": -0.839}

$$$$
EPH_relaxed_0001_pdb2pqr_Repair_305_r2_0001_out
     RDKit          3D

 82 86  0  0  0  0  0  0  0  0999 V2000
    5.2990   15.4590   -4.0040 C   0  0  0  0  0  0  0  0  0  0  0  0
    4.2290   16.4960   -3.6510 C   0  0  2  0  0  0  0  0  0  0  0  0
    4.7900   17.6350   -2.7770 C   0  0  0  0  0  0  0  0  0  0  0  0
    3.7780   18.1990   -1.7770 C   0  0  0  0  0  0  0  0  0  0  0  0
    4.1800   17.9150   -0.3610 C   0  0  2  0  0  0  0  0  0  0  0  0
    3.1900   17.2290    0.4160 O   0  0  0  0  0  0  0  0  0  0  0  0
    3.5190   18.5610    0.8420 C   0  0  0  0  0  0  0  0  0  0  0  0
    2.4010   19.5430    0.6850 C   0  0  0  0  0  0  0  0  0  0  0  0
    4.2750   18.6120    2.1330 C   0  0  0  0  0  0  0  0  0  0  0  0
    3.0640   15.8180   -2.9390 C   0  0  1  0  0  0  0  0  0  0  0  0
    1.7580   16.6530   -3.0030 C   0  0  0  0  0  0  0  0  0  0  0  0
    0.5860   15.6430   -3.1030 C   0  0  0  0  0  0  0  0  0  0  0  0
    1.2200   14.2740   -2.7600 C   0  0  1  0  0  0  0  0  0  0  0  0
    1.2830   14.2400   -1.2010 C   0  0  0  0  0  0  0  0  0  0  0  0
    0.4970   13.0140   -3.3370 C   0  0  2  0  0  0  0  0  0  0  0  0
   -0.9400   12.7990   -2.8330 C   0  0  0  0  0  0  0  0  0  0  0  0
   -1.0660   11.9610   -1.6030 C   0  0  0  0  0  0  0  0  0  0  0  0
   -0.1030   11.1720   -1.0920 C   0  0  0  0  0  0  0  0  0  0  0  0
    1.2340   10.9880   -1.8220 C   0  0  1  0  0  0  0  0  0  0  0  0
    1.6000    9.4810   -1.8610 C   0  0  0  0  0  0  0  0  0  0  0  0
    1.5980    8.8420   -0.4760 C   0  0  0  0  0  0  0  0  0  0  0  0
    0.2350    8.9940    0.1930 C   0  0  2  0  0  0  0  0  0  0  0  0
   -0.7250    8.2200   -0.5340 O   0  0  0  0  0  0  0  0  0  0  0  0
   -0.2440   10.4710    0.2810 C   0  0  0  0  0  0  0  0  0  0  0  0
    0.6230   11.2380    1.3100 C   0  0  0  0  0  0  0  0  0  0  0  0
   -1.6900   10.4710    0.8460 C   0  0  0  0  0  0  0  0  0  0  0  0
    1.3470   11.6820   -3.2470 C   0  0  1  0  0  0  0  0  0  0  0  0
    0.7940   10.7260   -4.3490 C   0  0  0  0  0  0  0  0  0  0  0  0
    2.8660   11.9170   -3.5860 C   0  0  0  0  0  0  0  0  0  0  0  0
    3.4920   13.2350   -3.0920 C   0  0  0  0  0  0  0  0  0  0  0  0
    2.6150   14.4330   -3.4680 C   0  0  2  0  0  0  0  0  0  0  0  0
    2.5520   14.5070   -5.0320 C   0  0  0  0  0  0  0  0  0  0  0  0
    5.7269   15.0443   -3.0794 H   0  0  0  0  0  0  0  0  0  0  0  0
    4.8443   14.6489   -4.5931 H   0  0  0  0  0  0  0  0  0  0  0  0
    6.0944   15.9388   -4.5931 H   0  0  0  0  0  0  0  0  0  0  0  0
    3.8793   16.9448   -4.5925 H   0  0  0  0  0  0  0  0  0  0  0  0
    5.6541   17.2491   -2.2163 H   0  0  0  0  0  0  0  0  0  0  0  0
    5.0629   18.4564   -3.4559 H   0  0  0  0  0  0  0  0  0  0  0  0
    3.7083   19.2879   -1.9162 H   0  0  0  0  0  0  0  0  0  0  0  0
    2.8076   17.7150   -1.9615 H   0  0  0  0  0  0  0  0  0  0  0  0
    5.2346   17.8117   -0.6563 H   0  0  0  0  0  0  0  0  0  0  0  0
    2.0453   19.8554    1.6779 H   0  0  0  0  0  0  0  0  0  0  0  0
    2.7606   20.4225    0.1308 H   0  0  0  0  0  0  0  0  0  0  0  0
    1.5752   19.0729    0.1308 H   0  0  0  0  0  0  0  0  0  0  0  0
    3.5678   18.5643    2.9742 H   0  0  0  0  0  0  0  0  0  0  0  0
    4.9668   17.7585    2.1867 H   0  0  0  0  0  0  0  0  0  0  0  0
    4.8459   19.5507    2.1867 H   0  0  0  0  0  0  0  0  0  0  0  0
    3.4985   15.7129   -1.9340 H   0  0  0  0  0  0  0  0  0  0  0  0
    1.6545   17.2646   -2.0946 H   0  0  0  0  0  0  0  0  0  0  0  0
    1.7668   17.3346   -3.8663 H   0  0  0  0  0  0  0  0  0  0  0  0
   -0.2065   15.8952   -2.3830 H   0  0  0  0  0  0  0  0  0  0  0  0
    0.1154   15.6473   -4.0972 H   0  0  0  0  0  0  0  0  0  0  0  0
    0.3861   14.7240   -0.7872 H   0  0  0  0  0  0  0  0  0  0  0  0
    1.3271   13.1956   -0.8585 H   0  0  0  0  0  0  0  0  0  0  0  0
    2.1802   14.7764   -0.8585 H   0  0  0  0  0  0  0  0  0  0  0  0
    0.4046   13.2623   -4.4046 H   0  0  0  0  0  0  0  0  0  0  0  0
   -1.3761   13.7858   -2.6181 H   0  0  0  0  0  0  0  0  0  0  0  0
   -1.4631   12.2503   -3.6300 H   0  0  0  0  0  0  0  0  0  0  0  0
   -2.0275   11.9914   -1.0696 H   0  0  0  0  0  0  0  0  0  0  0  0
    1.9815   11.5375   -1.2310 H   0  0  0  0  0  0  0  0  0  0  0  0
    0.8675    8.9566   -2.4922 H   0  0  0  0  0  0  0  0  0  0  0  0
    2.6190    9.3955   -2.2664 H   0  0  0  0  0  0  0  0  0  0  0  0
    1.8341    7.7720   -0.5729 H   0  0  0  0  0  0  0  0  0  0  0  0
    2.3521    9.3477    0.1449 H   0  0  0  0  0  0  0  0  0  0  0  0
    0.3343    8.6342    1.2277 H   0  0  0  0  0  0  0  0  0  0  0  0
   -1.5620    8.2520   -0.0410 H   0  0  0  0  0  0  0  0  0  0  0  0
    0.3122   10.9630    2.3287 H   0  0  0  0  0  0  0  0  0  0  0  0
    1.6814   10.9752    1.1660 H   0  0  0  0  0  0  0  0  0  0  0  0
    0.4912   12.3205    1.1660 H   0  0  0  0  0  0  0  0  0  0  0  0
   -2.0315    9.4339    0.9794 H   0  0  0  0  0  0  0  0  0  0  0  0
   -1.7047   10.9895    1.8160 H   0  0  0  0  0  0  0  0  0  0  0  0
   -2.3584   10.9895    0.1429 H   0  0  0  0  0  0  0  0  0  0  0  0
    0.2972    9.8672   -3.8738 H   0  0  0  0  0  0  0  0  0  0  0  0
    0.0700   11.2681   -4.9751 H   0  0  0  0  0  0  0  0  0  0  0  0
    1.6249   10.3687   -4.9751 H   0  0  0  0  0  0  0  0  0  0  0  0
    3.4381   11.0895   -3.1411 H   0  0  0  0  0  0  0  0  0  0  0  0
    2.9110   11.9706   -4.6838 H   0  0  0  0  0  0  0  0  0  0  0  0
    3.5973   13.1955   -1.9978 H   0  0  0  0  0  0  0  0  0  0  0  0
    4.4756   13.3567   -3.5693 H   0  0  0  0  0  0  0  0  0  0  0  0
    1.8663   15.3125   -5.3336 H   0  0  0  0  0  0  0  0  0  0  0  0
    3.5566   14.7125   -5.4301 H   0  0  0  0  0  0  0  0  0  0  0  0
    2.1889   13.5480   -5.4301 H   0  0  0  0  0  0  0  0  0  0  0  0
  1  2  1  0
  2  3  1  0
  3  4  1  0
  4  5  1  0
  5  6  1  0
  6  7  1  0
  7  8  1  0
  7  9  1  0
  2 10  1  0
 10 11  1  0
 11 12  1  0
 12 13  1  0
 13 14  1  1
 13 15  1  0
 15 16  1  0
 16 17  1  0
 17 18  2  0
 18 19  1  0
 19 20  1  0
 20 21  1  0
 21 22  1  0
 22 23  1  0
 22 24  1  0
 24 25  1  0
 24 26  1  0
 19 27  1  0
 27 28  1  6
 27 29  1  0
 29 30  1  0
 30 31  1  0
 31 32  1  6
  7  5  1  0
 31 10  1  0
 31 13  1  0
 27 15  1  0
 24 18  1  0
  1 33  1  0
  1 34  1  0
  1 35  1  0
  2 36  1  6
  3 37  1  0
  3 38  1  0
  4 39  1  0
  4 40  1  0
  5 41  1  6
  8 42  1  0
  8 43  1  0
  8 44  1  0
  9 45  1  0
  9 46  1  0
  9 47  1  0
 10 48  1  1
 11 49  1  0
 11 50  1  0
 12 51  1  0
 12 52  1  0
 14 53  1  0
 14 54  1  0
 14 55  1  0
 15 56  1  6
 16 57  1  0
 16 58  1  0
 17 59  1  0
 19 60  1  1
 20 61  1  0
 20 62  1  0
 21 63  1  0
 21 64  1  0
 22 65  1  1
 23 66  1  0
 25 67  1  0
 25 68  1  0
 25 69  1  0
 26 70  1  0
 26 71  1  0
 26 72  1  0
 28 73  1  0
 28 74  1  0
 28 75  1  0
 29 76  1  0
 29 77  1  0
 30 78  1  0
 30 79  1  0
 32 80  1  0
 32 81  1  0
 32 82  1  0
M  END
>  <meeko>  (10) 
{"is_sidechain": [false], "intermolecular_energy": 2.731, "internal_energy": -0.839}

$$$$
EPH_relaxed_0001_pdb2pqr_Repair_305_r2_0001_out
     RDKit          3D

 82 86  0  0  0  0  0  0  0  0999 V2000
   -0.8140    9.0370   -2.1600 C   0  0  0  0  0  0  0  0  0  0  0  0
   -1.1350    9.3120   -0.6880 C   0  0  2  0  0  0  0  0  0  0  0  0
   -2.6530    9.3340   -0.4190 C   0  0  0  0  0  0  0  0  0  0  0  0
   -3.4290    8.2570   -1.1820 C   0  0  0  0  0  0  0  0  0  0  0  0
   -4.8700    8.2180   -0.7730 C   0  0  2  0  0  0  0  0  0  0  0  0
   -5.3330    6.9350   -0.3300 O   0  0  0  0  0  0  0  0  0  0  0  0
   -5.9340    7.4460   -1.5300 C   0  0  0  0  0  0  0  0  0  0  0  0
   -5.6010    6.6600   -2.7600 C   0  0  0  0  0  0  0  0  0  0  0  0
   -7.3660    7.8480   -1.3630 C   0  0  0  0  0  0  0  0  0  0  0  0
   -0.5100   10.6340   -0.2590 C   0  0  1  0  0  0  0  0  0  0  0  0
    0.4680   10.4730    0.9350 C   0  0  0  0  0  0  0  0  0  0  0  0
    1.6090   11.5000    0.7200 C   0  0  0  0  0  0  0  0  0  0  0  0
    1.0870   12.4350   -0.3960 C   0  0  1  0  0  0  0  0  0  0  0  0
    0.1470   13.4450    0.3350 C   0  0  0  0  0  0  0  0  0  0  0  0
    2.1740   13.1700   -1.2460 C   0  0  2  0  0  0  0  0  0  0  0  0
    3.0760   14.1370   -0.4580 C   0  0  0  0  0  0  0  0  0  0  0  0
    2.5860   15.5450   -0.3800 C   0  0  0  0  0  0  0  0  0  0  0  0
    1.6230   16.0820   -1.1530 C   0  0  0  0  0  0  0  0  0  0  0  0
    0.9870   15.2760   -2.2920 C   0  0  1  0  0  0  0  0  0  0  0  0
    0.9200   16.1520   -3.5710 C   0  0  0  0  0  0  0  0  0  0  0  0
    0.2140   17.4830   -3.3330 C   0  0  0  0  0  0  0  0  0  0  0  0
    0.9110   18.2810   -2.2330 C   0  0  2  0  0  0  0  0  0  0  0  0
    2.2080   18.6680   -2.6960 O   0  0  0  0  0  0  0  0  0  0  0  0
    1.0450   17.4960   -0.8980 C   0  0  0  0  0  0  0  0  0  0  0  0
   -0.3500   17.3390   -0.2440 C   0  0  0  0  0  0  0  0  0  0  0  0
    1.8880   18.3580    0.0800 C   0  0  0  0  0  0  0  0  0  0  0  0
    1.6190   13.8440   -2.5660 C   0  0  1  0  0  0  0  0  0  0  0  0
    2.8280   13.9730   -3.5420 C   0  0  0  0  0  0  0  0  0  0  0  0
    0.5530   12.9430   -3.2950 C   0  0  0  0  0  0  0  0  0  0  0  0
   -0.4150   12.1480   -2.3980 C   0  0  0  0  0  0  0  0  0  0  0  0
    0.3460   11.3900   -1.3060 C   0  0  2  0  0  0  0  0  0  0  0  0
    1.2840   10.3510   -2.0100 C   0  0  0  0  0  0  0  0  0  0  0  0
    0.0199    8.3226   -2.2262 H   0  0  0  0  0  0  0  0  0  0  0  0
   -1.7000    8.6133   -2.6555 H   0  0  0  0  0  0  0  0  0  0  0  0
   -0.5313    9.9775   -2.6555 H   0  0  0  0  0  0  0  0  0  0  0  0
   -0.7075    8.4892   -0.0961 H   0  0  0  0  0  0  0  0  0  0  0  0
   -2.8170    9.1828    0.6581 H   0  0  0  0  0  0  0  0  0  0  0  0
   -3.0272   10.3078   -0.7679 H   0  0  0  0  0  0  0  0  0  0  0  0
   -3.3698    8.4708   -2.2594 H   0  0  0  0  0  0  0  0  0  0  0  0
   -2.9797    7.2804   -0.9488 H   0  0  0  0  0  0  0  0  0  0  0  0
   -4.8227    9.2597   -0.4228 H   0  0  0  0  0  0  0  0  0  0  0  0
   -5.1871    5.6830   -2.4699 H   0  0  0  0  0  0  0  0  0  0  0  0
   -6.5126    6.5094   -3.3569 H   0  0  0  0  0  0  0  0  0  0  0  0
   -4.8586    7.2101   -3.3569 H   0  0  0  0  0  0  0  0  0  0  0  0
   -7.6054    7.9152   -0.2915 H   0  0  0  0  0  0  0  0  0  0  0  0
   -7.5298    8.8268   -1.8374 H   0  0  0  0  0  0  0  0  0  0  0  0
   -8.0153    7.0974   -1.8374 H   0  0  0  0  0  0  0  0  0  0  0  0
   -1.4234   11.2054   -0.0369 H   0  0  0  0  0  0  0  0  0  0  0  0
   -0.0530   10.6783    1.8818 H   0  0  0  0  0  0  0  0  0  0  0  0
    0.8637    9.4479    0.9860 H   0  0  0  0  0  0  0  0  0  0  0  0
    1.8006   12.0665    1.6432 H   0  0  0  0  0  0  0  0  0  0  0  0
    2.5594   11.0170    0.4490 H   0  0  0  0  0  0  0  0  0  0  0  0
    0.2570   13.3268    1.4231 H   0  0  0  0  0  0  0  0  0  0  0  0
    0.4183   14.4718    0.0485 H   0  0  0  0  0  0  0  0  0  0  0  0
   -0.8966   13.2480    0.0485 H   0  0  0  0  0  0  0  0  0  0  0  0
    2.8263   12.3419   -1.5602 H   0  0  0  0  0  0  0  0  0  0  0  0
    3.1714   13.7529    0.5683 H   0  0  0  0  0  0  0  0  0  0  0  0
    4.0302   14.1765   -1.0039 H   0  0  0  0  0  0  0  0  0  0  0  0
    3.0509   16.1990    0.3724 H   0  0  0  0  0  0  0  0  0  0  0  0
   -0.0302   15.0261   -1.9562 H   0  0  0  0  0  0  0  0  0  0  0  0
    1.9454   16.3534   -3.9144 H   0  0  0  0  0  0  0  0  0  0  0  0
    0.3417   15.5978   -4.3249 H   0  0  0  0  0  0  0  0  0  0  0  0
    0.2251   18.0681   -4.2644 H   0  0  0  0  0  0  0  0  0  0  0  0
   -0.8205   17.2806   -3.0185 H   0  0  0  0  0  0  0  0  0  0  0  0
    0.2872   19.1611   -2.0178 H   0  0  0  0  0  0  0  0  0  0  0  0
    2.1120   19.5130   -3.1670 H   0  0  0  0  0  0  0  0  0  0  0  0
   -0.2451   17.3508    0.8509 H   0  0  0  0  0  0  0  0  0  0  0  0
   -0.9983   18.1698   -0.5592 H   0  0  0  0  0  0  0  0  0  0  0  0
   -0.7974   16.3848   -0.5592 H   0  0  0  0  0  0  0  0  0  0  0  0
    1.6303   18.0945    1.1164 H   0  0  0  0  0  0  0  0  0  0  0  0
    2.9576   18.1672   -0.0917 H   0  0  0  0  0  0  0  0  0  0  0  0
    1.6734   19.4231   -0.0917 H   0  0  0  0  0  0  0  0  0  0  0  0
    3.7579   14.0722   -2.9628 H   0  0  0  0  0  0  0  0  0  0  0  0
    2.8848   13.0758   -4.1759 H   0  0  0  0  0  0  0  0  0  0  0  0
    2.6943   14.8620   -4.1759 H   0  0  0  0  0  0  0  0  0  0  0  0
   -0.0521   13.5983   -3.9387 H   0  0  0  0  0  0  0  0  0  0  0  0
    1.1384   12.1820   -3.8319 H   0  0  0  0  0  0  0  0  0  0  0  0
   -1.1225   12.8453   -1.9255 H   0  0  0  0  0  0  0  0  0  0  0  0
   -0.9519   11.4183   -3.0220 H   0  0  0  0  0  0  0  0  0  0  0  0
    1.8158    9.7620   -1.2482 H   0  0  0  0  0  0  0  0  0  0  0  0
    0.6807    9.6789   -2.6380 H   0  0  0  0  0  0  0  0  0  0  0  0
    2.0140   10.8826   -2.6380 H   0  0  0  0  0  0  0  0  0  0  0  0
  1  2  1  0
  2  3  1  0
  3  4  1  0
  4  5  1  0
  5  6  1  0
  6  7  1  0
  7  8  1  0
  7  9  1  0
  2 10  1  0
 10 11  1  0
 11 12  1  0
 12 13  1  0
 13 14  1  1
 13 15  1  0
 15 16  1  0
 16 17  1  0
 17 18  2  0
 18 19  1  0
 19 20  1  0
 20 21  1  0
 21 22  1  0
 22 23  1  0
 22 24  1  0
 24 25  1  0
 24 26  1  0
 19 27  1  0
 27 28  1  6
 27 29  1  0
 29 30  1  0
 30 31  1  0
 31 32  1  6
  7  5  1  0
 31 10  1  0
 31 13  1  0
 27 15  1  0
 24 18  1  0
  1 33  1  0
  1 34  1  0
  1 35  1  0
  2 36  1  1
  3 37  1  0
  3 38  1  0
  4 39  1  0
  4 40  1  0
  5 41  1  1
  8 42  1  0
  8 43  1  0
  8 44  1  0
  9 45  1  0
  9 46  1  0
  9 47  1  0
 10 48  1  1
 11 49  1  0
 11 50  1  0
 12 51  1  0
 12 52  1  0
 14 53  1  0
 14 54  1  0
 14 55  1  0
 15 56  1  6
 16 57  1  0
 16 58  1  0
 17 59  1  0
 19 60  1  1
 20 61  1  0
 20 62  1  0
 21 63  1  0
 21 64  1  0
 22 65  1  1
 23 66  1  0
 25 67  1  0
 25 68  1  0
 25 69  1  0
 26 70  1  0
 26 71  1  0
 26 72  1  0
 28 73  1  0
 28 74  1  0
 28 75  1  0
 29 76  1  0
 29 77  1  0
 30 78  1  0
 30 79  1  0
 32 80  1  0
 32 81  1  0
 32 82  1  0
M  END
>  <meeko>  (11) 
{"is_sidechain": [false], "intermolecular_energy": 2.731, "internal_energy": -0.839}

$$$$
EPH_relaxed_0001_pdb2pqr_Repair_305_r2_0001_out
     RDKit          3D

 82 86  0  0  0  0  0  0  0  0999 V2000
   -0.0390    9.7120    0.8450 C   0  0  0  0  0  0  0  0  0  0  0  0
   -0.8120   10.2640   -0.3560 C   0  0  2  0  0  0  0  0  0  0  0  0
   -1.7200    9.1990   -1.0020 C   0  0  0  0  0  0  0  0  0  0  0  0
   -3.1620    9.2270   -0.4890 C   0  0  0  0  0  0  0  0  0  0  0  0
   -3.8500    7.9120   -0.6970 C   0  0  2  0  0  0  0  0  0  0  0  0
   -4.1730    7.6140   -2.0620 O   0  0  0  0  0  0  0  0  0  0  0  0
   -5.2860    7.7840   -1.1690 C   0  0  0  0  0  0  0  0  0  0  0  0
   -6.1220    8.9910   -1.4610 C   0  0  0  0  0  0  0  0  0  0  0  0
   -6.0250    6.5150   -0.8790 C   0  0  0  0  0  0  0  0  0  0  0  0
    0.1620   10.8160   -1.3910 C   0  0  1  0  0  0  0  0  0  0  0  0
   -0.0100   10.1550   -2.7850 C   0  0  0  0  0  0  0  0  0  0  0  0
    0.2770   11.2550   -3.8390 C   0  0  0  0  0  0  0  0  0  0  0  0
    0.9230   12.4070   -3.0350 C   0  0  1  0  0  0  0  0  0  0  0  0
    2.4190   11.9950   -2.8730 C   0  0  0  0  0  0  0  0  0  0  0  0
    0.7820   13.8400   -3.6460 C   0  0  2  0  0  0  0  0  0  0  0  0
    1.4540   14.0330   -5.0170 C   0  0  0  0  0  0  0  0  0  0  0  0
    2.8720   14.4970   -4.9720 C   0  0  0  0  0  0  0  0  0  0  0  0
    3.4910   15.0200   -3.8960 C   0  0  0  0  0  0  0  0  0  0  0  0
    2.7220   15.2800   -2.5940 C   0  0  1  0  0  0  0  0  0  0  0  0
    3.0640   16.6970   -2.0650 C   0  0  0  0  0  0  0  0  0  0  0  0
    4.5650   16.9170   -1.9090 C   0  0  0  0  0  0  0  0  0  0  0  0
    5.2880   16.7060   -3.2370 C   0  0  2  0  0  0  0  0  0  0  0  0
    4.8910   17.7380   -4.1460 O   0  0  0  0  0  0  0  0  0  0  0  0
    5.0110   15.3150   -3.8720 C   0  0  0  0  0  0  0  0  0  0  0  0
    5.7060   14.2130   -3.0350 C   0  0  0  0  0  0  0  0  0  0  0  0
    5.6830   15.2860   -5.2710 C   0  0  0  0  0  0  0  0  0  0  0  0
    1.1560   15.0100   -2.6480 C   0  0  1  0  0  0  0  0  0  0  0  0
    0.4140   16.2830   -3.1570 C   0  0  0  0  0  0  0  0  0  0  0  0
    0.6300   14.7420   -1.1890 C   0  0  0  0  0  0  0  0  0  0  0  0
    0.6850   13.2870   -0.6860 C   0  0  0  0  0  0  0  0  0  0  0  0
    0.0750   12.3290   -1.7130 C   0  0  2  0  0  0  0  0  0  0  0  0
   -1.4370   12.7060   -1.8810 C   0  0  0  0  0  0  0  0  0  0  0  0
   -0.5159   10.0525    1.7759 H   0  0  0  0  0  0  0  0  0  0  0  0
   -0.0449    8.6125    0.8109 H   0  0  0  0  0  0  0  0  0  0  0  0
    0.9990   10.0744    0.8109 H   0  0  0  0  0  0  0  0  0  0  0  0
   -1.4619   11.0718    0.0115 H   0  0  0  0  0  0  0  0  0  0  0  0
   -1.7347    9.3680   -2.0888 H   0  0  0  0  0  0  0  0  0  0  0  0
   -1.3030    8.2165   -0.7358 H   0  0  0  0  0  0  0  0  0  0  0  0
   -3.1534    9.4586    0.5863 H   0  0  0  0  0  0  0  0  0  0  0  0
   -3.7118    9.9947   -1.0533 H   0  0  0  0  0  0  0  0  0  0  0  0
   -3.3108    7.4692    0.1534 H   0  0  0  0  0  0  0  0  0  0  0  0
   -6.4419    9.4529   -0.5153 H   0  0  0  0  0  0  0  0  0  0  0  0
   -5.5308    9.7149   -2.0411 H   0  0  0  0  0  0  0  0  0  0  0  0
   -7.0075    8.6921   -2.0411 H   0  0  0  0  0  0  0  0  0  0  0  0
   -6.1049    6.3778    0.2095 H   0  0  0  0  0  0  0  0  0  0  0  0
   -7.0327    6.5693   -1.3167 H   0  0  0  0  0  0  0  0  0  0  0  0
   -5.4805    5.6654   -1.3167 H   0  0  0  0  0  0  0  0  0  0  0  0
    1.1138   10.5931   -0.8866 H   0  0  0  0  0  0  0  0  0  0  0  0
    0.7016    9.3242   -2.9009 H   0  0  0  0  0  0  0  0  0  0  0  0
   -1.0240    9.7462   -2.9063 H   0  0  0  0  0  0  0  0  0  0  0  0
    0.9688   10.8836   -4.6094 H   0  0  0  0  0  0  0  0  0  0  0  0
   -0.6336   11.5744   -4.3670 H   0  0  0  0  0  0  0  0  0  0  0  0
    2.6668   11.9268   -1.8034 H   0  0  0  0  0  0  0  0  0  0  0  0
    2.5840   11.0180   -3.3507 H   0  0  0  0  0  0  0  0  0  0  0  0
    3.0610   12.7498   -3.3507 H   0  0  0  0  0  0  0  0  0  0  0  0
   -0.2999   13.9130   -3.8308 H   0  0  0  0  0  0  0  0  0  0  0  0
    1.4283   13.0694   -5.5469 H   0  0  0  0  0  0  0  0  0  0  0  0
    0.8890   14.8293   -5.5236 H   0  0  0  0  0  0  0  0  0  0  0  0
    3.4616   14.4039   -5.8960 H   0  0  0  0  0  0  0  0  0  0  0  0
    3.0699   14.5205   -1.8783 H   0  0  0  0  0  0  0  0  0  0  0  0
    2.6702   17.4418   -2.7722 H   0  0  0  0  0  0  0  0  0  0  0  0
    2.6063   16.8012   -1.0702 H   0  0  0  0  0  0  0  0  0  0  0  0
    4.7440   17.9450   -1.5610 H   0  0  0  0  0  0  0  0  0  0  0  0
    4.9524   16.1910   -1.1790 H   0  0  0  0  0  0  0  0  0  0  0  0
    6.3685   16.7478   -3.0349 H   0  0  0  0  0  0  0  0  0  0  0  0
    4.1160   17.4150   -4.6370 H   0  0  0  0  0  0  0  0  0  0  0  0
    5.5715   14.4262   -1.9643 H   0  0  0  0  0  0  0  0  0  0  0  0
    5.2604   13.2359   -3.2731 H   0  0  0  0  0  0  0  0  0  0  0  0
    6.7798   14.1941   -3.2731 H   0  0  0  0  0  0  0  0  0  0  0  0
    6.7755   15.2389   -5.1521 H   0  0  0  0  0  0  0  0  0  0  0  0
    5.3361   14.4020   -5.8261 H   0  0  0  0  0  0  0  0  0  0  0  0
    5.4136   16.1966   -5.8261 H   0  0  0  0  0  0  0  0  0  0  0  0
    0.0690   16.8750   -2.2965 H   0  0  0  0  0  0  0  0  0  0  0  0
    1.1007   16.8884   -3.7668 H   0  0  0  0  0  0  0  0  0  0  0  0
   -0.4512   15.9839   -3.7668 H   0  0  0  0  0  0  0  0  0  0  0  0
    1.2311   15.3547   -0.5010 H   0  0  0  0  0  0  0  0  0  0  0  0
   -0.4399   14.9957   -1.2182 H   0  0  0  0  0  0  0  0  0  0  0  0
    1.7340   13.0062   -0.5106 H   0  0  0  0  0  0  0  0  0  0  0  0
    0.1065   13.2161    0.2469 H   0  0  0  0  0  0  0  0  0  0  0  0
   -1.8986   12.8211   -0.8892 H   0  0  0  0  0  0  0  0  0  0  0  0
   -1.5195   13.6522   -2.4359 H   0  0  0  0  0  0  0  0  0  0  0  0
   -1.9541   11.9093   -2.4359 H   0  0  0  0  0  0  0  0  0  0  0  0
  1  2  1  0
  2  3  1  0
  3  4  1  0
  4  5  1  0
  5  6  1  0
  6  7  1  0
  7  8  1  0
  7  9  1  0
  2 10  1  0
 10 11  1  0
 11 12  1  0
 12 13  1  0
 13 14  1  1
 13 15  1  0
 15 16  1  0
 16 17  1  0
 17 18  2  0
 18 19  1  0
 19 20  1  0
 20 21  1  0
 21 22  1  0
 22 23  1  0
 22 24  1  0
 24 25  1  0
 24 26  1  0
 19 27  1  0
 27 28  1  6
 27 29  1  0
 29 30  1  0
 30 31  1  0
 31 32  1  6
  7  5  1  0
 31 10  1  0
 31 13  1  0
 27 15  1  0
 24 18  1  0
  1 33  1  0
  1 34  1  0
  1 35  1  0
  2 36  1  1
  3 37  1  0
  3 38  1  0
  4 39  1  0
  4 40  1  0
  5 41  1  1
  8 42  1  0
  8 43  1  0
  8 44  1  0
  9 45  1  0
  9 46  1  0
  9 47  1  0
 10 48  1  1
 11 49  1  0
 11 50  1  0
 12 51  1  0
 12 52  1  0
 14 53  1  0
 14 54  1  0
 14 55  1  0
 15 56  1  6
 16 57  1  0
 16 58  1  0
 17 59  1  0
 19 60  1  1
 20 61  1  0
 20 62  1  0
 21 63  1  0
 21 64  1  0
 22 65  1  1
 23 66  1  0
 25 67  1  0
 25 68  1  0
 25 69  1  0
 26 70  1  0
 26 71  1  0
 26 72  1  0
 28 73  1  0
 28 74  1  0
 28 75  1  0
 29 76  1  0
 29 77  1  0
 30 78  1  0
 30 79  1  0
 32 80  1  0
 32 81  1  0
 32 82  1  0
M  END
>  <meeko>  (12) 
{"is_sidechain": [false], "intermolecular_energy": 2.731, "internal_energy": -0.839}

$$$$
EPH_relaxed_0001_pdb2pqr_Repair_305_r2_0001_out
     RDKit          3D

 82 86  0  0  0  0  0  0  0  0999 V2000
    0.0420   10.3060   -3.7320 C   0  0  0  0  0  0  0  0  0  0  0  0
    1.1390   10.1160   -2.6810 C   0  0  2  0  0  0  0  0  0  0  0  0
    0.8730    8.8950   -1.7780 C   0  0  0  0  0  0  0  0  0  0  0  0
    0.2230    9.2490   -0.4380 C   0  0  0  0  0  0  0  0  0  0  0  0
   -1.2030    8.7940   -0.3760 C   0  0  2  0  0  0  0  0  0  0  0  0
   -1.8940    8.8160   -1.6320 O   0  0  0  0  0  0  0  0  0  0  0  0
   -2.3860    9.7120   -0.6220 C   0  0  0  0  0  0  0  0  0  0  0  0
   -2.1950   11.1600   -0.9470 C   0  0  0  0  0  0  0  0  0  0  0  0
   -3.7210    9.3220   -0.0690 C   0  0  0  0  0  0  0  0  0  0  0  0
    1.2660   11.3740   -1.8300 C   0  0  1  0  0  0  0  0  0  0  0  0
    2.2220   11.1850   -0.6220 C   0  0  0  0  0  0  0  0  0  0  0  0
    2.9460   12.5390   -0.4080 C   0  0  0  0  0  0  0  0  0  0  0  0
    2.1530   13.5460   -1.2720 C   0  0  1  0  0  0  0  0  0  0  0  0
    0.9120   13.9290   -0.4050 C   0  0  0  0  0  0  0  0  0  0  0  0
    2.9350   14.8120   -1.7510 C   0  0  2  0  0  0  0  0  0  0  0  0
    3.4390   15.7330   -0.6250 C   0  0  0  0  0  0  0  0  0  0  0  0
    2.4960   16.8150   -0.2170 C   0  0  0  0  0  0  0  0  0  0  0  0
    1.4200   17.2200   -0.9160 C   0  0  0  0  0  0  0  0  0  0  0  0
    1.1150   16.6360   -2.3010 C   0  0  1  0  0  0  0  0  0  0  0  0
    0.7720   17.7860   -3.2850 C   0  0  0  0  0  0  0  0  0  0  0  0
   -0.3500   18.6810   -2.7690 C   0  0  0  0  0  0  0  0  0  0  0  0
    0.0140   19.2890   -1.4180 C   0  0  2  0  0  0  0  0  0  0  0  0
    1.1080   20.1940   -1.5990 O   0  0  0  0  0  0  0  0  0  0  0  0
    0.3880   18.2260   -0.3480 C   0  0  0  0  0  0  0  0  0  0  0  0
   -0.8790   17.4390    0.0690 C   0  0  0  0  0  0  0  0  0  0  0  0
    0.8700   18.9760    0.9230 C   0  0  0  0  0  0  0  0  0  0  0  0
    2.2030   15.6360   -2.8870 C   0  0  1  0  0  0  0  0  0  0  0  0
    3.3100   16.4360   -3.6400 C   0  0  0  0  0  0  0  0  0  0  0  0
    1.5220   14.7040   -3.9570 C   0  0  0  0  0  0  0  0  0  0  0  0
    0.8700   13.4090   -3.4370 C   0  0  0  0  0  0  0  0  0  0  0  0
    1.8280   12.6440   -2.5180 C   0  0  2  0  0  0  0  0  0  0  0  0
    3.0750   12.2260   -3.3680 C   0  0  0  0  0  0  0  0  0  0  0  0
   -0.9222   10.4730   -3.2296 H   0  0  0  0  0  0  0  0  0  0  0  0
    0.2833   11.1757   -4.3608 H   0  0  0  0  0  0  0  0  0  0  0  0
   -0.0233    9.4058   -4.3608 H   0  0  0  0  0  0  0  0  0  0  0  0
    2.0820    9.9316   -3.2166 H   0  0  0  0  0  0  0  0  0  0  0  0
    0.2063    8.2046   -2.3154 H   0  0  0  0  0  0  0  0  0  0  0  0
    1.8506    8.4444   -1.5514 H   0  0  0  0  0  0  0  0  0  0  0  0
    0.7876    8.7631    0.3714 H   0  0  0  0  0  0  0  0  0  0  0  0
    0.2386   10.3434   -0.3280 H   0  0  0  0  0  0  0  0  0  0  0  0
   -0.9688    8.0951    0.4405 H   0  0  0  0  0  0  0  0  0  0  0  0
   -2.1187   11.7382   -0.0143 H   0  0  0  0  0  0  0  0  0  0  0  0
   -1.2725   11.2857   -1.5328 H   0  0  0  0  0  0  0  0  0  0  0  0
   -3.0534   11.5206   -1.5328 H   0  0  0  0  0  0  0  0  0  0  0  0
   -3.6802    9.3339    1.0302 H   0  0  0  0  0  0  0  0  0  0  0  0
   -4.4838   10.0348   -0.4154 H   0  0  0  0  0  0  0  0  0  0  0  0
   -3.9801    8.3106   -0.4154 H   0  0  0  0  0  0  0  0  0  0  0  0
    0.2090   11.5248   -1.5656 H   0  0  0  0  0  0  0  0  0  0  0  0
    1.6478   10.9163    0.2770 H   0  0  0  0  0  0  0  0  0  0  0  0
    2.9438   10.3771   -0.8124 H   0  0  0  0  0  0  0  0  0  0  0  0
    2.9184   12.8308    0.6522 H   0  0  0  0  0  0  0  0  0  0  0  0
    4.0082   12.4932   -0.6900 H   0  0  0  0  0  0  0  0  0  0  0  0
    1.1708   13.8491    0.6611 H   0  0  0  0  0  0  0  0  0  0  0  0
    0.6104   14.9620   -0.6327 H   0  0  0  0  0  0  0  0  0  0  0  0
    0.0806   13.2456   -0.6327 H   0  0  0  0  0  0  0  0  0  0  0  0
    3.8361   14.3738   -2.2050 H   0  0  0  0  0  0  0  0  0  0  0  0
    3.6438   15.1097    0.2579 H   0  0  0  0  0  0  0  0  0  0  0  0
    4.3306   16.2400   -1.0225 H   0  0  0  0  0  0  0  0  0  0  0  0
    2.6977   17.3250    0.7365 H   0  0  0  0  0  0  0  0  0  0  0  0
    0.2388   15.9841   -2.1692 H   0  0  0  0  0  0  0  0  0  0  0  0
    1.6717   18.4004   -3.4370 H   0  0  0  0  0  0  0  0  0  0  0  0
    0.4300   17.3300   -4.2258 H   0  0  0  0  0  0  0  0  0  0  0  0
   -0.5259   19.4908   -3.4924 H   0  0  0  0  0  0  0  0  0  0  0  0
   -1.2570   18.0708   -2.6461 H   0  0  0  0  0  0  0  0  0  0  0  0
   -0.8772   19.8127   -1.0419 H   0  0  0  0  0  0  0  0  0  0  0  0
    1.4240   20.0940   -2.5130 H   0  0  0  0  0  0  0  0  0  0  0  0
   -0.9418   17.4000    1.1665 H   0  0  0  0  0  0  0  0  0  0  0  0
   -1.7715   17.9419   -0.3317 H   0  0  0  0  0  0  0  0  0  0  0  0
   -0.8237   16.4161   -0.3317 H   0  0  0  0  0  0  0  0  0  0  0  0
    0.5248   18.4389    1.8187 H   0  0  0  0  0  0  0  0  0  0  0  0
    1.9689   19.0247    0.9254 H   0  0  0  0  0  0  0  0  0  0  0  0
    0.4578   19.9958    0.9254 H   0  0  0  0  0  0  0  0  0  0  0  0
    3.9761   16.9174   -2.9088 H   0  0  0  0  0  0  0  0  0  0  0  0
    3.8934   15.7495   -4.2711 H   0  0  0  0  0  0  0  0  0  0  0  0
    2.8413   17.2054   -4.2711 H   0  0  0  0  0  0  0  0  0  0  0  0
    0.7398   15.2914   -4.4601 H   0  0  0  0  0  0  0  0  0  0  0  0
    2.3413   14.3708   -4.6110 H   0  0  0  0  0  0  0  0  0  0  0  0
   -0.0404   13.6649   -2.8751 H   0  0  0  0  0  0  0  0  0  0  0  0
    0.6240   12.7698   -4.2978 H   0  0  0  0  0  0  0  0  0  0  0  0
    3.9007   11.9492   -2.6960 H   0  0  0  0  0  0  0  0  0  0  0  0
    2.8147   11.3660   -4.0025 H   0  0  0  0  0  0  0  0  0  0  0  0
    3.3856   13.0692   -4.0025 H   0  0  0  0  0  0  0  0  0  0  0  0
  1  2  1  0
  2  3  1  0
  3  4  1  0
  4  5  1  0
  5  6  1  0
  6  7  1  0
  7  8  1  0
  7  9  1  0
  2 10  1  0
 10 11  1  0
 11 12  1  0
 12 13  1  0
 13 14  1  1
 13 15  1  0
 15 16  1  0
 16 17  1  0
 17 18  2  0
 18 19  1  0
 19 20  1  0
 20 21  1  0
 21 22  1  0
 22 23  1  0
 22 24  1  0
 24 25  1  0
 24 26  1  0
 19 27  1  0
 27 28  1  6
 27 29  1  0
 29 30  1  0
 30 31  1  0
 31 32  1  6
  7  5  1  0
 31 10  1  0
 31 13  1  0
 27 15  1  0
 24 18  1  0
  1 33  1  0
  1 34  1  0
  1 35  1  0
  2 36  1  6
  3 37  1  0
  3 38  1  0
  4 39  1  0
  4 40  1  0
  5 41  1  1
  8 42  1  0
  8 43  1  0
  8 44  1  0
  9 45  1  0
  9 46  1  0
  9 47  1  0
 10 48  1  1
 11 49  1  0
 11 50  1  0
 12 51  1  0
 12 52  1  0
 14 53  1  0
 14 54  1  0
 14 55  1  0
 15 56  1  6
 16 57  1  0
 16 58  1  0
 17 59  1  0
 19 60  1  1
 20 61  1  0
 20 62  1  0
 21 63  1  0
 21 64  1  0
 22 65  1  1
 23 66  1  0
 25 67  1  0
 25 68  1  0
 25 69  1  0
 26 70  1  0
 26 71  1  0
 26 72  1  0
 28 73  1  0
 28 74  1  0
 28 75  1  0
 29 76  1  0
 29 77  1  0
 30 78  1  0
 30 79  1  0
 32 80  1  0
 32 81  1  0
 32 82  1  0
M  END
>  <meeko>  (13) 
{"is_sidechain": [false], "intermolecular_energy": 2.731, "internal_energy": -0.839}

$$$$
EPH_relaxed_0001_pdb2pqr_Repair_305_r2_0001_out
     RDKit          3D

 82 86  0  0  0  0  0  0  0  0999 V2000
   -0.6410    8.1980   -0.7840 C   0  0  0  0  0  0  0  0  0  0  0  0
   -1.3100    9.4680   -0.2510 C   0  0  2  0  0  0  0  0  0  0  0  0
   -2.8350    9.3010   -0.0990 C   0  0  0  0  0  0  0  0  0  0  0  0
   -3.4190    8.1750   -0.9560 C   0  0  0  0  0  0  0  0  0  0  0  0
   -4.9170    8.1650   -0.9110 C   0  0  2  0  0  0  0  0  0  0  0  0
   -5.4960    6.9110   -0.5270 O   0  0  0  0  0  0  0  0  0  0  0  0
   -5.7770    7.3560   -1.8640 C   0  0  0  0  0  0  0  0  0  0  0  0
   -5.1680    6.5020   -2.9310 C   0  0  0  0  0  0  0  0  0  0  0  0
   -7.2000    7.7740   -2.0740 C   0  0  0  0  0  0  0  0  0  0  0  0
   -1.0040   10.6420   -1.1730 C   0  0  1  0  0  0  0  0  0  0  0  0
   -2.1900   11.6360   -1.2900 C   0  0  0  0  0  0  0  0  0  0  0  0
   -1.5760   13.0520   -1.4270 C   0  0  0  0  0  0  0  0  0  0  0  0
   -0.0780   12.8010   -1.7180 C   0  0  1  0  0  0  0  0  0  0  0  0
   -0.0130   12.4880   -3.2460 C   0  0  0  0  0  0  0  0  0  0  0  0
    0.9050   13.9510   -1.3220 C   0  0  2  0  0  0  0  0  0  0  0  0
    0.6860   15.2810   -2.0650 C   0  0  0  0  0  0  0  0  0  0  0  0
    1.4590   15.4380   -3.3330 C   0  0  0  0  0  0  0  0  0  0  0  0
    2.5040   14.6790   -3.7110 C   0  0  0  0  0  0  0  0  0  0  0  0
    3.0710   13.5990   -2.7800 C   0  0  1  0  0  0  0  0  0  0  0  0
    4.6180   13.7070   -2.7440 C   0  0  0  0  0  0  0  0  0  0  0  0
    5.2400   13.6620   -4.1370 C   0  0  0  0  0  0  0  0  0  0  0  0
    4.6940   14.7850   -5.0140 C   0  0  2  0  0  0  0  0  0  0  0  0
    5.1410   16.0390   -4.4880 O   0  0  0  0  0  0  0  0  0  0  0  0
    3.1430   14.7840   -5.1170 C   0  0  0  0  0  0  0  0  0  0  0  0
    2.6780   13.5680   -5.9550 C   0  0  0  0  0  0  0  0  0  0  0  0
    2.7170   16.0480   -5.9120 C   0  0  0  0  0  0  0  0  0  0  0  0
    2.4310   13.5300   -1.3270 C   0  0  1  0  0  0  0  0  0  0  0  0
    3.1680   14.5190   -0.3730 C   0  0  0  0  0  0  0  0  0  0  0  0
    2.6560   12.0890   -0.7340 C   0  0  0  0  0  0  0  0  0  0  0  0
    1.5880   11.0280   -1.0620 C   0  0  0  0  0  0  0  0  0  0  0  0
    0.1800   11.5630   -0.7840 C   0  0  2  0  0  0  0  0  0  0  0  0
    0.0770   11.8660    0.7500 C   0  0  0  0  0  0  0  0  0  0  0  0
   -0.3125    7.5745    0.0606 H   0  0  0  0  0  0  0  0  0  0  0  0
   -1.3596    7.6350   -1.3978 H   0  0  0  0  0  0  0  0  0  0  0  0
    0.2297    8.4722   -1.3978 H   0  0  0  0  0  0  0  0  0  0  0  0
   -0.8983    9.6640    0.7500 H   0  0  0  0  0  0  0  0  0  0  0  0
   -3.0573    9.0851    0.9565 H   0  0  0  0  0  0  0  0  0  0  0  0
   -3.2969   10.2386   -0.4418 H   0  0  0  0  0  0  0  0  0  0  0  0
   -3.0944    8.3147   -1.9977 H   0  0  0  0  0  0  0  0  0  0  0  0
   -3.0572    7.2163   -0.5560 H   0  0  0  0  0  0  0  0  0  0  0  0
   -4.9388    9.2245   -0.6159 H   0  0  0  0  0  0  0  0  0  0  0  0
   -4.5894    5.6906   -2.4654 H   0  0  0  0  0  0  0  0  0  0  0  0
   -5.9647    6.0723   -3.5560 H   0  0  0  0  0  0  0  0  0  0  0  0
   -4.5022    7.1153   -3.5560 H   0  0  0  0  0  0  0  0  0  0  0  0
   -7.6878    7.9173   -1.0986 H   0  0  0  0  0  0  0  0  0  0  0  0
   -7.2254    8.7176   -2.6388 H   0  0  0  0  0  0  0  0  0  0  0  0
   -7.7317    6.9941   -2.6388 H   0  0  0  0  0  0  0  0  0  0  0  0
   -0.7663   10.0929   -2.0961 H   0  0  0  0  0  0  0  0  0  0  0  0
   -2.7966   11.3990   -2.1765 H   0  0  0  0  0  0  0  0  0  0  0  0
   -2.8454   11.5737   -0.4088 H   0  0  0  0  0  0  0  0  0  0  0  0
   -2.0461   13.6006   -2.2565 H   0  0  0  0  0  0  0  0  0  0  0  0
   -1.7292   13.6623   -0.5247 H   0  0  0  0  0  0  0  0  0  0  0  0
    0.2087   11.4206   -3.3925 H   0  0  0  0  0  0  0  0  0  0  0  0
   -0.9803   12.7288   -3.7111 H   0  0  0  0  0  0  0  0  0  0  0  0
    0.7784   13.0941   -3.7111 H   0  0  0  0  0  0  0  0  0  0  0  0
    0.6313   14.1454   -0.2745 H   0  0  0  0  0  0  0  0  0  0  0  0
   -0.3840   15.3631   -2.3068 H   0  0  0  0  0  0  0  0  0  0  0  0
    1.0467   16.0702   -1.3890 H   0  0  0  0  0  0  0  0  0  0  0  0
    1.1478   16.2422   -4.0159 H   0  0  0  0  0  0  0  0  0  0  0  0
    2.7736   12.6344   -3.2171 H   0  0  0  0  0  0  0  0  0  0  0  0
    4.8941   14.6580   -2.2650 H   0  0  0  0  0  0  0  0  0  0  0  0
    5.0001   12.8437   -2.1795 H   0  0  0  0  0  0  0  0  0  0  0  0
    6.3308   13.7726   -4.0480 H   0  0  0  0  0  0  0  0  0  0  0  0
    4.9881   12.6981   -4.6032 H   0  0  0  0  0  0  0  0  0  0  0  0
    5.0752   14.6228   -6.0330 H   0  0  0  0  0  0  0  0  0  0  0  0
    5.8780   15.8580   -3.8810 H   0  0  0  0  0  0  0  0  0  0  0  0
    2.3674   12.7557   -5.2814 H   0  0  0  0  0  0  0  0  0  0  0  0
    1.8292   13.8630   -6.5895 H   0  0  0  0  0  0  0  0  0  0  0  0
    3.5070   13.2214   -6.5895 H   0  0  0  0  0  0  0  0  0  0  0  0
    2.4468   16.8496   -5.2089 H   0  0  0  0  0  0  0  0  0  0  0  0
    3.5523   16.3817   -6.5452 H   0  0  0  0  0  0  0  0  0  0  0  0
    1.8501   15.8080   -6.5452 H   0  0  0  0  0  0  0  0  0  0  0  0
    2.9622   14.2428    0.6717 H   0  0  0  0  0  0  0  0  0  0  0  0
    4.2510   14.4693   -0.5588 H   0  0  0  0  0  0  0  0  0  0  0  0
    2.8107   15.5426   -0.5588 H   0  0  0  0  0  0  0  0  0  0  0  0
    3.6198   11.7195   -1.1142 H   0  0  0  0  0  0  0  0  0  0  0  0
    2.6092   12.2165    0.3576 H   0  0  0  0  0  0  0  0  0  0  0  0
    1.6660   10.7555   -2.1249 H   0  0  0  0  0  0  0  0  0  0  0  0
    1.7608   10.1479   -0.4251 H   0  0  0  0  0  0  0  0  0  0  0  0
    0.3796   10.9757    1.3207 H   0  0  0  0  0  0  0  0  0  0  0  0
    0.7399   12.7066    1.0030 H   0  0  0  0  0  0  0  0  0  0  0  0
   -0.9608   12.1284    1.0030 H   0  0  0  0  0  0  0  0  0  0  0  0
  1  2  1  0
  2  3  1  0
  3  4  1  0
  4  5  1  0
  5  6  1  0
  6  7  1  0
  7  8  1  0
  7  9  1  0
  2 10  1  0
 10 11  1  0
 11 12  1  0
 12 13  1  0
 13 14  1  6
 13 15  1  0
 15 16  1  0
 16 17  1  0
 17 18  2  0
 18 19  1  0
 19 20  1  0
 20 21  1  0
 21 22  1  0
 22 23  1  0
 22 24  1  0
 24 25  1  0
 24 26  1  0
 19 27  1  0
 27 28  1  1
 27 29  1  0
 29 30  1  0
 30 31  1  0
 31 32  1  1
  7  5  1  0
 31 10  1  0
 31 13  1  0
 27 15  1  0
 24 18  1  0
  1 33  1  0
  1 34  1  0
  1 35  1  0
  2 36  1  1
  3 37  1  0
  3 38  1  0
  4 39  1  0
  4 40  1  0
  5 41  1  1
  8 42  1  0
  8 43  1  0
  8 44  1  0
  9 45  1  0
  9 46  1  0
  9 47  1  0
 10 48  1  6
 11 49  1  0
 11 50  1  0
 12 51  1  0
 12 52  1  0
 14 53  1  0
 14 54  1  0
 14 55  1  0
 15 56  1  1
 16 57  1  0
 16 58  1  0
 17 59  1  0
 19 60  1  6
 20 61  1  0
 20 62  1  0
 21 63  1  0
 21 64  1  0
 22 65  1  6
 23 66  1  0
 25 67  1  0
 25 68  1  0
 25 69  1  0
 26 70  1  0
 26 71  1  0
 26 72  1  0
 28 73  1  0
 28 74  1  0
 28 75  1  0
 29 76  1  0
 29 77  1  0
 30 78  1  0
 30 79  1  0
 32 80  1  0
 32 81  1  0
 32 82  1  0
M  END
>  <meeko>  (14) 
{"is_sidechain": [false], "intermolecular_energy": 2.731, "internal_energy": -0.839}

$$$$
EPH_relaxed_0001_pdb2pqr_Repair_305_r2_0001_out
     RDKit          3D

 82 86  0  0  0  0  0  0  0  0999 V2000
   -0.8650    9.4190   -2.8090 C   0  0  0  0  0  0  0  0  0  0  0  0
    0.3130    9.1130   -1.8800 C   0  0  2  0  0  0  0  0  0  0  0  0
   -0.1460    8.8300   -0.4350 C   0  0  0  0  0  0  0  0  0  0  0  0
   -0.6760   10.0670    0.2960 C   0  0  0  0  0  0  0  0  0  0  0  0
    0.3380   10.6260    1.2460 C   0  0  2  0  0  0  0  0  0  0  0  0
   -0.2050   11.4570    2.2800 O   0  0  0  0  0  0  0  0  0  0  0  0
    0.6690   12.1040    1.3410 C   0  0  0  0  0  0  0  0  0  0  0  0
   -0.0120   13.1140    0.4720 C   0  0  0  0  0  0  0  0  0  0  0  0
    1.9890   12.5060    1.9240 C   0  0  0  0  0  0  0  0  0  0  0  0
    1.3020   10.2730   -1.8940 C   0  0  1  0  0  0  0  0  0  0  0  0
    2.7380    9.8290   -2.2800 C   0  0  0  0  0  0  0  0  0  0  0  0
    3.3620   10.9910   -3.0940 C   0  0  0  0  0  0  0  0  0  0  0  0
    2.4030   12.1840   -2.8690 C   0  0  1  0  0  0  0  0  0  0  0  0
    2.8110   12.7690   -1.4800 C   0  0  0  0  0  0  0  0  0  0  0  0
    2.3960   13.2840   -3.9790 C   0  0  2  0  0  0  0  0  0  0  0  0
    3.7320   14.0220   -4.1760 C   0  0  0  0  0  0  0  0  0  0  0  0
    3.9080   15.2530   -3.3510 C   0  0  0  0  0  0  0  0  0  0  0  0
    2.9260   15.9070   -2.7020 C   0  0  0  0  0  0  0  0  0  0  0  0
    1.4620   15.4690   -2.8420 C   0  0  1  0  0  0  0  0  0  0  0  0
    0.5720   16.7140   -3.0970 C   0  0  0  0  0  0  0  0  0  0  0  0
    0.7590   17.7940   -2.0350 C   0  0  0  0  0  0  0  0  0  0  0  0
    2.2160   18.2440   -1.9660 C   0  0  2  0  0  0  0  0  0  0  0  0
    2.5500   18.9120   -3.1870 O   0  0  0  0  0  0  0  0  0  0  0  0
    3.2080   17.0730   -1.7230 C   0  0  0  0  0  0  0  0  0  0  0  0
    3.0440   16.5440   -0.2760 C   0  0  0  0  0  0  0  0  0  0  0  0
    4.6500   17.6410   -1.8160 C   0  0  0  0  0  0  0  0  0  0  0  0
    1.1850   14.2980   -3.8800 C   0  0  1  0  0  0  0  0  0  0  0  0
    0.9820   14.8900   -5.3080 C   0  0  0  0  0  0  0  0  0  0  0  0
   -0.1640   13.5820   -3.4990 C   0  0  0  0  0  0  0  0  0  0  0  0
   -0.0750   12.4240   -2.4870 C   0  0  0  0  0  0  0  0  0  0  0  0
    1.0220   11.4330   -2.8830 C   0  0  2  0  0  0  0  0  0  0  0  0
    0.6290   10.8110   -4.2660 C   0  0  0  0  0  0  0  0  0  0  0  0
   -1.7561    9.6505   -2.2071 H   0  0  0  0  0  0  0  0  0  0  0  0
   -0.6168   10.2825   -3.4437 H   0  0  0  0  0  0  0  0  0  0  0  0
   -1.0684    8.5439   -3.4437 H   0  0  0  0  0  0  0  0  0  0  0  0
    0.8028    8.2026   -2.2559 H   0  0  0  0  0  0  0  0  0  0  0  0
   -0.9460    8.0757   -0.4662 H   0  0  0  0  0  0  0  0  0  0  0  0
    0.7374    8.4822    0.1206 H   0  0  0  0  0  0  0  0  0  0  0  0
   -0.9318   10.8374   -0.4463 H   0  0  0  0  0  0  0  0  0  0  0  0
   -1.5618    9.7691    0.8762 H   0  0  0  0  0  0  0  0  0  0  0  0
    0.9713    9.7337    1.1329 H   0  0  0  0  0  0  0  0  0  0  0  0
   -0.5156   13.8609    1.1033 H   0  0  0  0  0  0  0  0  0  0  0  0
    0.7342   13.6139   -0.1631 H   0  0  0  0  0  0  0  0  0  0  0  0
   -0.7552   12.6097   -0.1631 H   0  0  0  0  0  0  0  0  0  0  0  0
    1.9260   12.4868    3.0220 H   0  0  0  0  0  0  0  0  0  0  0  0
    2.7668   11.8040    1.5890 H   0  0  0  0  0  0  0  0  0  0  0  0
    2.2435   13.5224    1.5890 H   0  0  0  0  0  0  0  0  0  0  0  0
    1.1888   10.6254   -0.8582 H   0  0  0  0  0  0  0  0  0  0  0  0
    3.3322    9.6394   -1.3739 H   0  0  0  0  0  0  0  0  0  0  0  0
    2.7192    8.9000   -2.8687 H   0  0  0  0  0  0  0  0  0  0  0  0
    4.3701   11.2277   -2.7228 H   0  0  0  0  0  0  0  0  0  0  0  0
    3.4741   10.7410   -4.1593 H   0  0  0  0  0  0  0  0  0  0  0  0
    2.3791   12.1497   -0.6801 H   0  0  0  0  0  0  0  0  0  0  0  0
    3.9074   12.7709   -1.3907 H   0  0  0  0  0  0  0  0  0  0  0  0
    2.4340   13.7985   -1.3907 H   0  0  0  0  0  0  0  0  0  0  0  0
    2.2436   12.6930   -4.8942 H   0  0  0  0  0  0  0  0  0  0  0  0
    4.5454   13.3253   -3.9248 H   0  0  0  0  0  0  0  0  0  0  0  0
    3.7444   14.3541   -5.2246 H   0  0  0  0  0  0  0  0  0  0  0  0
    4.9261   15.6607   -3.2658 H   0  0  0  0  0  0  0  0  0  0  0  0
    1.1897   15.0052   -1.8824 H   0  0  0  0  0  0  0  0  0  0  0  0
    0.8300   17.1368   -4.0792 H   0  0  0  0  0  0  0  0  0  0  0  0
   -0.4778   16.3874   -3.0601 H   0  0  0  0  0  0  0  0  0  0  0  0
    0.1266   18.6585   -2.2853 H   0  0  0  0  0  0  0  0  0  0  0  0
    0.4729   17.3787   -1.0574 H   0  0  0  0  0  0  0  0  0  0  0  0
    2.3121   18.9201   -1.1037 H   0  0  0  0  0  0  0  0  0  0  0  0
    1.8020   19.4860   -3.4220 H   0  0  0  0  0  0  0  0  0  0  0  0
    3.2920   17.3439    0.4372 H   0  0  0  0  0  0  0  0  0  0  0  0
    2.0039   16.2222   -0.1189 H   0  0  0  0  0  0  0  0  0  0  0  0
    3.7196   15.6903   -0.1189 H   0  0  0  0  0  0  0  0  0  0  0  0
    5.0483   17.7979   -0.8027 H   0  0  0  0  0  0  0  0  0  0  0  0
    5.2908   16.9281   -2.3556 H   0  0  0  0  0  0  0  0  0  0  0  0
    4.6325   18.5994   -2.3556 H   0  0  0  0  0  0  0  0  0  0  0  0
    0.6262   15.9277   -5.2275 H   0  0  0  0  0  0  0  0  0  0  0  0
    1.9379   14.8713   -5.8520 H   0  0  0  0  0  0  0  0  0  0  0  0
    0.2387   14.2886   -5.8520 H   0  0  0  0  0  0  0  0  0  0  0  0
   -0.8363   14.3428   -3.0756 H   0  0  0  0  0  0  0  0  0  0  0  0
   -0.5185   13.1211   -4.4328 H   0  0  0  0  0  0  0  0  0  0  0  0
    0.1519   12.8329   -1.4914 H   0  0  0  0  0  0  0  0  0  0  0  0
   -1.0388   11.8939   -2.4752 H   0  0  0  0  0  0  0  0  0  0  0  0
    0.0480    9.8914   -4.1026 H   0  0  0  0  0  0  0  0  0  0  0  0
    0.0223   11.5322   -4.8333 H   0  0  0  0  0  0  0  0  0  0  0  0
    1.5408   10.5727   -4.8333 H   0  0  0  0  0  0  0  0  0  0  0  0
  1  2  1  0
  2  3  1  0
  3  4  1  0
  4  5  1  0
  5  6  1  0
  6  7  1  0
  7  8  1  0
  7  9  1  0
  2 10  1  0
 10 11  1  0
 11 12  1  0
 12 13  1  0
 13 14  1  1
 13 15  1  0
 15 16  1  0
 16 17  1  0
 17 18  2  0
 18 19  1  0
 19 20  1  0
 20 21  1  0
 21 22  1  0
 22 23  1  0
 22 24  1  0
 24 25  1  0
 24 26  1  0
 19 27  1  0
 27 28  1  6
 27 29  1  0
 29 30  1  0
 30 31  1  0
 31 32  1  6
  7  5  1  0
 31 10  1  0
 31 13  1  0
 27 15  1  0
 24 18  1  0
  1 33  1  0
  1 34  1  0
  1 35  1  0
  2 36  1  6
  3 37  1  0
  3 38  1  0
  4 39  1  0
  4 40  1  0
  5 41  1  1
  8 42  1  0
  8 43  1  0
  8 44  1  0
  9 45  1  0
  9 46  1  0
  9 47  1  0
 10 48  1  1
 11 49  1  0
 11 50  1  0
 12 51  1  0
 12 52  1  0
 14 53  1  0
 14 54  1  0
 14 55  1  0
 15 56  1  6
 16 57  1  0
 16 58  1  0
 17 59  1  0
 19 60  1  1
 20 61  1  0
 20 62  1  0
 21 63  1  0
 21 64  1  0
 22 65  1  1
 23 66  1  0
 25 67  1  0
 25 68  1  0
 25 69  1  0
 26 70  1  0
 26 71  1  0
 26 72  1  0
 28 73  1  0
 28 74  1  0
 28 75  1  0
 29 76  1  0
 29 77  1  0
 30 78  1  0
 30 79  1  0
 32 80  1  0
 32 81  1  0
 32 82  1  0
M  END
>  <meeko>  (15) 
{"is_sidechain": [false], "intermolecular_energy": 2.731, "internal_energy": -0.839}

$$$$
EPH_relaxed_0001_pdb2pqr_Repair_305_r2_0001_out
     RDKit          3D

 82 86  0  0  0  0  0  0  0  0999 V2000
    4.5930   10.8530   -4.7520 C   0  0  0  0  0  0  0  0  0  0  0  0
    3.9840   11.1640   -3.3820 C   0  0  2  0  0  0  0  0  0  0  0  0
    2.4990   10.7590   -3.3010 C   0  0  0  0  0  0  0  0  0  0  0  0
    2.1260   10.0430   -2.0000 C   0  0  0  0  0  0  0  0  0  0  0  0
    0.6770    9.6590   -1.9740 C   0  0  2  0  0  0  0  0  0  0  0  0
   -0.2310   10.7280   -2.2700 O   0  0  0  0  0  0  0  0  0  0  0  0
   -0.3080   10.1800   -0.9440 C   0  0  0  0  0  0  0  0  0  0  0  0
    0.1180   11.1280    0.1330 C   0  0  0  0  0  0  0  0  0  0  0  0
   -1.5560    9.3950   -0.6880 C   0  0  0  0  0  0  0  0  0  0  0  0
    4.1360   12.6480   -3.0700 C   0  0  1  0  0  0  0  0  0  0  0  0
    5.2660   13.3200   -3.8970 C   0  0  0  0  0  0  0  0  0  0  0  0
    4.7970   14.7650   -4.2040 C   0  0  0  0  0  0  0  0  0  0  0  0
    3.5800   14.9860   -3.2750 C   0  0  1  0  0  0  0  0  0  0  0  0
    4.1960   15.3460   -1.8860 C   0  0  0  0  0  0  0  0  0  0  0  0
    2.5400   16.0570   -3.7400 C   0  0  2  0  0  0  0  0  0  0  0  0
    3.0850   17.4920   -3.8470 C   0  0  0  0  0  0  0  0  0  0  0  0
    2.9590   18.3160   -2.6090 C   0  0  0  0  0  0  0  0  0  0  0  0
    2.1790   18.0240   -1.5510 C   0  0  0  0  0  0  0  0  0  0  0  0
    1.2420   16.8090   -1.5750 C   0  0  1  0  0  0  0  0  0  0  0  0
   -0.1580   17.2260   -1.0530 C   0  0  0  0  0  0  0  0  0  0  0  0
   -0.0970   17.8890    0.3200 C   0  0  0  0  0  0  0  0  0  0  0  0
    0.7980   19.1250    0.2890 C   0  0  2  0  0  0  0  0  0  0  0  0
    0.1820   20.1190   -0.5370 O   0  0  0  0  0  0  0  0  0  0  0  0
    2.2330   18.8300   -0.2300 C   0  0  0  0  0  0  0  0  0  0  0  0
    3.0040   17.9930    0.8200 C   0  0  0  0  0  0  0  0  0  0  0  0
    2.9860   20.1830   -0.3460 C   0  0  0  0  0  0  0  0  0  0  0  0
    1.1700   16.0160   -2.9500 C   0  0  1  0  0  0  0  0  0  0  0  0
    0.1000   16.6630   -3.8820 C   0  0  0  0  0  0  0  0  0  0  0  0
    0.6840   14.5450   -2.6700 C   0  0  0  0  0  0  0  0  0  0  0  0
    1.7710   13.5070   -2.3330 C   0  0  0  0  0  0  0  0  0  0  0  0
    2.9170   13.5630   -3.3480 C   0  0  2  0  0  0  0  0  0  0  0  0
    2.3320   13.1830   -4.7510 C   0  0  0  0  0  0  0  0  0  0  0  0
    5.5652   10.3565   -4.6169 H   0  0  0  0  0  0  0  0  0  0  0  0
    3.9172   10.1897   -5.3117 H   0  0  0  0  0  0  0  0  0  0  0  0
    4.7341   11.7894   -5.3117 H   0  0  0  0  0  0  0  0  0  0  0  0
    4.5300   10.5690   -2.6351 H   0  0  0  0  0  0  0  0  0  0  0  0
    1.8860   11.6685   -3.3848 H   0  0  0  0  0  0  0  0  0  0  0  0
    2.3139   10.0507   -4.1220 H   0  0  0  0  0  0  0  0  0  0  0  0
    2.7375    9.1335   -1.9057 H   0  0  0  0  0  0  0  0  0  0  0  0
    2.3130   10.7324   -1.1635 H   0  0  0  0  0  0  0  0  0  0  0  0
    0.9160    8.6419   -2.3180 H   0  0  0  0  0  0  0  0  0  0  0  0
   -0.0835   10.6795    1.1170 H   0  0  0  0  0  0  0  0  0  0  0  0
    1.1945   11.3325    0.0368 H   0  0  0  0  0  0  0  0  0  0  0  0
   -0.4439   12.0687    0.0368 H   0  0  0  0  0  0  0  0  0  0  0  0
   -1.7116    9.2971    0.3965 H   0  0  0  0  0  0  0  0  0  0  0  0
   -2.4151    9.9157   -1.1362 H   0  0  0  0  0  0  0  0  0  0  0  0
   -1.4587    8.3952   -1.1362 H   0  0  0  0  0  0  0  0  0  0  0  0
    4.3237   12.5895   -1.9877 H   0  0  0  0  0  0  0  0  0  0  0  0
    6.1998   13.3403   -3.3159 H   0  0  0  0  0  0  0  0  0  0  0  0
    5.4610   12.7626   -4.8251 H   0  0  0  0  0  0  0  0  0  0  0  0
    5.5944   15.4883   -3.9781 H   0  0  0  0  0  0  0  0  0  0  0  0
    4.5426   14.9044   -5.2651 H   0  0  0  0  0  0  0  0  0  0  0  0
    3.5442   14.9651   -1.0860 H   0  0  0  0  0  0  0  0  0  0  0  0
    5.1921   14.8878   -1.7968 H   0  0  0  0  0  0  0  0  0  0  0  0
    4.2857   16.4387   -1.7968 H   0  0  0  0  0  0  0  0  0  0  0  0
    2.3226   15.7425   -4.7714 H   0  0  0  0  0  0  0  0  0  0  0  0
    4.1519   17.4318   -4.1080 H   0  0  0  0  0  0  0  0  0  0  0  0
    2.4722   17.9940   -4.6102 H   0  0  0  0  0  0  0  0  0  0  0  0
    3.5536   19.2399   -2.5564 H   0  0  0  0  0  0  0  0  0  0  0  0
    1.6878   16.0667   -0.8965 H   0  0  0  0  0  0  0  0  0  0  0  0
   -0.6040   17.9341   -1.7670 H   0  0  0  0  0  0  0  0  0  0  0  0
   -0.7638   16.3130   -0.9562 H   0  0  0  0  0  0  0  0  0  0  0  0
   -1.1121   18.1869    0.6214 H   0  0  0  0  0  0  0  0  0  0  0  0
    0.3220   17.1698    1.0392 H   0  0  0  0  0  0  0  0  0  0  0  0
    0.9065   19.4800    1.3245 H   0  0  0  0  0  0  0  0  0  0  0  0
    0.7770   20.8870   -0.5650 H   0  0  0  0  0  0  0  0  0  0  0  0
    2.7101   18.3121    1.8309 H   0  0  0  0  0  0  0  0  0  0  0  0
    2.7642   16.9277    0.6875 H   0  0  0  0  0  0  0  0  0  0  0  0
    4.0854   18.1447    0.6875 H   0  0  0  0  0  0  0  0  0  0  0  0
    3.2015   20.5702    0.6608 H   0  0  0  0  0  0  0  0  0  0  0  0
    3.9298   20.0319   -0.8905 H   0  0  0  0  0  0  0  0  0  0  0  0
    2.3602   20.9054   -0.8905 H   0  0  0  0  0  0  0  0  0  0  0  0
   -0.6819   17.1358   -3.2696 H   0  0  0  0  0  0  0  0  0  0  0  0
    0.5783   17.4233   -4.5169 H   0  0  0  0  0  0  0  0  0  0  0  0
   -0.3511   15.8862   -4.5169 H   0  0  0  0  0  0  0  0  0  0  0  0
   -0.0158   14.5814   -1.8220 H   0  0  0  0  0  0  0  0  0  0  0  0
    0.2425   14.2024   -3.6175 H   0  0  0  0  0  0  0  0  0  0  0  0
    2.1691   13.7160   -1.3291 H   0  0  0  0  0  0  0  0  0  0  0  0
    1.3207   12.5040   -2.3678 H   0  0  0  0  0  0  0  0  0  0  0  0
    1.4163   12.5882   -4.6176 H   0  0  0  0  0  0  0  0  0  0  0  0
    2.0952   14.1002   -5.3102 H   0  0  0  0  0  0  0  0  0  0  0  0
    3.0737   12.5938   -5.3102 H   0  0  0  0  0  0  0  0  0  0  0  0
  1  2  1  0
  2  3  1  0
  3  4  1  0
  4  5  1  0
  5  6  1  0
  6  7  1  0
  7  8  1  0
  7  9  1  0
  2 10  1  0
 10 11  1  0
 11 12  1  0
 12 13  1  0
 13 14  1  1
 13 15  1  0
 15 16  1  0
 16 17  1  0
 17 18  2  0
 18 19  1  0
 19 20  1  0
 20 21  1  0
 21 22  1  0
 22 23  1  0
 22 24  1  0
 24 25  1  0
 24 26  1  0
 19 27  1  0
 27 28  1  6
 27 29  1  0
 29 30  1  0
 30 31  1  0
 31 32  1  6
  7  5  1  0
 31 10  1  0
 31 13  1  0
 27 15  1  0
 24 18  1  0
  1 33  1  0
  1 34  1  0
  1 35  1  0
  2 36  1  1
  3 37  1  0
  3 38  1  0
  4 39  1  0
  4 40  1  0
  5 41  1  6
  8 42  1  0
  8 43  1  0
  8 44  1  0
  9 45  1  0
  9 46  1  0
  9 47  1  0
 10 48  1  1
 11 49  1  0
 11 50  1  0
 12 51  1  0
 12 52  1  0
 14 53  1  0
 14 54  1  0
 14 55  1  0
 15 56  1  6
 16 57  1  0
 16 58  1  0
 17 59  1  0
 19 60  1  1
 20 61  1  0
 20 62  1  0
 21 63  1  0
 21 64  1  0
 22 65  1  1
 23 66  1  0
 25 67  1  0
 25 68  1  0
 25 69  1  0
 26 70  1  0
 26 71  1  0
 26 72  1  0
 28 73  1  0
 28 74  1  0
 28 75  1  0
 29 76  1  0
 29 77  1  0
 30 78  1  0
 30 79  1  0
 32 80  1  0
 32 81  1  0
 32 82  1  0
M  END
>  <meeko>  (16) 
{"is_sidechain": [false], "intermolecular_energy": 2.731, "internal_energy": -0.839}

$$$$
EPH_relaxed_0001_pdb2pqr_Repair_305_r2_0001_out
     RDKit          3D

 82 86  0  0  0  0  0  0  0  0999 V2000
    4.7930   17.2690   -3.7650 C   0  0  0  0  0  0  0  0  0  0  0  0
    3.3230   16.9220   -3.5180 C   0  0  2  0  0  0  0  0  0  0  0  0
    2.7720   17.5950   -2.2450 C   0  0  0  0  0  0  0  0  0  0  0  0
    1.7380   18.6890   -2.5260 C   0  0  0  0  0  0  0  0  0  0  0  0
    0.4070   18.3610   -1.9200 C   0  0  2  0  0  0  0  0  0  0  0  0
   -0.4470   19.4920   -1.7040 O   0  0  0  0  0  0  0  0  0  0  0  0
   -0.0080   18.7950   -0.5270 C   0  0  0  0  0  0  0  0  0  0  0  0
    0.9080   19.5930    0.3470 C   0  0  0  0  0  0  0  0  0  0  0  0
   -1.0970   18.0350    0.1650 C   0  0  0  0  0  0  0  0  0  0  0  0
    3.1550   15.4100   -3.4220 C   0  0  1  0  0  0  0  0  0  0  0  0
    4.4990   14.6490   -3.5710 C   0  0  0  0  0  0  0  0  0  0  0  0
    4.4170   13.4090   -2.6440 C   0  0  0  0  0  0  0  0  0  0  0  0
    2.9240   13.3140   -2.2520 C   0  0  1  0  0  0  0  0  0  0  0  0
    2.2350   12.6110   -3.4630 C   0  0  0  0  0  0  0  0  0  0  0  0
    2.6080   12.5850   -0.9050 C   0  0  2  0  0  0  0  0  0  0  0  0
    3.0140   11.1010   -0.8560 C   0  0  0  0  0  0  0  0  0  0  0  0
    1.9630   10.1380   -1.2990 C   0  0  0  0  0  0  0  0  0  0  0  0
    0.6560   10.4210   -1.4490 C   0  0  0  0  0  0  0  0  0  0  0  0
    0.0990   11.7980   -1.0670 C   0  0  1  0  0  0  0  0  0  0  0  0
   -1.1980   11.6200   -0.2360 C   0  0  0  0  0  0  0  0  0  0  0  0
   -2.2320   10.7490   -0.9440 C   0  0  0  0  0  0  0  0  0  0  0  0
   -1.6600    9.3680   -1.2540 C   0  0  2  0  0  0  0  0  0  0  0  0
   -1.4270    8.6780   -0.0220 O   0  0  0  0  0  0  0  0  0  0  0  0
   -0.3450    9.4210   -2.0800 C   0  0  0  0  0  0  0  0  0  0  0  0
   -0.6550    9.8910   -3.5230 C   0  0  0  0  0  0  0  0  0  0  0  0
    0.2010    7.9730   -2.2030 C   0  0  0  0  0  0  0  0  0  0  0  0
    1.1290   12.7970   -0.3840 C   0  0  1  0  0  0  0  0  0  0  0  0
    1.1620   12.5570    1.1570 C   0  0  0  0  0  0  0  0  0  0  0  0
    0.6280   14.2750   -0.5930 C   0  0  0  0  0  0  0  0  0  0  0  0
    1.0720   14.9830   -1.8870 C   0  0  0  0  0  0  0  0  0  0  0  0
    2.5820   14.8410   -2.0990 C   0  0  2  0  0  0  0  0  0  0  0  0
    3.3020   15.5580   -0.9070 C   0  0  0  0  0  0  0  0  0  0  0  0
    5.3081   17.3906   -2.8007 H   0  0  0  0  0  0  0  0  0  0  0  0
    5.2701   16.4588   -4.3359 H   0  0  0  0  0  0  0  0  0  0  0  0
    4.8574   18.2070   -4.3359 H   0  0  0  0  0  0  0  0  0  0  0  0
    2.7450   17.3074   -4.3708 H   0  0  0  0  0  0  0  0  0  0  0  0
    2.2995   16.8226   -1.6205 H   0  0  0  0  0  0  0  0  0  0  0  0
    3.6229   18.0781   -1.7425 H   0  0  0  0  0  0  0  0  0  0  0  0
    2.0987   19.6380   -2.1024 H   0  0  0  0  0  0  0  0  0  0  0  0
    1.6091   18.7680   -3.6156 H   0  0  0  0  0  0  0  0  0  0  0  0
    0.3928   17.3826   -2.4226 H   0  0  0  0  0  0  0  0  0  0  0  0
    0.6758   19.3907    1.4030 H   0  0  0  0  0  0  0  0  0  0  0  0
    1.9507   19.3102    0.1402 H   0  0  0  0  0  0  0  0  0  0  0  0
    0.7708   20.6646    0.1402 H   0  0  0  0  0  0  0  0  0  0  0  0
   -0.9706   18.1232    1.2542 H   0  0  0  0  0  0  0  0  0  0  0  0
   -2.0742   18.4483   -0.1254 H   0  0  0  0  0  0  0  0  0  0  0  0
   -1.0462   16.9752   -0.1254 H   0  0  0  0  0  0  0  0  0  0  0  0
    2.4389   15.2514   -4.2418 H   0  0  0  0  0  0  0  0  0  0  0  0
    4.6413   14.3326   -4.6149 H   0  0  0  0  0  0  0  0  0  0  0  0
    5.3487   15.2914   -3.2966 H   0  0  0  0  0  0  0  0  0  0  0  0
    4.7367   12.5024   -3.1787 H   0  0  0  0  0  0  0  0  0  0  0  0
    5.0741   13.4996   -1.7665 H   0  0  0  0  0  0  0  0  0  0  0  0
    1.5098   11.8711   -3.0934 H   0  0  0  0  0  0  0  0  0  0  0  0
    1.7133   13.3619   -4.0746 H   0  0  0  0  0  0  0  0  0  0  0  0
    2.9962   12.1045   -4.0746 H   0  0  0  0  0  0  0  0  0  0  0  0
    3.2724   13.1007   -0.1961 H   0  0  0  0  0  0  0  0  0  0  0  0
    3.8926   10.9673   -1.5042 H   0  0  0  0  0  0  0  0  0  0  0  0
    3.2090   10.8734    0.2024 H   0  0  0  0  0  0  0  0  0  0  0  0
    2.2841    9.1098   -1.5217 H   0  0  0  0  0  0  0  0  0  0  0  0
   -0.1323   12.3059   -2.0149 H   0  0  0  0  0  0  0  0  0  0  0  0
   -0.9396   11.1503    0.7245 H   0  0  0  0  0  0  0  0  0  0  0  0
   -1.6422   12.6161   -0.0931 H   0  0  0  0  0  0  0  0  0  0  0  0
   -3.1132   10.6366   -0.2952 H   0  0  0  0  0  0  0  0  0  0  0  0
   -2.5115   11.2344   -1.8907 H   0  0  0  0  0  0  0  0  0  0  0  0
   -2.3979    8.8369   -1.8732 H   0  0  0  0  0  0  0  0  0  0  0  0
   -1.2040    7.7570   -0.2390 H   0  0  0  0  0  0  0  0  0  0  0  0
   -1.2603   10.8088   -3.4876 H   0  0  0  0  0  0  0  0  0  0  0  0
    0.2873   10.0935   -4.0531 H   0  0  0  0  0  0  0  0  0  0  0  0
   -1.2122    9.1045   -4.0531 H   0  0  0  0  0  0  0  0  0  0  0  0
    0.3590    7.5541   -1.1982 H   0  0  0  0  0  0  0  0  0  0  0  0
   -0.5249    7.3525   -2.7490 H   0  0  0  0  0  0  0  0  0  0  0  0
    1.1559    7.9863   -2.7490 H   0  0  0  0  0  0  0  0  0  0  0  0
    1.0302   13.5155    1.6803 H   0  0  0  0  0  0  0  0  0  0  0  0
    0.3498   11.8708    1.4387 H   0  0  0  0  0  0  0  0  0  0  0  0
    2.1293   12.1155    1.4387 H   0  0  0  0  0  0  0  0  0  0  0  0
   -0.4718   14.2579   -0.5837 H   0  0  0  0  0  0  0  0  0  0  0  0
    1.0873   14.8524    0.2229 H   0  0  0  0  0  0  0  0  0  0  0  0
    0.5448   14.5342   -2.7418 H   0  0  0  0  0  0  0  0  0  0  0  0
    0.8286   16.0524   -1.8029 H   0  0  0  0  0  0  0  0  0  0  0  0
    2.9113   15.1689    0.0448 H   0  0  0  0  0  0  0  0  0  0  0  0
    4.3839   15.3679   -0.9644 H   0  0  0  0  0  0  0  0  0  0  0  0
    3.1164   16.6407   -0.9644 H   0  0  0  0  0  0  0  0  0  0  0  0
  1  2  1  0
  2  3  1  0
  3  4  1  0
  4  5  1  0
  5  6  1  0
  6  7  1  0
  7  8  1  0
  7  9  1  0
  2 10  1  0
 10 11  1  0
 11 12  1  0
 12 13  1  0
 13 14  1  6
 13 15  1  0
 15 16  1  0
 16 17  1  0
 17 18  2  0
 18 19  1  0
 19 20  1  0
 20 21  1  0
 21 22  1  0
 22 23  1  0
 22 24  1  0
 24 25  1  0
 24 26  1  0
 19 27  1  0
 27 28  1  1
 27 29  1  0
 29 30  1  0
 30 31  1  0
 31 32  1  1
  7  5  1  0
 31 10  1  0
 31 13  1  0
 27 15  1  0
 24 18  1  0
  1 33  1  0
  1 34  1  0
  1 35  1  0
  2 36  1  6
  3 37  1  0
  3 38  1  0
  4 39  1  0
  4 40  1  0
  5 41  1  6
  8 42  1  0
  8 43  1  0
  8 44  1  0
  9 45  1  0
  9 46  1  0
  9 47  1  0
 10 48  1  6
 11 49  1  0
 11 50  1  0
 12 51  1  0
 12 52  1  0
 14 53  1  0
 14 54  1  0
 14 55  1  0
 15 56  1  1
 16 57  1  0
 16 58  1  0
 17 59  1  0
 19 60  1  6
 20 61  1  0
 20 62  1  0
 21 63  1  0
 21 64  1  0
 22 65  1  6
 23 66  1  0
 25 67  1  0
 25 68  1  0
 25 69  1  0
 26 70  1  0
 26 71  1  0
 26 72  1  0
 28 73  1  0
 28 74  1  0
 28 75  1  0
 29 76  1  0
 29 77  1  0
 30 78  1  0
 30 79  1  0
 32 80  1  0
 32 81  1  0
 32 82  1  0
M  END
>  <meeko>  (17) 
{"is_sidechain": [false], "intermolecular_energy": 2.731, "internal_energy": -0.839}

$$$$
EPH_relaxed_0001_pdb2pqr_Repair_305_r2_0001_out
     RDKit          3D

 82 86  0  0  0  0  0  0  0  0999 V2000
    5.2720   16.3820   -3.7780 C   0  0  0  0  0  0  0  0  0  0  0  0
    4.0070   15.9780   -4.5390 C   0  0  2  0  0  0  0  0  0  0  0  0
    2.8160   16.9020   -4.2180 C   0  0  0  0  0  0  0  0  0  0  0  0
    3.0810   17.8690   -3.0610 C   0  0  0  0  0  0  0  0  0  0  0  0
    1.8230   18.2030   -2.3180 C   0  0  2  0  0  0  0  0  0  0  0  0
    1.8620   19.4470   -1.6050 O   0  0  0  0  0  0  0  0  0  0  0  0
    1.7360   18.2600   -0.8040 C   0  0  0  0  0  0  0  0  0  0  0  0
    2.9270   17.9780    0.0570 C   0  0  0  0  0  0  0  0  0  0  0  0
    0.3940   18.1080   -0.1590 C   0  0  0  0  0  0  0  0  0  0  0  0
    3.6460   14.5320   -4.2170 C   0  0  1  0  0  0  0  0  0  0  0  0
    4.8730   13.5830   -4.2780 C   0  0  0  0  0  0  0  0  0  0  0  0
    4.6640   12.5120   -3.1760 C   0  0  0  0  0  0  0  0  0  0  0  0
    3.1870   12.6770   -2.7470 C   0  0  1  0  0  0  0  0  0  0  0  0
    2.3660   11.9070   -3.8280 C   0  0  0  0  0  0  0  0  0  0  0  0
    2.8300   12.1980   -1.3020 C   0  0  2  0  0  0  0  0  0  0  0  0
    3.0400   10.6960   -1.0410 C   0  0  0  0  0  0  0  0  0  0  0  0
    1.8560    9.8300   -1.3180 C   0  0  0  0  0  0  0  0  0  0  0  0
    0.5920   10.2620   -1.4840 C   0  0  0  0  0  0  0  0  0  0  0  0
    0.2360   11.7430   -1.3000 C   0  0  1  0  0  0  0  0  0  0  0  0
   -1.0420   11.8640   -0.4280 C   0  0  0  0  0  0  0  0  0  0  0  0
   -2.2060   11.0480   -0.9800 C   0  0  0  0  0  0  0  0  0  0  0  0
   -1.8330    9.5720   -1.0940 C   0  0  2  0  0  0  0  0  0  0  0  0
   -1.6460    9.0410    0.2220 O   0  0  0  0  0  0  0  0  0  0  0  0
   -0.5540    9.3270   -1.9430 C   0  0  0  0  0  0  0  0  0  0  0  0
   -0.8540    9.6220   -3.4330 C   0  0  0  0  0  0  0  0  0  0  0  0
   -0.2080    7.8160   -1.8600 C   0  0  0  0  0  0  0  0  0  0  0  0
    1.4130   12.6820   -0.7900 C   0  0  1  0  0  0  0  0  0  0  0  0
    1.4720   12.6640    0.7680 C   0  0  0  0  0  0  0  0  0  0  0  0
    1.1020   14.1680   -1.2060 C   0  0  0  0  0  0  0  0  0  0  0  0
    1.5850   14.6160   -2.5990 C   0  0  0  0  0  0  0  0  0  0  0  0
    3.0550   14.2420   -2.8150 C   0  0  2  0  0  0  0  0  0  0  0  0
    3.9080   15.0190   -1.7560 C   0  0  0  0  0  0  0  0  0  0  0  0
    5.0838   16.3219   -2.6959 H   0  0  0  0  0  0  0  0  0  0  0  0
    6.0939   15.7017   -4.0456 H   0  0  0  0  0  0  0  0  0  0  0  0
    5.5474   17.4128   -4.0456 H   0  0  0  0  0  0  0  0  0  0  0  0
    4.2215   16.0774   -5.6133 H   0  0  0  0  0  0  0  0  0  0  0  0
    2.5820   17.4917   -5.1166 H   0  0  0  0  0  0  0  0  0  0  0  0
    1.9810   16.2550   -3.9111 H   0  0  0  0  0  0  0  0  0  0  0  0
    3.7938   17.4041   -2.3640 H   0  0  0  0  0  0  0  0  0  0  0  0
    3.4894   18.8006   -3.4797 H   0  0  0  0  0  0  0  0  0  0  0  0
    1.2113   17.6875   -3.0731 H   0  0  0  0  0  0  0  0  0  0  0  0
    2.6382   18.0464    1.1162 H   0  0  0  0  0  0  0  0  0  0  0  0
    3.3022   16.9662   -0.1561 H   0  0  0  0  0  0  0  0  0  0  0  0
    3.7161   18.7141   -0.1561 H   0  0  0  0  0  0  0  0  0  0  0  0
    0.5093   18.1211    0.9349 H   0  0  0  0  0  0  0  0  0  0  0  0
   -0.2579   18.9381   -0.4689 H   0  0  0  0  0  0  0  0  0  0  0  0
   -0.0557   17.1532   -0.4689 H   0  0  0  0  0  0  0  0  0  0  0  0
    2.8837   14.3551   -4.9901 H   0  0  0  0  0  0  0  0  0  0  0  0
    4.9325   13.1034   -5.2662 H   0  0  0  0  0  0  0  0  0  0  0  0
    5.8098   14.1371   -4.1184 H   0  0  0  0  0  0  0  0  0  0  0  0
    4.8417   11.5030   -3.5764 H   0  0  0  0  0  0  0  0  0  0  0  0
    5.3598   12.6388   -2.3336 H   0  0  0  0  0  0  0  0  0  0  0  0
    1.6491   11.2347   -3.3340 H   0  0  0  0  0  0  0  0  0  0  0  0
    1.8207   12.6269   -4.4560 H   0  0  0  0  0  0  0  0  0  0  0  0
    3.0495   11.3167   -4.4560 H   0  0  0  0  0  0  0  0  0  0  0  0
    3.5837   12.7148   -0.6898 H   0  0  0  0  0  0  0  0  0  0  0  0
    3.8688   10.3528   -1.6777 H   0  0  0  0  0  0  0  0  0  0  0  0
    3.2431   10.5993    0.0358 H   0  0  0  0  0  0  0  0  0  0  0  0
    2.0314    8.7467   -1.3928 H   0  0  0  0  0  0  0  0  0  0  0  0
    0.0391   12.1353   -2.3086 H   0  0  0  0  0  0  0  0  0  0  0  0
   -0.8115   11.5076    0.5868 H   0  0  0  0  0  0  0  0  0  0  0  0
   -1.3463   12.9211   -0.4265 H   0  0  0  0  0  0  0  0  0  0  0  0
   -3.0689   11.1500   -0.3054 H   0  0  0  0  0  0  0  0  0  0  0  0
   -2.4546   11.4255   -1.9829 H   0  0  0  0  0  0  0  0  0  0  0  0
   -2.6572    9.0626   -1.6147 H   0  0  0  0  0  0  0  0  0  0  0  0
   -1.9210    9.7240    0.8570 H   0  0  0  0  0  0  0  0  0  0  0  0
   -1.6367   10.3916   -3.5040 H   0  0  0  0  0  0  0  0  0  0  0  0
    0.0605    9.9824   -3.9268 H   0  0  0  0  0  0  0  0  0  0  0  0
   -1.1990    8.7016   -3.9268 H   0  0  0  0  0  0  0  0  0  0  0  0
   -0.1387    7.5132   -0.8048 H   0  0  0  0  0  0  0  0  0  0  0  0
   -0.9956    7.2316   -2.3582 H   0  0  0  0  0  0  0  0  0  0  0  0
    0.7554    7.6325   -2.3582 H   0  0  0  0  0  0  0  0  0  0  0  0
    0.4947   12.9622    1.1754 H   0  0  0  0  0  0  0  0  0  0  0  0
    1.7194   11.6495    1.1139 H   0  0  0  0  0  0  0  0  0  0  0  0
    2.2436   13.3676    1.1139 H   0  0  0  0  0  0  0  0  0  0  0  0
    0.0105   14.3009   -1.1738 H   0  0  0  0  0  0  0  0  0  0  0  0
    1.6638   14.7896   -0.4933 H   0  0  0  0  0  0  0  0  0  0  0  0
    0.9716   14.1240   -3.3682 H   0  0  0  0  0  0  0  0  0  0  0  0
    1.4867   15.7093   -2.6700 H   0  0  0  0  0  0  0  0  0  0  0  0
    3.5893   14.7287   -0.7440 H   0  0  0  0  0  0  0  0  0  0  0  0
    4.9717   14.7731   -1.8901 H   0  0  0  0  0  0  0  0  0  0  0  0
    3.7621   16.1010   -1.8901 H   0  0  0  0  0  0  0  0  0  0  0  0
  1  2  1  0
  2  3  1  0
  3  4  1  0
  4  5  1  0
  5  6  1  0
  6  7  1  0
  7  8  1  0
  7  9  1  0
  2 10  1  0
 10 11  1  0
 11 12  1  0
 12 13  1  0
 13 14  1  6
 13 15  1  0
 15 16  1  0
 16 17  1  0
 17 18  2  0
 18 19  1  0
 19 20  1  0
 20 21  1  0
 21 22  1  0
 22 23  1  0
 22 24  1  0
 24 25  1  0
 24 26  1  0
 19 27  1  0
 27 28  1  1
 27 29  1  0
 29 30  1  0
 30 31  1  0
 31 32  1  1
  7  5  1  0
 31 10  1  0
 31 13  1  0
 27 15  1  0
 24 18  1  0
  1 33  1  0
  1 34  1  0
  1 35  1  0
  2 36  1  6
  3 37  1  0
  3 38  1  0
  4 39  1  0
  4 40  1  0
  5 41  1  6
  8 42  1  0
  8 43  1  0
  8 44  1  0
  9 45  1  0
  9 46  1  0
  9 47  1  0
 10 48  1  6
 11 49  1  0
 11 50  1  0
 12 51  1  0
 12 52  1  0
 14 53  1  0
 14 54  1  0
 14 55  1  0
 15 56  1  1
 16 57  1  0
 16 58  1  0
 17 59  1  0
 19 60  1  6
 20 61  1  0
 20 62  1  0
 21 63  1  0
 21 64  1  0
 22 65  1  6
 23 66  1  0
 25 67  1  0
 25 68  1  0
 25 69  1  0
 26 70  1  0
 26 71  1  0
 26 72  1  0
 28 73  1  0
 28 74  1  0
 28 75  1  0
 29 76  1  0
 29 77  1  0
 30 78  1  0
 30 79  1  0
 32 80  1  0
 32 81  1  0
 32 82  1  0
M  END
>  <meeko>  (18) 
{"is_sidechain": [false], "intermolecular_energy": 2.731, "internal_energy": -0.839}

$$$$
EPH_relaxed_0001_pdb2pqr_Repair_305_r2_0001_out
     RDKit          3D

 82 86  0  0  0  0  0  0  0  0999 V2000
   -0.0570   16.1310   -7.2550 C   0  0  0  0  0  0  0  0  0  0  0  0
    1.4010   15.9410   -6.8250 C   0  0  2  0  0  0  0  0  0  0  0  0
    2.3640   15.9210   -8.0280 C   0  0  0  0  0  0  0  0  0  0  0  0
    1.9860   16.9100   -9.1350 C   0  0  0  0  0  0  0  0  0  0  0  0
    1.3170   16.2230  -10.2870 C   0  0  2  0  0  0  0  0  0  0  0  0
    0.9420   14.8620  -10.0370 O   0  0  0  0  0  0  0  0  0  0  0  0
    1.9400   15.0680  -11.0490 C   0  0  0  0  0  0  0  0  0  0  0  0
    3.2910   14.5340  -10.6880 C   0  0  0  0  0  0  0  0  0  0  0  0
    1.4590   14.7840  -12.4370 C   0  0  0  0  0  0  0  0  0  0  0  0
    1.5420   14.6520   -6.0230 C   0  0  1  0  0  0  0  0  0  0  0  0
    2.6700   13.7340   -6.5630 C   0  0  0  0  0  0  0  0  0  0  0  0
    3.3030   13.0330   -5.3340 C   0  0  0  0  0  0  0  0  0  0  0  0
    2.3150   13.3090   -4.1760 C   0  0  1  0  0  0  0  0  0  0  0  0
    1.1820   12.2500   -4.3550 C   0  0  0  0  0  0  0  0  0  0  0  0
    2.9150   13.2740   -2.7330 C   0  0  2  0  0  0  0  0  0  0  0  0
    3.4940   11.9160   -2.2990 C   0  0  0  0  0  0  0  0  0  0  0  0
    2.5320   11.0010   -1.6180 C   0  0  0  0  0  0  0  0  0  0  0  0
    1.3380   11.3590   -1.1100 C   0  0  0  0  0  0  0  0  0  0  0  0
    0.8910   12.8260   -1.1070 C   0  0  1  0  0  0  0  0  0  0  0  0
    0.3190   13.1910    0.2880 C   0  0  0  0  0  0  0  0  0  0  0  0
   -0.7900   12.2420    0.7320 C   0  0  0  0  0  0  0  0  0  0  0  0
   -0.2910   10.8000    0.7730 C   0  0  2  0  0  0  0  0  0  0  0  0
    0.6870   10.6810    1.8100 O   0  0  0  0  0  0  0  0  0  0  0  0
    0.3170   10.3240   -0.5760 C   0  0  0  0  0  0  0  0  0  0  0  0
   -0.8100   10.1660   -1.6270 C   0  0  0  0  0  0  0  0  0  0  0  0
    0.9090    8.9050   -0.3580 C   0  0  0  0  0  0  0  0  0  0  0  0
    1.9650   13.8790   -1.6210 C   0  0  1  0  0  0  0  0  0  0  0  0
    2.8840   14.3200   -0.4410 C   0  0  0  0  0  0  0  0  0  0  0  0
    1.2190   15.1760   -2.1120 C   0  0  0  0  0  0  0  0  0  0  0  0
    0.7560   15.1970   -3.5810 C   0  0  0  0  0  0  0  0  0  0  0  0
    1.8940   14.7840   -4.5200 C   0  0  2  0  0  0  0  0  0  0  0  0
    3.0400   15.8430   -4.3790 C   0  0  0  0  0  0  0  0  0  0  0  0
   -0.6946   16.2141   -6.3625 H   0  0  0  0  0  0  0  0  0  0  0  0
   -0.1456   17.0483   -7.8556 H   0  0  0  0  0  0  0  0  0  0  0  0
   -0.3777   15.2671   -7.8556 H   0  0  0  0  0  0  0  0  0  0  0  0
    1.6757   16.8018   -6.1976 H   0  0  0  0  0  0  0  0  0  0  0  0
    3.3734   16.1704   -7.6691 H   0  0  0  0  0  0  0  0  0  0  0  0
    2.3116   14.9131   -8.4654 H   0  0  0  0  0  0  0  0  0  0  0  0
    1.2991   17.6629   -8.7212 H   0  0  0  0  0  0  0  0  0  0  0  0
    2.9091   17.3800   -9.5050 H   0  0  0  0  0  0  0  0  0  0  0  0
    0.8669   17.1697  -10.6203 H   0  0  0  0  0  0  0  0  0  0  0  0
    3.3893   14.4951   -9.5931 H   0  0  0  0  0  0  0  0  0  0  0  0
    3.4081   13.5220  -11.1028 H   0  0  0  0  0  0  0  0  0  0  0  0
    4.0684   15.1925  -11.1028 H   0  0  0  0  0  0  0  0  0  0  0  0
    0.5127   14.2252  -12.3900 H   0  0  0  0  0  0  0  0  0  0  0  0
    1.2987   15.7324  -12.9708 H   0  0  0  0  0  0  0  0  0  0  0  0
    2.2120   14.1856  -12.9708 H   0  0  0  0  0  0  0  0  0  0  0  0
    0.5238   14.2516   -6.1364 H   0  0  0  0  0  0  0  0  0  0  0  0
    2.2519   12.9856   -7.2523 H   0  0  0  0  0  0  0  0  0  0  0  0
    3.4218   14.3159   -7.1164 H   0  0  0  0  0  0  0  0  0  0  0  0
    3.4012   11.9518   -5.5114 H   0  0  0  0  0  0  0  0  0  0  0  0
    4.3151   13.4052   -5.1167 H   0  0  0  0  0  0  0  0  0  0  0  0
    0.8290   11.9201   -3.3668 H   0  0  0  0  0  0  0  0  0  0  0  0
    0.3460   12.6980   -4.9122 H   0  0  0  0  0  0  0  0  0  0  0  0
    1.5726   11.3857   -4.9122 H   0  0  0  0  0  0  0  0  0  0  0  0
    3.7770   13.9518   -2.8202 H   0  0  0  0  0  0  0  0  0  0  0  0
    3.8716   11.4049   -3.1969 H   0  0  0  0  0  0  0  0  0  0  0  0
    4.2757   12.1412   -1.5586 H   0  0  0  0  0  0  0  0  0  0  0  0
    2.8232    9.9445   -1.5231 H   0  0  0  0  0  0  0  0  0  0  0  0
    0.0991   12.9038   -1.8665 H   0  0  0  0  0  0  0  0  0  0  0  0
    1.1344   13.1500    1.0252 H   0  0  0  0  0  0  0  0  0  0  0  0
   -0.1131   14.2002    0.2181 H   0  0  0  0  0  0  0  0  0  0  0  0
   -1.1322   12.5331    1.7361 H   0  0  0  0  0  0  0  0  0  0  0  0
   -1.6171   12.3066    0.0097 H   0  0  0  0  0  0  0  0  0  0  0  0
   -1.1599   10.1550    0.9702 H   0  0  0  0  0  0  0  0  0  0  0  0
    0.5400    9.8300    2.2570 H   0  0  0  0  0  0  0  0  0  0  0  0
   -1.7736   10.0309   -1.1139 H   0  0  0  0  0  0  0  0  0  0  0  0
   -0.8530   11.0669   -2.2567 H   0  0  0  0  0  0  0  0  0  0  0  0
   -0.6037    9.2880   -2.2567 H   0  0  0  0  0  0  0  0  0  0  0  0
    0.9927    8.7043    0.7203 H   0  0  0  0  0  0  0  0  0  0  0  0
    0.2479    8.1570   -0.8199 H   0  0  0  0  0  0  0  0  0  0  0  0
    1.9057    8.8486   -0.8199 H   0  0  0  0  0  0  0  0  0  0  0  0
    2.3925   14.0842    0.5144 H   0  0  0  0  0  0  0  0  0  0  0  0
    3.8425   13.7837   -0.5025 H   0  0  0  0  0  0  0  0  0  0  0  0
    3.0653   15.4032   -0.5025 H   0  0  0  0  0  0  0  0  0  0  0  0
    0.3279   15.3066   -1.4804 H   0  0  0  0  0  0  0  0  0  0  0  0
    1.9624   15.9829   -2.0330 H   0  0  0  0  0  0  0  0  0  0  0  0
   -0.0838   14.4973   -3.7037 H   0  0  0  0  0  0  0  0  0  0  0  0
    0.4444   16.2206   -3.8362 H   0  0  0  0  0  0  0  0  0  0  0  0
    3.2396   16.0275   -3.3131 H   0  0  0  0  0  0  0  0  0  0  0  0
    3.9520   15.4629   -4.8624 H   0  0  0  0  0  0  0  0  0  0  0  0
    2.7329   16.7821   -4.8624 H   0  0  0  0  0  0  0  0  0  0  0  0
  1  2  1  0
  2  3  1  0
  3  4  1  0
  4  5  1  0
  5  6  1  0
  6  7  1  0
  7  8  1  0
  7  9  1  0
  2 10  1  0
 10 11  1  0
 11 12  1  0
 12 13  1  0
 13 14  1  1
 13 15  1  0
 15 16  1  0
 16 17  1  0
 17 18  2  0
 18 19  1  0
 19 20  1  0
 20 21  1  0
 21 22  1  0
 22 23  1  0
 22 24  1  0
 24 25  1  0
 24 26  1  0
 19 27  1  0
 27 28  1  1
 27 29  1  0
 29 30  1  0
 30 31  1  0
 31 32  1  6
  7  5  1  0
 31 10  1  0
 31 13  1  0
 27 15  1  0
 24 18  1  0
  1 33  1  0
  1 34  1  0
  1 35  1  0
  2 36  1  1
  3 37  1  0
  3 38  1  0
  4 39  1  0
  4 40  1  0
  5 41  1  6
  8 42  1  0
  8 43  1  0
  8 44  1  0
  9 45  1  0
  9 46  1  0
  9 47  1  0
 10 48  1  1
 11 49  1  0
 11 50  1  0
 12 51  1  0
 12 52  1  0
 14 53  1  0
 14 54  1  0
 14 55  1  0
 15 56  1  6
 16 57  1  0
 16 58  1  0
 17 59  1  0
 19 60  1  6
 20 61  1  0
 20 62  1  0
 21 63  1  0
 21 64  1  0
 22 65  1  1
 23 66  1  0
 25 67  1  0
 25 68  1  0
 25 69  1  0
 26 70  1  0
 26 71  1  0
 26 72  1  0
 28 73  1  0
 28 74  1  0
 28 75  1  0
 29 76  1  0
 29 77  1  0
 30 78  1  0
 30 79  1  0
 32 80  1  0
 32 81  1  0
 32 82  1  0
M  END
>  <meeko>  (19) 
{"is_sidechain": [false], "intermolecular_energy": 2.731, "internal_energy": -0.839}

$$$$
EPH_relaxed_0001_pdb2pqr_Repair_305_r2_0001_out
     RDKit          3D

 82 86  0  0  0  0  0  0  0  0999 V2000
    2.8900    9.7080   -2.3190 C   0  0  0  0  0  0  0  0  0  0  0  0
    2.6330   11.0220   -1.5760 C   0  0  2  0  0  0  0  0  0  0  0  0
    1.9350   10.7960   -0.2200 C   0  0  0  0  0  0  0  0  0  0  0  0
    1.3480    9.3920   -0.0570 C   0  0  0  0  0  0  0  0  0  0  0  0
   -0.1260    9.4350    0.2120 C   0  0  2  0  0  0  0  0  0  0  0  0
   -0.8270    8.2250   -0.1000 O   0  0  0  0  0  0  0  0  0  0  0  0
   -1.1780    9.3790   -0.8800 C   0  0  0  0  0  0  0  0  0  0  0  0
   -0.7980    9.2750   -2.3240 C   0  0  0  0  0  0  0  0  0  0  0  0
   -2.5450    9.9130   -0.5850 C   0  0  0  0  0  0  0  0  0  0  0  0
    1.7960   11.9540   -2.4440 C   0  0  1  0  0  0  0  0  0  0  0  0
    0.5890   12.5590   -1.6790 C   0  0  0  0  0  0  0  0  0  0  0  0
    0.3910   13.9980   -2.2220 C   0  0  0  0  0  0  0  0  0  0  0  0
    1.2630   14.0570   -3.4980 C   0  0  1  0  0  0  0  0  0  0  0  0
    0.3970   13.3840   -4.6080 C   0  0  0  0  0  0  0  0  0  0  0  0
    1.7570   15.4760   -3.9320 C   0  0  2  0  0  0  0  0  0  0  0  0
    0.6420   16.4710   -4.2990 C   0  0  0  0  0  0  0  0  0  0  0  0
    0.2430   16.4780   -5.7370 C   0  0  0  0  0  0  0  0  0  0  0  0
    0.9440   15.9290   -6.7460 C   0  0  0  0  0  0  0  0  0  0  0  0
    2.3220   15.3030   -6.4990 C   0  0  1  0  0  0  0  0  0  0  0  0
    3.3160   15.7940   -7.5840 C   0  0  0  0  0  0  0  0  0  0  0  0
    2.8070   15.5430   -9.0000 C   0  0  0  0  0  0  0  0  0  0  0  0
    1.4630   16.2300   -9.2260 C   0  0  2  0  0  0  0  0  0  0  0  0
    1.6570   17.6470   -9.1850 O   0  0  0  0  0  0  0  0  0  0  0  0
    0.3830   15.8200   -8.1860 C   0  0  0  0  0  0  0  0  0  0  0  0
   -0.0450   14.3520   -8.4310 C   0  0  0  0  0  0  0  0  0  0  0  0
   -0.8790   16.6890   -8.4400 C   0  0  0  0  0  0  0  0  0  0  0  0
    2.9000   15.4580   -5.0260 C   0  0  1  0  0  0  0  0  0  0  0  0
    3.6640   16.8100   -4.8950 C   0  0  0  0  0  0  0  0  0  0  0  0
    3.9590   14.3220   -4.7670 C   0  0  0  0  0  0  0  0  0  0  0  0
    3.4230   12.9830   -4.2260 C   0  0  0  0  0  0  0  0  0  0  0  0
    2.4990   13.2070   -3.0250 C   0  0  2  0  0  0  0  0  0  0  0  0
    3.3480   13.8630   -1.8840 C   0  0  0  0  0  0  0  0  0  0  0  0
    3.0481    8.8995   -1.5901 H   0  0  0  0  0  0  0  0  0  0  0  0
    2.0218    9.4679   -2.9503 H   0  0  0  0  0  0  0  0  0  0  0  0
    3.7847    9.8127   -2.9503 H   0  0  0  0  0  0  0  0  0  0  0  0
    3.6105   11.4828   -1.3706 H   0  0  0  0  0  0  0  0  0  0  0  0
    2.6709   10.9600    0.5810 H   0  0  0  0  0  0  0  0  0  0  0  0
    1.0946   11.5039   -0.1690 H   0  0  0  0  0  0  0  0  0  0  0  0
    1.5252    8.8221   -0.9810 H   0  0  0  0  0  0  0  0  0  0  0  0
    1.8395    8.9126    0.8024 H   0  0  0  0  0  0  0  0  0  0  0  0
    0.0247   10.1233    1.0567 H   0  0  0  0  0  0  0  0  0  0  0  0
    0.2601    8.9854   -2.4048 H   0  0  0  0  0  0  0  0  0  0  0  0
   -1.4245    8.5153   -2.8142 H   0  0  0  0  0  0  0  0  0  0  0  0
   -0.9503   10.2479   -2.8142 H   0  0  0  0  0  0  0  0  0  0  0  0
   -2.6895    9.9694    0.5040 H   0  0  0  0  0  0  0  0  0  0  0  0
   -2.6482   10.9176   -1.0211 H   0  0  0  0  0  0  0  0  0  0  0  0
   -3.3018    9.2444   -1.0211 H   0  0  0  0  0  0  0  0  0  0  0  0
    1.5303   11.2611   -3.2559 H   0  0  0  0  0  0  0  0  0  0  0  0
   -0.3143   11.9580   -1.8605 H   0  0  0  0  0  0  0  0  0  0  0  0
    0.7730   12.5679   -0.5945 H   0  0  0  0  0  0  0  0  0  0  0  0
   -0.6663   14.1791   -2.4655 H   0  0  0  0  0  0  0  0  0  0  0  0
    0.6760   14.7644   -1.4862 H   0  0  0  0  0  0  0  0  0  0  0  0
   -0.3890   12.7732   -4.1399 H   0  0  0  0  0  0  0  0  0  0  0  0
   -0.0664   14.1614   -5.2333 H   0  0  0  0  0  0  0  0  0  0  0  0
    1.0359   12.7430   -5.2333 H   0  0  0  0  0  0  0  0  0  0  0  0
    2.2084   15.8621   -3.0062 H   0  0  0  0  0  0  0  0  0  0  0  0
   -0.2467   16.2217   -3.7007 H   0  0  0  0  0  0  0  0  0  0  0  0
    1.0464   17.4724   -4.0901 H   0  0  0  0  0  0  0  0  0  0  0  0
   -0.7046   16.9740   -5.9940 H   0  0  0  0  0  0  0  0  0  0  0  0
    2.1821   14.2154   -6.5862 H   0  0  0  0  0  0  0  0  0  0  0  0
    3.4756   16.8744   -7.4530 H   0  0  0  0  0  0  0  0  0  0  0  0
    4.2515   15.2287   -7.4603 H   0  0  0  0  0  0  0  0  0  0  0  0
    3.5386   15.9372   -9.7207 H   0  0  0  0  0  0  0  0  0  0  0  0
    2.6755   14.4598   -9.1391 H   0  0  0  0  0  0  0  0  0  0  0  0
    1.0893   15.9086  -10.2094 H   0  0  0  0  0  0  0  0  0  0  0  0
    1.0530   18.0460   -9.8350 H   0  0  0  0  0  0  0  0  0  0  0  0
   -0.1923   13.8469   -7.4650 H   0  0  0  0  0  0  0  0  0  0  0  0
   -0.9856   14.3346   -9.0010 H   0  0  0  0  0  0  0  0  0  0  0  0
    0.7389   13.8318   -9.0010 H   0  0  0  0  0  0  0  0  0  0  0  0
   -1.3166   16.9903   -7.4768 H   0  0  0  0  0  0  0  0  0  0  0  0
   -0.5977   17.5858   -9.0115 H   0  0  0  0  0  0  0  0  0  0  0  0
   -1.6165   16.1063   -9.0115 H   0  0  0  0  0  0  0  0  0  0  0  0
    3.8009   17.0522   -3.8308 H   0  0  0  0  0  0  0  0  0  0  0  0
    4.6471   16.7242   -5.3809 H   0  0  0  0  0  0  0  0  0  0  0  0
    3.0833   17.6079   -5.3809 H   0  0  0  0  0  0  0  0  0  0  0  0
    4.4664   14.1163   -5.7211 H   0  0  0  0  0  0  0  0  0  0  0  0
    4.6118   14.7128   -3.9726 H   0  0  0  0  0  0  0  0  0  0  0  0
    2.8611   12.4724   -5.0220 H   0  0  0  0  0  0  0  0  0  0  0  0
    4.2763   12.3689   -3.9022 H   0  0  0  0  0  0  0  0  0  0  0  0
    2.9489   13.5546   -0.9064 H   0  0  0  0  0  0  0  0  0  0  0  0
    4.3948   13.5368   -1.9721 H   0  0  0  0  0  0  0  0  0  0  0  0
    3.2965   14.9583   -1.9721 H   0  0  0  0  0  0  0  0  0  0  0  0
  1  2  1  0
  2  3  1  0
  3  4  1  0
  4  5  1  0
  5  6  1  0
  6  7  1  0
  7  8  1  0
  7  9  1  0
  2 10  1  0
 10 11  1  0
 11 12  1  0
 12 13  1  0
 13 14  1  6
 13 15  1  0
 15 16  1  0
 16 17  1  0
 17 18  2  0
 18 19  1  0
 19 20  1  0
 20 21  1  0
 21 22  1  0
 22 23  1  0
 22 24  1  0
 24 25  1  0
 24 26  1  0
 19 27  1  0
 27 28  1  6
 27 29  1  0
 29 30  1  0
 30 31  1  0
 31 32  1  1
  7  5  1  0
 31 10  1  0
 31 13  1  0
 27 15  1  0
 24 18  1  0
  1 33  1  0
  1 34  1  0
  1 35  1  0
  2 36  1  1
  3 37  1  0
  3 38  1  0
  4 39  1  0
  4 40  1  0
  5 41  1  1
  8 42  1  0
  8 43  1  0
  8 44  1  0
  9 45  1  0
  9 46  1  0
  9 47  1  0
 10 48  1  6
 11 49  1  0
 11 50  1  0
 12 51  1  0
 12 52  1  0
 14 53  1  0
 14 54  1  0
 14 55  1  0
 15 56  1  1
 16 57  1  0
 16 58  1  0
 17 59  1  0
 19 60  1  6
 20 61  1  0
 20 62  1  0
 21 63  1  0
 21 64  1  0
 22 65  1  6
 23 66  1  0
 25 67  1  0
 25 68  1  0
 25 69  1  0
 26 70  1  0
 26 71  1  0
 26 72  1  0
 28 73  1  0
 28 74  1  0
 28 75  1  0
 29 76  1  0
 29 77  1  0
 30 78  1  0
 30 79  1  0
 32 80  1  0
 32 81  1  0
 32 82  1  0
M  END
>  <meeko>  (20) 
{"is_sidechain": [false], "intermolecular_energy": 2.731, "internal_energy": -0.839}

$$$$
