EPH_relaxed_0001_pdb2pqr_Repair_402_r2_0001_out
     RDKit          3D

 82 86  0  0  0  0  0  0  0  0999 V2000
   -1.6100    8.5700   -1.8310 C   0  0  0  0  0  0  0  0  0  0  0  0
   -2.0110    9.1400   -0.4680 C   0  0  2  0  0  0  0  0  0  0  0  0
   -3.5000    9.5380   -0.4210 C   0  0  0  0  0  0  0  0  0  0  0  0
   -4.4520    8.3450   -0.3000 C   0  0  0  0  0  0  0  0  0  0  0  0
   -5.0850    8.0050   -1.6150 C   0  0  2  0  0  0  0  0  0  0  0  0
   -6.3460    8.6440   -1.8560 O   0  0  0  0  0  0  0  0  0  0  0  0
   -6.3720    7.2110   -1.7440 C   0  0  0  0  0  0  0  0  0  0  0  0
   -7.1030    6.7090   -0.5380 C   0  0  0  0  0  0  0  0  0  0  0  0
   -6.6550    6.5110   -3.0360 C   0  0  0  0  0  0  0  0  0  0  0  0
   -1.1400   10.3440   -0.1310 C   0  0  1  0  0  0  0  0  0  0  0  0
   -0.0700   10.0250    0.9470 C   0  0  0  0  0  0  0  0  0  0  0  0
    1.1880   10.8570    0.5890 C   0  0  0  0  0  0  0  0  0  0  0  0
    0.6980   11.8680   -0.4740 C   0  0  1  0  0  0  0  0  0  0  0  0
    0.0190   13.0120    0.3420 C   0  0  0  0  0  0  0  0  0  0  0  0
    1.7840   12.4230   -1.4520 C   0  0  2  0  0  0  0  0  0  0  0  0
    2.9110   13.2300   -0.7850 C   0  0  0  0  0  0  0  0  0  0  0  0
    2.6640   14.6980   -0.6740 C   0  0  0  0  0  0  0  0  0  0  0  0
    1.7180   15.3850   -1.3400 C   0  0  0  0  0  0  0  0  0  0  0  0
    0.8360   14.6950   -2.3890 C   0  0  1  0  0  0  0  0  0  0  0  0
    0.7640   15.5740   -3.6650 C   0  0  0  0  0  0  0  0  0  0  0  0
    0.3100   17.0000   -3.3680 C   0  0  0  0  0  0  0  0  0  0  0  0
    1.2450   17.6730   -2.3660 C   0  0  2  0  0  0  0  0  0  0  0  0
    2.5270   17.8490   -2.9780 O   0  0  0  0  0  0  0  0  0  0  0  0
    1.4040   16.8720   -1.0430 C   0  0  0  0  0  0  0  0  0  0  0  0
    0.0850   16.9380   -0.2340 C   0  0  0  0  0  0  0  0  0  0  0  0
    2.4790   17.5840   -0.1790 C   0  0  0  0  0  0  0  0  0  0  0  0
    1.1970   13.1810   -2.7110 C   0  0  1  0  0  0  0  0  0  0  0  0
    2.2920   13.1190   -3.8190 C   0  0  0  0  0  0  0  0  0  0  0  0
   -0.0750   12.4640   -3.3020 C   0  0  0  0  0  0  0  0  0  0  0  0
   -1.0490   11.8310   -2.2900 C   0  0  0  0  0  0  0  0  0  0  0  0
   -0.2990   10.9570   -1.2800 C   0  0  2  0  0  0  0  0  0  0  0  0
    0.3760    9.7850   -2.0700 C   0  0  0  0  0  0  0  0  0  0  0  0
   -0.9827    7.6783   -1.6853 H   0  0  0  0  0  0  0  0  0  0  0  0
   -2.5142    8.2943   -2.3935 H   0  0  0  0  0  0  0  0  0  0  0  0
   -1.0450    9.3279   -2.3935 H   0  0  0  0  0  0  0  0  0  0  0  0
   -1.8563    8.3484    0.2800 H   0  0  0  0  0  0  0  0  0  0  0  0
   -3.6563   10.1965    0.4461 H   0  0  0  0  0  0  0  0  0  0  0  0
   -3.7297   10.0374   -1.3738 H   0  0  0  0  0  0  0  0  0  0  0  0
   -3.8864    7.4727    0.0594 H   0  0  0  0  0  0  0  0  0  0  0  0
   -5.2515    8.6147    0.4057 H   0  0  0  0  0  0  0  0  0  0  0  0
   -4.0980    7.8921   -2.0873 H   0  0  0  0  0  0  0  0  0  0  0  0
   -6.5933    7.0590    0.3718 H   0  0  0  0  0  0  0  0  0  0  0  0
   -8.1349    7.0899   -0.5498 H   0  0  0  0  0  0  0  0  0  0  0  0
   -7.1180    5.6092   -0.5498 H   0  0  0  0  0  0  0  0  0  0  0  0
   -7.0600    5.5094   -2.8293 H   0  0  0  0  0  0  0  0  0  0  0  0
   -7.3892    7.0912   -3.6142 H   0  0  0  0  0  0  0  0  0  0  0  0
   -5.7239    6.4179   -3.6142 H   0  0  0  0  0  0  0  0  0  0  0  0
   -1.9196   11.0527    0.1851 H   0  0  0  0  0  0  0  0  0  0  0  0
   -0.4402   10.3079    1.9434 H   0  0  0  0  0  0  0  0  0  0  0  0
    0.1607    8.9497    0.9682 H   0  0  0  0  0  0  0  0  0  0  0  0
    1.5718   11.3819    1.4762 H   0  0  0  0  0  0  0  0  0  0  0  0
    2.0118   10.2291    0.2188 H   0  0  0  0  0  0  0  0  0  0  0  0
    0.1362   12.8145    1.4177 H   0  0  0  0  0  0  0  0  0  0  0  0
    0.4934   13.9723    0.0917 H   0  0  0  0  0  0  0  0  0  0  0  0
   -1.0513   13.0555    0.0917 H   0  0  0  0  0  0  0  0  0  0  0  0
    2.2565   11.5027   -1.8260 H   0  0  0  0  0  0  0  0  0  0  0  0
    3.0590   12.8325    0.2299 H   0  0  0  0  0  0  0  0  0  0  0  0
    3.7915   13.1177   -1.4347 H   0  0  0  0  0  0  0  0  0  0  0  0
    3.3105   15.2666    0.0106 H   0  0  0  0  0  0  0  0  0  0  0  0
   -0.1634   14.6106   -1.9372 H   0  0  0  0  0  0  0  0  0  0  0  0
    1.7626   15.6104   -4.1250 H   0  0  0  0  0  0  0  0  0  0  0  0
    0.0233   15.1216   -4.3408 H   0  0  0  0  0  0  0  0  0  0  0  0
    0.3076   17.5791   -4.3032 H   0  0  0  0  0  0  0  0  0  0  0  0
   -0.7007   16.9637   -2.9354 H   0  0  0  0  0  0  0  0  0  0  0  0
    0.7972   18.6406   -2.0955 H   0  0  0  0  0  0  0  0  0  0  0  0
    2.4000   17.8120   -3.9410 H   0  0  0  0  0  0  0  0  0  0  0  0
    0.3138   16.9266    0.8419 H   0  0  0  0  0  0  0  0  0  0  0  0
   -0.4529   17.8642   -0.4846 H   0  0  0  0  0  0  0  0  0  0  0  0
   -0.5427   16.0701   -0.4846 H   0  0  0  0  0  0  0  0  0  0  0  0
    2.2516   17.4334    0.8867 H   0  0  0  0  0  0  0  0  0  0  0  0
    3.4696   17.1628   -0.4057 H   0  0  0  0  0  0  0  0  0  0  0  0
    2.4777   18.6604   -0.4057 H   0  0  0  0  0  0  0  0  0  0  0  0
    3.2854   13.0628   -3.3500 H   0  0  0  0  0  0  0  0  0  0  0  0
    2.1308   12.2285   -4.4444 H   0  0  0  0  0  0  0  0  0  0  0  0
    2.2324   14.0220   -4.4444 H   0  0  0  0  0  0  0  0  0  0  0  0
   -0.6373   13.2096   -3.8833 H   0  0  0  0  0  0  0  0  0  0  0  0
    0.3171   11.6210   -3.8899 H   0  0  0  0  0  0  0  0  0  0  0  0
   -1.5778   12.6308   -1.7509 H   0  0  0  0  0  0  0  0  0  0  0  0
   -1.7630   11.1991   -2.8386 H   0  0  0  0  0  0  0  0  0  0  0  0
    0.7951    9.0574   -1.3594 H   0  0  0  0  0  0  0  0  0  0  0  0
   -0.3748    9.2890   -2.7027 H   0  0  0  0  0  0  0  0  0  0  0  0
    1.1818   10.1855   -2.7027 H   0  0  0  0  0  0  0  0  0  0  0  0
  1  2  1  0
  2  3  1  0
  3  4  1  0
  4  5  1  0
  5  6  1  0
  6  7  1  0
  7  8  1  0
  7  9  1  0
  2 10  1  0
 10 11  1  0
 11 12  1  0
 12 13  1  0
 13 14  1  1
 13 15  1  0
 15 16  1  0
 16 17  1  0
 17 18  2  0
 18 19  1  0
 19 20  1  0
 20 21  1  0
 21 22  1  0
 22 23  1  0
 22 24  1  0
 24 25  1  0
 24 26  1  0
 19 27  1  0
 27 28  1  6
 27 29  1  0
 29 30  1  0
 30 31  1  0
 31 32  1  6
  7  5  1  0
 31 10  1  0
 31 13  1  0
 27 15  1  0
 24 18  1  0
  1 33  1  0
  1 34  1  0
  1 35  1  0
  2 36  1  1
  3 37  1  0
  3 38  1  0
  4 39  1  0
  4 40  1  0
  5 41  1  6
  8 42  1  0
  8 43  1  0
  8 44  1  0
  9 45  1  0
  9 46  1  0
  9 47  1  0
 10 48  1  1
 11 49  1  0
 11 50  1  0
 12 51  1  0
 12 52  1  0
 14 53  1  0
 14 54  1  0
 14 55  1  0
 15 56  1  6
 16 57  1  0
 16 58  1  0
 17 59  1  0
 19 60  1  1
 20 61  1  0
 20 62  1  0
 21 63  1  0
 21 64  1  0
 22 65  1  1
 23 66  1  0
 25 67  1  0
 25 68  1  0
 25 69  1  0
 26 70  1  0
 26 71  1  0
 26 72  1  0
 28 73  1  0
 28 74  1  0
 28 75  1  0
 29 76  1  0
 29 77  1  0
 30 78  1  0
 30 79  1  0
 32 80  1  0
 32 81  1  0
 32 82  1  0
M  END
>  <meeko>  (1) 
{"is_sidechain": [false], "intermolecular_energy": 2.731, "internal_energy": -0.839}

$$$$
EPH_relaxed_0001_pdb2pqr_Repair_402_r2_0001_out
     RDKit          3D

 82 86  0  0  0  0  0  0  0  0999 V2000
    2.3940   19.6180   -1.0560 C   0  0  0  0  0  0  0  0  0  0  0  0
    2.1600   18.8060    0.2210 C   0  0  2  0  0  0  0  0  0  0  0  0
    3.4820   18.3590    0.8760 C   0  0  0  0  0  0  0  0  0  0  0  0
    3.7620   19.0350    2.2210 C   0  0  0  0  0  0  0  0  0  0  0  0
    5.2210   19.0050    2.5630 C   0  0  2  0  0  0  0  0  0  0  0  0
    5.6160   17.9160    3.4080 O   0  0  0  0  0  0  0  0  0  0  0  0
    5.7560   19.2340    3.9640 C   0  0  0  0  0  0  0  0  0  0  0  0
    4.8390   19.5090    5.1150 C   0  0  0  0  0  0  0  0  0  0  0  0
    7.1780   19.6720    4.1240 C   0  0  0  0  0  0  0  0  0  0  0  0
    1.2950   17.5890   -0.0890 C   0  0  1  0  0  0  0  0  0  0  0  0
    0.1020   17.9260   -1.0220 C   0  0  0  0  0  0  0  0  0  0  0  0
   -0.1200   16.6890   -1.9290 C   0  0  0  0  0  0  0  0  0  0  0  0
    0.7210   15.5690   -1.2730 C   0  0  1  0  0  0  0  0  0  0  0  0
   -0.1670   15.0310   -0.1080 C   0  0  0  0  0  0  0  0  0  0  0  0
    1.1940   14.4160   -2.2180 C   0  0  2  0  0  0  0  0  0  0  0  0
    0.0630   13.5910   -2.8560 C   0  0  0  0  0  0  0  0  0  0  0  0
   -0.3720   12.3940   -2.0770 C   0  0  0  0  0  0  0  0  0  0  0  0
    0.3090   11.8340   -1.0590 C   0  0  0  0  0  0  0  0  0  0  0  0
    1.6970   12.3510   -0.6610 C   0  0  1  0  0  0  0  0  0  0  0  0
    2.6610   11.1510   -0.4700 C   0  0  0  0  0  0  0  0  0  0  0  0
    2.1200   10.1170    0.5130 C   0  0  0  0  0  0  0  0  0  0  0  0
    0.7660    9.5840    0.0530 C   0  0  2  0  0  0  0  0  0  0  0  0
    0.9500    8.8360   -1.1530 O   0  0  0  0  0  0  0  0  0  0  0  0
   -0.2860   10.7050   -0.1820 C   0  0  0  0  0  0  0  0  0  0  0  0
   -0.7090   11.3150    1.1770 C   0  0  0  0  0  0  0  0  0  0  0  0
   -1.5600   10.0470   -0.7780 C   0  0  0  0  0  0  0  0  0  0  0  0
    2.3090   13.4830   -1.5940 C   0  0  1  0  0  0  0  0  0  0  0  0
    3.0670   12.8330   -2.7920 C   0  0  0  0  0  0  0  0  0  0  0  0
    3.3830   14.2970   -0.7790 C   0  0  0  0  0  0  0  0  0  0  0  0
    2.8700   15.4970    0.0400 C   0  0  0  0  0  0  0  0  0  0  0  0
    1.9740   16.4000   -0.8130 C   0  0  2  0  0  0  0  0  0  0  0  0
    2.8460   16.9730   -1.9810 C   0  0  0  0  0  0  0  0  0  0  0  0
    2.6895   20.6435   -0.7895 H   0  0  0  0  0  0  0  0  0  0  0  0
    3.1933   19.1482   -1.6479 H   0  0  0  0  0  0  0  0  0  0  0  0
    1.4673   19.6456   -1.6479 H   0  0  0  0  0  0  0  0  0  0  0  0
    1.6411   19.4591    0.9381 H   0  0  0  0  0  0  0  0  0  0  0  0
    3.4400   17.2715    1.0360 H   0  0  0  0  0  0  0  0  0  0  0  0
    4.2938   18.6518    0.1939 H   0  0  0  0  0  0  0  0  0  0  0  0
    3.4292   20.0822    2.1698 H   0  0  0  0  0  0  0  0  0  0  0  0
    3.2153   18.4855    3.0015 H   0  0  0  0  0  0  0  0  0  0  0  0
    5.4821   19.4500    1.5915 H   0  0  0  0  0  0  0  0  0  0  0  0
    5.3781   19.3473    6.0601 H   0  0  0  0  0  0  0  0  0  0  0  0
    4.4905   20.5512    5.0653 H   0  0  0  0  0  0  0  0  0  0  0  0
    3.9745   18.8306    5.0653 H   0  0  0  0  0  0  0  0  0  0  0  0
    7.4204   19.7467    5.1943 H   0  0  0  0  0  0  0  0  0  0  0  0
    7.8438   18.9373    3.6476 H   0  0  0  0  0  0  0  0  0  0  0  0
    7.3150   20.6540    3.6476 H   0  0  0  0  0  0  0  0  0  0  0  0
    1.0153   17.2964    0.9338 H   0  0  0  0  0  0  0  0  0  0  0  0
   -0.8006   18.1253   -0.4257 H   0  0  0  0  0  0  0  0  0  0  0  0
    0.3117   18.8234   -1.6226 H   0  0  0  0  0  0  0  0  0  0  0  0
   -1.1842   16.4117   -1.9540 H   0  0  0  0  0  0  0  0  0  0  0  0
    0.1763   16.8773   -2.9715 H   0  0  0  0  0  0  0  0  0  0  0  0
    0.2865   15.3058    0.8557 H   0  0  0  0  0  0  0  0  0  0  0  0
   -1.1721   15.4722   -0.1793 H   0  0  0  0  0  0  0  0  0  0  0  0
   -0.2413   13.9358   -0.1793 H   0  0  0  0  0  0  0  0  0  0  0  0
    1.6655   14.9668   -3.0452 H   0  0  0  0  0  0  0  0  0  0  0  0
   -0.8089   14.2498   -2.9815 H   0  0  0  0  0  0  0  0  0  0  0  0
    0.4654   13.2063   -3.8047 H   0  0  0  0  0  0  0  0  0  0  0  0
   -1.3292   11.9305   -2.3581 H   0  0  0  0  0  0  0  0  0  0  0  0
    1.5628   12.8779    0.2952 H   0  0  0  0  0  0  0  0  0  0  0  0
    2.8156   10.6643   -1.4443 H   0  0  0  0  0  0  0  0  0  0  0  0
    3.6034   11.5418   -0.0587 H   0  0  0  0  0  0  0  0  0  0  0  0
    2.8311    9.2807    0.5836 H   0  0  0  0  0  0  0  0  0  0  0  0
    1.9934   10.5977    1.4943 H   0  0  0  0  0  0  0  0  0  0  0  0
    0.3713    8.9473    0.8585 H   0  0  0  0  0  0  0  0  0  0  0  0
    1.4990    8.0640   -0.9390 H   0  0  0  0  0  0  0  0  0  0  0  0
   -0.2905   10.7115    1.9959 H   0  0  0  0  0  0  0  0  0  0  0  0
   -0.3304   12.3452    1.2502 H   0  0  0  0  0  0  0  0  0  0  0  0
   -1.8065   11.3216    1.2502 H   0  0  0  0  0  0  0  0  0  0  0  0
   -2.2145    9.7090    0.0389 H   0  0  0  0  0  0  0  0  0  0  0  0
   -2.0961   10.7810   -1.3976 H   0  0  0  0  0  0  0  0  0  0  0  0
   -1.2718    9.1850   -1.3976 H   0  0  0  0  0  0  0  0  0  0  0  0
    3.8500   12.1616   -2.4096 H   0  0  0  0  0  0  0  0  0  0  0  0
    2.3582   12.2577   -3.4057 H   0  0  0  0  0  0  0  0  0  0  0  0
    3.5275   13.6213   -3.4057 H   0  0  0  0  0  0  0  0  0  0  0  0
    3.8688   13.6002   -0.0800 H   0  0  0  0  0  0  0  0  0  0  0  0
    4.0520   14.7305   -1.5370 H   0  0  0  0  0  0  0  0  0  0  0  0
    2.2926   15.1256    0.8995 H   0  0  0  0  0  0  0  0  0  0  0  0
    3.7353   16.0838    0.3821 H   0  0  0  0  0  0  0  0  0  0  0  0
    3.6965   17.5319   -1.5635 H   0  0  0  0  0  0  0  0  0  0  0  0
    3.2202   16.1442   -2.5999 H   0  0  0  0  0  0  0  0  0  0  0  0
    2.2337   17.6454   -2.5999 H   0  0  0  0  0  0  0  0  0  0  0  0
  1  2  1  0
  2  3  1  0
  3  4  1  0
  4  5  1  0
  5  6  1  0
  6  7  1  0
  7  8  1  0
  7  9  1  0
  2 10  1  0
 10 11  1  0
 11 12  1  0
 12 13  1  0
 13 14  1  1
 13 15  1  0
 15 16  1  0
 16 17  1  0
 17 18  2  0
 18 19  1  0
 19 20  1  0
 20 21  1  0
 21 22  1  0
 22 23  1  0
 22 24  1  0
 24 25  1  0
 24 26  1  0
 19 27  1  0
 27 28  1  6
 27 29  1  0
 29 30  1  0
 30 31  1  0
 31 32  1  6
  7  5  1  0
 31 10  1  0
 31 13  1  0
 27 15  1  0
 24 18  1  0
  1 33  1  0
  1 34  1  0
  1 35  1  0
  2 36  1  1
  3 37  1  0
  3 38  1  0
  4 39  1  0
  4 40  1  0
  5 41  1  6
  8 42  1  0
  8 43  1  0
  8 44  1  0
  9 45  1  0
  9 46  1  0
  9 47  1  0
 10 48  1  1
 11 49  1  0
 11 50  1  0
 12 51  1  0
 12 52  1  0
 14 53  1  0
 14 54  1  0
 14 55  1  0
 15 56  1  6
 16 57  1  0
 16 58  1  0
 17 59  1  0
 19 60  1  1
 20 61  1  0
 20 62  1  0
 21 63  1  0
 21 64  1  0
 22 65  1  1
 23 66  1  0
 25 67  1  0
 25 68  1  0
 25 69  1  0
 26 70  1  0
 26 71  1  0
 26 72  1  0
 28 73  1  0
 28 74  1  0
 28 75  1  0
 29 76  1  0
 29 77  1  0
 30 78  1  0
 30 79  1  0
 32 80  1  0
 32 81  1  0
 32 82  1  0
M  END
>  <meeko>  (2) 
{"is_sidechain": [false], "intermolecular_energy": 2.731, "internal_energy": -0.839}

$$$$
EPH_relaxed_0001_pdb2pqr_Repair_402_r2_0001_out
     RDKit          3D

 82 86  0  0  0  0  0  0  0  0999 V2000
    1.8340   18.4610   -2.0300 C   0  0  0  0  0  0  0  0  0  0  0  0
    1.4820   17.4760   -0.9120 C   0  0  2  0  0  0  0  0  0  0  0  0
    2.7090   17.1070   -0.0550 C   0  0  0  0  0  0  0  0  0  0  0  0
    3.6280   18.2940    0.2480 C   0  0  0  0  0  0  0  0  0  0  0  0
    3.4100   18.8220    1.6340 C   0  0  2  0  0  0  0  0  0  0  0  0
    3.8120   20.1850    1.8240 O   0  0  0  0  0  0  0  0  0  0  0  0
    4.5420   19.1990    2.5720 C   0  0  0  0  0  0  0  0  0  0  0  0
    5.9740   19.0610    2.1620 C   0  0  0  0  0  0  0  0  0  0  0  0
    4.2690   19.2350    4.0440 C   0  0  0  0  0  0  0  0  0  0  0  0
    0.8620   16.2170   -1.5050 C   0  0  1  0  0  0  0  0  0  0  0  0
    0.5880   16.3450   -3.0270 C   0  0  0  0  0  0  0  0  0  0  0  0
    0.8350   14.9460   -3.6460 C   0  0  0  0  0  0  0  0  0  0  0  0
    0.9160   13.9910   -2.4320 C   0  0  1  0  0  0  0  0  0  0  0  0
   -0.5700   13.7000   -2.0510 C   0  0  0  0  0  0  0  0  0  0  0  0
    1.7270   12.6710   -2.6440 C   0  0  2  0  0  0  0  0  0  0  0  0
    1.1640   11.7240   -3.7180 C   0  0  0  0  0  0  0  0  0  0  0  0
    0.1840   10.7110   -3.2240 C   0  0  0  0  0  0  0  0  0  0  0  0
   -0.0150   10.3790   -1.9350 C   0  0  0  0  0  0  0  0  0  0  0  0
    0.8580   10.9760   -0.8240 C   0  0  1  0  0  0  0  0  0  0  0  0
    1.3170    9.8480    0.1370 C   0  0  0  0  0  0  0  0  0  0  0  0
    0.1490    9.0360    0.6860 C   0  0  0  0  0  0  0  0  0  0  0  0
   -0.6610    8.4100   -0.4470 C   0  0  2  0  0  0  0  0  0  0  0  0
    0.1480    7.4300   -1.1050 O   0  0  0  0  0  0  0  0  0  0  0  0
   -1.1690    9.4500   -1.4840 C   0  0  0  0  0  0  0  0  0  0  0  0
   -2.2750   10.3260   -0.8430 C   0  0  0  0  0  0  0  0  0  0  0  0
   -1.8470    8.6750   -2.6450 C   0  0  0  0  0  0  0  0  0  0  0  0
    2.0620   11.8950   -1.3060 C   0  0  1  0  0  0  0  0  0  0  0  0
    3.3160   11.0160   -1.6030 C   0  0  0  0  0  0  0  0  0  0  0  0
    2.4680   12.8670   -0.1360 C   0  0  0  0  0  0  0  0  0  0  0  0
    1.7120   14.2070   -0.0520 C   0  0  0  0  0  0  0  0  0  0  0  0
    1.6860   14.9080   -1.4130 C   0  0  2  0  0  0  0  0  0  0  0  0
    3.1650   15.2330   -1.8130 C   0  0  0  0  0  0  0  0  0  0  0  0
    2.1731   19.4100   -1.5892 H   0  0  0  0  0  0  0  0  0  0  0  0
    2.6366   18.0381   -2.6520 H   0  0  0  0  0  0  0  0  0  0  0  0
    0.9451   18.6426   -2.6520 H   0  0  0  0  0  0  0  0  0  0  0  0
    0.7558   17.9716   -0.2509 H   0  0  0  0  0  0  0  0  0  0  0  0
    2.3536   16.6906    0.8991 H   0  0  0  0  0  0  0  0  0  0  0  0
    3.3000   16.3828   -0.6349 H   0  0  0  0  0  0  0  0  0  0  0  0
    4.6744   17.9691    0.1504 H   0  0  0  0  0  0  0  0  0  0  0  0
    3.3976   19.0982   -0.4663 H   0  0  0  0  0  0  0  0  0  0  0  0
    2.5249   18.1822    1.7654 H   0  0  0  0  0  0  0  0  0  0  0  0
    6.6079   18.9999    3.0589 H   0  0  0  0  0  0  0  0  0  0  0  0
    6.0974   18.1468    1.5628 H   0  0  0  0  0  0  0  0  0  0  0  0
    6.2697   19.9348    1.5628 H   0  0  0  0  0  0  0  0  0  0  0  0
    5.2128   19.1105    4.5951 H   0  0  0  0  0  0  0  0  0  0  0  0
    3.8143   20.2009    4.3091 H   0  0  0  0  0  0  0  0  0  0  0  0
    3.5794   18.4200    4.3091 H   0  0  0  0  0  0  0  0  0  0  0  0
   -0.0377   16.1414   -0.8767 H   0  0  0  0  0  0  0  0  0  0  0  0
   -0.4527   16.6569   -3.1994 H   0  0  0  0  0  0  0  0  0  0  0  0
    1.2445   17.1001   -3.4839 H   0  0  0  0  0  0  0  0  0  0  0  0
    0.0040   14.6623   -4.3085 H   0  0  0  0  0  0  0  0  0  0  0  0
    1.7465   14.9170   -4.2611 H   0  0  0  0  0  0  0  0  0  0  0  0
   -0.6706   13.6803   -0.9558 H   0  0  0  0  0  0  0  0  0  0  0  0
   -1.2157   14.4888   -2.4644 H   0  0  0  0  0  0  0  0  0  0  0  0
   -0.8705   12.7259   -2.4644 H   0  0  0  0  0  0  0  0  0  0  0  0
    2.6815   13.0422   -3.0454 H   0  0  0  0  0  0  0  0  0  0  0  0
    0.6638   12.3363   -4.4828 H   0  0  0  0  0  0  0  0  0  0  0  0
    2.0230   11.1546   -4.1026 H   0  0  0  0  0  0  0  0  0  0  0  0
   -0.4269   10.1923   -3.9775 H   0  0  0  0  0  0  0  0  0  0  0  0
    0.2171   11.6883   -0.2839 H   0  0  0  0  0  0  0  0  0  0  0  0
    1.9906    9.1716   -0.4095 H   0  0  0  0  0  0  0  0  0  0  0  0
    1.8241   10.3222    0.9902 H   0  0  0  0  0  0  0  0  0  0  0  0
    0.5390    8.2370    1.3338 H   0  0  0  0  0  0  0  0  0  0  0  0
   -0.5080    9.7082    1.2574 H   0  0  0  0  0  0  0  0  0  0  0  0
   -1.5550    7.9515    0.0008 H   0  0  0  0  0  0  0  0  0  0  0  0
    0.9690    7.8680   -1.3870 H   0  0  0  0  0  0  0  0  0  0  0  0
   -2.2004   10.2669    0.2529 H   0  0  0  0  0  0  0  0  0  0  0  0
   -2.1472   11.3705   -1.1634 H   0  0  0  0  0  0  0  0  0  0  0  0
   -3.2625    9.9624   -1.1634 H   0  0  0  0  0  0  0  0  0  0  0  0
   -2.5181    7.9079   -2.2312 H   0  0  0  0  0  0  0  0  0  0  0  0
   -2.4277    9.3752   -3.2634 H   0  0  0  0  0  0  0  0  0  0  0  0
   -1.0758    8.1925   -3.2634 H   0  0  0  0  0  0  0  0  0  0  0  0
    3.7724   10.6961   -0.6547 H   0  0  0  0  0  0  0  0  0  0  0  0
    3.0144   10.1306   -2.1819 H   0  0  0  0  0  0  0  0  0  0  0  0
    4.0454   11.6015   -2.1819 H   0  0  0  0  0  0  0  0  0  0  0  0
    2.3052   12.3331    0.8118 H   0  0  0  0  0  0  0  0  0  0  0  0
    3.5145   13.1391   -0.3380 H   0  0  0  0  0  0  0  0  0  0  0  0
    0.6789   14.0174    0.2749 H   0  0  0  0  0  0  0  0  0  0  0  0
    2.2304   14.8576    0.6677 H   0  0  0  0  0  0  0  0  0  0  0  0
    3.7699   15.3659   -0.9039 H   0  0  0  0  0  0  0  0  0  0  0  0
    3.5747   14.4034   -2.4080 H   0  0  0  0  0  0  0  0  0  0  0  0
    3.1891   16.1579   -2.4080 H   0  0  0  0  0  0  0  0  0  0  0  0
  1  2  1  0
  2  3  1  0
  3  4  1  0
  4  5  1  0
  5  6  1  0
  6  7  1  0
  7  8  1  0
  7  9  1  0
  2 10  1  0
 10 11  1  0
 11 12  1  0
 12 13  1  0
 13 14  1  1
 13 15  1  0
 15 16  1  0
 16 17  1  0
 17 18  2  0
 18 19  1  0
 19 20  1  0
 20 21  1  0
 21 22  1  0
 22 23  1  0
 22 24  1  0
 24 25  1  0
 24 26  1  0
 19 27  1  0
 27 28  1  6
 27 29  1  0
 29 30  1  0
 30 31  1  0
 31 32  1  6
  7  5  1  0
 31 10  1  0
 31 13  1  0
 27 15  1  0
 24 18  1  0
  1 33  1  0
  1 34  1  0
  1 35  1  0
  2 36  1  1
  3 37  1  0
  3 38  1  0
  4 39  1  0
  4 40  1  0
  5 41  1  1
  8 42  1  0
  8 43  1  0
  8 44  1  0
  9 45  1  0
  9 46  1  0
  9 47  1  0
 10 48  1  1
 11 49  1  0
 11 50  1  0
 12 51  1  0
 12 52  1  0
 14 53  1  0
 14 54  1  0
 14 55  1  0
 15 56  1  6
 16 57  1  0
 16 58  1  0
 17 59  1  0
 19 60  1  1
 20 61  1  0
 20 62  1  0
 21 63  1  0
 21 64  1  0
 22 65  1  1
 23 66  1  0
 25 67  1  0
 25 68  1  0
 25 69  1  0
 26 70  1  0
 26 71  1  0
 26 72  1  0
 28 73  1  0
 28 74  1  0
 28 75  1  0
 29 76  1  0
 29 77  1  0
 30 78  1  0
 30 79  1  0
 32 80  1  0
 32 81  1  0
 32 82  1  0
M  END
>  <meeko>  (3) 
{"is_sidechain": [false], "intermolecular_energy": 2.731, "internal_energy": -0.839}

$$$$
EPH_relaxed_0001_pdb2pqr_Repair_402_r2_0001_out
     RDKit          3D

 82 86  0  0  0  0  0  0  0  0999 V2000
    2.3480   18.0060   -2.6340 C   0  0  0  0  0  0  0  0  0  0  0  0
    1.0270   17.6330   -1.9540 C   0  0  2  0  0  0  0  0  0  0  0  0
    1.1280   17.6950   -0.4160 C   0  0  0  0  0  0  0  0  0  0  0  0
    0.7880   19.0690    0.1680 C   0  0  0  0  0  0  0  0  0  0  0  0
   -0.6590   19.1690    0.5430 C   0  0  2  0  0  0  0  0  0  0  0  0
   -1.5240   18.2670   -0.1590 O   0  0  0  0  0  0  0  0  0  0  0  0
   -1.7360   19.6670   -0.4020 C   0  0  0  0  0  0  0  0  0  0  0  0
   -1.4110   20.0990   -1.7970 C   0  0  0  0  0  0  0  0  0  0  0  0
   -3.0110   20.1930    0.1800 C   0  0  0  0  0  0  0  0  0  0  0  0
    0.5930   16.2390   -2.3920 C   0  0  1  0  0  0  0  0  0  0  0  0
    0.6700   16.0450   -3.9300 C   0  0  0  0  0  0  0  0  0  0  0  0
    1.0890   14.5720   -4.1740 C   0  0  0  0  0  0  0  0  0  0  0  0
    0.9150   13.8850   -2.8000 C   0  0  1  0  0  0  0  0  0  0  0  0
   -0.6100   13.5670   -2.6990 C   0  0  0  0  0  0  0  0  0  0  0  0
    1.7880   12.6110   -2.5490 C   0  0  2  0  0  0  0  0  0  0  0  0
    1.5090   11.4330   -3.4980 C   0  0  0  0  0  0  0  0  0  0  0  0
    0.4700   10.4690   -3.0300 C   0  0  0  0  0  0  0  0  0  0  0  0
   -0.0090   10.3840   -1.7750 C   0  0  0  0  0  0  0  0  0  0  0  0
    0.5710   11.2500   -0.6500 C   0  0  1  0  0  0  0  0  0  0  0  0
    0.8280   10.3700    0.6010 C   0  0  0  0  0  0  0  0  0  0  0  0
   -0.4140    9.5990    1.0390 C   0  0  0  0  0  0  0  0  0  0  0  0
   -0.9260    8.7050   -0.0870 C   0  0  2  0  0  0  0  0  0  0  0  0
    0.0370    7.6760   -0.3340 O   0  0  0  0  0  0  0  0  0  0  0  0
   -1.2120    9.4810   -1.4030 C   0  0  0  0  0  0  0  0  0  0  0  0
   -2.4570   10.3830   -1.2170 C   0  0  0  0  0  0  0  0  0  0  0  0
   -1.5860    8.4450   -2.4970 C   0  0  0  0  0  0  0  0  0  0  0  0
    1.8280   12.1400   -1.0390 C   0  0  1  0  0  0  0  0  0  0  0  0
    3.1390   11.3140   -0.8660 C   0  0  0  0  0  0  0  0  0  0  0  0
    1.9310   13.3510   -0.0370 C   0  0  0  0  0  0  0  0  0  0  0  0
    1.1410   14.6230   -0.4010 C   0  0  0  0  0  0  0  0  0  0  0  0
    1.4080   15.0380   -1.8510 C   0  0  2  0  0  0  0  0  0  0  0  0
    2.9300   15.3850   -1.9770 C   0  0  0  0  0  0  0  0  0  0  0  0
    3.1072   18.2204   -1.8675 H   0  0  0  0  0  0  0  0  0  0  0  0
    2.6867   17.1684   -3.2614 H   0  0  0  0  0  0  0  0  0  0  0  0
    2.1986   18.8971   -3.2614 H   0  0  0  0  0  0  0  0  0  0  0  0
    0.2738   18.3718   -2.2653 H   0  0  0  0  0  0  0  0  0  0  0  0
    0.4325   16.9557    0.0078 H   0  0  0  0  0  0  0  0  0  0  0  0
    2.1753   17.4843   -0.1537 H   0  0  0  0  0  0  0  0  0  0  0  0
    1.4013   19.2365    1.0657 H   0  0  0  0  0  0  0  0  0  0  0  0
    0.9967   19.8290   -0.5994 H   0  0  0  0  0  0  0  0  0  0  0  0
   -0.3960   19.4472    1.5742 H   0  0  0  0  0  0  0  0  0  0  0  0
   -0.7500   20.9776   -1.7641 H   0  0  0  0  0  0  0  0  0  0  0  0
   -0.9043   19.2786   -2.3263 H   0  0  0  0  0  0  0  0  0  0  0  0
   -2.3397   20.3584   -2.3263 H   0  0  0  0  0  0  0  0  0  0  0  0
   -2.9506   20.1681    1.2781 H   0  0  0  0  0  0  0  0  0  0  0  0
   -3.1671   21.2290   -0.1552 H   0  0  0  0  0  0  0  0  0  0  0  0
   -3.8522   19.5685   -0.1552 H   0  0  0  0  0  0  0  0  0  0  0  0
   -0.4240   16.2222   -1.9732 H   0  0  0  0  0  0  0  0  0  0  0  0
   -0.3117   16.2402   -4.3862 H   0  0  0  0  0  0  0  0  0  0  0  0
    1.3926   16.7413   -4.3805 H   0  0  0  0  0  0  0  0  0  0  0  0
    0.4394   14.1031   -4.9278 H   0  0  0  0  0  0  0  0  0  0  0  0
    2.1174   14.4883   -4.5553 H   0  0  0  0  0  0  0  0  0  0  0  0
   -0.9025   13.5060   -1.6404 H   0  0  0  0  0  0  0  0  0  0  0  0
   -1.1844   14.3647   -3.1927 H   0  0  0  0  0  0  0  0  0  0  0  0
   -0.8177   12.6062   -3.1927 H   0  0  0  0  0  0  0  0  0  0  0  0
    2.7992   12.9640   -2.7996 H   0  0  0  0  0  0  0  0  0  0  0  0
    1.1801   11.8450   -4.4635 H   0  0  0  0  0  0  0  0  0  0  0  0
    2.4476   10.8627   -3.5589 H   0  0  0  0  0  0  0  0  0  0  0  0
    0.0612    9.7689   -3.7735 H   0  0  0  0  0  0  0  0  0  0  0  0
   -0.1946   12.0064   -0.4227 H   0  0  0  0  0  0  0  0  0  0  0  0
    1.6261    9.6498    0.3677 H   0  0  0  0  0  0  0  0  0  0  0  0
    1.1146   11.0383    1.4263 H   0  0  0  0  0  0  0  0  0  0  0  0
   -0.1619    8.9741    1.9085 H   0  0  0  0  0  0  0  0  0  0  0  0
   -1.2017   10.3211    1.2999 H   0  0  0  0  0  0  0  0  0  0  0  0
   -1.8858    8.2791    0.2407 H   0  0  0  0  0  0  0  0  0  0  0  0
    0.5230    7.9160   -1.1400 H   0  0  0  0  0  0  0  0  0  0  0  0
   -2.6509   10.5235   -0.1434 H   0  0  0  0  0  0  0  0  0  0  0  0
   -2.2753   11.3604   -1.6878 H   0  0  0  0  0  0  0  0  0  0  0  0
   -3.3292    9.9058   -1.6878 H   0  0  0  0  0  0  0  0  0  0  0  0
   -1.9225    7.5129   -2.0196 H   0  0  0  0  0  0  0  0  0  0  0  0
   -2.3950    8.8490   -3.1233 H   0  0  0  0  0  0  0  0  0  0  0  0
   -0.7055    8.2390   -3.1233 H   0  0  0  0  0  0  0  0  0  0  0  0
    3.3499   11.1811    0.2054 H   0  0  0  0  0  0  0  0  0  0  0  0
    3.0172   10.3292   -1.3407 H   0  0  0  0  0  0  0  0  0  0  0  0
    3.9748   11.8490   -1.3407 H   0  0  0  0  0  0  0  0  0  0  0  0
    1.5702   13.0041    0.9425 H   0  0  0  0  0  0  0  0  0  0  0  0
    2.9885   13.6530   -0.0582 H   0  0  0  0  0  0  0  0  0  0  0  0
    0.0659   14.4273   -0.2748 H   0  0  0  0  0  0  0  0  0  0  0  0
    1.4644   15.4386    0.2625 H   0  0  0  0  0  0  0  0  0  0  0  0
    3.3677   15.4848   -0.9728 H   0  0  0  0  0  0  0  0  0  0  0  0
    3.4453   14.5813   -2.5234 H   0  0  0  0  0  0  0  0  0  0  0  0
    3.0460   16.3326   -2.5234 H   0  0  0  0  0  0  0  0  0  0  0  0
  1  2  1  0
  2  3  1  0
  3  4  1  0
  4  5  1  0
  5  6  1  0
  6  7  1  0
  7  8  1  0
  7  9  1  0
  2 10  1  0
 10 11  1  0
 11 12  1  0
 12 13  1  0
 13 14  1  1
 13 15  1  0
 15 16  1  0
 16 17  1  0
 17 18  2  0
 18 19  1  0
 19 20  1  0
 20 21  1  0
 21 22  1  0
 22 23  1  0
 22 24  1  0
 24 25  1  0
 24 26  1  0
 19 27  1  0
 27 28  1  6
 27 29  1  0
 29 30  1  0
 30 31  1  0
 31 32  1  1
  7  5  1  0
 31 10  1  0
 31 13  1  0
 27 15  1  0
 24 18  1  0
  1 33  1  0
  1 34  1  0
  1 35  1  0
  2 36  1  6
  3 37  1  0
  3 38  1  0
  4 39  1  0
  4 40  1  0
  5 41  1  1
  8 42  1  0
  8 43  1  0
  8 44  1  0
  9 45  1  0
  9 46  1  0
  9 47  1  0
 10 48  1  1
 11 49  1  0
 11 50  1  0
 12 51  1  0
 12 52  1  0
 14 53  1  0
 14 54  1  0
 14 55  1  0
 15 56  1  6
 16 57  1  0
 16 58  1  0
 17 59  1  0
 19 60  1  1
 20 61  1  0
 20 62  1  0
 21 63  1  0
 21 64  1  0
 22 65  1  1
 23 66  1  0
 25 67  1  0
 25 68  1  0
 25 69  1  0
 26 70  1  0
 26 71  1  0
 26 72  1  0
 28 73  1  0
 28 74  1  0
 28 75  1  0
 29 76  1  0
 29 77  1  0
 30 78  1  0
 30 79  1  0
 32 80  1  0
 32 81  1  0
 32 82  1  0
M  END
>  <meeko>  (4) 
{"is_sidechain": [false], "intermolecular_energy": 2.731, "internal_energy": -0.839}

$$$$
EPH_relaxed_0001_pdb2pqr_Repair_402_r2_0001_out
     RDKit          3D

 82 86  0  0  0  0  0  0  0  0999 V2000
    3.6400   18.0800    0.6810 C   0  0  0  0  0  0  0  0  0  0  0  0
    2.6620   18.4350   -0.4420 C   0  0  2  0  0  0  0  0  0  0  0  0
    1.9060   19.7490   -0.1590 C   0  0  0  0  0  0  0  0  0  0  0  0
    0.7890   19.6060    0.8790 C   0  0  0  0  0  0  0  0  0  0  0  0
   -0.5040   20.1790    0.3850 C   0  0  2  0  0  0  0  0  0  0  0  0
   -1.5620   20.1910    1.3520 O   0  0  0  0  0  0  0  0  0  0  0  0
   -1.7670   19.3580    0.2000 C   0  0  0  0  0  0  0  0  0  0  0  0
   -1.7970   17.8930    0.5060 C   0  0  0  0  0  0  0  0  0  0  0  0
   -2.8210   19.8670   -0.7330 C   0  0  0  0  0  0  0  0  0  0  0  0
    1.6690   17.2970   -0.6460 C   0  0  1  0  0  0  0  0  0  0  0  0
    0.5040   17.6830   -1.5950 C   0  0  0  0  0  0  0  0  0  0  0  0
    0.1390   16.4080   -2.3980 C   0  0  0  0  0  0  0  0  0  0  0  0
    0.8670   15.2610   -1.6590 C   0  0  1  0  0  0  0  0  0  0  0  0
   -0.0540   14.9150   -0.4480 C   0  0  0  0  0  0  0  0  0  0  0  0
    1.2010   13.9930   -2.5110 C   0  0  2  0  0  0  0  0  0  0  0  0
   -0.0200   13.2440   -3.0730 C   0  0  0  0  0  0  0  0  0  0  0  0
   -0.5660   12.1660   -2.1960 C   0  0  0  0  0  0  0  0  0  0  0  0
    0.0680   11.6200   -1.1410 C   0  0  0  0  0  0  0  0  0  0  0  0
    1.5090   12.0170   -0.7960 C   0  0  1  0  0  0  0  0  0  0  0  0
    2.3440   10.7400   -0.5150 C   0  0  0  0  0  0  0  0  0  0  0  0
    1.7120    9.8510    0.5520 C   0  0  0  0  0  0  0  0  0  0  0  0
    0.3020    9.4300    0.1460 C   0  0  2  0  0  0  0  0  0  0  0  0
    0.3880    8.5730   -0.9970 O   0  0  0  0  0  0  0  0  0  0  0  0
   -0.6290   10.6330   -0.1720 C   0  0  0  0  0  0  0  0  0  0  0  0
   -0.9640   11.3910    1.1360 C   0  0  0  0  0  0  0  0  0  0  0  0
   -1.9740   10.0690   -0.7030 C   0  0  0  0  0  0  0  0  0  0  0  0
    2.2220   12.9990   -1.8220 C   0  0  1  0  0  0  0  0  0  0  0  0
    2.8880   12.1790   -2.9680 C   0  0  0  0  0  0  0  0  0  0  0  0
    3.3880   13.7570   -1.0820 C   0  0  0  0  0  0  0  0  0  0  0  0
    3.0170   15.0660   -0.3590 C   0  0  0  0  0  0  0  0  0  0  0  0
    2.2070   15.9880   -1.2760 C   0  0  2  0  0  0  0  0  0  0  0  0
    3.1170   16.3710   -2.4930 C   0  0  0  0  0  0  0  0  0  0  0  0
    3.1591   18.2545    1.6548 H   0  0  0  0  0  0  0  0  0  0  0  0
    3.9254   17.0209    0.5976 H   0  0  0  0  0  0  0  0  0  0  0  0
    4.5382   18.7094    0.5976 H   0  0  0  0  0  0  0  0  0  0  0  0
    3.2510   18.5832   -1.3592 H   0  0  0  0  0  0  0  0  0  0  0  0
    2.6283   20.4928    0.2085 H   0  0  0  0  0  0  0  0  0  0  0  0
    1.4305   20.0556   -1.1024 H   0  0  0  0  0  0  0  0  0  0  0  0
    0.6438   18.5386    1.1015 H   0  0  0  0  0  0  0  0  0  0  0  0
    1.0868   20.1602    1.7813 H   0  0  0  0  0  0  0  0  0  0  0  0
    0.0307   20.8709   -0.2823 H   0  0  0  0  0  0  0  0  0  0  0  0
   -1.8000   17.7461    1.5961 H   0  0  0  0  0  0  0  0  0  0  0  0
   -2.7045   17.4466    0.0734 H   0  0  0  0  0  0  0  0  0  0  0  0
   -0.9086   17.4098    0.0734 H   0  0  0  0  0  0  0  0  0  0  0  0
   -3.6613   20.2728   -0.1506 H   0  0  0  0  0  0  0  0  0  0  0  0
   -2.3976   20.6599   -1.3670 H   0  0  0  0  0  0  0  0  0  0  0  0
   -3.1787   19.0424   -1.3670 H   0  0  0  0  0  0  0  0  0  0  0  0
    1.3760   17.1191    0.3992 H   0  0  0  0  0  0  0  0  0  0  0  0
   -0.3634   18.0237   -1.0106 H   0  0  0  0  0  0  0  0  0  0  0  0
    0.7978   18.5024   -2.2676 H   0  0  0  0  0  0  0  0  0  0  0  0
   -0.9487   16.2442   -2.3936 H   0  0  0  0  0  0  0  0  0  0  0  0
    0.4377   16.4800   -3.4542 H   0  0  0  0  0  0  0  0  0  0  0  0
    0.4831   15.1168    0.4905 H   0  0  0  0  0  0  0  0  0  0  0  0
   -0.9631   15.5329   -0.4904 H   0  0  0  0  0  0  0  0  0  0  0  0
   -0.3313   13.8514   -0.4904 H   0  0  0  0  0  0  0  0  0  0  0  0
    1.7145   14.4240   -3.3831 H   0  0  0  0  0  0  0  0  0  0  0  0
   -0.8198   13.9792   -3.2459 H   0  0  0  0  0  0  0  0  0  0  0  0
    0.3251   12.7445   -3.9903 H   0  0  0  0  0  0  0  0  0  0  0  0
   -1.5709   11.7858   -2.4316 H   0  0  0  0  0  0  0  0  0  0  0  0
    1.4462   12.6302    0.1151 H   0  0  0  0  0  0  0  0  0  0  0  0
    2.4315   10.1635   -1.4478 H   0  0  0  0  0  0  0  0  0  0  0  0
    3.3285   11.0598   -0.1430 H   0  0  0  0  0  0  0  0  0  0  0  0
    2.3319    8.9521    0.6850 H   0  0  0  0  0  0  0  0  0  0  0  0
    1.6519   10.4192    1.4920 H   0  0  0  0  0  0  0  0  0  0  0  0
   -0.1453    8.9055    1.0032 H   0  0  0  0  0  0  0  0  0  0  0  0
   -0.0760    7.7470   -0.7810 H   0  0  0  0  0  0  0  0  0  0  0  0
   -0.6892   10.7692    2.0008 H   0  0  0  0  0  0  0  0  0  0  0  0
   -0.3989   12.3342    1.1682 H   0  0  0  0  0  0  0  0  0  0  0  0
   -2.0419   11.6081    1.1682 H   0  0  0  0  0  0  0  0  0  0  0  0
   -2.6189    9.7986    0.1461 H   0  0  0  0  0  0  0  0  0  0  0  0
   -2.4755   10.8326   -1.3157 H   0  0  0  0  0  0  0  0  0  0  0  0
   -1.7808    9.1761   -1.3157 H   0  0  0  0  0  0  0  0  0  0  0  0
    3.5254   11.3942   -2.5347 H   0  0  0  0  0  0  0  0  0  0  0  0
    2.1071   11.7158   -3.5891 H   0  0  0  0  0  0  0  0  0  0  0  0
    3.5015   12.8483   -3.5891 H   0  0  0  0  0  0  0  0  0  0  0  0
    3.8081   13.0704   -0.3323 H   0  0  0  0  0  0  0  0  0  0  0  0
    4.0872   14.0556   -1.8770 H   0  0  0  0  0  0  0  0  0  0  0  0
    2.4176   14.8276    0.5320 H   0  0  0  0  0  0  0  0  0  0  0  0
    3.9444   15.5833   -0.0719 H   0  0  0  0  0  0  0  0  0  0  0  0
    4.0722   16.7730   -2.1244 H   0  0  0  0  0  0  0  0  0  0  0  0
    3.3072   15.4766   -3.1044 H   0  0  0  0  0  0  0  0  0  0  0  0
    2.6103   17.1322   -3.1044 H   0  0  0  0  0  0  0  0  0  0  0  0
  1  2  1  0
  2  3  1  0
  3  4  1  0
  4  5  1  0
  5  6  1  0
  6  7  1  0
  7  8  1  0
  7  9  1  0
  2 10  1  0
 10 11  1  0
 11 12  1  0
 12 13  1  0
 13 14  1  1
 13 15  1  0
 15 16  1  0
 16 17  1  0
 17 18  2  0
 18 19  1  0
 19 20  1  0
 20 21  1  0
 21 22  1  0
 22 23  1  0
 22 24  1  0
 24 25  1  0
 24 26  1  0
 19 27  1  0
 27 28  1  6
 27 29  1  0
 29 30  1  0
 30 31  1  0
 31 32  1  6
  7  5  1  0
 31 10  1  0
 31 13  1  0
 27 15  1  0
 24 18  1  0
  1 33  1  0
  1 34  1  0
  1 35  1  0
  2 36  1  6
  3 37  1  0
  3 38  1  0
  4 39  1  0
  4 40  1  0
  5 41  1  6
  8 42  1  0
  8 43  1  0
  8 44  1  0
  9 45  1  0
  9 46  1  0
  9 47  1  0
 10 48  1  1
 11 49  1  0
 11 50  1  0
 12 51  1  0
 12 52  1  0
 14 53  1  0
 14 54  1  0
 14 55  1  0
 15 56  1  6
 16 57  1  0
 16 58  1  0
 17 59  1  0
 19 60  1  1
 20 61  1  0
 20 62  1  0
 21 63  1  0
 21 64  1  0
 22 65  1  1
 23 66  1  0
 25 67  1  0
 25 68  1  0
 25 69  1  0
 26 70  1  0
 26 71  1  0
 26 72  1  0
 28 73  1  0
 28 74  1  0
 28 75  1  0
 29 76  1  0
 29 77  1  0
 30 78  1  0
 30 79  1  0
 32 80  1  0
 32 81  1  0
 32 82  1  0
M  END
>  <meeko>  (5) 
{"is_sidechain": [false], "intermolecular_energy": 2.731, "internal_energy": -0.839}

$$$$
EPH_relaxed_0001_pdb2pqr_Repair_402_r2_0001_out
     RDKit          3D

 82 86  0  0  0  0  0  0  0  0999 V2000
   -2.2990    9.8700   -0.6310 C   0  0  0  0  0  0  0  0  0  0  0  0
   -0.9880   10.2930   -1.3000 C   0  0  2  0  0  0  0  0  0  0  0  0
    0.0970    9.2030   -1.1920 C   0  0  0  0  0  0  0  0  0  0  0  0
    0.4900    8.8670    0.2490 C   0  0  0  0  0  0  0  0  0  0  0  0
    1.9650    8.6320    0.3810 C   0  0  2  0  0  0  0  0  0  0  0  0
    2.3450    7.8370    1.5120 O   0  0  0  0  0  0  0  0  0  0  0  0
    2.8040    9.1990    1.5100 C   0  0  0  0  0  0  0  0  0  0  0  0
    2.1980   10.0470    2.5840 C   0  0  0  0  0  0  0  0  0  0  0  0
    4.2810    9.3370    1.3040 C   0  0  0  0  0  0  0  0  0  0  0  0
   -0.4840   11.5920   -0.6830 C   0  0  1  0  0  0  0  0  0  0  0  0
    0.5950   11.3570    0.4060 C   0  0  0  0  0  0  0  0  0  0  0  0
    1.5950   12.5380    0.3080 C   0  0  0  0  0  0  0  0  0  0  0  0
    0.8860   13.5750   -0.5950 C   0  0  1  0  0  0  0  0  0  0  0  0
   -0.1020   14.3240    0.3530 C   0  0  0  0  0  0  0  0  0  0  0  0
    1.8140   14.5700   -1.3650 C   0  0  2  0  0  0  0  0  0  0  0  0
    2.6600   15.4960   -0.4730 C   0  0  0  0  0  0  0  0  0  0  0  0
    2.0230   16.8000   -0.1230 C   0  0  0  0  0  0  0  0  0  0  0  0
    0.9490   17.3340   -0.7340 C   0  0  0  0  0  0  0  0  0  0  0  0
    0.3200   16.6570   -1.9580 C   0  0  1  0  0  0  0  0  0  0  0  0
    0.0570   17.7180   -3.0590 C   0  0  0  0  0  0  0  0  0  0  0  0
   -0.7740   18.8930   -2.5520 C   0  0  0  0  0  0  0  0  0  0  0  0
   -0.0880   19.5770   -1.3710 C   0  0  2  0  0  0  0  0  0  0  0  0
    1.1180   20.1930   -1.8330 O   0  0  0  0  0  0  0  0  0  0  0  0
    0.2370   18.6030   -0.2040 C   0  0  0  0  0  0  0  0  0  0  0  0
   -1.0770   18.1690    0.4920 C   0  0  0  0  0  0  0  0  0  0  0  0
    1.0520   19.3880    0.8590 C   0  0  0  0  0  0  0  0  0  0  0  0
    1.0860   15.3790   -2.5130 C   0  0  1  0  0  0  0  0  0  0  0  0
    2.1930   15.8180   -3.5200 C   0  0  0  0  0  0  0  0  0  0  0  0
    0.0750   14.4870   -3.3260 C   0  0  0  0  0  0  0  0  0  0  0  0
   -0.7260   13.4410   -2.5270 C   0  0  0  0  0  0  0  0  0  0  0  0
    0.1980   12.6120   -1.6300 C   0  0  2  0  0  0  0  0  0  0  0  0
    1.1890   11.8290   -2.5570 C   0  0  0  0  0  0  0  0  0  0  0  0
   -2.1817    9.9078    0.4621 H   0  0  0  0  0  0  0  0  0  0  0  0
   -3.1043   10.5539   -0.9373 H   0  0  0  0  0  0  0  0  0  0  0  0
   -2.5527    8.8444   -0.9373 H   0  0  0  0  0  0  0  0  0  0  0  0
   -1.1972   10.4463   -2.3690 H   0  0  0  0  0  0  0  0  0  0  0  0
   -0.2810    8.2879   -1.6713 H   0  0  0  0  0  0  0  0  0  0  0  0
    0.9973    9.5951   -1.6878 H   0  0  0  0  0  0  0  0  0  0  0  0
    0.2027    9.7047    0.9015 H   0  0  0  0  0  0  0  0  0  0  0  0
   -0.0318    7.9435    0.5404 H   0  0  0  0  0  0  0  0  0  0  0  0
    2.0901    8.6501   -0.7117 H   0  0  0  0  0  0  0  0  0  0  0  0
    2.4822    9.6492    3.5694 H   0  0  0  0  0  0  0  0  0  0  0  0
    2.5639   11.0797    2.4860 H   0  0  0  0  0  0  0  0  0  0  0  0
    1.1024   10.0353    2.4860 H   0  0  0  0  0  0  0  0  0  0  0  0
    4.7846    9.3841    2.2808 H   0  0  0  0  0  0  0  0  0  0  0  0
    4.6551    8.4699    0.7399 H   0  0  0  0  0  0  0  0  0  0  0  0
    4.4880   10.2584    0.7399 H   0  0  0  0  0  0  0  0  0  0  0  0
   -1.4355   12.0008   -0.3122 H   0  0  0  0  0  0  0  0  0  0  0  0
    0.1293   11.3368    1.4024 H   0  0  0  0  0  0  0  0  0  0  0  0
    1.1052   10.3942    0.2549 H   0  0  0  0  0  0  0  0  0  0  0  0
    1.7945   12.9616    1.3033 H   0  0  0  0  0  0  0  0  0  0  0  0
    2.5690   12.2276   -0.0981 H   0  0  0  0  0  0  0  0  0  0  0  0
    0.1679   14.1194    1.3996 H   0  0  0  0  0  0  0  0  0  0  0  0
   -0.0425   15.4060    0.1638 H   0  0  0  0  0  0  0  0  0  0  0  0
   -1.1277   13.9745    0.1638 H   0  0  0  0  0  0  0  0  0  0  0  0
    2.5292   13.8939   -1.8564 H   0  0  0  0  0  0  0  0  0  0  0  0
    2.8765   14.9612    0.4635 H   0  0  0  0  0  0  0  0  0  0  0  0
    3.5589   15.7432   -1.0568 H   0  0  0  0  0  0  0  0  0  0  0  0
    2.4688   17.3726    0.7037 H   0  0  0  0  0  0  0  0  0  0  0  0
   -0.6344   16.2322   -1.6137 H   0  0  0  0  0  0  0  0  0  0  0  0
    1.0238   18.0993   -3.4195 H   0  0  0  0  0  0  0  0  0  0  0  0
   -0.5112   17.2298   -3.8645 H   0  0  0  0  0  0  0  0  0  0  0  0
   -0.9011   19.6219   -3.3660 H   0  0  0  0  0  0  0  0  0  0  0  0
   -1.7515   18.5141   -2.2190 H   0  0  0  0  0  0  0  0  0  0  0  0
   -0.7881   20.3247   -0.9700 H   0  0  0  0  0  0  0  0  0  0  0  0
    1.3170   19.8280   -2.7120 H   0  0  0  0  0  0  0  0  0  0  0  0
   -0.9456   18.2124    1.5833 H   0  0  0  0  0  0  0  0  0  0  0  0
   -1.8910   18.8460    0.1935 H   0  0  0  0  0  0  0  0  0  0  0  0
   -1.3276   17.1404    0.1935 H   0  0  0  0  0  0  0  0  0  0  0  0
    0.7331   19.0808    1.8659 H   0  0  0  0  0  0  0  0  0  0  0  0
    2.1233   19.1728    0.7321 H   0  0  0  0  0  0  0  0  0  0  0  0
    0.8771   20.4666    0.7321 H   0  0  0  0  0  0  0  0  0  0  0  0
    3.0757   16.1681   -2.9648 H   0  0  0  0  0  0  0  0  0  0  0  0
    2.4731   14.9629   -4.1527 H   0  0  0  0  0  0  0  0  0  0  0  0
    1.8109   16.6327   -4.1527 H   0  0  0  0  0  0  0  0  0  0  0  0
   -0.6474   15.1601   -3.8108 H   0  0  0  0  0  0  0  0  0  0  0  0
    0.6987   13.9039   -4.0195 H   0  0  0  0  0  0  0  0  0  0  0  0
   -1.4677   13.9576   -1.9001 H   0  0  0  0  0  0  0  0  0  0  0  0
   -1.2258   12.7649   -3.2363 H   0  0  0  0  0  0  0  0  0  0  0  0
    1.9024   11.2653   -1.9379 H   0  0  0  0  0  0  0  0  0  0  0  0
    0.6234   11.1312   -3.1920 H   0  0  0  0  0  0  0  0  0  0  0  0
    1.7370   12.5407   -3.1920 H   0  0  0  0  0  0  0  0  0  0  0  0
  1  2  1  0
  2  3  1  0
  3  4  1  0
  4  5  1  0
  5  6  1  0
  6  7  1  0
  7  8  1  0
  7  9  1  0
  2 10  1  0
 10 11  1  0
 11 12  1  0
 12 13  1  0
 13 14  1  1
 13 15  1  0
 15 16  1  0
 16 17  1  0
 17 18  2  0
 18 19  1  0
 19 20  1  0
 20 21  1  0
 21 22  1  0
 22 23  1  0
 22 24  1  0
 24 25  1  0
 24 26  1  0
 19 27  1  0
 27 28  1  6
 27 29  1  0
 29 30  1  0
 30 31  1  0
 31 32  1  6
  7  5  1  0
 31 10  1  0
 31 13  1  0
 27 15  1  0
 24 18  1  0
  1 33  1  0
  1 34  1  0
  1 35  1  0
  2 36  1  6
  3 37  1  0
  3 38  1  0
  4 39  1  0
  4 40  1  0
  5 41  1  6
  8 42  1  0
  8 43  1  0
  8 44  1  0
  9 45  1  0
  9 46  1  0
  9 47  1  0
 10 48  1  1
 11 49  1  0
 11 50  1  0
 12 51  1  0
 12 52  1  0
 14 53  1  0
 14 54  1  0
 14 55  1  0
 15 56  1  6
 16 57  1  0
 16 58  1  0
 17 59  1  0
 19 60  1  1
 20 61  1  0
 20 62  1  0
 21 63  1  0
 21 64  1  0
 22 65  1  1
 23 66  1  0
 25 67  1  0
 25 68  1  0
 25 69  1  0
 26 70  1  0
 26 71  1  0
 26 72  1  0
 28 73  1  0
 28 74  1  0
 28 75  1  0
 29 76  1  0
 29 77  1  0
 30 78  1  0
 30 79  1  0
 32 80  1  0
 32 81  1  0
 32 82  1  0
M  END
>  <meeko>  (6) 
{"is_sidechain": [false], "intermolecular_energy": 2.731, "internal_energy": -0.839}

$$$$
EPH_relaxed_0001_pdb2pqr_Repair_402_r2_0001_out
     RDKit          3D

 82 86  0  0  0  0  0  0  0  0999 V2000
   -5.1960    5.7860   -1.6170 C   0  0  0  0  0  0  0  0  0  0  0  0
   -5.4500    7.2910   -1.7400 C   0  0  2  0  0  0  0  0  0  0  0  0
   -5.2060    8.0320   -0.4100 C   0  0  0  0  0  0  0  0  0  0  0  0
   -4.1480    9.1340   -0.5050 C   0  0  0  0  0  0  0  0  0  0  0  0
   -2.8250    8.5960   -0.9600 C   0  0  2  0  0  0  0  0  0  0  0  0
   -1.7520    8.7760   -0.0260 O   0  0  0  0  0  0  0  0  0  0  0  0
   -1.6280    9.4730   -1.2760 C   0  0  0  0  0  0  0  0  0  0  0  0
   -1.6980   10.9630   -1.1510 C   0  0  0  0  0  0  0  0  0  0  0  0
   -0.5560    8.9280   -2.1670 C   0  0  0  0  0  0  0  0  0  0  0  0
   -6.8740    7.5400   -2.2220 C   0  0  1  0  0  0  0  0  0  0  0  0
   -7.1700    6.8680   -3.5880 C   0  0  0  0  0  0  0  0  0  0  0  0
   -8.6510    6.4110   -3.5520 C   0  0  0  0  0  0  0  0  0  0  0  0
   -9.2470    7.1210   -2.3140 C   0  0  1  0  0  0  0  0  0  0  0  0
   -9.5750    8.5680   -2.8020 C   0  0  0  0  0  0  0  0  0  0  0  0
  -10.4910    6.4380   -1.6580 C   0  0  2  0  0  0  0  0  0  0  0  0
  -11.7340    6.3400   -2.5600 C   0  0  0  0  0  0  0  0  0  0  0  0
  -12.6760    7.4950   -2.4770 C   0  0  0  0  0  0  0  0  0  0  0  0
  -12.6820    8.4300   -1.5090 C   0  0  0  0  0  0  0  0  0  0  0  0
  -11.7370    8.3260   -0.3060 C   0  0  1  0  0  0  0  0  0  0  0  0
  -12.5290    8.5950    1.0000 C   0  0  0  0  0  0  0  0  0  0  0  0
  -13.2820    9.9210    0.9640 C   0  0  0  0  0  0  0  0  0  0  0  0
  -14.2550    9.9640   -0.2120 C   0  0  2  0  0  0  0  0  0  0  0  0
  -15.2870    8.9980    0.0090 O   0  0  0  0  0  0  0  0  0  0  0  0
  -13.5720    9.6960   -1.5820 C   0  0  0  0  0  0  0  0  0  0  0  0
  -12.6730   10.9000   -1.9600 C   0  0  0  0  0  0  0  0  0  0  0  0
  -14.6830    9.6270   -2.6640 C   0  0  0  0  0  0  0  0  0  0  0  0
  -10.8600    7.0020   -0.2260 C   0  0  1  0  0  0  0  0  0  0  0  0
  -11.6590    5.8780    0.5030 C   0  0  0  0  0  0  0  0  0  0  0  0
   -9.5850    7.2830    0.6530 C   0  0  0  0  0  0  0  0  0  0  0  0
   -8.3490    7.8450   -0.0740 C   0  0  0  0  0  0  0  0  0  0  0  0
   -8.0280    7.0230   -1.3260 C   0  0  2  0  0  0  0  0  0  0  0  0
   -7.6730    5.5680   -0.8660 C   0  0  0  0  0  0  0  0  0  0  0  0
   -5.1490    5.5078   -0.5538 H   0  0  0  0  0  0  0  0  0  0  0  0
   -6.0139    5.2351   -2.1044 H   0  0  0  0  0  0  0  0  0  0  0  0
   -4.2426    5.5340   -2.1044 H   0  0  0  0  0  0  0  0  0  0  0  0
   -4.7343    7.6884   -2.4747 H   0  0  0  0  0  0  0  0  0  0  0  0
   -6.1538    8.4874   -0.0872 H   0  0  0  0  0  0  0  0  0  0  0  0
   -4.8318    7.2880    0.3086 H   0  0  0  0  0  0  0  0  0  0  0  0
   -4.4892    9.8946   -1.2227 H   0  0  0  0  0  0  0  0  0  0  0  0
   -4.0149    9.5682    0.4969 H   0  0  0  0  0  0  0  0  0  0  0  0
   -3.3202    7.7923   -1.5247 H   0  0  0  0  0  0  0  0  0  0  0  0
   -1.7111   11.2415   -0.0869 H   0  0  0  0  0  0  0  0  0  0  0  0
   -0.8200   11.4134   -1.6371 H   0  0  0  0  0  0  0  0  0  0  0  0
   -2.6143   11.3291   -1.6371 H   0  0  0  0  0  0  0  0  0  0  0  0
    0.2570    8.5147   -1.5520 H   0  0  0  0  0  0  0  0  0  0  0  0
   -0.9756    8.1338   -2.8019 H   0  0  0  0  0  0  0  0  0  0  0  0
   -0.1615    9.7350   -2.8019 H   0  0  0  0  0  0  0  0  0  0  0  0
   -6.8728    8.6399   -2.2381 H   0  0  0  0  0  0  0  0  0  0  0  0
   -7.0158    7.5879   -4.4053 H   0  0  0  0  0  0  0  0  0  0  0  0
   -6.4981    6.0145   -3.7613 H   0  0  0  0  0  0  0  0  0  0  0  0
   -9.1757    6.7210   -4.4678 H   0  0  0  0  0  0  0  0  0  0  0  0
   -8.7492    5.3169   -3.4936 H   0  0  0  0  0  0  0  0  0  0  0  0
   -9.7236    9.2237   -1.9314 H   0  0  0  0  0  0  0  0  0  0  0  0
   -8.7403    8.9482   -3.4091 H   0  0  0  0  0  0  0  0  0  0  0  0
  -10.4921    8.5511   -3.4091 H   0  0  0  0  0  0  0  0  0  0  0  0
  -10.1435    5.4042   -1.5150 H   0  0  0  0  0  0  0  0  0  0  0  0
  -11.3918    6.2550   -3.6019 H   0  0  0  0  0  0  0  0  0  0  0  0
  -12.2968    5.4630   -2.2076 H   0  0  0  0  0  0  0  0  0  0  0  0
  -13.4284    7.5899   -3.2738 H   0  0  0  0  0  0  0  0  0  0  0  0
  -10.9763    9.1077   -0.4485 H   0  0  0  0  0  0  0  0  0  0  0  0
  -13.2545    7.7812    1.1465 H   0  0  0  0  0  0  0  0  0  0  0  0
  -11.8044    8.6445    1.8261 H   0  0  0  0  0  0  0  0  0  0  0  0
  -13.8448   10.0410    1.9015 H   0  0  0  0  0  0  0  0  0  0  0  0
  -12.5526   10.7360    0.8463 H   0  0  0  0  0  0  0  0  0  0  0  0
  -14.6682   10.9822   -0.2621 H   0  0  0  0  0  0  0  0  0  0  0  0
  -15.8760    9.0150   -0.7640 H   0  0  0  0  0  0  0  0  0  0  0  0
  -12.3089   11.3877   -1.0437 H   0  0  0  0  0  0  0  0  0  0  0  0
  -11.8163   10.5462   -2.5523 H   0  0  0  0  0  0  0  0  0  0  0  0
  -13.2556   11.6209   -2.5523 H   0  0  0  0  0  0  0  0  0  0  0  0
  -15.6669    9.5659   -2.1759 H   0  0  0  0  0  0  0  0  0  0  0  0
  -14.6404   10.5295   -3.2914 H   0  0  0  0  0  0  0  0  0  0  0  0
  -14.5290    8.7367   -3.2914 H   0  0  0  0  0  0  0  0  0  0  0  0
  -11.5660    6.0088    1.5912 H   0  0  0  0  0  0  0  0  0  0  0  0
  -12.7193    5.9366    0.2159 H   0  0  0  0  0  0  0  0  0  0  0  0
  -11.2552    4.8959    0.2159 H   0  0  0  0  0  0  0  0  0  0  0  0
   -9.8704    8.0061    1.4313 H   0  0  0  0  0  0  0  0  0  0  0  0
   -9.2732    6.2978    1.0301 H   0  0  0  0  0  0  0  0  0  0  0  0
   -8.5472    8.8862   -0.3683 H   0  0  0  0  0  0  0  0  0  0  0  0
   -7.4879    7.7949    0.6086 H   0  0  0  0  0  0  0  0  0  0  0  0
   -7.6621    5.5233    0.2330 H   0  0  0  0  0  0  0  0  0  0  0  0
   -8.4264    4.8667   -1.2540 H   0  0  0  0  0  0  0  0  0  0  0  0
   -6.6813    5.2925   -1.2540 H   0  0  0  0  0  0  0  0  0  0  0  0
  1  2  1  0
  2  3  1  0
  3  4  1  0
  4  5  1  0
  5  6  1  0
  6  7  1  0
  7  8  1  0
  7  9  1  0
  2 10  1  0
 10 11  1  0
 11 12  1  0
 12 13  1  0
 13 14  1  6
 13 15  1  0
 15 16  1  0
 16 17  1  0
 17 18  2  0
 18 19  1  0
 19 20  1  0
 20 21  1  0
 21 22  1  0
 22 23  1  0
 22 24  1  0
 24 25  1  0
 24 26  1  0
 19 27  1  0
 27 28  1  1
 27 29  1  0
 29 30  1  0
 30 31  1  0
 31 32  1  1
  7  5  1  0
 31 10  1  0
 31 13  1  0
 27 15  1  0
 24 18  1  0
  1 33  1  0
  1 34  1  0
  1 35  1  0
  2 36  1  6
  3 37  1  0
  3 38  1  0
  4 39  1  0
  4 40  1  0
  5 41  1  6
  8 42  1  0
  8 43  1  0
  8 44  1  0
  9 45  1  0
  9 46  1  0
  9 47  1  0
 10 48  1  6
 11 49  1  0
 11 50  1  0
 12 51  1  0
 12 52  1  0
 14 53  1  0
 14 54  1  0
 14 55  1  0
 15 56  1  1
 16 57  1  0
 16 58  1  0
 17 59  1  0
 19 60  1  6
 20 61  1  0
 20 62  1  0
 21 63  1  0
 21 64  1  0
 22 65  1  6
 23 66  1  0
 25 67  1  0
 25 68  1  0
 25 69  1  0
 26 70  1  0
 26 71  1  0
 26 72  1  0
 28 73  1  0
 28 74  1  0
 28 75  1  0
 29 76  1  0
 29 77  1  0
 30 78  1  0
 30 79  1  0
 32 80  1  0
 32 81  1  0
 32 82  1  0
M  END
>  <meeko>  (7) 
{"is_sidechain": [false], "intermolecular_energy": 2.731, "internal_energy": -0.839}

$$$$
EPH_relaxed_0001_pdb2pqr_Repair_402_r2_0001_out
     RDKit          3D

 82 86  0  0  0  0  0  0  0  0999 V2000
    2.9950   12.3420   -5.5950 C   0  0  0  0  0  0  0  0  0  0  0  0
    1.6020   12.9740   -5.5300 C   0  0  2  0  0  0  0  0  0  0  0  0
    1.5640   14.3650   -6.1940 C   0  0  0  0  0  0  0  0  0  0  0  0
    0.5670   14.4680   -7.3510 C   0  0  0  0  0  0  0  0  0  0  0  0
    0.6570   15.7940   -8.0440 C   0  0  2  0  0  0  0  0  0  0  0  0
    0.2230   15.7860   -9.4110 O   0  0  0  0  0  0  0  0  0  0  0  0
    1.6130   16.0770   -9.1880 C   0  0  0  0  0  0  0  0  0  0  0  0
    2.5450   15.0260   -9.7040 C   0  0  0  0  0  0  0  0  0  0  0  0
    1.9840   17.4980   -9.4750 C   0  0  0  0  0  0  0  0  0  0  0  0
    1.1450   13.0760   -4.0790 C   0  0  1  0  0  0  0  0  0  0  0  0
   -0.2760   13.6830   -3.9420 C   0  0  0  0  0  0  0  0  0  0  0  0
   -0.9520   12.9730   -2.7410 C   0  0  0  0  0  0  0  0  0  0  0  0
    0.2020   12.2300   -2.0280 C   0  0  1  0  0  0  0  0  0  0  0  0
    0.9000   13.3190   -1.1530 C   0  0  0  0  0  0  0  0  0  0  0  0
   -0.2010   10.9800   -1.1800 C   0  0  2  0  0  0  0  0  0  0  0  0
   -1.1350   11.2700    0.0080 C   0  0  0  0  0  0  0  0  0  0  0  0
   -0.4490   11.5740    1.2990 C   0  0  0  0  0  0  0  0  0  0  0  0
    0.8480   11.3370    1.5700 C   0  0  0  0  0  0  0  0  0  0  0  0
    1.7450   10.6130    0.5570 C   0  0  1  0  0  0  0  0  0  0  0  0
    2.5650    9.5150    1.2840 C   0  0  0  0  0  0  0  0  0  0  0  0
    3.3500   10.0620    2.4730 C   0  0  0  0  0  0  0  0  0  0  0  0
    2.4180   10.7220    3.4850 C   0  0  2  0  0  0  0  0  0  0  0  0
    1.5840    9.7150    4.0680 O   0  0  0  0  0  0  0  0  0  0  0  0
    1.5330   11.8390    2.8650 C   0  0  0  0  0  0  0  0  0  0  0  0
    2.4130   13.0620    2.5070 C   0  0  0  0  0  0  0  0  0  0  0  0
    0.5410   12.3240    3.9570 C   0  0  0  0  0  0  0  0  0  0  0  0
    1.0190   10.0690   -0.7480 C   0  0  1  0  0  0  0  0  0  0  0  0
    0.4400    8.6460   -0.4810 C   0  0  0  0  0  0  0  0  0  0  0  0
    2.0820    9.9080   -1.8980 C   0  0  0  0  0  0  0  0  0  0  0  0
    2.3490   11.1450   -2.7760 C   0  0  0  0  0  0  0  0  0  0  0  0
    1.0360   11.7570   -3.2740 C   0  0  2  0  0  0  0  0  0  0  0  0
    0.3220   10.6930   -4.1750 C   0  0  0  0  0  0  0  0  0  0  0  0
    3.3687   12.1725   -4.5744 H   0  0  0  0  0  0  0  0  0  0  0  0
    2.9375   11.3818   -6.1286 H   0  0  0  0  0  0  0  0  0  0  0  0
    3.6796   13.0176   -6.1286 H   0  0  0  0  0  0  0  0  0  0  0  0
    0.9160   12.3222   -6.0908 H   0  0  0  0  0  0  0  0  0  0  0  0
    1.2875   15.1068   -5.4303 H   0  0  0  0  0  0  0  0  0  0  0  0
    2.5640   14.5478   -6.6143 H   0  0  0  0  0  0  0  0  0  0  0  0
    0.7809   13.6706   -8.0779 H   0  0  0  0  0  0  0  0  0  0  0  0
   -0.4478   14.3644   -6.9394 H   0  0  0  0  0  0  0  0  0  0  0  0
    0.4548   16.3262   -7.1028 H   0  0  0  0  0  0  0  0  0  0  0  0
    3.0106   14.5009   -8.8569 H   0  0  0  0  0  0  0  0  0  0  0  0
    1.9827   14.3064  -10.3172 H   0  0  0  0  0  0  0  0  0  0  0  0
    3.3267   15.4982  -10.3172 H   0  0  0  0  0  0  0  0  0  0  0  0
    2.1252   18.0386   -8.5275 H   0  0  0  0  0  0  0  0  0  0  0  0
    2.9188   17.5231  -10.0542 H   0  0  0  0  0  0  0  0  0  0  0  0
    1.1808   17.9768  -10.0542 H   0  0  0  0  0  0  0  0  0  0  0  0
    1.9560   13.6985   -3.6731 H   0  0  0  0  0  0  0  0  0  0  0  0
   -0.2093   14.7647   -3.7539 H   0  0  0  0  0  0  0  0  0  0  0  0
   -0.8576   13.5387   -4.8644 H   0  0  0  0  0  0  0  0  0  0  0  0
   -1.4163   13.7076   -2.0666 H   0  0  0  0  0  0  0  0  0  0  0  0
   -1.7551   12.2911   -3.0573 H   0  0  0  0  0  0  0  0  0  0  0  0
    0.7503   13.0855   -0.0885 H   0  0  0  0  0  0  0  0  0  0  0  0
    1.9768   13.3346   -1.3771 H   0  0  0  0  0  0  0  0  0  0  0  0
    0.4645   14.3040   -1.3771 H   0  0  0  0  0  0  0  0  0  0  0  0
   -0.7995   10.3945   -1.8934 H   0  0  0  0  0  0  0  0  0  0  0  0
   -1.7619   12.1346   -0.2556 H   0  0  0  0  0  0  0  0  0  0  0  0
   -1.7075   10.3462    0.1777 H   0  0  0  0  0  0  0  0  0  0  0  0
   -1.0547   12.0302    2.0959 H   0  0  0  0  0  0  0  0  0  0  0  0
    2.4230   11.3777    0.1502 H   0  0  0  0  0  0  0  0  0  0  0  0
    1.8736    8.7392    1.6447 H   0  0  0  0  0  0  0  0  0  0  0  0
    3.2901    9.1078    0.5639 H   0  0  0  0  0  0  0  0  0  0  0  0
    3.8849    9.2348    2.9624 H   0  0  0  0  0  0  0  0  0  0  0  0
    4.0613   10.8168    2.1066 H   0  0  0  0  0  0  0  0  0  0  0  0
    3.0470   11.2069    4.2461 H   0  0  0  0  0  0  0  0  0  0  0  0
    2.0780    9.3140    4.8030 H   0  0  0  0  0  0  0  0  0  0  0  0
    2.7614   13.5462    3.4312 H   0  0  0  0  0  0  0  0  0  0  0  0
    3.2804   12.7297    1.9177 H   0  0  0  0  0  0  0  0  0  0  0  0
    1.8223   13.7788    1.9177 H   0  0  0  0  0  0  0  0  0  0  0  0
    0.9619   12.1182    4.9522 H   0  0  0  0  0  0  0  0  0  0  0  0
    0.3737   13.4055    3.8461 H   0  0  0  0  0  0  0  0  0  0  0  0
   -0.4153   11.7918    3.8461 H   0  0  0  0  0  0  0  0  0  0  0  0
    0.3708    8.4759    0.6036 H   0  0  0  0  0  0  0  0  0  0  0  0
   -0.5615    8.5676   -0.9291 H   0  0  0  0  0  0  0  0  0  0  0  0
    1.1023    7.8906   -0.9291 H   0  0  0  0  0  0  0  0  0  0  0  0
    3.0354    9.6190   -1.4316 H   0  0  0  0  0  0  0  0  0  0  0  0
    1.6560    9.1577   -2.5803 H   0  0  0  0  0  0  0  0  0  0  0  0
    2.8943   11.8952   -2.1846 H   0  0  0  0  0  0  0  0  0  0  0  0
    2.9444   10.8350   -3.6474 H   0  0  0  0  0  0  0  0  0  0  0  0
   -0.1775    9.9486   -3.5375 H   0  0  0  0  0  0  0  0  0  0  0  0
   -0.4247   11.1921   -4.8101 H   0  0  0  0  0  0  0  0  0  0  0  0
    1.0669   10.1911   -4.8101 H   0  0  0  0  0  0  0  0  0  0  0  0
  1  2  1  0
  2  3  1  0
  3  4  1  0
  4  5  1  0
  5  6  1  0
  6  7  1  0
  7  8  1  0
  7  9  1  0
  2 10  1  0
 10 11  1  0
 11 12  1  0
 12 13  1  0
 13 14  1  1
 13 15  1  0
 15 16  1  0
 16 17  1  0
 17 18  2  0
 18 19  1  0
 19 20  1  0
 20 21  1  0
 21 22  1  0
 22 23  1  0
 22 24  1  0
 24 25  1  0
 24 26  1  0
 19 27  1  0
 27 28  1  1
 27 29  1  0
 29 30  1  0
 30 31  1  0
 31 32  1  6
  7  5  1  0
 31 10  1  0
 31 13  1  0
 27 15  1  0
 24 18  1  0
  1 33  1  0
  1 34  1  0
  1 35  1  0
  2 36  1  6
  3 37  1  0
  3 38  1  0
  4 39  1  0
  4 40  1  0
  5 41  1  1
  8 42  1  0
  8 43  1  0
  8 44  1  0
  9 45  1  0
  9 46  1  0
  9 47  1  0
 10 48  1  1
 11 49  1  0
 11 50  1  0
 12 51  1  0
 12 52  1  0
 14 53  1  0
 14 54  1  0
 14 55  1  0
 15 56  1  6
 16 57  1  0
 16 58  1  0
 17 59  1  0
 19 60  1  6
 20 61  1  0
 20 62  1  0
 21 63  1  0
 21 64  1  0
 22 65  1  1
 23 66  1  0
 25 67  1  0
 25 68  1  0
 25 69  1  0
 26 70  1  0
 26 71  1  0
 26 72  1  0
 28 73  1  0
 28 74  1  0
 28 75  1  0
 29 76  1  0
 29 77  1  0
 30 78  1  0
 30 79  1  0
 32 80  1  0
 32 81  1  0
 32 82  1  0
M  END
>  <meeko>  (8) 
{"is_sidechain": [false], "intermolecular_energy": 2.731, "internal_energy": -0.839}

$$$$
EPH_relaxed_0001_pdb2pqr_Repair_402_r2_0001_out
     RDKit          3D

 82 86  0  0  0  0  0  0  0  0999 V2000
    0.4140    8.8670   -2.5470 C   0  0  0  0  0  0  0  0  0  0  0  0
    1.1810   10.0270   -3.1870 C   0  0  2  0  0  0  0  0  0  0  0  0
    2.6720   10.0260   -2.7940 C   0  0  0  0  0  0  0  0  0  0  0  0
    3.5910   10.6190   -3.8650 C   0  0  0  0  0  0  0  0  0  0  0  0
    4.9760   10.8500   -3.3410 C   0  0  2  0  0  0  0  0  0  0  0  0
    5.5950   12.0590   -3.7980 O   0  0  0  0  0  0  0  0  0  0  0  0
    6.2160   10.8330   -4.2160 C   0  0  0  0  0  0  0  0  0  0  0  0
    6.1280   10.5770   -5.6880 C   0  0  0  0  0  0  0  0  0  0  0  0
    7.5430   10.5790   -3.5710 C   0  0  0  0  0  0  0  0  0  0  0  0
    0.5400   11.3530   -2.7940 C   0  0  1  0  0  0  0  0  0  0  0  0
   -0.8380   11.1690   -2.1030 C   0  0  0  0  0  0  0  0  0  0  0  0
   -0.9550   12.2880   -1.0360 C   0  0  0  0  0  0  0  0  0  0  0  0
    0.1940   13.2680   -1.3700 C   0  0  1  0  0  0  0  0  0  0  0  0
   -0.3560   14.1480   -2.5360 C   0  0  0  0  0  0  0  0  0  0  0  0
    0.7220   14.1420   -0.1860 C   0  0  2  0  0  0  0  0  0  0  0  0
   -0.3100   15.1060    0.4250 C   0  0  0  0  0  0  0  0  0  0  0  0
   -0.3550   16.4660   -0.1900 C   0  0  0  0  0  0  0  0  0  0  0  0
    0.5870   16.9910   -0.9940 C   0  0  0  0  0  0  0  0  0  0  0  0
    1.8900   16.2340   -1.2820 C   0  0  1  0  0  0  0  0  0  0  0  0
    3.0950   17.1990   -1.1320 C   0  0  0  0  0  0  0  0  0  0  0  0
    2.9490   18.4540   -1.9870 C   0  0  0  0  0  0  0  0  0  0  0  0
    1.6720   19.2110   -1.6310 C   0  0  2  0  0  0  0  0  0  0  0  0
    1.7960   19.7240   -0.3010 O   0  0  0  0  0  0  0  0  0  0  0  0
    0.3920   18.3360   -1.7370 C   0  0  0  0  0  0  0  0  0  0  0  0
    0.0910   18.0310   -3.2250 C   0  0  0  0  0  0  0  0  0  0  0  0
   -0.8050   19.1770   -1.2160 C   0  0  0  0  0  0  0  0  0  0  0  0
    2.0930   14.8750   -0.4830 C   0  0  1  0  0  0  0  0  0  0  0  0
    2.7510   15.1650    0.9000 C   0  0  0  0  0  0  0  0  0  0  0  0
    3.1020   13.9600   -1.2720 C   0  0  0  0  0  0  0  0  0  0  0  0
    2.5040   13.0320   -2.3470 C   0  0  0  0  0  0  0  0  0  0  0  0
    1.3120   12.2470   -1.7910 C   0  0  2  0  0  0  0  0  0  0  0  0
    1.8380   11.3350   -0.6310 C   0  0  0  0  0  0  0  0  0  0  0  0
    0.4694    8.9508   -1.4516 H   0  0  0  0  0  0  0  0  0  0  0  0
   -0.6385    8.9037   -2.8648 H   0  0  0  0  0  0  0  0  0  0  0  0
    0.8599    7.9130   -2.8648 H   0  0  0  0  0  0  0  0  0  0  0  0
    1.1277    9.8963   -4.2779 H   0  0  0  0  0  0  0  0  0  0  0  0
    2.7885   10.6144   -1.8719 H   0  0  0  0  0  0  0  0  0  0  0  0
    2.9689    8.9751   -2.6616 H   0  0  0  0  0  0  0  0  0  0  0  0
    3.6430    9.9230   -4.7152 H   0  0  0  0  0  0  0  0  0  0  0  0
    3.1753   11.5892   -4.1746 H   0  0  0  0  0  0  0  0  0  0  0  0
    4.7304   10.3370   -2.3994 H   0  0  0  0  0  0  0  0  0  0  0  0
    5.7749    9.5497   -5.8610 H   0  0  0  0  0  0  0  0  0  0  0  0
    5.4229   11.2885   -6.1424 H   0  0  0  0  0  0  0  0  0  0  0  0
    7.1216   10.7046   -6.1424 H   0  0  0  0  0  0  0  0  0  0  0  0
    7.4292   10.6008   -2.4771 H   0  0  0  0  0  0  0  0  0  0  0  0
    7.9186    9.5927   -3.8810 H   0  0  0  0  0  0  0  0  0  0  0  0
    8.2563   11.3569   -3.8810 H   0  0  0  0  0  0  0  0  0  0  0  0
    0.5033   11.8392   -3.7800 H   0  0  0  0  0  0  0  0  0  0  0  0
   -1.6479   11.2632   -2.8414 H   0  0  0  0  0  0  0  0  0  0  0  0
   -0.9196   10.1734   -1.6425 H   0  0  0  0  0  0  0  0  0  0  0  0
   -1.9295   12.7931   -1.1084 H   0  0  0  0  0  0  0  0  0  0  0  0
   -0.8836   11.8957   -0.0108 H   0  0  0  0  0  0  0  0  0  0  0  0
   -0.8958   15.0117   -2.1204 H   0  0  0  0  0  0  0  0  0  0  0  0
    0.4817   14.5023   -3.1546 H   0  0  0  0  0  0  0  0  0  0  0  0
   -1.0415   13.5502   -3.1546 H   0  0  0  0  0  0  0  0  0  0  0  0
    0.9236   13.3897    0.5908 H   0  0  0  0  0  0  0  0  0  0  0  0
   -1.3057   14.6510    0.3170 H   0  0  0  0  0  0  0  0  0  0  0  0
   -0.0048   15.2552    1.4712 H   0  0  0  0  0  0  0  0  0  0  0  0
   -1.2322   17.0910    0.0332 H   0  0  0  0  0  0  0  0  0  0  0  0
    1.8168   15.8890   -2.3239 H   0  0  0  0  0  0  0  0  0  0  0  0
    3.1776   17.4987   -0.0769 H   0  0  0  0  0  0  0  0  0  0  0  0
    3.9946   16.6655   -1.4727 H   0  0  0  0  0  0  0  0  0  0  0  0
    3.8157   19.1093   -1.8155 H   0  0  0  0  0  0  0  0  0  0  0  0
    2.8966   18.1546   -3.0442 H   0  0  0  0  0  0  0  0  0  0  0  0
    1.5563   20.0254   -2.3613 H   0  0  0  0  0  0  0  0  0  0  0  0
    1.5670   19.0070    0.3140 H   0  0  0  0  0  0  0  0  0  0  0  0
   -0.6803   17.2494   -3.2903 H   0  0  0  0  0  0  0  0  0  0  0  0
   -0.2695   18.9443   -3.7208 H   0  0  0  0  0  0  0  0  0  0  0  0
    1.0090   17.6826   -3.7208 H   0  0  0  0  0  0  0  0  0  0  0  0
   -0.8029   19.1755   -0.1160 H   0  0  0  0  0  0  0  0  0  0  0  0
   -0.7137   20.2105   -1.5815 H   0  0  0  0  0  0  0  0  0  0  0  0
   -1.7463   18.7407   -1.5815 H   0  0  0  0  0  0  0  0  0  0  0  0
    2.0638   14.8621    1.7037 H   0  0  0  0  0  0  0  0  0  0  0  0
    3.6890   14.5969    0.9861 H   0  0  0  0  0  0  0  0  0  0  0  0
    2.9646   16.2406    0.9861 H   0  0  0  0  0  0  0  0  0  0  0  0
    3.8300   14.6184   -1.7684 H   0  0  0  0  0  0  0  0  0  0  0  0
    3.5307   13.2857   -0.5159 H   0  0  0  0  0  0  0  0  0  0  0  0
    2.1685   13.6393   -3.2006 H   0  0  0  0  0  0  0  0  0  0  0  0
    3.2779   12.3174   -2.6639 H   0  0  0  0  0  0  0  0  0  0  0  0
    1.5774   11.7868    0.3375 H   0  0  0  0  0  0  0  0  0  0  0  0
    1.3749   10.3402   -0.7080 H   0  0  0  0  0  0  0  0  0  0  0  0
    2.9310   11.2376   -0.7080 H   0  0  0  0  0  0  0  0  0  0  0  0
  1  2  1  0
  2  3  1  0
  3  4  1  0
  4  5  1  0
  5  6  1  0
  6  7  1  0
  7  8  1  0
  7  9  1  0
  2 10  1  0
 10 11  1  0
 11 12  1  0
 12 13  1  0
 13 14  1  6
 13 15  1  0
 15 16  1  0
 16 17  1  0
 17 18  2  0
 18 19  1  0
 19 20  1  0
 20 21  1  0
 21 22  1  0
 22 23  1  0
 22 24  1  0
 24 25  1  0
 24 26  1  0
 19 27  1  0
 27 28  1  1
 27 29  1  0
 29 30  1  0
 30 31  1  0
 31 32  1  1
  7  5  1  0
 31 10  1  0
 31 13  1  0
 27 15  1  0
 24 18  1  0
  1 33  1  0
  1 34  1  0
  1 35  1  0
  2 36  1  6
  3 37  1  0
  3 38  1  0
  4 39  1  0
  4 40  1  0
  5 41  1  1
  8 42  1  0
  8 43  1  0
  8 44  1  0
  9 45  1  0
  9 46  1  0
  9 47  1  0
 10 48  1  6
 11 49  1  0
 11 50  1  0
 12 51  1  0
 12 52  1  0
 14 53  1  0
 14 54  1  0
 14 55  1  0
 15 56  1  1
 16 57  1  0
 16 58  1  0
 17 59  1  0
 19 60  1  6
 20 61  1  0
 20 62  1  0
 21 63  1  0
 21 64  1  0
 22 65  1  6
 23 66  1  0
 25 67  1  0
 25 68  1  0
 25 69  1  0
 26 70  1  0
 26 71  1  0
 26 72  1  0
 28 73  1  0
 28 74  1  0
 28 75  1  0
 29 76  1  0
 29 77  1  0
 30 78  1  0
 30 79  1  0
 32 80  1  0
 32 81  1  0
 32 82  1  0
M  END
>  <meeko>  (9) 
{"is_sidechain": [false], "intermolecular_energy": 2.731, "internal_energy": -0.839}

$$$$
EPH_relaxed_0001_pdb2pqr_Repair_402_r2_0001_out
     RDKit          3D

 82 86  0  0  0  0  0  0  0  0999 V2000
   -1.1520   16.1200   -5.5060 C   0  0  0  0  0  0  0  0  0  0  0  0
    0.0460   15.4250   -6.1590 C   0  0  2  0  0  0  0  0  0  0  0  0
   -0.2390   15.0290   -7.6210 C   0  0  0  0  0  0  0  0  0  0  0  0
    0.1740   16.0950   -8.6390 C   0  0  0  0  0  0  0  0  0  0  0  0
    1.6030   15.9330   -9.0630 C   0  0  2  0  0  0  0  0  0  0  0  0
    1.9920   16.7420  -10.1800 O   0  0  0  0  0  0  0  0  0  0  0  0
    2.0190   15.3210  -10.3870 C   0  0  0  0  0  0  0  0  0  0  0  0
    1.0050   14.8310  -11.3730 C   0  0  0  0  0  0  0  0  0  0  0  0
    3.3990   14.7560  -10.5120 C   0  0  0  0  0  0  0  0  0  0  0  0
    0.4350   14.1920   -5.3510 C   0  0  1  0  0  0  0  0  0  0  0  0
    1.4590   13.2910   -6.0920 C   0  0  0  0  0  0  0  0  0  0  0  0
    2.3910   12.6900   -5.0090 C   0  0  0  0  0  0  0  0  0  0  0  0
    1.6790   12.9920   -3.6700 C   0  0  1  0  0  0  0  0  0  0  0  0
    0.5930   11.8790   -3.5330 C   0  0  0  0  0  0  0  0  0  0  0  0
    2.5920   13.0670   -2.4030 C   0  0  2  0  0  0  0  0  0  0  0  0
    3.3270   11.7620   -2.0510 C   0  0  0  0  0  0  0  0  0  0  0  0
    2.5950   10.8480   -1.1240 C   0  0  0  0  0  0  0  0  0  0  0  0
    1.5310   11.1850   -0.3720 C   0  0  0  0  0  0  0  0  0  0  0  0
    1.0180   12.6310   -0.3370 C   0  0  1  0  0  0  0  0  0  0  0  0
    0.7600   13.0520    1.1340 C   0  0  0  0  0  0  0  0  0  0  0  0
   -0.1670   12.0860    1.8650 C   0  0  0  0  0  0  0  0  0  0  0  0
    0.4050   10.6710    1.8590 C   0  0  2  0  0  0  0  0  0  0  0  0
    1.5990   10.6530    2.6480 O   0  0  0  0  0  0  0  0  0  0  0  0
    0.7150   10.1420    0.4300 C   0  0  0  0  0  0  0  0  0  0  0  0
   -0.6110    9.8760   -0.3250 C   0  0  0  0  0  0  0  0  0  0  0  0
    1.4170    8.7650    0.5730 C   0  0  0  0  0  0  0  0  0  0  0  0
    1.8890   13.6950   -1.1330 C   0  0  1  0  0  0  0  0  0  0  0  0
    3.0270   14.2420   -0.2180 C   0  0  0  0  0  0  0  0  0  0  0  0
    0.9830   14.9290   -1.5000 C   0  0  0  0  0  0  0  0  0  0  0  0
    0.1970   14.8460   -2.8230 C   0  0  0  0  0  0  0  0  0  0  0  0
    1.1120   14.4260   -3.9780 C   0  0  2  0  0  0  0  0  0  0  0  0
    2.2010   15.5380   -4.1540 C   0  0  0  0  0  0  0  0  0  0  0  0
   -1.0563   16.0645   -4.4116 H   0  0  0  0  0  0  0  0  0  0  0  0
   -1.1795   17.1743   -5.8187 H   0  0  0  0  0  0  0  0  0  0  0  0
   -2.0808   15.6205   -5.8187 H   0  0  0  0  0  0  0  0  0  0  0  0
    0.8804   16.1418   -6.1682 H   0  0  0  0  0  0  0  0  0  0  0  0
    0.3125   14.1037   -7.8440 H   0  0  0  0  0  0  0  0  0  0  0  0
   -1.3277   14.9013   -7.7131 H   0  0  0  0  0  0  0  0  0  0  0  0
   -0.4724   16.0111   -9.5251 H   0  0  0  0  0  0  0  0  0  0  0  0
    0.0669   17.0817   -8.1648 H   0  0  0  0  0  0  0  0  0  0  0  0
    1.9112   15.7294   -8.0269 H   0  0  0  0  0  0  0  0  0  0  0  0
    0.1415   14.4137  -10.8342 H   0  0  0  0  0  0  0  0  0  0  0  0
    0.6734   15.6683  -12.0047 H   0  0  0  0  0  0  0  0  0  0  0  0
    1.4549   14.0509  -12.0047 H   0  0  0  0  0  0  0  0  0  0  0  0
    3.8173   14.5847   -9.5092 H   0  0  0  0  0  0  0  0  0  0  0  0
    3.3568   13.8028  -11.0594 H   0  0  0  0  0  0  0  0  0  0  0  0
    4.0374   15.4651  -11.0594 H   0  0  0  0  0  0  0  0  0  0  0  0
   -0.5594   13.7438   -5.2084 H   0  0  0  0  0  0  0  0  0  0  0  0
    0.9361   12.4869   -6.6305 H   0  0  0  0  0  0  0  0  0  0  0  0
    2.0331   13.8700   -6.8304 H   0  0  0  0  0  0  0  0  0  0  0  0
    2.5041   11.6053   -5.1526 H   0  0  0  0  0  0  0  0  0  0  0  0
    3.4044   13.1160   -5.0478 H   0  0  0  0  0  0  0  0  0  0  0  0
    0.4015   11.6827   -2.4677 H   0  0  0  0  0  0  0  0  0  0  0  0
   -0.3367   12.2122   -4.0174 H   0  0  0  0  0  0  0  0  0  0  0  0
    0.9490   10.9578   -4.0174 H   0  0  0  0  0  0  0  0  0  0  0  0
    3.3732   13.7749   -2.7170 H   0  0  0  0  0  0  0  0  0  0  0  0
    3.5173   11.2160   -2.9868 H   0  0  0  0  0  0  0  0  0  0  0  0
    4.2436   12.0620   -1.5219 H   0  0  0  0  0  0  0  0  0  0  0  0
    2.9561    9.8116   -1.0496 H   0  0  0  0  0  0  0  0  0  0  0  0
    0.0716   12.6326   -0.8976 H   0  0  0  0  0  0  0  0  0  0  0  0
    1.7228   13.0866    1.6649 H   0  0  0  0  0  0  0  0  0  0  0  0
    0.2706   14.0370    1.1184 H   0  0  0  0  0  0  0  0  0  0  0  0
   -0.2878   12.4210    2.9058 H   0  0  0  0  0  0  0  0  0  0  0  0
   -1.1387   12.0740    1.3495 H   0  0  0  0  0  0  0  0  0  0  0  0
   -0.3605   10.0037    2.2817 H   0  0  0  0  0  0  0  0  0  0  0  0
    2.2800   10.1790    2.1410 H   0  0  0  0  0  0  0  0  0  0  0  0
   -1.4206    9.7136    0.4018 H   0  0  0  0  0  0  0  0  0  0  0  0
   -0.8537   10.7433   -0.9565 H   0  0  0  0  0  0  0  0  0  0  0  0
   -0.5004    8.9821   -0.9565 H   0  0  0  0  0  0  0  0  0  0  0  0
    1.5394    8.5248    1.6395 H   0  0  0  0  0  0  0  0  0  0  0  0
    0.8044    7.9892    0.0904 H   0  0  0  0  0  0  0  0  0  0  0  0
    2.4047    8.8051    0.0904 H   0  0  0  0  0  0  0  0  0  0  0  0
    2.7461   14.1070    0.8369 H   0  0  0  0  0  0  0  0  0  0  0  0
    3.9579   13.6930   -0.4227 H   0  0  0  0  0  0  0  0  0  0  0  0
    3.1797   15.3119   -0.4227 H   0  0  0  0  0  0  0  0  0  0  0  0
    0.2533   15.0593   -0.6872 H   0  0  0  0  0  0  0  0  0  0  0  0
    1.6810   15.7688   -1.6326 H   0  0  0  0  0  0  0  0  0  0  0  0
   -0.6105   14.1067   -2.7163 H   0  0  0  0  0  0  0  0  0  0  0  0
   -0.2184   15.8395   -3.0476 H   0  0  0  0  0  0  0  0  0  0  0  0
    2.5375   15.8816   -3.1647 H   0  0  0  0  0  0  0  0  0  0  0  0
    3.0568   15.1283   -4.7105 H   0  0  0  0  0  0  0  0  0  0  0  0
    1.7735   16.3851   -4.7105 H   0  0  0  0  0  0  0  0  0  0  0  0
  1  2  1  0
  2  3  1  0
  3  4  1  0
  4  5  1  0
  5  6  1  0
  6  7  1  0
  7  8  1  0
  7  9  1  0
  2 10  1  0
 10 11  1  0
 11 12  1  0
 12 13  1  0
 13 14  1  1
 13 15  1  0
 15 16  1  0
 16 17  1  0
 17 18  2  0
 18 19  1  0
 19 20  1  0
 20 21  1  0
 21 22  1  0
 22 23  1  0
 22 24  1  0
 24 25  1  0
 24 26  1  0
 19 27  1  0
 27 28  1  1
 27 29  1  0
 29 30  1  0
 30 31  1  0
 31 32  1  6
  7  5  1  0
 31 10  1  0
 31 13  1  0
 27 15  1  0
 24 18  1  0
  1 33  1  0
  1 34  1  0
  1 35  1  0
  2 36  1  6
  3 37  1  0
  3 38  1  0
  4 39  1  0
  4 40  1  0
  5 41  1  1
  8 42  1  0
  8 43  1  0
  8 44  1  0
  9 45  1  0
  9 46  1  0
  9 47  1  0
 10 48  1  1
 11 49  1  0
 11 50  1  0
 12 51  1  0
 12 52  1  0
 14 53  1  0
 14 54  1  0
 14 55  1  0
 15 56  1  6
 16 57  1  0
 16 58  1  0
 17 59  1  0
 19 60  1  6
 20 61  1  0
 20 62  1  0
 21 63  1  0
 21 64  1  0
 22 65  1  1
 23 66  1  0
 25 67  1  0
 25 68  1  0
 25 69  1  0
 26 70  1  0
 26 71  1  0
 26 72  1  0
 28 73  1  0
 28 74  1  0
 28 75  1  0
 29 76  1  0
 29 77  1  0
 30 78  1  0
 30 79  1  0
 32 80  1  0
 32 81  1  0
 32 82  1  0
M  END
>  <meeko>  (10) 
{"is_sidechain": [false], "intermolecular_energy": 2.731, "internal_energy": -0.839}

$$$$
EPH_relaxed_0001_pdb2pqr_Repair_402_r2_0001_out
     RDKit          3D

 82 86  0  0  0  0  0  0  0  0999 V2000
    0.1690   17.7080   -2.4370 C   0  0  0  0  0  0  0  0  0  0  0  0
   -0.0800   16.8190   -1.2160 C   0  0  2  0  0  0  0  0  0  0  0  0
   -0.0960   17.6270    0.0970 C   0  0  0  0  0  0  0  0  0  0  0  0
    0.4360   19.0550   -0.0520 C   0  0  0  0  0  0  0  0  0  0  0  0
    1.5800   19.3200    0.8800 C   0  0  2  0  0  0  0  0  0  0  0  0
    2.5890   20.1930    0.3550 O   0  0  0  0  0  0  0  0  0  0  0  0
    2.9970   18.8420    0.6220 C   0  0  0  0  0  0  0  0  0  0  0  0
    3.3450   18.0570   -0.6040 C   0  0  0  0  0  0  0  0  0  0  0  0
    3.9300   18.7130    1.7850 C   0  0  0  0  0  0  0  0  0  0  0  0
    0.9810   15.7280   -1.1420 C   0  0  1  0  0  0  0  0  0  0  0  0
    1.1330   15.1360    0.2850 C   0  0  0  0  0  0  0  0  0  0  0  0
    1.4600   13.6310    0.1120 C   0  0  0  0  0  0  0  0  0  0  0  0
    1.8120   13.4770   -1.3860 C   0  0  1  0  0  0  0  0  0  0  0  0
    3.2970   13.9410   -1.4980 C   0  0  0  0  0  0  0  0  0  0  0  0
    1.6030   12.0550   -2.0020 C   0  0  2  0  0  0  0  0  0  0  0  0
    2.4710   10.9430   -1.3870 C   0  0  0  0  0  0  0  0  0  0  0  0
    3.7930   10.7280   -2.0460 C   0  0  0  0  0  0  0  0  0  0  0  0
    4.1490   11.1970   -3.2560 C   0  0  0  0  0  0  0  0  0  0  0  0
    3.1420   11.9480   -4.1370 C   0  0  1  0  0  0  0  0  0  0  0  0
    3.2130   11.4000   -5.5870 C   0  0  0  0  0  0  0  0  0  0  0  0
    4.6270   11.4340   -6.1570 C   0  0  0  0  0  0  0  0  0  0  0  0
    5.5870   10.6280   -5.2860 C   0  0  2  0  0  0  0  0  0  0  0  0
    5.2280    9.2450   -5.3620 O   0  0  0  0  0  0  0  0  0  0  0  0
    5.5950   11.0840   -3.8000 C   0  0  0  0  0  0  0  0  0  0  0  0
    6.2660   12.4750   -3.6860 C   0  0  0  0  0  0  0  0  0  0  0  0
    6.4950   10.1010   -3.0030 C   0  0  0  0  0  0  0  0  0  0  0  0
    1.6550   12.0200   -3.5830 C   0  0  1  0  0  0  0  0  0  0  0  0
    0.8600   10.7540   -4.0270 C   0  0  0  0  0  0  0  0  0  0  0  0
    0.9230   13.2540   -4.2330 C   0  0  0  0  0  0  0  0  0  0  0  0
    1.0690   14.6070   -3.5120 C   0  0  0  0  0  0  0  0  0  0  0  0
    0.7660   14.4670   -2.0170 C   0  0  2  0  0  0  0  0  0  0  0  0
   -0.7290   14.0220   -1.8710 C   0  0  0  0  0  0  0  0  0  0  0  0
    0.4518   18.7175   -2.1040 H   0  0  0  0  0  0  0  0  0  0  0  0
    0.9819   17.2804   -3.0422 H   0  0  0  0  0  0  0  0  0  0  0  0
   -0.7478   17.7649   -3.0422 H   0  0  0  0  0  0  0  0  0  0  0  0
   -1.0741   16.3636   -1.3361 H   0  0  0  0  0  0  0  0  0  0  0  0
   -1.1331   17.6790    0.4601 H   0  0  0  0  0  0  0  0  0  0  0  0
    0.5702   17.1079    0.8018 H   0  0  0  0  0  0  0  0  0  0  0  0
    0.7780   19.2019   -1.0871 H   0  0  0  0  0  0  0  0  0  0  0  0
   -0.3778   19.7521    0.1967 H   0  0  0  0  0  0  0  0  0  0  0  0
    0.9192   19.2315    1.7550 H   0  0  0  0  0  0  0  0  0  0  0  0
    3.7745   17.0881   -0.3094 H   0  0  0  0  0  0  0  0  0  0  0  0
    2.4370   17.8890   -1.2018 H   0  0  0  0  0  0  0  0  0  0  0  0
    4.0792   18.6170   -1.2018 H   0  0  0  0  0  0  0  0  0  0  0  0
    3.3602   18.7918    2.7226 H   0  0  0  0  0  0  0  0  0  0  0  0
    4.4348   17.7365    1.7436 H   0  0  0  0  0  0  0  0  0  0  0  0
    4.6808   19.5159    1.7436 H   0  0  0  0  0  0  0  0  0  0  0  0
    1.8521   16.2940   -1.5037 H   0  0  0  0  0  0  0  0  0  0  0  0
    1.9500   15.6421    0.8201 H   0  0  0  0  0  0  0  0  0  0  0  0
    0.2124   15.2754    0.8707 H   0  0  0  0  0  0  0  0  0  0  0  0
    2.3143   13.3444    0.7429 H   0  0  0  0  0  0  0  0  0  0  0  0
    0.6215   12.9852    0.4116 H   0  0  0  0  0  0  0  0  0  0  0  0
    3.7172   14.0723   -0.4899 H   0  0  0  0  0  0  0  0  0  0  0  0
    3.8784   13.1817   -2.0415 H   0  0  0  0  0  0  0  0  0  0  0  0
    3.3427   14.8962   -2.0415 H   0  0  0  0  0  0  0  0  0  0  0  0
    0.5682   11.8218   -1.7107 H   0  0  0  0  0  0  0  0  0  0  0  0
    2.6542   11.1986   -0.3329 H   0  0  0  0  0  0  0  0  0  0  0  0
    1.9080   10.0077   -1.5221 H   0  0  0  0  0  0  0  0  0  0  0  0
    4.5394   10.1361   -1.4960 H   0  0  0  0  0  0  0  0  0  0  0  0
    3.4518   13.0034   -4.1218 H   0  0  0  0  0  0  0  0  0  0  0  0
    2.8574   10.3591   -5.5883 H   0  0  0  0  0  0  0  0  0  0  0  0
    2.5832   12.0441   -6.2183 H   0  0  0  0  0  0  0  0  0  0  0  0
    4.6166   11.0074   -7.1708 H   0  0  0  0  0  0  0  0  0  0  0  0
    4.9698   12.4789   -6.1823 H   0  0  0  0  0  0  0  0  0  0  0  0
    6.6032   10.7966   -5.6720 H   0  0  0  0  0  0  0  0  0  0  0  0
    4.4390    9.1760   -5.9270 H   0  0  0  0  0  0  0  0  0  0  0  0
    6.3917   12.7356   -2.6247 H   0  0  0  0  0  0  0  0  0  0  0  0
    7.2504   12.4485   -4.1761 H   0  0  0  0  0  0  0  0  0  0  0  0
    5.6325   13.2290   -4.1761 H   0  0  0  0  0  0  0  0  0  0  0  0
    6.3481   10.2615   -1.9247 H   0  0  0  0  0  0  0  0  0  0  0  0
    6.2248    9.0661   -3.2599 H   0  0  0  0  0  0  0  0  0  0  0  0
    7.5497   10.2791   -3.2599 H   0  0  0  0  0  0  0  0  0  0  0  0
    0.5161   10.2063   -3.1372 H   0  0  0  0  0  0  0  0  0  0  0  0
   -0.0090   11.0590   -4.6285 H   0  0  0  0  0  0  0  0  0  0  0  0
    1.5122   10.1037   -4.6285 H   0  0  0  0  0  0  0  0  0  0  0  0
    1.3178   13.3759   -5.2524 H   0  0  0  0  0  0  0  0  0  0  0  0
   -0.1491   13.0136   -4.1794 H   0  0  0  0  0  0  0  0  0  0  0  0
    2.0989   14.9725   -3.6378 H   0  0  0  0  0  0  0  0  0  0  0  0
    0.3523   15.3171   -3.9502 H   0  0  0  0  0  0  0  0  0  0  0  0
   -0.9863   13.9454   -0.8043 H   0  0  0  0  0  0  0  0  0  0  0  0
   -1.3814   14.7649   -2.3531 H   0  0  0  0  0  0  0  0  0  0  0  0
   -0.8690   13.0432   -2.3531 H   0  0  0  0  0  0  0  0  0  0  0  0
  1  2  1  0
  2  3  1  0
  3  4  1  0
  4  5  1  0
  5  6  1  0
  6  7  1  0
  7  8  1  0
  7  9  1  0
  2 10  1  0
 10 11  1  0
 11 12  1  0
 12 13  1  0
 13 14  1  1
 13 15  1  0
 15 16  1  0
 16 17  1  0
 17 18  2  0
 18 19  1  0
 19 20  1  0
 20 21  1  0
 21 22  1  0
 22 23  1  0
 22 24  1  0
 24 25  1  0
 24 26  1  0
 19 27  1  0
 27 28  1  6
 27 29  1  0
 29 30  1  0
 30 31  1  0
 31 32  1  6
  7  5  1  0
 31 10  1  0
 31 13  1  0
 27 15  1  0
 24 18  1  0
  1 33  1  0
  1 34  1  0
  1 35  1  0
  2 36  1  6
  3 37  1  0
  3 38  1  0
  4 39  1  0
  4 40  1  0
  5 41  1  1
  8 42  1  0
  8 43  1  0
  8 44  1  0
  9 45  1  0
  9 46  1  0
  9 47  1  0
 10 48  1  6
 11 49  1  0
 11 50  1  0
 12 51  1  0
 12 52  1  0
 14 53  1  0
 14 54  1  0
 14 55  1  0
 15 56  1  6
 16 57  1  0
 16 58  1  0
 17 59  1  0
 19 60  1  6
 20 61  1  0
 20 62  1  0
 21 63  1  0
 21 64  1  0
 22 65  1  6
 23 66  1  0
 25 67  1  0
 25 68  1  0
 25 69  1  0
 26 70  1  0
 26 71  1  0
 26 72  1  0
 28 73  1  0
 28 74  1  0
 28 75  1  0
 29 76  1  0
 29 77  1  0
 30 78  1  0
 30 79  1  0
 32 80  1  0
 32 81  1  0
 32 82  1  0
M  END
>  <meeko>  (11) 
{"is_sidechain": [false], "intermolecular_energy": 2.731, "internal_energy": -0.839}

$$$$
EPH_relaxed_0001_pdb2pqr_Repair_402_r2_0001_out
     RDKit          3D

 82 86  0  0  0  0  0  0  0  0999 V2000
    2.3950   16.2760   -7.0240 C   0  0  0  0  0  0  0  0  0  0  0  0
    1.3970   15.1240   -6.8860 C   0  0  2  0  0  0  0  0  0  0  0  0
    0.1210   15.3570   -7.7200 C   0  0  0  0  0  0  0  0  0  0  0  0
    0.3800   16.0490   -9.0610 C   0  0  0  0  0  0  0  0  0  0  0  0
    1.7930   15.8540   -9.5210 C   0  0  2  0  0  0  0  0  0  0  0  0
    2.1470   16.5950  -10.6970 O   0  0  0  0  0  0  0  0  0  0  0  0
    2.1620   15.1630  -10.8210 C   0  0  0  0  0  0  0  0  0  0  0  0
    1.1130   14.6220  -11.7420 C   0  0  0  0  0  0  0  0  0  0  0  0
    3.5350   14.5840  -10.9590 C   0  0  0  0  0  0  0  0  0  0  0  0
    1.0310   14.9250   -5.4200 C   0  0  1  0  0  0  0  0  0  0  0  0
   -0.3050   15.6160   -5.0380 C   0  0  0  0  0  0  0  0  0  0  0  0
   -0.9910   14.7120   -3.9820 C   0  0  0  0  0  0  0  0  0  0  0  0
    0.1100   13.7150   -3.5490 C   0  0  1  0  0  0  0  0  0  0  0  0
    0.9690   14.4950   -2.5050 C   0  0  0  0  0  0  0  0  0  0  0  0
   -0.3840   12.3440   -2.9810 C   0  0  2  0  0  0  0  0  0  0  0  0
   -1.2160   12.4350   -1.6890 C   0  0  0  0  0  0  0  0  0  0  0  0
   -0.4330   12.3600   -0.4200 C   0  0  0  0  0  0  0  0  0  0  0  0
    0.8420   11.9420   -0.3110 C   0  0  0  0  0  0  0  0  0  0  0  0
    1.5980   11.3950   -1.5280 C   0  0  1  0  0  0  0  0  0  0  0  0
    2.3290   10.0830   -1.1370 C   0  0  0  0  0  0  0  0  0  0  0  0
    3.2310   10.2570    0.0800 C   0  0  0  0  0  0  0  0  0  0  0  0
    2.4320   10.7470    1.2860 C   0  0  2  0  0  0  0  0  0  0  0  0
    1.5240    9.7160    1.6860 O   0  0  0  0  0  0  0  0  0  0  0  0
    1.6450   12.0580    1.0080 C   0  0  0  0  0  0  0  0  0  0  0  0
    2.6360   13.2410    0.8710 C   0  0  0  0  0  0  0  0  0  0  0  0
    0.7730   12.3650    2.2550 C   0  0  0  0  0  0  0  0  0  0  0  0
    0.7480   11.2450   -2.8630 C   0  0  1  0  0  0  0  0  0  0  0  0
    0.0300    9.8620   -2.8840 C   0  0  0  0  0  0  0  0  0  0  0  0
    1.7240   11.2580   -4.0980 C   0  0  0  0  0  0  0  0  0  0  0  0
    2.0800   12.6350   -4.6890 C   0  0  0  0  0  0  0  0  0  0  0  0
    0.8190   13.4710   -4.9300 C   0  0  2  0  0  0  0  0  0  0  0  0
   -0.0550   12.7210   -5.9930 C   0  0  0  0  0  0  0  0  0  0  0  0
    2.6953   16.6227   -6.0242 H   0  0  0  0  0  0  0  0  0  0  0  0
    3.2823   15.9286   -7.5735 H   0  0  0  0  0  0  0  0  0  0  0  0
    1.9247   17.1048   -7.5735 H   0  0  0  0  0  0  0  0  0  0  0  0
    1.8842   14.2173   -7.2740 H   0  0  0  0  0  0  0  0  0  0  0  0
   -0.3478   14.3817   -7.9174 H   0  0  0  0  0  0  0  0  0  0  0  0
   -0.5285   16.0240   -7.1342 H   0  0  0  0  0  0  0  0  0  0  0  0
   -0.3018   15.6303   -9.8159 H   0  0  0  0  0  0  0  0  0  0  0  0
    0.2077   17.1274   -8.9296 H   0  0  0  0  0  0  0  0  0  0  0  0
    2.1354   15.7093   -8.4857 H   0  0  0  0  0  0  0  0  0  0  0  0
    0.2890   14.1971  -11.1499 H   0  0  0  0  0  0  0  0  0  0  0  0
    0.7279   15.4340  -12.3764 H   0  0  0  0  0  0  0  0  0  0  0  0
    1.5513   13.8375  -12.3764 H   0  0  0  0  0  0  0  0  0  0  0  0
    3.9595   14.4050   -9.9601 H   0  0  0  0  0  0  0  0  0  0  0  0
    3.4784   13.6331  -11.5091 H   0  0  0  0  0  0  0  0  0  0  0  0
    4.1763   15.2883  -11.5091 H   0  0  0  0  0  0  0  0  0  0  0  0
    1.9270   15.3541   -4.9477 H   0  0  0  0  0  0  0  0  0  0  0  0
   -0.1086   16.6117   -4.6138 H   0  0  0  0  0  0  0  0  0  0  0  0
   -0.9473   15.7486   -5.9211 H   0  0  0  0  0  0  0  0  0  0  0  0
   -1.3342   15.3086   -3.1239 H   0  0  0  0  0  0  0  0  0  0  0  0
   -1.8807   14.2037   -4.3821 H   0  0  0  0  0  0  0  0  0  0  0  0
    0.6572   14.2119   -1.4888 H   0  0  0  0  0  0  0  0  0  0  0  0
    2.0313   14.2465   -2.6452 H   0  0  0  0  0  0  0  0  0  0  0  0
    0.8238   15.5763   -2.6452 H   0  0  0  0  0  0  0  0  0  0  0  0
   -1.0797   12.0024   -3.7615 H   0  0  0  0  0  0  0  0  0  0  0  0
   -1.7560   13.3933   -1.6992 H   0  0  0  0  0  0  0  0  0  0  0  0
   -1.8780   11.5565   -1.6907 H   0  0  0  0  0  0  0  0  0  0  0  0
   -0.9410   12.6728    0.5042 H   0  0  0  0  0  0  0  0  0  0  0  0
    2.3340   12.1659   -1.8000 H   0  0  0  0  0  0  0  0  0  0  0  0
    1.5760    9.3137   -0.9108 H   0  0  0  0  0  0  0  0  0  0  0  0
    2.9652    9.7896   -1.9851 H   0  0  0  0  0  0  0  0  0  0  0  0
    3.6958    9.2905    0.3247 H   0  0  0  0  0  0  0  0  0  0  0  0
    4.0015   11.0051   -0.1581 H   0  0  0  0  0  0  0  0  0  0  0  0
    3.1502   10.9769    2.0868 H   0  0  0  0  0  0  0  0  0  0  0  0
    1.6800    8.9470    1.1120 H   0  0  0  0  0  0  0  0  0  0  0  0
    2.9294   13.5913    1.8716 H   0  0  0  0  0  0  0  0  0  0  0  0
    3.5296   12.9091    0.3221 H   0  0  0  0  0  0  0  0  0  0  0  0
    2.1526   14.0626    0.3221 H   0  0  0  0  0  0  0  0  0  0  0  0
    1.3529   12.1608    3.1672 H   0  0  0  0  0  0  0  0  0  0  0  0
    0.4724   13.4230    2.2407 H   0  0  0  0  0  0  0  0  0  0  0  0
   -0.1242   11.7287    2.2407 H   0  0  0  0  0  0  0  0  0  0  0  0
   -0.1454    9.5242   -1.8519 H   0  0  0  0  0  0  0  0  0  0  0  0
   -0.9328    9.9566   -3.4074 H   0  0  0  0  0  0  0  0  0  0  0  0
    0.6614    9.1290   -3.4074 H   0  0  0  0  0  0  0  0  0  0  0  0
    2.6628   10.7777   -3.7850 H   0  0  0  0  0  0  0  0  0  0  0  0
    1.1815   10.7335   -4.8984 H   0  0  0  0  0  0  0  0  0  0  0  0
    2.7370   13.1690   -3.9867 H   0  0  0  0  0  0  0  0  0  0  0  0
    2.5889   12.4823   -5.6522 H   0  0  0  0  0  0  0  0  0  0  0  0
   -0.7933   12.0875   -5.4796 H   0  0  0  0  0  0  0  0  0  0  0  0
   -0.5775   13.4562   -6.6227 H   0  0  0  0  0  0  0  0  0  0  0  0
    0.5923   12.0930   -6.6227 H   0  0  0  0  0  0  0  0  0  0  0  0
  1  2  1  0
  2  3  1  0
  3  4  1  0
  4  5  1  0
  5  6  1  0
  6  7  1  0
  7  8  1  0
  7  9  1  0
  2 10  1  0
 10 11  1  0
 11 12  1  0
 12 13  1  0
 13 14  1  1
 13 15  1  0
 15 16  1  0
 16 17  1  0
 17 18  2  0
 18 19  1  0
 19 20  1  0
 20 21  1  0
 21 22  1  0
 22 23  1  0
 22 24  1  0
 24 25  1  0
 24 26  1  0
 19 27  1  0
 27 28  1  1
 27 29  1  0
 29 30  1  0
 30 31  1  0
 31 32  1  6
  7  5  1  0
 31 10  1  0
 31 13  1  0
 27 15  1  0
 24 18  1  0
  1 33  1  0
  1 34  1  0
  1 35  1  0
  2 36  1  6
  3 37  1  0
  3 38  1  0
  4 39  1  0
  4 40  1  0
  5 41  1  1
  8 42  1  0
  8 43  1  0
  8 44  1  0
  9 45  1  0
  9 46  1  0
  9 47  1  0
 10 48  1  1
 11 49  1  0
 11 50  1  0
 12 51  1  0
 12 52  1  0
 14 53  1  0
 14 54  1  0
 14 55  1  0
 15 56  1  6
 16 57  1  0
 16 58  1  0
 17 59  1  0
 19 60  1  6
 20 61  1  0
 20 62  1  0
 21 63  1  0
 21 64  1  0
 22 65  1  1
 23 66  1  0
 25 67  1  0
 25 68  1  0
 25 69  1  0
 26 70  1  0
 26 71  1  0
 26 72  1  0
 28 73  1  0
 28 74  1  0
 28 75  1  0
 29 76  1  0
 29 77  1  0
 30 78  1  0
 30 79  1  0
 32 80  1  0
 32 81  1  0
 32 82  1  0
M  END
>  <meeko>  (12) 
{"is_sidechain": [false], "intermolecular_energy": 2.731, "internal_energy": -0.839}

$$$$
EPH_relaxed_0001_pdb2pqr_Repair_402_r2_0001_out
     RDKit          3D

 82 86  0  0  0  0  0  0  0  0999 V2000
   -0.5220   15.9180   -4.9550 C   0  0  0  0  0  0  0  0  0  0  0  0
    0.8730   15.2870   -4.9840 C   0  0  2  0  0  0  0  0  0  0  0  0
    0.9590   14.1120   -5.9790 C   0  0  0  0  0  0  0  0  0  0  0  0
    1.8080   14.4150   -7.2170 C   0  0  0  0  0  0  0  0  0  0  0  0
    1.4360   15.7280   -7.8370 C   0  0  2  0  0  0  0  0  0  0  0  0
    0.4370   15.6440   -8.8610 O   0  0  0  0  0  0  0  0  0  0  0  0
    1.7380   16.0870   -9.2800 C   0  0  0  0  0  0  0  0  0  0  0  0
    2.4420   15.1310  -10.1910 C   0  0  0  0  0  0  0  0  0  0  0  0
    1.7890   17.5330   -9.6610 C   0  0  0  0  0  0  0  0  0  0  0  0
    1.2590   14.8150   -3.5870 C   0  0  1  0  0  0  0  0  0  0  0  0
    1.2600   15.9670   -2.5470 C   0  0  0  0  0  0  0  0  0  0  0  0
    0.7800   15.3570   -1.2040 C   0  0  0  0  0  0  0  0  0  0  0  0
    0.8390   13.8280   -1.4270 C   0  0  1  0  0  0  0  0  0  0  0  0
    2.3370   13.4480   -1.2100 C   0  0  0  0  0  0  0  0  0  0  0  0
   -0.1110   12.9630   -0.5370 C   0  0  2  0  0  0  0  0  0  0  0  0
    0.1590   13.0440    0.9760 C   0  0  0  0  0  0  0  0  0  0  0  0
    1.1190   12.0310    1.5070 C   0  0  0  0  0  0  0  0  0  0  0  0
    1.5200   10.9200    0.8620 C   0  0  0  0  0  0  0  0  0  0  0  0
    0.9230   10.5400   -0.4990 C   0  0  1  0  0  0  0  0  0  0  0  0
    0.5490    9.0340   -0.4980 C   0  0  0  0  0  0  0  0  0  0  0  0
    1.7220    8.1410   -0.1060 C   0  0  0  0  0  0  0  0  0  0  0  0
    2.2510    8.5110    1.2770 C   0  0  2  0  0  0  0  0  0  0  0  0
    1.2510    8.1990    2.2520 O   0  0  0  0  0  0  0  0  0  0  0  0
    2.6510   10.0080    1.3990 C   0  0  0  0  0  0  0  0  0  0  0  0
    3.9290   10.2750    0.5660 C   0  0  0  0  0  0  0  0  0  0  0  0
    3.0330   10.2810    2.8790 C   0  0  0  0  0  0  0  0  0  0  0  0
   -0.2630   11.4630   -1.0180 C   0  0  1  0  0  0  0  0  0  0  0  0
   -1.6230   10.9500   -0.4530 C   0  0  0  0  0  0  0  0  0  0  0  0
   -0.3600   11.3440   -2.5850 C   0  0  0  0  0  0  0  0  0  0  0  0
    0.5150   12.3070   -3.4100 C   0  0  0  0  0  0  0  0  0  0  0  0
    0.3530   13.7500   -2.9210 C   0  0  2  0  0  0  0  0  0  0  0  0
   -1.1400   14.1670   -3.1470 C   0  0  0  0  0  0  0  0  0  0  0  0
   -0.8381   16.0610   -3.9112 H   0  0  0  0  0  0  0  0  0  0  0  0
   -0.4948   16.8915   -5.4665 H   0  0  0  0  0  0  0  0  0  0  0  0
   -1.2351   15.2548   -5.4665 H   0  0  0  0  0  0  0  0  0  0  0  0
    1.5782   16.0597   -5.3240 H   0  0  0  0  0  0  0  0  0  0  0  0
    1.3988   13.2481   -5.4591 H   0  0  0  0  0  0  0  0  0  0  0  0
   -0.0640   13.9134   -6.3313 H   0  0  0  0  0  0  0  0  0  0  0  0
    2.8676   14.4470   -6.9234 H   0  0  0  0  0  0  0  0  0  0  0  0
    1.6279   13.6226   -7.9584 H   0  0  0  0  0  0  0  0  0  0  0  0
    1.6249   16.2557   -6.8905 H   0  0  0  0  0  0  0  0  0  0  0  0
    2.9889   14.3884   -9.5914 H   0  0  0  0  0  0  0  0  0  0  0  0
    1.7041   14.6184  -10.8256 H   0  0  0  0  0  0  0  0  0  0  0  0
    3.1505   15.6835  -10.8256 H   0  0  0  0  0  0  0  0  0  0  0  0
    1.8108   18.1513   -8.7515 H   0  0  0  0  0  0  0  0  0  0  0  0
    2.6944   17.7237  -10.2558 H   0  0  0  0  0  0  0  0  0  0  0  0
    0.8993   17.7871  -10.2558 H   0  0  0  0  0  0  0  0  0  0  0  0
    2.2479   14.3849   -3.8038 H   0  0  0  0  0  0  0  0  0  0  0  0
    2.2749   16.3764   -2.4360 H   0  0  0  0  0  0  0  0  0  0  0  0
    0.6011   16.7880   -2.8660 H   0  0  0  0  0  0  0  0  0  0  0  0
    1.4467   15.6555   -0.3816 H   0  0  0  0  0  0  0  0  0  0  0  0
   -0.2279   15.6996   -0.9267 H   0  0  0  0  0  0  0  0  0  0  0  0
    2.5492   13.3942   -0.1320 H   0  0  0  0  0  0  0  0  0  0  0  0
    2.5380   12.4704   -1.6725 H   0  0  0  0  0  0  0  0  0  0  0  0
    2.9797   14.2116   -1.6725 H   0  0  0  0  0  0  0  0  0  0  0  0
   -1.0860   13.4479   -0.6927 H   0  0  0  0  0  0  0  0  0  0  0  0
    0.5626   14.0433    1.1964 H   0  0  0  0  0  0  0  0  0  0  0  0
   -0.8031   12.8395    1.4685 H   0  0  0  0  0  0  0  0  0  0  0  0
    1.5336   12.2078    2.5104 H   0  0  0  0  0  0  0  0  0  0  0  0
    1.7130   10.7280   -1.2410 H   0  0  0  0  0  0  0  0  0  0  0  0
   -0.2705    8.8745    0.2182 H   0  0  0  0  0  0  0  0  0  0  0  0
    0.2502    8.7632   -1.5214 H   0  0  0  0  0  0  0  0  0  0  0  0
    1.3886    7.0928   -0.0953 H   0  0  0  0  0  0  0  0  0  0  0  0
    2.5297    8.2803   -0.8396 H   0  0  0  0  0  0  0  0  0  0  0  0
    3.1672    7.9265    1.4472 H   0  0  0  0  0  0  0  0  0  0  0  0
    1.5920    8.4730    3.1200 H   0  0  0  0  0  0  0  0  0  0  0  0
    4.7776   10.4523    1.2431 H   0  0  0  0  0  0  0  0  0  0  0  0
    4.1422    9.4020   -0.0684 H   0  0  0  0  0  0  0  0  0  0  0  0
    3.7749   11.1603   -0.0684 H   0  0  0  0  0  0  0  0  0  0  0  0
    2.3189    9.7707    3.5421 H   0  0  0  0  0  0  0  0  0  0  0  0
    4.0476    9.9021    3.0717 H   0  0  0  0  0  0  0  0  0  0  0  0
    3.0031   11.3636    3.0717 H   0  0  0  0  0  0  0  0  0  0  0  0
   -1.5912   10.9620    0.6465 H   0  0  0  0  0  0  0  0  0  0  0  0
   -2.4355   11.6034   -0.8035 H   0  0  0  0  0  0  0  0  0  0  0  0
   -1.8016    9.9227   -0.8035 H   0  0  0  0  0  0  0  0  0  0  0  0
   -0.0748   10.3176   -2.8591 H   0  0  0  0  0  0  0  0  0  0  0  0
   -1.3973   11.6153   -2.8307 H   0  0  0  0  0  0  0  0  0  0  0  0
    1.5694   12.0096   -3.3109 H   0  0  0  0  0  0  0  0  0  0  0  0
    0.1978   12.2553   -4.4620 H   0  0  0  0  0  0  0  0  0  0  0  0
   -1.6336   14.3049   -2.1737 H   0  0  0  0  0  0  0  0  0  0  0  0
   -1.1758   15.1095   -3.7130 H   0  0  0  0  0  0  0  0  0  0  0  0
   -1.6590   13.3794   -3.7130 H   0  0  0  0  0  0  0  0  0  0  0  0
  1  2  1  0
  2  3  1  0
  3  4  1  0
  4  5  1  0
  5  6  1  0
  6  7  1  0
  7  8  1  0
  7  9  1  0
  2 10  1  0
 10 11  1  0
 11 12  1  0
 12 13  1  0
 13 14  1  6
 13 15  1  0
 15 16  1  0
 16 17  1  0
 17 18  2  0
 18 19  1  0
 19 20  1  0
 20 21  1  0
 21 22  1  0
 22 23  1  0
 22 24  1  0
 24 25  1  0
 24 26  1  0
 19 27  1  0
 27 28  1  1
 27 29  1  0
 29 30  1  0
 30 31  1  0
 31 32  1  1
  7  5  1  0
 31 10  1  0
 31 13  1  0
 27 15  1  0
 24 18  1  0
  1 33  1  0
  1 34  1  0
  1 35  1  0
  2 36  1  6
  3 37  1  0
  3 38  1  0
  4 39  1  0
  4 40  1  0
  5 41  1  1
  8 42  1  0
  8 43  1  0
  8 44  1  0
  9 45  1  0
  9 46  1  0
  9 47  1  0
 10 48  1  6
 11 49  1  0
 11 50  1  0
 12 51  1  0
 12 52  1  0
 14 53  1  0
 14 54  1  0
 14 55  1  0
 15 56  1  1
 16 57  1  0
 16 58  1  0
 17 59  1  0
 19 60  1  6
 20 61  1  0
 20 62  1  0
 21 63  1  0
 21 64  1  0
 22 65  1  1
 23 66  1  0
 25 67  1  0
 25 68  1  0
 25 69  1  0
 26 70  1  0
 26 71  1  0
 26 72  1  0
 28 73  1  0
 28 74  1  0
 28 75  1  0
 29 76  1  0
 29 77  1  0
 30 78  1  0
 30 79  1  0
 32 80  1  0
 32 81  1  0
 32 82  1  0
M  END
>  <meeko>  (13) 
{"is_sidechain": [false], "intermolecular_energy": 2.731, "internal_energy": -0.839}

$$$$
EPH_relaxed_0001_pdb2pqr_Repair_402_r2_0001_out
     RDKit          3D

 82 86  0  0  0  0  0  0  0  0999 V2000
   -0.9230   16.3690   -5.8410 C   0  0  0  0  0  0  0  0  0  0  0  0
    0.1530   15.6530   -6.6620 C   0  0  2  0  0  0  0  0  0  0  0  0
   -0.2850   15.4290   -8.1230 C   0  0  0  0  0  0  0  0  0  0  0  0
    0.3330   16.4230   -9.1100 C   0  0  0  0  0  0  0  0  0  0  0  0
    1.7590   16.0800   -9.4220 C   0  0  2  0  0  0  0  0  0  0  0  0
    2.2700   16.6780  -10.6210 O   0  0  0  0  0  0  0  0  0  0  0  0
    2.1760   15.2440  -10.6180 C   0  0  0  0  0  0  0  0  0  0  0  0
    1.1670   14.6980  -11.5780 C   0  0  0  0  0  0  0  0  0  0  0  0
    3.5040   14.5530  -10.5790 C   0  0  0  0  0  0  0  0  0  0  0  0
    0.5010   14.3190   -6.0120 C   0  0  1  0  0  0  0  0  0  0  0  0
    1.6980   13.6120   -6.7010 C   0  0  0  0  0  0  0  0  0  0  0  0
    2.4870   12.8780   -5.5860 C   0  0  0  0  0  0  0  0  0  0  0  0
    1.5460   12.9070   -4.3590 C   0  0  1  0  0  0  0  0  0  0  0  0
    0.5420   11.7350   -4.5960 C   0  0  0  0  0  0  0  0  0  0  0  0
    2.2330   12.8050   -2.9590 C   0  0  2  0  0  0  0  0  0  0  0  0
    3.0000   11.4960   -2.7020 C   0  0  0  0  0  0  0  0  0  0  0  0
    2.2010   10.4010   -2.0780 C   0  0  0  0  0  0  0  0  0  0  0  0
    1.0060   10.5490   -1.4770 C   0  0  0  0  0  0  0  0  0  0  0  0
    0.3830   11.9390   -1.2950 C   0  0  1  0  0  0  0  0  0  0  0  0
   -0.1420   12.0850    0.1570 C   0  0  0  0  0  0  0  0  0  0  0  0
   -1.0970   10.9620    0.5500 C   0  0  0  0  0  0  0  0  0  0  0  0
   -0.4220    9.5990    0.4110 C   0  0  2  0  0  0  0  0  0  0  0  0
    0.6250    9.5030    1.3810 O   0  0  0  0  0  0  0  0  0  0  0  0
    0.1550    9.3430   -1.0090 C   0  0  0  0  0  0  0  0  0  0  0  0
   -1.0060    9.1480   -2.0150 C   0  0  0  0  0  0  0  0  0  0  0  0
    0.9300    7.9980   -0.9740 C   0  0  0  0  0  0  0  0  0  0  0  0
    1.2860   13.1670   -1.7440 C   0  0  1  0  0  0  0  0  0  0  0  0
    2.2150   13.6020   -0.5690 C   0  0  0  0  0  0  0  0  0  0  0  0
    0.3580   14.4010   -2.0560 C   0  0  0  0  0  0  0  0  0  0  0  0
   -0.1930   14.5100   -3.4900 C   0  0  0  0  0  0  0  0  0  0  0  0
    0.9260   14.3430   -4.5220 C   0  0  2  0  0  0  0  0  0  0  0  0
    1.9400   15.5210   -4.3230 C   0  0  0  0  0  0  0  0  0  0  0  0
   -0.7177   16.2324   -4.7690 H   0  0  0  0  0  0  0  0  0  0  0  0
   -0.9146   17.4422   -6.0821 H   0  0  0  0  0  0  0  0  0  0  0  0
   -1.9097   15.9468   -6.0821 H   0  0  0  0  0  0  0  0  0  0  0  0
    1.0418   16.3009   -6.6795 H   0  0  0  0  0  0  0  0  0  0  0  0
    0.0110   14.4128   -8.4224 H   0  0  0  0  0  0  0  0  0  0  0  0
   -1.3745   15.5763   -8.1582 H   0  0  0  0  0  0  0  0  0  0  0  0
   -0.2496   16.4082  -10.0429 H   0  0  0  0  0  0  0  0  0  0  0  0
    0.3132   17.4216   -8.6490 H   0  0  0  0  0  0  0  0  0  0  0  0
    2.0008   16.0082   -8.3513 H   0  0  0  0  0  0  0  0  0  0  0  0
    0.3343   14.2474  -11.0179 H   0  0  0  0  0  0  0  0  0  0  0  0
    0.7849   15.5125  -12.2110 H   0  0  0  0  0  0  0  0  0  0  0  0
    1.6398   13.9326  -12.2110 H   0  0  0  0  0  0  0  0  0  0  0  0
    3.8052   14.3963   -9.5327 H   0  0  0  0  0  0  0  0  0  0  0  0
    3.4266   13.5808  -11.0878 H   0  0  0  0  0  0  0  0  0  0  0  0
    4.2557   15.1743  -11.0878 H   0  0  0  0  0  0  0  0  0  0  0  0
   -0.4654   13.8047   -6.1196 H   0  0  0  0  0  0  0  0  0  0  0  0
    1.3333   12.8890   -7.4455 H   0  0  0  0  0  0  0  0  0  0  0  0
    2.3374   14.3382   -7.2243 H   0  0  0  0  0  0  0  0  0  0  0  0
    2.7061   11.8418   -5.8830 H   0  0  0  0  0  0  0  0  0  0  0  0
    3.4572   13.3534   -5.3792 H   0  0  0  0  0  0  0  0  0  0  0  0
    0.2038   11.3402   -3.6266 H   0  0  0  0  0  0  0  0  0  0  0  0
   -0.3247   12.1039   -5.1642 H   0  0  0  0  0  0  0  0  0  0  0  0
    1.0395   10.9352   -5.1642 H   0  0  0  0  0  0  0  0  0  0  0  0
    2.9977   13.5938   -3.0143 H   0  0  0  0  0  0  0  0  0  0  0  0
    3.3818   11.1308   -3.6668 H   0  0  0  0  0  0  0  0  0  0  0  0
    3.7920   11.7441   -1.9801 H   0  0  0  0  0  0  0  0  0  0  0  0
    2.6249    9.3865   -2.1122 H   0  0  0  0  0  0  0  0  0  0  0  0
   -0.4578   11.9908   -2.0024 H   0  0  0  0  0  0  0  0  0  0  0  0
    0.7163   12.0747    0.8449 H   0  0  0  0  0  0  0  0  0  0  0  0
   -0.6980   13.0322    0.2171 H   0  0  0  0  0  0  0  0  0  0  0  0
   -1.4096   11.1042    1.5950 H   0  0  0  0  0  0  0  0  0  0  0  0
   -1.9694   10.9921   -0.1194 H   0  0  0  0  0  0  0  0  0  0  0  0
   -1.1911    8.8307    0.5793 H   0  0  0  0  0  0  0  0  0  0  0  0
    0.2110    9.4760    2.2600 H   0  0  0  0  0  0  0  0  0  0  0  0
   -1.9453    8.9902   -1.4648 H   0  0  0  0  0  0  0  0  0  0  0  0
   -1.0975   10.0434   -2.6474 H   0  0  0  0  0  0  0  0  0  0  0  0
   -0.7999    8.2719   -2.6474 H   0  0  0  0  0  0  0  0  0  0  0  0
    1.1013    7.7006    0.0711 H   0  0  0  0  0  0  0  0  0  0  0  0
    0.3407    7.2218   -1.4841 H   0  0  0  0  0  0  0  0  0  0  0  0
    1.8971    8.1187   -1.4841 H   0  0  0  0  0  0  0  0  0  0  0  0
    1.7259   13.3730    0.3893 H   0  0  0  0  0  0  0  0  0  0  0  0
    3.1680   13.0565   -0.6338 H   0  0  0  0  0  0  0  0  0  0  0  0
    2.4063   14.6833   -0.6338 H   0  0  0  0  0  0  0  0  0  0  0  0
   -0.5019   14.3522   -1.3718 H   0  0  0  0  0  0  0  0  0  0  0  0
    1.0004   15.2845   -1.9264 H   0  0  0  0  0  0  0  0  0  0  0  0
   -0.9468   13.7243   -3.6464 H   0  0  0  0  0  0  0  0  0  0  0  0
   -0.6421   15.5059   -3.6181 H   0  0  0  0  0  0  0  0  0  0  0  0
    2.0913   15.6968   -3.2477 H   0  0  0  0  0  0  0  0  0  0  0  0
    2.9009   15.2606   -4.7908 H   0  0  0  0  0  0  0  0  0  0  0  0
    1.5395   16.4325   -4.7908 H   0  0  0  0  0  0  0  0  0  0  0  0
  1  2  1  0
  2  3  1  0
  3  4  1  0
  4  5  1  0
  5  6  1  0
  6  7  1  0
  7  8  1  0
  7  9  1  0
  2 10  1  0
 10 11  1  0
 11 12  1  0
 12 13  1  0
 13 14  1  6
 13 15  1  0
 15 16  1  0
 16 17  1  0
 17 18  2  0
 18 19  1  0
 19 20  1  0
 20 21  1  0
 21 22  1  0
 22 23  1  0
 22 24  1  0
 24 25  1  0
 24 26  1  0
 19 27  1  0
 27 28  1  1
 27 29  1  0
 29 30  1  0
 30 31  1  0
 31 32  1  6
  7  5  1  0
 31 10  1  0
 31 13  1  0
 27 15  1  0
 24 18  1  0
  1 33  1  0
  1 34  1  0
  1 35  1  0
  2 36  1  6
  3 37  1  0
  3 38  1  0
  4 39  1  0
  4 40  1  0
  5 41  1  1
  8 42  1  0
  8 43  1  0
  8 44  1  0
  9 45  1  0
  9 46  1  0
  9 47  1  0
 10 48  1  1
 11 49  1  0
 11 50  1  0
 12 51  1  0
 12 52  1  0
 14 53  1  0
 14 54  1  0
 14 55  1  0
 15 56  1  6
 16 57  1  0
 16 58  1  0
 17 59  1  0
 19 60  1  6
 20 61  1  0
 20 62  1  0
 21 63  1  0
 21 64  1  0
 22 65  1  1
 23 66  1  0
 25 67  1  0
 25 68  1  0
 25 69  1  0
 26 70  1  0
 26 71  1  0
 26 72  1  0
 28 73  1  0
 28 74  1  0
 28 75  1  0
 29 76  1  0
 29 77  1  0
 30 78  1  0
 30 79  1  0
 32 80  1  0
 32 81  1  0
 32 82  1  0
M  END
>  <meeko>  (14) 
{"is_sidechain": [false], "intermolecular_energy": 2.731, "internal_energy": -0.839}

$$$$
EPH_relaxed_0001_pdb2pqr_Repair_402_r2_0001_out
     RDKit          3D

 82 86  0  0  0  0  0  0  0  0999 V2000
   -3.6640    7.1670   -3.4710 C   0  0  0  0  0  0  0  0  0  0  0  0
   -3.6730    7.2520   -1.9420 C   0  0  2  0  0  0  0  0  0  0  0  0
   -5.0770    7.0040   -1.3550 C   0  0  0  0  0  0  0  0  0  0  0  0
   -6.2050    7.1290   -2.3820 C   0  0  0  0  0  0  0  0  0  0  0  0
   -7.5240    7.4060   -1.7260 C   0  0  2  0  0  0  0  0  0  0  0  0
   -8.1670    6.2550   -1.1650 O   0  0  0  0  0  0  0  0  0  0  0  0
   -8.8480    6.8910   -2.2590 C   0  0  0  0  0  0  0  0  0  0  0  0
   -8.9180    6.0580   -3.5000 C   0  0  0  0  0  0  0  0  0  0  0  0
  -10.1040    7.5990   -1.8580 C   0  0  0  0  0  0  0  0  0  0  0  0
   -3.1550    8.6140   -1.4950 C   0  0  1  0  0  0  0  0  0  0  0  0
   -3.8680    9.1350   -0.2190 C   0  0  0  0  0  0  0  0  0  0  0  0
   -2.8080    9.9150    0.6000 C   0  0  0  0  0  0  0  0  0  0  0  0
   -1.6220   10.1010   -0.3750 C   0  0  1  0  0  0  0  0  0  0  0  0
   -2.0190   11.3230   -1.2610 C   0  0  0  0  0  0  0  0  0  0  0  0
   -0.2150   10.2950    0.2780 C   0  0  2  0  0  0  0  0  0  0  0  0
   -0.0690   11.5520    1.1530 C   0  0  0  0  0  0  0  0  0  0  0  0
    0.4050   12.7750    0.4380 C   0  0  0  0  0  0  0  0  0  0  0  0
    0.9720   12.7970   -0.7820 C   0  0  0  0  0  0  0  0  0  0  0  0
    1.2760   11.4940   -1.5330 C   0  0  1  0  0  0  0  0  0  0  0  0
    2.7140   11.5530   -2.1110 C   0  0  0  0  0  0  0  0  0  0  0  0
    2.9490   12.7910   -2.9720 C   0  0  0  0  0  0  0  0  0  0  0  0
    2.6930   14.0660   -2.1730 C   0  0  2  0  0  0  0  0  0  0  0  0
    3.6870   14.1770   -1.1500 O   0  0  0  0  0  0  0  0  0  0  0  0
    1.2770   14.1160   -1.5350 C   0  0  0  0  0  0  0  0  0  0  0  0
    0.2120   14.3000   -2.6430 C   0  0  0  0  0  0  0  0  0  0  0  0
    1.1990   15.3840   -0.6430 C   0  0  0  0  0  0  0  0  0  0  0  0
    0.9950   10.1500   -0.7330 C   0  0  1  0  0  0  0  0  0  0  0  0
    2.2430    9.7670    0.1190 C   0  0  0  0  0  0  0  0  0  0  0  0
    0.7790    8.9760   -1.7590 C   0  0  0  0  0  0  0  0  0  0  0  0
   -0.6560    8.7590   -2.2760 C   0  0  0  0  0  0  0  0  0  0  0  0
   -1.6560    8.7150   -1.1170 C   0  0  2  0  0  0  0  0  0  0  0  0
   -1.2950    7.4830   -0.2200 C   0  0  0  0  0  0  0  0  0  0  0  0
   -3.5528    6.1169   -3.7792 H   0  0  0  0  0  0  0  0  0  0  0  0
   -4.6095    7.5669   -3.8660 H   0  0  0  0  0  0  0  0  0  0  0  0
   -2.8232    7.7561   -3.8660 H   0  0  0  0  0  0  0  0  0  0  0  0
   -3.0118    6.4592   -1.5622 H   0  0  0  0  0  0  0  0  0  0  0  0
   -5.1025    5.9884   -0.9333 H   0  0  0  0  0  0  0  0  0  0  0  0
   -5.2484    7.7794   -0.5938 H   0  0  0  0  0  0  0  0  0  0  0  0
   -5.9697    7.9532   -3.0714 H   0  0  0  0  0  0  0  0  0  0  0  0
   -6.2845    6.1739   -2.9219 H   0  0  0  0  0  0  0  0  0  0  0  0
   -7.1901    8.4101   -1.4254 H   0  0  0  0  0  0  0  0  0  0  0  0
   -9.0072    4.9967   -3.2247 H   0  0  0  0  0  0  0  0  0  0  0  0
   -9.7941    6.3576   -4.0938 H   0  0  0  0  0  0  0  0  0  0  0  0
   -8.0041    6.2072   -4.0938 H   0  0  0  0  0  0  0  0  0  0  0  0
  -10.1697    7.6360   -0.7606 H   0  0  0  0  0  0  0  0  0  0  0  0
  -10.0917    8.6231   -2.2593 H   0  0  0  0  0  0  0  0  0  0  0  0
  -10.9738    7.0583   -2.2593 H   0  0  0  0  0  0  0  0  0  0  0  0
   -3.3536    9.1955   -2.4074 H   0  0  0  0  0  0  0  0  0  0  0  0
   -4.6988    9.8012   -0.4948 H   0  0  0  0  0  0  0  0  0  0  0  0
   -4.2856    8.3031    0.3671 H   0  0  0  0  0  0  0  0  0  0  0  0
   -3.2045   10.8899    0.9198 H   0  0  0  0  0  0  0  0  0  0  0  0
   -2.5149    9.3831    1.5172 H   0  0  0  0  0  0  0  0  0  0  0  0
   -2.2942   12.1700   -0.6154 H   0  0  0  0  0  0  0  0  0  0  0  0
   -1.1671   11.6076   -1.8960 H   0  0  0  0  0  0  0  0  0  0  0  0
   -2.8755   11.0526   -1.8960 H   0  0  0  0  0  0  0  0  0  0  0  0
   -0.1568    9.4417    0.9697 H   0  0  0  0  0  0  0  0  0  0  0  0
   -1.0517   11.7753    1.5939 H   0  0  0  0  0  0  0  0  0  0  0  0
    0.7047   11.3160    1.8985 H   0  0  0  0  0  0  0  0  0  0  0  0
    0.2799   13.7392    0.9525 H   0  0  0  0  0  0  0  0  0  0  0  0
    0.5454   11.4391   -2.3535 H   0  0  0  0  0  0  0  0  0  0  0  0
    3.4295   11.5636   -1.2756 H   0  0  0  0  0  0  0  0  0  0  0  0
    2.8525   10.6697   -2.7519 H   0  0  0  0  0  0  0  0  0  0  0  0
    3.9903   12.7909   -3.3264 H   0  0  0  0  0  0  0  0  0  0  0  0
    2.2535   12.7642   -3.8238 H   0  0  0  0  0  0  0  0  0  0  0  0
    2.7498   14.9114   -2.8745 H   0  0  0  0  0  0  0  0  0  0  0  0
    4.3310   14.8460   -1.4360 H   0  0  0  0  0  0  0  0  0  0  0  0
   -0.7718   14.4700   -2.1813 H   0  0  0  0  0  0  0  0  0  0  0  0
    0.4784   15.1654   -3.2676 H   0  0  0  0  0  0  0  0  0  0  0  0
    0.1726   13.3954   -3.2676 H   0  0  0  0  0  0  0  0  0  0  0  0
    1.2172   15.0887    0.4165 H   0  0  0  0  0  0  0  0  0  0  0  0
    2.0587   16.0361   -0.8567 H   0  0  0  0  0  0  0  0  0  0  0  0
    0.2658   15.9258   -0.8567 H   0  0  0  0  0  0  0  0  0  0  0  0
    1.9947    9.8432    1.1879 H   0  0  0  0  0  0  0  0  0  0  0  0
    2.5440    8.7351   -0.1148 H   0  0  0  0  0  0  0  0  0  0  0  0
    3.0710   10.4524   -0.1148 H   0  0  0  0  0  0  0  0  0  0  0  0
    1.4201    9.1739   -2.6306 H   0  0  0  0  0  0  0  0  0  0  0  0
    1.0258    8.0595   -1.2030 H   0  0  0  0  0  0  0  0  0  0  0  0
   -0.9239    9.5851   -2.9511 H   0  0  0  0  0  0  0  0  0  0  0  0
   -0.6948    7.7976   -2.8091 H   0  0  0  0  0  0  0  0  0  0  0  0
   -1.3775    7.7646    0.8401 H   0  0  0  0  0  0  0  0  0  0  0  0
   -1.9889    6.6570   -0.4351 H   0  0  0  0  0  0  0  0  0  0  0  0
   -0.2651    7.1621   -0.4351 H   0  0  0  0  0  0  0  0  0  0  0  0
  1  2  1  0
  2  3  1  0
  3  4  1  0
  4  5  1  0
  5  6  1  0
  6  7  1  0
  7  8  1  0
  7  9  1  0
  2 10  1  0
 10 11  1  0
 11 12  1  0
 12 13  1  0
 13 14  1  6
 13 15  1  0
 15 16  1  0
 16 17  1  0
 17 18  2  0
 18 19  1  0
 19 20  1  0
 20 21  1  0
 21 22  1  0
 22 23  1  0
 22 24  1  0
 24 25  1  0
 24 26  1  0
 19 27  1  0
 27 28  1  1
 27 29  1  0
 29 30  1  0
 30 31  1  0
 31 32  1  1
  7  5  1  0
 31 10  1  0
 31 13  1  0
 27 15  1  0
 24 18  1  0
  1 33  1  0
  1 34  1  0
  1 35  1  0
  2 36  1  1
  3 37  1  0
  3 38  1  0
  4 39  1  0
  4 40  1  0
  5 41  1  1
  8 42  1  0
  8 43  1  0
  8 44  1  0
  9 45  1  0
  9 46  1  0
  9 47  1  0
 10 48  1  6
 11 49  1  0
 11 50  1  0
 12 51  1  0
 12 52  1  0
 14 53  1  0
 14 54  1  0
 14 55  1  0
 15 56  1  1
 16 57  1  0
 16 58  1  0
 17 59  1  0
 19 60  1  6
 20 61  1  0
 20 62  1  0
 21 63  1  0
 21 64  1  0
 22 65  1  6
 23 66  1  0
 25 67  1  0
 25 68  1  0
 25 69  1  0
 26 70  1  0
 26 71  1  0
 26 72  1  0
 28 73  1  0
 28 74  1  0
 28 75  1  0
 29 76  1  0
 29 77  1  0
 30 78  1  0
 30 79  1  0
 32 80  1  0
 32 81  1  0
 32 82  1  0
M  END
>  <meeko>  (15) 
{"is_sidechain": [false], "intermolecular_energy": 2.731, "internal_energy": -0.839}

$$$$
EPH_relaxed_0001_pdb2pqr_Repair_402_r2_0001_out
     RDKit          3D

 82 86  0  0  0  0  0  0  0  0999 V2000
    1.4240    8.8830    0.0540 C   0  0  0  0  0  0  0  0  0  0  0  0
    2.8540    9.4310    0.0690 C   0  0  2  0  0  0  0  0  0  0  0  0
    3.3630    9.6880    1.5010 C   0  0  0  0  0  0  0  0  0  0  0  0
    2.2620    9.6340    2.5640 C   0  0  0  0  0  0  0  0  0  0  0  0
    1.5110   10.9290    2.6510 C   0  0  2  0  0  0  0  0  0  0  0  0
    2.3380   12.0930    2.7810 O   0  0  0  0  0  0  0  0  0  0  0  0
    1.4800   11.7960    3.8950 C   0  0  0  0  0  0  0  0  0  0  0  0
    2.2130   11.4020    5.1390 C   0  0  0  0  0  0  0  0  0  0  0  0
    0.3530   12.7670    4.0630 C   0  0  0  0  0  0  0  0  0  0  0  0
    2.9260   10.7170   -0.7480 C   0  0  1  0  0  0  0  0  0  0  0  0
    3.3960   10.4720   -2.2060 C   0  0  0  0  0  0  0  0  0  0  0  0
    2.6360   11.4880   -3.0970 C   0  0  0  0  0  0  0  0  0  0  0  0
    2.0140   12.4930   -2.0990 C   0  0  1  0  0  0  0  0  0  0  0  0
    3.1730   13.4780   -1.7470 C   0  0  0  0  0  0  0  0  0  0  0  0
    0.7390   13.2540   -2.5890 C   0  0  2  0  0  0  0  0  0  0  0  0
    0.9510   14.1590   -3.8150 C   0  0  0  0  0  0  0  0  0  0  0  0
    1.3320   15.5700   -3.5090 C   0  0  0  0  0  0  0  0  0  0  0  0
    1.2220   16.1660   -2.3070 C   0  0  0  0  0  0  0  0  0  0  0  0
    0.5780   15.4360   -1.1210 C   0  0  1  0  0  0  0  0  0  0  0  0
   -0.4290   16.3820   -0.4160 C   0  0  0  0  0  0  0  0  0  0  0  0
    0.2020   17.7100   -0.0100 C   0  0  0  0  0  0  0  0  0  0  0  0
    0.7800   18.4330   -1.2240 C   0  0  2  0  0  0  0  0  0  0  0  0
   -0.2960   18.8220   -2.0840 O   0  0  0  0  0  0  0  0  0  0  0  0
    1.8010   17.5740   -2.0210 C   0  0  0  0  0  0  0  0  0  0  0  0
    3.0990   17.4070   -1.1920 C   0  0  0  0  0  0  0  0  0  0  0  0
    2.1990   18.3650   -3.2960 C   0  0  0  0  0  0  0  0  0  0  0  0
   -0.0450   14.0100   -1.4410 C   0  0  1  0  0  0  0  0  0  0  0  0
   -1.5150   14.1710   -1.9380 C   0  0  0  0  0  0  0  0  0  0  0  0
   -0.1160   13.1690   -0.1120 C   0  0  0  0  0  0  0  0  0  0  0  0
    1.1320   12.3450    0.2560 C   0  0  0  0  0  0  0  0  0  0  0  0
    1.6110   11.5130   -0.9380 C   0  0  2  0  0  0  0  0  0  0  0  0
    0.4740   10.4980   -1.3010 C   0  0  0  0  0  0  0  0  0  0  0  0
    1.0721    8.7482    1.0875 H   0  0  0  0  0  0  0  0  0  0  0  0
    0.7650    9.5923   -0.4681 H   0  0  0  0  0  0  0  0  0  0  0  0
    1.4078    7.9149   -0.4681 H   0  0  0  0  0  0  0  0  0  0  0  0
    3.5057    8.6672   -0.3804 H   0  0  0  0  0  0  0  0  0  0  0  0
    4.1177    8.9254    1.7435 H   0  0  0  0  0  0  0  0  0  0  0  0
    3.7764   10.7072    1.5174 H   0  0  0  0  0  0  0  0  0  0  0  0
    1.5571    8.8297    2.3066 H   0  0  0  0  0  0  0  0  0  0  0  0
    2.7356    9.4461    3.5389 H   0  0  0  0  0  0  0  0  0  0  0  0
    0.7114   10.5358    2.0059 H   0  0  0  0  0  0  0  0  0  0  0  0
    1.6333   11.7136    6.0204 H   0  0  0  0  0  0  0  0  0  0  0  0
    2.3470   10.3103    5.1554 H   0  0  0  0  0  0  0  0  0  0  0  0
    3.1974   11.8925    5.1554 H   0  0  0  0  0  0  0  0  0  0  0  0
    0.1651   12.9289    5.1347 H   0  0  0  0  0  0  0  0  0  0  0  0
    0.6191   13.7232    3.5889 H   0  0  0  0  0  0  0  0  0  0  0  0
   -0.5534   12.3624    3.5889 H   0  0  0  0  0  0  0  0  0  0  0  0
    3.6269   11.2925   -0.1255 H   0  0  0  0  0  0  0  0  0  0  0  0
    4.4809   10.6346   -2.2867 H   0  0  0  0  0  0  0  0  0  0  0  0
    3.1883    9.4384   -2.5198 H   0  0  0  0  0  0  0  0  0  0  0  0
    3.3292   11.9989   -3.7815 H   0  0  0  0  0  0  0  0  0  0  0  0
    1.8770   11.0031   -3.7285 H   0  0  0  0  0  0  0  0  0  0  0  0
    3.2670   13.5579   -0.6539 H   0  0  0  0  0  0  0  0  0  0  0  0
    4.1159   13.1007   -2.1695 H   0  0  0  0  0  0  0  0  0  0  0  0
    2.9527   14.4694   -2.1695 H   0  0  0  0  0  0  0  0  0  0  0  0
    0.0909   12.4339   -2.9316 H   0  0  0  0  0  0  0  0  0  0  0  0
    1.7493   13.7172   -4.4294 H   0  0  0  0  0  0  0  0  0  0  0  0
   -0.0216   14.2109   -4.3263 H   0  0  0  0  0  0  0  0  0  0  0  0
    1.7365   16.1731   -4.3352 H   0  0  0  0  0  0  0  0  0  0  0  0
    1.4000   15.1873   -0.4336 H   0  0  0  0  0  0  0  0  0  0  0  0
   -1.2638   16.5838   -1.1033 H   0  0  0  0  0  0  0  0  0  0  0  0
   -0.7719   15.8809    0.5013 H   0  0  0  0  0  0  0  0  0  0  0  0
   -0.5653   18.3457    0.4560 H   0  0  0  0  0  0  0  0  0  0  0  0
    1.0177   17.5087    0.7000 H   0  0  0  0  0  0  0  0  0  0  0  0
    1.3305   19.3104   -0.8537 H   0  0  0  0  0  0  0  0  0  0  0  0
   -0.1890   19.7680   -2.2800 H   0  0  0  0  0  0  0  0  0  0  0  0
    2.8558   17.4383   -0.1197 H   0  0  0  0  0  0  0  0  0  0  0  0
    3.5668   16.4413   -1.4338 H   0  0  0  0  0  0  0  0  0  0  0  0
    3.7960   18.2229   -1.4338 H   0  0  0  0  0  0  0  0  0  0  0  0
    2.6759   19.3128   -3.0056 H   0  0  0  0  0  0  0  0  0  0  0  0
    2.9039   17.7677   -3.8930 H   0  0  0  0  0  0  0  0  0  0  0  0
    1.2993   18.5751   -3.8930 H   0  0  0  0  0  0  0  0  0  0  0  0
   -2.1889   14.2448   -1.0718 H   0  0  0  0  0  0  0  0  0  0  0  0
   -1.5985   15.0837   -2.5463 H   0  0  0  0  0  0  0  0  0  0  0  0
   -1.7941   13.2980   -2.5463 H   0  0  0  0  0  0  0  0  0  0  0  0
   -0.3084   13.8687    0.7147 H   0  0  0  0  0  0  0  0  0  0  0  0
   -0.9103   12.4275   -0.2828 H   0  0  0  0  0  0  0  0  0  0  0  0
    1.9367   13.0287    0.5642 H   0  0  0  0  0  0  0  0  0  0  0  0
    0.8716   11.6618    1.0779 H   0  0  0  0  0  0  0  0  0  0  0  0
    0.0287   10.1004   -0.3771 H   0  0  0  0  0  0  0  0  0  0  0  0
   -0.3006   11.0105   -1.8904 H   0  0  0  0  0  0  0  0  0  0  0  0
    0.8957    9.6705   -1.8904 H   0  0  0  0  0  0  0  0  0  0  0  0
  1  2  1  0
  2  3  1  0
  3  4  1  0
  4  5  1  0
  5  6  1  0
  6  7  1  0
  7  8  1  0
  7  9  1  0
  2 10  1  0
 10 11  1  0
 11 12  1  0
 12 13  1  0
 13 14  1  1
 13 15  1  0
 15 16  1  0
 16 17  1  0
 17 18  2  0
 18 19  1  0
 19 20  1  0
 20 21  1  0
 21 22  1  0
 22 23  1  0
 22 24  1  0
 24 25  1  0
 24 26  1  0
 19 27  1  0
 27 28  1  6
 27 29  1  0
 29 30  1  0
 30 31  1  0
 31 32  1  6
  7  5  1  0
 31 10  1  0
 31 13  1  0
 27 15  1  0
 24 18  1  0
  1 33  1  0
  1 34  1  0
  1 35  1  0
  2 36  1  6
  3 37  1  0
  3 38  1  0
  4 39  1  0
  4 40  1  0
  5 41  1  6
  8 42  1  0
  8 43  1  0
  8 44  1  0
  9 45  1  0
  9 46  1  0
  9 47  1  0
 10 48  1  1
 11 49  1  0
 11 50  1  0
 12 51  1  0
 12 52  1  0
 14 53  1  0
 14 54  1  0
 14 55  1  0
 15 56  1  6
 16 57  1  0
 16 58  1  0
 17 59  1  0
 19 60  1  1
 20 61  1  0
 20 62  1  0
 21 63  1  0
 21 64  1  0
 22 65  1  1
 23 66  1  0
 25 67  1  0
 25 68  1  0
 25 69  1  0
 26 70  1  0
 26 71  1  0
 26 72  1  0
 28 73  1  0
 28 74  1  0
 28 75  1  0
 29 76  1  0
 29 77  1  0
 30 78  1  0
 30 79  1  0
 32 80  1  0
 32 81  1  0
 32 82  1  0
M  END
>  <meeko>  (16) 
{"is_sidechain": [false], "intermolecular_energy": 2.731, "internal_energy": -0.839}

$$$$
EPH_relaxed_0001_pdb2pqr_Repair_402_r2_0001_out
     RDKit          3D

 82 86  0  0  0  0  0  0  0  0999 V2000
    0.0350    9.4150   -2.7130 C   0  0  0  0  0  0  0  0  0  0  0  0
    1.0800   10.4560   -3.1250 C   0  0  2  0  0  0  0  0  0  0  0  0
    2.4880    9.8420   -3.2630 C   0  0  0  0  0  0  0  0  0  0  0  0
    3.4480   10.6890   -4.1020 C   0  0  0  0  0  0  0  0  0  0  0  0
    4.8070   10.7730   -3.4740 C   0  0  2  0  0  0  0  0  0  0  0  0
    5.5350   11.9680   -3.7810 O   0  0  0  0  0  0  0  0  0  0  0  0
    6.0990   10.7400   -4.2680 C   0  0  0  0  0  0  0  0  0  0  0  0
    6.0950   10.6180   -5.7600 C   0  0  0  0  0  0  0  0  0  0  0  0
    7.3590   10.3350   -3.5680 C   0  0  0  0  0  0  0  0  0  0  0  0
    1.1040   11.5960   -2.1150 C   0  0  1  0  0  0  0  0  0  0  0  0
    2.1710   11.3890   -1.0060 C   0  0  0  0  0  0  0  0  0  0  0  0
    2.7210   12.7930   -0.6470 C   0  0  0  0  0  0  0  0  0  0  0  0
    1.7330   13.7810   -1.3100 C   0  0  1  0  0  0  0  0  0  0  0  0
    0.5260   13.8640   -0.3240 C   0  0  0  0  0  0  0  0  0  0  0  0
    2.2970   15.1990   -1.6520 C   0  0  2  0  0  0  0  0  0  0  0  0
    2.7610   16.0250   -0.4400 C   0  0  0  0  0  0  0  0  0  0  0  0
    1.7170   16.8980    0.1740 C   0  0  0  0  0  0  0  0  0  0  0  0
    0.5430   17.2320   -0.3940 C   0  0  0  0  0  0  0  0  0  0  0  0
    0.2100   16.7970   -1.8270 C   0  0  1  0  0  0  0  0  0  0  0  0
   -0.3620   18.0040   -2.6150 C   0  0  0  0  0  0  0  0  0  0  0  0
   -1.5500   18.6530   -1.9110 C   0  0  0  0  0  0  0  0  0  0  0  0
   -1.1630   19.1240   -0.5120 C   0  0  2  0  0  0  0  0  0  0  0  0
   -0.2190   20.1930   -0.6300 O   0  0  0  0  0  0  0  0  0  0  0  0
   -0.5650   17.9940    0.3720 C   0  0  0  0  0  0  0  0  0  0  0  0
   -1.6780   16.9850    0.7500 C   0  0  0  0  0  0  0  0  0  0  0  0
   -0.0880   18.6330    1.7050 C   0  0  0  0  0  0  0  0  0  0  0  0
    1.3730   16.0500   -2.6130 C   0  0  1  0  0  0  0  0  0  0  0  0
    2.2980   17.0930   -3.3120 C   0  0  0  0  0  0  0  0  0  0  0  0
    0.7390   15.1790   -3.7610 C   0  0  0  0  0  0  0  0  0  0  0  0
    0.3110   13.7460   -3.3900 C   0  0  0  0  0  0  0  0  0  0  0  0
    1.4330   13.0130   -2.6490 C   0  0  2  0  0  0  0  0  0  0  0  0
    2.6540   12.8950   -3.6240 C   0  0  0  0  0  0  0  0  0  0  0  0
   -0.0175    9.3627   -1.6155 H   0  0  0  0  0  0  0  0  0  0  0  0
   -0.9479    9.7036   -3.1138 H   0  0  0  0  0  0  0  0  0  0  0  0
    0.3198    8.4310   -3.1138 H   0  0  0  0  0  0  0  0  0  0  0  0
    0.7910   10.8425   -4.1135 H   0  0  0  0  0  0  0  0  0  0  0  0
    2.9164    9.7254   -2.2566 H   0  0  0  0  0  0  0  0  0  0  0  0
    2.3700    8.8796   -3.7824 H   0  0  0  0  0  0  0  0  0  0  0  0
    3.5438   10.2362   -5.0999 H   0  0  0  0  0  0  0  0  0  0  0  0
    3.0377   11.7074   -4.1690 H   0  0  0  0  0  0  0  0  0  0  0  0
    4.4639   10.2010   -2.5993 H   0  0  0  0  0  0  0  0  0  0  0  0
    6.0601    9.5550   -6.0409 H   0  0  0  0  0  0  0  0  0  0  0  0
    5.2133   11.1341   -6.1677 H   0  0  0  0  0  0  0  0  0  0  0  0
    7.0086   11.0752   -6.1677 H   0  0  0  0  0  0  0  0  0  0  0  0
    7.2060   10.3842   -2.4798 H   0  0  0  0  0  0  0  0  0  0  0  0
    7.6235    9.3066   -3.8549 H   0  0  0  0  0  0  0  0  0  0  0  0
    8.1732   11.0167   -3.8549 H   0  0  0  0  0  0  0  0  0  0  0  0
    0.0607   11.5574   -1.7685 H   0  0  0  0  0  0  0  0  0  0  0  0
    1.7121   10.9242   -0.1209 H   0  0  0  0  0  0  0  0  0  0  0  0
    2.9772   10.7257   -1.3525 H   0  0  0  0  0  0  0  0  0  0  0  0
    2.7394   12.9355    0.4436 H   0  0  0  0  0  0  0  0  0  0  0  0
    3.7537   12.9382   -0.9970 H   0  0  0  0  0  0  0  0  0  0  0  0
    0.8961   13.8386    0.7116 H   0  0  0  0  0  0  0  0  0  0  0  0
   -0.0228   14.8020   -0.4943 H   0  0  0  0  0  0  0  0  0  0  0  0
   -0.1460   13.0099   -0.4943 H   0  0  0  0  0  0  0  0  0  0  0  0
    3.2095   14.9603   -2.2180 H   0  0  0  0  0  0  0  0  0  0  0  0
    3.1166   15.3262    0.3316 H   0  0  0  0  0  0  0  0  0  0  0  0
    3.5425   16.7025   -0.8146 H   0  0  0  0  0  0  0  0  0  0  0  0
    1.9247   17.3027    1.1755 H   0  0  0  0  0  0  0  0  0  0  0  0
   -0.5569   16.0136   -1.7365 H   0  0  0  0  0  0  0  0  0  0  0  0
    0.4319   18.7562   -2.7328 H   0  0  0  0  0  0  0  0  0  0  0  0
   -0.7140   17.6307   -3.5880 H   0  0  0  0  0  0  0  0  0  0  0  0
   -1.8900   19.5171   -2.5007 H   0  0  0  0  0  0  0  0  0  0  0  0
   -2.3548   17.9086   -1.8211 H   0  0  0  0  0  0  0  0  0  0  0  0
   -2.0830   19.4598   -0.0112 H   0  0  0  0  0  0  0  0  0  0  0  0
    0.1190   20.1880   -1.5410 H   0  0  0  0  0  0  0  0  0  0  0  0
   -1.7540   16.9161    1.8452 H   0  0  0  0  0  0  0  0  0  0  0  0
   -2.6384   17.3266    0.3366 H   0  0  0  0  0  0  0  0  0  0  0  0
   -1.4320   15.9958    0.3366 H   0  0  0  0  0  0  0  0  0  0  0  0
   -0.5078   18.0706    2.5521 H   0  0  0  0  0  0  0  0  0  0  0  0
    1.0105   18.6032    1.7535 H   0  0  0  0  0  0  0  0  0  0  0  0
   -0.4289   19.6777    1.7535 H   0  0  0  0  0  0  0  0  0  0  0  0
    2.8239   17.6860   -2.5493 H   0  0  0  0  0  0  0  0  0  0  0  0
    3.0332   16.5684   -3.9399 H   0  0  0  0  0  0  0  0  0  0  0  0
    1.6893   17.7603   -3.9399 H   0  0  0  0  0  0  0  0  0  0  0  0
   -0.1531   15.7087   -4.1266 H   0  0  0  0  0  0  0  0  0  0  0  0
    1.5397   15.0567   -4.5052 H   0  0  0  0  0  0  0  0  0  0  0  0
   -0.5774   13.7920   -2.7429 H   0  0  0  0  0  0  0  0  0  0  0  0
    0.0851   13.1967   -4.3159 H   0  0  0  0  0  0  0  0  0  0  0  0
    3.5820   12.8053   -3.0403 H   0  0  0  0  0  0  0  0  0  0  0  0
    2.5322   12.0044   -4.2581 H   0  0  0  0  0  0  0  0  0  0  0  0
    2.7050   13.7924   -4.2581 H   0  0  0  0  0  0  0  0  0  0  0  0
  1  2  1  0
  2  3  1  0
  3  4  1  0
  4  5  1  0
  5  6  1  0
  6  7  1  0
  7  8  1  0
  7  9  1  0
  2 10  1  0
 10 11  1  0
 11 12  1  0
 12 13  1  0
 13 14  1  1
 13 15  1  0
 15 16  1  0
 16 17  1  0
 17 18  2  0
 18 19  1  0
 19 20  1  0
 20 21  1  0
 21 22  1  0
 22 23  1  0
 22 24  1  0
 24 25  1  0
 24 26  1  0
 19 27  1  0
 27 28  1  6
 27 29  1  0
 29 30  1  0
 30 31  1  0
 31 32  1  6
  7  5  1  0
 31 10  1  0
 31 13  1  0
 27 15  1  0
 24 18  1  0
  1 33  1  0
  1 34  1  0
  1 35  1  0
  2 36  1  6
  3 37  1  0
  3 38  1  0
  4 39  1  0
  4 40  1  0
  5 41  1  1
  8 42  1  0
  8 43  1  0
  8 44  1  0
  9 45  1  0
  9 46  1  0
  9 47  1  0
 10 48  1  1
 11 49  1  0
 11 50  1  0
 12 51  1  0
 12 52  1  0
 14 53  1  0
 14 54  1  0
 14 55  1  0
 15 56  1  6
 16 57  1  0
 16 58  1  0
 17 59  1  0
 19 60  1  1
 20 61  1  0
 20 62  1  0
 21 63  1  0
 21 64  1  0
 22 65  1  1
 23 66  1  0
 25 67  1  0
 25 68  1  0
 25 69  1  0
 26 70  1  0
 26 71  1  0
 26 72  1  0
 28 73  1  0
 28 74  1  0
 28 75  1  0
 29 76  1  0
 29 77  1  0
 30 78  1  0
 30 79  1  0
 32 80  1  0
 32 81  1  0
 32 82  1  0
M  END
>  <meeko>  (17) 
{"is_sidechain": [false], "intermolecular_energy": 2.731, "internal_energy": -0.839}

$$$$
EPH_relaxed_0001_pdb2pqr_Repair_402_r2_0001_out
     RDKit          3D

 82 86  0  0  0  0  0  0  0  0999 V2000
   -2.2260    7.8300   -2.2340 C   0  0  0  0  0  0  0  0  0  0  0  0
   -2.2020    8.4400   -0.8300 C   0  0  2  0  0  0  0  0  0  0  0  0
   -3.5930    8.4230   -0.1650 C   0  0  0  0  0  0  0  0  0  0  0  0
   -4.7530    8.4530   -1.1640 C   0  0  0  0  0  0  0  0  0  0  0  0
   -5.5350    7.1750   -1.1430 C   0  0  2  0  0  0  0  0  0  0  0  0
   -5.6910    6.5470   -2.4230 O   0  0  0  0  0  0  0  0  0  0  0  0
   -6.8960    7.0160   -1.7950 C   0  0  0  0  0  0  0  0  0  0  0  0
   -7.5540    8.1520   -2.5130 C   0  0  0  0  0  0  0  0  0  0  0  0
   -7.7940    5.9170   -1.3180 C   0  0  0  0  0  0  0  0  0  0  0  0
   -1.6710    9.8670   -0.8930 C   0  0  1  0  0  0  0  0  0  0  0  0
   -1.2240   10.4000    0.4950 C   0  0  0  0  0  0  0  0  0  0  0  0
   -0.0010   11.3210    0.2470 C   0  0  0  0  0  0  0  0  0  0  0  0
    0.0100   11.5520   -1.2820 C   0  0  1  0  0  0  0  0  0  0  0  0
   -1.0450   12.6760   -1.5260 C   0  0  0  0  0  0  0  0  0  0  0  0
    1.3930   11.9100   -1.9160 C   0  0  2  0  0  0  0  0  0  0  0  0
    2.0160   13.2280   -1.4210 C   0  0  0  0  0  0  0  0  0  0  0  0
    1.6550   14.4410   -2.2130 C   0  0  0  0  0  0  0  0  0  0  0  0
    1.0970   14.4380   -3.4380 C   0  0  0  0  0  0  0  0  0  0  0  0
    0.8630   13.1240   -4.1940 C   0  0  1  0  0  0  0  0  0  0  0  0
    1.3510   13.2750   -5.6590 C   0  0  0  0  0  0  0  0  0  0  0  0
    0.7230   14.4730   -6.3640 C   0  0  0  0  0  0  0  0  0  0  0  0
    1.0260   15.7680   -5.6140 C   0  0  2  0  0  0  0  0  0  0  0  0
    2.4310   16.0300   -5.6960 O   0  0  0  0  0  0  0  0  0  0  0  0
    0.5880   15.7300   -4.1230 C   0  0  0  0  0  0  0  0  0  0  0  0
   -0.9580   15.7500   -4.0350 C   0  0  0  0  0  0  0  0  0  0  0  0
    1.0780   17.0390   -3.4480 C   0  0  0  0  0  0  0  0  0  0  0  0
    1.4270   11.8120   -3.4950 C   0  0  1  0  0  0  0  0  0  0  0  0
    2.9190   11.5950   -3.8960 C   0  0  0  0  0  0  0  0  0  0  0  0
    0.6360   10.5620   -4.0340 C   0  0  0  0  0  0  0  0  0  0  0  0
   -0.6600   10.1870   -3.2910 C   0  0  0  0  0  0  0  0  0  0  0  0
   -0.4270   10.1250   -1.7790 C   0  0  2  0  0  0  0  0  0  0  0  0
    0.6140    8.9870   -1.5010 C   0  0  0  0  0  0  0  0  0  0  0  0
   -2.2691    6.7336   -2.1567 H   0  0  0  0  0  0  0  0  0  0  0  0
   -3.1105    8.1944   -2.7770 H   0  0  0  0  0  0  0  0  0  0  0  0
   -1.3156    8.1238   -2.7770 H   0  0  0  0  0  0  0  0  0  0  0  0
   -1.5342    7.8220   -0.2118 H   0  0  0  0  0  0  0  0  0  0  0  0
   -3.6782    7.5074    0.4387 H   0  0  0  0  0  0  0  0  0  0  0  0
   -3.6694    9.3358    0.4440 H   0  0  0  0  0  0  0  0  0  0  0  0
   -5.4239    9.2858   -0.9065 H   0  0  0  0  0  0  0  0  0  0  0  0
   -4.3338    8.5822   -2.1728 H   0  0  0  0  0  0  0  0  0  0  0  0
   -5.1691    6.9404   -0.1325 H   0  0  0  0  0  0  0  0  0  0  0  0
   -7.9647    8.8610   -1.7790 H   0  0  0  0  0  0  0  0  0  0  0  0
   -6.8133    8.6652   -3.1439 H   0  0  0  0  0  0  0  0  0  0  0  0
   -8.3677    7.7649   -3.1439 H   0  0  0  0  0  0  0  0  0  0  0  0
   -7.8049    5.9037   -0.2181 H   0  0  0  0  0  0  0  0  0  0  0  0
   -8.8139    6.0882   -1.6927 H   0  0  0  0  0  0  0  0  0  0  0  0
   -7.4230    4.9516   -1.6927 H   0  0  0  0  0  0  0  0  0  0  0  0
   -2.5491   10.3714   -1.3226 H   0  0  0  0  0  0  0  0  0  0  0  0
   -2.0398   10.9710    0.9623 H   0  0  0  0  0  0  0  0  0  0  0  0
   -0.9648    9.5723    1.1715 H   0  0  0  0  0  0  0  0  0  0  0  0
   -0.1180   12.2745    0.7829 H   0  0  0  0  0  0  0  0  0  0  0  0
    0.9373   10.8746    0.6081 H   0  0  0  0  0  0  0  0  0  0  0  0
   -1.4038   13.0583   -0.5590 H   0  0  0  0  0  0  0  0  0  0  0  0
   -0.5825   13.4956   -2.0955 H   0  0  0  0  0  0  0  0  0  0  0  0
   -1.8922   12.2663   -2.0955 H   0  0  0  0  0  0  0  0  0  0  0  0
    2.0428   11.1095   -1.5326 H   0  0  0  0  0  0  0  0  0  0  0  0
    1.6890   13.3899   -0.3833 H   0  0  0  0  0  0  0  0  0  0  0  0
    3.1044   13.1086   -1.5264 H   0  0  0  0  0  0  0  0  0  0  0  0
    1.8626   15.4202   -1.7568 H   0  0  0  0  0  0  0  0  0  0  0  0
   -0.2236   12.9537   -4.1785 H   0  0  0  0  0  0  0  0  0  0  0  0
    2.4438   13.4009   -5.6555 H   0  0  0  0  0  0  0  0  0  0  0  0
    1.0496   12.3697   -6.2064 H   0  0  0  0  0  0  0  0  0  0  0  0
    1.1292   14.5441   -7.3838 H   0  0  0  0  0  0  0  0  0  0  0  0
   -0.3674   14.3312   -6.3933 H   0  0  0  0  0  0  0  0  0  0  0  0
    0.4433   16.5696   -6.0914 H   0  0  0  0  0  0  0  0  0  0  0  0
    2.8640   15.5410   -4.9750 H   0  0  0  0  0  0  0  0  0  0  0  0
   -1.2651   15.7540   -2.9787 H   0  0  0  0  0  0  0  0  0  0  0  0
   -1.3419   16.6532   -4.5319 H   0  0  0  0  0  0  0  0  0  0  0  0
   -1.3651   14.8570   -4.5319 H   0  0  0  0  0  0  0  0  0  0  0  0
    1.0356   16.9258   -2.3547 H   0  0  0  0  0  0  0  0  0  0  0  0
    2.1140   17.2446   -3.7555 H   0  0  0  0  0  0  0  0  0  0  0  0
    0.4317   17.8743   -3.7555 H   0  0  0  0  0  0  0  0  0  0  0  0
    3.5334   11.5056   -2.9880 H   0  0  0  0  0  0  0  0  0  0  0  0
    3.0085   10.6744   -4.4914 H   0  0  0  0  0  0  0  0  0  0  0  0
    3.2670   12.4520   -4.4914 H   0  0  0  0  0  0  0  0  0  0  0  0
    0.3722   10.7621   -5.0830 H   0  0  0  0  0  0  0  0  0  0  0  0
    1.3117    9.7071   -3.8836 H   0  0  0  0  0  0  0  0  0  0  0  0
   -1.4295   10.9432   -3.5057 H   0  0  0  0  0  0  0  0  0  0  0  0
   -0.9876    9.1953   -3.6362 H   0  0  0  0  0  0  0  0  0  0  0  0
    0.7334    8.8565   -0.4153 H   0  0  0  0  0  0  0  0  0  0  0  0
    0.2569    8.0467   -1.9463 H   0  0  0  0  0  0  0  0  0  0  0  0
    1.5823    9.2591   -1.9463 H   0  0  0  0  0  0  0  0  0  0  0  0
  1  2  1  0
  2  3  1  0
  3  4  1  0
  4  5  1  0
  5  6  1  0
  6  7  1  0
  7  8  1  0
  7  9  1  0
  2 10  1  0
 10 11  1  0
 11 12  1  0
 12 13  1  0
 13 14  1  1
 13 15  1  0
 15 16  1  0
 16 17  1  0
 17 18  2  0
 18 19  1  0
 19 20  1  0
 20 21  1  0
 21 22  1  0
 22 23  1  0
 22 24  1  0
 24 25  1  0
 24 26  1  0
 19 27  1  0
 27 28  1  6
 27 29  1  0
 29 30  1  0
 30 31  1  0
 31 32  1  6
  7  5  1  0
 31 10  1  0
 31 13  1  0
 27 15  1  0
 24 18  1  0
  1 33  1  0
  1 34  1  0
  1 35  1  0
  2 36  1  1
  3 37  1  0
  3 38  1  0
  4 39  1  0
  4 40  1  0
  5 41  1  1
  8 42  1  0
  8 43  1  0
  8 44  1  0
  9 45  1  0
  9 46  1  0
  9 47  1  0
 10 48  1  6
 11 49  1  0
 11 50  1  0
 12 51  1  0
 12 52  1  0
 14 53  1  0
 14 54  1  0
 14 55  1  0
 15 56  1  1
 16 57  1  0
 16 58  1  0
 17 59  1  0
 19 60  1  6
 20 61  1  0
 20 62  1  0
 21 63  1  0
 21 64  1  0
 22 65  1  6
 23 66  1  0
 25 67  1  0
 25 68  1  0
 25 69  1  0
 26 70  1  0
 26 71  1  0
 26 72  1  0
 28 73  1  0
 28 74  1  0
 28 75  1  0
 29 76  1  0
 29 77  1  0
 30 78  1  0
 30 79  1  0
 32 80  1  0
 32 81  1  0
 32 82  1  0
M  END
>  <meeko>  (18) 
{"is_sidechain": [false], "intermolecular_energy": 2.731, "internal_energy": -0.839}

$$$$
