EPH_relaxed_0001_pdb2pqr_Repair_243_r2_0001_out
     RDKit          3D

 82 86  0  0  0  0  0  0  0  0999 V2000
   -1.6900    8.5870   -1.8860 C   0  0  0  0  0  0  0  0  0  0  0  0
   -2.0700    9.1070   -0.4960 C   0  0  2  0  0  0  0  0  0  0  0  0
   -3.5650    9.4690   -0.4000 C   0  0  0  0  0  0  0  0  0  0  0  0
   -4.4850    8.2520   -0.2660 C   0  0  0  0  0  0  0  0  0  0  0  0
   -5.1780    7.9360   -1.5570 C   0  0  2  0  0  0  0  0  0  0  0  0
   -6.3560    8.7110   -1.8100 O   0  0  0  0  0  0  0  0  0  0  0  0
   -6.5530    7.2990   -1.6340 C   0  0  0  0  0  0  0  0  0  0  0  0
   -7.3170    6.9400   -0.3990 C   0  0  0  0  0  0  0  0  0  0  0  0
   -6.9400    6.5840   -2.8910 C   0  0  0  0  0  0  0  0  0  0  0  0
   -1.2170   10.3200   -0.1450 C   0  0  1  0  0  0  0  0  0  0  0  0
   -0.1850   10.0200    0.9760 C   0  0  0  0  0  0  0  0  0  0  0  0
    1.0810   10.8540    0.6520 C   0  0  0  0  0  0  0  0  0  0  0  0
    0.6250   11.8480   -0.4410 C   0  0  1  0  0  0  0  0  0  0  0  0
   -0.0880   12.9990    0.3360 C   0  0  0  0  0  0  0  0  0  0  0  0
    1.7430   12.3960   -1.3870 C   0  0  2  0  0  0  0  0  0  0  0  0
    2.8410   13.2190   -0.6910 C   0  0  0  0  0  0  0  0  0  0  0  0
    2.5830   14.6870   -0.6070 C   0  0  0  0  0  0  0  0  0  0  0  0
    1.6580   15.3590   -1.3160 C   0  0  0  0  0  0  0  0  0  0  0  0
    0.8170   14.6510   -2.3870 C   0  0  1  0  0  0  0  0  0  0  0  0
    0.7870   15.5140   -3.6760 C   0  0  0  0  0  0  0  0  0  0  0  0
    0.3160   16.9410   -3.4140 C   0  0  0  0  0  0  0  0  0  0  0  0
    1.2120   17.6310   -2.3880 C   0  0  2  0  0  0  0  0  0  0  0  0
    2.5130   17.8070   -2.9560 O   0  0  0  0  0  0  0  0  0  0  0  0
    1.3260   16.8480   -1.0500 C   0  0  0  0  0  0  0  0  0  0  0  0
   -0.0210   16.9180   -0.2890 C   0  0  0  0  0  0  0  0  0  0  0  0
    2.3670   17.5780   -0.1580 C   0  0  0  0  0  0  0  0  0  0  0  0
    1.1970   13.1350   -2.6750 C   0  0  1  0  0  0  0  0  0  0  0  0
    2.3310   13.0650   -3.7430 C   0  0  0  0  0  0  0  0  0  0  0  0
   -0.0490   12.4040   -3.3020 C   0  0  0  0  0  0  0  0  0  0  0  0
   -1.0550   11.7790   -2.3170 C   0  0  0  0  0  0  0  0  0  0  0  0
   -0.3380   10.9220   -1.2700 C   0  0  2  0  0  0  0  0  0  0  0  0
    0.3700    9.7430   -2.0200 C   0  0  0  0  0  0  0  0  0  0  0  0
   -1.0439    7.7028   -1.7827 H   0  0  0  0  0  0  0  0  0  0  0  0
   -2.6018    8.3125   -2.4367 H   0  0  0  0  0  0  0  0  0  0  0  0
   -1.1515    9.3723   -2.4367 H   0  0  0  0  0  0  0  0  0  0  0  0
   -1.8800    8.2973    0.2239 H   0  0  0  0  0  0  0  0  0  0  0  0
   -3.7107   10.1132    0.4797 H   0  0  0  0  0  0  0  0  0  0  0  0
   -3.8347    9.9744   -1.3391 H   0  0  0  0  0  0  0  0  0  0  0  0
   -3.8838    7.3824    0.0380 H   0  0  0  0  0  0  0  0  0  0  0  0
   -5.2524    8.4836    0.4873 H   0  0  0  0  0  0  0  0  0  0  0  0
   -4.2204    7.6849   -2.0365 H   0  0  0  0  0  0  0  0  0  0  0  0
   -6.7294    7.2161    0.4889 H   0  0  0  0  0  0  0  0  0  0  0  0
   -8.2737    7.4828   -0.3889 H   0  0  0  0  0  0  0  0  0  0  0  0
   -7.5098    5.8571   -0.3889 H   0  0  0  0  0  0  0  0  0  0  0  0
   -7.4493    5.6430   -2.6356 H   0  0  0  0  0  0  0  0  0  0  0  0
   -7.6174    7.2193   -3.4805 H   0  0  0  0  0  0  0  0  0  0  0  0
   -6.0377    6.3643   -3.4805 H   0  0  0  0  0  0  0  0  0  0  0  0
   -2.0108   11.0294    0.1320 H   0  0  0  0  0  0  0  0  0  0  0  0
   -0.5923   10.3140    1.9546 H   0  0  0  0  0  0  0  0  0  0  0  0
    0.0496    8.9462    1.0203 H   0  0  0  0  0  0  0  0  0  0  0  0
    1.4302   11.3926    1.5453 H   0  0  0  0  0  0  0  0  0  0  0  0
    1.9205   10.2255    0.3199 H   0  0  0  0  0  0  0  0  0  0  0  0
    0.0164   12.8305    1.4180 H   0  0  0  0  0  0  0  0  0  0  0  0
    0.3721   13.9617    0.0688 H   0  0  0  0  0  0  0  0  0  0  0  0
   -1.1549   13.0158    0.0688 H   0  0  0  0  0  0  0  0  0  0  0  0
    2.2335   11.4736   -1.7314 H   0  0  0  0  0  0  0  0  0  0  0  0
    2.9552   12.8351    0.3335 H   0  0  0  0  0  0  0  0  0  0  0  0
    3.7440   13.1043   -1.3086 H   0  0  0  0  0  0  0  0  0  0  0  0
    3.2011   15.2679    0.0934 H   0  0  0  0  0  0  0  0  0  0  0  0
   -0.1981   14.5669   -1.9716 H   0  0  0  0  0  0  0  0  0  0  0  0
    1.8014   15.5498   -4.1000 H   0  0  0  0  0  0  0  0  0  0  0  0
    0.0732   15.0494   -4.3722 H   0  0  0  0  0  0  0  0  0  0  0  0
    0.3442   17.5082   -4.3561 H   0  0  0  0  0  0  0  0  0  0  0  0
   -0.7094   16.9053   -3.0175 H   0  0  0  0  0  0  0  0  0  0  0  0
    0.7511   18.5999   -2.1456 H   0  0  0  0  0  0  0  0  0  0  0  0
    3.1660   17.5640   -2.2770 H   0  0  0  0  0  0  0  0  0  0  0  0
    0.1690   16.9081    0.7944 H   0  0  0  0  0  0  0  0  0  0  0  0
   -0.5478   17.8447   -0.5604 H   0  0  0  0  0  0  0  0  0  0  0  0
   -0.6410   16.0509   -0.5604 H   0  0  0  0  0  0  0  0  0  0  0  0
    2.1251   17.4084    0.9016 H   0  0  0  0  0  0  0  0  0  0  0  0
    3.3723   17.1860   -0.3719 H   0  0  0  0  0  0  0  0  0  0  0  0
    2.3409   18.6567   -0.3719 H   0  0  0  0  0  0  0  0  0  0  0  0
    3.3066   13.0048   -3.2385 H   0  0  0  0  0  0  0  0  0  0  0  0
    2.1878   12.1740   -4.3720 H   0  0  0  0  0  0  0  0  0  0  0  0
    2.2985   13.9669   -4.3720 H   0  0  0  0  0  0  0  0  0  0  0  0
   -0.5938   13.1391   -3.9126 H   0  0  0  0  0  0  0  0  0  0  0  0
    0.3677   11.5559   -3.8651 H   0  0  0  0  0  0  0  0  0  0  0  0
   -1.6063   12.5830   -1.8074 H   0  0  0  0  0  0  0  0  0  0  0  0
   -1.7458   11.1363   -2.8824 H   0  0  0  0  0  0  0  0  0  0  0  0
    0.7914    9.0413   -1.2851 H   0  0  0  0  0  0  0  0  0  0  0  0
   -0.3621    9.2175   -2.6508 H   0  0  0  0  0  0  0  0  0  0  0  0
    1.1779   10.1423   -2.6508 H   0  0  0  0  0  0  0  0  0  0  0  0
  1  2  1  0
  2  3  1  0
  3  4  1  0
  4  5  1  0
  5  6  1  0
  6  7  1  0
  7  8  1  0
  7  9  1  0
  2 10  1  0
 10 11  1  0
 11 12  1  0
 12 13  1  0
 13 14  1  1
 13 15  1  0
 15 16  1  0
 16 17  1  0
 17 18  2  0
 18 19  1  0
 19 20  1  0
 20 21  1  0
 21 22  1  0
 22 23  1  0
 22 24  1  0
 24 25  1  0
 24 26  1  0
 19 27  1  0
 27 28  1  6
 27 29  1  0
 29 30  1  0
 30 31  1  0
 31 32  1  6
  7  5  1  0
 31 10  1  0
 31 13  1  0
 27 15  1  0
 24 18  1  0
  1 33  1  0
  1 34  1  0
  1 35  1  0
  2 36  1  1
  3 37  1  0
  3 38  1  0
  4 39  1  0
  4 40  1  0
  5 41  1  6
  8 42  1  0
  8 43  1  0
  8 44  1  0
  9 45  1  0
  9 46  1  0
  9 47  1  0
 10 48  1  1
 11 49  1  0
 11 50  1  0
 12 51  1  0
 12 52  1  0
 14 53  1  0
 14 54  1  0
 14 55  1  0
 15 56  1  6
 16 57  1  0
 16 58  1  0
 17 59  1  0
 19 60  1  1
 20 61  1  0
 20 62  1  0
 21 63  1  0
 21 64  1  0
 22 65  1  1
 23 66  1  0
 25 67  1  0
 25 68  1  0
 25 69  1  0
 26 70  1  0
 26 71  1  0
 26 72  1  0
 28 73  1  0
 28 74  1  0
 28 75  1  0
 29 76  1  0
 29 77  1  0
 30 78  1  0
 30 79  1  0
 32 80  1  0
 32 81  1  0
 32 82  1  0
M  END
>  <meeko>  (1) 
{"is_sidechain": [false], "intermolecular_energy": 2.731, "internal_energy": -0.839}

$$$$
EPH_relaxed_0001_pdb2pqr_Repair_243_r2_0001_out
     RDKit          3D

 82 86  0  0  0  0  0  0  0  0999 V2000
    4.2510   17.5700   -0.5860 C   0  0  0  0  0  0  0  0  0  0  0  0
    2.8910   18.1440   -0.1800 C   0  0  2  0  0  0  0  0  0  0  0  0
    2.9430   18.8470    1.1910 C   0  0  0  0  0  0  0  0  0  0  0  0
    4.2190   18.5540    1.9850 C   0  0  0  0  0  0  0  0  0  0  0  0
    4.1700   19.1580    3.3550 C   0  0  2  0  0  0  0  0  0  0  0  0
    5.1340   20.1940    3.5870 O   0  0  0  0  0  0  0  0  0  0  0  0
    5.2810   19.0040    4.3780 C   0  0  0  0  0  0  0  0  0  0  0  0
    6.5180   18.2200    4.0730 C   0  0  0  0  0  0  0  0  0  0  0  0
    4.9520   19.1970    5.8260 C   0  0  0  0  0  0  0  0  0  0  0  0
    1.8450   17.0350   -0.1570 C   0  0  1  0  0  0  0  0  0  0  0  0
    0.4120   17.5590   -0.4350 C   0  0  0  0  0  0  0  0  0  0  0  0
   -0.3230   16.4520   -1.2330 C   0  0  0  0  0  0  0  0  0  0  0  0
    0.5860   15.2080   -1.1010 C   0  0  1  0  0  0  0  0  0  0  0  0
    0.2410   14.6050    0.2970 C   0  0  0  0  0  0  0  0  0  0  0  0
    0.4650   14.1390   -2.2360 C   0  0  2  0  0  0  0  0  0  0  0  0
   -0.9170   13.4740   -2.3610 C   0  0  0  0  0  0  0  0  0  0  0  0
   -1.1010   12.2300   -1.5560 C   0  0  0  0  0  0  0  0  0  0  0  0
   -0.1130   11.5120   -0.9900 C   0  0  0  0  0  0  0  0  0  0  0  0
    1.3580   11.8800   -1.2170 C   0  0  1  0  0  0  0  0  0  0  0  0
    2.1660   10.6010   -1.5600 C   0  0  0  0  0  0  0  0  0  0  0  0
    1.9940    9.5030   -0.5150 C   0  0  0  0  0  0  0  0  0  0  0  0
    0.5230    9.1230   -0.3600 C   0  0  2  0  0  0  0  0  0  0  0  0
    0.0760    8.5060   -1.5710 O   0  0  0  0  0  0  0  0  0  0  0  0
   -0.3900   10.3340   -0.0220 C   0  0  0  0  0  0  0  0  0  0  0  0
   -0.1050   10.8150    1.4220 C   0  0  0  0  0  0  0  0  0  0  0  0
   -1.8620    9.8400   -0.0330 C   0  0  0  0  0  0  0  0  0  0  0  0
    1.6260   13.0650   -2.2420 C   0  0  1  0  0  0  0  0  0  0  0  0
    1.7060   12.5030   -3.6950 C   0  0  0  0  0  0  0  0  0  0  0  0
    3.0330   13.7020   -1.9350 C   0  0  0  0  0  0  0  0  0  0  0  0
    3.0690   14.8350   -0.8910 C   0  0  0  0  0  0  0  0  0  0  0  0
    2.0000   15.8900   -1.1890 C   0  0  2  0  0  0  0  0  0  0  0  0
    2.3330   16.5290   -2.5800 C   0  0  0  0  0  0  0  0  0  0  0  0
    4.8301   17.3256    0.3167 H   0  0  0  0  0  0  0  0  0  0  0  0
    4.1008   16.6585   -1.1832 H   0  0  0  0  0  0  0  0  0  0  0  0
    4.7993   18.3135   -1.1832 H   0  0  0  0  0  0  0  0  0  0  0  0
    2.6146   18.9010   -0.9287 H   0  0  0  0  0  0  0  0  0  0  0  0
    2.8775   19.9328    1.0272 H   0  0  0  0  0  0  0  0  0  0  0  0
    2.1002   18.4602    1.7827 H   0  0  0  0  0  0  0  0  0  0  0  0
    4.3376   17.4645    2.0798 H   0  0  0  0  0  0  0  0  0  0  0  0
    5.0684   18.9975    1.4449 H   0  0  0  0  0  0  0  0  0  0  0  0
    3.0840   18.9934    3.4146 H   0  0  0  0  0  0  0  0  0  0  0  0
    6.9998   17.9146    5.0136 H   0  0  0  0  0  0  0  0  0  0  0  0
    6.2511   17.3258    3.4906 H   0  0  0  0  0  0  0  0  0  0  0  0
    7.2127   18.8430    3.4906 H   0  0  0  0  0  0  0  0  0  0  0  0
    5.7365   18.7368    6.4447 H   0  0  0  0  0  0  0  0  0  0  0  0
    4.8934   20.2727    6.0485 H   0  0  0  0  0  0  0  0  0  0  0  0
    3.9845   18.7233    6.0485 H   0  0  0  0  0  0  0  0  0  0  0  0
    2.0080   16.6494    0.8602 H   0  0  0  0  0  0  0  0  0  0  0  0
   -0.1109   17.7528    0.5132 H   0  0  0  0  0  0  0  0  0  0  0  0
    0.4395   18.5015   -1.0015 H   0  0  0  0  0  0  0  0  0  0  0  0
   -1.3153   16.2556   -0.8010 H   0  0  0  0  0  0  0  0  0  0  0  0
   -0.4919   16.7361   -2.2822 H   0  0  0  0  0  0  0  0  0  0  0  0
    0.6212   15.2695    1.0869 H   0  0  0  0  0  0  0  0  0  0  0  0
   -0.8502   14.5063    0.3946 H   0  0  0  0  0  0  0  0  0  0  0  0
    0.7089   13.6143    0.3946 H   0  0  0  0  0  0  0  0  0  0  0  0
    0.5880   14.7458   -3.1452 H   0  0  0  0  0  0  0  0  0  0  0  0
   -1.6753   14.2027   -2.0387 H   0  0  0  0  0  0  0  0  0  0  0  0
   -1.0156   13.1724   -3.4143 H   0  0  0  0  0  0  0  0  0  0  0  0
   -2.1306   11.8699   -1.4135 H   0  0  0  0  0  0  0  0  0  0  0  0
    1.7155   12.3025   -0.2663 H   0  0  0  0  0  0  0  0  0  0  0  0
    1.8244   10.2184   -2.5331 H   0  0  0  0  0  0  0  0  0  0  0  0
    3.2310   10.8752   -1.5843 H   0  0  0  0  0  0  0  0  0  0  0  0
    2.5640    8.6158   -0.8278 H   0  0  0  0  0  0  0  0  0  0  0  0
    2.3639    9.8767    0.4512 H   0  0  0  0  0  0  0  0  0  0  0  0
    0.4495    8.4284    0.4898 H   0  0  0  0  0  0  0  0  0  0  0  0
   -0.8570    8.2640   -1.4510 H   0  0  0  0  0  0  0  0  0  0  0  0
   -0.5305   10.0969    2.1384 H   0  0  0  0  0  0  0  0  0  0  0  0
    0.9817   10.8871    1.5767 H   0  0  0  0  0  0  0  0  0  0  0  0
   -0.5637   11.8028    1.5767 H   0  0  0  0  0  0  0  0  0  0  0  0
   -2.2166    9.7210    1.0015 H   0  0  0  0  0  0  0  0  0  0  0  0
   -2.4919   10.5760   -0.5541 H   0  0  0  0  0  0  0  0  0  0  0  0
   -1.9204    8.8730   -0.5541 H   0  0  0  0  0  0  0  0  0  0  0  0
    1.8609   11.4146   -3.6591 H   0  0  0  0  0  0  0  0  0  0  0  0
    0.7676   12.7225   -4.2252 H   0  0  0  0  0  0  0  0  0  0  0  0
    2.5459   12.9756   -4.2252 H   0  0  0  0  0  0  0  0  0  0  0  0
    3.6916   12.8974   -1.5760 H   0  0  0  0  0  0  0  0  0  0  0  0
    3.3498   14.1697   -2.8789 H   0  0  0  0  0  0  0  0  0  0  0  0
    2.8868   14.4103    0.1072 H   0  0  0  0  0  0  0  0  0  0  0  0
    4.0572   15.3166   -0.9304 H   0  0  0  0  0  0  0  0  0  0  0  0
    2.8365   17.4952   -2.4285 H   0  0  0  0  0  0  0  0  0  0  0  0
    2.9946   15.8552   -3.1441 H   0  0  0  0  0  0  0  0  0  0  0  0
    1.4017   16.6853   -3.1441 H   0  0  0  0  0  0  0  0  0  0  0  0
  1  2  1  0
  2  3  1  0
  3  4  1  0
  4  5  1  0
  5  6  1  0
  6  7  1  0
  7  8  1  0
  7  9  1  0
  2 10  1  0
 10 11  1  0
 11 12  1  0
 12 13  1  0
 13 14  1  1
 13 15  1  0
 15 16  1  0
 16 17  1  0
 17 18  2  0
 18 19  1  0
 19 20  1  0
 20 21  1  0
 21 22  1  0
 22 23  1  0
 22 24  1  0
 24 25  1  0
 24 26  1  0
 19 27  1  0
 27 28  1  6
 27 29  1  0
 29 30  1  0
 30 31  1  0
 31 32  1  6
  7  5  1  0
 31 10  1  0
 31 13  1  0
 27 15  1  0
 24 18  1  0
  1 33  1  0
  1 34  1  0
  1 35  1  0
  2 36  1  6
  3 37  1  0
  3 38  1  0
  4 39  1  0
  4 40  1  0
  5 41  1  1
  8 42  1  0
  8 43  1  0
  8 44  1  0
  9 45  1  0
  9 46  1  0
  9 47  1  0
 10 48  1  1
 11 49  1  0
 11 50  1  0
 12 51  1  0
 12 52  1  0
 14 53  1  0
 14 54  1  0
 14 55  1  0
 15 56  1  6
 16 57  1  0
 16 58  1  0
 17 59  1  0
 19 60  1  1
 20 61  1  0
 20 62  1  0
 21 63  1  0
 21 64  1  0
 22 65  1  1
 23 66  1  0
 25 67  1  0
 25 68  1  0
 25 69  1  0
 26 70  1  0
 26 71  1  0
 26 72  1  0
 28 73  1  0
 28 74  1  0
 28 75  1  0
 29 76  1  0
 29 77  1  0
 30 78  1  0
 30 79  1  0
 32 80  1  0
 32 81  1  0
 32 82  1  0
M  END
>  <meeko>  (2) 
{"is_sidechain": [false], "intermolecular_energy": 2.731, "internal_energy": -0.839}

$$$$
EPH_relaxed_0001_pdb2pqr_Repair_243_r2_0001_out
     RDKit          3D

 82 86  0  0  0  0  0  0  0  0999 V2000
    0.4300   18.3940   -0.0080 C   0  0  0  0  0  0  0  0  0  0  0  0
    1.5190   17.3430   -0.2430 C   0  0  2  0  0  0  0  0  0  0  0  0
    2.7220   17.9170   -1.0190 C   0  0  0  0  0  0  0  0  0  0  0  0
    3.9550   18.1640   -0.1460 C   0  0  0  0  0  0  0  0  0  0  0  0
    3.5780   18.6340    1.2260 C   0  0  2  0  0  0  0  0  0  0  0  0
    3.8390   20.0210    1.4770 O   0  0  0  0  0  0  0  0  0  0  0  0
    4.5900   19.0830    2.2640 C   0  0  0  0  0  0  0  0  0  0  0  0
    6.0580   19.0830    1.9740 C   0  0  0  0  0  0  0  0  0  0  0  0
    4.1940   19.0550    3.7080 C   0  0  0  0  0  0  0  0  0  0  0  0
    0.9370   16.1500   -0.9930 C   0  0  1  0  0  0  0  0  0  0  0  0
    0.8030   16.4100   -2.5170 C   0  0  0  0  0  0  0  0  0  0  0  0
    1.0840   15.0610   -3.2280 C   0  0  0  0  0  0  0  0  0  0  0  0
    1.0410   14.0080   -2.0960 C   0  0  1  0  0  0  0  0  0  0  0  0
   -0.4770   13.7200   -1.8740 C   0  0  0  0  0  0  0  0  0  0  0  0
    1.8480   12.6920   -2.3440 C   0  0  2  0  0  0  0  0  0  0  0  0
    1.3700   11.8500   -3.5400 C   0  0  0  0  0  0  0  0  0  0  0  0
    0.3340   10.8220   -3.2220 C   0  0  0  0  0  0  0  0  0  0  0  0
    0.0150   10.3890   -1.9880 C   0  0  0  0  0  0  0  0  0  0  0  0
    0.7920   10.8730   -0.7580 C   0  0  1  0  0  0  0  0  0  0  0  0
    1.1460    9.6600    0.1410 C   0  0  0  0  0  0  0  0  0  0  0  0
   -0.0800    8.8310    0.5140 C   0  0  0  0  0  0  0  0  0  0  0  0
   -0.7930    8.3190   -0.7350 C   0  0  2  0  0  0  0  0  0  0  0  0
    0.0580    7.3790   -1.3980 O   0  0  0  0  0  0  0  0  0  0  0  0
   -1.1900    9.4530   -1.7210 C   0  0  0  0  0  0  0  0  0  0  0  0
   -2.3360   10.2970   -1.1110 C   0  0  0  0  0  0  0  0  0  0  0  0
   -1.7720    8.7910   -2.9990 C   0  0  0  0  0  0  0  0  0  0  0  0
    2.0490   11.8010   -1.0520 C   0  0  1  0  0  0  0  0  0  0  0  0
    3.3110   10.9220   -1.3100 C   0  0  0  0  0  0  0  0  0  0  0  0
    2.3620   12.6640    0.2270 C   0  0  0  0  0  0  0  0  0  0  0  0
    1.6220   14.0090    0.3560 C   0  0  0  0  0  0  0  0  0  0  0  0
    1.7290   14.8200   -0.9390 C   0  0  2  0  0  0  0  0  0  0  0  0
    3.2430   15.1440   -1.1760 C   0  0  0  0  0  0  0  0  0  0  0  0
    0.2838   18.5351    1.0731 H   0  0  0  0  0  0  0  0  0  0  0  0
    0.7357   19.3471   -0.4641 H   0  0  0  0  0  0  0  0  0  0  0  0
   -0.5117   18.0546   -0.4641 H   0  0  0  0  0  0  0  0  0  0  0  0
    1.8853   17.0199    0.7426 H   0  0  0  0  0  0  0  0  0  0  0  0
    2.9949   17.2058   -1.8125 H   0  0  0  0  0  0  0  0  0  0  0  0
    2.4106   18.8929   -1.4197 H   0  0  0  0  0  0  0  0  0  0  0  0
    4.5230   17.2261   -0.0579 H   0  0  0  0  0  0  0  0  0  0  0  0
    4.5608   18.9487   -0.6227 H   0  0  0  0  0  0  0  0  0  0  0  0
    2.7459   17.9158    1.2688 H   0  0  0  0  0  0  0  0  0  0  0  0
    6.4177   18.0459    1.9029 H   0  0  0  0  0  0  0  0  0  0  0  0
    6.2437   19.6015    1.0218 H   0  0  0  0  0  0  0  0  0  0  0  0
    6.5918   19.6015    2.7841 H   0  0  0  0  0  0  0  0  0  0  0  0
    5.0945   19.1187    4.3365 H   0  0  0  0  0  0  0  0  0  0  0  0
    3.5349   19.9088    3.9241 H   0  0  0  0  0  0  0  0  0  0  0  0
    3.6616   18.1170    3.9241 H   0  0  0  0  0  0  0  0  0  0  0  0
   -0.0163   16.0420   -0.4550 H   0  0  0  0  0  0  0  0  0  0  0  0
   -0.2131   16.7584   -2.7538 H   0  0  0  0  0  0  0  0  0  0  0  0
    1.5090   17.1856   -2.8487 H   0  0  0  0  0  0  0  0  0  0  0  0
    0.3119   14.8515   -3.9829 H   0  0  0  0  0  0  0  0  0  0  0  0
    2.0464   15.0623   -3.7606 H   0  0  0  0  0  0  0  0  0  0  0  0
   -0.6887   13.6798   -0.7953 H   0  0  0  0  0  0  0  0  0  0  0  0
   -1.0734   14.5210   -2.3351 H   0  0  0  0  0  0  0  0  0  0  0  0
   -0.7386   12.7562   -2.3351 H   0  0  0  0  0  0  0  0  0  0  0  0
    2.8409   13.0732   -2.6249 H   0  0  0  0  0  0  0  0  0  0  0  0
    0.9502   12.5346   -4.2917 H   0  0  0  0  0  0  0  0  0  0  0  0
    2.2515   11.2950   -3.8936 H   0  0  0  0  0  0  0  0  0  0  0  0
   -0.2146   10.3816   -4.0676 H   0  0  0  0  0  0  0  0  0  0  0  0
    0.1151   11.5526   -0.2195 H   0  0  0  0  0  0  0  0  0  0  0  0
    1.8561    9.0163   -0.3988 H   0  0  0  0  0  0  0  0  0  0  0  0
    1.5814   10.0504    1.0727 H   0  0  0  0  0  0  0  0  0  0  0  0
    0.2378    7.9728    1.1244 H   0  0  0  0  0  0  0  0  0  0  0  0
   -0.7760    9.4683    1.0792 H   0  0  0  0  0  0  0  0  0  0  0  0
   -1.7307    7.8445   -0.4099 H   0  0  0  0  0  0  0  0  0  0  0  0
    0.9360    7.7870   -1.4830 H   0  0  0  0  0  0  0  0  0  0  0  0
   -2.2784   10.2546   -0.0133 H   0  0  0  0  0  0  0  0  0  0  0  0
   -2.2392   11.3412   -1.4432 H   0  0  0  0  0  0  0  0  0  0  0  0
   -3.3045    9.8948   -1.4432 H   0  0  0  0  0  0  0  0  0  0  0  0
   -2.4731    7.9935   -2.7120 H   0  0  0  0  0  0  0  0  0  0  0  0
   -2.3021    9.5483   -3.5953 H   0  0  0  0  0  0  0  0  0  0  0  0
   -0.9531    8.3622   -3.5953 H   0  0  0  0  0  0  0  0  0  0  0  0
    3.7485   10.6173   -0.3479 H   0  0  0  0  0  0  0  0  0  0  0  0
    3.0240   10.0274   -1.8821 H   0  0  0  0  0  0  0  0  0  0  0  0
    4.0507   11.5013   -1.8821 H   0  0  0  0  0  0  0  0  0  0  0  0
    2.1061   12.0576    1.1083 H   0  0  0  0  0  0  0  0  0  0  0  0
    3.4264   12.9283    0.1423 H   0  0  0  0  0  0  0  0  0  0  0  0
    0.5610   13.8166    0.5734 H   0  0  0  0  0  0  0  0  0  0  0  0
    2.0834   14.5865    1.1706 H   0  0  0  0  0  0  0  0  0  0  0  0
    3.7509   15.2527   -0.2063 H   0  0  0  0  0  0  0  0  0  0  0  0
    3.7086   14.3252   -1.7441 H   0  0  0  0  0  0  0  0  0  0  0  0
    3.3327   16.0817   -1.7441 H   0  0  0  0  0  0  0  0  0  0  0  0
  1  2  1  0
  2  3  1  0
  3  4  1  0
  4  5  1  0
  5  6  1  0
  6  7  1  0
  7  8  1  0
  7  9  1  0
  2 10  1  0
 10 11  1  0
 11 12  1  0
 12 13  1  0
 13 14  1  1
 13 15  1  0
 15 16  1  0
 16 17  1  0
 17 18  2  0
 18 19  1  0
 19 20  1  0
 20 21  1  0
 21 22  1  0
 22 23  1  0
 22 24  1  0
 24 25  1  0
 24 26  1  0
 19 27  1  0
 27 28  1  6
 27 29  1  0
 29 30  1  0
 30 31  1  0
 31 32  1  6
  7  5  1  0
 31 10  1  0
 31 13  1  0
 27 15  1  0
 24 18  1  0
  1 33  1  0
  1 34  1  0
  1 35  1  0
  2 36  1  1
  3 37  1  0
  3 38  1  0
  4 39  1  0
  4 40  1  0
  5 41  1  1
  8 42  1  0
  8 43  1  0
  8 44  1  0
  9 45  1  0
  9 46  1  0
  9 47  1  0
 10 48  1  1
 11 49  1  0
 11 50  1  0
 12 51  1  0
 12 52  1  0
 14 53  1  0
 14 54  1  0
 14 55  1  0
 15 56  1  6
 16 57  1  0
 16 58  1  0
 17 59  1  0
 19 60  1  1
 20 61  1  0
 20 62  1  0
 21 63  1  0
 21 64  1  0
 22 65  1  1
 23 66  1  0
 25 67  1  0
 25 68  1  0
 25 69  1  0
 26 70  1  0
 26 71  1  0
 26 72  1  0
 28 73  1  0
 28 74  1  0
 28 75  1  0
 29 76  1  0
 29 77  1  0
 30 78  1  0
 30 79  1  0
 32 80  1  0
 32 81  1  0
 32 82  1  0
M  END
>  <meeko>  (3) 
{"is_sidechain": [false], "intermolecular_energy": 2.731, "internal_energy": -0.839}

$$$$
EPH_relaxed_0001_pdb2pqr_Repair_243_r2_0001_out
     RDKit          3D

 82 86  0  0  0  0  0  0  0  0999 V2000
    2.2310   17.9610   -2.6000 C   0  0  0  0  0  0  0  0  0  0  0  0
    0.7070   17.8190   -2.6650 C   0  0  2  0  0  0  0  0  0  0  0  0
    0.0240   18.2940   -1.3670 C   0  0  0  0  0  0  0  0  0  0  0  0
    0.7760   17.8970   -0.0940 C   0  0  0  0  0  0  0  0  0  0  0  0
    1.3100   19.0940    0.6310 C   0  0  2  0  0  0  0  0  0  0  0  0
    2.2140   19.9030   -0.1330 O   0  0  0  0  0  0  0  0  0  0  0  0
    2.7670   19.2540    1.0240 C   0  0  0  0  0  0  0  0  0  0  0  0
    3.7810   18.2010    0.7040 C   0  0  0  0  0  0  0  0  0  0  0  0
    3.1090   20.1940    2.1370 C   0  0  0  0  0  0  0  0  0  0  0  0
    0.3320   16.3700   -2.9510 C   0  0  1  0  0  0  0  0  0  0  0  0
    0.4070   16.0200   -4.4610 C   0  0  0  0  0  0  0  0  0  0  0  0
    0.8880   14.5500   -4.5570 C   0  0  0  0  0  0  0  0  0  0  0  0
    0.7560   14.0020   -3.1160 C   0  0  1  0  0  0  0  0  0  0  0  0
   -0.7520   13.6300   -2.9650 C   0  0  0  0  0  0  0  0  0  0  0  0
    1.6860   12.8010   -2.7460 C   0  0  2  0  0  0  0  0  0  0  0  0
    1.4540   11.5190   -3.5640 C   0  0  0  0  0  0  0  0  0  0  0  0
    0.4620   10.5640   -2.9860 C   0  0  0  0  0  0  0  0  0  0  0  0
   -0.0040   10.5890   -1.7230 C   0  0  0  0  0  0  0  0  0  0  0  0
    0.5460   11.5930   -0.7010 C   0  0  1  0  0  0  0  0  0  0  0  0
    0.8510   10.8600    0.6310 C   0  0  0  0  0  0  0  0  0  0  0  0
   -0.3510   10.0850    1.1620 C   0  0  0  0  0  0  0  0  0  0  0  0
   -0.8320    9.0580    0.1410 C   0  0  2  0  0  0  0  0  0  0  0  0
    0.1740    8.0520   -0.0100 O   0  0  0  0  0  0  0  0  0  0  0  0
   -1.1610    9.6790   -1.2450 C   0  0  0  0  0  0  0  0  0  0  0  0
   -2.4440   10.5400   -1.1380 C   0  0  0  0  0  0  0  0  0  0  0  0
   -1.4970    8.5190   -2.2210 C   0  0  0  0  0  0  0  0  0  0  0  0
    1.7600   12.4920   -1.1950 C   0  0  1  0  0  0  0  0  0  0  0  0
    3.1070   11.7460   -0.9530 C   0  0  0  0  0  0  0  0  0  0  0  0
    1.8150   13.8030   -0.3260 C   0  0  0  0  0  0  0  0  0  0  0  0
    0.9670   14.9950   -0.8100 C   0  0  0  0  0  0  0  0  0  0  0  0
    1.2040   15.2680   -2.2990 C   0  0  2  0  0  0  0  0  0  0  0  0
    2.7080   15.6660   -2.4780 C   0  0  0  0  0  0  0  0  0  0  0  0
    2.5519   17.9909   -1.5483 H   0  0  0  0  0  0  0  0  0  0  0  0
    2.7010   17.1028   -3.1025 H   0  0  0  0  0  0  0  0  0  0  0  0
    2.5343   18.8913   -3.1025 H   0  0  0  0  0  0  0  0  0  0  0  0
    0.3488   18.4636   -3.4813 H   0  0  0  0  0  0  0  0  0  0  0  0
   -0.0532   19.3909   -1.3967 H   0  0  0  0  0  0  0  0  0  0  0  0
   -0.9602   17.8045   -1.3244 H   0  0  0  0  0  0  0  0  0  0  0  0
    0.0883   17.3547    0.5716 H   0  0  0  0  0  0  0  0  0  0  0  0
    1.6275   17.2633   -0.3827 H   0  0  0  0  0  0  0  0  0  0  0  0
    0.3764   19.1919    1.2044 H   0  0  0  0  0  0  0  0  0  0  0  0
    4.1833   17.7833    1.6387 H   0  0  0  0  0  0  0  0  0  0  0  0
    3.3056   17.3999    0.1190 H   0  0  0  0  0  0  0  0  0  0  0  0
    4.5995   18.6459    0.1190 H   0  0  0  0  0  0  0  0  0  0  0  0
    2.9291   19.6995    3.1029 H   0  0  0  0  0  0  0  0  0  0  0  0
    4.1687   20.4797    2.0631 H   0  0  0  0  0  0  0  0  0  0  0  0
    2.4806   21.0938    2.0631 H   0  0  0  0  0  0  0  0  0  0  0  0
   -0.6802   16.3535   -2.5207 H   0  0  0  0  0  0  0  0  0  0  0  0
   -0.5855   16.1246   -4.9236 H   0  0  0  0  0  0  0  0  0  0  0  0
    1.0960   16.6958   -4.9889 H   0  0  0  0  0  0  0  0  0  0  0  0
    0.2532   13.9780   -5.2498 H   0  0  0  0  0  0  0  0  0  0  0  0
    1.9158   14.4713   -4.9410 H   0  0  0  0  0  0  0  0  0  0  0  0
   -1.0089   13.5666   -1.8973 H   0  0  0  0  0  0  0  0  0  0  0  0
   -1.3702   14.4026   -3.4456 H   0  0  0  0  0  0  0  0  0  0  0  0
   -0.9399   12.6586   -3.4456 H   0  0  0  0  0  0  0  0  0  0  0  0
    2.6778   13.1704   -3.0458 H   0  0  0  0  0  0  0  0  0  0  0  0
    1.1005   11.8128   -4.5633 H   0  0  0  0  0  0  0  0  0  0  0  0
    2.4169   10.9873   -3.5759 H   0  0  0  0  0  0  0  0  0  0  0  0
    0.0796    9.7732   -3.6481 H   0  0  0  0  0  0  0  0  0  0  0  0
   -0.2505   12.3355   -0.5452 H   0  0  0  0  0  0  0  0  0  0  0  0
    1.6789   10.1552    0.4639 H   0  0  0  0  0  0  0  0  0  0  0  0
    1.1128   11.6228    1.3790 H   0  0  0  0  0  0  0  0  0  0  0  0
   -0.0637    9.5650    2.0877 H   0  0  0  0  0  0  0  0  0  0  0  0
   -1.1681   10.7950    1.3575 H   0  0  0  0  0  0  0  0  0  0  0  0
   -1.7699    8.6284    0.5228 H   0  0  0  0  0  0  0  0  0  0  0  0
    0.3490    7.6770    0.8700 H   0  0  0  0  0  0  0  0  0  0  0  0
   -2.6882   10.7039   -0.0781 H   0  0  0  0  0  0  0  0  0  0  0  0
   -2.2770   11.5096   -1.6300 H   0  0  0  0  0  0  0  0  0  0  0  0
   -3.2780   10.0180   -1.6300 H   0  0  0  0  0  0  0  0  0  0  0  0
   -1.7577    7.6189   -1.6449 H   0  0  0  0  0  0  0  0  0  0  0  0
   -2.3483    8.8080   -2.8548 H   0  0  0  0  0  0  0  0  0  0  0  0
   -0.6230    8.3083   -2.8548 H   0  0  0  0  0  0  0  0  0  0  0  0
    3.2830   11.6485    0.1284 H   0  0  0  0  0  0  0  0  0  0  0  0
    3.0592   10.7458   -1.4083 H   0  0  0  0  0  0  0  0  0  0  0  0
    3.9294   12.3172   -1.4083 H   0  0  0  0  0  0  0  0  0  0  0  0
    1.4765   13.5442    0.6881 H   0  0  0  0  0  0  0  0  0  0  0  0
    2.8578   14.1471   -0.3910 H   0  0  0  0  0  0  0  0  0  0  0  0
   -0.0974   14.7676   -0.6508 H   0  0  0  0  0  0  0  0  0  0  0  0
    1.2595   15.8884   -0.2387 H   0  0  0  0  0  0  0  0  0  0  0  0
    3.1747   15.7895   -1.4896 H   0  0  0  0  0  0  0  0  0  0  0  0
    3.2326   14.8758   -3.0351 H   0  0  0  0  0  0  0  0  0  0  0  0
    2.7731   16.6123   -3.0351 H   0  0  0  0  0  0  0  0  0  0  0  0
  1  2  1  0
  2  3  1  0
  3  4  1  0
  4  5  1  0
  5  6  1  0
  6  7  1  0
  7  8  1  0
  7  9  1  0
  2 10  1  0
 10 11  1  0
 11 12  1  0
 12 13  1  0
 13 14  1  1
 13 15  1  0
 15 16  1  0
 16 17  1  0
 17 18  2  0
 18 19  1  0
 19 20  1  0
 20 21  1  0
 21 22  1  0
 22 23  1  0
 22 24  1  0
 24 25  1  0
 24 26  1  0
 19 27  1  0
 27 28  1  6
 27 29  1  0
 29 30  1  0
 30 31  1  0
 31 32  1  1
  7  5  1  0
 31 10  1  0
 31 13  1  0
 27 15  1  0
 24 18  1  0
  1 33  1  0
  1 34  1  0
  1 35  1  0
  2 36  1  6
  3 37  1  0
  3 38  1  0
  4 39  1  0
  4 40  1  0
  5 41  1  1
  8 42  1  0
  8 43  1  0
  8 44  1  0
  9 45  1  0
  9 46  1  0
  9 47  1  0
 10 48  1  1
 11 49  1  0
 11 50  1  0
 12 51  1  0
 12 52  1  0
 14 53  1  0
 14 54  1  0
 14 55  1  0
 15 56  1  6
 16 57  1  0
 16 58  1  0
 17 59  1  0
 19 60  1  1
 20 61  1  0
 20 62  1  0
 21 63  1  0
 21 64  1  0
 22 65  1  1
 23 66  1  0
 25 67  1  0
 25 68  1  0
 25 69  1  0
 26 70  1  0
 26 71  1  0
 26 72  1  0
 28 73  1  0
 28 74  1  0
 28 75  1  0
 29 76  1  0
 29 77  1  0
 30 78  1  0
 30 79  1  0
 32 80  1  0
 32 81  1  0
 32 82  1  0
M  END
>  <meeko>  (4) 
{"is_sidechain": [false], "intermolecular_energy": 2.731, "internal_energy": -0.839}

$$$$
EPH_relaxed_0001_pdb2pqr_Repair_243_r2_0001_out
     RDKit          3D

 82 86  0  0  0  0  0  0  0  0999 V2000
    2.1640   18.2910   -2.9060 C   0  0  0  0  0  0  0  0  0  0  0  0
    1.1960   17.7140   -1.8680 C   0  0  2  0  0  0  0  0  0  0  0  0
    1.8310   17.6330   -0.4650 C   0  0  0  0  0  0  0  0  0  0  0  0
    1.2750   18.6630    0.5220 C   0  0  0  0  0  0  0  0  0  0  0  0
    0.2230   19.5240   -0.1090 C   0  0  2  0  0  0  0  0  0  0  0  0
   -0.6390   20.1940    0.8210 O   0  0  0  0  0  0  0  0  0  0  0  0
   -1.2620   19.2210   -0.0330 C   0  0  0  0  0  0  0  0  0  0  0  0
   -1.7760   18.0160    0.6900 C   0  0  0  0  0  0  0  0  0  0  0  0
   -2.1670   19.8170   -1.0660 C   0  0  0  0  0  0  0  0  0  0  0  0
    0.7250   16.3330   -2.3080 C   0  0  1  0  0  0  0  0  0  0  0  0
    0.8150   16.1320   -3.8440 C   0  0  0  0  0  0  0  0  0  0  0  0
    1.1910   14.6460   -4.0790 C   0  0  0  0  0  0  0  0  0  0  0  0
    0.9800   13.9680   -2.7050 C   0  0  1  0  0  0  0  0  0  0  0  0
   -0.5550   13.6980   -2.6220 C   0  0  0  0  0  0  0  0  0  0  0  0
    1.8100   12.6700   -2.4400 C   0  0  2  0  0  0  0  0  0  0  0  0
    1.5080   11.4980   -3.3900 C   0  0  0  0  0  0  0  0  0  0  0  0
    0.4340   10.5670   -2.9320 C   0  0  0  0  0  0  0  0  0  0  0  0
   -0.0630   10.5010   -1.6820 C   0  0  0  0  0  0  0  0  0  0  0  0
    0.5300   11.3520   -0.5530 C   0  0  1  0  0  0  0  0  0  0  0  0
    0.7450   10.4690    0.7040 C   0  0  0  0  0  0  0  0  0  0  0  0
   -0.5250    9.7370    1.1290 C   0  0  0  0  0  0  0  0  0  0  0  0
   -1.0510    8.8560   -0.0010 C   0  0  2  0  0  0  0  0  0  0  0  0
   -0.1170    7.7980   -0.2330 O   0  0  0  0  0  0  0  0  0  0  0  0
   -1.2970    9.6360   -1.3220 C   0  0  0  0  0  0  0  0  0  0  0  0
   -2.5160   10.5760   -1.1540 C   0  0  0  0  0  0  0  0  0  0  0  0
   -1.6890    8.6080   -2.4180 C   0  0  0  0  0  0  0  0  0  0  0  0
    1.8190   12.2030   -0.9290 C   0  0  1  0  0  0  0  0  0  0  0  0
    3.1010   11.3370   -0.7370 C   0  0  0  0  0  0  0  0  0  0  0  0
    1.9460   13.4130    0.0710 C   0  0  0  0  0  0  0  0  0  0  0  0
    1.2000   14.7070   -0.3060 C   0  0  0  0  0  0  0  0  0  0  0  0
    1.4960   15.1090   -1.7540 C   0  0  2  0  0  0  0  0  0  0  0  0
    3.0300   15.4090   -1.8620 C   0  0  0  0  0  0  0  0  0  0  0  0
    2.9992   18.7888   -2.3916 H   0  0  0  0  0  0  0  0  0  0  0  0
    2.5538   17.4777   -3.5358 H   0  0  0  0  0  0  0  0  0  0  0  0
    1.6340   19.0207   -3.5358 H   0  0  0  0  0  0  0  0  0  0  0  0
    0.3354   18.3960   -1.8019 H   0  0  0  0  0  0  0  0  0  0  0  0
    1.6474   16.6276   -0.0581 H   0  0  0  0  0  0  0  0  0  0  0  0
    2.9032   17.8478   -0.5843 H   0  0  0  0  0  0  0  0  0  0  0  0
    0.8348   18.1333    1.3797 H   0  0  0  0  0  0  0  0  0  0  0  0
    2.1029   19.3126    0.8423 H   0  0  0  0  0  0  0  0  0  0  0  0
    0.8864   19.7560   -0.9552 H   0  0  0  0  0  0  0  0  0  0  0  0
   -1.7053   18.1817    1.7752 H   0  0  0  0  0  0  0  0  0  0  0  0
   -2.8264   17.8426    0.4132 H   0  0  0  0  0  0  0  0  0  0  0  0
   -1.1741   17.1379    0.4132 H   0  0  0  0  0  0  0  0  0  0  0  0
   -2.9863   20.3565   -0.5683 H   0  0  0  0  0  0  0  0  0  0  0  0
   -1.5958   20.5163   -1.6943 H   0  0  0  0  0  0  0  0  0  0  0  0
   -2.5838   19.0161   -1.6943 H   0  0  0  0  0  0  0  0  0  0  0  0
   -0.2972   16.3490   -1.9019 H   0  0  0  0  0  0  0  0  0  0  0  0
   -0.1545   16.3562   -4.3129 H   0  0  0  0  0  0  0  0  0  0  0  0
    1.5645   16.8041   -4.2872 H   0  0  0  0  0  0  0  0  0  0  0  0
    0.5360   14.1952   -4.8391 H   0  0  0  0  0  0  0  0  0  0  0  0
    2.2208   14.5296   -4.4478 H   0  0  0  0  0  0  0  0  0  0  0  0
   -0.8613   13.6441   -1.5669 H   0  0  0  0  0  0  0  0  0  0  0  0
   -1.0984   14.5144   -3.1203 H   0  0  0  0  0  0  0  0  0  0  0  0
   -0.7872   12.7452   -3.1203 H   0  0  0  0  0  0  0  0  0  0  0  0
    2.8343   12.9919   -2.6791 H   0  0  0  0  0  0  0  0  0  0  0  0
    1.2039   11.9168   -4.3606 H   0  0  0  0  0  0  0  0  0  0  0  0
    2.4297   10.8996   -3.4381 H   0  0  0  0  0  0  0  0  0  0  0  0
    0.0134    9.8771   -3.6784 H   0  0  0  0  0  0  0  0  0  0  0  0
   -0.2151   12.1320   -0.3377 H   0  0  0  0  0  0  0  0  0  0  0  0
    1.5239    9.7244    0.4829 H   0  0  0  0  0  0  0  0  0  0  0  0
    1.0412   11.1314    1.5307 H   0  0  0  0  0  0  0  0  0  0  0  0
   -0.3021    9.1069    2.0027 H   0  0  0  0  0  0  0  0  0  0  0  0
   -1.2934   10.4834    1.3790 H   0  0  0  0  0  0  0  0  0  0  0  0
   -2.0276    8.4610    0.3156 H   0  0  0  0  0  0  0  0  0  0  0  0
    0.7050    8.0230    0.2350 H   0  0  0  0  0  0  0  0  0  0  0  0
   -2.7155   10.7299   -0.0832 H   0  0  0  0  0  0  0  0  0  0  0  0
   -2.3007   11.5442   -1.6297 H   0  0  0  0  0  0  0  0  0  0  0  0
   -3.3977   10.1217   -1.6297 H   0  0  0  0  0  0  0  0  0  0  0  0
   -2.0423    7.6814   -1.9420 H   0  0  0  0  0  0  0  0  0  0  0  0
   -2.4904    9.0272   -3.0441 H   0  0  0  0  0  0  0  0  0  0  0  0
   -0.8120    8.3872   -3.0441 H   0  0  0  0  0  0  0  0  0  0  0  0
    3.2967   11.2048    0.3374 H   0  0  0  0  0  0  0  0  0  0  0  0
    2.9527   10.3533   -1.2064 H   0  0  0  0  0  0  0  0  0  0  0  0
    3.9582   11.8418   -1.2064 H   0  0  0  0  0  0  0  0  0  0  0  0
    1.5624   13.0800    1.0467 H   0  0  0  0  0  0  0  0  0  0  0  0
    3.0124   13.6827    0.0625 H   0  0  0  0  0  0  0  0  0  0  0  0
    0.1180   14.5448   -0.1917 H   0  0  0  0  0  0  0  0  0  0  0  0
    1.5409   15.5145    0.3586 H   0  0  0  0  0  0  0  0  0  0  0  0
    3.4591   15.4929   -0.8526 H   0  0  0  0  0  0  0  0  0  0  0  0
    3.5263   14.5909   -2.4046 H   0  0  0  0  0  0  0  0  0  0  0  0
    3.1815   16.3538   -2.4046 H   0  0  0  0  0  0  0  0  0  0  0  0
  1  2  1  0
  2  3  1  0
  3  4  1  0
  4  5  1  0
  5  6  1  0
  6  7  1  0
  7  8  1  0
  7  9  1  0
  2 10  1  0
 10 11  1  0
 11 12  1  0
 12 13  1  0
 13 14  1  1
 13 15  1  0
 15 16  1  0
 16 17  1  0
 17 18  2  0
 18 19  1  0
 19 20  1  0
 20 21  1  0
 21 22  1  0
 22 23  1  0
 22 24  1  0
 24 25  1  0
 24 26  1  0
 19 27  1  0
 27 28  1  6
 27 29  1  0
 29 30  1  0
 30 31  1  0
 31 32  1  1
  7  5  1  0
 31 10  1  0
 31 13  1  0
 27 15  1  0
 24 18  1  0
  1 33  1  0
  1 34  1  0
  1 35  1  0
  2 36  1  1
  3 37  1  0
  3 38  1  0
  4 39  1  0
  4 40  1  0
  5 41  1  6
  8 42  1  0
  8 43  1  0
  8 44  1  0
  9 45  1  0
  9 46  1  0
  9 47  1  0
 10 48  1  1
 11 49  1  0
 11 50  1  0
 12 51  1  0
 12 52  1  0
 14 53  1  0
 14 54  1  0
 14 55  1  0
 15 56  1  6
 16 57  1  0
 16 58  1  0
 17 59  1  0
 19 60  1  1
 20 61  1  0
 20 62  1  0
 21 63  1  0
 21 64  1  0
 22 65  1  1
 23 66  1  0
 25 67  1  0
 25 68  1  0
 25 69  1  0
 26 70  1  0
 26 71  1  0
 26 72  1  0
 28 73  1  0
 28 74  1  0
 28 75  1  0
 29 76  1  0
 29 77  1  0
 30 78  1  0
 30 79  1  0
 32 80  1  0
 32 81  1  0
 32 82  1  0
M  END
>  <meeko>  (5) 
{"is_sidechain": [false], "intermolecular_energy": 2.731, "internal_energy": -0.839}

$$$$
EPH_relaxed_0001_pdb2pqr_Repair_243_r2_0001_out
     RDKit          3D

 82 86  0  0  0  0  0  0  0  0999 V2000
   -3.4010    9.3130    0.5430 C   0  0  0  0  0  0  0  0  0  0  0  0
   -2.5780    9.6790   -0.6950 C   0  0  2  0  0  0  0  0  0  0  0  0
   -1.9110    8.4450   -1.3350 C   0  0  0  0  0  0  0  0  0  0  0  0
   -2.8270    7.6760   -2.2920 C   0  0  0  0  0  0  0  0  0  0  0  0
   -4.2650    7.7790   -1.8840 C   0  0  2  0  0  0  0  0  0  0  0  0
   -4.8140    6.5820   -1.3180 O   0  0  0  0  0  0  0  0  0  0  0  0
   -5.3840    7.0130   -2.5640 C   0  0  0  0  0  0  0  0  0  0  0  0
   -5.1130    6.0890   -3.7100 C   0  0  0  0  0  0  0  0  0  0  0  0
   -6.7840    7.5300   -2.4400 C   0  0  0  0  0  0  0  0  0  0  0  0
   -1.5190   10.7120   -0.3290 C   0  0  1  0  0  0  0  0  0  0  0  0
   -0.4190   10.1360    0.6020 C   0  0  0  0  0  0  0  0  0  0  0  0
    0.9100   10.8290    0.2060 C   0  0  0  0  0  0  0  0  0  0  0  0
    0.4810   12.0080   -0.6990 C   0  0  1  0  0  0  0  0  0  0  0  0
    0.0430   13.1330    0.2890 C   0  0  0  0  0  0  0  0  0  0  0  0
    1.5490   12.5190   -1.7200 C   0  0  2  0  0  0  0  0  0  0  0  0
    2.8310   13.0920   -1.0910 C   0  0  0  0  0  0  0  0  0  0  0  0
    2.8050   14.5580   -0.8110 C   0  0  0  0  0  0  0  0  0  0  0  0
    1.9130   15.4330   -1.3100 C   0  0  0  0  0  0  0  0  0  0  0  0
    0.8570   14.9870   -2.3300 C   0  0  1  0  0  0  0  0  0  0  0  0
    0.8040   16.0050   -3.4990 C   0  0  0  0  0  0  0  0  0  0  0  0
    0.5840   17.4370   -3.0200 C   0  0  0  0  0  0  0  0  0  0  0  0
    1.6850   17.8630   -2.0530 C   0  0  2  0  0  0  0  0  0  0  0  0
    2.9230   17.9360   -2.7680 O   0  0  0  0  0  0  0  0  0  0  0  0
    1.8390   16.9060   -0.8380 C   0  0  0  0  0  0  0  0  0  0  0  0
    0.6160   17.0560    0.1000 C   0  0  0  0  0  0  0  0  0  0  0  0
    3.0740   17.3700   -0.0190 C   0  0  0  0  0  0  0  0  0  0  0  0
    0.9710   13.4840   -2.8330 C   0  0  1  0  0  0  0  0  0  0  0  0
    1.9490   13.4020   -4.0450 C   0  0  0  0  0  0  0  0  0  0  0  0
   -0.4340   13.0120   -3.3640 C   0  0  0  0  0  0  0  0  0  0  0  0
   -1.4000   12.4050   -2.3280 C   0  0  0  0  0  0  0  0  0  0  0  0
   -0.7000   11.3330   -1.4880 C   0  0  2  0  0  0  0  0  0  0  0  0
   -0.2670   10.1760   -2.4530 C   0  0  0  0  0  0  0  0  0  0  0  0
   -2.8318    9.5661    1.4496 H   0  0  0  0  0  0  0  0  0  0  0  0
   -4.3462    9.8756    0.5344 H   0  0  0  0  0  0  0  0  0  0  0  0
   -3.6163    8.2343    0.5344 H   0  0  0  0  0  0  0  0  0  0  0  0
   -3.2696   10.1029   -1.4379 H   0  0  0  0  0  0  0  0  0  0  0  0
   -1.0261    8.7804   -1.8958 H   0  0  0  0  0  0  0  0  0  0  0  0
   -1.6534    7.7580   -0.5155 H   0  0  0  0  0  0  0  0  0  0  0  0
   -2.7131    8.0901   -3.3047 H   0  0  0  0  0  0  0  0  0  0  0  0
   -2.5378    6.6150   -2.2656 H   0  0  0  0  0  0  0  0  0  0  0  0
   -4.1433    8.8442   -1.6378 H   0  0  0  0  0  0  0  0  0  0  0  0
   -4.8232    5.1007   -3.3236 H   0  0  0  0  0  0  0  0  0  0  0  0
   -6.0202    5.9908   -4.3243 H   0  0  0  0  0  0  0  0  0  0  0  0
   -4.2965    6.4964   -4.3243 H   0  0  0  0  0  0  0  0  0  0  0  0
   -7.0462    7.6268   -1.3761 H   0  0  0  0  0  0  0  0  0  0  0  0
   -6.8559    8.5140   -2.9264 H   0  0  0  0  0  0  0  0  0  0  0  0
   -7.4782    6.8289   -2.9264 H   0  0  0  0  0  0  0  0  0  0  0  0
   -2.1606   11.4784    0.1303 H   0  0  0  0  0  0  0  0  0  0  0  0
   -0.6607   10.3527    1.6530 H   0  0  0  0  0  0  0  0  0  0  0  0
   -0.3424    9.0440    0.4943 H   0  0  0  0  0  0  0  0  0  0  0  0
    1.4372   11.1966    1.0987 H   0  0  0  0  0  0  0  0  0  0  0  0
    1.6026   10.1428   -0.3034 H   0  0  0  0  0  0  0  0  0  0  0  0
    0.1784   12.7853    1.3238 H   0  0  0  0  0  0  0  0  0  0  0  0
    0.6579   14.0293    0.1199 H   0  0  0  0  0  0  0  0  0  0  0  0
   -1.0160   13.3776    0.1199 H   0  0  0  0  0  0  0  0  0  0  0  0
    1.8535   11.5917   -2.2273 H   0  0  0  0  0  0  0  0  0  0  0  0
    3.0065   12.5676   -0.1401 H   0  0  0  0  0  0  0  0  0  0  0  0
    3.6283   12.9386   -1.8331 H   0  0  0  0  0  0  0  0  0  0  0  0
    3.5804   14.9565   -0.1402 H   0  0  0  0  0  0  0  0  0  0  0  0
   -0.1033   14.9855   -1.7935 H   0  0  0  0  0  0  0  0  0  0  0  0
    1.7555   15.9597   -4.0491 H   0  0  0  0  0  0  0  0  0  0  0  0
   -0.0480   15.7331   -4.1394 H   0  0  0  0  0  0  0  0  0  0  0  0
    0.5867   18.1118   -3.8887 H   0  0  0  0  0  0  0  0  0  0  0  0
   -0.3823   17.4880   -2.4969 H   0  0  0  0  0  0  0  0  0  0  0  0
    1.4030   18.8445   -1.6442 H   0  0  0  0  0  0  0  0  0  0  0  0
    2.8070   18.5740   -3.4930 H   0  0  0  0  0  0  0  0  0  0  0  0
    0.9499   17.0150    1.1473 H   0  0  0  0  0  0  0  0  0  0  0  0
    0.1240   18.0212   -0.0905 H   0  0  0  0  0  0  0  0  0  0  0  0
   -0.0947   16.2383   -0.0905 H   0  0  0  0  0  0  0  0  0  0  0  0
    2.8536   17.2872    1.0555 H   0  0  0  0  0  0  0  0  0  0  0  0
    3.9375   16.7350   -0.2662 H   0  0  0  0  0  0  0  0  0  0  0  0
    3.3058   18.4165   -0.2662 H   0  0  0  0  0  0  0  0  0  0  0  0
    2.9821   13.3154   -3.6773 H   0  0  0  0  0  0  0  0  0  0  0  0
    1.7023   12.5214   -4.6563 H   0  0  0  0  0  0  0  0  0  0  0  0
    1.8524   14.3114   -4.6563 H   0  0  0  0  0  0  0  0  0  0  0  0
   -0.9314   13.8853   -3.8111 H   0  0  0  0  0  0  0  0  0  0  0  0
   -0.2162   12.1952   -4.0678 H   0  0  0  0  0  0  0  0  0  0  0  0
   -1.7627   13.2030   -1.6634 H   0  0  0  0  0  0  0  0  0  0  0  0
   -2.2400   11.9381   -2.8631 H   0  0  0  0  0  0  0  0  0  0  0  0
    0.0580    9.3075   -1.8614 H   0  0  0  0  0  0  0  0  0  0  0  0
   -1.1188    9.8895   -3.0874 H   0  0  0  0  0  0  0  0  0  0  0  0
    0.5636   10.5191   -3.0874 H   0  0  0  0  0  0  0  0  0  0  0  0
  1  2  1  0
  2  3  1  0
  3  4  1  0
  4  5  1  0
  5  6  1  0
  6  7  1  0
  7  8  1  0
  7  9  1  0
  2 10  1  0
 10 11  1  0
 11 12  1  0
 12 13  1  0
 13 14  1  1
 13 15  1  0
 15 16  1  0
 16 17  1  0
 17 18  2  0
 18 19  1  0
 19 20  1  0
 20 21  1  0
 21 22  1  0
 22 23  1  0
 22 24  1  0
 24 25  1  0
 24 26  1  0
 19 27  1  0
 27 28  1  6
 27 29  1  0
 29 30  1  0
 30 31  1  0
 31 32  1  6
  7  5  1  0
 31 10  1  0
 31 13  1  0
 27 15  1  0
 24 18  1  0
  1 33  1  0
  1 34  1  0
  1 35  1  0
  2 36  1  6
  3 37  1  0
  3 38  1  0
  4 39  1  0
  4 40  1  0
  5 41  1  1
  8 42  1  0
  8 43  1  0
  8 44  1  0
  9 45  1  0
  9 46  1  0
  9 47  1  0
 10 48  1  1
 11 49  1  0
 11 50  1  0
 12 51  1  0
 12 52  1  0
 14 53  1  0
 14 54  1  0
 14 55  1  0
 15 56  1  6
 16 57  1  0
 16 58  1  0
 17 59  1  0
 19 60  1  1
 20 61  1  0
 20 62  1  0
 21 63  1  0
 21 64  1  0
 22 65  1  1
 23 66  1  0
 25 67  1  0
 25 68  1  0
 25 69  1  0
 26 70  1  0
 26 71  1  0
 26 72  1  0
 28 73  1  0
 28 74  1  0
 28 75  1  0
 29 76  1  0
 29 77  1  0
 30 78  1  0
 30 79  1  0
 32 80  1  0
 32 81  1  0
 32 82  1  0
M  END
>  <meeko>  (6) 
{"is_sidechain": [false], "intermolecular_energy": 2.731, "internal_energy": -0.839}

$$$$
EPH_relaxed_0001_pdb2pqr_Repair_243_r2_0001_out
     RDKit          3D

 82 86  0  0  0  0  0  0  0  0999 V2000
    2.0960   18.3950   -2.6430 C   0  0  0  0  0  0  0  0  0  0  0  0
    0.9320   17.8670   -1.8000 C   0  0  2  0  0  0  0  0  0  0  0  0
    1.2630   17.8580   -0.2940 C   0  0  0  0  0  0  0  0  0  0  0  0
    1.6790   19.2260    0.2530 C   0  0  0  0  0  0  0  0  0  0  0  0
    3.1350   19.2610    0.6070 C   0  0  2  0  0  0  0  0  0  0  0  0
    3.5280   18.3280    1.6230 O   0  0  0  0  0  0  0  0  0  0  0  0
    3.6570   19.7200    1.9560 C   0  0  0  0  0  0  0  0  0  0  0  0
    2.7290   20.1760    3.0380 C   0  0  0  0  0  0  0  0  0  0  0  0
    5.0760   20.1870    2.0530 C   0  0  0  0  0  0  0  0  0  0  0  0
    0.5520   16.4640   -2.2590 C   0  0  1  0  0  0  0  0  0  0  0  0
    0.7050   16.2750   -3.7920 C   0  0  0  0  0  0  0  0  0  0  0  0
    1.1690   14.8140   -4.0180 C   0  0  0  0  0  0  0  0  0  0  0  0
    0.9500   14.1190   -2.6540 C   0  0  1  0  0  0  0  0  0  0  0  0
   -0.5700   13.7640   -2.6240 C   0  0  0  0  0  0  0  0  0  0  0  0
    1.8410   12.8670   -2.3650 C   0  0  2  0  0  0  0  0  0  0  0  0
    1.6360   11.6840   -3.3270 C   0  0  0  0  0  0  0  0  0  0  0  0
    0.6000   10.6940   -2.9080 C   0  0  0  0  0  0  0  0  0  0  0  0
    0.0650   10.5940   -1.6760 C   0  0  0  0  0  0  0  0  0  0  0  0
    0.5720   11.4730   -0.5250 C   0  0  1  0  0  0  0  0  0  0  0  0
    0.7930   10.5960    0.7360 C   0  0  0  0  0  0  0  0  0  0  0  0
   -0.4480    9.7940    1.1160 C   0  0  0  0  0  0  0  0  0  0  0  0
   -0.8870    8.8910   -0.0330 C   0  0  2  0  0  0  0  0  0  0  0  0
    0.1120    7.8860   -0.2370 O   0  0  0  0  0  0  0  0  0  0  0  0
   -1.1300    9.6620   -1.3610 C   0  0  0  0  0  0  0  0  0  0  0  0
   -2.4040   10.5330   -1.2300 C   0  0  0  0  0  0  0  0  0  0  0  0
   -1.4280    8.6190   -2.4710 C   0  0  0  0  0  0  0  0  0  0  0  0
    1.8240   12.3940   -0.8550 C   0  0  1  0  0  0  0  0  0  0  0  0
    3.1460   11.6000   -0.6220 C   0  0  0  0  0  0  0  0  0  0  0  0
    1.8510   13.6050    0.1520 C   0  0  0  0  0  0  0  0  0  0  0  0
    1.0480   14.8570   -0.2470 C   0  0  0  0  0  0  0  0  0  0  0  0
    1.3700   15.2820   -1.6820 C   0  0  2  0  0  0  0  0  0  0  0  0
    2.8880   15.6660   -1.7380 C   0  0  0  0  0  0  0  0  0  0  0  0
    2.8947   18.7573   -1.9791 H   0  0  0  0  0  0  0  0  0  0  0  0
    2.4858   17.5856   -3.2778 H   0  0  0  0  0  0  0  0  0  0  0  0
    1.7437   19.2214   -3.2778 H   0  0  0  0  0  0  0  0  0  0  0  0
    0.0812   18.5487   -1.9465 H   0  0  0  0  0  0  0  0  0  0  0  0
    0.3717   17.5207    0.2554 H   0  0  0  0  0  0  0  0  0  0  0  0
    2.1207   17.1829   -0.1575 H   0  0  0  0  0  0  0  0  0  0  0  0
    1.4793   19.9915   -0.5113 H   0  0  0  0  0  0  0  0  0  0  0  0
    1.0987   19.4213    1.1669 H   0  0  0  0  0  0  0  0  0  0  0  0
    3.4023   19.5419   -0.4224 H   0  0  0  0  0  0  0  0  0  0  0  0
    3.1746   19.9571    4.0196 H   0  0  0  0  0  0  0  0  0  0  0  0
    2.5613   21.2591    2.9448 H   0  0  0  0  0  0  0  0  0  0  0  0
    1.7691   19.6470    2.9448 H   0  0  0  0  0  0  0  0  0  0  0  0
    5.3597   20.2804    3.1117 H   0  0  0  0  0  0  0  0  0  0  0  0
    5.7362   19.4588    1.5593 H   0  0  0  0  0  0  0  0  0  0  0  0
    5.1747   21.1650    1.5593 H   0  0  0  0  0  0  0  0  0  0  0  0
   -0.4827   16.4220   -1.8881 H   0  0  0  0  0  0  0  0  0  0  0  0
   -0.2588   16.4482   -4.2931 H   0  0  0  0  0  0  0  0  0  0  0  0
    1.4314   16.9889   -4.2075 H   0  0  0  0  0  0  0  0  0  0  0  0
    0.5653   14.3316   -4.8008 H   0  0  0  0  0  0  0  0  0  0  0  0
    2.2154   14.7559   -4.3522 H   0  0  0  0  0  0  0  0  0  0  0  0
   -0.9076   13.6852   -1.5801 H   0  0  0  0  0  0  0  0  0  0  0  0
   -1.1410   14.5530   -3.1354 H   0  0  0  0  0  0  0  0  0  0  0  0
   -0.7324   12.8037   -3.1354 H   0  0  0  0  0  0  0  0  0  0  0  0
    2.8533   13.2458   -2.5694 H   0  0  0  0  0  0  0  0  0  0  0  0
    1.3424   12.0893   -4.3066 H   0  0  0  0  0  0  0  0  0  0  0  0
    2.5902   11.1371   -3.3448 H   0  0  0  0  0  0  0  0  0  0  0  0
    0.2432    9.9859   -3.6704 H   0  0  0  0  0  0  0  0  0  0  0  0
   -0.2209   12.2109   -0.3331 H   0  0  0  0  0  0  0  0  0  0  0  0
    1.6183    9.8961    0.5385 H   0  0  0  0  0  0  0  0  0  0  0  0
    1.0249   11.2693    1.5744 H   0  0  0  0  0  0  0  0  0  0  0  0
   -0.2201    9.1731    1.9949 H   0  0  0  0  0  0  0  0  0  0  0  0
   -1.2640   10.4961    1.3421 H   0  0  0  0  0  0  0  0  0  0  0  0
   -1.8507    8.4427    0.2502 H   0  0  0  0  0  0  0  0  0  0  0  0
   -0.2880    7.0260   -0.0220 H   0  0  0  0  0  0  0  0  0  0  0  0
   -2.6332   10.6897   -0.1656 H   0  0  0  0  0  0  0  0  0  0  0  0
   -2.2349   11.5054   -1.7157 H   0  0  0  0  0  0  0  0  0  0  0  0
   -3.2487   10.0225   -1.7157 H   0  0  0  0  0  0  0  0  0  0  0  0
   -1.7022    7.6594   -2.0084 H   0  0  0  0  0  0  0  0  0  0  0  0
   -2.2601    8.9759   -3.0957 H   0  0  0  0  0  0  0  0  0  0  0  0
   -0.5329    8.4824   -3.0957 H   0  0  0  0  0  0  0  0  0  0  0  0
    3.3240   11.4931    0.4582 H   0  0  0  0  0  0  0  0  0  0  0  0
    3.0608   10.6035   -1.0799 H   0  0  0  0  0  0  0  0  0  0  0  0
    3.9856   12.1434   -1.0799 H   0  0  0  0  0  0  0  0  0  0  0  0
    1.4540   13.2473    1.1135 H   0  0  0  0  0  0  0  0  0  0  0  0
    2.9006   13.9328    0.1803 H   0  0  0  0  0  0  0  0  0  0  0  0
   -0.0265   14.6345   -0.1704 H   0  0  0  0  0  0  0  0  0  0  0  0
    1.3211   15.6789    0.4312 H   0  0  0  0  0  0  0  0  0  0  0  0
    3.2792   15.7650   -0.7147 H   0  0  0  0  0  0  0  0  0  0  0  0
    3.4455   14.8806   -2.2693 H   0  0  0  0  0  0  0  0  0  0  0  0
    3.0050   16.6220   -2.2693 H   0  0  0  0  0  0  0  0  0  0  0  0
  1  2  1  0
  2  3  1  0
  3  4  1  0
  4  5  1  0
  5  6  1  0
  6  7  1  0
  7  8  1  0
  7  9  1  0
  2 10  1  0
 10 11  1  0
 11 12  1  0
 12 13  1  0
 13 14  1  1
 13 15  1  0
 15 16  1  0
 16 17  1  0
 17 18  2  0
 18 19  1  0
 19 20  1  0
 20 21  1  0
 21 22  1  0
 22 23  1  0
 22 24  1  0
 24 25  1  0
 24 26  1  0
 19 27  1  0
 27 28  1  1
 27 29  1  0
 29 30  1  0
 30 31  1  0
 31 32  1  1
  7  5  1  0
 31 10  1  0
 31 13  1  0
 27 15  1  0
 24 18  1  0
  1 33  1  0
  1 34  1  0
  1 35  1  0
  2 36  1  1
  3 37  1  0
  3 38  1  0
  4 39  1  0
  4 40  1  0
  5 41  1  6
  8 42  1  0
  8 43  1  0
  8 44  1  0
  9 45  1  0
  9 46  1  0
  9 47  1  0
 10 48  1  6
 11 49  1  0
 11 50  1  0
 12 51  1  0
 12 52  1  0
 14 53  1  0
 14 54  1  0
 14 55  1  0
 15 56  1  6
 16 57  1  0
 16 58  1  0
 17 59  1  0
 19 60  1  1
 20 61  1  0
 20 62  1  0
 21 63  1  0
 21 64  1  0
 22 65  1  1
 23 66  1  0
 25 67  1  0
 25 68  1  0
 25 69  1  0
 26 70  1  0
 26 71  1  0
 26 72  1  0
 28 73  1  0
 28 74  1  0
 28 75  1  0
 29 76  1  0
 29 77  1  0
 30 78  1  0
 30 79  1  0
 32 80  1  0
 32 81  1  0
 32 82  1  0
M  END
>  <meeko>  (7) 
{"is_sidechain": [false], "intermolecular_energy": 2.731, "internal_energy": -0.839}

$$$$
EPH_relaxed_0001_pdb2pqr_Repair_243_r2_0001_out
     RDKit          3D

 82 86  0  0  0  0  0  0  0  0999 V2000
    3.8830   17.6010    0.4470 C   0  0  0  0  0  0  0  0  0  0  0  0
    2.8310   17.9880   -0.5970 C   0  0  2  0  0  0  0  0  0  0  0  0
    2.1840   19.3530   -0.2900 C   0  0  0  0  0  0  0  0  0  0  0  0
    1.0550   19.2820    0.7420 C   0  0  0  0  0  0  0  0  0  0  0  0
   -0.1740   19.9970    0.2700 C   0  0  2  0  0  0  0  0  0  0  0  0
   -1.1770   20.1930    1.2760 O   0  0  0  0  0  0  0  0  0  0  0  0
   -1.5390   19.3420    0.1760 C   0  0  0  0  0  0  0  0  0  0  0  0
   -1.7450   17.9100    0.5560 C   0  0  0  0  0  0  0  0  0  0  0  0
   -2.5600   19.9440   -0.7400 C   0  0  0  0  0  0  0  0  0  0  0  0
    1.7580   16.9090   -0.6770 C   0  0  1  0  0  0  0  0  0  0  0  0
    0.4590   17.4080   -1.3650 C   0  0  0  0  0  0  0  0  0  0  0  0
   -0.1170   16.2080   -2.1590 C   0  0  0  0  0  0  0  0  0  0  0  0
    0.6730   14.9830   -1.6410 C   0  0  1  0  0  0  0  0  0  0  0  0
   -0.0240   14.5930   -0.3000 C   0  0  0  0  0  0  0  0  0  0  0  0
    0.7740   13.7640   -2.6150 C   0  0  2  0  0  0  0  0  0  0  0  0
   -0.5680   13.1070   -2.9800 C   0  0  0  0  0  0  0  0  0  0  0  0
   -0.9990   11.9950   -2.0820 C   0  0  0  0  0  0  0  0  0  0  0  0
   -0.2110   11.3520   -1.2000 C   0  0  0  0  0  0  0  0  0  0  0  0
    1.2880   11.6630   -1.1110 C   0  0  1  0  0  0  0  0  0  0  0  0
    2.0910   10.3360   -1.0690 C   0  0  0  0  0  0  0  0  0  0  0  0
    1.6210    9.4030    0.0420 C   0  0  0  0  0  0  0  0  0  0  0  0
    0.1400    9.0700   -0.1150 C   0  0  2  0  0  0  0  0  0  0  0  0
   -0.0350    8.2910   -1.3020 O   0  0  0  0  0  0  0  0  0  0  0  0
   -0.7680   10.3300   -0.1780 C   0  0  0  0  0  0  0  0  0  0  0  0
   -0.8130   11.0100    1.2130 C   0  0  0  0  0  0  0  0  0  0  0  0
   -2.2170    9.8610   -0.4790 C   0  0  0  0  0  0  0  0  0  0  0  0
    1.8500   12.6830   -2.1920 C   0  0  1  0  0  0  0  0  0  0  0  0
    2.2470   11.9170   -3.4910 C   0  0  0  0  0  0  0  0  0  0  0  0
    3.1720   13.3390   -1.6420 C   0  0  0  0  0  0  0  0  0  0  0  0
    3.0130   14.6090   -0.7850 C   0  0  0  0  0  0  0  0  0  0  0  0
    2.0990   15.6250   -1.4750 C   0  0  2  0  0  0  0  0  0  0  0  0
    2.7850   16.0530   -2.8170 C   0  0  0  0  0  0  0  0  0  0  0  0
    3.4714   17.7524    1.4558 H   0  0  0  0  0  0  0  0  0  0  0  0
    4.1564   16.5434    0.3174 H   0  0  0  0  0  0  0  0  0  0  0  0
    4.7766   18.2293    0.3174 H   0  0  0  0  0  0  0  0  0  0  0  0
    3.3428   18.0761   -1.5667 H   0  0  0  0  0  0  0  0  0  0  0  0
    2.9632   20.0279    0.0939 H   0  0  0  0  0  0  0  0  0  0  0  0
    1.7389   19.7156   -1.2283 H   0  0  0  0  0  0  0  0  0  0  0  0
    0.8051   18.2265    0.9247 H   0  0  0  0  0  0  0  0  0  0  0  0
    1.4026   19.7706    1.6642 H   0  0  0  0  0  0  0  0  0  0  0  0
    0.4152   20.5813   -0.4521 H   0  0  0  0  0  0  0  0  0  0  0  0
   -1.7580   17.8198    1.6522 H   0  0  0  0  0  0  0  0  0  0  0  0
   -2.7032   17.5565    0.1476 H   0  0  0  0  0  0  0  0  0  0  0  0
   -0.9253   17.3007    0.1476 H   0  0  0  0  0  0  0  0  0  0  0  0
   -3.3562   20.4135   -0.1436 H   0  0  0  0  0  0  0  0  0  0  0  0
   -2.0806   20.7040   -1.3745 H   0  0  0  0  0  0  0  0  0  0  0  0
   -2.9929   19.1566   -1.3745 H   0  0  0  0  0  0  0  0  0  0  0  0
    1.6548   16.6717    0.3921 H   0  0  0  0  0  0  0  0  0  0  0  0
   -0.2652   17.7439   -0.6083 H   0  0  0  0  0  0  0  0  0  0  0  0
    0.6669   18.2584   -2.0310 H   0  0  0  0  0  0  0  0  0  0  0  0
   -1.1921   16.0899   -1.9587 H   0  0  0  0  0  0  0  0  0  0  0  0
   -0.0165   16.3401   -3.2464 H   0  0  0  0  0  0  0  0  0  0  0  0
    0.5898   14.9365    0.5457 H   0  0  0  0  0  0  0  0  0  0  0  0
   -1.0151   15.0676   -0.2503 H   0  0  0  0  0  0  0  0  0  0  0  0
   -0.1380   13.5000   -0.2503 H   0  0  0  0  0  0  0  0  0  0  0  0
    1.1389   14.2327   -3.5409 H   0  0  0  0  0  0  0  0  0  0  0  0
   -1.3453   13.8850   -2.9547 H   0  0  0  0  0  0  0  0  0  0  0  0
   -0.4263   12.6577   -3.9740 H   0  0  0  0  0  0  0  0  0  0  0  0
   -2.0491   11.6739   -2.1465 H   0  0  0  0  0  0  0  0  0  0  0  0
    1.4287   12.2139   -0.1693 H   0  0  0  0  0  0  0  0  0  0  0  0
    1.9734    9.8220   -2.0344 H   0  0  0  0  0  0  0  0  0  0  0  0
    3.1430   10.5885   -0.8702 H   0  0  0  0  0  0  0  0  0  0  0  0
    2.2055    8.4720    0.0015 H   0  0  0  0  0  0  0  0  0  0  0  0
    1.7668    9.9071    1.0087 H   0  0  0  0  0  0  0  0  0  0  0  0
   -0.1672    8.5063    0.7782 H   0  0  0  0  0  0  0  0  0  0  0  0
   -0.0110    7.3540   -1.0460 H   0  0  0  0  0  0  0  0  0  0  0  0
   -0.7622   10.2417    1.9985 H   0  0  0  0  0  0  0  0  0  0  0  0
    0.0418   11.6949    1.3141 H   0  0  0  0  0  0  0  0  0  0  0  0
   -1.7506   11.5763    1.3141 H   0  0  0  0  0  0  0  0  0  0  0  0
   -2.7505    9.6883    0.4673 H   0  0  0  0  0  0  0  0  0  0  0  0
   -2.7402   10.6357   -1.0588 H   0  0  0  0  0  0  0  0  0  0  0  0
   -2.1870    8.9267   -1.0588 H   0  0  0  0  0  0  0  0  0  0  0  0
    2.7379   10.9699   -3.2226 H   0  0  0  0  0  0  0  0  0  0  0  0
    1.3442   11.7071   -4.0833 H   0  0  0  0  0  0  0  0  0  0  0  0
    2.9390   12.5337   -4.0833 H   0  0  0  0  0  0  0  0  0  0  0  0
    3.6868   12.5855   -1.0278 H   0  0  0  0  0  0  0  0  0  0  0  0
    3.7260   13.6624   -2.5356 H   0  0  0  0  0  0  0  0  0  0  0  0
    2.5771   14.3349    0.1871 H   0  0  0  0  0  0  0  0  0  0  0  0
    4.0042   15.0657   -0.6476 H   0  0  0  0  0  0  0  0  0  0  0  0
    3.6992   16.6234   -2.5958 H   0  0  0  0  0  0  0  0  0  0  0  0
    3.0441   15.1561   -3.3987 H   0  0  0  0  0  0  0  0  0  0  0  0
    2.0933   16.6801   -3.3987 H   0  0  0  0  0  0  0  0  0  0  0  0
  1  2  1  0
  2  3  1  0
  3  4  1  0
  4  5  1  0
  5  6  1  0
  6  7  1  0
  7  8  1  0
  7  9  1  0
  2 10  1  0
 10 11  1  0
 11 12  1  0
 12 13  1  0
 13 14  1  1
 13 15  1  0
 15 16  1  0
 16 17  1  0
 17 18  2  0
 18 19  1  0
 19 20  1  0
 20 21  1  0
 21 22  1  0
 22 23  1  0
 22 24  1  0
 24 25  1  0
 24 26  1  0
 19 27  1  0
 27 28  1  6
 27 29  1  0
 29 30  1  0
 30 31  1  0
 31 32  1  6
  7  5  1  0
 31 10  1  0
 31 13  1  0
 27 15  1  0
 24 18  1  0
  1 33  1  0
  1 34  1  0
  1 35  1  0
  2 36  1  6
  3 37  1  0
  3 38  1  0
  4 39  1  0
  4 40  1  0
  5 41  1  6
  8 42  1  0
  8 43  1  0
  8 44  1  0
  9 45  1  0
  9 46  1  0
  9 47  1  0
 10 48  1  1
 11 49  1  0
 11 50  1  0
 12 51  1  0
 12 52  1  0
 14 53  1  0
 14 54  1  0
 14 55  1  0
 15 56  1  6
 16 57  1  0
 16 58  1  0
 17 59  1  0
 19 60  1  1
 20 61  1  0
 20 62  1  0
 21 63  1  0
 21 64  1  0
 22 65  1  1
 23 66  1  0
 25 67  1  0
 25 68  1  0
 25 69  1  0
 26 70  1  0
 26 71  1  0
 26 72  1  0
 28 73  1  0
 28 74  1  0
 28 75  1  0
 29 76  1  0
 29 77  1  0
 30 78  1  0
 30 79  1  0
 32 80  1  0
 32 81  1  0
 32 82  1  0
M  END
>  <meeko>  (8) 
{"is_sidechain": [false], "intermolecular_energy": 2.731, "internal_energy": -0.839}

$$$$
EPH_relaxed_0001_pdb2pqr_Repair_243_r2_0001_out
     RDKit          3D

 82 86  0  0  0  0  0  0  0  0999 V2000
   -5.1610    5.8270   -1.7200 C   0  0  0  0  0  0  0  0  0  0  0  0
   -5.4530    7.3280   -1.7940 C   0  0  2  0  0  0  0  0  0  0  0  0
   -5.2250    8.0310   -0.4410 C   0  0  0  0  0  0  0  0  0  0  0  0
   -4.1810    9.1500   -0.4980 C   0  0  0  0  0  0  0  0  0  0  0  0
   -2.8150    8.6190   -0.8080 C   0  0  2  0  0  0  0  0  0  0  0  0
   -1.8080    8.9550    0.1560 O   0  0  0  0  0  0  0  0  0  0  0  0
   -1.6330    9.5040   -1.1600 C   0  0  0  0  0  0  0  0  0  0  0  0
   -1.7650   10.9930   -1.2210 C   0  0  0  0  0  0  0  0  0  0  0  0
   -0.4900    8.9030   -1.9170 C   0  0  0  0  0  0  0  0  0  0  0  0
   -6.8850    7.5560   -2.2640 C   0  0  1  0  0  0  0  0  0  0  0  0
   -7.1880    6.8580   -3.6170 C   0  0  0  0  0  0  0  0  0  0  0  0
   -8.6650    6.3880   -3.5570 C   0  0  0  0  0  0  0  0  0  0  0  0
   -9.2550    7.1130   -2.3250 C   0  0  1  0  0  0  0  0  0  0  0  0
   -9.6010    8.5490   -2.8320 C   0  0  0  0  0  0  0  0  0  0  0  0
  -10.4850    6.4290   -1.6440 C   0  0  2  0  0  0  0  0  0  0  0  0
  -11.7360    6.3050   -2.5320 C   0  0  0  0  0  0  0  0  0  0  0  0
  -12.6880    7.4520   -2.4570 C   0  0  0  0  0  0  0  0  0  0  0  0
  -12.6940    8.4030   -1.5040 C   0  0  0  0  0  0  0  0  0  0  0  0
  -11.7340    8.3270   -0.3100 C   0  0  1  0  0  0  0  0  0  0  0  0
  -12.5150    8.6100    1.0010 C   0  0  0  0  0  0  0  0  0  0  0  0
  -13.2820    9.9280    0.9510 C   0  0  0  0  0  0  0  0  0  0  0  0
  -14.2670    9.9430   -0.2150 C   0  0  2  0  0  0  0  0  0  0  0  0
  -15.2870    8.9700    0.0320 O   0  0  0  0  0  0  0  0  0  0  0  0
  -13.5960    9.6590   -1.5880 C   0  0  0  0  0  0  0  0  0  0  0  0
  -12.7130   10.8650   -1.9940 C   0  0  0  0  0  0  0  0  0  0  0  0
  -14.7170    9.5620   -2.6570 C   0  0  0  0  0  0  0  0  0  0  0  0
  -10.8450    7.0130   -0.2180 C   0  0  1  0  0  0  0  0  0  0  0  0
  -11.6250    5.8940    0.5380 C   0  0  0  0  0  0  0  0  0  0  0  0
   -9.5630    7.3190    0.6440 C   0  0  0  0  0  0  0  0  0  0  0  0
   -8.3400    7.8820   -0.1060 C   0  0  0  0  0  0  0  0  0  0  0  0
   -8.0250    7.0430   -1.3480 C   0  0  2  0  0  0  0  0  0  0  0  0
   -7.6510    5.5990   -0.8680 C   0  0  0  0  0  0  0  0  0  0  0  0
   -5.1006    5.5167   -0.6664 H   0  0  0  0  0  0  0  0  0  0  0  0
   -5.9679    5.2714   -2.2202 H   0  0  0  0  0  0  0  0  0  0  0  0
   -4.2047    5.6144   -2.2202 H   0  0  0  0  0  0  0  0  0  0  0  0
   -4.7497    7.7668   -2.5170 H   0  0  0  0  0  0  0  0  0  0  0  0
   -6.1803    8.4636   -0.1089 H   0  0  0  0  0  0  0  0  0  0  0  0
   -4.8441    7.2706    0.2567 H   0  0  0  0  0  0  0  0  0  0  0  0
   -4.4702    9.8677   -1.2798 H   0  0  0  0  0  0  0  0  0  0  0  0
   -4.1443    9.6349    0.4887 H   0  0  0  0  0  0  0  0  0  0  0  0
   -3.2453    7.7329   -1.2975 H   0  0  0  0  0  0  0  0  0  0  0  0
   -1.8011   11.4000   -0.1997 H   0  0  0  0  0  0  0  0  0  0  0  0
   -0.9008   11.4162   -1.7541 H   0  0  0  0  0  0  0  0  0  0  0  0
   -2.6901   11.2576   -1.7541 H   0  0  0  0  0  0  0  0  0  0  0  0
    0.2542    8.5117   -1.2077 H   0  0  0  0  0  0  0  0  0  0  0  0
   -0.8601    8.0829   -2.5498 H   0  0  0  0  0  0  0  0  0  0  0  0
   -0.0241    9.6728   -2.5498 H   0  0  0  0  0  0  0  0  0  0  0  0
   -6.8952    8.6555   -2.2968 H   0  0  0  0  0  0  0  0  0  0  0  0
   -7.0490    7.5655   -4.4477 H   0  0  0  0  0  0  0  0  0  0  0  0
   -6.5096    6.0084   -3.7838 H   0  0  0  0  0  0  0  0  0  0  0  0
   -9.2022    6.6776   -4.4722 H   0  0  0  0  0  0  0  0  0  0  0  0
   -8.7520    5.2942   -3.4788 H   0  0  0  0  0  0  0  0  0  0  0  0
   -9.7611    9.2135   -1.9701 H   0  0  0  0  0  0  0  0  0  0  0  0
   -8.7696    8.9329   -3.4415 H   0  0  0  0  0  0  0  0  0  0  0  0
  -10.5160    8.5121   -3.4415 H   0  0  0  0  0  0  0  0  0  0  0  0
  -10.1260    5.4013   -1.4863 H   0  0  0  0  0  0  0  0  0  0  0  0
  -11.4033    6.2073   -3.5759 H   0  0  0  0  0  0  0  0  0  0  0  0
  -12.2866    5.4281   -2.1608 H   0  0  0  0  0  0  0  0  0  0  0  0
  -13.4493    7.5267   -3.2474 H   0  0  0  0  0  0  0  0  0  0  0  0
  -10.9818    9.1127   -0.4740 H   0  0  0  0  0  0  0  0  0  0  0  0
  -13.2305    7.7916    1.1691 H   0  0  0  0  0  0  0  0  0  0  0  0
  -11.7821    8.6805    1.8182 H   0  0  0  0  0  0  0  0  0  0  0  0
  -13.8365   10.0576    1.8922 H   0  0  0  0  0  0  0  0  0  0  0  0
  -12.5619   10.7479    0.8124 H   0  0  0  0  0  0  0  0  0  0  0  0
  -14.6902   10.9565   -0.2767 H   0  0  0  0  0  0  0  0  0  0  0  0
  -16.1460    9.4030   -0.1100 H   0  0  0  0  0  0  0  0  0  0  0  0
  -12.3434   11.3698   -1.0893 H   0  0  0  0  0  0  0  0  0  0  0  0
  -11.8596   10.5102   -2.5905 H   0  0  0  0  0  0  0  0  0  0  0  0
  -13.3089   11.5714   -2.5905 H   0  0  0  0  0  0  0  0  0  0  0  0
  -15.6935    9.4775   -2.1577 H   0  0  0  0  0  0  0  0  0  0  0  0
  -14.7034   10.4647   -3.2855 H   0  0  0  0  0  0  0  0  0  0  0  0
  -14.5486    8.6751   -3.2855 H   0  0  0  0  0  0  0  0  0  0  0  0
  -11.5209    6.0433    1.6228 H   0  0  0  0  0  0  0  0  0  0  0  0
  -12.6889    5.9383    0.2622 H   0  0  0  0  0  0  0  0  0  0  0  0
  -11.2153    4.9111    0.2622 H   0  0  0  0  0  0  0  0  0  0  0  0
   -9.8469    8.0509    1.4145 H   0  0  0  0  0  0  0  0  0  0  0  0
   -9.2379    6.3429    1.0332 H   0  0  0  0  0  0  0  0  0  0  0  0
   -8.5519    8.9163   -0.4146 H   0  0  0  0  0  0  0  0  0  0  0  0
   -7.4709    7.8517    0.5676 H   0  0  0  0  0  0  0  0  0  0  0  0
   -7.6431    5.5686    0.2316 H   0  0  0  0  0  0  0  0  0  0  0  0
   -8.3931    4.8821   -1.2493 H   0  0  0  0  0  0  0  0  0  0  0  0
   -6.6542    5.3325   -1.2493 H   0  0  0  0  0  0  0  0  0  0  0  0
  1  2  1  0
  2  3  1  0
  3  4  1  0
  4  5  1  0
  5  6  1  0
  6  7  1  0
  7  8  1  0
  7  9  1  0
  2 10  1  0
 10 11  1  0
 11 12  1  0
 12 13  1  0
 13 14  1  6
 13 15  1  0
 15 16  1  0
 16 17  1  0
 17 18  2  0
 18 19  1  0
 19 20  1  0
 20 21  1  0
 21 22  1  0
 22 23  1  0
 22 24  1  0
 24 25  1  0
 24 26  1  0
 19 27  1  0
 27 28  1  1
 27 29  1  0
 29 30  1  0
 30 31  1  0
 31 32  1  1
  7  5  1  0
 31 10  1  0
 31 13  1  0
 27 15  1  0
 24 18  1  0
  1 33  1  0
  1 34  1  0
  1 35  1  0
  2 36  1  6
  3 37  1  0
  3 38  1  0
  4 39  1  0
  4 40  1  0
  5 41  1  6
  8 42  1  0
  8 43  1  0
  8 44  1  0
  9 45  1  0
  9 46  1  0
  9 47  1  0
 10 48  1  6
 11 49  1  0
 11 50  1  0
 12 51  1  0
 12 52  1  0
 14 53  1  0
 14 54  1  0
 14 55  1  0
 15 56  1  1
 16 57  1  0
 16 58  1  0
 17 59  1  0
 19 60  1  6
 20 61  1  0
 20 62  1  0
 21 63  1  0
 21 64  1  0
 22 65  1  6
 23 66  1  0
 25 67  1  0
 25 68  1  0
 25 69  1  0
 26 70  1  0
 26 71  1  0
 26 72  1  0
 28 73  1  0
 28 74  1  0
 28 75  1  0
 29 76  1  0
 29 77  1  0
 30 78  1  0
 30 79  1  0
 32 80  1  0
 32 81  1  0
 32 82  1  0
M  END
>  <meeko>  (9) 
{"is_sidechain": [false], "intermolecular_energy": 2.731, "internal_energy": -0.839}

$$$$
EPH_relaxed_0001_pdb2pqr_Repair_243_r2_0001_out
     RDKit          3D

 82 86  0  0  0  0  0  0  0  0999 V2000
    0.4460    8.7940   -2.3490 C   0  0  0  0  0  0  0  0  0  0  0  0
    1.1840    9.9360   -3.0540 C   0  0  2  0  0  0  0  0  0  0  0  0
    2.6860    9.9590   -2.7060 C   0  0  0  0  0  0  0  0  0  0  0  0
    3.5630   10.5660   -3.8050 C   0  0  0  0  0  0  0  0  0  0  0  0
    4.9600   10.8150   -3.3240 C   0  0  2  0  0  0  0  0  0  0  0  0
    5.5510   12.0300   -3.8040 O   0  0  0  0  0  0  0  0  0  0  0  0
    6.1720   10.8090   -4.2370 C   0  0  0  0  0  0  0  0  0  0  0  0
    6.0420   10.5470   -5.7040 C   0  0  0  0  0  0  0  0  0  0  0  0
    7.5210   10.5720   -3.6330 C   0  0  0  0  0  0  0  0  0  0  0  0
    0.5440   11.2710   -2.6910 C   0  0  1  0  0  0  0  0  0  0  0  0
   -0.8330   11.1030   -1.9950 C   0  0  0  0  0  0  0  0  0  0  0  0
   -0.9500   12.2450   -0.9530 C   0  0  0  0  0  0  0  0  0  0  0  0
    0.1990   13.2170   -1.3100 C   0  0  1  0  0  0  0  0  0  0  0  0
   -0.3500   14.0710   -2.4950 C   0  0  0  0  0  0  0  0  0  0  0  0
    0.7290   14.1170   -0.1460 C   0  0  2  0  0  0  0  0  0  0  0  0
   -0.3030   15.0950    0.4430 C   0  0  0  0  0  0  0  0  0  0  0  0
   -0.3470   16.4410   -0.2020 C   0  0  0  0  0  0  0  0  0  0  0  0
    0.5950   16.9480   -1.0190 C   0  0  0  0  0  0  0  0  0  0  0  0
    1.8970   16.1830   -1.2900 C   0  0  1  0  0  0  0  0  0  0  0  0
    3.1020   17.1510   -1.1620 C   0  0  0  0  0  0  0  0  0  0  0  0
    2.9570   18.3870   -2.0450 C   0  0  0  0  0  0  0  0  0  0  0  0
    1.6800   19.1520   -1.7060 C   0  0  2  0  0  0  0  0  0  0  0  0
    1.8050   19.6950   -0.3870 O   0  0  0  0  0  0  0  0  0  0  0  0
    0.3990   18.2760   -1.7910 C   0  0  0  0  0  0  0  0  0  0  0  0
    0.0980   17.9370   -3.2720 C   0  0  0  0  0  0  0  0  0  0  0  0
   -0.7970   19.1290   -1.2880 C   0  0  0  0  0  0  0  0  0  0  0  0
    2.1000   14.8430   -0.4600 C   0  0  1  0  0  0  0  0  0  0  0  0
    2.7590   15.1640    0.9160 C   0  0  0  0  0  0  0  0  0  0  0  0
    3.1080   13.9100   -1.2290 C   0  0  0  0  0  0  0  0  0  0  0  0
    2.5090   12.9580   -2.2820 C   0  0  0  0  0  0  0  0  0  0  0  0
    1.3170   12.1860   -1.7090 C   0  0  2  0  0  0  0  0  0  0  0  0
    1.8440   11.3000   -0.5280 C   0  0  0  0  0  0  0  0  0  0  0  0
    0.5284    8.9215   -1.2595 H   0  0  0  0  0  0  0  0  0  0  0  0
   -0.6146    8.8076   -2.6406 H   0  0  0  0  0  0  0  0  0  0  0  0
    0.8941    7.8327   -2.6406 H   0  0  0  0  0  0  0  0  0  0  0  0
    1.0991    9.7659   -4.1374 H   0  0  0  0  0  0  0  0  0  0  0  0
    2.8208   10.5499   -1.7880 H   0  0  0  0  0  0  0  0  0  0  0  0
    3.0035    8.9131   -2.5822 H   0  0  0  0  0  0  0  0  0  0  0  0
    3.5978    9.8718   -4.6576 H   0  0  0  0  0  0  0  0  0  0  0  0
    3.1246   11.5307   -4.1002 H   0  0  0  0  0  0  0  0  0  0  0  0
    4.7494   10.3031   -2.3734 H   0  0  0  0  0  0  0  0  0  0  0  0
    5.5581    9.5717   -5.8608 H   0  0  0  0  0  0  0  0  0  0  0  0
    5.4316   11.3375   -6.1650 H   0  0  0  0  0  0  0  0  0  0  0  0
    7.0407   10.5391   -6.1650 H   0  0  0  0  0  0  0  0  0  0  0  0
    7.4393   10.5864   -2.5361 H   0  0  0  0  0  0  0  0  0  0  0  0
    7.9021    9.5931   -3.9595 H   0  0  0  0  0  0  0  0  0  0  0  0
    8.2129   11.3623   -3.9595 H   0  0  0  0  0  0  0  0  0  0  0  0
    0.5066   11.7352   -3.6875 H   0  0  0  0  0  0  0  0  0  0  0  0
   -1.6433   11.1808   -2.7348 H   0  0  0  0  0  0  0  0  0  0  0  0
   -0.9138   10.1180   -1.5121 H   0  0  0  0  0  0  0  0  0  0  0  0
   -1.9246   12.7483   -1.0361 H   0  0  0  0  0  0  0  0  0  0  0  0
   -0.8785   11.8759    0.0807 H   0  0  0  0  0  0  0  0  0  0  0  0
   -0.9049   14.9342   -2.0987 H   0  0  0  0  0  0  0  0  0  0  0  0
    0.4894   14.4261   -3.1108 H   0  0  0  0  0  0  0  0  0  0  0  0
   -1.0216   13.4547   -3.1108 H   0  0  0  0  0  0  0  0  0  0  0  0
    0.9320   13.3823    0.6471 H   0  0  0  0  0  0  0  0  0  0  0  0
   -1.2988   14.6383    0.3446 H   0  0  0  0  0  0  0  0  0  0  0  0
    0.0017   15.2672    1.4858 H   0  0  0  0  0  0  0  0  0  0  0  0
   -1.2234   17.0716    0.0083 H   0  0  0  0  0  0  0  0  0  0  0  0
    1.8229   15.8133   -2.3233 H   0  0  0  0  0  0  0  0  0  0  0  0
    3.1846   17.4743   -0.1138 H   0  0  0  0  0  0  0  0  0  0  0  0
    4.0012   16.6096   -1.4911 H   0  0  0  0  0  0  0  0  0  0  0  0
    3.8239   19.0456   -1.8878 H   0  0  0  0  0  0  0  0  0  0  0  0
    2.9051   18.0644   -3.0953 H   0  0  0  0  0  0  0  0  0  0  0  0
    1.5643   19.9490   -2.4553 H   0  0  0  0  0  0  0  0  0  0  0  0
    2.4930   19.1870    0.0760 H   0  0  0  0  0  0  0  0  0  0  0  0
   -0.6317   17.1152   -3.3190 H   0  0  0  0  0  0  0  0  0  0  0  0
   -0.3157   18.8238   -3.7744 H   0  0  0  0  0  0  0  0  0  0  0  0
    1.0276   17.6312   -3.7744 H   0  0  0  0  0  0  0  0  0  0  0  0
   -0.8059   19.1353   -0.1881 H   0  0  0  0  0  0  0  0  0  0  0  0
   -0.6947   20.1592   -1.6598 H   0  0  0  0  0  0  0  0  0  0  0  0
   -1.7377   18.6967   -1.6598 H   0  0  0  0  0  0  0  0  0  0  0  0
    2.0911   14.8387    1.7272 H   0  0  0  0  0  0  0  0  0  0  0  0
    3.7187   14.6325    0.9958 H   0  0  0  0  0  0  0  0  0  0  0  0
    2.9321   16.2474    0.9958 H   0  0  0  0  0  0  0  0  0  0  0  0
    3.8357   14.5568   -1.7409 H   0  0  0  0  0  0  0  0  0  0  0  0
    3.5371   13.2530   -0.4582 H   0  0  0  0  0  0  0  0  0  0  0  0
    2.1736   13.5459   -3.1491 H   0  0  0  0  0  0  0  0  0  0  0  0
    3.2827   12.2359   -2.5820 H   0  0  0  0  0  0  0  0  0  0  0  0
    1.5679   11.7643    0.4302 H   0  0  0  0  0  0  0  0  0  0  0  0
    1.3951   10.2979   -0.5928 H   0  0  0  0  0  0  0  0  0  0  0  0
    2.9389   11.2162   -0.5928 H   0  0  0  0  0  0  0  0  0  0  0  0
  1  2  1  0
  2  3  1  0
  3  4  1  0
  4  5  1  0
  5  6  1  0
  6  7  1  0
  7  8  1  0
  7  9  1  0
  2 10  1  0
 10 11  1  0
 11 12  1  0
 12 13  1  0
 13 14  1  6
 13 15  1  0
 15 16  1  0
 16 17  1  0
 17 18  2  0
 18 19  1  0
 19 20  1  0
 20 21  1  0
 21 22  1  0
 22 23  1  0
 22 24  1  0
 24 25  1  0
 24 26  1  0
 19 27  1  0
 27 28  1  1
 27 29  1  0
 29 30  1  0
 30 31  1  0
 31 32  1  1
  7  5  1  0
 31 10  1  0
 31 13  1  0
 27 15  1  0
 24 18  1  0
  1 33  1  0
  1 34  1  0
  1 35  1  0
  2 36  1  6
  3 37  1  0
  3 38  1  0
  4 39  1  0
  4 40  1  0
  5 41  1  1
  8 42  1  0
  8 43  1  0
  8 44  1  0
  9 45  1  0
  9 46  1  0
  9 47  1  0
 10 48  1  6
 11 49  1  0
 11 50  1  0
 12 51  1  0
 12 52  1  0
 14 53  1  0
 14 54  1  0
 14 55  1  0
 15 56  1  1
 16 57  1  0
 16 58  1  0
 17 59  1  0
 19 60  1  6
 20 61  1  0
 20 62  1  0
 21 63  1  0
 21 64  1  0
 22 65  1  6
 23 66  1  0
 25 67  1  0
 25 68  1  0
 25 69  1  0
 26 70  1  0
 26 71  1  0
 26 72  1  0
 28 73  1  0
 28 74  1  0
 28 75  1  0
 29 76  1  0
 29 77  1  0
 30 78  1  0
 30 79  1  0
 32 80  1  0
 32 81  1  0
 32 82  1  0
M  END
>  <meeko>  (10) 
{"is_sidechain": [false], "intermolecular_energy": 2.731, "internal_energy": -0.839}

$$$$
EPH_relaxed_0001_pdb2pqr_Repair_243_r2_0001_out
     RDKit          3D

 82 86  0  0  0  0  0  0  0  0999 V2000
    1.5770   19.9520   -1.7750 C   0  0  0  0  0  0  0  0  0  0  0  0
    1.5690   19.6370   -0.2760 C   0  0  2  0  0  0  0  0  0  0  0  0
    2.9380   19.9050    0.3810 C   0  0  0  0  0  0  0  0  0  0  0  0
    3.5630   18.6650    1.0270 C   0  0  0  0  0  0  0  0  0  0  0  0
    3.8620   18.8880    2.4780 C   0  0  2  0  0  0  0  0  0  0  0  0
    4.3620   20.1940    2.7930 O   0  0  0  0  0  0  0  0  0  0  0  0
    5.2630   19.0980    3.0210 C   0  0  0  0  0  0  0  0  0  0  0  0
    6.4580   19.0950    2.1200 C   0  0  0  0  0  0  0  0  0  0  0  0
    5.5190   18.8190    4.4700 C   0  0  0  0  0  0  0  0  0  0  0  0
    1.1580   18.1870   -0.0530 C   0  0  1  0  0  0  0  0  0  0  0  0
   -0.2250   18.0580    0.6400 C   0  0  0  0  0  0  0  0  0  0  0  0
   -0.9050   16.7950    0.0500 C   0  0  0  0  0  0  0  0  0  0  0  0
    0.2270   16.0610   -0.7060 C   0  0  1  0  0  0  0  0  0  0  0  0
    1.0050   15.2790    0.3980 C   0  0  0  0  0  0  0  0  0  0  0  0
   -0.2190   15.1200   -1.8730 C   0  0  2  0  0  0  0  0  0  0  0  0
   -1.1030   13.9330   -1.4530 C   0  0  0  0  0  0  0  0  0  0  0  0
   -0.3670   12.6830   -1.1020 C   0  0  0  0  0  0  0  0  0  0  0  0
    0.9220   12.4260   -1.3920 C   0  0  0  0  0  0  0  0  0  0  0  0
    1.7520   13.4080   -2.2300 C   0  0  1  0  0  0  0  0  0  0  0  0
    2.5320   12.6280   -3.3200 C   0  0  0  0  0  0  0  0  0  0  0  0
    3.3770   11.4980   -2.7390 C   0  0  0  0  0  0  0  0  0  0  0  0
    2.5090   10.5120   -1.9630 C   0  0  2  0  0  0  0  0  0  0  0  0
    1.6390    9.8420   -2.8810 O   0  0  0  0  0  0  0  0  0  0  0  0
    1.6680   11.1850   -0.8430 C   0  0  0  0  0  0  0  0  0  0  0  0
    2.6020   11.6470    0.3030 C   0  0  0  0  0  0  0  0  0  0  0  0
    0.7340   10.1060   -0.2320 C   0  0  0  0  0  0  0  0  0  0  0  0
    0.9620   14.6560   -2.8180 C   0  0  1  0  0  0  0  0  0  0  0  0
    0.3160   14.2790   -4.1860 C   0  0  0  0  0  0  0  0  0  0  0  0
    1.9830   15.8170   -3.1150 C   0  0  0  0  0  0  0  0  0  0  0  0
    2.2920   16.7840   -1.9560 C   0  0  0  0  0  0  0  0  0  0  0  0
    1.0000   17.2910   -1.3060 C   0  0  2  0  0  0  0  0  0  0  0  0
    0.2070   18.1000   -2.3880 C   0  0  0  0  0  0  0  0  0  0  0  0
    1.6047   21.0420   -1.9205 H   0  0  0  0  0  0  0  0  0  0  0  0
    2.4639   19.4973   -2.2405 H   0  0  0  0  0  0  0  0  0  0  0  0
    0.6682   19.5429   -2.2405 H   0  0  0  0  0  0  0  0  0  0  0  0
    0.8385   20.3077    0.2000 H   0  0  0  0  0  0  0  0  0  0  0  0
    3.6266   20.2791   -0.3909 H   0  0  0  0  0  0  0  0  0  0  0  0
    2.7715   20.6374    1.1847 H   0  0  0  0  0  0  0  0  0  0  0  0
    2.8623   17.8223    0.9327 H   0  0  0  0  0  0  0  0  0  0  0  0
    4.5101   18.4495    0.5106 H   0  0  0  0  0  0  0  0  0  0  0  0
    3.0506   18.2067    2.7737 H   0  0  0  0  0  0  0  0  0  0  0  0
    7.3751   19.0927    2.7274 H   0  0  0  0  0  0  0  0  0  0  0  0
    6.4363   18.1969    1.4852 H   0  0  0  0  0  0  0  0  0  0  0  0
    6.4409   19.9932    1.4852 H   0  0  0  0  0  0  0  0  0  0  0  0
    4.9033   19.4900    5.0870 H   0  0  0  0  0  0  0  0  0  0  0  0
    5.2591   17.7738    4.6937 H   0  0  0  0  0  0  0  0  0  0  0  0
    6.5826   18.9883    4.6937 H   0  0  0  0  0  0  0  0  0  0  0  0
    2.0127   17.8443    0.5487 H   0  0  0  0  0  0  0  0  0  0  0  0
   -0.0953   17.9458    1.7265 H   0  0  0  0  0  0  0  0  0  0  0  0
   -0.8387   18.9543    0.4669 H   0  0  0  0  0  0  0  0  0  0  0  0
   -1.3107   16.1614    0.8525 H   0  0  0  0  0  0  0  0  0  0  0  0
   -1.7518   17.0446   -0.6062 H   0  0  0  0  0  0  0  0  0  0  0  0
    0.6704   15.6154    1.3904 H   0  0  0  0  0  0  0  0  0  0  0  0
    0.8098   14.2018    0.2909 H   0  0  0  0  0  0  0  0  0  0  0  0
    2.0832   15.4687    0.2909 H   0  0  0  0  0  0  0  0  0  0  0  0
   -0.8673   15.7770   -2.4714 H   0  0  0  0  0  0  0  0  0  0  0  0
   -1.6896   14.2401   -0.5746 H   0  0  0  0  0  0  0  0  0  0  0  0
   -1.7194   13.6871   -2.3303 H   0  0  0  0  0  0  0  0  0  0  0  0
   -0.9255   11.9055   -0.5602 H   0  0  0  0  0  0  0  0  0  0  0  0
    2.4594   13.8813   -1.5332 H   0  0  0  0  0  0  0  0  0  0  0  0
    1.8106   12.1991   -4.0311 H   0  0  0  0  0  0  0  0  0  0  0  0
    3.2145   13.3358   -3.8132 H   0  0  0  0  0  0  0  0  0  0  0  0
    3.8803   10.9661   -3.5598 H   0  0  0  0  0  0  0  0  0  0  0  0
    4.1175   11.9314   -2.0506 H   0  0  0  0  0  0  0  0  0  0  0  0
    3.1838    9.8011   -1.4638 H   0  0  0  0  0  0  0  0  0  0  0  0
    1.8490    8.8930   -2.8470 H   0  0  0  0  0  0  0  0  0  0  0  0
    2.1353   11.4162    1.2720 H   0  0  0  0  0  0  0  0  0  0  0  0
    3.5652   11.1214    0.2254 H   0  0  0  0  0  0  0  0  0  0  0  0
    2.7688   12.7315    0.2254 H   0  0  0  0  0  0  0  0  0  0  0  0
    0.7805   10.1598    0.8657 H   0  0  0  0  0  0  0  0  0  0  0  0
   -0.2993   10.2846   -0.5644 H   0  0  0  0  0  0  0  0  0  0  0  0
    1.0589    9.1090   -0.5644 H   0  0  0  0  0  0  0  0  0  0  0  0
   -0.6218   13.7317   -4.0102 H   0  0  0  0  0  0  0  0  0  0  0  0
    0.1043   15.1954   -4.7565 H   0  0  0  0  0  0  0  0  0  0  0  0
    1.0097   13.6440   -4.7565 H   0  0  0  0  0  0  0  0  0  0  0  0
    2.9319   15.3546   -3.4245 H   0  0  0  0  0  0  0  0  0  0  0  0
    1.4990   16.4359   -3.8849 H   0  0  0  0  0  0  0  0  0  0  0  0
    2.8934   16.2586   -1.1995 H   0  0  0  0  0  0  0  0  0  0  0  0
    2.8452   17.6463   -2.3564 H   0  0  0  0  0  0  0  0  0  0  0  0
   -0.4800   18.8009   -1.8913 H   0  0  0  0  0  0  0  0  0  0  0  0
    0.9135   18.6623   -3.0162 H   0  0  0  0  0  0  0  0  0  0  0  0
   -0.3693   17.4049   -3.0162 H   0  0  0  0  0  0  0  0  0  0  0  0
  1  2  1  0
  2  3  1  0
  3  4  1  0
  4  5  1  0
  5  6  1  0
  6  7  1  0
  7  8  1  0
  7  9  1  0
  2 10  1  0
 10 11  1  0
 11 12  1  0
 12 13  1  0
 13 14  1  1
 13 15  1  0
 15 16  1  0
 16 17  1  0
 17 18  2  0
 18 19  1  0
 19 20  1  0
 20 21  1  0
 21 22  1  0
 22 23  1  0
 22 24  1  0
 24 25  1  0
 24 26  1  0
 19 27  1  0
 27 28  1  6
 27 29  1  0
 29 30  1  0
 30 31  1  0
 31 32  1  6
  7  5  1  0
 31 10  1  0
 31 13  1  0
 27 15  1  0
 24 18  1  0
  1 33  1  0
  1 34  1  0
  1 35  1  0
  2 36  1  1
  3 37  1  0
  3 38  1  0
  4 39  1  0
  4 40  1  0
  5 41  1  1
  8 42  1  0
  8 43  1  0
  8 44  1  0
  9 45  1  0
  9 46  1  0
  9 47  1  0
 10 48  1  1
 11 49  1  0
 11 50  1  0
 12 51  1  0
 12 52  1  0
 14 53  1  0
 14 54  1  0
 14 55  1  0
 15 56  1  6
 16 57  1  0
 16 58  1  0
 17 59  1  0
 19 60  1  1
 20 61  1  0
 20 62  1  0
 21 63  1  0
 21 64  1  0
 22 65  1  1
 23 66  1  0
 25 67  1  0
 25 68  1  0
 25 69  1  0
 26 70  1  0
 26 71  1  0
 26 72  1  0
 28 73  1  0
 28 74  1  0
 28 75  1  0
 29 76  1  0
 29 77  1  0
 30 78  1  0
 30 79  1  0
 32 80  1  0
 32 81  1  0
 32 82  1  0
M  END
>  <meeko>  (11) 
{"is_sidechain": [false], "intermolecular_energy": 2.731, "internal_energy": -0.839}

$$$$
EPH_relaxed_0001_pdb2pqr_Repair_243_r2_0001_out
     RDKit          3D

 82 86  0  0  0  0  0  0  0  0999 V2000
    1.6940   10.9740   -4.6020 C   0  0  0  0  0  0  0  0  0  0  0  0
    1.0990   10.4830   -3.2800 C   0  0  2  0  0  0  0  0  0  0  0  0
   -0.3390    9.9520   -3.4520 C   0  0  0  0  0  0  0  0  0  0  0  0
   -0.7260    8.8820   -2.4280 C   0  0  0  0  0  0  0  0  0  0  0  0
   -0.1410    9.1690   -1.0780 C   0  0  2  0  0  0  0  0  0  0  0  0
   -0.5840    8.2920   -0.0350 O   0  0  0  0  0  0  0  0  0  0  0  0
   -0.9570    9.6730    0.0980 C   0  0  0  0  0  0  0  0  0  0  0  0
   -2.4280    9.9200   -0.0230 C   0  0  0  0  0  0  0  0  0  0  0  0
   -0.2490   10.3850    1.2080 C   0  0  0  0  0  0  0  0  0  0  0  0
    1.1190   11.6080   -2.2520 C   0  0  1  0  0  0  0  0  0  0  0  0
    2.1650   11.3730   -1.1300 C   0  0  0  0  0  0  0  0  0  0  0  0
    2.7240   12.7660   -0.7410 C   0  0  0  0  0  0  0  0  0  0  0  0
    1.7560   13.7740   -1.4040 C   0  0  1  0  0  0  0  0  0  0  0  0
    0.5340   13.8540   -0.4350 C   0  0  0  0  0  0  0  0  0  0  0  0
    2.3400   15.1900   -1.7140 C   0  0  2  0  0  0  0  0  0  0  0  0
    2.7930   15.9940   -0.4830 C   0  0  0  0  0  0  0  0  0  0  0  0
    1.7470   16.8670    0.1280 C   0  0  0  0  0  0  0  0  0  0  0  0
    0.5860   17.2220   -0.4530 C   0  0  0  0  0  0  0  0  0  0  0  0
    0.2720   16.8120   -1.8980 C   0  0  1  0  0  0  0  0  0  0  0  0
   -0.2760   18.0380   -2.6760 C   0  0  0  0  0  0  0  0  0  0  0  0
   -1.4680   18.6870   -1.9810 C   0  0  0  0  0  0  0  0  0  0  0  0
   -1.0990   19.1330   -0.5680 C   0  0  2  0  0  0  0  0  0  0  0  0
   -0.1430   20.1940   -0.6550 O   0  0  0  0  0  0  0  0  0  0  0  0
   -0.5270   17.9840    0.3080 C   0  0  0  0  0  0  0  0  0  0  0  0
   -1.6550   16.9800    0.6520 C   0  0  0  0  0  0  0  0  0  0  0  0
   -0.0640   18.5970    1.6570 C   0  0  0  0  0  0  0  0  0  0  0  0
    1.4390   16.0660   -2.6770 C   0  0  1  0  0  0  0  0  0  0  0  0
    2.3850   17.1100   -3.3450 C   0  0  0  0  0  0  0  0  0  0  0  0
    0.8150   15.2190   -3.8480 C   0  0  0  0  0  0  0  0  0  0  0  0
    0.3670   13.7850   -3.5060 C   0  0  0  0  0  0  0  0  0  0  0  0
    1.4700   13.0290   -2.7590 C   0  0  2  0  0  0  0  0  0  0  0  0
    2.7050   12.9140   -3.7160 C   0  0  0  0  0  0  0  0  0  0  0  0
    2.5274   11.6617   -4.3960 H   0  0  0  0  0  0  0  0  0  0  0  0
    2.0627   10.1138   -5.1800 H   0  0  0  0  0  0  0  0  0  0  0  0
    0.9194   11.4993   -5.1800 H   0  0  0  0  0  0  0  0  0  0  0  0
    1.7200    9.6461   -2.9279 H   0  0  0  0  0  0  0  0  0  0  0  0
   -1.0358   10.7972   -3.3514 H   0  0  0  0  0  0  0  0  0  0  0  0
   -0.3914    9.4811   -4.4447 H   0  0  0  0  0  0  0  0  0  0  0  0
   -1.8222    8.8507   -2.3421 H   0  0  0  0  0  0  0  0  0  0  0  0
   -0.3300    7.9162   -2.7750 H   0  0  0  0  0  0  0  0  0  0  0  0
    0.7946    9.5255   -1.5335 H   0  0  0  0  0  0  0  0  0  0  0  0
   -2.8711    9.9944    0.9810 H   0  0  0  0  0  0  0  0  0  0  0  0
   -2.5983   10.8593   -0.5695 H   0  0  0  0  0  0  0  0  0  0  0  0
   -2.8958    9.0878   -0.5695 H   0  0  0  0  0  0  0  0  0  0  0  0
   -0.6179   10.0140    2.1756 H   0  0  0  0  0  0  0  0  0  0  0  0
    0.8325   10.1988    1.1321 H   0  0  0  0  0  0  0  0  0  0  0  0
   -0.4413   11.4654    1.1321 H   0  0  0  0  0  0  0  0  0  0  0  0
    0.0700   11.5752   -1.9225 H   0  0  0  0  0  0  0  0  0  0  0  0
    1.6870   10.9000   -0.2595 H   0  0  0  0  0  0  0  0  0  0  0  0
    2.9697   10.7062   -1.4734 H   0  0  0  0  0  0  0  0  0  0  0  0
    2.7271   12.8918    0.3518 H   0  0  0  0  0  0  0  0  0  0  0  0
    3.7634   12.9058   -1.0728 H   0  0  0  0  0  0  0  0  0  0  0  0
    0.8892   13.8307    0.6058 H   0  0  0  0  0  0  0  0  0  0  0  0
   -0.0153   14.7900   -0.6141 H   0  0  0  0  0  0  0  0  0  0  0  0
   -0.1327   12.9976   -0.6141 H   0  0  0  0  0  0  0  0  0  0  0  0
    3.2596   14.9492   -2.2675 H   0  0  0  0  0  0  0  0  0  0  0  0
    3.1309   15.2809    0.2834 H   0  0  0  0  0  0  0  0  0  0  0  0
    3.5860   16.6699   -0.8355 H   0  0  0  0  0  0  0  0  0  0  0  0
    1.9420   17.2530    1.1394 H   0  0  0  0  0  0  0  0  0  0  0  0
   -0.5032   16.0344   -1.8321 H   0  0  0  0  0  0  0  0  0  0  0  0
    0.5269   18.7841   -2.7691 H   0  0  0  0  0  0  0  0  0  0  0  0
   -0.6159   17.6838   -3.6604 H   0  0  0  0  0  0  0  0  0  0  0  0
   -1.7905   19.5633   -2.5625 H   0  0  0  0  0  0  0  0  0  0  0  0
   -2.2809   17.9488   -1.9153 H   0  0  0  0  0  0  0  0  0  0  0  0
   -2.0235   19.4703   -0.0765 H   0  0  0  0  0  0  0  0  0  0  0  0
   -0.6340   21.0340   -0.6460 H   0  0  0  0  0  0  0  0  0  0  0  0
   -1.7500   16.8955    1.7446 H   0  0  0  0  0  0  0  0  0  0  0  0
   -2.6052   17.3366    0.2278 H   0  0  0  0  0  0  0  0  0  0  0  0
   -1.4109   15.9948    0.2278 H   0  0  0  0  0  0  0  0  0  0  0  0
   -0.4978   18.0227    2.4888 H   0  0  0  0  0  0  0  0  0  0  0  0
    1.0336   18.5600    1.7190 H   0  0  0  0  0  0  0  0  0  0  0  0
   -0.3997   19.6427    1.7190 H   0  0  0  0  0  0  0  0  0  0  0  0
    2.9058   17.6848   -2.5650 H   0  0  0  0  0  0  0  0  0  0  0  0
    3.1238   16.5878   -3.9706 H   0  0  0  0  0  0  0  0  0  0  0  0
    1.7927   17.7940   -3.9706 H   0  0  0  0  0  0  0  0  0  0  0  0
   -0.0658   15.7631   -4.2195 H   0  0  0  0  0  0  0  0  0  0  0  0
    1.6264   15.0999   -4.5811 H   0  0  0  0  0  0  0  0  0  0  0  0
   -0.5309   13.8301   -2.8722 H   0  0  0  0  0  0  0  0  0  0  0  0
    0.1503   13.2524   -4.4438 H   0  0  0  0  0  0  0  0  0  0  0  0
    3.6248   12.8283   -3.1189 H   0  0  0  0  0  0  0  0  0  0  0  0
    2.5954   12.0222   -4.3505 H   0  0  0  0  0  0  0  0  0  0  0  0
    2.7619   13.8107   -4.3505 H   0  0  0  0  0  0  0  0  0  0  0  0
  1  2  1  0
  2  3  1  0
  3  4  1  0
  4  5  1  0
  5  6  1  0
  6  7  1  0
  7  8  1  0
  7  9  1  0
  2 10  1  0
 10 11  1  0
 11 12  1  0
 12 13  1  0
 13 14  1  1
 13 15  1  0
 15 16  1  0
 16 17  1  0
 17 18  2  0
 18 19  1  0
 19 20  1  0
 20 21  1  0
 21 22  1  0
 22 23  1  0
 22 24  1  0
 24 25  1  0
 24 26  1  0
 19 27  1  0
 27 28  1  6
 27 29  1  0
 29 30  1  0
 30 31  1  0
 31 32  1  6
  7  5  1  0
 31 10  1  0
 31 13  1  0
 27 15  1  0
 24 18  1  0
  1 33  1  0
  1 34  1  0
  1 35  1  0
  2 36  1  1
  3 37  1  0
  3 38  1  0
  4 39  1  0
  4 40  1  0
  5 41  1  6
  8 42  1  0
  8 43  1  0
  8 44  1  0
  9 45  1  0
  9 46  1  0
  9 47  1  0
 10 48  1  1
 11 49  1  0
 11 50  1  0
 12 51  1  0
 12 52  1  0
 14 53  1  0
 14 54  1  0
 14 55  1  0
 15 56  1  6
 16 57  1  0
 16 58  1  0
 17 59  1  0
 19 60  1  1
 20 61  1  0
 20 62  1  0
 21 63  1  0
 21 64  1  0
 22 65  1  1
 23 66  1  0
 25 67  1  0
 25 68  1  0
 25 69  1  0
 26 70  1  0
 26 71  1  0
 26 72  1  0
 28 73  1  0
 28 74  1  0
 28 75  1  0
 29 76  1  0
 29 77  1  0
 30 78  1  0
 30 79  1  0
 32 80  1  0
 32 81  1  0
 32 82  1  0
M  END
>  <meeko>  (12) 
{"is_sidechain": [false], "intermolecular_energy": 2.731, "internal_energy": -0.839}

$$$$
EPH_relaxed_0001_pdb2pqr_Repair_243_r2_0001_out
     RDKit          3D

 82 86  0  0  0  0  0  0  0  0999 V2000
    0.2260   17.7720   -2.5700 C   0  0  0  0  0  0  0  0  0  0  0  0
    0.0620   16.9740   -1.2730 C   0  0  2  0  0  0  0  0  0  0  0  0
    0.1420   17.8740   -0.0240 C   0  0  0  0  0  0  0  0  0  0  0  0
    0.9140   19.1770   -0.2510 C   0  0  0  0  0  0  0  0  0  0  0  0
    1.9400   19.4070    0.8160 C   0  0  2  0  0  0  0  0  0  0  0  0
    3.0650   20.1940    0.4050 O   0  0  0  0  0  0  0  0  0  0  0  0
    3.3430   18.8320    0.7660 C   0  0  0  0  0  0  0  0  0  0  0  0
    3.7960   17.9790   -0.3770 C   0  0  0  0  0  0  0  0  0  0  0  0
    4.1040   18.6910    2.0470 C   0  0  0  0  0  0  0  0  0  0  0  0
    1.1230   15.8820   -1.1970 C   0  0  1  0  0  0  0  0  0  0  0  0
    1.3230   15.3420    0.2440 C   0  0  0  0  0  0  0  0  0  0  0  0
    1.6410   13.8300    0.1150 C   0  0  0  0  0  0  0  0  0  0  0  0
    1.9410   13.6220   -1.3880 C   0  0  1  0  0  0  0  0  0  0  0  0
    3.4230   14.0770   -1.5680 C   0  0  0  0  0  0  0  0  0  0  0  0
    1.7080   12.1800   -1.9460 C   0  0  2  0  0  0  0  0  0  0  0  0
    2.5950   11.0880   -1.3210 C   0  0  0  0  0  0  0  0  0  0  0  0
    3.8930   10.8450   -2.0170 C   0  0  0  0  0  0  0  0  0  0  0  0
    4.2080   11.2690   -3.2550 C   0  0  0  0  0  0  0  0  0  0  0  0
    3.1730   11.9920   -4.1270 C   0  0  1  0  0  0  0  0  0  0  0  0
    3.1920   11.3920   -5.5580 C   0  0  0  0  0  0  0  0  0  0  0  0
    4.5870   11.4010   -6.1770 C   0  0  0  0  0  0  0  0  0  0  0  0
    5.5740   10.6240   -5.3110 C   0  0  2  0  0  0  0  0  0  0  0  0
    5.2100    9.2400   -5.3250 O   0  0  0  0  0  0  0  0  0  0  0  0
    5.6340   11.1330   -3.8430 C   0  0  0  0  0  0  0  0  0  0  0  0
    6.3120   12.5250   -3.8020 C   0  0  0  0  0  0  0  0  0  0  0  0
    6.5590   10.1760   -3.0430 C   0  0  0  0  0  0  0  0  0  0  0  0
    1.7050   12.0880   -3.5250 C   0  0  1  0  0  0  0  0  0  0  0  0
    0.8930   10.8090   -3.8960 C   0  0  0  0  0  0  0  0  0  0  0  0
    0.9550   13.3000   -4.1940 C   0  0  0  0  0  0  0  0  0  0  0  0
    1.1280   14.6780   -3.5260 C   0  0  0  0  0  0  0  0  0  0  0  0
    0.8760   14.5920   -2.0180 C   0  0  2  0  0  0  0  0  0  0  0  0
   -0.6140   14.1570   -1.8060 C   0  0  0  0  0  0  0  0  0  0  0  0
    0.4421   18.8233   -2.3289 H   0  0  0  0  0  0  0  0  0  0  0  0
    1.0566   17.3521   -3.1563 H   0  0  0  0  0  0  0  0  0  0  0  0
   -0.7029   17.7137   -3.1563 H   0  0  0  0  0  0  0  0  0  0  0  0
   -0.9393   16.5190   -1.2885 H   0  0  0  0  0  0  0  0  0  0  0  0
   -0.8821   18.1272    0.2875 H   0  0  0  0  0  0  0  0  0  0  0  0
    0.6875   17.3077    0.7452 H   0  0  0  0  0  0  0  0  0  0  0  0
    1.4196   19.1263   -1.2266 H   0  0  0  0  0  0  0  0  0  0  0  0
    0.1963   20.0101   -0.2214 H   0  0  0  0  0  0  0  0  0  0  0  0
    1.1649   19.3945    1.5965 H   0  0  0  0  0  0  0  0  0  0  0  0
    4.2785   17.0704    0.0123 H   0  0  0  0  0  0  0  0  0  0  0  0
    2.9280   17.6985   -0.9918 H   0  0  0  0  0  0  0  0  0  0  0  0
    4.5145   18.5411   -0.9918 H   0  0  0  0  0  0  0  0  0  0  0  0
    3.4176   18.8182    2.8971 H   0  0  0  0  0  0  0  0  0  0  0  0
    4.5632   17.6925    2.0927 H   0  0  0  0  0  0  0  0  0  0  0  0
    4.8905   19.4587    2.0927 H   0  0  0  0  0  0  0  0  0  0  0  0
    1.9822   16.4313   -1.6094 H   0  0  0  0  0  0  0  0  0  0  0  0
    2.1590   15.8646    0.7317 H   0  0  0  0  0  0  0  0  0  0  0  0
    0.4234   15.5056    0.8555 H   0  0  0  0  0  0  0  0  0  0  0  0
    2.5159   13.5635    0.7262 H   0  0  0  0  0  0  0  0  0  0  0  0
    0.8125   13.1977    0.4667 H   0  0  0  0  0  0  0  0  0  0  0  0
    3.8855   14.2190   -0.5801 H   0  0  0  0  0  0  0  0  0  0  0  0
    3.9776   13.3078   -2.1254 H   0  0  0  0  0  0  0  0  0  0  0  0
    3.4504   15.0249   -2.1254 H   0  0  0  0  0  0  0  0  0  0  0  0
    0.6830   11.9608   -1.6123 H   0  0  0  0  0  0  0  0  0  0  0  0
    2.8151   11.3812   -0.2839 H   0  0  0  0  0  0  0  0  0  0  0  0
    2.0259   10.1502   -1.4024 H   0  0  0  0  0  0  0  0  0  0  0  0
    4.6567   10.2708   -1.4720 H   0  0  0  0  0  0  0  0  0  0  0  0
    3.4859   13.0460   -4.1599 H   0  0  0  0  0  0  0  0  0  0  0  0
    2.8342   10.3529   -5.5096 H   0  0  0  0  0  0  0  0  0  0  0  0
    2.5418   12.0146   -6.1901 H   0  0  0  0  0  0  0  0  0  0  0  0
    4.5413   10.9383   -7.1739 H   0  0  0  0  0  0  0  0  0  0  0  0
    4.9308   12.4432   -6.2515 H   0  0  0  0  0  0  0  0  0  0  0  0
    6.5767   10.7756   -5.7373 H   0  0  0  0  0  0  0  0  0  0  0  0
    4.3100    9.1680   -4.9650 H   0  0  0  0  0  0  0  0  0  0  0  0
    6.4605   12.8298   -2.7556 H   0  0  0  0  0  0  0  0  0  0  0  0
    7.2860   12.4736   -4.3107 H   0  0  0  0  0  0  0  0  0  0  0  0
    5.6711   13.2602   -4.3107 H   0  0  0  0  0  0  0  0  0  0  0  0
    6.4061   10.3342   -1.9652 H   0  0  0  0  0  0  0  0  0  0  0  0
    6.3173    9.1338   -3.2985 H   0  0  0  0  0  0  0  0  0  0  0  0
    7.6089   10.3821   -3.2985 H   0  0  0  0  0  0  0  0  0  0  0  0
    0.5699   10.3001   -2.9759 H   0  0  0  0  0  0  0  0  0  0  0  0
    0.0100   11.0938   -4.4869 H   0  0  0  0  0  0  0  0  0  0  0  0
    1.5265   10.1311   -4.4869 H   0  0  0  0  0  0  0  0  0  0  0  0
    1.3163   13.3844   -5.2295 H   0  0  0  0  0  0  0  0  0  0  0  0
   -0.1153   13.0653   -4.0971 H   0  0  0  0  0  0  0  0  0  0  0  0
    2.1536   15.0357   -3.6995 H   0  0  0  0  0  0  0  0  0  0  0  0
    0.3978   15.3742   -3.9643 H   0  0  0  0  0  0  0  0  0  0  0  0
   -0.8280   14.0945   -0.7288 H   0  0  0  0  0  0  0  0  0  0  0  0
   -1.2818   14.8977   -2.2702 H   0  0  0  0  0  0  0  0  0  0  0  0
   -0.7784   13.1734   -2.2702 H   0  0  0  0  0  0  0  0  0  0  0  0
  1  2  1  0
  2  3  1  0
  3  4  1  0
  4  5  1  0
  5  6  1  0
  6  7  1  0
  7  8  1  0
  7  9  1  0
  2 10  1  0
 10 11  1  0
 11 12  1  0
 12 13  1  0
 13 14  1  1
 13 15  1  0
 15 16  1  0
 16 17  1  0
 17 18  2  0
 18 19  1  0
 19 20  1  0
 20 21  1  0
 21 22  1  0
 22 23  1  0
 22 24  1  0
 24 25  1  0
 24 26  1  0
 19 27  1  0
 27 28  1  1
 27 29  1  0
 29 30  1  0
 30 31  1  0
 31 32  1  6
  7  5  1  0
 31 10  1  0
 31 13  1  0
 27 15  1  0
 24 18  1  0
  1 33  1  0
  1 34  1  0
  1 35  1  0
  2 36  1  6
  3 37  1  0
  3 38  1  0
  4 39  1  0
  4 40  1  0
  5 41  1  1
  8 42  1  0
  8 43  1  0
  8 44  1  0
  9 45  1  0
  9 46  1  0
  9 47  1  0
 10 48  1  6
 11 49  1  0
 11 50  1  0
 12 51  1  0
 12 52  1  0
 14 53  1  0
 14 54  1  0
 14 55  1  0
 15 56  1  1
 16 57  1  0
 16 58  1  0
 17 59  1  0
 19 60  1  6
 20 61  1  0
 20 62  1  0
 21 63  1  0
 21 64  1  0
 22 65  1  6
 23 66  1  0
 25 67  1  0
 25 68  1  0
 25 69  1  0
 26 70  1  0
 26 71  1  0
 26 72  1  0
 28 73  1  0
 28 74  1  0
 28 75  1  0
 29 76  1  0
 29 77  1  0
 30 78  1  0
 30 79  1  0
 32 80  1  0
 32 81  1  0
 32 82  1  0
M  END
>  <meeko>  (13) 
{"is_sidechain": [false], "intermolecular_energy": 2.731, "internal_energy": -0.839}

$$$$
EPH_relaxed_0001_pdb2pqr_Repair_243_r2_0001_out
     RDKit          3D

 82 86  0  0  0  0  0  0  0  0999 V2000
   -3.7260    7.2010   -3.4250 C   0  0  0  0  0  0  0  0  0  0  0  0
   -3.7520    7.2730   -1.8950 C   0  0  2  0  0  0  0  0  0  0  0  0
   -5.1680    7.0480   -1.3270 C   0  0  0  0  0  0  0  0  0  0  0  0
   -6.2850    7.2880   -2.3460 C   0  0  0  0  0  0  0  0  0  0  0  0
   -7.6100    7.4970   -1.6760 C   0  0  2  0  0  0  0  0  0  0  0  0
   -8.1870    6.3140   -1.1090 O   0  0  0  0  0  0  0  0  0  0  0  0
   -8.9110    6.9140   -2.1950 C   0  0  0  0  0  0  0  0  0  0  0  0
   -8.9510    6.0780   -3.4360 C   0  0  0  0  0  0  0  0  0  0  0  0
  -10.1980    7.5560   -1.7810 C   0  0  0  0  0  0  0  0  0  0  0  0
   -3.2120    8.6200   -1.4300 C   0  0  1  0  0  0  0  0  0  0  0  0
   -3.8300    9.0770   -0.0810 C   0  0  0  0  0  0  0  0  0  0  0  0
   -2.7160    9.8340    0.6880 C   0  0  0  0  0  0  0  0  0  0  0  0
   -1.6100   10.0750   -0.3660 C   0  0  1  0  0  0  0  0  0  0  0  0
   -2.0850   11.3300   -1.1650 C   0  0  0  0  0  0  0  0  0  0  0  0
   -0.1580   10.2570    0.1850 C   0  0  2  0  0  0  0  0  0  0  0  0
    0.0440   11.4780    1.1000 C   0  0  0  0  0  0  0  0  0  0  0  0
    0.4510   12.7350    0.4060 C   0  0  0  0  0  0  0  0  0  0  0  0
    0.9220   12.8160   -0.8530 C   0  0  0  0  0  0  0  0  0  0  0  0
    1.1780   11.5500   -1.6810 C   0  0  1  0  0  0  0  0  0  0  0  0
    2.5670   11.6510   -2.3640 C   0  0  0  0  0  0  0  0  0  0  0  0
    2.7250   12.9270   -3.1850 C   0  0  0  0  0  0  0  0  0  0  0  0
    2.5200   14.1640   -2.3150 C   0  0  2  0  0  0  0  0  0  0  0  0
    3.5890   14.2420   -1.3660 O   0  0  0  0  0  0  0  0  0  0  0  0
    1.1570   14.1690   -1.5680 C   0  0  0  0  0  0  0  0  0  0  0  0
    0.0080   14.3890   -2.5830 C   0  0  0  0  0  0  0  0  0  0  0  0
    1.1380   15.3980   -0.6180 C   0  0  0  0  0  0  0  0  0  0  0  0
    0.9700   10.1700   -0.9210 C   0  0  1  0  0  0  0  0  0  0  0  0
    2.2840    9.7650   -0.1850 C   0  0  0  0  0  0  0  0  0  0  0  0
    0.6870    9.0380   -1.9780 C   0  0  0  0  0  0  0  0  0  0  0  0
   -0.7820    8.8280   -2.3930 C   0  0  0  0  0  0  0  0  0  0  0  0
   -1.6890    8.7230   -1.1630 C   0  0  2  0  0  0  0  0  0  0  0  0
   -1.2500    7.4570   -0.3510 C   0  0  0  0  0  0  0  0  0  0  0  0
   -3.3680    6.2095   -3.7394 H   0  0  0  0  0  0  0  0  0  0  0  0
   -4.7404    7.3658   -3.8171 H   0  0  0  0  0  0  0  0  0  0  0  0
   -3.0509    7.9759   -3.8171 H   0  0  0  0  0  0  0  0  0  0  0  0
   -3.1116    6.4638   -1.5141 H   0  0  0  0  0  0  0  0  0  0  0  0
   -5.2389    6.0092   -0.9722 H   0  0  0  0  0  0  0  0  0  0  0  0
   -5.3093    7.7787   -0.5170 H   0  0  0  0  0  0  0  0  0  0  0  0
   -6.0405    8.1814   -2.9394 H   0  0  0  0  0  0  0  0  0  0  0  0
   -6.3614    6.3979   -2.9878 H   0  0  0  0  0  0  0  0  0  0  0  0
   -7.3254    8.5171   -1.3786 H   0  0  0  0  0  0  0  0  0  0  0  0
   -9.0019    5.0144   -3.1601 H   0  0  0  0  0  0  0  0  0  0  0  0
   -9.8374    6.3456   -4.0299 H   0  0  0  0  0  0  0  0  0  0  0  0
   -8.0431    6.2597   -4.0299 H   0  0  0  0  0  0  0  0  0  0  0  0
  -10.2566    7.5852   -0.6830 H   0  0  0  0  0  0  0  0  0  0  0  0
  -10.2408    8.5810   -2.1779 H   0  0  0  0  0  0  0  0  0  0  0  0
  -11.0426    6.9736   -2.1779 H   0  0  0  0  0  0  0  0  0  0  0  0
   -3.4840    9.2375   -2.2988 H   0  0  0  0  0  0  0  0  0  0  0  0
   -4.6853    9.7444   -0.2630 H   0  0  0  0  0  0  0  0  0  0  0  0
   -4.1945    8.2158    0.4983 H   0  0  0  0  0  0  0  0  0  0  0  0
   -3.0947   10.7898    1.0792 H   0  0  0  0  0  0  0  0  0  0  0  0
   -2.3489    9.2670    1.5562 H   0  0  0  0  0  0  0  0  0  0  0  0
   -2.3843   12.1209   -0.4615 H   0  0  0  0  0  0  0  0  0  0  0  0
   -1.2626   11.6945   -1.7981 H   0  0  0  0  0  0  0  0  0  0  0  0
   -2.9426   11.0586   -1.7981 H   0  0  0  0  0  0  0  0  0  0  0  0
   -0.0384    9.3758    0.8324 H   0  0  0  0  0  0  0  0  0  0  0  0
   -0.9039   11.6707    1.6237 H   0  0  0  0  0  0  0  0  0  0  0  0
    0.8749   11.2195    1.7729 H   0  0  0  0  0  0  0  0  0  0  0  0
    0.3584   13.6746    0.9705 H   0  0  0  0  0  0  0  0  0  0  0  0
    0.3873   11.5211   -2.4451 H   0  0  0  0  0  0  0  0  0  0  0  0
    3.3444   11.6341   -1.5859 H   0  0  0  0  0  0  0  0  0  0  0  0
    2.6631   10.7980   -3.0518 H   0  0  0  0  0  0  0  0  0  0  0  0
    3.7362   12.9542   -3.6170 H   0  0  0  0  0  0  0  0  0  0  0  0
    1.9664   12.9283   -3.9816 H   0  0  0  0  0  0  0  0  0  0  0  0
    2.5152   15.0391   -2.9815 H   0  0  0  0  0  0  0  0  0  0  0  0
    3.4690   15.0600   -0.8550 H   0  0  0  0  0  0  0  0  0  0  0  0
   -0.9315   14.5689   -2.0399 H   0  0  0  0  0  0  0  0  0  0  0  0
    0.2386   15.2593   -3.2150 H   0  0  0  0  0  0  0  0  0  0  0  0
   -0.0992   13.4951   -3.2150 H   0  0  0  0  0  0  0  0  0  0  0  0
    1.1433   15.0539    0.4268 H   0  0  0  0  0  0  0  0  0  0  0  0
    2.0267   16.0190   -0.8041 H   0  0  0  0  0  0  0  0  0  0  0  0
    0.2306   15.9913   -0.8041 H   0  0  0  0  0  0  0  0  0  0  0  0
    2.1252    9.8139    0.9024 H   0  0  0  0  0  0  0  0  0  0  0  0
    2.5622    8.7394   -0.4691 H   0  0  0  0  0  0  0  0  0  0  0  0
    3.0913   10.4560   -0.4691 H   0  0  0  0  0  0  0  0  0  0  0  0
    1.2583    9.2802   -2.8863 H   0  0  0  0  0  0  0  0  0  0  0  0
    0.9837    8.1012   -1.4836 H   0  0  0  0  0  0  0  0  0  0  0  0
   -1.1074    9.6796   -3.0085 H   0  0  0  0  0  0  0  0  0  0  0  0
   -0.8549    7.8906   -2.9639 H   0  0  0  0  0  0  0  0  0  0  0  0
   -1.3234    7.6685    0.7260 H   0  0  0  0  0  0  0  0  0  0  0  0
   -1.9078    6.6126   -0.6044 H   0  0  0  0  0  0  0  0  0  0  0  0
   -0.2106    7.2011   -0.6044 H   0  0  0  0  0  0  0  0  0  0  0  0
  1  2  1  0
  2  3  1  0
  3  4  1  0
  4  5  1  0
  5  6  1  0
  6  7  1  0
  7  8  1  0
  7  9  1  0
  2 10  1  0
 10 11  1  0
 11 12  1  0
 12 13  1  0
 13 14  1  6
 13 15  1  0
 15 16  1  0
 16 17  1  0
 17 18  2  0
 18 19  1  0
 19 20  1  0
 20 21  1  0
 21 22  1  0
 22 23  1  0
 22 24  1  0
 24 25  1  0
 24 26  1  0
 19 27  1  0
 27 28  1  1
 27 29  1  0
 29 30  1  0
 30 31  1  0
 31 32  1  1
  7  5  1  0
 31 10  1  0
 31 13  1  0
 27 15  1  0
 24 18  1  0
  1 33  1  0
  1 34  1  0
  1 35  1  0
  2 36  1  1
  3 37  1  0
  3 38  1  0
  4 39  1  0
  4 40  1  0
  5 41  1  1
  8 42  1  0
  8 43  1  0
  8 44  1  0
  9 45  1  0
  9 46  1  0
  9 47  1  0
 10 48  1  6
 11 49  1  0
 11 50  1  0
 12 51  1  0
 12 52  1  0
 14 53  1  0
 14 54  1  0
 14 55  1  0
 15 56  1  1
 16 57  1  0
 16 58  1  0
 17 59  1  0
 19 60  1  6
 20 61  1  0
 20 62  1  0
 21 63  1  0
 21 64  1  0
 22 65  1  6
 23 66  1  0
 25 67  1  0
 25 68  1  0
 25 69  1  0
 26 70  1  0
 26 71  1  0
 26 72  1  0
 28 73  1  0
 28 74  1  0
 28 75  1  0
 29 76  1  0
 29 77  1  0
 30 78  1  0
 30 79  1  0
 32 80  1  0
 32 81  1  0
 32 82  1  0
M  END
>  <meeko>  (14) 
{"is_sidechain": [false], "intermolecular_energy": 2.731, "internal_energy": -0.839}

$$$$
EPH_relaxed_0001_pdb2pqr_Repair_243_r2_0001_out
     RDKit          3D

 82 86  0  0  0  0  0  0  0  0999 V2000
   -0.8630   16.3550   -5.8400 C   0  0  0  0  0  0  0  0  0  0  0  0
    0.2270   15.6510   -6.6540 C   0  0  2  0  0  0  0  0  0  0  0  0
   -0.1760   15.4720   -8.1310 C   0  0  0  0  0  0  0  0  0  0  0  0
    0.4620   16.4970   -9.0720 C   0  0  0  0  0  0  0  0  0  0  0  0
    1.8610   16.1110   -9.4460 C   0  0  2  0  0  0  0  0  0  0  0  0
    2.3300   16.6770  -10.6760 O   0  0  0  0  0  0  0  0  0  0  0  0
    2.1990   15.2470  -10.6460 C   0  0  0  0  0  0  0  0  0  0  0  0
    1.1310   14.7150  -11.5490 C   0  0  0  0  0  0  0  0  0  0  0  0
    3.5080   14.5210  -10.6600 C   0  0  0  0  0  0  0  0  0  0  0  0
    0.5470   14.2970   -6.0330 C   0  0  1  0  0  0  0  0  0  0  0  0
    1.8060   13.6370   -6.6540 C   0  0  0  0  0  0  0  0  0  0  0  0
    2.5190   12.8680   -5.5120 C   0  0  0  0  0  0  0  0  0  0  0  0
    1.4850   12.8330   -4.3620 C   0  0  1  0  0  0  0  0  0  0  0  0
    0.5240   11.6580   -4.7220 C   0  0  0  0  0  0  0  0  0  0  0  0
    2.0640   12.6830   -2.9170 C   0  0  2  0  0  0  0  0  0  0  0  0
    2.8320   11.3760   -2.6540 C   0  0  0  0  0  0  0  0  0  0  0  0
    2.0060   10.2440   -2.1380 C   0  0  0  0  0  0  0  0  0  0  0  0
    0.7660   10.3500   -1.6270 C   0  0  0  0  0  0  0  0  0  0  0  0
    0.1060   11.7220   -1.4390 C   0  0  1  0  0  0  0  0  0  0  0  0
   -0.5320   11.8010   -0.0270 C   0  0  0  0  0  0  0  0  0  0  0  0
   -1.4950   10.6480    0.2450 C   0  0  0  0  0  0  0  0  0  0  0  0
   -0.7880    9.3030    0.1040 C   0  0  2  0  0  0  0  0  0  0  0  0
    0.1830    9.1810    1.1480 O   0  0  0  0  0  0  0  0  0  0  0  0
   -0.0980    9.1140   -1.2760 C   0  0  0  0  0  0  0  0  0  0  0  0
   -1.1740    8.9440   -2.3760 C   0  0  0  0  0  0  0  0  0  0  0  0
    0.6950    7.7800   -1.2340 C   0  0  0  0  0  0  0  0  0  0  0  0
    1.0190   12.9810   -1.7660 C   0  0  1  0  0  0  0  0  0  0  0  0
    1.8470   13.3800   -0.5060 C   0  0  0  0  0  0  0  0  0  0  0  0
    0.0970   14.2130   -2.1000 C   0  0  0  0  0  0  0  0  0  0  0  0
   -0.3440   14.3730   -3.5670 C   0  0  0  0  0  0  0  0  0  0  0  0
    0.8550   14.2650   -4.5150 C   0  0  2  0  0  0  0  0  0  0  0  0
    1.8290   15.4490   -4.1900 C   0  0  0  0  0  0  0  0  0  0  0  0
   -0.6610   16.2245   -4.7666 H   0  0  0  0  0  0  0  0  0  0  0  0
   -0.8681   17.4275   -6.0844 H   0  0  0  0  0  0  0  0  0  0  0  0
   -1.8427   15.9186   -6.0844 H   0  0  0  0  0  0  0  0  0  0  0  0
    1.1218   16.2904   -6.6315 H   0  0  0  0  0  0  0  0  0  0  0  0
    0.1295   14.4661   -8.4548 H   0  0  0  0  0  0  0  0  0  0  0  0
   -1.2648   15.6186   -8.1869 H   0  0  0  0  0  0  0  0  0  0  0  0
   -0.1450   16.5674   -9.9867 H   0  0  0  0  0  0  0  0  0  0  0  0
    0.5013   17.4642   -8.5495 H   0  0  0  0  0  0  0  0  0  0  0  0
    2.1510   16.0482   -8.3868 H   0  0  0  0  0  0  0  0  0  0  0  0
    0.3091   14.3056  -10.9433 H   0  0  0  0  0  0  0  0  0  0  0  0
    0.7489   15.5281  -12.1838 H   0  0  0  0  0  0  0  0  0  0  0  0
    1.5499   13.9202  -12.1838 H   0  0  0  0  0  0  0  0  0  0  0  0
    3.8371   14.3385   -9.6264 H   0  0  0  0  0  0  0  0  0  0  0  0
    3.3888   13.5601  -11.1820 H   0  0  0  0  0  0  0  0  0  0  0  0
    4.2600   15.1309  -11.1820 H   0  0  0  0  0  0  0  0  0  0  0  0
   -0.3991   13.7739   -6.2362 H   0  0  0  0  0  0  0  0  0  0  0  0
    1.5130   12.9409   -7.4538 H   0  0  0  0  0  0  0  0  0  0  0  0
    2.4712   14.3939   -7.0951 H   0  0  0  0  0  0  0  0  0  0  0  0
    2.7779   11.8482   -5.8329 H   0  0  0  0  0  0  0  0  0  0  0  0
    3.4623   13.3473   -5.2111 H   0  0  0  0  0  0  0  0  0  0  0  0
    0.1466   11.1966   -3.7975 H   0  0  0  0  0  0  0  0  0  0  0  0
   -0.3213   12.0431   -5.3112 H   0  0  0  0  0  0  0  0  0  0  0  0
    1.0691   10.9058   -5.3112 H   0  0  0  0  0  0  0  0  0  0  0  0
    2.8169   13.4841   -2.8803 H   0  0  0  0  0  0  0  0  0  0  0  0
    3.2934   11.0565   -3.6001 H   0  0  0  0  0  0  0  0  0  0  0  0
    3.5618   11.6055   -1.8636 H   0  0  0  0  0  0  0  0  0  0  0  0
    2.4491    9.2380   -2.1792 H   0  0  0  0  0  0  0  0  0  0  0  0
   -0.6780   11.7897   -2.2076 H   0  0  0  0  0  0  0  0  0  0  0  0
    0.2707   11.7750    0.7247 H   0  0  0  0  0  0  0  0  0  0  0  0
   -1.1074   12.7369    0.0278 H   0  0  0  0  0  0  0  0  0  0  0  0
   -1.8896   10.7420    1.2675 H   0  0  0  0  0  0  0  0  0  0  0  0
   -2.3135   10.6933   -0.4885 H   0  0  0  0  0  0  0  0  0  0  0  0
   -1.5549    8.5182    0.1806 H   0  0  0  0  0  0  0  0  0  0  0  0
    1.0080    8.8590    0.7470 H   0  0  0  0  0  0  0  0  0  0  0  0
   -2.1567    8.7887   -1.9068 H   0  0  0  0  0  0  0  0  0  0  0  0
   -1.2051    9.8484   -3.0014 H   0  0  0  0  0  0  0  0  0  0  0  0
   -0.9248    8.0741   -3.0014 H   0  0  0  0  0  0  0  0  0  0  0  0
    0.8680    7.4891   -0.1874 H   0  0  0  0  0  0  0  0  0  0  0  0
    0.1174    6.9939   -1.7424 H   0  0  0  0  0  0  0  0  0  0  0  0
    1.6615    7.9118   -1.7424 H   0  0  0  0  0  0  0  0  0  0  0  0
    1.2869   13.1101    0.4014 H   0  0  0  0  0  0  0  0  0  0  0  0
    2.8090   12.8466   -0.5154 H   0  0  0  0  0  0  0  0  0  0  0  0
    2.0292   14.4648   -0.5154 H   0  0  0  0  0  0  0  0  0  0  0  0
   -0.8121   14.1241   -1.4871 H   0  0  0  0  0  0  0  0  0  0  0  0
    0.7124   15.0993   -1.8862 H   0  0  0  0  0  0  0  0  0  0  0  0
   -1.0694   13.5835   -3.8129 H   0  0  0  0  0  0  0  0  0  0  0  0
   -0.7999   15.3665   -3.6898 H   0  0  0  0  0  0  0  0  0  0  0  0
    1.9202   15.5599   -3.0994 H   0  0  0  0  0  0  0  0  0  0  0  0
    2.8188   15.2385   -4.6212 H   0  0  0  0  0  0  0  0  0  0  0  0
    1.4316   16.3796   -4.6212 H   0  0  0  0  0  0  0  0  0  0  0  0
  1  2  1  0
  2  3  1  0
  3  4  1  0
  4  5  1  0
  5  6  1  0
  6  7  1  0
  7  8  1  0
  7  9  1  0
  2 10  1  0
 10 11  1  0
 11 12  1  0
 12 13  1  0
 13 14  1  6
 13 15  1  0
 15 16  1  0
 16 17  1  0
 17 18  2  0
 18 19  1  0
 19 20  1  0
 20 21  1  0
 21 22  1  0
 22 23  1  0
 22 24  1  0
 24 25  1  0
 24 26  1  0
 19 27  1  0
 27 28  1  1
 27 29  1  0
 29 30  1  0
 30 31  1  0
 31 32  1  1
  7  5  1  0
 31 10  1  0
 31 13  1  0
 27 15  1  0
 24 18  1  0
  1 33  1  0
  1 34  1  0
  1 35  1  0
  2 36  1  6
  3 37  1  0
  3 38  1  0
  4 39  1  0
  4 40  1  0
  5 41  1  1
  8 42  1  0
  8 43  1  0
  8 44  1  0
  9 45  1  0
  9 46  1  0
  9 47  1  0
 10 48  1  1
 11 49  1  0
 11 50  1  0
 12 51  1  0
 12 52  1  0
 14 53  1  0
 14 54  1  0
 14 55  1  0
 15 56  1  6
 16 57  1  0
 16 58  1  0
 17 59  1  0
 19 60  1  6
 20 61  1  0
 20 62  1  0
 21 63  1  0
 21 64  1  0
 22 65  1  1
 23 66  1  0
 25 67  1  0
 25 68  1  0
 25 69  1  0
 26 70  1  0
 26 71  1  0
 26 72  1  0
 28 73  1  0
 28 74  1  0
 28 75  1  0
 29 76  1  0
 29 77  1  0
 30 78  1  0
 30 79  1  0
 32 80  1  0
 32 81  1  0
 32 82  1  0
M  END
>  <meeko>  (15) 
{"is_sidechain": [false], "intermolecular_energy": 2.731, "internal_energy": -0.839}

$$$$
EPH_relaxed_0001_pdb2pqr_Repair_243_r2_0001_out
     RDKit          3D

 82 86  0  0  0  0  0  0  0  0999 V2000
    2.9620   18.6610   -1.4450 C   0  0  0  0  0  0  0  0  0  0  0  0
    2.5560   17.5720   -2.4420 C   0  0  2  0  0  0  0  0  0  0  0  0
    1.1280   17.7830   -2.9830 C   0  0  0  0  0  0  0  0  0  0  0  0
    0.5180   19.1350   -2.6010 C   0  0  0  0  0  0  0  0  0  0  0  0
   -0.7840   18.9710   -1.8760 C   0  0  2  0  0  0  0  0  0  0  0  0
   -1.4880   20.1940   -1.6270 O   0  0  0  0  0  0  0  0  0  0  0  0
   -1.0270   19.4820   -0.4680 C   0  0  0  0  0  0  0  0  0  0  0  0
    0.0410   20.1940    0.2990 C   0  0  0  0  0  0  0  0  0  0  0  0
   -2.1280   18.8630    0.3360 C   0  0  0  0  0  0  0  0  0  0  0  0
    2.6670   16.2010   -1.7870 C   0  0  1  0  0  0  0  0  0  0  0  0
    3.3840   16.2520   -0.4110 C   0  0  0  0  0  0  0  0  0  0  0  0
    2.7080   15.1820    0.4850 C   0  0  0  0  0  0  0  0  0  0  0  0
    1.8620   14.3330   -0.4920 C   0  0  1  0  0  0  0  0  0  0  0  0
    2.8750   13.3340   -1.1350 C   0  0  0  0  0  0  0  0  0  0  0  0
    0.6320   13.5900    0.1250 C   0  0  2  0  0  0  0  0  0  0  0  0
    0.9740   12.5410    1.1970 C   0  0  0  0  0  0  0  0  0  0  0  0
    1.1990   11.1560    0.6860 C   0  0  0  0  0  0  0  0  0  0  0  0
    0.8530   10.7080   -0.5350 C   0  0  0  0  0  0  0  0  0  0  0  0
    0.0790   11.6010   -1.5130 C   0  0  1  0  0  0  0  0  0  0  0  0
   -1.0940   10.7970   -2.1320 C   0  0  0  0  0  0  0  0  0  0  0  0
   -0.6340    9.4920   -2.7740 C   0  0  0  0  0  0  0  0  0  0  0  0
    0.0800    8.6050   -1.7560 C   0  0  2  0  0  0  0  0  0  0  0  0
   -0.8670    8.1790   -0.7720 O   0  0  0  0  0  0  0  0  0  0  0  0
    1.2750    9.3130   -1.0590 C   0  0  0  0  0  0  0  0  0  0  0  0
    2.4300    9.5040   -2.0740 C   0  0  0  0  0  0  0  0  0  0  0  0
    1.8170    8.3610    0.0410 C   0  0  0  0  0  0  0  0  0  0  0  0
   -0.3800   13.0130   -0.9460 C   0  0  1  0  0  0  0  0  0  0  0  0
   -1.7570   12.8750   -0.2270 C   0  0  0  0  0  0  0  0  0  0  0  0
   -0.6050   14.0020   -2.1500 C   0  0  0  0  0  0  0  0  0  0  0  0
    0.6220   14.7960   -2.6360 C   0  0  0  0  0  0  0  0  0  0  0  0
    1.3470   15.4590   -1.4610 C   0  0  2  0  0  0  0  0  0  0  0  0
    0.3600   16.4850   -0.8070 C   0  0  0  0  0  0  0  0  0  0  0  0
    2.8233   18.2891   -0.4191 H   0  0  0  0  0  0  0  0  0  0  0  0
    4.0187   18.9244   -1.5998 H   0  0  0  0  0  0  0  0  0  0  0  0
    2.3356   19.5519   -1.5998 H   0  0  0  0  0  0  0  0  0  0  0  0
    3.2452   17.6327   -3.2972 H   0  0  0  0  0  0  0  0  0  0  0  0
    1.1587   17.7136   -4.0804 H   0  0  0  0  0  0  0  0  0  0  0  0
    0.4949   17.0055   -2.5306 H   0  0  0  0  0  0  0  0  0  0  0  0
    1.2230   19.6731   -1.9503 H   0  0  0  0  0  0  0  0  0  0  0  0
    0.3267   19.6985   -3.5261 H   0  0  0  0  0  0  0  0  0  0  0  0
   -0.9480   17.9887   -2.3431 H   0  0  0  0  0  0  0  0  0  0  0  0
   -0.1397   20.0735    1.3773 H   0  0  0  0  0  0  0  0  0  0  0  0
    1.0224   19.7688    0.0420 H   0  0  0  0  0  0  0  0  0  0  0  0
    0.0260   21.2634    0.0420 H   0  0  0  0  0  0  0  0  0  0  0  0
   -1.9122   18.9843    1.4078 H   0  0  0  0  0  0  0  0  0  0  0  0
   -3.0805   19.3578    0.0955 H   0  0  0  0  0  0  0  0  0  0  0  0
   -2.2002   17.7921    0.0955 H   0  0  0  0  0  0  0  0  0  0  0  0
    3.2148   15.6644   -2.5757 H   0  0  0  0  0  0  0  0  0  0  0  0
    4.4533   16.0241   -0.5322 H   0  0  0  0  0  0  0  0  0  0  0  0
    3.3041   17.2524    0.0394 H   0  0  0  0  0  0  0  0  0  0  0  0
    3.4648   14.5597    0.9850 H   0  0  0  0  0  0  0  0  0  0  0  0
    2.0984   15.6309    1.2830 H   0  0  0  0  0  0  0  0  0  0  0  0
    3.4170   12.7995   -0.3409 H   0  0  0  0  0  0  0  0  0  0  0  0
    2.3302   12.6099   -1.7585 H   0  0  0  0  0  0  0  0  0  0  0  0
    3.5915   13.8888   -1.7585 H   0  0  0  0  0  0  0  0  0  0  0  0
    0.1089   14.3993    0.6554 H   0  0  0  0  0  0  0  0  0  0  0  0
    1.8904   12.8666    1.7109 H   0  0  0  0  0  0  0  0  0  0  0  0
    0.0956   12.4828    1.8566 H   0  0  0  0  0  0  0  0  0  0  0  0
    1.6887   10.4420    1.3645 H   0  0  0  0  0  0  0  0  0  0  0  0
    0.7940   11.8816   -2.3004 H   0  0  0  0  0  0  0  0  0  0  0  0
   -1.8189   10.5632   -1.3383 H   0  0  0  0  0  0  0  0  0  0  0  0
   -1.5440   11.4170   -2.9213 H   0  0  0  0  0  0  0  0  0  0  0  0
   -1.5103    8.9556   -3.1669 H   0  0  0  0  0  0  0  0  0  0  0  0
    0.0682    9.7290   -3.5869 H   0  0  0  0  0  0  0  0  0  0  0  0
    0.4989    7.7468   -2.3020 H   0  0  0  0  0  0  0  0  0  0  0  0
   -1.1180    8.9590   -0.2480 H   0  0  0  0  0  0  0  0  0  0  0  0
    3.3736    9.6600   -1.5306 H   0  0  0  0  0  0  0  0  0  0  0  0
    2.5147    8.6077   -2.7060 H   0  0  0  0  0  0  0  0  0  0  0  0
    2.2217   10.3799   -2.7060 H   0  0  0  0  0  0  0  0  0  0  0  0
    1.5814    8.7748    1.0326 H   0  0  0  0  0  0  0  0  0  0  0  0
    1.3463    7.3725   -0.0651 H   0  0  0  0  0  0  0  0  0  0  0  0
    2.9073    8.2612   -0.0651 H   0  0  0  0  0  0  0  0  0  0  0  0
   -1.6050   12.8902    0.8623 H   0  0  0  0  0  0  0  0  0  0  0  0
   -2.4082   13.7124   -0.5181 H   0  0  0  0  0  0  0  0  0  0  0  0
   -2.2291   11.9250   -0.5181 H   0  0  0  0  0  0  0  0  0  0  0  0
   -0.9773   13.4117   -3.0002 H   0  0  0  0  0  0  0  0  0  0  0  0
   -1.3068   14.7601   -1.7721 H   0  0  0  0  0  0  0  0  0  0  0  0
    1.3151   14.1107   -3.1459 H   0  0  0  0  0  0  0  0  0  0  0  0
    0.2803   15.5819   -3.3256 H   0  0  0  0  0  0  0  0  0  0  0  0
    0.4291   16.4131    0.2885 H   0  0  0  0  0  0  0  0  0  0  0  0
    0.6262   17.5038   -1.1251 H   0  0  0  0  0  0  0  0  0  0  0  0
   -0.6683   16.2585   -1.1251 H   0  0  0  0  0  0  0  0  0  0  0  0
  1  2  1  0
  2  3  1  0
  3  4  1  0
  4  5  1  0
  5  6  1  0
  6  7  1  0
  7  8  1  0
  7  9  1  0
  2 10  1  0
 10 11  1  0
 11 12  1  0
 12 13  1  0
 13 14  1  6
 13 15  1  0
 15 16  1  0
 16 17  1  0
 17 18  2  0
 18 19  1  0
 19 20  1  0
 20 21  1  0
 21 22  1  0
 22 23  1  0
 22 24  1  0
 24 25  1  0
 24 26  1  0
 19 27  1  0
 27 28  1  1
 27 29  1  0
 29 30  1  0
 30 31  1  0
 31 32  1  1
  7  5  1  0
 31 10  1  0
 31 13  1  0
 27 15  1  0
 24 18  1  0
  1 33  1  0
  1 34  1  0
  1 35  1  0
  2 36  1  6
  3 37  1  0
  3 38  1  0
  4 39  1  0
  4 40  1  0
  5 41  1  1
  8 42  1  0
  8 43  1  0
  8 44  1  0
  9 45  1  0
  9 46  1  0
  9 47  1  0
 10 48  1  6
 11 49  1  0
 11 50  1  0
 12 51  1  0
 12 52  1  0
 14 53  1  0
 14 54  1  0
 14 55  1  0
 15 56  1  1
 16 57  1  0
 16 58  1  0
 17 59  1  0
 19 60  1  6
 20 61  1  0
 20 62  1  0
 21 63  1  0
 21 64  1  0
 22 65  1  6
 23 66  1  0
 25 67  1  0
 25 68  1  0
 25 69  1  0
 26 70  1  0
 26 71  1  0
 26 72  1  0
 28 73  1  0
 28 74  1  0
 28 75  1  0
 29 76  1  0
 29 77  1  0
 30 78  1  0
 30 79  1  0
 32 80  1  0
 32 81  1  0
 32 82  1  0
M  END
>  <meeko>  (16) 
{"is_sidechain": [false], "intermolecular_energy": 2.731, "internal_energy": -0.839}

$$$$
EPH_relaxed_0001_pdb2pqr_Repair_243_r2_0001_out
     RDKit          3D

 82 86  0  0  0  0  0  0  0  0999 V2000
   -2.1980    7.8380   -2.0790 C   0  0  0  0  0  0  0  0  0  0  0  0
   -2.2100    8.4800   -0.6890 C   0  0  2  0  0  0  0  0  0  0  0  0
   -3.6170    8.4780   -0.0600 C   0  0  0  0  0  0  0  0  0  0  0  0
   -4.7510    8.5260   -1.0880 C   0  0  0  0  0  0  0  0  0  0  0  0
   -5.5320    7.2470   -1.1110 C   0  0  2  0  0  0  0  0  0  0  0  0
   -5.6970    6.6700   -2.4130 O   0  0  0  0  0  0  0  0  0  0  0  0
   -6.8970    7.1120   -1.7580 C   0  0  0  0  0  0  0  0  0  0  0  0
   -7.5620    8.2750   -2.4260 C   0  0  0  0  0  0  0  0  0  0  0  0
   -7.7910    5.9940   -1.3190 C   0  0  0  0  0  0  0  0  0  0  0  0
   -1.6770    9.9060   -0.7700 C   0  0  1  0  0  0  0  0  0  0  0  0
   -1.2270   10.4560    0.6090 C   0  0  0  0  0  0  0  0  0  0  0  0
   -0.0030   11.3710    0.3480 C   0  0  0  0  0  0  0  0  0  0  0  0
    0.0060   11.5830   -1.1840 C   0  0  1  0  0  0  0  0  0  0  0  0
   -1.0480   12.7060   -1.4400 C   0  0  0  0  0  0  0  0  0  0  0  0
    1.3880   11.9320   -1.8260 C   0  0  2  0  0  0  0  0  0  0  0  0
    2.0140   13.2540   -1.3490 C   0  0  0  0  0  0  0  0  0  0  0  0
    1.6520   14.4580   -2.1550 C   0  0  0  0  0  0  0  0  0  0  0  0
    1.0920   14.4400   -3.3780 C   0  0  0  0  0  0  0  0  0  0  0  0
    0.8550   13.1170   -4.1170 C   0  0  1  0  0  0  0  0  0  0  0  0
    1.3400   13.2490   -5.5850 C   0  0  0  0  0  0  0  0  0  0  0  0
    0.7120   14.4390   -6.3040 C   0  0  0  0  0  0  0  0  0  0  0  0
    1.0190   15.7430   -5.5710 C   0  0  2  0  0  0  0  0  0  0  0  0
    2.4240   16.0010   -5.6580 O   0  0  0  0  0  0  0  0  0  0  0  0
    0.5830   15.7240   -4.0790 C   0  0  0  0  0  0  0  0  0  0  0  0
   -0.9630   15.7470   -3.9880 C   0  0  0  0  0  0  0  0  0  0  0  0
    1.0770   17.0410   -3.4210 C   0  0  0  0  0  0  0  0  0  0  0  0
    1.4190   11.8140   -3.4030 C   0  0  1  0  0  0  0  0  0  0  0  0
    2.9090   11.5890   -3.8040 C   0  0  0  0  0  0  0  0  0  0  0  0
    0.6250   10.5580   -3.9250 C   0  0  0  0  0  0  0  0  0  0  0  0
   -0.6700   10.1940   -3.1750 C   0  0  0  0  0  0  0  0  0  0  0  0
   -0.4340   10.1510   -1.6620 C   0  0  2  0  0  0  0  0  0  0  0  0
    0.6050    9.0150   -1.3720 C   0  0  0  0  0  0  0  0  0  0  0  0
   -2.1775    6.7429   -1.9769 H   0  0  0  0  0  0  0  0  0  0  0  0
   -3.1019    8.1381   -2.6293 H   0  0  0  0  0  0  0  0  0  0  0  0
   -1.3059    8.1717   -2.6293 H   0  0  0  0  0  0  0  0  0  0  0  0
   -1.5583    7.8761   -0.0404 H   0  0  0  0  0  0  0  0  0  0  0  0
   -3.7288    7.5614    0.5378 H   0  0  0  0  0  0  0  0  0  0  0  0
   -3.6976    9.3896    0.5503 H   0  0  0  0  0  0  0  0  0  0  0  0
   -5.4292    9.3534   -0.8324 H   0  0  0  0  0  0  0  0  0  0  0  0
   -4.3061    8.6744   -2.0830 H   0  0  0  0  0  0  0  0  0  0  0  0
   -5.1584    6.9733   -0.1132 H   0  0  0  0  0  0  0  0  0  0  0  0
   -7.9546    8.9616   -1.6615 H   0  0  0  0  0  0  0  0  0  0  0  0
   -6.8303    8.8048   -3.0537 H   0  0  0  0  0  0  0  0  0  0  0  0
   -8.3897    7.9132   -3.0537 H   0  0  0  0  0  0  0  0  0  0  0  0
   -7.8200    5.9577   -0.2200 H   0  0  0  0  0  0  0  0  0  0  0  0
   -8.8063    6.1624   -1.7073 H   0  0  0  0  0  0  0  0  0  0  0  0
   -7.4034    5.0406   -1.7073 H   0  0  0  0  0  0  0  0  0  0  0  0
   -2.5557   10.4061   -1.2034 H   0  0  0  0  0  0  0  0  0  0  0  0
   -2.0410   11.0347    1.0699 H   0  0  0  0  0  0  0  0  0  0  0  0
   -0.9682    9.6365    1.2956 H   0  0  0  0  0  0  0  0  0  0  0  0
   -0.1172   12.3313    0.8722 H   0  0  0  0  0  0  0  0  0  0  0  0
    0.9349   10.9273    0.7132 H   0  0  0  0  0  0  0  0  0  0  0  0
   -1.4119   13.0937   -0.4771 H   0  0  0  0  0  0  0  0  0  0  0  0
   -0.5825   13.5224   -2.0116 H   0  0  0  0  0  0  0  0  0  0  0  0
   -1.8922   12.2931   -2.0116 H   0  0  0  0  0  0  0  0  0  0  0  0
    2.0373   11.1353   -1.4339 H   0  0  0  0  0  0  0  0  0  0  0  0
    1.6903   13.4289   -0.3124 H   0  0  0  0  0  0  0  0  0  0  0  0
    3.1020   13.1318   -1.4559 H   0  0  0  0  0  0  0  0  0  0  0  0
    1.8609   15.4426   -1.7112 H   0  0  0  0  0  0  0  0  0  0  0  0
   -0.2318   12.9481   -4.0972 H   0  0  0  0  0  0  0  0  0  0  0  0
    2.4329   13.3735   -5.5854 H   0  0  0  0  0  0  0  0  0  0  0  0
    1.0361   12.3373   -6.1202 H   0  0  0  0  0  0  0  0  0  0  0  0
    1.1158   14.4965   -7.3256 H   0  0  0  0  0  0  0  0  0  0  0  0
   -0.3787   14.2985   -6.3291 H   0  0  0  0  0  0  0  0  0  0  0  0
    0.4378   16.5400   -6.0579 H   0  0  0  0  0  0  0  0  0  0  0  0
    2.5510   16.9630   -5.5880 H   0  0  0  0  0  0  0  0  0  0  0  0
   -1.2681   15.7515   -2.9312 H   0  0  0  0  0  0  0  0  0  0  0  0
   -1.3461   16.6509   -4.4841 H   0  0  0  0  0  0  0  0  0  0  0  0
   -1.3728   14.8549   -4.4841 H   0  0  0  0  0  0  0  0  0  0  0  0
    1.0393   16.9405   -2.3262 H   0  0  0  0  0  0  0  0  0  0  0  0
    2.1117   17.2423   -3.7353 H   0  0  0  0  0  0  0  0  0  0  0  0
    0.4299   17.8731   -3.7353 H   0  0  0  0  0  0  0  0  0  0  0  0
    3.5231   11.4963   -2.8961 H   0  0  0  0  0  0  0  0  0  0  0  0
    2.9934   10.6679   -4.3994 H   0  0  0  0  0  0  0  0  0  0  0  0
    3.2616   12.4441   -4.3994 H   0  0  0  0  0  0  0  0  0  0  0  0
    0.3594   10.7454   -4.9759 H   0  0  0  0  0  0  0  0  0  0  0  0
    1.2998    9.7041   -3.7652 H   0  0  0  0  0  0  0  0  0  0  0  0
   -1.4390   10.9483   -3.3979 H   0  0  0  0  0  0  0  0  0  0  0  0
   -0.9994    9.1984   -3.5069 H   0  0  0  0  0  0  0  0  0  0  0  0
    0.7186    8.8908   -0.2850 H   0  0  0  0  0  0  0  0  0  0  0  0
    0.2502    8.0721   -1.8137 H   0  0  0  0  0  0  0  0  0  0  0  0
    1.5757    9.2844   -1.8137 H   0  0  0  0  0  0  0  0  0  0  0  0
  1  2  1  0
  2  3  1  0
  3  4  1  0
  4  5  1  0
  5  6  1  0
  6  7  1  0
  7  8  1  0
  7  9  1  0
  2 10  1  0
 10 11  1  0
 11 12  1  0
 12 13  1  0
 13 14  1  1
 13 15  1  0
 15 16  1  0
 16 17  1  0
 17 18  2  0
 18 19  1  0
 19 20  1  0
 20 21  1  0
 21 22  1  0
 22 23  1  0
 22 24  1  0
 24 25  1  0
 24 26  1  0
 19 27  1  0
 27 28  1  6
 27 29  1  0
 29 30  1  0
 30 31  1  0
 31 32  1  6
  7  5  1  0
 31 10  1  0
 31 13  1  0
 27 15  1  0
 24 18  1  0
  1 33  1  0
  1 34  1  0
  1 35  1  0
  2 36  1  1
  3 37  1  0
  3 38  1  0
  4 39  1  0
  4 40  1  0
  5 41  1  1
  8 42  1  0
  8 43  1  0
  8 44  1  0
  9 45  1  0
  9 46  1  0
  9 47  1  0
 10 48  1  6
 11 49  1  0
 11 50  1  0
 12 51  1  0
 12 52  1  0
 14 53  1  0
 14 54  1  0
 14 55  1  0
 15 56  1  1
 16 57  1  0
 16 58  1  0
 17 59  1  0
 19 60  1  6
 20 61  1  0
 20 62  1  0
 21 63  1  0
 21 64  1  0
 22 65  1  6
 23 66  1  0
 25 67  1  0
 25 68  1  0
 25 69  1  0
 26 70  1  0
 26 71  1  0
 26 72  1  0
 28 73  1  0
 28 74  1  0
 28 75  1  0
 29 76  1  0
 29 77  1  0
 30 78  1  0
 30 79  1  0
 32 80  1  0
 32 81  1  0
 32 82  1  0
M  END
>  <meeko>  (17) 
{"is_sidechain": [false], "intermolecular_energy": 2.731, "internal_energy": -0.839}

$$$$
EPH_relaxed_0001_pdb2pqr_Repair_243_r2_0001_out
     RDKit          3D

 82 86  0  0  0  0  0  0  0  0999 V2000
   -0.2150    9.3900   -2.5920 C   0  0  0  0  0  0  0  0  0  0  0  0
    0.8650   10.3800   -3.0360 C   0  0  2  0  0  0  0  0  0  0  0  0
    2.2460    9.7090   -3.1750 C   0  0  0  0  0  0  0  0  0  0  0  0
    3.2420   10.5190   -4.0100 C   0  0  0  0  0  0  0  0  0  0  0  0
    4.5960   10.5620   -3.3700 C   0  0  2  0  0  0  0  0  0  0  0  0
    5.2160   11.8550   -3.3660 O   0  0  0  0  0  0  0  0  0  0  0  0
    5.8760   10.8380   -4.1370 C   0  0  0  0  0  0  0  0  0  0  0  0
    5.8630   11.0880   -5.6120 C   0  0  0  0  0  0  0  0  0  0  0  0
    7.1750   10.3830   -3.5480 C   0  0  0  0  0  0  0  0  0  0  0  0
    0.9460   11.5380   -2.0480 C   0  0  1  0  0  0  0  0  0  0  0  0
    2.0400   11.3270   -0.9670 C   0  0  0  0  0  0  0  0  0  0  0  0
    2.6330   12.7240   -0.6510 C   0  0  0  0  0  0  0  0  0  0  0  0
    1.6480   13.7220   -1.3040 C   0  0  1  0  0  0  0  0  0  0  0  0
    0.4730   13.8510   -0.2840 C   0  0  0  0  0  0  0  0  0  0  0  0
    2.2340   15.1200   -1.6880 C   0  0  2  0  0  0  0  0  0  0  0  0
    2.7530   15.9570   -0.5070 C   0  0  0  0  0  0  0  0  0  0  0  0
    1.7480   16.8650    0.1210 C   0  0  0  0  0  0  0  0  0  0  0  0
    0.5660   17.2160   -0.4180 C   0  0  0  0  0  0  0  0  0  0  0  0
    0.1800   16.7630   -1.8320 C   0  0  1  0  0  0  0  0  0  0  0  0
   -0.3870   17.9690   -2.6260 C   0  0  0  0  0  0  0  0  0  0  0  0
   -1.5390   18.6580   -1.9000 C   0  0  0  0  0  0  0  0  0  0  0  0
   -1.1000   19.1450   -0.5210 C   0  0  2  0  0  0  0  0  0  0  0  0
   -0.1360   20.1900   -0.6870 O   0  0  0  0  0  0  0  0  0  0  0  0
   -0.5020   18.0180    0.3660 C   0  0  0  0  0  0  0  0  0  0  0  0
   -1.6250   17.0420    0.7950 C   0  0  0  0  0  0  0  0  0  0  0  0
    0.0300   18.6690    1.6710 C   0  0  0  0  0  0  0  0  0  0  0  0
    1.3010   15.9750   -2.6380 C   0  0  1  0  0  0  0  0  0  0  0  0
    2.2280   16.9830   -3.3830 C   0  0  0  0  0  0  0  0  0  0  0  0
    0.6140   15.0980   -3.7500 C   0  0  0  0  0  0  0  0  0  0  0  0
    0.1640   13.6820   -3.3400 C   0  0  0  0  0  0  0  0  0  0  0  0
    1.2910   12.9370   -2.6180 C   0  0  2  0  0  0  0  0  0  0  0  0
    2.4790   12.7730   -3.6270 C   0  0  0  0  0  0  0  0  0  0  0  0
   -0.2519    9.3561   -1.4931 H   0  0  0  0  0  0  0  0  0  0  0  0
   -1.1914    9.7133   -2.9819 H   0  0  0  0  0  0  0  0  0  0  0  0
    0.0224    8.3892   -2.9819 H   0  0  0  0  0  0  0  0  0  0  0  0
    0.5799   10.7574   -4.0291 H   0  0  0  0  0  0  0  0  0  0  0  0
    2.6680    9.5708   -2.1686 H   0  0  0  0  0  0  0  0  0  0  0  0
    2.0887    8.7544   -3.6985 H   0  0  0  0  0  0  0  0  0  0  0  0
    3.3322   10.0571   -5.0042 H   0  0  0  0  0  0  0  0  0  0  0  0
    2.8662   11.5500   -4.0868 H   0  0  0  0  0  0  0  0  0  0  0  0
    4.3146    9.7643   -2.6668 H   0  0  0  0  0  0  0  0  0  0  0  0
    5.8067   12.1704   -5.8000 H   0  0  0  0  0  0  0  0  0  0  0  0
    6.7833   10.6854   -6.0603 H   0  0  0  0  0  0  0  0  0  0  0  0
    4.9894   10.5921   -6.0603 H   0  0  0  0  0  0  0  0  0  0  0  0
    7.1081   10.4064   -2.4503 H   0  0  0  0  0  0  0  0  0  0  0  0
    7.3888    9.3565   -3.8805 H   0  0  0  0  0  0  0  0  0  0  0  0
    7.9826   11.0518   -3.8805 H   0  0  0  0  0  0  0  0  0  0  0  0
   -0.0871   11.5294   -1.6703 H   0  0  0  0  0  0  0  0  0  0  0  0
    1.5969   10.8898   -0.0601 H   0  0  0  0  0  0  0  0  0  0  0  0
    2.8202   10.6387   -1.3242 H   0  0  0  0  0  0  0  0  0  0  0  0
    2.6871   12.8863    0.4356 H   0  0  0  0  0  0  0  0  0  0  0  0
    3.6580   12.8386   -1.0333 H   0  0  0  0  0  0  0  0  0  0  0  0
    0.8705   13.8074    0.7407 H   0  0  0  0  0  0  0  0  0  0  0  0
   -0.0417   14.8110   -0.4370 H   0  0  0  0  0  0  0  0  0  0  0  0
   -0.2377   13.0255   -0.4370 H   0  0  0  0  0  0  0  0  0  0  0  0
    3.1242   14.8493   -2.2748 H   0  0  0  0  0  0  0  0  0  0  0  0
    3.1160   15.2646    0.2668 H   0  0  0  0  0  0  0  0  0  0  0  0
    3.5379   16.6091   -0.9177 H   0  0  0  0  0  0  0  0  0  0  0  0
    1.9947   17.2826    1.1083 H   0  0  0  0  0  0  0  0  0  0  0  0
   -0.6018   16.0000   -1.7035 H   0  0  0  0  0  0  0  0  0  0  0  0
    0.4201   18.7003   -2.7806 H   0  0  0  0  0  0  0  0  0  0  0  0
   -0.7754   17.5868   -3.5815 H   0  0  0  0  0  0  0  0  0  0  0  0
   -1.8765   19.5191   -2.4955 H   0  0  0  0  0  0  0  0  0  0  0  0
   -2.3576   17.9343   -1.7731 H   0  0  0  0  0  0  0  0  0  0  0  0
   -1.9969   19.5105    0.0006 H   0  0  0  0  0  0  0  0  0  0  0  0
   -0.2760   20.5830   -1.5650 H   0  0  0  0  0  0  0  0  0  0  0  0
   -1.6740   16.9994    1.8931 H   0  0  0  0  0  0  0  0  0  0  0  0
   -2.5885   17.3945    0.3983 H   0  0  0  0  0  0  0  0  0  0  0  0
   -1.4102   16.0387    0.3983 H   0  0  0  0  0  0  0  0  0  0  0  0
   -0.3960   18.1477    2.5409 H   0  0  0  0  0  0  0  0  0  0  0  0
    1.1270   18.5920    1.6984 H   0  0  0  0  0  0  0  0  0  0  0  0
   -0.2640   19.7286    1.6984 H   0  0  0  0  0  0  0  0  0  0  0  0
    2.7815   17.5849   -2.6472 H   0  0  0  0  0  0  0  0  0  0  0  0
    2.9394   16.4297   -4.0137 H   0  0  0  0  0  0  0  0  0  0  0  0
    1.6172   17.6456   -4.0137 H   0  0  0  0  0  0  0  0  0  0  0  0
   -0.2760   15.6416   -4.0997 H   0  0  0  0  0  0  0  0  0  0  0  0
    1.3899   14.9431   -4.5142 H   0  0  0  0  0  0  0  0  0  0  0  0
   -0.7037   13.7603   -2.6685 H   0  0  0  0  0  0  0  0  0  0  0  0
   -0.1019   13.1214   -4.2483 H   0  0  0  0  0  0  0  0  0  0  0  0
    3.4183   12.6433   -3.0695 H   0  0  0  0  0  0  0  0  0  0  0  0
    2.3034   11.8906   -4.2598 H   0  0  0  0  0  0  0  0  0  0  0  0
    2.5491   13.6700   -4.2598 H   0  0  0  0  0  0  0  0  0  0  0  0
  1  2  1  0
  2  3  1  0
  3  4  1  0
  4  5  1  0
  5  6  1  0
  6  7  1  0
  7  8  1  0
  7  9  1  0
  2 10  1  0
 10 11  1  0
 11 12  1  0
 12 13  1  0
 13 14  1  1
 13 15  1  0
 15 16  1  0
 16 17  1  0
 17 18  2  0
 18 19  1  0
 19 20  1  0
 20 21  1  0
 21 22  1  0
 22 23  1  0
 22 24  1  0
 24 25  1  0
 24 26  1  0
 19 27  1  0
 27 28  1  6
 27 29  1  0
 29 30  1  0
 30 31  1  0
 31 32  1  6
  7  5  1  0
 31 10  1  0
 31 13  1  0
 27 15  1  0
 24 18  1  0
  1 33  1  0
  1 34  1  0
  1 35  1  0
  2 36  1  6
  3 37  1  0
  3 38  1  0
  4 39  1  0
  4 40  1  0
  5 41  1  1
  8 42  1  0
  8 43  1  0
  8 44  1  0
  9 45  1  0
  9 46  1  0
  9 47  1  0
 10 48  1  1
 11 49  1  0
 11 50  1  0
 12 51  1  0
 12 52  1  0
 14 53  1  0
 14 54  1  0
 14 55  1  0
 15 56  1  6
 16 57  1  0
 16 58  1  0
 17 59  1  0
 19 60  1  1
 20 61  1  0
 20 62  1  0
 21 63  1  0
 21 64  1  0
 22 65  1  1
 23 66  1  0
 25 67  1  0
 25 68  1  0
 25 69  1  0
 26 70  1  0
 26 71  1  0
 26 72  1  0
 28 73  1  0
 28 74  1  0
 28 75  1  0
 29 76  1  0
 29 77  1  0
 30 78  1  0
 30 79  1  0
 32 80  1  0
 32 81  1  0
 32 82  1  0
M  END
>  <meeko>  (18) 
{"is_sidechain": [false], "intermolecular_energy": 2.731, "internal_energy": -0.839}

$$$$
EPH_relaxed_0001_pdb2pqr_Repair_243_r2_0001_out
     RDKit          3D

 82 86  0  0  0  0  0  0  0  0999 V2000
    1.8740   10.7470   -4.8210 C   0  0  0  0  0  0  0  0  0  0  0  0
    1.0420   10.6300   -3.5400 C   0  0  2  0  0  0  0  0  0  0  0  0
   -0.1560    9.6750   -3.7120 C   0  0  0  0  0  0  0  0  0  0  0  0
   -0.2030    8.5540   -2.6700 C   0  0  0  0  0  0  0  0  0  0  0  0
   -0.0870    9.0890   -1.2750 C   0  0  2  0  0  0  0  0  0  0  0  0
   -0.4420    8.1570   -0.2450 O   0  0  0  0  0  0  0  0  0  0  0  0
   -1.2780    9.3190   -0.3640 C   0  0  0  0  0  0  0  0  0  0  0  0
   -2.6740    9.0190   -0.8150 C   0  0  0  0  0  0  0  0  0  0  0  0
   -1.1360   10.2840    0.7710 C   0  0  0  0  0  0  0  0  0  0  0  0
    0.5520   12.0080   -3.1110 C   0  0  1  0  0  0  0  0  0  0  0  0
   -0.9250   11.9950   -2.6340 C   0  0  0  0  0  0  0  0  0  0  0  0
   -1.0340   13.0350   -1.4900 C   0  0  0  0  0  0  0  0  0  0  0  0
    0.2830   13.8410   -1.5680 C   0  0  1  0  0  0  0  0  0  0  0  0
    0.0500   14.8830   -2.7060 C   0  0  0  0  0  0  0  0  0  0  0  0
    0.7520   14.5280   -0.2440 C   0  0  2  0  0  0  0  0  0  0  0  0
   -0.2060   15.5960    0.3120 C   0  0  0  0  0  0  0  0  0  0  0  0
    0.0420   16.9880   -0.1680 C   0  0  0  0  0  0  0  0  0  0  0  0
    1.1610   17.4150   -0.7830 C   0  0  0  0  0  0  0  0  0  0  0  0
    2.3660   16.4830   -0.9640 C   0  0  1  0  0  0  0  0  0  0  0  0
    3.6640   17.2290   -0.5580 C   0  0  0  0  0  0  0  0  0  0  0  0
    3.8330   18.5520   -1.2990 C   0  0  0  0  0  0  0  0  0  0  0  0
    2.6430   19.4750   -1.0480 C   0  0  2  0  0  0  0  0  0  0  0  0
    2.6420   19.8600    0.3310 O   0  0  0  0  0  0  0  0  0  0  0  0
    1.2780   18.8260   -1.4100 C   0  0  0  0  0  0  0  0  0  0  0  0
    1.1610   18.6850   -2.9480 C   0  0  0  0  0  0  0  0  0  0  0  0
    0.1540   19.8060   -0.9770 C   0  0  0  0  0  0  0  0  0  0  0  0
    2.2450   15.0530   -0.2800 C   0  0  1  0  0  0  0  0  0  0  0  0
    2.7250   15.1300    1.2020 C   0  0  0  0  0  0  0  0  0  0  0  0
    3.2150   14.0510   -1.0100 C   0  0  0  0  0  0  0  0  0  0  0  0
    2.6530   13.3130   -2.2400 C   0  0  0  0  0  0  0  0  0  0  0  0
    1.2890   12.6890   -1.9310 C   0  0  2  0  0  0  0  0  0  0  0  0
    1.4970   11.6200   -0.8040 C   0  0  0  0  0  0  0  0  0  0  0  0
    2.9319   10.8958   -4.5588 H   0  0  0  0  0  0  0  0  0  0  0  0
    1.7688    9.8252   -5.4120 H   0  0  0  0  0  0  0  0  0  0  0  0
    1.5187   11.6040   -5.4120 H   0  0  0  0  0  0  0  0  0  0  0  0
    1.6923   10.2073   -2.7600 H   0  0  0  0  0  0  0  0  0  0  0  0
   -1.0827   10.2623   -3.6325 H   0  0  0  0  0  0  0  0  0  0  0  0
   -0.0466    9.1955   -4.6959 H   0  0  0  0  0  0  0  0  0  0  0  0
   -1.1578    8.0165   -2.7674 H   0  0  0  0  0  0  0  0  0  0  0  0
    0.6483    7.8813   -2.8513 H   0  0  0  0  0  0  0  0  0  0  0  0
    0.7527    9.7361   -1.5685 H   0  0  0  0  0  0  0  0  0  0  0  0
   -3.3212    8.8799    0.0635 H   0  0  0  0  0  0  0  0  0  0  0  0
   -3.0518    9.8565   -1.4199 H   0  0  0  0  0  0  0  0  0  0  0  0
   -2.6744    8.1003   -1.4199 H   0  0  0  0  0  0  0  0  0  0  0  0
   -1.2157    9.7423    1.7250 H   0  0  0  0  0  0  0  0  0  0  0  0
   -0.1554   10.7788    0.7111 H   0  0  0  0  0  0  0  0  0  0  0  0
   -1.9325   11.0403    0.7111 H   0  0  0  0  0  0  0  0  0  0  0  0
    0.7342   12.5664   -4.0411 H   0  0  0  0  0  0  0  0  0  0  0  0
   -1.5933   12.2719   -3.4627 H   0  0  0  0  0  0  0  0  0  0  0  0
   -1.2194   10.9935   -2.2870 H   0  0  0  0  0  0  0  0  0  0  0  0
   -1.9017   13.6931   -1.6450 H   0  0  0  0  0  0  0  0  0  0  0  0
   -1.1750   12.5608   -0.5075 H   0  0  0  0  0  0  0  0  0  0  0  0
   -0.1698   15.8659   -2.2638 H   0  0  0  0  0  0  0  0  0  0  0  0
    0.9543   14.9548   -3.3282 H   0  0  0  0  0  0  0  0  0  0  0  0
   -0.7987   14.5628   -3.3282 H   0  0  0  0  0  0  0  0  0  0  0  0
    0.7228   13.6970    0.4761 H   0  0  0  0  0  0  0  0  0  0  0  0
   -1.2305   15.3154    0.0261 H   0  0  0  0  0  0  0  0  0  0  0  0
   -0.0415   15.6155    1.3995 H   0  0  0  0  0  0  0  0  0  0  0  0
   -0.7567   17.7267   -0.0055 H   0  0  0  0  0  0  0  0  0  0  0  0
    2.3988   16.2332   -2.0348 H   0  0  0  0  0  0  0  0  0  0  0  0
    3.6313   17.4315    0.5227 H   0  0  0  0  0  0  0  0  0  0  0  0
    4.5162   16.5860   -0.8230 H   0  0  0  0  0  0  0  0  0  0  0  0
    4.7515   19.0458   -0.9488 H   0  0  0  0  0  0  0  0  0  0  0  0
    3.8945   18.3445   -2.3775 H   0  0  0  0  0  0  0  0  0  0  0  0
    2.7586   20.3496   -1.7050 H   0  0  0  0  0  0  0  0  0  0  0  0
    1.8190   19.5280    0.7280 H   0  0  0  0  0  0  0  0  0  0  0  0
    0.4757   17.8591   -3.1894 H   0  0  0  0  0  0  0  0  0  0  0  0
    0.7709   19.6214   -3.3734 H   0  0  0  0  0  0  0  0  0  0  0  0
    2.1533   18.4743   -3.3734 H   0  0  0  0  0  0  0  0  0  0  0  0
    0.1066   19.8474    0.1212 H   0  0  0  0  0  0  0  0  0  0  0  0
    0.3698   20.8094   -1.3727 H   0  0  0  0  0  0  0  0  0  0  0  0
   -0.8106   19.4555   -1.3727 H   0  0  0  0  0  0  0  0  0  0  0  0
    1.8649   14.9920    1.8736 H   0  0  0  0  0  0  0  0  0  0  0  0
    3.4666   14.3393    1.3888 H   0  0  0  0  0  0  0  0  0  0  0  0
    3.1821   16.1130    1.3888 H   0  0  0  0  0  0  0  0  0  0  0  0
    4.0970   14.6207   -1.3378 H   0  0  0  0  0  0  0  0  0  0  0  0
    3.4241   13.2628   -0.2717 H   0  0  0  0  0  0  0  0  0  0  0  0
    2.5419   14.0280   -3.0685 H   0  0  0  0  0  0  0  0  0  0  0  0
    3.3515   12.5090   -2.5152 H   0  0  0  0  0  0  0  0  0  0  0  0
    1.4032   12.1020    0.1803 H   0  0  0  0  0  0  0  0  0  0  0  0
    0.7353   10.8323   -0.9007 H   0  0  0  0  0  0  0  0  0  0  0  0
    2.4985   11.1754   -0.9007 H   0  0  0  0  0  0  0  0  0  0  0  0
  1  2  1  0
  2  3  1  0
  3  4  1  0
  4  5  1  0
  5  6  1  0
  6  7  1  0
  7  8  1  0
  7  9  1  0
  2 10  1  0
 10 11  1  0
 11 12  1  0
 12 13  1  0
 13 14  1  6
 13 15  1  0
 15 16  1  0
 16 17  1  0
 17 18  2  0
 18 19  1  0
 19 20  1  0
 20 21  1  0
 21 22  1  0
 22 23  1  0
 22 24  1  0
 24 25  1  0
 24 26  1  0
 19 27  1  0
 27 28  1  1
 27 29  1  0
 29 30  1  0
 30 31  1  0
 31 32  1  1
  7  5  1  0
 31 10  1  0
 31 13  1  0
 27 15  1  0
 24 18  1  0
  1 33  1  0
  1 34  1  0
  1 35  1  0
  2 36  1  1
  3 37  1  0
  3 38  1  0
  4 39  1  0
  4 40  1  0
  5 41  1  1
  8 42  1  0
  8 43  1  0
  8 44  1  0
  9 45  1  0
  9 46  1  0
  9 47  1  0
 10 48  1  6
 11 49  1  0
 11 50  1  0
 12 51  1  0
 12 52  1  0
 14 53  1  0
 14 54  1  0
 14 55  1  0
 15 56  1  1
 16 57  1  0
 16 58  1  0
 17 59  1  0
 19 60  1  6
 20 61  1  0
 20 62  1  0
 21 63  1  0
 21 64  1  0
 22 65  1  6
 23 66  1  0
 25 67  1  0
 25 68  1  0
 25 69  1  0
 26 70  1  0
 26 71  1  0
 26 72  1  0
 28 73  1  0
 28 74  1  0
 28 75  1  0
 29 76  1  0
 29 77  1  0
 30 78  1  0
 30 79  1  0
 32 80  1  0
 32 81  1  0
 32 82  1  0
M  END
>  <meeko>  (19) 
{"is_sidechain": [false], "intermolecular_energy": 2.731, "internal_energy": -0.839}

$$$$
EPH_relaxed_0001_pdb2pqr_Repair_243_r2_0001_out
     RDKit          3D

 82 86  0  0  0  0  0  0  0  0999 V2000
    0.9370   14.8980   -2.6070 C   0  0  0  0  0  0  0  0  0  0  0  0
    1.2000   14.2280   -3.9580 C   0  0  2  0  0  0  0  0  0  0  0  0
    0.4970   14.9620   -5.1170 C   0  0  0  0  0  0  0  0  0  0  0  0
    1.0510   14.6040   -6.4990 C   0  0  0  0  0  0  0  0  0  0  0  0
    0.8060   15.6960   -7.4950 C   0  0  2  0  0  0  0  0  0  0  0  0
    0.3410   15.2470   -8.7750 O   0  0  0  0  0  0  0  0  0  0  0  0
    1.6310   15.8800   -8.7550 C   0  0  0  0  0  0  0  0  0  0  0  0
    2.7640   14.9610   -9.0870 C   0  0  0  0  0  0  0  0  0  0  0  0
    1.6510   17.2270   -9.4070 C   0  0  0  0  0  0  0  0  0  0  0  0
    0.7470   12.7730   -3.9130 C   0  0  1  0  0  0  0  0  0  0  0  0
    1.8790   11.7830   -4.2970 C   0  0  0  0  0  0  0  0  0  0  0  0
    1.6760   10.5130   -3.4310 C   0  0  0  0  0  0  0  0  0  0  0  0
    0.2620   10.6750   -2.8270 C   0  0  1  0  0  0  0  0  0  0  0  0
   -0.7120   10.2140   -3.9570 C   0  0  0  0  0  0  0  0  0  0  0  0
   -0.0080    9.9170   -1.4870 C   0  0  2  0  0  0  0  0  0  0  0  0
    0.0950    8.3840   -1.5720 C   0  0  0  0  0  0  0  0  0  0  0  0
   -1.1780    7.6770   -1.9020 C   0  0  0  0  0  0  0  0  0  0  0  0
   -2.4100    8.2150   -1.8420 C   0  0  0  0  0  0  0  0  0  0  0  0
   -2.6230    9.6400   -1.3140 C   0  0  1  0  0  0  0  0  0  0  0  0
   -3.8050    9.6490   -0.3100 C   0  0  0  0  0  0  0  0  0  0  0  0
   -5.0780    9.0500   -0.9000 C   0  0  0  0  0  0  0  0  0  0  0  0
   -4.8420    7.6130   -1.3600 C   0  0  2  0  0  0  0  0  0  0  0  0
   -4.5880    6.7980   -0.2120 O   0  0  0  0  0  0  0  0  0  0  0  0
   -3.6660    7.4780   -2.3680 C   0  0  0  0  0  0  0  0  0  0  0  0
   -4.0690    8.1090   -3.7240 C   0  0  0  0  0  0  0  0  0  0  0  0
   -3.4440    5.9660   -2.6410 C   0  0  0  0  0  0  0  0  0  0  0  0
   -1.3300   10.3670   -0.7420 C   0  0  1  0  0  0  0  0  0  0  0  0
   -1.1390   10.0070    0.7620 C   0  0  0  0  0  0  0  0  0  0  0  0
   -1.5490   11.9260   -0.8010 C   0  0  0  0  0  0  0  0  0  0  0  0
   -1.1520   12.6340   -2.1100 C   0  0  0  0  0  0  0  0  0  0  0  0
    0.2560   12.2230   -2.5500 C   0  0  2  0  0  0  0  0  0  0  0  0
    1.2610   12.6940   -1.4440 C   0  0  0  0  0  0  0  0  0  0  0  0
    1.2084   14.2065   -1.7958 H   0  0  0  0  0  0  0  0  0  0  0  0
    1.5428   15.8127   -2.5272 H   0  0  0  0  0  0  0  0  0  0  0  0
   -0.1293   15.1563   -2.5272 H   0  0  0  0  0  0  0  0  0  0  0  0
    2.2829   14.2755   -4.1456 H   0  0  0  0  0  0  0  0  0  0  0  0
   -0.5720   14.7038   -5.0939 H   0  0  0  0  0  0  0  0  0  0  0  0
    0.6724   16.0378   -4.9694 H   0  0  0  0  0  0  0  0  0  0  0  0
    2.1346   14.4344   -6.4155 H   0  0  0  0  0  0  0  0  0  0  0  0
    0.5357   13.6979   -6.8504 H   0  0  0  0  0  0  0  0  0  0  0  0
    0.5163   16.3925   -6.6944 H   0  0  0  0  0  0  0  0  0  0  0  0
    3.2204   14.5908   -8.1571 H   0  0  0  0  0  0  0  0  0  0  0  0
    2.3865   14.1107   -9.6740 H   0  0  0  0  0  0  0  0  0  0  0  0
    3.5181   15.5058   -9.6740 H   0  0  0  0  0  0  0  0  0  0  0  0
    1.6626   18.0088   -8.6332 H   0  0  0  0  0  0  0  0  0  0  0  0
    2.5506   17.3178  -10.0335 H   0  0  0  0  0  0  0  0  0  0  0  0
    0.7545   17.3445  -10.0335 H   0  0  0  0  0  0  0  0  0  0  0  0
   -0.0907   12.8183   -4.6244 H   0  0  0  0  0  0  0  0  0  0  0  0
    1.8128   11.5277   -5.3649 H   0  0  0  0  0  0  0  0  0  0  0  0
    2.8694   12.2277   -4.1196 H   0  0  0  0  0  0  0  0  0  0  0  0
    1.7316    9.6066   -4.0518 H   0  0  0  0  0  0  0  0  0  0  0  0
    2.4507   10.4074   -2.6572 H   0  0  0  0  0  0  0  0  0  0  0  0
   -1.6191    9.7847   -3.5066 H   0  0  0  0  0  0  0  0  0  0  0  0
   -0.9858   11.0781   -4.5802 H   0  0  0  0  0  0  0  0  0  0  0  0
   -0.2173    9.4545   -4.5802 H   0  0  0  0  0  0  0  0  0  0  0  0
    0.8367   10.2389   -0.8603 H   0  0  0  0  0  0  0  0  0  0  0  0
    0.8332    8.1354   -2.3487 H   0  0  0  0  0  0  0  0  0  0  0  0
    0.3815    8.0419   -0.5666 H   0  0  0  0  0  0  0  0  0  0  0  0
   -1.1024    6.6271   -2.2213 H   0  0  0  0  0  0  0  0  0  0  0  0
   -2.8741   10.2554   -2.1905 H   0  0  0  0  0  0  0  0  0  0  0  0
   -3.5187    9.0649    0.5771 H   0  0  0  0  0  0  0  0  0  0  0  0
   -4.0171   10.6974   -0.0532 H   0  0  0  0  0  0  0  0  0  0  0  0
   -5.8680    9.0579   -0.1346 H   0  0  0  0  0  0  0  0  0  0  0  0
   -5.3794    9.6523   -1.7697 H   0  0  0  0  0  0  0  0  0  0  0  0
   -5.7479    7.2824   -1.8892 H   0  0  0  0  0  0  0  0  0  0  0  0
   -3.9340    6.1250   -0.4680 H   0  0  0  0  0  0  0  0  0  0  0  0
   -4.6531    9.0235   -3.5437 H   0  0  0  0  0  0  0  0  0  0  0  0
   -3.1631    8.3592   -4.2956 H   0  0  0  0  0  0  0  0  0  0  0  0
   -4.6770    7.3924   -4.2956 H   0  0  0  0  0  0  0  0  0  0  0  0
   -3.3651    5.4284   -1.6846 H   0  0  0  0  0  0  0  0  0  0  0  0
   -4.2934    5.5686   -3.2159 H   0  0  0  0  0  0  0  0  0  0  0  0
   -2.5162    5.8296   -3.2159 H   0  0  0  0  0  0  0  0  0  0  0  0
   -1.5632   10.8065    1.3871 H   0  0  0  0  0  0  0  0  0  0  0  0
   -1.6529    9.0592    0.9803 H   0  0  0  0  0  0  0  0  0  0  0  0
   -0.0661    9.9011    0.9803 H   0  0  0  0  0  0  0  0  0  0  0  0
   -2.6184   12.1185   -0.6296 H   0  0  0  0  0  0  0  0  0  0  0  0
   -0.8774   12.3402   -0.0346 H   0  0  0  0  0  0  0  0  0  0  0  0
   -1.8692   12.3616   -2.8983 H   0  0  0  0  0  0  0  0  0  0  0  0
   -1.1628   13.7205   -1.9384 H   0  0  0  0  0  0  0  0  0  0  0  0
    0.8333   12.4936   -0.4506 H   0  0  0  0  0  0  0  0  0  0  0  0
    2.2088   12.1463   -1.5525 H   0  0  0  0  0  0  0  0  0  0  0  0
    1.4465   13.7728   -1.5525 H   0  0  0  0  0  0  0  0  0  0  0  0
  1  2  1  0
  2  3  1  0
  3  4  1  0
  4  5  1  0
  5  6  1  0
  6  7  1  0
  7  8  1  0
  7  9  1  0
  2 10  1  0
 10 11  1  0
 11 12  1  0
 12 13  1  0
 13 14  1  6
 13 15  1  0
 15 16  1  0
 16 17  1  0
 17 18  2  0
 18 19  1  0
 19 20  1  0
 20 21  1  0
 21 22  1  0
 22 23  1  0
 22 24  1  0
 24 25  1  0
 24 26  1  0
 19 27  1  0
 27 28  1  1
 27 29  1  0
 29 30  1  0
 30 31  1  0
 31 32  1  1
  7  5  1  0
 31 10  1  0
 31 13  1  0
 27 15  1  0
 24 18  1  0
  1 33  1  0
  1 34  1  0
  1 35  1  0
  2 36  1  6
  3 37  1  0
  3 38  1  0
  4 39  1  0
  4 40  1  0
  5 41  1  1
  8 42  1  0
  8 43  1  0
  8 44  1  0
  9 45  1  0
  9 46  1  0
  9 47  1  0
 10 48  1  6
 11 49  1  0
 11 50  1  0
 12 51  1  0
 12 52  1  0
 14 53  1  0
 14 54  1  0
 14 55  1  0
 15 56  1  1
 16 57  1  0
 16 58  1  0
 17 59  1  0
 19 60  1  6
 20 61  1  0
 20 62  1  0
 21 63  1  0
 21 64  1  0
 22 65  1  6
 23 66  1  0
 25 67  1  0
 25 68  1  0
 25 69  1  0
 26 70  1  0
 26 71  1  0
 26 72  1  0
 28 73  1  0
 28 74  1  0
 28 75  1  0
 29 76  1  0
 29 77  1  0
 30 78  1  0
 30 79  1  0
 32 80  1  0
 32 81  1  0
 32 82  1  0
M  END
>  <meeko>  (20) 
{"is_sidechain": [false], "intermolecular_energy": 2.731, "internal_energy": -0.839}

$$$$
