EPH_relaxed_0001_pdb2pqr_Repair_301_r2_0001_out
     RDKit          3D

 82 86  0  0  0  0  0  0  0  0999 V2000
    4.5120   17.7640   -0.7060 C   0  0  0  0  0  0  0  0  0  0  0  0
    3.1320   18.3250   -0.3520 C   0  0  2  0  0  0  0  0  0  0  0  0
    3.0940   18.9190    1.0700 C   0  0  0  0  0  0  0  0  0  0  0  0
    4.3530   18.6300    1.8920 C   0  0  0  0  0  0  0  0  0  0  0  0
    4.2490   19.1850    3.2800 C   0  0  2  0  0  0  0  0  0  0  0  0
    5.2160   20.1940    3.5950 O   0  0  0  0  0  0  0  0  0  0  0  0
    5.3070   18.9740    4.3470 C   0  0  0  0  0  0  0  0  0  0  0  0
    6.5450   18.1790    4.0720 C   0  0  0  0  0  0  0  0  0  0  0  0
    4.9130   19.1200    5.7840 C   0  0  0  0  0  0  0  0  0  0  0  0
    2.0760   17.2340   -0.4890 C   0  0  1  0  0  0  0  0  0  0  0  0
    0.7360   17.7670   -1.0620 C   0  0  0  0  0  0  0  0  0  0  0  0
    0.1450   16.6370   -1.9430 C   0  0  0  0  0  0  0  0  0  0  0  0
    0.9820   15.3870   -1.5870 C   0  0  1  0  0  0  0  0  0  0  0  0
    0.3590   14.8500   -0.2600 C   0  0  0  0  0  0  0  0  0  0  0  0
    1.0590   14.2720   -2.6810 C   0  0  2  0  0  0  0  0  0  0  0  0
   -0.2880   13.6230   -3.0460 C   0  0  0  0  0  0  0  0  0  0  0  0
   -0.6530   12.4180   -2.2430 C   0  0  0  0  0  0  0  0  0  0  0  0
    0.1890   11.7100   -1.4680 C   0  0  0  0  0  0  0  0  0  0  0  0
    1.6850   12.0460   -1.4180 C   0  0  1  0  0  0  0  0  0  0  0  0
    2.5140   10.7410   -1.5460 C   0  0  0  0  0  0  0  0  0  0  0  0
    2.1170    9.6920   -0.5120 C   0  0  0  0  0  0  0  0  0  0  0  0
    0.6360    9.3420   -0.6310 C   0  0  2  0  0  0  0  0  0  0  0  0
    0.4180    8.6790   -1.8810 O   0  0  0  0  0  0  0  0  0  0  0  0
   -0.2970   10.5800   -0.5270 C   0  0  0  0  0  0  0  0  0  0  0  0
   -0.2870   11.1190    0.9250 C   0  0  0  0  0  0  0  0  0  0  0  0
   -1.7500   10.1080   -0.8040 C   0  0  0  0  0  0  0  0  0  0  0  0
    2.1740   13.1810   -2.4180 C   0  0  1  0  0  0  0  0  0  0  0  0
    2.5210   12.5550   -3.8030 C   0  0  0  0  0  0  0  0  0  0  0  0
    3.5090   13.8100   -1.8680 C   0  0  0  0  0  0  0  0  0  0  0  0
    3.3680   14.9860   -0.8830 C   0  0  0  0  0  0  0  0  0  0  0  0
    2.4020   16.0430   -1.4250 C   0  0  2  0  0  0  0  0  0  0  0  0
    3.0130   16.6170   -2.7490 C   0  0  0  0  0  0  0  0  0  0  0  0
    5.0646   17.5394    0.2182 H   0  0  0  0  0  0  0  0  0  0  0  0
    4.3932   16.8428   -1.2953 H   0  0  0  0  0  0  0  0  0  0  0  0
    5.0696   18.5068   -1.2953 H   0  0  0  0  0  0  0  0  0  0  0  0
    2.9164   19.1415   -1.0568 H   0  0  0  0  0  0  0  0  0  0  0  0
    2.9758   20.0095    0.9877 H   0  0  0  0  0  0  0  0  0  0  0  0
    2.2518   18.4438    1.5943 H   0  0  0  0  0  0  0  0  0  0  0  0
    4.4963   17.5411    1.9534 H   0  0  0  0  0  0  0  0  0  0  0  0
    5.2062   19.1127    1.3930 H   0  0  0  0  0  0  0  0  0  0  0  0
    3.1589   19.0377    3.2824 H   0  0  0  0  0  0  0  0  0  0  0  0
    7.0086   17.8813    5.0241 H   0  0  0  0  0  0  0  0  0  0  0  0
    6.2828   17.2800    3.4949 H   0  0  0  0  0  0  0  0  0  0  0  0
    7.2534   18.7915    3.4949 H   0  0  0  0  0  0  0  0  0  0  0  0
    5.7499   18.8099    6.4270 H   0  0  0  0  0  0  0  0  0  0  0  0
    4.6619   20.1709    5.9904 H   0  0  0  0  0  0  0  0  0  0  0  0
    4.0377   18.4865    5.9904 H   0  0  0  0  0  0  0  0  0  0  0  0
    2.0293   16.8908    0.5550 H   0  0  0  0  0  0  0  0  0  0  0  0
    0.0435   18.0097   -0.2425 H   0  0  0  0  0  0  0  0  0  0  0  0
    0.8945   18.6835   -1.6493 H   0  0  0  0  0  0  0  0  0  0  0  0
   -0.9166   16.4742   -1.7052 H   0  0  0  0  0  0  0  0  0  0  0  0
    0.1897   16.8775   -3.0155 H   0  0  0  0  0  0  0  0  0  0  0  0
    0.8804   15.2994    0.5980 H   0  0  0  0  0  0  0  0  0  0  0  0
   -0.7076   15.1164   -0.2215 H   0  0  0  0  0  0  0  0  0  0  0  0
    0.4652   13.7558   -0.2215 H   0  0  0  0  0  0  0  0  0  0  0  0
    1.3703   14.8368   -3.5721 H   0  0  0  0  0  0  0  0  0  0  0  0
   -1.0773   14.3764   -2.9066 H   0  0  0  0  0  0  0  0  0  0  0  0
   -0.1880   13.2775   -4.0855 H   0  0  0  0  0  0  0  0  0  0  0  0
   -1.6989   12.0805   -2.2889 H   0  0  0  0  0  0  0  0  0  0  0  0
    1.8612   12.5041   -0.4336 H   0  0  0  0  0  0  0  0  0  0  0  0
    2.3588   10.3218   -2.5511 H   0  0  0  0  0  0  0  0  0  0  0  0
    3.5696   10.9976   -1.3730 H   0  0  0  0  0  0  0  0  0  0  0  0
    2.7157    8.7833   -0.6728 H   0  0  0  0  0  0  0  0  0  0  0  0
    2.3015   10.1014    0.4922 H   0  0  0  0  0  0  0  0  0  0  0  0
    0.3831    8.6872    0.2159 H   0  0  0  0  0  0  0  0  0  0  0  0
    0.4720    9.3500   -2.5830 H   0  0  0  0  0  0  0  0  0  0  0  0
   -0.3027   10.2745    1.6297 H   0  0  0  0  0  0  0  0  0  0  0  0
    0.6224   11.7160    1.0883 H   0  0  0  0  0  0  0  0  0  0  0  0
   -1.1736   11.7493    1.0883 H   0  0  0  0  0  0  0  0  0  0  0  0
   -2.2691    9.9394    0.1510 H   0  0  0  0  0  0  0  0  0  0  0  0
   -2.2826   10.8793   -1.3796 H   0  0  0  0  0  0  0  0  0  0  0  0
   -1.7277    9.1709   -1.3796 H   0  0  0  0  0  0  0  0  0  0  0  0
    3.0493   11.6020   -3.6526 H   0  0  0  0  0  0  0  0  0  0  0  0
    1.5937   12.3752   -4.3668 H   0  0  0  0  0  0  0  0  0  0  0  0
    3.1648   13.2461   -4.3668 H   0  0  0  0  0  0  0  0  0  0  0  0
    4.0667   13.0120   -1.3560 H   0  0  0  0  0  0  0  0  0  0  0  0
    4.0134   14.2318   -2.7499 H   0  0  0  0  0  0  0  0  0  0  0  0
    2.9857   14.6077    0.0765 H   0  0  0  0  0  0  0  0  0  0  0  0
    4.3560   15.4505   -0.7481 H   0  0  0  0  0  0  0  0  0  0  0  0
    3.7946   17.3512   -2.5040 H   0  0  0  0  0  0  0  0  0  0  0  0
    3.4516   15.7967   -3.3362 H   0  0  0  0  0  0  0  0  0  0  0  0
    2.2217   17.1059   -3.3362 H   0  0  0  0  0  0  0  0  0  0  0  0
  1  2  1  0
  2  3  1  0
  3  4  1  0
  4  5  1  0
  5  6  1  0
  6  7  1  0
  7  8  1  0
  7  9  1  0
  2 10  1  0
 10 11  1  0
 11 12  1  0
 12 13  1  0
 13 14  1  1
 13 15  1  0
 15 16  1  0
 16 17  1  0
 17 18  2  0
 18 19  1  0
 19 20  1  0
 20 21  1  0
 21 22  1  0
 22 23  1  0
 22 24  1  0
 24 25  1  0
 24 26  1  0
 19 27  1  0
 27 28  1  6
 27 29  1  0
 29 30  1  0
 30 31  1  0
 31 32  1  6
  7  5  1  0
 31 10  1  0
 31 13  1  0
 27 15  1  0
 24 18  1  0
  1 33  1  0
  1 34  1  0
  1 35  1  0
  2 36  1  6
  3 37  1  0
  3 38  1  0
  4 39  1  0
  4 40  1  0
  5 41  1  1
  8 42  1  0
  8 43  1  0
  8 44  1  0
  9 45  1  0
  9 46  1  0
  9 47  1  0
 10 48  1  1
 11 49  1  0
 11 50  1  0
 12 51  1  0
 12 52  1  0
 14 53  1  0
 14 54  1  0
 14 55  1  0
 15 56  1  6
 16 57  1  0
 16 58  1  0
 17 59  1  0
 19 60  1  1
 20 61  1  0
 20 62  1  0
 21 63  1  0
 21 64  1  0
 22 65  1  1
 23 66  1  0
 25 67  1  0
 25 68  1  0
 25 69  1  0
 26 70  1  0
 26 71  1  0
 26 72  1  0
 28 73  1  0
 28 74  1  0
 28 75  1  0
 29 76  1  0
 29 77  1  0
 30 78  1  0
 30 79  1  0
 32 80  1  0
 32 81  1  0
 32 82  1  0
M  END
>  <meeko>  (1) 
{"is_sidechain": [false], "intermolecular_energy": 2.731, "internal_energy": -0.839}

$$$$
EPH_relaxed_0001_pdb2pqr_Repair_301_r2_0001_out
     RDKit          3D

 82 86  0  0  0  0  0  0  0  0999 V2000
    3.8390   18.0480    0.6250 C   0  0  0  0  0  0  0  0  0  0  0  0
    2.9370   18.4500   -0.5440 C   0  0  2  0  0  0  0  0  0  0  0  0
    2.1810   19.7660   -0.2690 C   0  0  0  0  0  0  0  0  0  0  0  0
    1.1390   19.6550    0.8470 C   0  0  0  0  0  0  0  0  0  0  0  0
   -0.1920   20.1940    0.4180 C   0  0  2  0  0  0  0  0  0  0  0  0
   -1.1990   20.1830    1.4380 O   0  0  0  0  0  0  0  0  0  0  0  0
   -1.4410   19.3410    0.2990 C   0  0  0  0  0  0  0  0  0  0  0  0
   -1.4190   17.8770    0.6090 C   0  0  0  0  0  0  0  0  0  0  0  0
   -2.5540   19.8210   -0.5800 C   0  0  0  0  0  0  0  0  0  0  0  0
    1.9440   17.3320   -0.8420 C   0  0  1  0  0  0  0  0  0  0  0  0
    0.8010   17.7850   -1.7900 C   0  0  0  0  0  0  0  0  0  0  0  0
    0.4490   16.5650   -2.6800 C   0  0  0  0  0  0  0  0  0  0  0  0
    1.1570   15.3690   -2.0020 C   0  0  1  0  0  0  0  0  0  0  0  0
    0.2090   14.9510   -0.8350 C   0  0  0  0  0  0  0  0  0  0  0  0
    1.5050   14.1570   -2.9260 C   0  0  2  0  0  0  0  0  0  0  0  0
    0.2930   13.4520   -3.5610 C   0  0  0  0  0  0  0  0  0  0  0  0
   -0.2750   12.3230   -2.7680 C   0  0  0  0  0  0  0  0  0  0  0  0
    0.3330   11.7070   -1.7370 C   0  0  0  0  0  0  0  0  0  0  0  0
    1.7680   12.0740   -1.3360 C   0  0  1  0  0  0  0  0  0  0  0  0
    2.5920   10.7770   -1.1200 C   0  0  0  0  0  0  0  0  0  0  0  0
    1.9340    9.8240   -0.1270 C   0  0  0  0  0  0  0  0  0  0  0  0
    0.5320    9.4370   -0.5890 C   0  0  2  0  0  0  0  0  0  0  0  0
    0.6390    8.6560   -1.7830 O   0  0  0  0  0  0  0  0  0  0  0  0
   -0.3880   10.6630   -0.8480 C   0  0  0  0  0  0  0  0  0  0  0  0
   -0.7480   11.3370    0.4980 C   0  0  0  0  0  0  0  0  0  0  0  0
   -1.7230   10.1410   -1.4440 C   0  0  0  0  0  0  0  0  0  0  0  0
    2.5070   13.1160   -2.2810 C   0  0  1  0  0  0  0  0  0  0  0  0
    3.1950   12.3680   -3.4640 C   0  0  0  0  0  0  0  0  0  0  0  0
    3.6590   13.8190   -1.4700 C   0  0  0  0  0  0  0  0  0  0  0  0
    3.2780   15.0800   -0.6720 C   0  0  0  0  0  0  0  0  0  0  0  0
    2.4910   16.0640   -1.5440 C   0  0  2  0  0  0  0  0  0  0  0  0
    3.4280   16.5200   -2.7140 C   0  0  0  0  0  0  0  0  0  0  0  0
    3.3315   18.2742    1.5744 H   0  0  0  0  0  0  0  0  0  0  0  0
    4.0513   16.9701    0.5705 H   0  0  0  0  0  0  0  0  0  0  0  0
    4.7826   18.6108    0.5705 H   0  0  0  0  0  0  0  0  0  0  0  0
    3.5833   18.6171   -1.4183 H   0  0  0  0  0  0  0  0  0  0  0  0
    2.9143   20.5349    0.0157 H   0  0  0  0  0  0  0  0  0  0  0  0
    1.6389   20.0241   -1.1907 H   0  0  0  0  0  0  0  0  0  0  0  0
    1.0230   18.5964    1.1224 H   0  0  0  0  0  0  0  0  0  0  0  0
    1.4896   20.2490    1.7039 H   0  0  0  0  0  0  0  0  0  0  0  0
    0.2902   20.8969   -0.2773 H   0  0  0  0  0  0  0  0  0  0  0  0
   -1.4168   17.7331    1.6995 H   0  0  0  0  0  0  0  0  0  0  0  0
   -2.3100   17.3974    0.1776 H   0  0  0  0  0  0  0  0  0  0  0  0
   -0.5140   17.4244    0.1776 H   0  0  0  0  0  0  0  0  0  0  0  0
   -3.3856   20.1797    0.0443 H   0  0  0  0  0  0  0  0  0  0  0  0
   -2.1914   20.6427   -1.2150 H   0  0  0  0  0  0  0  0  0  0  0  0
   -2.9027   18.9933   -1.2150 H   0  0  0  0  0  0  0  0  0  0  0  0
    1.6275   17.0883    0.1829 H   0  0  0  0  0  0  0  0  0  0  0  0
   -0.0777   18.0927   -1.2041 H   0  0  0  0  0  0  0  0  0  0  0  0
    1.1124   18.6441   -2.4023 H   0  0  0  0  0  0  0  0  0  0  0  0
   -0.6391   16.4065   -2.7086 H   0  0  0  0  0  0  0  0  0  0  0  0
    0.7708   16.7032   -3.7228 H   0  0  0  0  0  0  0  0  0  0  0  0
    0.6959   15.1657    0.1277 H   0  0  0  0  0  0  0  0  0  0  0  0
   -0.7309   15.5181   -0.9051 H   0  0  0  0  0  0  0  0  0  0  0  0
   -0.0062   13.8745   -0.9051 H   0  0  0  0  0  0  0  0  0  0  0  0
    2.0394   14.6401   -3.7573 H   0  0  0  0  0  0  0  0  0  0  0  0
   -0.5002   14.2009   -3.7025 H   0  0  0  0  0  0  0  0  0  0  0  0
    0.6555   13.0113   -4.5014 H   0  0  0  0  0  0  0  0  0  0  0  0
   -1.2757   11.9634   -3.0498 H   0  0  0  0  0  0  0  0  0  0  0  0
    1.6875   12.6279   -0.3890 H   0  0  0  0  0  0  0  0  0  0  0  0
    2.6979   10.2616   -2.0860 H   0  0  0  0  0  0  0  0  0  0  0  0
    3.5691   11.0674   -0.7065 H   0  0  0  0  0  0  0  0  0  0  0  0
    2.5477    8.9153   -0.0394 H   0  0  0  0  0  0  0  0  0  0  0  0
    1.8554   10.3306    0.8462 H   0  0  0  0  0  0  0  0  0  0  0  0
    0.0651    8.8600    0.2228 H   0  0  0  0  0  0  0  0  0  0  0  0
    1.3880    9.0040   -2.2970 H   0  0  0  0  0  0  0  0  0  0  0  0
   -0.4084   10.7011    1.3289 H   0  0  0  0  0  0  0  0  0  0  0  0
   -0.2535   12.3176    0.5609 H   0  0  0  0  0  0  0  0  0  0  0  0
   -1.8380   11.4713    0.5609 H   0  0  0  0  0  0  0  0  0  0  0  0
   -2.4091    9.8727   -0.6272 H   0  0  0  0  0  0  0  0  0  0  0  0
   -2.1800   10.9267   -2.0636 H   0  0  0  0  0  0  0  0  0  0  0  0
   -1.5258    9.2537   -2.0636 H   0  0  0  0  0  0  0  0  0  0  0  0
    3.8893   11.6132   -3.0663 H   0  0  0  0  0  0  0  0  0  0  0  0
    2.4294   11.8736   -4.0800 H   0  0  0  0  0  0  0  0  0  0  0  0
    3.7515   13.0897   -4.0800 H   0  0  0  0  0  0  0  0  0  0  0  0
    4.0610   13.0835   -0.7577 H   0  0  0  0  0  0  0  0  0  0  0  0
    4.3754   14.1651   -2.2296 H   0  0  0  0  0  0  0  0  0  0  0  0
    2.6590   14.7876    0.1890 H   0  0  0  0  0  0  0  0  0  0  0  0
    4.2012   15.5727   -0.3329 H   0  0  0  0  0  0  0  0  0  0  0  0
    4.3436   16.9656   -2.2980 H   0  0  0  0  0  0  0  0  0  0  0  0
    3.6921   15.6497   -3.3327 H   0  0  0  0  0  0  0  0  0  0  0  0
    2.9061   17.2649   -3.3327 H   0  0  0  0  0  0  0  0  0  0  0  0
  1  2  1  0
  2  3  1  0
  3  4  1  0
  4  5  1  0
  5  6  1  0
  6  7  1  0
  7  8  1  0
  7  9  1  0
  2 10  1  0
 10 11  1  0
 11 12  1  0
 12 13  1  0
 13 14  1  1
 13 15  1  0
 15 16  1  0
 16 17  1  0
 17 18  2  0
 18 19  1  0
 19 20  1  0
 20 21  1  0
 21 22  1  0
 22 23  1  0
 22 24  1  0
 24 25  1  0
 24 26  1  0
 19 27  1  0
 27 28  1  6
 27 29  1  0
 29 30  1  0
 30 31  1  0
 31 32  1  6
  7  5  1  0
 31 10  1  0
 31 13  1  0
 27 15  1  0
 24 18  1  0
  1 33  1  0
  1 34  1  0
  1 35  1  0
  2 36  1  6
  3 37  1  0
  3 38  1  0
  4 39  1  0
  4 40  1  0
  5 41  1  6
  8 42  1  0
  8 43  1  0
  8 44  1  0
  9 45  1  0
  9 46  1  0
  9 47  1  0
 10 48  1  1
 11 49  1  0
 11 50  1  0
 12 51  1  0
 12 52  1  0
 14 53  1  0
 14 54  1  0
 14 55  1  0
 15 56  1  6
 16 57  1  0
 16 58  1  0
 17 59  1  0
 19 60  1  1
 20 61  1  0
 20 62  1  0
 21 63  1  0
 21 64  1  0
 22 65  1  1
 23 66  1  0
 25 67  1  0
 25 68  1  0
 25 69  1  0
 26 70  1  0
 26 71  1  0
 26 72  1  0
 28 73  1  0
 28 74  1  0
 28 75  1  0
 29 76  1  0
 29 77  1  0
 30 78  1  0
 30 79  1  0
 32 80  1  0
 32 81  1  0
 32 82  1  0
M  END
>  <meeko>  (2) 
{"is_sidechain": [false], "intermolecular_energy": 2.731, "internal_energy": -0.839}

$$$$
EPH_relaxed_0001_pdb2pqr_Repair_301_r2_0001_out
     RDKit          3D

 82 86  0  0  0  0  0  0  0  0999 V2000
   -1.0970    8.7820   -1.8690 C   0  0  0  0  0  0  0  0  0  0  0  0
   -1.5320    9.1930   -0.4600 C   0  0  2  0  0  0  0  0  0  0  0  0
   -3.0620    9.3370   -0.3440 C   0  0  0  0  0  0  0  0  0  0  0  0
   -3.8410    8.3870   -1.2570 C   0  0  0  0  0  0  0  0  0  0  0  0
   -5.2070    8.0910   -0.7150 C   0  0  2  0  0  0  0  0  0  0  0  0
   -5.4570    6.7060   -0.4450 O   0  0  0  0  0  0  0  0  0  0  0  0
   -6.2580    7.3050   -1.4760 C   0  0  0  0  0  0  0  0  0  0  0  0
   -5.9880    6.7670   -2.8460 C   0  0  0  0  0  0  0  0  0  0  0  0
   -7.6950    7.4800   -1.0990 C   0  0  0  0  0  0  0  0  0  0  0  0
   -0.8540   10.5010   -0.0680 C   0  0  1  0  0  0  0  0  0  0  0  0
    0.0670   10.3490    1.1710 C   0  0  0  0  0  0  0  0  0  0  0  0
    1.2700   11.3030    0.9540 C   0  0  0  0  0  0  0  0  0  0  0  0
    0.8420   12.2080   -0.2250 C   0  0  1  0  0  0  0  0  0  0  0  0
   -0.0710   13.3000    0.4180 C   0  0  0  0  0  0  0  0  0  0  0  0
    1.9980   12.8430   -1.0630 C   0  0  2  0  0  0  0  0  0  0  0  0
    2.9190   13.8000   -0.2860 C   0  0  0  0  0  0  0  0  0  0  0  0
    2.5030   15.2340   -0.2950 C   0  0  0  0  0  0  0  0  0  0  0  0
    1.6010   15.7810   -1.1300 C   0  0  0  0  0  0  0  0  0  0  0  0
    0.9660   14.9540   -2.2560 C   0  0  1  0  0  0  0  0  0  0  0  0
    0.9960   15.7670   -3.5760 C   0  0  0  0  0  0  0  0  0  0  0  0
    0.3530   17.1430   -3.4300 C   0  0  0  0  0  0  0  0  0  0  0  0
    1.0490   17.9570   -2.3420 C   0  0  2  0  0  0  0  0  0  0  0  0
    2.3820   18.2540   -2.7690 O   0  0  0  0  0  0  0  0  0  0  0  0
    1.0890   17.2330   -0.9670 C   0  0  0  0  0  0  0  0  0  0  0  0
   -0.3360   17.1810   -0.3640 C   0  0  0  0  0  0  0  0  0  0  0  0
    1.9400   18.0980    0.0030 C   0  0  0  0  0  0  0  0  0  0  0  0
    1.5310   13.4790   -2.4350 C   0  0  1  0  0  0  0  0  0  0  0  0
    2.7810   13.4970   -3.3660 C   0  0  0  0  0  0  0  0  0  0  0  0
    0.4470   12.5990   -3.1640 C   0  0  0  0  0  0  0  0  0  0  0  0
   -0.5960   11.9010   -2.2710 C   0  0  0  0  0  0  0  0  0  0  0  0
    0.0810   11.1590   -1.1140 C   0  0  2  0  0  0  0  0  0  0  0  0
    0.9880   10.0400   -1.7290 C   0  0  0  0  0  0  0  0  0  0  0  0
   -0.2990    8.0280   -1.8010 H   0  0  0  0  0  0  0  0  0  0  0  0
   -1.9565    8.3585   -2.4092 H   0  0  0  0  0  0  0  0  0  0  0  0
   -0.7229    9.6642   -2.4092 H   0  0  0  0  0  0  0  0  0  0  0  0
   -1.2229    8.3930    0.2288 H   0  0  0  0  0  0  0  0  0  0  0  0
   -3.3519    9.1333    0.6974 H   0  0  0  0  0  0  0  0  0  0  0  0
   -3.3129   10.3612   -0.6571 H   0  0  0  0  0  0  0  0  0  0  0  0
   -3.9442    8.8510   -2.2490 H   0  0  0  0  0  0  0  0  0  0  0  0
   -3.2850    7.4399   -1.3200 H   0  0  0  0  0  0  0  0  0  0  0  0
   -5.2403    9.0648   -0.2045 H   0  0  0  0  0  0  0  0  0  0  0  0
   -5.4960    5.7866   -2.7645 H   0  0  0  0  0  0  0  0  0  0  0  0
   -6.9375    6.6566   -3.3903 H   0  0  0  0  0  0  0  0  0  0  0  0
   -5.3321    7.4623   -3.3903 H   0  0  0  0  0  0  0  0  0  0  0  0
   -7.7878    7.4913   -0.0030 H   0  0  0  0  0  0  0  0  0  0  0  0
   -8.0684    8.4303   -1.5084 H   0  0  0  0  0  0  0  0  0  0  0  0
   -8.2855    6.6471   -1.5084 H   0  0  0  0  0  0  0  0  0  0  0  0
   -1.7432   11.1290    0.0897 H   0  0  0  0  0  0  0  0  0  0  0  0
   -0.4780   10.6285    2.0847 H   0  0  0  0  0  0  0  0  0  0  0  0
    0.4041    9.3084    1.2872 H   0  0  0  0  0  0  0  0  0  0  0  0
    1.4573   11.9034    1.8564 H   0  0  0  0  0  0  0  0  0  0  0  0
    2.2023   10.7580    0.7447 H   0  0  0  0  0  0  0  0  0  0  0  0
   -0.0115   13.2288    1.5141 H   0  0  0  0  0  0  0  0  0  0  0  0
    0.2668   14.2962    0.0964 H   0  0  0  0  0  0  0  0  0  0  0  0
   -1.1113   13.1440    0.0964 H   0  0  0  0  0  0  0  0  0  0  0  0
    2.6166   11.9677   -1.3102 H   0  0  0  0  0  0  0  0  0  0  0  0
    2.9541   13.4629    0.7605 H   0  0  0  0  0  0  0  0  0  0  0  0
    3.8940   13.7630   -0.7940 H   0  0  0  0  0  0  0  0  0  0  0  0
    2.9738   15.8995    0.4435 H   0  0  0  0  0  0  0  0  0  0  0  0
   -0.0759   14.7752   -1.9519 H   0  0  0  0  0  0  0  0  0  0  0  0
    2.0433   15.8982   -3.8857 H   0  0  0  0  0  0  0  0  0  0  0  0
    0.4192   15.2067   -4.3266 H   0  0  0  0  0  0  0  0  0  0  0  0
    0.4306   17.6801   -4.3868 H   0  0  0  0  0  0  0  0  0  0  0  0
   -0.7020   17.0098   -3.1485 H   0  0  0  0  0  0  0  0  0  0  0  0
    0.4655   18.8778   -2.1948 H   0  0  0  0  0  0  0  0  0  0  0  0
    2.5550   19.1880   -2.5660 H   0  0  0  0  0  0  0  0  0  0  0  0
   -0.2698   17.1834    0.7340 H   0  0  0  0  0  0  0  0  0  0  0  0
   -0.9081   18.0589   -0.6988 H   0  0  0  0  0  0  0  0  0  0  0  0
   -0.8426   16.2638   -0.6988 H   0  0  0  0  0  0  0  0  0  0  0  0
    1.6867   17.8405    1.0420 H   0  0  0  0  0  0  0  0  0  0  0  0
    3.0082   17.9031   -0.1731 H   0  0  0  0  0  0  0  0  0  0  0  0
    1.7277   19.1629   -0.1731 H   0  0  0  0  0  0  0  0  0  0  0  0
    3.6944   13.5102   -2.7532 H   0  0  0  0  0  0  0  0  0  0  0  0
    2.7783   12.5987   -4.0009 H   0  0  0  0  0  0  0  0  0  0  0  0
    2.7524   14.3948   -4.0009 H   0  0  0  0  0  0  0  0  0  0  0  0
   -0.0967   13.2519   -3.8627 H   0  0  0  0  0  0  0  0  0  0  0  0
    1.0110   11.7830   -3.6395 H   0  0  0  0  0  0  0  0  0  0  0  0
   -1.2823   12.6567   -1.8613 H   0  0  0  0  0  0  0  0  0  0  0  0
   -1.1474   11.1705   -2.8812 H   0  0  0  0  0  0  0  0  0  0  0  0
    1.4568    9.4617   -0.9192 H   0  0  0  0  0  0  0  0  0  0  0  0
    0.3744    9.3707   -2.3499 H   0  0  0  0  0  0  0  0  0  0  0  0
    1.7699   10.5018   -2.3499 H   0  0  0  0  0  0  0  0  0  0  0  0
  1  2  1  0
  2  3  1  0
  3  4  1  0
  4  5  1  0
  5  6  1  0
  6  7  1  0
  7  8  1  0
  7  9  1  0
  2 10  1  0
 10 11  1  0
 11 12  1  0
 12 13  1  0
 13 14  1  1
 13 15  1  0
 15 16  1  0
 16 17  1  0
 17 18  2  0
 18 19  1  0
 19 20  1  0
 20 21  1  0
 21 22  1  0
 22 23  1  0
 22 24  1  0
 24 25  1  0
 24 26  1  0
 19 27  1  0
 27 28  1  6
 27 29  1  0
 29 30  1  0
 30 31  1  0
 31 32  1  6
  7  5  1  0
 31 10  1  0
 31 13  1  0
 27 15  1  0
 24 18  1  0
  1 33  1  0
  1 34  1  0
  1 35  1  0
  2 36  1  1
  3 37  1  0
  3 38  1  0
  4 39  1  0
  4 40  1  0
  5 41  1  1
  8 42  1  0
  8 43  1  0
  8 44  1  0
  9 45  1  0
  9 46  1  0
  9 47  1  0
 10 48  1  1
 11 49  1  0
 11 50  1  0
 12 51  1  0
 12 52  1  0
 14 53  1  0
 14 54  1  0
 14 55  1  0
 15 56  1  6
 16 57  1  0
 16 58  1  0
 17 59  1  0
 19 60  1  1
 20 61  1  0
 20 62  1  0
 21 63  1  0
 21 64  1  0
 22 65  1  1
 23 66  1  0
 25 67  1  0
 25 68  1  0
 25 69  1  0
 26 70  1  0
 26 71  1  0
 26 72  1  0
 28 73  1  0
 28 74  1  0
 28 75  1  0
 29 76  1  0
 29 77  1  0
 30 78  1  0
 30 79  1  0
 32 80  1  0
 32 81  1  0
 32 82  1  0
M  END
>  <meeko>  (3) 
{"is_sidechain": [false], "intermolecular_energy": 2.731, "internal_energy": -0.839}

$$$$
EPH_relaxed_0001_pdb2pqr_Repair_301_r2_0001_out
     RDKit          3D

 82 86  0  0  0  0  0  0  0  0999 V2000
    3.0940   17.1700    0.3250 C   0  0  0  0  0  0  0  0  0  0  0  0
    2.5760   17.3820   -1.1000 C   0  0  2  0  0  0  0  0  0  0  0  0
    1.8670   18.7420   -1.2630 C   0  0  0  0  0  0  0  0  0  0  0  0
    1.3740   19.3420    0.0570 C   0  0  0  0  0  0  0  0  0  0  0  0
    0.0750   20.0690   -0.1160 C   0  0  2  0  0  0  0  0  0  0  0  0
   -0.7040   20.1940    1.0810 O   0  0  0  0  0  0  0  0  0  0  0  0
   -1.2810   19.4040    0.0290 C   0  0  0  0  0  0  0  0  0  0  0  0
   -1.4060   17.9500    0.3580 C   0  0  0  0  0  0  0  0  0  0  0  0
   -2.4650   20.0450   -0.6260 C   0  0  0  0  0  0  0  0  0  0  0  0
    1.6280   16.2510   -1.4820 C   0  0  1  0  0  0  0  0  0  0  0  0
    0.8380   16.5480   -2.7840 C   0  0  0  0  0  0  0  0  0  0  0  0
    0.6630   15.1940   -3.5190 C   0  0  0  0  0  0  0  0  0  0  0  0
    1.0570   14.1270   -2.4710 C   0  0  1  0  0  0  0  0  0  0  0  0
   -0.2120   13.9520   -1.5800 C   0  0  0  0  0  0  0  0  0  0  0  0
    1.5610   12.7580   -3.0340 C   0  0  2  0  0  0  0  0  0  0  0  0
    0.5300   11.9760   -3.8660 C   0  0  0  0  0  0  0  0  0  0  0  0
   -0.3240   11.0250   -3.0950 C   0  0  0  0  0  0  0  0  0  0  0  0
   -0.0810   10.5960   -1.8420 C   0  0  0  0  0  0  0  0  0  0  0  0
    1.2040   10.9970   -1.1070 C   0  0  1  0  0  0  0  0  0  0  0  0
    1.8330    9.7440   -0.4430 C   0  0  0  0  0  0  0  0  0  0  0  0
    0.8500    9.0050    0.4600 C   0  0  0  0  0  0  0  0  0  0  0  0
   -0.3880    8.5720   -0.3200 C   0  0  2  0  0  0  0  0  0  0  0  0
   -0.0050    7.5820   -1.2790 O   0  0  0  0  0  0  0  0  0  0  0  0
   -1.1010    9.7500   -1.0410 C   0  0  0  0  0  0  0  0  0  0  0  0
   -1.7780   10.6680    0.0070 C   0  0  0  0  0  0  0  0  0  0  0  0
   -2.2480    9.1580   -1.9040 C   0  0  0  0  0  0  0  0  0  0  0  0
    2.2570   11.8310   -1.9560 C   0  0  1  0  0  0  0  0  0  0  0  0
    3.1940   10.8630   -2.7410 C   0  0  0  0  0  0  0  0  0  0  0  0
    3.1810   12.6450   -0.9740 C   0  0  0  0  0  0  0  0  0  0  0  0
    2.6850   14.0400   -0.5490 C   0  0  0  0  0  0  0  0  0  0  0  0
    2.2550   14.8630   -1.7670 C   0  0  2  0  0  0  0  0  0  0  0  0
    3.5170   15.0750   -2.6710 C   0  0  0  0  0  0  0  0  0  0  0  0
    2.3247   17.4849    1.0454 H   0  0  0  0  0  0  0  0  0  0  0  0
    3.3246   16.1052    0.4767 H   0  0  0  0  0  0  0  0  0  0  0  0
    4.0049   17.7676    0.4767 H   0  0  0  0  0  0  0  0  0  0  0  0
    3.4463   17.3804   -1.7727 H   0  0  0  0  0  0  0  0  0  0  0  0
    2.5732   19.4487   -1.7233 H   0  0  0  0  0  0  0  0  0  0  0  0
    0.9789   18.5684   -1.8884 H   0  0  0  0  0  0  0  0  0  0  0  0
    1.2343   18.5312    0.7871 H   0  0  0  0  0  0  0  0  0  0  0  0
    2.1266   20.0632    0.4083 H   0  0  0  0  0  0  0  0  0  0  0  0
    0.5060   20.7010   -0.9065 H   0  0  0  0  0  0  0  0  0  0  0  0
   -1.4171   17.8209    1.4503 H   0  0  0  0  0  0  0  0  0  0  0  0
   -2.3412   17.5569   -0.0672 H   0  0  0  0  0  0  0  0  0  0  0  0
   -0.5516   17.4031   -0.0672 H   0  0  0  0  0  0  0  0  0  0  0  0
   -3.1539   20.4180    0.1462 H   0  0  0  0  0  0  0  0  0  0  0  0
   -2.1279   20.8838   -1.2527 H   0  0  0  0  0  0  0  0  0  0  0  0
   -2.9831   19.3042   -1.2527 H   0  0  0  0  0  0  0  0  0  0  0  0
    1.0164   16.2066   -0.5688 H   0  0  0  0  0  0  0  0  0  0  0  0
   -0.1453   16.9771   -2.5411 H   0  0  0  0  0  0  0  0  0  0  0  0
    1.3732   17.2735   -3.4142 H   0  0  0  0  0  0  0  0  0  0  0  0
   -0.3807   15.0577   -3.8384 H   0  0  0  0  0  0  0  0  0  0  0  0
    1.2773   15.1312   -4.4293 H   0  0  0  0  0  0  0  0  0  0  0  0
    0.0764   13.9918   -0.5192 H   0  0  0  0  0  0  0  0  0  0  0  0
   -0.9262   14.7602   -1.7963 H   0  0  0  0  0  0  0  0  0  0  0  0
   -0.6808   12.9807   -1.7963 H   0  0  0  0  0  0  0  0  0  0  0  0
    2.3437   13.0673   -3.7423 H   0  0  0  0  0  0  0  0  0  0  0  0
   -0.1315   12.7039   -4.3585 H   0  0  0  0  0  0  0  0  0  0  0  0
    1.1107   11.3611   -4.5693 H   0  0  0  0  0  0  0  0  0  0  0  0
   -1.2277   10.6426   -3.5921 H   0  0  0  0  0  0  0  0  0  0  0  0
    0.8995   11.7167   -0.3329 H   0  0  0  0  0  0  0  0  0  0  0  0
    2.1700    9.0576   -1.2337 H   0  0  0  0  0  0  0  0  0  0  0  0
    2.6715   10.0832    0.1830 H   0  0  0  0  0  0  0  0  0  0  0  0
    1.3432    8.1141    0.8759 H   0  0  0  0  0  0  0  0  0  0  0  0
    0.5367    9.6835    1.2672 H   0  0  0  0  0  0  0  0  0  0  0  0
   -1.1092    8.1656    0.4044 H   0  0  0  0  0  0  0  0  0  0  0  0
   -0.8050    7.0890   -1.5280 H   0  0  0  0  0  0  0  0  0  0  0  0
   -1.5218   10.3206    1.0188 H   0  0  0  0  0  0  0  0  0  0  0  0
   -1.4236   11.7007   -0.1268 H   0  0  0  0  0  0  0  0  0  0  0  0
   -2.8693   10.6346   -0.1268 H   0  0  0  0  0  0  0  0  0  0  0  0
   -3.0311    8.7538   -1.2457 H   0  0  0  0  0  0  0  0  0  0  0  0
   -2.6747    9.9485   -2.5389 H   0  0  0  0  0  0  0  0  0  0  0  0
   -1.8508    8.3523   -2.5389 H   0  0  0  0  0  0  0  0  0  0  0  0
    3.7775   10.2602   -2.0295 H   0  0  0  0  0  0  0  0  0  0  0  0
    2.5874   10.1983   -3.3736 H   0  0  0  0  0  0  0  0  0  0  0  0
    3.8781   11.4476   -3.3736 H   0  0  0  0  0  0  0  0  0  0  0  0
    3.3071   12.0444   -0.0611 H   0  0  0  0  0  0  0  0  0  0  0  0
    4.1080   12.8285   -1.5370 H   0  0  0  0  0  0  0  0  0  0  0  0
    1.8266   13.9256    0.1293 H   0  0  0  0  0  0  0  0  0  0  0  0
    3.5080   14.5659   -0.0429 H   0  0  0  0  0  0  0  0  0  0  0  0
    4.4024   15.2237   -2.0355 H   0  0  0  0  0  0  0  0  0  0  0  0
    3.6661   14.1893   -3.3061 H   0  0  0  0  0  0  0  0  0  0  0  0
    3.3685   15.9608   -3.3061 H   0  0  0  0  0  0  0  0  0  0  0  0
  1  2  1  0
  2  3  1  0
  3  4  1  0
  4  5  1  0
  5  6  1  0
  6  7  1  0
  7  8  1  0
  7  9  1  0
  2 10  1  0
 10 11  1  0
 11 12  1  0
 12 13  1  0
 13 14  1  1
 13 15  1  0
 15 16  1  0
 16 17  1  0
 17 18  2  0
 18 19  1  0
 19 20  1  0
 20 21  1  0
 21 22  1  0
 22 23  1  0
 22 24  1  0
 24 25  1  0
 24 26  1  0
 19 27  1  0
 27 28  1  6
 27 29  1  0
 29 30  1  0
 30 31  1  0
 31 32  1  6
  7  5  1  0
 31 10  1  0
 31 13  1  0
 27 15  1  0
 24 18  1  0
  1 33  1  0
  1 34  1  0
  1 35  1  0
  2 36  1  6
  3 37  1  0
  3 38  1  0
  4 39  1  0
  4 40  1  0
  5 41  1  6
  8 42  1  0
  8 43  1  0
  8 44  1  0
  9 45  1  0
  9 46  1  0
  9 47  1  0
 10 48  1  1
 11 49  1  0
 11 50  1  0
 12 51  1  0
 12 52  1  0
 14 53  1  0
 14 54  1  0
 14 55  1  0
 15 56  1  6
 16 57  1  0
 16 58  1  0
 17 59  1  0
 19 60  1  1
 20 61  1  0
 20 62  1  0
 21 63  1  0
 21 64  1  0
 22 65  1  1
 23 66  1  0
 25 67  1  0
 25 68  1  0
 25 69  1  0
 26 70  1  0
 26 71  1  0
 26 72  1  0
 28 73  1  0
 28 74  1  0
 28 75  1  0
 29 76  1  0
 29 77  1  0
 30 78  1  0
 30 79  1  0
 32 80  1  0
 32 81  1  0
 32 82  1  0
M  END
>  <meeko>  (4) 
{"is_sidechain": [false], "intermolecular_energy": 2.731, "internal_energy": -0.839}

$$$$
EPH_relaxed_0001_pdb2pqr_Repair_301_r2_0001_out
     RDKit          3D

 82 86  0  0  0  0  0  0  0  0999 V2000
    2.4780   18.0290   -2.3600 C   0  0  0  0  0  0  0  0  0  0  0  0
    1.7720   17.3480   -1.1840 C   0  0  2  0  0  0  0  0  0  0  0  0
    2.7560   16.9560   -0.0640 C   0  0  0  0  0  0  0  0  0  0  0  0
    3.7860   18.0420    0.2580 C   0  0  0  0  0  0  0  0  0  0  0  0
    3.5020   18.7030    1.5730 C   0  0  2  0  0  0  0  0  0  0  0  0
    3.8820   20.0840    1.6430 O   0  0  0  0  0  0  0  0  0  0  0  0
    4.5870   19.1880    2.5170 C   0  0  0  0  0  0  0  0  0  0  0  0
    6.0380   19.0300    2.1860 C   0  0  0  0  0  0  0  0  0  0  0  0
    4.2480   19.3670    3.9640 C   0  0  0  0  0  0  0  0  0  0  0  0
    1.0200   16.1150   -1.6720 C   0  0  1  0  0  0  0  0  0  0  0  0
    0.5070   16.2670   -3.1290 C   0  0  0  0  0  0  0  0  0  0  0  0
    0.6010   14.8650   -3.7840 C   0  0  0  0  0  0  0  0  0  0  0  0
    0.8450   13.8970   -2.6020 C   0  0  1  0  0  0  0  0  0  0  0  0
   -0.5680   13.6530   -1.9850 C   0  0  0  0  0  0  0  0  0  0  0  0
    1.5650   12.5530   -2.9470 C   0  0  2  0  0  0  0  0  0  0  0  0
    0.8010   11.6350   -3.9180 C   0  0  0  0  0  0  0  0  0  0  0  0
   -0.1200   10.6520   -3.2740 C   0  0  0  0  0  0  0  0  0  0  0  0
   -0.1180   10.3150   -1.9710 C   0  0  0  0  0  0  0  0  0  0  0  0
    0.9450   10.8720   -1.0150 C   0  0  1  0  0  0  0  0  0  0  0  0
    1.5140    9.7210   -0.1460 C   0  0  0  0  0  0  0  0  0  0  0  0
    0.4230    8.9440    0.5840 C   0  0  0  0  0  0  0  0  0  0  0  0
   -0.5810    8.3560   -0.4040 C   0  0  2  0  0  0  0  0  0  0  0  0
    0.0750    7.3550   -1.1880 O   0  0  0  0  0  0  0  0  0  0  0  0
   -1.2150    9.4220   -1.3410 C   0  0  0  0  0  0  0  0  0  0  0  0
   -2.1710   10.3290   -0.5260 C   0  0  0  0  0  0  0  0  0  0  0  0
   -2.1000    8.6800   -2.3790 C   0  0  0  0  0  0  0  0  0  0  0  0
    2.0850   11.7540   -1.6840 C   0  0  1  0  0  0  0  0  0  0  0  0
    3.2420   10.8360   -2.1840 C   0  0  0  0  0  0  0  0  0  0  0  0
    2.7100   12.7010   -0.5930 C   0  0  0  0  0  0  0  0  0  0  0  0
    2.0250   14.0650   -0.3820 C   0  0  0  0  0  0  0  0  0  0  0  0
    1.8020   14.7780   -1.7190 C   0  0  2  0  0  0  0  0  0  0  0  0
    3.2070   15.0570   -2.3530 C   0  0  0  0  0  0  0  0  0  0  0  0
    3.2202   18.7450   -1.9773 H   0  0  0  0  0  0  0  0  0  0  0  0
    2.9840   17.2692   -2.9737 H   0  0  0  0  0  0  0  0  0  0  0  0
    1.7369   18.5620   -2.9737 H   0  0  0  0  0  0  0  0  0  0  0  0
    1.0615   18.0730   -0.7602 H   0  0  0  0  0  0  0  0  0  0  0  0
    2.1781   16.7442    0.8477 H   0  0  0  0  0  0  0  0  0  0  0  0
    3.3150   16.0780   -0.4199 H   0  0  0  0  0  0  0  0  0  0  0  0
    4.7857   17.5847    0.2974 H   0  0  0  0  0  0  0  0  0  0  0  0
    3.7338   18.8084   -0.5294 H   0  0  0  0  0  0  0  0  0  0  0  0
    2.6182   18.0669    1.7291 H   0  0  0  0  0  0  0  0  0  0  0  0
    6.6215   18.9665    3.1163 H   0  0  0  0  0  0  0  0  0  0  0  0
    6.1823   18.1108    1.5992 H   0  0  0  0  0  0  0  0  0  0  0  0
    6.3767   19.8966    1.5992 H   0  0  0  0  0  0  0  0  0  0  0  0
    5.0515   18.9427    4.5840 H   0  0  0  0  0  0  0  0  0  0  0  0
    4.1411   20.4391    4.1856 H   0  0  0  0  0  0  0  0  0  0  0  0
    3.3023   18.8507    4.1856 H   0  0  0  0  0  0  0  0  0  0  0  0
    0.2322   16.0631   -0.9060 H   0  0  0  0  0  0  0  0  0  0  0  0
   -0.5361   16.6161   -3.1290 H   0  0  0  0  0  0  0  0  0  0  0  0
    1.1062   17.0036   -3.6842 H   0  0  0  0  0  0  0  0  0  0  0  0
   -0.3361   14.6154   -4.3031 H   0  0  0  0  0  0  0  0  0  0  0  0
    1.3989   14.8103   -4.5393 H   0  0  0  0  0  0  0  0  0  0  0  0
   -0.4960   13.6654   -0.8874 H   0  0  0  0  0  0  0  0  0  0  0  0
   -1.2547   14.4459   -2.3164 H   0  0  0  0  0  0  0  0  0  0  0  0
   -0.9490   12.6758   -2.3164 H   0  0  0  0  0  0  0  0  0  0  0  0
    2.4545   12.8950   -3.4963 H   0  0  0  0  0  0  0  0  0  0  0  0
    0.2045   12.2708   -4.5888 H   0  0  0  0  0  0  0  0  0  0  0  0
    1.5652   11.0400   -4.4396 H   0  0  0  0  0  0  0  0  0  0  0  0
   -0.8635   10.1615   -3.9195 H   0  0  0  0  0  0  0  0  0  0  0  0
    0.4265   11.6008   -0.3747 H   0  0  0  0  0  0  0  0  0  0  0  0
    2.0653    9.0269   -0.7974 H   0  0  0  0  0  0  0  0  0  0  0  0
    2.1696   10.1700    0.6146 H   0  0  0  0  0  0  0  0  0  0  0  0
    0.8851    8.1267    1.1572 H   0  0  0  0  0  0  0  0  0  0  0  0
   -0.1085    9.6328    1.2571 H   0  0  0  0  0  0  0  0  0  0  0  0
   -1.4055    7.9238    0.1820 H   0  0  0  0  0  0  0  0  0  0  0  0
    0.8300    7.0250   -0.6720 H   0  0  0  0  0  0  0  0  0  0  0  0
   -2.0015   10.1682    0.5489 H   0  0  0  0  0  0  0  0  0  0  0  0
   -1.9769   11.3829   -0.7742 H   0  0  0  0  0  0  0  0  0  0  0  0
   -3.2133   10.0798   -0.7742 H   0  0  0  0  0  0  0  0  0  0  0  0
   -2.8402    8.0594   -1.8528 H   0  0  0  0  0  0  0  0  0  0  0  0
   -2.6204    9.4157   -3.0098 H   0  0  0  0  0  0  0  0  0  0  0  0
   -1.4663    8.0392   -3.0098 H   0  0  0  0  0  0  0  0  0  0  0  0
    3.7746   10.4134   -1.3192 H   0  0  0  0  0  0  0  0  0  0  0  0
    2.8256   10.0199   -2.7927 H   0  0  0  0  0  0  0  0  0  0  0  0
    3.9421   11.4271   -2.7927 H   0  0  0  0  0  0  0  0  0  0  0  0
    2.6856   12.1643    0.3669 H   0  0  0  0  0  0  0  0  0  0  0  0
    3.7183   12.9394   -0.9624 H   0  0  0  0  0  0  0  0  0  0  0  0
    1.0531   13.9077    0.1086 H   0  0  0  0  0  0  0  0  0  0  0  0
    2.6758   14.6914    0.2458 H   0  0  0  0  0  0  0  0  0  0  0  0
    3.9476   15.2041   -1.5530 H   0  0  0  0  0  0  0  0  0  0  0  0
    3.5050   14.2005   -2.9756 H   0  0  0  0  0  0  0  0  0  0  0  0
    3.1551   15.9624   -2.9756 H   0  0  0  0  0  0  0  0  0  0  0  0
  1  2  1  0
  2  3  1  0
  3  4  1  0
  4  5  1  0
  5  6  1  0
  6  7  1  0
  7  8  1  0
  7  9  1  0
  2 10  1  0
 10 11  1  0
 11 12  1  0
 12 13  1  0
 13 14  1  1
 13 15  1  0
 15 16  1  0
 16 17  1  0
 17 18  2  0
 18 19  1  0
 19 20  1  0
 20 21  1  0
 21 22  1  0
 22 23  1  0
 22 24  1  0
 24 25  1  0
 24 26  1  0
 19 27  1  0
 27 28  1  6
 27 29  1  0
 29 30  1  0
 30 31  1  0
 31 32  1  6
  7  5  1  0
 31 10  1  0
 31 13  1  0
 27 15  1  0
 24 18  1  0
  1 33  1  0
  1 34  1  0
  1 35  1  0
  2 36  1  1
  3 37  1  0
  3 38  1  0
  4 39  1  0
  4 40  1  0
  5 41  1  1
  8 42  1  0
  8 43  1  0
  8 44  1  0
  9 45  1  0
  9 46  1  0
  9 47  1  0
 10 48  1  1
 11 49  1  0
 11 50  1  0
 12 51  1  0
 12 52  1  0
 14 53  1  0
 14 54  1  0
 14 55  1  0
 15 56  1  6
 16 57  1  0
 16 58  1  0
 17 59  1  0
 19 60  1  1
 20 61  1  0
 20 62  1  0
 21 63  1  0
 21 64  1  0
 22 65  1  1
 23 66  1  0
 25 67  1  0
 25 68  1  0
 25 69  1  0
 26 70  1  0
 26 71  1  0
 26 72  1  0
 28 73  1  0
 28 74  1  0
 28 75  1  0
 29 76  1  0
 29 77  1  0
 30 78  1  0
 30 79  1  0
 32 80  1  0
 32 81  1  0
 32 82  1  0
M  END
>  <meeko>  (5) 
{"is_sidechain": [false], "intermolecular_energy": 2.731, "internal_energy": -0.839}

$$$$
EPH_relaxed_0001_pdb2pqr_Repair_301_r2_0001_out
     RDKit          3D

 82 86  0  0  0  0  0  0  0  0999 V2000
    3.2070   18.0150   -1.1560 C   0  0  0  0  0  0  0  0  0  0  0  0
    2.8950   17.5300   -2.5750 C   0  0  2  0  0  0  0  0  0  0  0  0
    1.5560   18.0870   -3.0970 C   0  0  0  0  0  0  0  0  0  0  0  0
    0.9700   19.2000   -2.2250 C   0  0  0  0  0  0  0  0  0  0  0  0
   -0.2930   18.7650   -1.5450 C   0  0  2  0  0  0  0  0  0  0  0  0
   -1.0720   19.8330   -0.9890 O   0  0  0  0  0  0  0  0  0  0  0  0
   -0.5250   18.8920   -0.0510 C   0  0  0  0  0  0  0  0  0  0  0  0
    0.5170   19.4720    0.8540 C   0  0  0  0  0  0  0  0  0  0  0  0
   -1.5530   18.0140    0.5910 C   0  0  0  0  0  0  0  0  0  0  0  0
    2.8760   16.0060   -2.6100 C   0  0  1  0  0  0  0  0  0  0  0  0
    4.2990   15.3920   -2.6860 C   0  0  0  0  0  0  0  0  0  0  0  0
    4.2610   14.0750   -1.8690 C   0  0  0  0  0  0  0  0  0  0  0  0
    2.7570   13.8050   -1.6320 C   0  0  1  0  0  0  0  0  0  0  0  0
    2.2540   13.1460   -2.9550 C   0  0  0  0  0  0  0  0  0  0  0  0
    2.3990   12.9370   -0.3820 C   0  0  2  0  0  0  0  0  0  0  0  0
    2.9480   11.5000   -0.4070 C   0  0  0  0  0  0  0  0  0  0  0  0
    2.0450   10.4820   -1.0230 C   0  0  0  0  0  0  0  0  0  0  0  0
    0.7340   10.6520   -1.2770 C   0  0  0  0  0  0  0  0  0  0  0  0
    0.0080   11.9330   -0.8470 C   0  0  1  0  0  0  0  0  0  0  0  0
   -1.3340   11.5620   -0.1630 C   0  0  0  0  0  0  0  0  0  0  0  0
   -2.2050   10.6600   -1.0320 C   0  0  0  0  0  0  0  0  0  0  0  0
   -1.4690    9.3720   -1.3900 C   0  0  2  0  0  0  0  0  0  0  0  0
   -1.2780    8.6040   -0.1980 O   0  0  0  0  0  0  0  0  0  0  0  0
   -0.0980    9.6200   -2.0780 C   0  0  0  0  0  0  0  0  0  0  0  0
   -0.3240   10.1800   -3.5040 C   0  0  0  0  0  0  0  0  0  0  0  0
    0.6020    8.2460   -2.2570 C   0  0  0  0  0  0  0  0  0  0  0  0
    0.8650   12.9630    0.0070 C   0  0  1  0  0  0  0  0  0  0  0  0
    0.7840   12.5960    1.5200 C   0  0  0  0  0  0  0  0  0  0  0  0
    0.2350   14.3990   -0.1360 C   0  0  0  0  0  0  0  0  0  0  0  0
    0.7180   15.2540   -1.3230 C   0  0  0  0  0  0  0  0  0  0  0  0
    2.2480   15.2740   -1.3980 C   0  0  2  0  0  0  0  0  0  0  0  0
    2.7820   15.9520   -0.0900 C   0  0  0  0  0  0  0  0  0  0  0  0
    2.7619   17.3231   -0.4259 H   0  0  0  0  0  0  0  0  0  0  0  0
    4.2969   18.0492   -1.0115 H   0  0  0  0  0  0  0  0  0  0  0  0
    2.7862   19.0210   -1.0115 H   0  0  0  0  0  0  0  0  0  0  0  0
    3.6888   17.9068   -3.2367 H   0  0  0  0  0  0  0  0  0  0  0  0
    1.7174   18.4873   -4.1088 H   0  0  0  0  0  0  0  0  0  0  0  0
    0.8355   17.2559   -3.0840 H   0  0  0  0  0  0  0  0  0  0  0  0
    1.7089   19.4795   -1.4595 H   0  0  0  0  0  0  0  0  0  0  0  0
    0.7325   20.0553   -2.8746 H   0  0  0  0  0  0  0  0  0  0  0  0
   -0.4037   17.9193   -2.2396 H   0  0  0  0  0  0  0  0  0  0  0  0
    0.2244   19.3091    1.9018 H   0  0  0  0  0  0  0  0  0  0  0  0
    1.4829   18.9818    0.6626 H   0  0  0  0  0  0  0  0  0  0  0  0
    0.6093   20.5513    0.6626 H   0  0  0  0  0  0  0  0  0  0  0  0
   -1.4666   18.0878    1.6851 H   0  0  0  0  0  0  0  0  0  0  0  0
   -2.5573   18.3374    0.2799 H   0  0  0  0  0  0  0  0  0  0  0  0
   -1.3907   16.9715    0.2799 H   0  0  0  0  0  0  0  0  0  0  0  0
    2.2558   15.8506   -3.5051 H   0  0  0  0  0  0  0  0  0  0  0  0
    4.5655   15.1814   -3.7322 H   0  0  0  0  0  0  0  0  0  0  0  0
    5.0511   16.0860   -2.2825 H   0  0  0  0  0  0  0  0  0  0  0  0
    4.7182   13.2520   -2.4379 H   0  0  0  0  0  0  0  0  0  0  0  0
    4.8240   14.1525   -0.9272 H   0  0  0  0  0  0  0  0  0  0  0  0
    1.6027   12.2927   -2.7150 H   0  0  0  0  0  0  0  0  0  0  0  0
    1.6885   13.8855   -3.5410 H   0  0  0  0  0  0  0  0  0  0  0  0
    3.1164   12.7956   -3.5410 H   0  0  0  0  0  0  0  0  0  0  0  0
    2.9419   13.4502    0.4253 H   0  0  0  0  0  0  0  0  0  0  0  0
    3.8903   11.5061   -0.9745 H   0  0  0  0  0  0  0  0  0  0  0  0
    3.0688   11.2023    0.6450 H   0  0  0  0  0  0  0  0  0  0  0  0
    2.4886    9.5119   -1.2917 H   0  0  0  0  0  0  0  0  0  0  0  0
   -0.1873   12.4969   -1.7710 H   0  0  0  0  0  0  0  0  0  0  0  0
   -1.1162   11.0392    0.7800 H   0  0  0  0  0  0  0  0  0  0  0  0
   -1.8894   12.4956    0.0099 H   0  0  0  0  0  0  0  0  0  0  0  0
   -3.1239   10.4086   -0.4821 H   0  0  0  0  0  0  0  0  0  0  0  0
   -2.4475   11.1958   -1.9616 H   0  0  0  0  0  0  0  0  0  0  0  0
   -2.0900    8.8286   -2.1174 H   0  0  0  0  0  0  0  0  0  0  0  0
   -0.3380    8.3630   -0.1510 H   0  0  0  0  0  0  0  0  0  0  0  0
   -0.7349   11.1982   -3.4372 H   0  0  0  0  0  0  0  0  0  0  0  0
    0.6341   10.2059   -4.0439 H   0  0  0  0  0  0  0  0  0  0  0  0
   -1.0317    9.5337   -4.0439 H   0  0  0  0  0  0  0  0  0  0  0  0
    0.8216    7.8149   -1.2691 H   0  0  0  0  0  0  0  0  0  0  0  0
   -0.0601    7.5670   -2.8144 H   0  0  0  0  0  0  0  0  0  0  0  0
    1.5405    8.3825   -2.8144 H   0  0  0  0  0  0  0  0  0  0  0  0
    0.9819   13.4925    2.1259 H   0  0  0  0  0  0  0  0  0  0  0  0
   -0.2206   12.2118    1.7508 H   0  0  0  0  0  0  0  0  0  0  0  0
    1.5335   11.8247    1.7508 H   0  0  0  0  0  0  0  0  0  0  0  0
   -0.8536   14.2765   -0.2353 H   0  0  0  0  0  0  0  0  0  0  0  0
    0.5572   14.9456    0.7626 H   0  0  0  0  0  0  0  0  0  0  0  0
    0.3175   14.8323   -2.2567 H   0  0  0  0  0  0  0  0  0  0  0  0
    0.3604   16.2845   -1.1813 H   0  0  0  0  0  0  0  0  0  0  0  0
    2.3713   15.4306    0.7872 H   0  0  0  0  0  0  0  0  0  0  0  0
    3.8803   15.8949   -0.0695 H   0  0  0  0  0  0  0  0  0  0  0  0
    2.4692   17.0064   -0.0695 H   0  0  0  0  0  0  0  0  0  0  0  0
  1  2  1  0
  2  3  1  0
  3  4  1  0
  4  5  1  0
  5  6  1  0
  6  7  1  0
  7  8  1  0
  7  9  1  0
  2 10  1  0
 10 11  1  0
 11 12  1  0
 12 13  1  0
 13 14  1  6
 13 15  1  0
 15 16  1  0
 16 17  1  0
 17 18  2  0
 18 19  1  0
 19 20  1  0
 20 21  1  0
 21 22  1  0
 22 23  1  0
 22 24  1  0
 24 25  1  0
 24 26  1  0
 19 27  1  0
 27 28  1  1
 27 29  1  0
 29 30  1  0
 30 31  1  0
 31 32  1  1
  7  5  1  0
 31 10  1  0
 31 13  1  0
 27 15  1  0
 24 18  1  0
  1 33  1  0
  1 34  1  0
  1 35  1  0
  2 36  1  6
  3 37  1  0
  3 38  1  0
  4 39  1  0
  4 40  1  0
  5 41  1  6
  8 42  1  0
  8 43  1  0
  8 44  1  0
  9 45  1  0
  9 46  1  0
  9 47  1  0
 10 48  1  6
 11 49  1  0
 11 50  1  0
 12 51  1  0
 12 52  1  0
 14 53  1  0
 14 54  1  0
 14 55  1  0
 15 56  1  1
 16 57  1  0
 16 58  1  0
 17 59  1  0
 19 60  1  6
 20 61  1  0
 20 62  1  0
 21 63  1  0
 21 64  1  0
 22 65  1  6
 23 66  1  0
 25 67  1  0
 25 68  1  0
 25 69  1  0
 26 70  1  0
 26 71  1  0
 26 72  1  0
 28 73  1  0
 28 74  1  0
 28 75  1  0
 29 76  1  0
 29 77  1  0
 30 78  1  0
 30 79  1  0
 32 80  1  0
 32 81  1  0
 32 82  1  0
M  END
>  <meeko>  (6) 
{"is_sidechain": [false], "intermolecular_energy": 2.731, "internal_energy": -0.839}

$$$$
EPH_relaxed_0001_pdb2pqr_Repair_301_r2_0001_out
     RDKit          3D

 82 86  0  0  0  0  0  0  0  0999 V2000
   -2.6230    7.6140   -3.0520 C   0  0  0  0  0  0  0  0  0  0  0  0
   -2.8960    7.8690   -1.5670 C   0  0  2  0  0  0  0  0  0  0  0  0
   -4.4020    7.8270   -1.2370 C   0  0  0  0  0  0  0  0  0  0  0  0
   -5.1350    6.6350   -1.8590 C   0  0  0  0  0  0  0  0  0  0  0  0
   -6.3310    7.0710   -2.6500 C   0  0  2  0  0  0  0  0  0  0  0  0
   -6.8860    8.3310   -2.2500 O   0  0  0  0  0  0  0  0  0  0  0  0
   -7.7270    7.1810   -2.0630 C   0  0  0  0  0  0  0  0  0  0  0  0
   -7.9980    6.8530   -0.6290 C   0  0  0  0  0  0  0  0  0  0  0  0
   -8.8990    7.1340   -2.9930 C   0  0  0  0  0  0  0  0  0  0  0  0
   -2.3100    9.2140   -1.1540 C   0  0  1  0  0  0  0  0  0  0  0  0
   -2.8150    9.6850    0.2360 C   0  0  0  0  0  0  0  0  0  0  0  0
   -1.6380   10.4360    0.9090 C   0  0  0  0  0  0  0  0  0  0  0  0
   -0.6170   10.6620   -0.2300 C   0  0  1  0  0  0  0  0  0  0  0  0
   -1.1430   11.9150   -0.9970 C   0  0  0  0  0  0  0  0  0  0  0  0
    0.8750   10.8340    0.2030 C   0  0  2  0  0  0  0  0  0  0  0  0
    1.1600   12.0580    1.0910 C   0  0  0  0  0  0  0  0  0  0  0  0
    1.5210   13.3080    0.3580 C   0  0  0  0  0  0  0  0  0  0  0  0
    1.8910   13.3770   -0.9340 C   0  0  0  0  0  0  0  0  0  0  0  0
    2.0700   12.1050   -1.7720 C   0  0  1  0  0  0  0  0  0  0  0  0
    3.4020   12.1890   -2.5640 C   0  0  0  0  0  0  0  0  0  0  0  0
    3.5040   13.4590   -3.4030 C   0  0  0  0  0  0  0  0  0  0  0  0
    3.3790   14.7030   -2.5270 C   0  0  2  0  0  0  0  0  0  0  0  0
    4.5200   14.7770   -1.6670 O   0  0  0  0  0  0  0  0  0  0  0  0
    2.0800   14.7240   -1.6740 C   0  0  0  0  0  0  0  0  0  0  0  0
    0.8560   14.9480   -2.5960 C   0  0  0  0  0  0  0  0  0  0  0  0
    2.1460   15.9580   -0.7340 C   0  0  0  0  0  0  0  0  0  0  0  0
    1.9120   10.7310   -0.9880 C   0  0  1  0  0  0  0  0  0  0  0  0
    3.2770   10.3190   -0.3560 C   0  0  0  0  0  0  0  0  0  0  0  0
    1.5360    9.5950   -2.0120 C   0  0  0  0  0  0  0  0  0  0  0  0
    0.0380    9.3950   -2.3080 C   0  0  0  0  0  0  0  0  0  0  0  0
   -0.7700    9.3050   -1.0100 C   0  0  2  0  0  0  0  0  0  0  0  0
   -0.2780    8.0400   -0.2270 C   0  0  0  0  0  0  0  0  0  0  0  0
   -1.8226    6.8664   -3.1546 H   0  0  0  0  0  0  0  0  0  0  0  0
   -3.5382    7.2399   -3.5341 H   0  0  0  0  0  0  0  0  0  0  0  0
   -2.3120    8.5526   -3.5341 H   0  0  0  0  0  0  0  0  0  0  0  0
   -2.4110    7.0617   -0.9986 H   0  0  0  0  0  0  0  0  0  0  0  0
   -4.5168    7.7737   -0.1443 H   0  0  0  0  0  0  0  0  0  0  0  0
   -4.8499    8.7374   -1.6619 H   0  0  0  0  0  0  0  0  0  0  0  0
   -4.4430    6.0992   -2.5253 H   0  0  0  0  0  0  0  0  0  0  0  0
   -5.4821    5.9827   -1.0441 H   0  0  0  0  0  0  0  0  0  0  0  0
   -5.9467    6.5720   -3.5518 H   0  0  0  0  0  0  0  0  0  0  0  0
   -7.4311    7.5391    0.0175 H   0  0  0  0  0  0  0  0  0  0  0  0
   -9.0735    6.9614   -0.4250 H   0  0  0  0  0  0  0  0  0  0  0  0
   -7.6887    5.8173   -0.4250 H   0  0  0  0  0  0  0  0  0  0  0  0
   -9.8299    7.0967   -2.4082 H   0  0  0  0  0  0  0  0  0  0  0  0
   -8.9002    8.0328   -3.6271 H   0  0  0  0  0  0  0  0  0  0  0  0
   -8.8282    6.2380   -3.6271 H   0  0  0  0  0  0  0  0  0  0  0  0
   -2.6458    9.8289   -2.0020 H   0  0  0  0  0  0  0  0  0  0  0  0
   -3.6761   10.3591    0.1176 H   0  0  0  0  0  0  0  0  0  0  0  0
   -3.1398    8.8308    0.8482 H   0  0  0  0  0  0  0  0  0  0  0  0
   -1.9767   11.3971    1.3232 H   0  0  0  0  0  0  0  0  0  0  0  0
   -1.2078    9.8702    1.7485 H   0  0  0  0  0  0  0  0  0  0  0  0
   -1.4639   12.6794   -0.2741 H   0  0  0  0  0  0  0  0  0  0  0  0
   -0.3398   12.3221   -1.6288 H   0  0  0  0  0  0  0  0  0  0  0  0
   -1.9961   11.6268   -1.6288 H   0  0  0  0  0  0  0  0  0  0  0  0
    1.0366    9.9550    0.8443 H   0  0  0  0  0  0  0  0  0  0  0  0
    0.2588   12.2622    1.6877 H   0  0  0  0  0  0  0  0  0  0  0  0
    2.0398   11.7959    1.6970 H   0  0  0  0  0  0  0  0  0  0  0  0
    1.4811   14.2518    0.9216 H   0  0  0  0  0  0  0  0  0  0  0  0
    1.2213   12.0796   -2.4714 H   0  0  0  0  0  0  0  0  0  0  0  0
    4.2386   12.1697   -1.8501 H   0  0  0  0  0  0  0  0  0  0  0  0
    3.4368   11.3308   -3.2513 H   0  0  0  0  0  0  0  0  0  0  0  0
    4.4777   13.4753   -3.9146 H   0  0  0  0  0  0  0  0  0  0  0  0
    2.6841   13.4621   -4.1364 H   0  0  0  0  0  0  0  0  0  0  0  0
    3.3284   15.5743   -3.1966 H   0  0  0  0  0  0  0  0  0  0  0  0
    5.0460   13.9700   -1.8050 H   0  0  0  0  0  0  0  0  0  0  0  0
   -0.0411   15.1122   -1.9810 H   0  0  0  0  0  0  0  0  0  0  0  0
    1.0316   15.8289   -3.2309 H   0  0  0  0  0  0  0  0  0  0  0  0
    0.7082   14.0620   -3.2309 H   0  0  0  0  0  0  0  0  0  0  0  0
    2.1281   15.6224    0.3134 H   0  0  0  0  0  0  0  0  0  0  0  0
    3.0752   16.5149   -0.9247 H   0  0  0  0  0  0  0  0  0  0  0  0
    1.2815   16.6109   -0.9247 H   0  0  0  0  0  0  0  0  0  0  0  0
    3.1956   10.3436    0.7407 H   0  0  0  0  0  0  0  0  0  0  0  0
    3.5396    9.3016   -0.6815 H   0  0  0  0  0  0  0  0  0  0  0  0
    4.0586   11.0213   -0.6815 H   0  0  0  0  0  0  0  0  0  0  0  0
    2.0353    9.8268   -2.9643 H   0  0  0  0  0  0  0  0  0  0  0  0
    1.8629    8.6587   -1.5360 H   0  0  0  0  0  0  0  0  0  0  0  0
   -0.3282   10.2456   -2.9016 H   0  0  0  0  0  0  0  0  0  0  0  0
   -0.0870    8.4547   -2.8649 H   0  0  0  0  0  0  0  0  0  0  0  0
   -0.3507    8.2270    0.8546 H   0  0  0  0  0  0  0  0  0  0  0  0
   -0.9060    7.1769   -0.4929 H   0  0  0  0  0  0  0  0  0  0  0  0
    0.7681    7.8281   -0.4929 H   0  0  0  0  0  0  0  0  0  0  0  0
  1  2  1  0
  2  3  1  0
  3  4  1  0
  4  5  1  0
  5  6  1  0
  6  7  1  0
  7  8  1  0
  7  9  1  0
  2 10  1  0
 10 11  1  0
 11 12  1  0
 12 13  1  0
 13 14  1  6
 13 15  1  0
 15 16  1  0
 16 17  1  0
 17 18  2  0
 18 19  1  0
 19 20  1  0
 20 21  1  0
 21 22  1  0
 22 23  1  0
 22 24  1  0
 24 25  1  0
 24 26  1  0
 19 27  1  0
 27 28  1  1
 27 29  1  0
 29 30  1  0
 30 31  1  0
 31 32  1  1
  7  5  1  0
 31 10  1  0
 31 13  1  0
 27 15  1  0
 24 18  1  0
  1 33  1  0
  1 34  1  0
  1 35  1  0
  2 36  1  1
  3 37  1  0
  3 38  1  0
  4 39  1  0
  4 40  1  0
  5 41  1  6
  8 42  1  0
  8 43  1  0
  8 44  1  0
  9 45  1  0
  9 46  1  0
  9 47  1  0
 10 48  1  6
 11 49  1  0
 11 50  1  0
 12 51  1  0
 12 52  1  0
 14 53  1  0
 14 54  1  0
 14 55  1  0
 15 56  1  1
 16 57  1  0
 16 58  1  0
 17 59  1  0
 19 60  1  6
 20 61  1  0
 20 62  1  0
 21 63  1  0
 21 64  1  0
 22 65  1  6
 23 66  1  0
 25 67  1  0
 25 68  1  0
 25 69  1  0
 26 70  1  0
 26 71  1  0
 26 72  1  0
 28 73  1  0
 28 74  1  0
 28 75  1  0
 29 76  1  0
 29 77  1  0
 30 78  1  0
 30 79  1  0
 32 80  1  0
 32 81  1  0
 32 82  1  0
M  END
>  <meeko>  (7) 
{"is_sidechain": [false], "intermolecular_energy": 2.731, "internal_energy": -0.839}

$$$$
EPH_relaxed_0001_pdb2pqr_Repair_301_r2_0001_out
     RDKit          3D

 82 86  0  0  0  0  0  0  0  0999 V2000
    1.7700   18.2640   -3.4740 C   0  0  0  0  0  0  0  0  0  0  0  0
    2.1110   17.6130   -2.1300 C   0  0  2  0  0  0  0  0  0  0  0  0
    3.4120   18.1780   -1.5260 C   0  0  0  0  0  0  0  0  0  0  0  0
    3.2180   18.8440   -0.1610 C   0  0  0  0  0  0  0  0  0  0  0  0
    4.4270   18.6840    0.7110 C   0  0  2  0  0  0  0  0  0  0  0  0
    4.1980   17.9530    1.9230 O   0  0  0  0  0  0  0  0  0  0  0  0
    4.5660   19.3340    2.0750 C   0  0  0  0  0  0  0  0  0  0  0  0
    3.4820   20.1940    2.6440 C   0  0  0  0  0  0  0  0  0  0  0  0
    5.9400   19.5330    2.6360 C   0  0  0  0  0  0  0  0  0  0  0  0
    2.2270   16.1030   -2.2990 C   0  0  1  0  0  0  0  0  0  0  0  0
    3.6860   15.6410   -2.5560 C   0  0  0  0  0  0  0  0  0  0  0  0
    3.8500   14.2660   -1.8590 C   0  0  0  0  0  0  0  0  0  0  0  0
    2.4070   13.8300   -1.5130 C   0  0  1  0  0  0  0  0  0  0  0  0
    1.8400   13.2320   -2.8380 C   0  0  0  0  0  0  0  0  0  0  0  0
    2.2540   12.8340   -0.3180 C   0  0  2  0  0  0  0  0  0  0  0  0
    2.9280   11.4650   -0.5190 C   0  0  0  0  0  0  0  0  0  0  0  0
    2.0660   10.4150   -1.1390 C   0  0  0  0  0  0  0  0  0  0  0  0
    0.7260   10.4730   -1.2580 C   0  0  0  0  0  0  0  0  0  0  0  0
   -0.0690   11.6370   -0.6530 C   0  0  1  0  0  0  0  0  0  0  0  0
   -1.2980   11.0810    0.1140 C   0  0  0  0  0  0  0  0  0  0  0  0
   -2.1640   10.1700   -0.7500 C   0  0  0  0  0  0  0  0  0  0  0  0
   -1.3520    8.9930   -1.2850 C   0  0  2  0  0  0  0  0  0  0  0  0
   -0.9750    8.1560   -0.1880 O   0  0  0  0  0  0  0  0  0  0  0  0
   -0.0820    9.4300   -2.0690 C   0  0  0  0  0  0  0  0  0  0  0  0
   -0.4980   10.0770   -3.4130 C   0  0  0  0  0  0  0  0  0  0  0  0
    0.7190    8.1510   -2.4310 C   0  0  0  0  0  0  0  0  0  0  0  0
    0.7700   12.6760    0.2090 C   0  0  1  0  0  0  0  0  0  0  0  0
    0.8710   12.1840    1.6850 C   0  0  0  0  0  0  0  0  0  0  0  0
    0.0010   14.0490    0.2510 C   0  0  0  0  0  0  0  0  0  0  0  0
    0.2850   15.0400   -0.8950 C   0  0  0  0  0  0  0  0  0  0  0  0
    1.7910   15.2180   -1.1040 C   0  0  2  0  0  0  0  0  0  0  0  0
    2.3860   15.8390    0.2050 C   0  0  0  0  0  0  0  0  0  0  0  0
    1.2662   19.2259   -3.2982 H   0  0  0  0  0  0  0  0  0  0  0  0
    2.6951   18.4335   -4.0445 H   0  0  0  0  0  0  0  0  0  0  0  0
    1.1039   17.6001   -4.0445 H   0  0  0  0  0  0  0  0  0  0  0  0
    1.2941   17.8466   -1.4313 H   0  0  0  0  0  0  0  0  0  0  0  0
    4.1288   17.3517   -1.4106 H   0  0  0  0  0  0  0  0  0  0  0  0
    3.7751   18.9553   -2.2144 H   0  0  0  0  0  0  0  0  0  0  0  0
    3.0266   19.9167   -0.3117 H   0  0  0  0  0  0  0  0  0  0  0  0
    2.3674   18.3583    0.3397 H   0  0  0  0  0  0  0  0  0  0  0  0
    5.0881   18.6649   -0.1679 H   0  0  0  0  0  0  0  0  0  0  0  0
    3.5253   20.1596    3.7426 H   0  0  0  0  0  0  0  0  0  0  0  0
    3.6201   21.2309    2.3039 H   0  0  0  0  0  0  0  0  0  0  0  0
    2.5036   19.8237    2.3039 H   0  0  0  0  0  0  0  0  0  0  0  0
    5.8919   19.5260    3.7349 H   0  0  0  0  0  0  0  0  0  0  0  0
    6.5975   18.7207    2.2926 H   0  0  0  0  0  0  0  0  0  0  0  0
    6.3400   20.4984    2.2926 H   0  0  0  0  0  0  0  0  0  0  0  0
    1.5389   15.9588   -3.1450 H   0  0  0  0  0  0  0  0  0  0  0  0
    3.8670   15.5418   -3.6365 H   0  0  0  0  0  0  0  0  0  0  0  0
    4.4068   16.3721   -2.1611 H   0  0  0  0  0  0  0  0  0  0  0  0
    4.3228   13.5406   -2.5374 H   0  0  0  0  0  0  0  0  0  0  0  0
    4.4934   14.3235   -0.9687 H   0  0  0  0  0  0  0  0  0  0  0  0
    1.1008   12.4524   -2.6016 H   0  0  0  0  0  0  0  0  0  0  0  0
    1.3580   14.0290   -3.4232 H   0  0  0  0  0  0  0  0  0  0  0  0
    2.6615   12.7930   -3.4232 H   0  0  0  0  0  0  0  0  0  0  0  0
    2.8240   13.3335    0.4793 H   0  0  0  0  0  0  0  0  0  0  0  0
    3.8058   11.6099   -1.1659 H   0  0  0  0  0  0  0  0  0  0  0  0
    3.1785   11.0982    0.4874 H   0  0  0  0  0  0  0  0  0  0  0  0
    2.5681    9.5185   -1.5316 H   0  0  0  0  0  0  0  0  0  0  0  0
   -0.4051   12.2500   -1.5023 H   0  0  0  0  0  0  0  0  0  0  0  0
   -0.9417   10.5084    0.9830 H   0  0  0  0  0  0  0  0  0  0  0  0
   -1.9164   11.9379    0.4194 H   0  0  0  0  0  0  0  0  0  0  0  0
   -2.9985    9.7863   -0.1447 H   0  0  0  0  0  0  0  0  0  0  0  0
   -2.5436   10.7516   -1.6030 H   0  0  0  0  0  0  0  0  0  0  0  0
   -1.9897    8.4501   -1.9982 H   0  0  0  0  0  0  0  0  0  0  0  0
   -1.6310    7.4410   -0.1240 H   0  0  0  0  0  0  0  0  0  0  0  0
   -1.0833   10.9873   -3.2161 H   0  0  0  0  0  0  0  0  0  0  0  0
    0.4024   10.3374   -3.9888 H   0  0  0  0  0  0  0  0  0  0  0  0
   -1.1086    9.3659   -3.9888 H   0  0  0  0  0  0  0  0  0  0  0  0
    1.0366    7.6438   -1.5080 H   0  0  0  0  0  0  0  0  0  0  0  0
    0.0829    7.4746   -3.0208 H   0  0  0  0  0  0  0  0  0  0  0  0
    1.6052    8.4280   -3.0208 H   0  0  0  0  0  0  0  0  0  0  0  0
    0.6973   13.0300    2.3662 H   0  0  0  0  0  0  0  0  0  0  0  0
    0.1137   11.4068    1.8651 H   0  0  0  0  0  0  0  0  0  0  0  0
    1.8733   11.7680    1.8651 H   0  0  0  0  0  0  0  0  0  0  0  0
   -1.0764   13.8274    0.2400 H   0  0  0  0  0  0  0  0  0  0  0  0
    0.3590   14.5517    1.1616 H   0  0  0  0  0  0  0  0  0  0  0  0
   -0.1642   14.6558   -1.8227 H   0  0  0  0  0  0  0  0  0  0  0  0
   -0.1505   16.0152   -0.6318 H   0  0  0  0  0  0  0  0  0  0  0  0
    1.9256   15.3585    1.0809 H   0  0  0  0  0  0  0  0  0  0  0  0
    3.4736   15.6759    0.2267 H   0  0  0  0  0  0  0  0  0  0  0  0
    2.1766   16.9187    0.2267 H   0  0  0  0  0  0  0  0  0  0  0  0
  1  2  1  0
  2  3  1  0
  3  4  1  0
  4  5  1  0
  5  6  1  0
  6  7  1  0
  7  8  1  0
  7  9  1  0
  2 10  1  0
 10 11  1  0
 11 12  1  0
 12 13  1  0
 13 14  1  6
 13 15  1  0
 15 16  1  0
 16 17  1  0
 17 18  2  0
 18 19  1  0
 19 20  1  0
 20 21  1  0
 21 22  1  0
 22 23  1  0
 22 24  1  0
 24 25  1  0
 24 26  1  0
 19 27  1  0
 27 28  1  1
 27 29  1  0
 29 30  1  0
 30 31  1  0
 31 32  1  1
  7  5  1  0
 31 10  1  0
 31 13  1  0
 27 15  1  0
 24 18  1  0
  1 33  1  0
  1 34  1  0
  1 35  1  0
  2 36  1  1
  3 37  1  0
  3 38  1  0
  4 39  1  0
  4 40  1  0
  5 41  1  6
  8 42  1  0
  8 43  1  0
  8 44  1  0
  9 45  1  0
  9 46  1  0
  9 47  1  0
 10 48  1  6
 11 49  1  0
 11 50  1  0
 12 51  1  0
 12 52  1  0
 14 53  1  0
 14 54  1  0
 14 55  1  0
 15 56  1  1
 16 57  1  0
 16 58  1  0
 17 59  1  0
 19 60  1  6
 20 61  1  0
 20 62  1  0
 21 63  1  0
 21 64  1  0
 22 65  1  6
 23 66  1  0
 25 67  1  0
 25 68  1  0
 25 69  1  0
 26 70  1  0
 26 71  1  0
 26 72  1  0
 28 73  1  0
 28 74  1  0
 28 75  1  0
 29 76  1  0
 29 77  1  0
 30 78  1  0
 30 79  1  0
 32 80  1  0
 32 81  1  0
 32 82  1  0
M  END
>  <meeko>  (8) 
{"is_sidechain": [false], "intermolecular_energy": 2.731, "internal_energy": -0.839}

$$$$
EPH_relaxed_0001_pdb2pqr_Repair_301_r2_0001_out
     RDKit          3D

 82 86  0  0  0  0  0  0  0  0999 V2000
    0.5770    8.9630   -2.0400 C   0  0  0  0  0  0  0  0  0  0  0  0
    1.3070   10.0360   -2.8530 C   0  0  2  0  0  0  0  0  0  0  0  0
    2.8090   10.1000   -2.5130 C   0  0  0  0  0  0  0  0  0  0  0  0
    3.6890   10.5240   -3.6910 C   0  0  0  0  0  0  0  0  0  0  0  0
    5.0930   10.8180   -3.2570 C   0  0  2  0  0  0  0  0  0  0  0  0
    5.6390   12.0360   -3.7800 O   0  0  0  0  0  0  0  0  0  0  0  0
    6.2790   10.8220   -4.2050 C   0  0  0  0  0  0  0  0  0  0  0  0
    6.1130   10.5240   -5.6620 C   0  0  0  0  0  0  0  0  0  0  0  0
    7.6500   10.6310   -3.6360 C   0  0  0  0  0  0  0  0  0  0  0  0
    0.6600   11.3960   -2.6170 C   0  0  1  0  0  0  0  0  0  0  0  0
   -0.6130   11.3070   -1.7340 C   0  0  0  0  0  0  0  0  0  0  0  0
   -0.6490   12.5940   -0.8710 C   0  0  0  0  0  0  0  0  0  0  0  0
    0.4060   13.5250   -1.5130 C   0  0  1  0  0  0  0  0  0  0  0  0
   -0.3200   14.1720   -2.7340 C   0  0  0  0  0  0  0  0  0  0  0  0
    1.0350   14.6060   -0.5760 C   0  0  2  0  0  0  0  0  0  0  0  0
    0.0440   15.6400   -0.0140 C   0  0  0  0  0  0  0  0  0  0  0  0
   -0.1360   16.8680   -0.8440 C   0  0  0  0  0  0  0  0  0  0  0  0
    0.6770   17.2630   -1.8420 C   0  0  0  0  0  0  0  0  0  0  0  0
    1.9670   16.4960   -2.1580 C   0  0  1  0  0  0  0  0  0  0  0  0
    3.1370   17.4990   -2.3330 C   0  0  0  0  0  0  0  0  0  0  0  0
    2.8330   18.5790   -3.3660 C   0  0  0  0  0  0  0  0  0  0  0  0
    1.5770   19.3580   -2.9860 C   0  0  2  0  0  0  0  0  0  0  0  0
    1.8390   20.1020   -1.7920 O   0  0  0  0  0  0  0  0  0  0  0  0
    0.3330   18.4510   -2.7740 C   0  0  0  0  0  0  0  0  0  0  0  0
   -0.1330   17.8800   -4.1370 C   0  0  0  0  0  0  0  0  0  0  0  0
   -0.8280   19.3440   -2.2590 C   0  0  0  0  0  0  0  0  0  0  0  0
    2.3260   15.3050   -1.1680 C   0  0  1  0  0  0  0  0  0  0  0  0
    3.1350   15.8510    0.0480 C   0  0  0  0  0  0  0  0  0  0  0  0
    3.2710   14.2870   -1.9090 C   0  0  0  0  0  0  0  0  0  0  0  0
    2.5880   13.1700   -2.7210 C   0  0  0  0  0  0  0  0  0  0  0  0
    1.5090   12.4700   -1.8910 C   0  0  2  0  0  0  0  0  0  0  0  0
    2.2120   11.7900   -0.6670 C   0  0  0  0  0  0  0  0  0  0  0  0
    0.7119    9.1613   -0.9665 H   0  0  0  0  0  0  0  0  0  0  0  0
   -0.4952    8.9837   -2.2848 H   0  0  0  0  0  0  0  0  0  0  0  0
    0.9899    7.9733   -2.2848 H   0  0  0  0  0  0  0  0  0  0  0  0
    1.2210    9.7630   -3.9151 H   0  0  0  0  0  0  0  0  0  0  0  0
    2.9497   10.8235   -1.6964 H   0  0  0  0  0  0  0  0  0  0  0  0
    3.1182    9.0828   -2.2306 H   0  0  0  0  0  0  0  0  0  0  0  0
    3.7079    9.7116   -4.4323 H   0  0  0  0  0  0  0  0  0  0  0  0
    3.2644   11.4423   -4.1229 H   0  0  0  0  0  0  0  0  0  0  0  0
    4.9228   10.3219   -2.2901 H   0  0  0  0  0  0  0  0  0  0  0  0
    5.5809    9.5688   -5.7826 H   0  0  0  0  0  0  0  0  0  0  0  0
    5.5334   11.3291   -6.1372 H   0  0  0  0  0  0  0  0  0  0  0  0
    7.1026   10.4550   -6.1372 H   0  0  0  0  0  0  0  0  0  0  0  0
    7.5954   10.6386   -2.5374 H   0  0  0  0  0  0  0  0  0  0  0  0
    8.0572    9.6674   -3.9762 H   0  0  0  0  0  0  0  0  0  0  0  0
    8.3051   11.4466   -3.9762 H   0  0  0  0  0  0  0  0  0  0  0  0
    0.4806   11.6987   -3.6592 H   0  0  0  0  0  0  0  0  0  0  0  0
   -1.5104   11.2505   -2.3676 H   0  0  0  0  0  0  0  0  0  0  0  0
   -0.5929   10.4074   -1.1013 H   0  0  0  0  0  0  0  0  0  0  0  0
   -1.6466   13.0563   -0.9048 H   0  0  0  0  0  0  0  0  0  0  0  0
   -0.4360   12.3912    0.1889 H   0  0  0  0  0  0  0  0  0  0  0  0
   -1.0962   14.8637   -2.3747 H   0  0  0  0  0  0  0  0  0  0  0  0
    0.4098   14.7246   -3.3439 H   0  0  0  0  0  0  0  0  0  0  0  0
   -0.7853   13.3836   -3.3439 H   0  0  0  0  0  0  0  0  0  0  0  0
    1.3627   14.0075    0.2868 H   0  0  0  0  0  0  0  0  0  0  0  0
   -0.9363   15.1513    0.0869 H   0  0  0  0  0  0  0  0  0  0  0  0
    0.4680   15.9790    0.9427 H   0  0  0  0  0  0  0  0  0  0  0  0
   -1.0059   17.5034   -0.6215 H   0  0  0  0  0  0  0  0  0  0  0  0
    1.7828   15.9694   -3.1061 H   0  0  0  0  0  0  0  0  0  0  0  0
    3.3343   17.9827   -1.3650 H   0  0  0  0  0  0  0  0  0  0  0  0
    4.0107   16.9334   -2.6890 H   0  0  0  0  0  0  0  0  0  0  0  0
    3.6843   19.2734   -3.4222 H   0  0  0  0  0  0  0  0  0  0  0  0
    2.6659   18.0964   -4.3402 H   0  0  0  0  0  0  0  0  0  0  0  0
    1.3376   20.0264   -3.8262 H   0  0  0  0  0  0  0  0  0  0  0  0
    2.5760   20.7080   -1.9790 H   0  0  0  0  0  0  0  0  0  0  0  0
   -0.8201   17.0381   -3.9662 H   0  0  0  0  0  0  0  0  0  0  0  0
   -0.6507   18.6661   -4.7062 H   0  0  0  0  0  0  0  0  0  0  0  0
    0.7410   17.5304   -4.7062 H   0  0  0  0  0  0  0  0  0  0  0  0
   -0.8295   19.3452   -1.1590 H   0  0  0  0  0  0  0  0  0  0  0  0
   -0.6909   20.3717   -2.6266 H   0  0  0  0  0  0  0  0  0  0  0  0
   -1.7861   18.9478   -2.6266 H   0  0  0  0  0  0  0  0  0  0  0  0
    2.6548   15.5269    0.9831 H   0  0  0  0  0  0  0  0  0  0  0  0
    4.1629   15.4612    0.0094 H   0  0  0  0  0  0  0  0  0  0  0  0
    3.1580   16.9501    0.0094 H   0  0  0  0  0  0  0  0  0  0  0  0
    3.9029   14.8628   -2.6012 H   0  0  0  0  0  0  0  0  0  0  0  0
    3.8185   13.7675   -1.1088 H   0  0  0  0  0  0  0  0  0  0  0  0
    2.1246   13.6086   -3.6170 H   0  0  0  0  0  0  0  0  0  0  0  0
    3.3486   12.4277   -3.0047 H   0  0  0  0  0  0  0  0  0  0  0  0
    1.7942   12.1942    0.2669 H   0  0  0  0  0  0  0  0  0  0  0  0
    2.0433   10.7037   -0.7043 H   0  0  0  0  0  0  0  0  0  0  0  0
    3.2921   11.9948   -0.7043 H   0  0  0  0  0  0  0  0  0  0  0  0
  1  2  1  0
  2  3  1  0
  3  4  1  0
  4  5  1  0
  5  6  1  0
  6  7  1  0
  7  8  1  0
  7  9  1  0
  2 10  1  0
 10 11  1  0
 11 12  1  0
 12 13  1  0
 13 14  1  6
 13 15  1  0
 15 16  1  0
 16 17  1  0
 17 18  2  0
 18 19  1  0
 19 20  1  0
 20 21  1  0
 21 22  1  0
 22 23  1  0
 22 24  1  0
 24 25  1  0
 24 26  1  0
 19 27  1  0
 27 28  1  1
 27 29  1  0
 29 30  1  0
 30 31  1  0
 31 32  1  1
  7  5  1  0
 31 10  1  0
 31 13  1  0
 27 15  1  0
 24 18  1  0
  1 33  1  0
  1 34  1  0
  1 35  1  0
  2 36  1  6
  3 37  1  0
  3 38  1  0
  4 39  1  0
  4 40  1  0
  5 41  1  1
  8 42  1  0
  8 43  1  0
  8 44  1  0
  9 45  1  0
  9 46  1  0
  9 47  1  0
 10 48  1  6
 11 49  1  0
 11 50  1  0
 12 51  1  0
 12 52  1  0
 14 53  1  0
 14 54  1  0
 14 55  1  0
 15 56  1  1
 16 57  1  0
 16 58  1  0
 17 59  1  0
 19 60  1  6
 20 61  1  0
 20 62  1  0
 21 63  1  0
 21 64  1  0
 22 65  1  6
 23 66  1  0
 25 67  1  0
 25 68  1  0
 25 69  1  0
 26 70  1  0
 26 71  1  0
 26 72  1  0
 28 73  1  0
 28 74  1  0
 28 75  1  0
 29 76  1  0
 29 77  1  0
 30 78  1  0
 30 79  1  0
 32 80  1  0
 32 81  1  0
 32 82  1  0
M  END
>  <meeko>  (9) 
{"is_sidechain": [false], "intermolecular_energy": 2.731, "internal_energy": -0.839}

$$$$
EPH_relaxed_0001_pdb2pqr_Repair_301_r2_0001_out
     RDKit          3D

 82 86  0  0  0  0  0  0  0  0999 V2000
    0.2890   17.8280   -0.3930 C   0  0  0  0  0  0  0  0  0  0  0  0
    1.2200   17.1040   -1.3690 C   0  0  2  0  0  0  0  0  0  0  0  0
    1.6030   17.9890   -2.5720 C   0  0  0  0  0  0  0  0  0  0  0  0
    3.1060   18.2600   -2.6830 C   0  0  0  0  0  0  0  0  0  0  0  0
    3.9160   17.0580   -2.3000 C   0  0  2  0  0  0  0  0  0  0  0  0
    5.0320   17.3360   -1.4450 O   0  0  0  0  0  0  0  0  0  0  0  0
    5.3460   16.8340   -2.7540 C   0  0  0  0  0  0  0  0  0  0  0  0
    6.0500   17.8210   -3.6320 C   0  0  0  0  0  0  0  0  0  0  0  0
    5.8870   15.4380   -2.7500 C   0  0  0  0  0  0  0  0  0  0  0  0
    0.5630   15.8180   -1.8570 C   0  0  1  0  0  0  0  0  0  0  0  0
    0.1430   15.8910   -3.3500 C   0  0  0  0  0  0  0  0  0  0  0  0
    0.3470   14.4730   -3.9410 C   0  0  0  0  0  0  0  0  0  0  0  0
    0.5560   13.5620   -2.7090 C   0  0  1  0  0  0  0  0  0  0  0  0
   -0.8830   13.2710   -2.1780 C   0  0  0  0  0  0  0  0  0  0  0  0
    1.3590   12.2430   -2.9520 C   0  0  2  0  0  0  0  0  0  0  0  0
    0.7080   11.2540   -3.9340 C   0  0  0  0  0  0  0  0  0  0  0  0
   -0.2080   10.2500   -3.3150 C   0  0  0  0  0  0  0  0  0  0  0  0
   -0.2790    9.9610   -2.0020 C   0  0  0  0  0  0  0  0  0  0  0  0
    0.6880   10.6050   -1.0000 C   0  0  1  0  0  0  0  0  0  0  0  0
    1.2510    9.5160   -0.0500 C   0  0  0  0  0  0  0  0  0  0  0  0
    0.1500    8.7120    0.6360 C   0  0  0  0  0  0  0  0  0  0  0  0
   -0.7560    8.0400   -0.3930 C   0  0  2  0  0  0  0  0  0  0  0  0
   -0.0010    7.0450   -1.0910 O   0  0  0  0  0  0  0  0  0  0  0  0
   -1.3730    9.0390   -1.4110 C   0  0  0  0  0  0  0  0  0  0  0  0
   -2.4240    9.9260   -0.6980 C   0  0  0  0  0  0  0  0  0  0  0  0
   -2.1490    8.2170   -2.4750 C   0  0  0  0  0  0  0  0  0  0  0  0
    1.8300   11.5170   -1.6260 C   0  0  1  0  0  0  0  0  0  0  0  0
    3.0600   10.6400   -2.0120 C   0  0  0  0  0  0  0  0  0  0  0  0
    2.3330   12.5330   -0.5340 C   0  0  0  0  0  0  0  0  0  0  0  0
    1.5720   13.8680   -0.4240 C   0  0  0  0  0  0  0  0  0  0  0  0
    1.4080   14.5210   -1.8000 C   0  0  2  0  0  0  0  0  0  0  0  0
    2.8380   14.8460   -2.3490 C   0  0  0  0  0  0  0  0  0  0  0  0
    0.5880   17.5955    0.6397 H   0  0  0  0  0  0  0  0  0  0  0  0
    0.3564   18.9134   -0.5587 H   0  0  0  0  0  0  0  0  0  0  0  0
   -0.7463   17.4954   -0.5587 H   0  0  0  0  0  0  0  0  0  0  0  0
    2.1468   16.8657   -0.8265 H   0  0  0  0  0  0  0  0  0  0  0  0
    1.2719   17.4860   -3.4925 H   0  0  0  0  0  0  0  0  0  0  0  0
    1.1109   18.9618   -2.4250 H   0  0  0  0  0  0  0  0  0  0  0  0
    3.3432   18.5334   -3.7217 H   0  0  0  0  0  0  0  0  0  0  0  0
    3.3588   19.0781   -1.9924 H   0  0  0  0  0  0  0  0  0  0  0  0
    3.0229   16.4167   -2.3317 H   0  0  0  0  0  0  0  0  0  0  0  0
    6.5757   18.5580   -3.0071 H   0  0  0  0  0  0  0  0  0  0  0  0
    6.7770   17.2936   -4.2670 H   0  0  0  0  0  0  0  0  0  0  0  0
    5.3146   18.3367   -4.2670 H   0  0  0  0  0  0  0  0  0  0  0  0
    6.0185   15.0987   -1.7119 H   0  0  0  0  0  0  0  0  0  0  0  0
    5.1825   14.7703   -3.2676 H   0  0  0  0  0  0  0  0  0  0  0  0
    6.8575   15.4194   -3.2676 H   0  0  0  0  0  0  0  0  0  0  0  0
   -0.2711   15.7550   -1.1427 H   0  0  0  0  0  0  0  0  0  0  0  0
   -0.9131   16.1875   -3.4325 H   0  0  0  0  0  0  0  0  0  0  0  0
    0.7431   16.6357   -3.8934 H   0  0  0  0  0  0  0  0  0  0  0  0
   -0.5401   14.1585   -4.5103 H   0  0  0  0  0  0  0  0  0  0  0  0
    1.1959   14.4308   -4.6393 H   0  0  0  0  0  0  0  0  0  0  0  0
   -0.8752   13.2726   -1.0780 H   0  0  0  0  0  0  0  0  0  0  0  0
   -1.5719   14.0480   -2.5409 H   0  0  0  0  0  0  0  0  0  0  0  0
   -1.2158   12.2874   -2.5409 H   0  0  0  0  0  0  0  0  0  0  0  0
    2.2664   12.6086   -3.4550 H   0  0  0  0  0  0  0  0  0  0  0  0
    0.1298   11.8346   -4.6678 H   0  0  0  0  0  0  0  0  0  0  0  0
    1.5336   10.6791   -4.3789 H   0  0  0  0  0  0  0  0  0  0  0  0
   -0.8816    9.7002   -3.9888 H   0  0  0  0  0  0  0  0  0  0  0  0
    0.0919   11.3297   -0.4260 H   0  0  0  0  0  0  0  0  0  0  0  0
    1.8780    8.8273   -0.6353 H   0  0  0  0  0  0  0  0  0  0  0  0
    1.8312   10.0244    0.7341 H   0  0  0  0  0  0  0  0  0  0  0  0
    0.6099    7.9395    1.2699 H   0  0  0  0  0  0  0  0  0  0  0  0
   -0.4579    9.3972    1.2451 H   0  0  0  0  0  0  0  0  0  0  0  0
   -1.5982    7.5892    0.1525 H   0  0  0  0  0  0  0  0  0  0  0  0
   -0.4060    6.1820   -0.9030 H   0  0  0  0  0  0  0  0  0  0  0  0
   -2.3080    9.8281    0.3915 H   0  0  0  0  0  0  0  0  0  0  0  0
   -2.2759   10.9763   -0.9896 H   0  0  0  0  0  0  0  0  0  0  0  0
   -3.4344    9.6035   -0.9896 H   0  0  0  0  0  0  0  0  0  0  0  0
   -2.8202    7.5060   -1.9711 H   0  0  0  0  0  0  0  0  0  0  0  0
   -2.7414    8.8978   -3.1039 H   0  0  0  0  0  0  0  0  0  0  0  0
   -1.4352    7.6647   -3.1039 H   0  0  0  0  0  0  0  0  0  0  0  0
    3.5583   10.2847   -1.0980 H   0  0  0  0  0  0  0  0  0  0  0  0
    2.7233    9.7770   -2.6052 H   0  0  0  0  0  0  0  0  0  0  0  0
    3.7661   11.2396   -2.6052 H   0  0  0  0  0  0  0  0  0  0  0  0
    2.2675   12.0312    0.4427 H   0  0  0  0  0  0  0  0  0  0  0  0
    3.3521   12.8074   -0.8440 H   0  0  0  0  0  0  0  0  0  0  0  0
    0.5771   13.6806    0.0062 H   0  0  0  0  0  0  0  0  0  0  0  0
    2.1484   14.5481    0.2204 H   0  0  0  0  0  0  0  0  0  0  0  0
    3.5274   15.0027   -1.5063 H   0  0  0  0  0  0  0  0  0  0  0  0
    3.1946   14.0060   -2.9632 H   0  0  0  0  0  0  0  0  0  0  0  0
    2.7965   15.7576   -2.9632 H   0  0  0  0  0  0  0  0  0  0  0  0
  1  2  1  0
  2  3  1  0
  3  4  1  0
  4  5  1  0
  5  6  1  0
  6  7  1  0
  7  8  1  0
  7  9  1  0
  2 10  1  0
 10 11  1  0
 11 12  1  0
 12 13  1  0
 13 14  1  1
 13 15  1  0
 15 16  1  0
 16 17  1  0
 17 18  2  0
 18 19  1  0
 19 20  1  0
 20 21  1  0
 21 22  1  0
 22 23  1  0
 22 24  1  0
 24 25  1  0
 24 26  1  0
 19 27  1  0
 27 28  1  6
 27 29  1  0
 29 30  1  0
 30 31  1  0
 31 32  1  6
  7  5  1  0
 31 10  1  0
 31 13  1  0
 27 15  1  0
 24 18  1  0
  1 33  1  0
  1 34  1  0
  1 35  1  0
  2 36  1  1
  3 37  1  0
  3 38  1  0
  4 39  1  0
  4 40  1  0
  5 41  1  1
  8 42  1  0
  8 43  1  0
  8 44  1  0
  9 45  1  0
  9 46  1  0
  9 47  1  0
 10 48  1  1
 11 49  1  0
 11 50  1  0
 12 51  1  0
 12 52  1  0
 14 53  1  0
 14 54  1  0
 14 55  1  0
 15 56  1  6
 16 57  1  0
 16 58  1  0
 17 59  1  0
 19 60  1  1
 20 61  1  0
 20 62  1  0
 21 63  1  0
 21 64  1  0
 22 65  1  1
 23 66  1  0
 25 67  1  0
 25 68  1  0
 25 69  1  0
 26 70  1  0
 26 71  1  0
 26 72  1  0
 28 73  1  0
 28 74  1  0
 28 75  1  0
 29 76  1  0
 29 77  1  0
 30 78  1  0
 30 79  1  0
 32 80  1  0
 32 81  1  0
 32 82  1  0
M  END
>  <meeko>  (10) 
{"is_sidechain": [false], "intermolecular_energy": 2.731, "internal_energy": -0.839}

$$$$
EPH_relaxed_0001_pdb2pqr_Repair_301_r2_0001_out
     RDKit          3D

 82 86  0  0  0  0  0  0  0  0999 V2000
    0.1830   10.2270   -3.4030 C   0  0  0  0  0  0  0  0  0  0  0  0
    1.1580   10.0910   -2.2300 C   0  0  2  0  0  0  0  0  0  0  0  0
    0.8220    8.8830   -1.3330 C   0  0  0  0  0  0  0  0  0  0  0  0
    0.0230    9.2500   -0.0800 C   0  0  0  0  0  0  0  0  0  0  0  0
   -1.3950    8.7740   -0.1680 C   0  0  2  0  0  0  0  0  0  0  0  0
   -1.9390    8.7520   -1.4940 O   0  0  0  0  0  0  0  0  0  0  0  0
   -2.5540    9.6660   -0.5720 C   0  0  0  0  0  0  0  0  0  0  0  0
   -2.3460   11.1080   -0.9140 C   0  0  0  0  0  0  0  0  0  0  0  0
   -3.9390    9.2700   -0.1640 C   0  0  0  0  0  0  0  0  0  0  0  0
    1.1570   11.3710   -1.4020 C   0  0  1  0  0  0  0  0  0  0  0  0
    1.8960   11.2060   -0.0470 C   0  0  0  0  0  0  0  0  0  0  0  0
    2.5900   12.5600    0.2510 C   0  0  0  0  0  0  0  0  0  0  0  0
    1.9640   13.5500   -0.7590 C   0  0  1  0  0  0  0  0  0  0  0  0
    0.6010   13.9650   -0.1210 C   0  0  0  0  0  0  0  0  0  0  0  0
    2.8310   14.7970   -1.1320 C   0  0  2  0  0  0  0  0  0  0  0  0
    3.1510   15.7430    0.0380 C   0  0  0  0  0  0  0  0  0  0  0  0
    2.1660   16.8430    0.2560 C   0  0  0  0  0  0  0  0  0  0  0  0
    1.2260   17.2370   -0.6230 C   0  0  0  0  0  0  0  0  0  0  0  0
    1.1490   16.6180   -2.0240 C   0  0  1  0  0  0  0  0  0  0  0  0
    0.9890   17.7440   -3.0800 C   0  0  0  0  0  0  0  0  0  0  0  0
   -0.1930   18.6610   -2.7820 C   0  0  0  0  0  0  0  0  0  0  0  0
   -0.0520   19.3030   -1.4040 C   0  0  2  0  0  0  0  0  0  0  0  0
    1.0670   20.1940   -1.4230 O   0  0  0  0  0  0  0  0  0  0  0  0
    0.1260   18.2650   -0.2600 C   0  0  0  0  0  0  0  0  0  0  0  0
   -1.2020   17.5000   -0.0410 C   0  0  0  0  0  0  0  0  0  0  0  0
    0.3990   19.0460    1.0540 C   0  0  0  0  0  0  0  0  0  0  0  0
    2.3080   15.5950   -2.3940 C   0  0  1  0  0  0  0  0  0  0  0  0
    3.5340   16.3660   -2.9730 C   0  0  0  0  0  0  0  0  0  0  0  0
    1.8040   14.6400   -3.5400 C   0  0  0  0  0  0  0  0  0  0  0  0
    1.0590   13.3640   -3.1030 C   0  0  0  0  0  0  0  0  0  0  0  0
    1.8400   12.6170   -2.0180 C   0  0  2  0  0  0  0  0  0  0  0  0
    3.2070   12.1670   -2.6380 C   0  0  0  0  0  0  0  0  0  0  0  0
   -0.8372   10.3693   -3.0172 H   0  0  0  0  0  0  0  0  0  0  0  0
    0.4670   11.0942   -4.0172 H   0  0  0  0  0  0  0  0  0  0  0  0
    0.2189    9.3152   -4.0172 H   0  0  0  0  0  0  0  0  0  0  0  0
    2.1601    9.9212   -2.6506 H   0  0  0  0  0  0  0  0  0  0  0  0
    0.2325    8.1657   -1.9230 H   0  0  0  0  0  0  0  0  0  0  0  0
    1.7785    8.4602   -0.9918 H   0  0  0  0  0  0  0  0  0  0  0  0
    0.5008    8.7869    0.7959 H   0  0  0  0  0  0  0  0  0  0  0  0
    0.0118   10.3462    0.0108 H   0  0  0  0  0  0  0  0  0  0  0  0
   -1.2460    8.1005    0.6889 H   0  0  0  0  0  0  0  0  0  0  0  0
   -2.2612   11.6959    0.0119 H   0  0  0  0  0  0  0  0  0  0  0  0
   -1.4230   11.2158   -1.5026 H   0  0  0  0  0  0  0  0  0  0  0  0
   -3.2009   11.4722   -1.5026 H   0  0  0  0  0  0  0  0  0  0  0  0
   -4.0065    9.2507    0.9338 H   0  0  0  0  0  0  0  0  0  0  0  0
   -4.6610    9.9977   -0.5630 H   0  0  0  0  0  0  0  0  0  0  0  0
   -4.1672    8.2706   -0.5630 H   0  0  0  0  0  0  0  0  0  0  0  0
    0.0727   11.5380   -1.3217 H   0  0  0  0  0  0  0  0  0  0  0  0
    1.1770   10.9653    0.7499 H   0  0  0  0  0  0  0  0  0  0  0  0
    2.6297   10.3878   -0.0940 H   0  0  0  0  0  0  0  0  0  0  0  0
    2.3891   12.8802    1.2840 H   0  0  0  0  0  0  0  0  0  0  0  0
    3.6838   12.4988    0.1518 H   0  0  0  0  0  0  0  0  0  0  0  0
    0.6863   13.9390    0.9754 H   0  0  0  0  0  0  0  0  0  0  0  0
    0.3397   14.9834   -0.4444 H   0  0  0  0  0  0  0  0  0  0  0  0
   -0.1835   13.2650   -0.4444 H   0  0  0  0  0  0  0  0  0  0  0  0
    3.7903   14.3406   -1.4174 H   0  0  0  0  0  0  0  0  0  0  0  0
    3.1984   15.1419    0.9580 H   0  0  0  0  0  0  0  0  0  0  0  0
    4.1023   16.2325   -0.2178 H   0  0  0  0  0  0  0  0  0  0  0  0
    2.2122   17.3770    1.2166 H   0  0  0  0  0  0  0  0  0  0  0  0
    0.2555   15.9764   -2.0245 H   0  0  0  0  0  0  0  0  0  0  0  0
    1.9086   18.3474   -3.0944 H   0  0  0  0  0  0  0  0  0  0  0  0
    0.8037   17.2656   -4.0531 H   0  0  0  0  0  0  0  0  0  0  0  0
   -0.2361   19.4522   -3.5450 H   0  0  0  0  0  0  0  0  0  0  0  0
   -1.1150   18.0613   -2.7971 H   0  0  0  0  0  0  0  0  0  0  0  0
   -0.9868   19.8437   -1.1946 H   0  0  0  0  0  0  0  0  0  0  0  0
    1.2520   20.4140   -2.3520 H   0  0  0  0  0  0  0  0  0  0  0  0
   -1.3894   17.3920    1.0375 H   0  0  0  0  0  0  0  0  0  0  0  0
   -2.0284   18.0605   -0.5025 H   0  0  0  0  0  0  0  0  0  0  0  0
   -1.1318   16.5039   -0.5025 H   0  0  0  0  0  0  0  0  0  0  0  0
    0.1739   18.4020    1.9169 H   0  0  0  0  0  0  0  0  0  0  0  0
    1.4561   19.3483    1.0880 H   0  0  0  0  0  0  0  0  0  0  0  0
   -0.2396   19.9410    1.0880 H   0  0  0  0  0  0  0  0  0  0  0  0
    4.1481   16.7522   -2.1461 H   0  0  0  0  0  0  0  0  0  0  0  0
    4.1374   15.6845   -3.5906 H   0  0  0  0  0  0  0  0  0  0  0  0
    3.1811   17.2051   -3.5906 H   0  0  0  0  0  0  0  0  0  0  0  0
    1.1236   15.2196   -4.1811 H   0  0  0  0  0  0  0  0  0  0  0  0
    2.7166   14.2837   -4.0402 H   0  0  0  0  0  0  0  0  0  0  0  0
    0.0707   13.6419   -2.7080 H   0  0  0  0  0  0  0  0  0  0  0  0
    0.9531   12.7035   -3.9762 H   0  0  0  0  0  0  0  0  0  0  0  0
    3.9166   11.9334   -1.8306 H   0  0  0  0  0  0  0  0  0  0  0  0
    3.0512   11.2727   -3.2593 H   0  0  0  0  0  0  0  0  0  0  0  0
    3.6128   12.9790   -3.2593 H   0  0  0  0  0  0  0  0  0  0  0  0
  1  2  1  0
  2  3  1  0
  3  4  1  0
  4  5  1  0
  5  6  1  0
  6  7  1  0
  7  8  1  0
  7  9  1  0
  2 10  1  0
 10 11  1  0
 11 12  1  0
 12 13  1  0
 13 14  1  1
 13 15  1  0
 15 16  1  0
 16 17  1  0
 17 18  2  0
 18 19  1  0
 19 20  1  0
 20 21  1  0
 21 22  1  0
 22 23  1  0
 22 24  1  0
 24 25  1  0
 24 26  1  0
 19 27  1  0
 27 28  1  6
 27 29  1  0
 29 30  1  0
 30 31  1  0
 31 32  1  6
  7  5  1  0
 31 10  1  0
 31 13  1  0
 27 15  1  0
 24 18  1  0
  1 33  1  0
  1 34  1  0
  1 35  1  0
  2 36  1  6
  3 37  1  0
  3 38  1  0
  4 39  1  0
  4 40  1  0
  5 41  1  1
  8 42  1  0
  8 43  1  0
  8 44  1  0
  9 45  1  0
  9 46  1  0
  9 47  1  0
 10 48  1  1
 11 49  1  0
 11 50  1  0
 12 51  1  0
 12 52  1  0
 14 53  1  0
 14 54  1  0
 14 55  1  0
 15 56  1  6
 16 57  1  0
 16 58  1  0
 17 59  1  0
 19 60  1  1
 20 61  1  0
 20 62  1  0
 21 63  1  0
 21 64  1  0
 22 65  1  1
 23 66  1  0
 25 67  1  0
 25 68  1  0
 25 69  1  0
 26 70  1  0
 26 71  1  0
 26 72  1  0
 28 73  1  0
 28 74  1  0
 28 75  1  0
 29 76  1  0
 29 77  1  0
 30 78  1  0
 30 79  1  0
 32 80  1  0
 32 81  1  0
 32 82  1  0
M  END
>  <meeko>  (11) 
{"is_sidechain": [false], "intermolecular_energy": 2.731, "internal_energy": -0.839}

$$$$
EPH_relaxed_0001_pdb2pqr_Repair_301_r2_0001_out
     RDKit          3D

 82 86  0  0  0  0  0  0  0  0999 V2000
    2.2180   19.3030   -0.0420 C   0  0  0  0  0  0  0  0  0  0  0  0
    2.8810   17.9440   -0.2820 C   0  0  2  0  0  0  0  0  0  0  0  0
    3.7000   17.9190   -1.5870 C   0  0  0  0  0  0  0  0  0  0  0  0
    5.1690   17.5370   -1.3860 C   0  0  0  0  0  0  0  0  0  0  0  0
    5.9860   17.8080   -2.6120 C   0  0  2  0  0  0  0  0  0  0  0  0
    5.2750   17.6650   -3.8490 O   0  0  0  0  0  0  0  0  0  0  0  0
    6.3520   16.7410   -3.6270 C   0  0  0  0  0  0  0  0  0  0  0  0
    5.9100   15.3210   -3.4590 C   0  0  0  0  0  0  0  0  0  0  0  0
    7.5370   16.9710   -4.5120 C   0  0  0  0  0  0  0  0  0  0  0  0
    1.8230   16.8470   -0.3090 C   0  0  1  0  0  0  0  0  0  0  0  0
    0.4110   17.3880   -0.6560 C   0  0  0  0  0  0  0  0  0  0  0  0
   -0.2980   16.2890   -1.4890 C   0  0  0  0  0  0  0  0  0  0  0  0
    0.5900   15.0350   -1.3140 C   0  0  1  0  0  0  0  0  0  0  0  0
    0.1720   14.4360    0.0650 C   0  0  0  0  0  0  0  0  0  0  0  0
    0.5110   13.9680   -2.4550 C   0  0  2  0  0  0  0  0  0  0  0  0
   -0.8710   13.3190   -2.6460 C   0  0  0  0  0  0  0  0  0  0  0  0
   -1.1070   12.0770   -1.8520 C   0  0  0  0  0  0  0  0  0  0  0  0
   -0.1560   11.3470   -1.2400 C   0  0  0  0  0  0  0  0  0  0  0  0
    1.3290   11.6990   -1.3950 C   0  0  1  0  0  0  0  0  0  0  0  0
    2.1370   10.4110   -1.7010 C   0  0  0  0  0  0  0  0  0  0  0  0
    1.9030    9.3140   -0.6660 C   0  0  0  0  0  0  0  0  0  0  0  0
    0.4230    8.9510   -0.5820 C   0  0  2  0  0  0  0  0  0  0  0  0
    0.0270    8.3400   -1.8140 O   0  0  0  0  0  0  0  0  0  0  0  0
   -0.4920   10.1730   -0.2880 C   0  0  0  0  0  0  0  0  0  0  0  0
   -0.2710   10.6500    1.1690 C   0  0  0  0  0  0  0  0  0  0  0  0
   -1.9670    9.6950   -0.3690 C   0  0  0  0  0  0  0  0  0  0  0  0
    1.6590   12.8800   -2.4060 C   0  0  1  0  0  0  0  0  0  0  0  0
    1.8020   12.3180   -3.8530 C   0  0  0  0  0  0  0  0  0  0  0  0
    3.0570   13.5020   -2.0320 C   0  0  0  0  0  0  0  0  0  0  0  0
    3.0560   14.6340   -0.9860 C   0  0  0  0  0  0  0  0  0  0  0  0
    2.0140   15.7010   -1.3340 C   0  0  2  0  0  0  0  0  0  0  0  0
    2.4210   16.3370   -2.7070 C   0  0  0  0  0  0  0  0  0  0  0  0
    2.1305   19.4824    1.0397 H   0  0  0  0  0  0  0  0  0  0  0  0
    2.8308   20.0953   -0.4967 H   0  0  0  0  0  0  0  0  0  0  0  0
    1.2164   19.3077   -0.4967 H   0  0  0  0  0  0  0  0  0  0  0  0
    3.5799   17.7660    0.5486 H   0  0  0  0  0  0  0  0  0  0  0  0
    3.2419   17.1888   -2.2703 H   0  0  0  0  0  0  0  0  0  0  0  0
    3.6869   18.9410   -1.9937 H   0  0  0  0  0  0  0  0  0  0  0  0
    5.5779   18.1219   -0.5489 H   0  0  0  0  0  0  0  0  0  0  0  0
    5.2164   16.4586   -1.1745 H   0  0  0  0  0  0  0  0  0  0  0  0
    6.5909   18.5519   -2.0728 H   0  0  0  0  0  0  0  0  0  0  0  0
    5.8363   15.0843   -2.3873 H   0  0  0  0  0  0  0  0  0  0  0  0
    4.9269   15.1845   -3.9331 H   0  0  0  0  0  0  0  0  0  0  0  0
    6.6420   14.6506   -3.9331 H   0  0  0  0  0  0  0  0  0  0  0  0
    8.4293   17.1442   -3.8924 H   0  0  0  0  0  0  0  0  0  0  0  0
    7.6974   16.0872   -5.1470 H   0  0  0  0  0  0  0  0  0  0  0  0
    7.3552   17.8506   -5.1470 H   0  0  0  0  0  0  0  0  0  0  0  0
    1.9325   16.4592    0.7145 H   0  0  0  0  0  0  0  0  0  0  0  0
   -0.1547   17.5885    0.2658 H   0  0  0  0  0  0  0  0  0  0  0  0
    0.4771   18.3299   -1.2204 H   0  0  0  0  0  0  0  0  0  0  0  0
   -1.3120   16.1038   -1.1049 H   0  0  0  0  0  0  0  0  0  0  0  0
   -0.4138   16.5747   -2.5449 H   0  0  0  0  0  0  0  0  0  0  0  0
    0.5982   15.0468    0.8745 H   0  0  0  0  0  0  0  0  0  0  0  0
   -0.9250   14.4335    0.1463 H   0  0  0  0  0  0  0  0  0  0  0  0
    0.5481   13.4055    0.1463 H   0  0  0  0  0  0  0  0  0  0  0  0
    0.6842   14.5735   -3.3569 H   0  0  0  0  0  0  0  0  0  0  0  0
   -1.6354   14.0562   -2.3592 H   0  0  0  0  0  0  0  0  0  0  0  0
   -0.9231   13.0191   -3.7031 H   0  0  0  0  0  0  0  0  0  0  0  0
   -2.1463   11.7289   -1.7592 H   0  0  0  0  0  0  0  0  0  0  0  0
    1.6451   12.1173   -0.4280 H   0  0  0  0  0  0  0  0  0  0  0  0
    1.8371   10.0330   -2.6895 H   0  0  0  0  0  0  0  0  0  0  0  0
    3.2051   10.6726   -1.6748 H   0  0  0  0  0  0  0  0  0  0  0  0
    2.4773    8.4205   -0.9522 H   0  0  0  0  0  0  0  0  0  0  0  0
    2.2307    9.6828    0.3172 H   0  0  0  0  0  0  0  0  0  0  0  0
    0.3016    8.2571    0.2629 H   0  0  0  0  0  0  0  0  0  0  0  0
   -0.8540    7.9520   -1.6800 H   0  0  0  0  0  0  0  0  0  0  0  0
   -0.6288    9.8778    1.8659 H   0  0  0  0  0  0  0  0  0  0  0  0
    0.8013   10.8279    1.3379 H   0  0  0  0  0  0  0  0  0  0  0  0
   -0.8286   11.5831    1.3379 H   0  0  0  0  0  0  0  0  0  0  0  0
   -2.3668    9.5654    0.6476 H   0  0  0  0  0  0  0  0  0  0  0  0
   -2.5665   10.4449   -0.9060 H   0  0  0  0  0  0  0  0  0  0  0  0
   -2.0127    8.7361   -0.9060 H   0  0  0  0  0  0  0  0  0  0  0  0
    2.0730   11.2529   -3.8075 H   0  0  0  0  0  0  0  0  0  0  0  0
    0.8465   12.4308   -4.3863 H   0  0  0  0  0  0  0  0  0  0  0  0
    2.5874   12.8738   -4.3863 H   0  0  0  0  0  0  0  0  0  0  0  0
    3.6893   12.6901   -1.6433 H   0  0  0  0  0  0  0  0  0  0  0  0
    3.4227   13.9670   -2.9594 H   0  0  0  0  0  0  0  0  0  0  0  0
    2.8216   14.2109    0.0019 H   0  0  0  0  0  0  0  0  0  0  0  0
    4.0503   15.1044   -0.9773 H   0  0  0  0  0  0  0  0  0  0  0  0
    3.0061   17.2512   -2.5285 H   0  0  0  0  0  0  0  0  0  0  0  0
    3.0278   15.6190   -3.2782 H   0  0  0  0  0  0  0  0  0  0  0  0
    1.5148   16.5872   -3.2782 H   0  0  0  0  0  0  0  0  0  0  0  0
  1  2  1  0
  2  3  1  0
  3  4  1  0
  4  5  1  0
  5  6  1  0
  6  7  1  0
  7  8  1  0
  7  9  1  0
  2 10  1  0
 10 11  1  0
 11 12  1  0
 12 13  1  0
 13 14  1  1
 13 15  1  0
 15 16  1  0
 16 17  1  0
 17 18  2  0
 18 19  1  0
 19 20  1  0
 20 21  1  0
 21 22  1  0
 22 23  1  0
 22 24  1  0
 24 25  1  0
 24 26  1  0
 19 27  1  0
 27 28  1  6
 27 29  1  0
 29 30  1  0
 30 31  1  0
 31 32  1  6
  7  5  1  0
 31 10  1  0
 31 13  1  0
 27 15  1  0
 24 18  1  0
  1 33  1  0
  1 34  1  0
  1 35  1  0
  2 36  1  1
  3 37  1  0
  3 38  1  0
  4 39  1  0
  4 40  1  0
  5 41  1  1
  8 42  1  0
  8 43  1  0
  8 44  1  0
  9 45  1  0
  9 46  1  0
  9 47  1  0
 10 48  1  1
 11 49  1  0
 11 50  1  0
 12 51  1  0
 12 52  1  0
 14 53  1  0
 14 54  1  0
 14 55  1  0
 15 56  1  6
 16 57  1  0
 16 58  1  0
 17 59  1  0
 19 60  1  1
 20 61  1  0
 20 62  1  0
 21 63  1  0
 21 64  1  0
 22 65  1  1
 23 66  1  0
 25 67  1  0
 25 68  1  0
 25 69  1  0
 26 70  1  0
 26 71  1  0
 26 72  1  0
 28 73  1  0
 28 74  1  0
 28 75  1  0
 29 76  1  0
 29 77  1  0
 30 78  1  0
 30 79  1  0
 32 80  1  0
 32 81  1  0
 32 82  1  0
M  END
>  <meeko>  (12) 
{"is_sidechain": [false], "intermolecular_energy": 2.731, "internal_energy": -0.839}

$$$$
EPH_relaxed_0001_pdb2pqr_Repair_301_r2_0001_out
     RDKit          3D

 82 86  0  0  0  0  0  0  0  0999 V2000
    0.8370    8.7690   -0.3210 C   0  0  0  0  0  0  0  0  0  0  0  0
   -0.2120    9.5420   -1.1260 C   0  0  2  0  0  0  0  0  0  0  0  0
   -0.9300    8.6470   -2.1560 C   0  0  0  0  0  0  0  0  0  0  0  0
   -2.3960    8.3700   -1.8140 C   0  0  0  0  0  0  0  0  0  0  0  0
   -2.9340    7.2020   -2.5840 C   0  0  2  0  0  0  0  0  0  0  0  0
   -3.9120    7.5380   -3.5760 O   0  0  0  0  0  0  0  0  0  0  0  0
   -4.3700    6.7240   -2.4840 C   0  0  0  0  0  0  0  0  0  0  0  0
   -5.3590    7.4040   -1.5900 C   0  0  0  0  0  0  0  0  0  0  0  0
   -4.6830    5.3130   -2.8750 C   0  0  0  0  0  0  0  0  0  0  0  0
    0.4420   10.7260   -1.8300 C   0  0  1  0  0  0  0  0  0  0  0  0
    0.1050   10.7800   -3.3440 C   0  0  0  0  0  0  0  0  0  0  0  0
    0.0060   12.2790   -3.7260 C   0  0  0  0  0  0  0  0  0  0  0  0
    0.6080   13.0310   -2.5170 C   0  0  1  0  0  0  0  0  0  0  0  0
    2.1530   12.9510   -2.7240 C   0  0  0  0  0  0  0  0  0  0  0  0
    0.1290   14.5050   -2.3110 C   0  0  2  0  0  0  0  0  0  0  0  0
    0.4810   15.4720   -3.4550 C   0  0  0  0  0  0  0  0  0  0  0  0
    1.7900   16.1750   -3.3160 C   0  0  0  0  0  0  0  0  0  0  0  0
    2.5180   16.2570   -2.1870 C   0  0  0  0  0  0  0  0  0  0  0  0
    1.9880   15.6860   -0.8650 C   0  0  1  0  0  0  0  0  0  0  0  0
    2.2020   16.7220    0.2700 C   0  0  0  0  0  0  0  0  0  0  0  0
    3.6520   17.1850    0.3740 C   0  0  0  0  0  0  0  0  0  0  0  0
    4.1240   17.7990   -0.9420 C   0  0  2  0  0  0  0  0  0  0  0  0
    3.4010   19.0130   -1.1690 O   0  0  0  0  0  0  0  0  0  0  0  0
    3.9480   16.8500   -2.1590 C   0  0  0  0  0  0  0  0  0  0  0  0
    4.9580   15.6790   -2.0570 C   0  0  0  0  0  0  0  0  0  0  0  0
    4.3290   17.6400   -3.4400 C   0  0  0  0  0  0  0  0  0  0  0  0
    0.5040   15.1180   -0.9010 C   0  0  1  0  0  0  0  0  0  0  0  0
   -0.5130   16.2680   -0.6300 C   0  0  0  0  0  0  0  0  0  0  0  0
    0.3220   14.0800    0.2700 C   0  0  0  0  0  0  0  0  0  0  0  0
    0.7010   12.6180   -0.0330 C   0  0  0  0  0  0  0  0  0  0  0  0
    0.0580   12.1450   -1.3410 C   0  0  2  0  0  0  0  0  0  0  0  0
   -1.4960   12.1930   -1.1550 C   0  0  0  0  0  0  0  0  0  0  0  0
    0.6493    8.9073    0.7540 H   0  0  0  0  0  0  0  0  0  0  0  0
    0.7747    7.6992   -0.5694 H   0  0  0  0  0  0  0  0  0  0  0  0
    1.8403    9.1453   -0.5694 H   0  0  0  0  0  0  0  0  0  0  0  0
   -0.9719    9.9039   -0.4177 H   0  0  0  0  0  0  0  0  0  0  0  0
   -0.8900    9.1446   -3.1362 H   0  0  0  0  0  0  0  0  0  0  0  0
   -0.4111    7.6771   -2.1564 H   0  0  0  0  0  0  0  0  0  0  0  0
   -2.4766    8.1553   -0.7382 H   0  0  0  0  0  0  0  0  0  0  0  0
   -2.9849    9.2591   -2.0839 H   0  0  0  0  0  0  0  0  0  0  0  0
   -1.9730    6.6735   -2.4988 H   0  0  0  0  0  0  0  0  0  0  0  0
   -5.0908    7.2196   -0.5393 H   0  0  0  0  0  0  0  0  0  0  0  0
   -5.3477    8.4862   -1.7868 H   0  0  0  0  0  0  0  0  0  0  0  0
   -6.3654    7.0060   -1.7868 H   0  0  0  0  0  0  0  0  0  0  0  0
   -4.8183    4.7031   -1.9696 H   0  0  0  0  0  0  0  0  0  0  0  0
   -5.6072    5.2942   -3.4713 H   0  0  0  0  0  0  0  0  0  0  0  0
   -3.8535    4.9052   -3.4713 H   0  0  0  0  0  0  0  0  0  0  0  0
    1.4970   10.5203   -1.5961 H   0  0  0  0  0  0  0  0  0  0  0  0
    0.9001   10.2921   -3.9269 H   0  0  0  0  0  0  0  0  0  0  0  0
   -0.8372   10.2544   -3.5582 H   0  0  0  0  0  0  0  0  0  0  0  0
    0.5839   12.4860   -4.6388 H   0  0  0  0  0  0  0  0  0  0  0  0
   -1.0286   12.5881   -3.9361 H   0  0  0  0  0  0  0  0  0  0  0  0
    2.6533   12.9251   -1.7447 H   0  0  0  0  0  0  0  0  0  0  0  0
    2.4008   12.0388   -3.2866 H   0  0  0  0  0  0  0  0  0  0  0  0
    2.4937   13.8327   -3.2866 H   0  0  0  0  0  0  0  0  0  0  0  0
   -0.9659   14.4014   -2.3333 H   0  0  0  0  0  0  0  0  0  0  0  0
    0.5023   14.8963   -4.3921 H   0  0  0  0  0  0  0  0  0  0  0  0
   -0.2892   16.2571   -3.4374 H   0  0  0  0  0  0  0  0  0  0  0  0
    2.1942   16.6680   -4.2124 H   0  0  0  0  0  0  0  0  0  0  0  0
    2.5836   14.7835   -0.6631 H   0  0  0  0  0  0  0  0  0  0  0  0
    1.5656   17.5973    0.0730 H   0  0  0  0  0  0  0  0  0  0  0  0
    1.9380   16.2352    1.2204 H   0  0  0  0  0  0  0  0  0  0  0  0
    3.7333   17.9376    1.1721 H   0  0  0  0  0  0  0  0  0  0  0  0
    4.2836   16.3136    0.6016 H   0  0  0  0  0  0  0  0  0  0  0  0
    5.2031   17.9907   -0.8486 H   0  0  0  0  0  0  0  0  0  0  0  0
    3.8000   19.7020   -0.6120 H   0  0  0  0  0  0  0  0  0  0  0  0
    5.1524   15.4536   -0.9980 H   0  0  0  0  0  0  0  0  0  0  0  0
    4.5391   14.7895   -2.5503 H   0  0  0  0  0  0  0  0  0  0  0  0
    5.8994   15.9627   -2.5503 H   0  0  0  0  0  0  0  0  0  0  0  0
    4.7907   18.5974   -3.1566 H   0  0  0  0  0  0  0  0  0  0  0  0
    5.0421   17.0510   -4.0355 H   0  0  0  0  0  0  0  0  0  0  0  0
    3.4241   17.8313   -4.0355 H   0  0  0  0  0  0  0  0  0  0  0  0
   -0.6328   16.4034    0.4550 H   0  0  0  0  0  0  0  0  0  0  0  0
   -0.1391   17.2010   -1.0769 H   0  0  0  0  0  0  0  0  0  0  0  0
   -1.4847   16.0110   -1.0769 H   0  0  0  0  0  0  0  0  0  0  0  0
    0.9431   14.4170    1.1130 H   0  0  0  0  0  0  0  0  0  0  0  0
   -0.7590   14.0612    0.4727 H   0  0  0  0  0  0  0  0  0  0  0  0
    1.7947   12.5405   -0.1210 H   0  0  0  0  0  0  0  0  0  0  0  0
    0.3351   11.9833    0.7875 H   0  0  0  0  0  0  0  0  0  0  0  0
   -1.7368   12.2004   -0.0817 H   0  0  0  0  0  0  0  0  0  0  0  0
   -1.8937   13.1039   -1.6263 H   0  0  0  0  0  0  0  0  0  0  0  0
   -1.9492   11.3084   -1.6263 H   0  0  0  0  0  0  0  0  0  0  0  0
  1  2  1  0
  2  3  1  0
  3  4  1  0
  4  5  1  0
  5  6  1  0
  6  7  1  0
  7  8  1  0
  7  9  1  0
  2 10  1  0
 10 11  1  0
 11 12  1  0
 12 13  1  0
 13 14  1  6
 13 15  1  0
 15 16  1  0
 16 17  1  0
 17 18  2  0
 18 19  1  0
 19 20  1  0
 20 21  1  0
 21 22  1  0
 22 23  1  0
 22 24  1  0
 24 25  1  0
 24 26  1  0
 19 27  1  0
 27 28  1  1
 27 29  1  0
 29 30  1  0
 30 31  1  0
 31 32  1  1
  7  5  1  0
 31 10  1  0
 31 13  1  0
 27 15  1  0
 24 18  1  0
  1 33  1  0
  1 34  1  0
  1 35  1  0
  2 36  1  1
  3 37  1  0
  3 38  1  0
  4 39  1  0
  4 40  1  0
  5 41  1  6
  8 42  1  0
  8 43  1  0
  8 44  1  0
  9 45  1  0
  9 46  1  0
  9 47  1  0
 10 48  1  6
 11 49  1  0
 11 50  1  0
 12 51  1  0
 12 52  1  0
 14 53  1  0
 14 54  1  0
 14 55  1  0
 15 56  1  1
 16 57  1  0
 16 58  1  0
 17 59  1  0
 19 60  1  1
 20 61  1  0
 20 62  1  0
 21 63  1  0
 21 64  1  0
 22 65  1  1
 23 66  1  0
 25 67  1  0
 25 68  1  0
 25 69  1  0
 26 70  1  0
 26 71  1  0
 26 72  1  0
 28 73  1  0
 28 74  1  0
 28 75  1  0
 29 76  1  0
 29 77  1  0
 30 78  1  0
 30 79  1  0
 32 80  1  0
 32 81  1  0
 32 82  1  0
M  END
>  <meeko>  (13) 
{"is_sidechain": [false], "intermolecular_energy": 2.731, "internal_energy": -0.839}

$$$$
EPH_relaxed_0001_pdb2pqr_Repair_301_r2_0001_out
     RDKit          3D

 82 86  0  0  0  0  0  0  0  0999 V2000
    4.6950   17.2470   -1.7960 C   0  0  0  0  0  0  0  0  0  0  0  0
    3.2180   16.9220   -2.0300 C   0  0  2  0  0  0  0  0  0  0  0  0
    2.3230   17.4190   -0.8770 C   0  0  0  0  0  0  0  0  0  0  0  0
    1.2930   18.4670   -1.3040 C   0  0  0  0  0  0  0  0  0  0  0  0
    1.6080   19.0360   -2.6550 C   0  0  2  0  0  0  0  0  0  0  0  0
    0.4630   19.4460   -3.4140 O   0  0  0  0  0  0  0  0  0  0  0  0
    1.2280   18.3580   -3.9580 C   0  0  0  0  0  0  0  0  0  0  0  0
    0.5000   17.0510   -3.9740 C   0  0  0  0  0  0  0  0  0  0  0  0
    1.9870   18.7150   -5.1980 C   0  0  0  0  0  0  0  0  0  0  0  0
    3.0390   15.4200   -2.2180 C   0  0  1  0  0  0  0  0  0  0  0  0
    4.3810   14.6890   -2.4910 C   0  0  0  0  0  0  0  0  0  0  0  0
    4.2790   13.2990   -1.8110 C   0  0  0  0  0  0  0  0  0  0  0  0
    2.7810   13.1450   -1.4600 C   0  0  1  0  0  0  0  0  0  0  0  0
    2.1030   12.6850   -2.7880 C   0  0  0  0  0  0  0  0  0  0  0  0
    2.4440   12.1820   -0.2750 C   0  0  2  0  0  0  0  0  0  0  0  0
    2.8400   10.7110   -0.4980 C   0  0  0  0  0  0  0  0  0  0  0  0
    1.7890    9.8560   -1.1240 C   0  0  0  0  0  0  0  0  0  0  0  0
    0.4850   10.1720   -1.2330 C   0  0  0  0  0  0  0  0  0  0  0  0
   -0.0670   11.4600   -0.6080 C   0  0  1  0  0  0  0  0  0  0  0  0
   -1.3770   11.1410    0.1610 C   0  0  0  0  0  0  0  0  0  0  0  0
   -2.4060   10.4250   -0.7080 C   0  0  0  0  0  0  0  0  0  0  0  0
   -1.8390    9.1210   -1.2630 C   0  0  2  0  0  0  0  0  0  0  0  0
   -1.6260    8.2130   -0.1780 O   0  0  0  0  0  0  0  0  0  0  0  0
   -0.5130    9.3160   -2.0500 C   0  0  0  0  0  0  0  0  0  0  0  0
   -0.8020   10.0470   -3.3840 C   0  0  0  0  0  0  0  0  0  0  0  0
    0.0250    7.9110   -2.4330 C   0  0  0  0  0  0  0  0  0  0  0  0
    0.9600   12.3060    0.2600 C   0  0  1  0  0  0  0  0  0  0  0  0
    0.9710   11.7840    1.7290 C   0  0  0  0  0  0  0  0  0  0  0  0
    0.4700   13.8010    0.3230 C   0  0  0  0  0  0  0  0  0  0  0  0
    0.9350   14.7330   -0.8120 C   0  0  0  0  0  0  0  0  0  0  0  0
    2.4470   14.6200   -1.0300 C   0  0  2  0  0  0  0  0  0  0  0  0
    3.1560   15.0980    0.2820 C   0  0  0  0  0  0  0  0  0  0  0  0
    4.8940   17.2908   -0.7150 H   0  0  0  0  0  0  0  0  0  0  0  0
    5.3193   16.4647   -2.2524 H   0  0  0  0  0  0  0  0  0  0  0  0
    4.9333   18.2191   -2.2524 H   0  0  0  0  0  0  0  0  0  0  0  0
    2.9044   17.4508   -2.9421 H   0  0  0  0  0  0  0  0  0  0  0  0
    1.7860   16.5555   -0.4575 H   0  0  0  0  0  0  0  0  0  0  0  0
    2.9846   17.9003   -0.1417 H   0  0  0  0  0  0  0  0  0  0  0  0
    0.2992   17.9968   -1.3381 H   0  0  0  0  0  0  0  0  0  0  0  0
    1.3157   19.2881   -0.5724 H   0  0  0  0  0  0  0  0  0  0  0  0
    2.5604   19.4447   -2.2865 H   0  0  0  0  0  0  0  0  0  0  0  0
    0.3162   16.7210   -2.9409 H   0  0  0  0  0  0  0  0  0  0  0  0
   -0.4604   17.1726   -4.4964 H   0  0  0  0  0  0  0  0  0  0  0  0
    1.1089   16.2985   -4.4964 H   0  0  0  0  0  0  0  0  0  0  0  0
    2.9502   19.1681   -4.9206 H   0  0  0  0  0  0  0  0  0  0  0  0
    2.1665   17.8069   -5.7922 H   0  0  0  0  0  0  0  0  0  0  0  0
    1.4020   19.4324   -5.7922 H   0  0  0  0  0  0  0  0  0  0  0  0
    2.3314   15.4220   -3.0602 H   0  0  0  0  0  0  0  0  0  0  0  0
    4.5346   14.5707   -3.5738 H   0  0  0  0  0  0  0  0  0  0  0  0
    5.2313   15.2622   -2.0930 H   0  0  0  0  0  0  0  0  0  0  0  0
    4.5997   12.5047   -2.5011 H   0  0  0  0  0  0  0  0  0  0  0  0
    4.9253   13.2201   -0.9244 H   0  0  0  0  0  0  0  0  0  0  0  0
    1.2133   12.0814   -2.5555 H   0  0  0  0  0  0  0  0  0  0  0  0
    1.8046   13.5679   -3.3723 H   0  0  0  0  0  0  0  0  0  0  0  0
    2.8131   12.0815   -3.3723 H   0  0  0  0  0  0  0  0  0  0  0  0
    3.1027   12.5520    0.5245 H   0  0  0  0  0  0  0  0  0  0  0  0
    3.7260   10.6925   -1.1497 H   0  0  0  0  0  0  0  0  0  0  0  0
    3.0199   10.2892    0.5019 H   0  0  0  0  0  0  0  0  0  0  0  0
    2.1070    8.8848   -1.5310 H   0  0  0  0  0  0  0  0  0  0  0  0
   -0.2816   12.1379   -1.4473 H   0  0  0  0  0  0  0  0  0  0  0  0
   -1.1338   10.4993    1.0207 H   0  0  0  0  0  0  0  0  0  0  0  0
   -1.8175   12.0968    0.4810 H   0  0  0  0  0  0  0  0  0  0  0  0
   -3.2960   10.2012   -0.1015 H   0  0  0  0  0  0  0  0  0  0  0  0
   -2.6698   11.0801   -1.5514 H   0  0  0  0  0  0  0  0  0  0  0  0
   -2.5719    8.7199   -1.9785 H   0  0  0  0  0  0  0  0  0  0  0  0
   -1.0230    7.5170   -0.4910 H   0  0  0  0  0  0  0  0  0  0  0  0
   -1.1989   11.0510   -3.1734 H   0  0  0  0  0  0  0  0  0  0  0  0
    0.1291   10.1349   -3.9632 H   0  0  0  0  0  0  0  0  0  0  0  0
   -1.5414    9.4744   -3.9632 H   0  0  0  0  0  0  0  0  0  0  0  0
    0.2436    7.3402   -1.5184 H   0  0  0  0  0  0  0  0  0  0  0  0
   -0.7324    7.3775   -3.0260 H   0  0  0  0  0  0  0  0  0  0  0  0
    0.9451    8.0198   -3.0260 H   0  0  0  0  0  0  0  0  0  0  0  0
    0.9530   12.6382    2.4218 H   0  0  0  0  0  0  0  0  0  0  0  0
    0.0859   11.1538    1.9008 H   0  0  0  0  0  0  0  0  0  0  0  0
    1.8818   11.1917    1.9008 H   0  0  0  0  0  0  0  0  0  0  0  0
   -0.6299   13.7912    0.3159 H   0  0  0  0  0  0  0  0  0  0  0  0
    0.9216   14.2135    1.2373 H   0  0  0  0  0  0  0  0  0  0  0  0
    0.4158   14.4552   -1.7411 H   0  0  0  0  0  0  0  0  0  0  0  0
    0.6975   15.7703   -0.5333 H   0  0  0  0  0  0  0  0  0  0  0  0
    2.6016   14.7242    1.1554 H   0  0  0  0  0  0  0  0  0  0  0  0
    4.1843   14.7081    0.3061 H   0  0  0  0  0  0  0  0  0  0  0  0
    3.1801   16.1975    0.3061 H   0  0  0  0  0  0  0  0  0  0  0  0
  1  2  1  0
  2  3  1  0
  3  4  1  0
  4  5  1  0
  5  6  1  0
  6  7  1  0
  7  8  1  0
  7  9  1  0
  2 10  1  0
 10 11  1  0
 11 12  1  0
 12 13  1  0
 13 14  1  6
 13 15  1  0
 15 16  1  0
 16 17  1  0
 17 18  2  0
 18 19  1  0
 19 20  1  0
 20 21  1  0
 21 22  1  0
 22 23  1  0
 22 24  1  0
 24 25  1  0
 24 26  1  0
 19 27  1  0
 27 28  1  1
 27 29  1  0
 29 30  1  0
 30 31  1  0
 31 32  1  1
  7  5  1  0
 31 10  1  0
 31 13  1  0
 27 15  1  0
 24 18  1  0
  1 33  1  0
  1 34  1  0
  1 35  1  0
  2 36  1  6
  3 37  1  0
  3 38  1  0
  4 39  1  0
  4 40  1  0
  5 41  1  6
  8 42  1  0
  8 43  1  0
  8 44  1  0
  9 45  1  0
  9 46  1  0
  9 47  1  0
 10 48  1  6
 11 49  1  0
 11 50  1  0
 12 51  1  0
 12 52  1  0
 14 53  1  0
 14 54  1  0
 14 55  1  0
 15 56  1  1
 16 57  1  0
 16 58  1  0
 17 59  1  0
 19 60  1  6
 20 61  1  0
 20 62  1  0
 21 63  1  0
 21 64  1  0
 22 65  1  6
 23 66  1  0
 25 67  1  0
 25 68  1  0
 25 69  1  0
 26 70  1  0
 26 71  1  0
 26 72  1  0
 28 73  1  0
 28 74  1  0
 28 75  1  0
 29 76  1  0
 29 77  1  0
 30 78  1  0
 30 79  1  0
 32 80  1  0
 32 81  1  0
 32 82  1  0
M  END
>  <meeko>  (14) 
{"is_sidechain": [false], "intermolecular_energy": 2.731, "internal_energy": -0.839}

$$$$
EPH_relaxed_0001_pdb2pqr_Repair_301_r2_0001_out
     RDKit          3D

 82 86  0  0  0  0  0  0  0  0999 V2000
    4.3820   16.8290    0.5460 C   0  0  0  0  0  0  0  0  0  0  0  0
    3.4020   17.0070   -0.6170 C   0  0  2  0  0  0  0  0  0  0  0  0
    2.8840   18.4550   -0.7230 C   0  0  0  0  0  0  0  0  0  0  0  0
    3.0140   19.0540   -2.1260 C   0  0  0  0  0  0  0  0  0  0  0  0
    1.9710   18.5150   -3.0580 C   0  0  2  0  0  0  0  0  0  0  0  0
    1.5590   19.4250   -4.0860 O   0  0  0  0  0  0  0  0  0  0  0  0
    0.5540   19.0530   -3.1290 C   0  0  0  0  0  0  0  0  0  0  0  0
    0.1020   20.1780   -2.2530 C   0  0  0  0  0  0  0  0  0  0  0  0
   -0.5180   18.1730   -3.6920 C   0  0  0  0  0  0  0  0  0  0  0  0
    2.2300   16.0450   -0.4600 C   0  0  1  0  0  0  0  0  0  0  0  0
    0.8600   16.7730   -0.4230 C   0  0  0  0  0  0  0  0  0  0  0  0
   -0.1600   15.8440   -1.1300 C   0  0  0  0  0  0  0  0  0  0  0  0
    0.5700   14.4860   -1.2540 C   0  0  1  0  0  0  0  0  0  0  0  0
    0.4040   13.8120    0.1440 C   0  0  0  0  0  0  0  0  0  0  0  0
    0.0900   13.5470   -2.4080 C   0  0  2  0  0  0  0  0  0  0  0  0
   -1.3720   13.0790   -2.3040 C   0  0  0  0  0  0  0  0  0  0  0  0
   -1.5820   11.8040   -1.5570 C   0  0  0  0  0  0  0  0  0  0  0  0
   -0.6210   10.9170   -1.2380 C   0  0  0  0  0  0  0  0  0  0  0  0
    0.8210   11.1100   -1.7230 C   0  0  1  0  0  0  0  0  0  0  0  0
    1.3600    9.7720   -2.2940 C   0  0  0  0  0  0  0  0  0  0  0  0
    1.2260    8.6180   -1.3060 C   0  0  0  0  0  0  0  0  0  0  0  0
   -0.2300    8.4190   -0.8930 C   0  0  2  0  0  0  0  0  0  0  0  0
   -0.9750    7.9740   -2.0300 O   0  0  0  0  0  0  0  0  0  0  0  0
   -0.8820    9.7040   -0.3100 C   0  0  0  0  0  0  0  0  0  0  0  0
   -0.2720   10.0150    1.0780 C   0  0  0  0  0  0  0  0  0  0  0  0
   -2.3870    9.4080   -0.0660 C   0  0  0  0  0  0  0  0  0  0  0  0
    1.0640   12.3350   -2.7050 C   0  0  1  0  0  0  0  0  0  0  0  0
    0.7940   11.8980   -4.1780 C   0  0  0  0  0  0  0  0  0  0  0  0
    2.5800   12.7560   -2.6380 C   0  0  0  0  0  0  0  0  0  0  0  0
    2.9690   13.7780   -1.5520 C   0  0  0  0  0  0  0  0  0  0  0  0
    2.0260   14.9850   -1.5720 C   0  0  2  0  0  0  0  0  0  0  0  0
    2.1880   15.6960   -2.9590 C   0  0  0  0  0  0  0  0  0  0  0  0
    3.8417   16.9271    1.4991 H   0  0  0  0  0  0  0  0  0  0  0  0
    4.8437   15.8323    0.4872 H   0  0  0  0  0  0  0  0  0  0  0  0
    5.1647   17.5997    0.4872 H   0  0  0  0  0  0  0  0  0  0  0  0
    3.9462   16.7822   -1.5462 H   0  0  0  0  0  0  0  0  0  0  0  0
    1.8216   18.4655   -0.4380 H   0  0  0  0  0  0  0  0  0  0  0  0
    3.5044   19.0682   -0.0529 H   0  0  0  0  0  0  0  0  0  0  0  0
    2.9020   20.1462   -2.0590 H   0  0  0  0  0  0  0  0  0  0  0  0
    4.0028   18.7827   -2.5243 H   0  0  0  0  0  0  0  0  0  0  0  0
    2.3684   17.4949   -2.9505 H   0  0  0  0  0  0  0  0  0  0  0  0
    0.2176   19.8902   -1.1976 H   0  0  0  0  0  0  0  0  0  0  0  0
    0.7114   21.0704   -2.4586 H   0  0  0  0  0  0  0  0  0  0  0  0
   -0.9554   20.4007   -2.4586 H   0  0  0  0  0  0  0  0  0  0  0  0
   -1.0821   17.7099   -2.8690 H   0  0  0  0  0  0  0  0  0  0  0  0
   -1.1997   18.7754   -4.3104 H   0  0  0  0  0  0  0  0  0  0  0  0
   -0.0600   17.3870   -4.3104 H   0  0  0  0  0  0  0  0  0  0  0  0
    2.5199   15.5536    0.4805 H   0  0  0  0  0  0  0  0  0  0  0  0
    0.5530   16.9495    0.6184 H   0  0  0  0  0  0  0  0  0  0  0  0
    0.9184   17.7499   -0.9253 H   0  0  0  0  0  0  0  0  0  0  0  0
   -1.0738   15.7400   -0.5265 H   0  0  0  0  0  0  0  0  0  0  0  0
   -0.4762   16.2384   -2.1070 H   0  0  0  0  0  0  0  0  0  0  0  0
    0.5871   14.5556    0.9336 H   0  0  0  0  0  0  0  0  0  0  0  0
   -0.6182   13.4175    0.2418 H   0  0  0  0  0  0  0  0  0  0  0  0
    1.1260   12.9879    0.2418 H   0  0  0  0  0  0  0  0  0  0  0  0
    0.1295   14.2116   -3.2837 H   0  0  0  0  0  0  0  0  0  0  0  0
   -1.9463   13.8684   -1.7970 H   0  0  0  0  0  0  0  0  0  0  0  0
   -1.7035   12.8857   -3.3349 H   0  0  0  0  0  0  0  0  0  0  0  0
   -2.6090   11.5693   -1.2403 H   0  0  0  0  0  0  0  0  0  0  0  0
    1.4038   11.3978   -0.8355 H   0  0  0  0  0  0  0  0  0  0  0  0
    0.7947    9.5241   -3.2045 H   0  0  0  0  0  0  0  0  0  0  0  0
    2.4308    9.9070   -2.5063 H   0  0  0  0  0  0  0  0  0  0  0  0
    1.5956    7.6956   -1.7778 H   0  0  0  0  0  0  0  0  0  0  0  0
    1.8162    8.8543   -0.4083 H   0  0  0  0  0  0  0  0  0  0  0  0
   -0.2457    7.6676   -0.0898 H   0  0  0  0  0  0  0  0  0  0  0  0
   -0.7040    7.0600   -2.2200 H   0  0  0  0  0  0  0  0  0  0  0  0
   -0.9561    9.6662    1.8656 H   0  0  0  0  0  0  0  0  0  0  0  0
    0.6948    9.4998    1.1774 H   0  0  0  0  0  0  0  0  0  0  0  0
   -0.1211   11.1001    1.1774 H   0  0  0  0  0  0  0  0  0  0  0  0
   -2.5824    9.3696    1.0158 H   0  0  0  0  0  0  0  0  0  0  0  0
   -2.9956   10.2037   -0.5205 H   0  0  0  0  0  0  0  0  0  0  0  0
   -2.6489    8.4411   -0.5205 H   0  0  0  0  0  0  0  0  0  0  0  0
    0.2158   10.9622   -4.1827 H   0  0  0  0  0  0  0  0  0  0  0  0
    0.2238   12.6839   -4.6950 H   0  0  0  0  0  0  0  0  0  0  0  0
    1.7520   11.7397   -4.6950 H   0  0  0  0  0  0  0  0  0  0  0  0
    3.1713   11.8448   -2.4648 H   0  0  0  0  0  0  0  0  0  0  0  0
    2.7815   13.2608   -3.5943 H   0  0  0  0  0  0  0  0  0  0  0  0
    2.9131   13.2940   -0.5658 H   0  0  0  0  0  0  0  0  0  0  0  0
    3.9923   14.1290   -1.7512 H   0  0  0  0  0  0  0  0  0  0  0  0
    2.4298   16.7574   -2.8009 H   0  0  0  0  0  0  0  0  0  0  0  0
    2.9996   15.2153   -3.5249 H   0  0  0  0  0  0  0  0  0  0  0  0
    1.2482   15.6144   -3.5249 H   0  0  0  0  0  0  0  0  0  0  0  0
  1  2  1  0
  2  3  1  0
  3  4  1  0
  4  5  1  0
  5  6  1  0
  6  7  1  0
  7  8  1  0
  7  9  1  0
  2 10  1  0
 10 11  1  0
 11 12  1  0
 12 13  1  0
 13 14  1  1
 13 15  1  0
 15 16  1  0
 16 17  1  0
 17 18  2  0
 18 19  1  0
 19 20  1  0
 20 21  1  0
 21 22  1  0
 22 23  1  0
 22 24  1  0
 24 25  1  0
 24 26  1  0
 19 27  1  0
 27 28  1  6
 27 29  1  0
 29 30  1  0
 30 31  1  0
 31 32  1  6
  7  5  1  0
 31 10  1  0
 31 13  1  0
 27 15  1  0
 24 18  1  0
  1 33  1  0
  1 34  1  0
  1 35  1  0
  2 36  1  6
  3 37  1  0
  3 38  1  0
  4 39  1  0
  4 40  1  0
  5 41  1  6
  8 42  1  0
  8 43  1  0
  8 44  1  0
  9 45  1  0
  9 46  1  0
  9 47  1  0
 10 48  1  1
 11 49  1  0
 11 50  1  0
 12 51  1  0
 12 52  1  0
 14 53  1  0
 14 54  1  0
 14 55  1  0
 15 56  1  6
 16 57  1  0
 16 58  1  0
 17 59  1  0
 19 60  1  1
 20 61  1  0
 20 62  1  0
 21 63  1  0
 21 64  1  0
 22 65  1  1
 23 66  1  0
 25 67  1  0
 25 68  1  0
 25 69  1  0
 26 70  1  0
 26 71  1  0
 26 72  1  0
 28 73  1  0
 28 74  1  0
 28 75  1  0
 29 76  1  0
 29 77  1  0
 30 78  1  0
 30 79  1  0
 32 80  1  0
 32 81  1  0
 32 82  1  0
M  END
>  <meeko>  (15) 
{"is_sidechain": [false], "intermolecular_energy": 2.731, "internal_energy": -0.839}

$$$$
EPH_relaxed_0001_pdb2pqr_Repair_301_r2_0001_out
     RDKit          3D

 82 86  0  0  0  0  0  0  0  0999 V2000
   -1.2830   10.4430    1.6250 C   0  0  0  0  0  0  0  0  0  0  0  0
   -1.9170   10.1450    0.2630 C   0  0  2  0  0  0  0  0  0  0  0  0
   -2.7160    8.8260    0.2710 C   0  0  0  0  0  0  0  0  0  0  0  0
   -4.0790    8.9290   -0.4190 C   0  0  0  0  0  0  0  0  0  0  0  0
   -4.5950    7.5830   -0.8290 C   0  0  2  0  0  0  0  0  0  0  0  0
   -4.7890    7.4200   -2.2400 O   0  0  0  0  0  0  0  0  0  0  0  0
   -5.9720    7.3620   -1.4270 C   0  0  0  0  0  0  0  0  0  0  0  0
   -6.9190    8.4990   -1.6470 C   0  0  0  0  0  0  0  0  0  0  0  0
   -6.5780    5.9960   -1.3420 C   0  0  0  0  0  0  0  0  0  0  0  0
   -0.8370   10.0940   -0.8120 C   0  0  1  0  0  0  0  0  0  0  0  0
   -1.2460    9.2190   -2.0270 C   0  0  0  0  0  0  0  0  0  0  0  0
   -0.6350    9.8870   -3.2850 C   0  0  0  0  0  0  0  0  0  0  0  0
    0.3700   10.9220   -2.7280 C   0  0  1  0  0  0  0  0  0  0  0  0
    1.6510   10.0970   -2.3900 C   0  0  0  0  0  0  0  0  0  0  0  0
    0.6950   12.1390   -3.6550 C   0  0  2  0  0  0  0  0  0  0  0  0
    1.3650   11.7780   -4.9930 C   0  0  0  0  0  0  0  0  0  0  0  0
    2.8580   11.7550   -4.9720 C   0  0  0  0  0  0  0  0  0  0  0  0
    3.6350   12.2850   -4.0100 C   0  0  0  0  0  0  0  0  0  0  0  0
    3.0210   13.0760   -2.8480 C   0  0  1  0  0  0  0  0  0  0  0  0
    3.8210   14.3880   -2.6350 C   0  0  0  0  0  0  0  0  0  0  0  0
    5.3140   14.1390   -2.4470 C   0  0  0  0  0  0  0  0  0  0  0  0
    5.9000   13.4020   -3.6480 C   0  0  2  0  0  0  0  0  0  0  0  0
    5.8450   14.2640   -4.7890 O   0  0  0  0  0  0  0  0  0  0  0  0
    5.1680   12.0680   -3.9650 C   0  0  0  0  0  0  0  0  0  0  0  0
    5.4800   11.0280   -2.8610 C   0  0  0  0  0  0  0  0  0  0  0  0
    5.7640   11.4970   -5.2800 C   0  0  0  0  0  0  0  0  0  0  0  0
    1.4530   13.3230   -2.9290 C   0  0  1  0  0  0  0  0  0  0  0  0
    1.1600   14.6120   -3.7560 C   0  0  0  0  0  0  0  0  0  0  0  0
    0.8990   13.5890   -1.4800 C   0  0  0  0  0  0  0  0  0  0  0  0
    0.4830   12.3540   -0.6580 C   0  0  0  0  0  0  0  0  0  0  0  0
   -0.4290   11.4340   -1.4740 C   0  0  2  0  0  0  0  0  0  0  0  0
   -1.7360   12.2300   -1.8100 C   0  0  0  0  0  0  0  0  0  0  0  0
   -1.9659   10.1220    2.4254 H   0  0  0  0  0  0  0  0  0  0  0  0
   -0.3318    9.8977    1.7139 H   0  0  0  0  0  0  0  0  0  0  0  0
   -1.0960   11.5233    1.7139 H   0  0  0  0  0  0  0  0  0  0  0  0
   -2.6243   10.9577    0.0413 H   0  0  0  0  0  0  0  0  0  0  0  0
   -2.1225    8.0571   -0.2452 H   0  0  0  0  0  0  0  0  0  0  0  0
   -2.9067    8.5715    1.3240 H   0  0  0  0  0  0  0  0  0  0  0  0
   -4.7966    9.3895    0.2759 H   0  0  0  0  0  0  0  0  0  0  0  0
   -3.9597    9.5414   -1.3249 H   0  0  0  0  0  0  0  0  0  0  0  0
   -4.0669    7.1000    0.0063 H   0  0  0  0  0  0  0  0  0  0  0  0
   -7.2487    8.8949   -0.6751 H   0  0  0  0  0  0  0  0  0  0  0  0
   -6.4122    9.2939   -2.2138 H   0  0  0  0  0  0  0  0  0  0  0  0
   -7.7924    8.1443   -2.2138 H   0  0  0  0  0  0  0  0  0  0  0  0
   -6.7026    5.7152   -0.2858 H   0  0  0  0  0  0  0  0  0  0  0  0
   -7.5594    5.9987   -1.8389 H   0  0  0  0  0  0  0  0  0  0  0  0
   -5.9174    5.2702   -1.8389 H   0  0  0  0  0  0  0  0  0  0  0  0
   -0.0010    9.6991   -0.2161 H   0  0  0  0  0  0  0  0  0  0  0  0
   -0.8505    8.1993   -1.9097 H   0  0  0  0  0  0  0  0  0  0  0  0
   -2.3404    9.1461   -2.1107 H   0  0  0  0  0  0  0  0  0  0  0  0
   -0.1195    9.1419   -3.9087 H   0  0  0  0  0  0  0  0  0  0  0  0
   -1.4005   10.3511   -3.9243 H   0  0  0  0  0  0  0  0  0  0  0  0
    1.7631   10.0248   -1.2981 H   0  0  0  0  0  0  0  0  0  0  0  0
    1.5601    9.0873   -2.8168 H   0  0  0  0  0  0  0  0  0  0  0  0
    2.5327   10.5975   -2.8168 H   0  0  0  0  0  0  0  0  0  0  0  0
   -0.3064   12.5137   -3.9134 H   0  0  0  0  0  0  0  0  0  0  0  0
    1.0137   10.7790   -5.2906 H   0  0  0  0  0  0  0  0  0  0  0  0
    1.0824   12.5724   -5.6994 H   0  0  0  0  0  0  0  0  0  0  0  0
    3.3656   11.2629   -5.8147 H   0  0  0  0  0  0  0  0  0  0  0  0
    3.1144   12.4337   -1.9599 H   0  0  0  0  0  0  0  0  0  0  0  0
    3.6792   15.0340   -3.5140 H   0  0  0  0  0  0  0  0  0  0  0  0
    3.4438   14.8637   -1.7177 H   0  0  0  0  0  0  0  0  0  0  0  0
    5.8281   15.1045   -2.3313 H   0  0  0  0  0  0  0  0  0  0  0  0
    5.4559   13.5176   -1.5505 H   0  0  0  0  0  0  0  0  0  0  0  0
    6.9384   13.1381   -3.3989 H   0  0  0  0  0  0  0  0  0  0  0  0
    5.8210   15.1800   -4.4650 H   0  0  0  0  0  0  0  0  0  0  0  0
    5.3414   11.4900   -1.8724 H   0  0  0  0  0  0  0  0  0  0  0  0
    4.7998   10.1695   -2.9632 H   0  0  0  0  0  0  0  0  0  0  0  0
    6.5204   10.6857   -2.9632 H   0  0  0  0  0  0  0  0  0  0  0  0
    6.5390   10.7545   -5.0392 H   0  0  0  0  0  0  0  0  0  0  0  0
    4.9663   11.0174   -5.8662 H   0  0  0  0  0  0  0  0  0  0  0  0
    6.2090   12.3145   -5.8662 H   0  0  0  0  0  0  0  0  0  0  0  0
    0.9692   15.4515   -3.0713 H   0  0  0  0  0  0  0  0  0  0  0  0
    2.0279   14.8460   -4.3901 H   0  0  0  0  0  0  0  0  0  0  0  0
    0.2763   14.4479   -4.3901 H   0  0  0  0  0  0  0  0  0  0  0  0
    1.6825   14.1159   -0.9157 H   0  0  0  0  0  0  0  0  0  0  0  0
   -0.0280   14.1627   -1.6270 H   0  0  0  0  0  0  0  0  0  0  0  0
    1.3849   11.7974   -0.3634 H   0  0  0  0  0  0  0  0  0  0  0  0
   -0.0675   12.6941    0.2316 H   0  0  0  0  0  0  0  0  0  0  0  0
   -2.2318   12.5320   -0.8757 H   0  0  0  0  0  0  0  0  0  0  0  0
   -1.4797   13.1255   -2.3951 H   0  0  0  0  0  0  0  0  0  0  0  0
   -2.4141   11.5914   -2.3951 H   0  0  0  0  0  0  0  0  0  0  0  0
  1  2  1  0
  2  3  1  0
  3  4  1  0
  4  5  1  0
  5  6  1  0
  6  7  1  0
  7  8  1  0
  7  9  1  0
  2 10  1  0
 10 11  1  0
 11 12  1  0
 12 13  1  0
 13 14  1  1
 13 15  1  0
 15 16  1  0
 16 17  1  0
 17 18  2  0
 18 19  1  0
 19 20  1  0
 20 21  1  0
 21 22  1  0
 22 23  1  0
 22 24  1  0
 24 25  1  0
 24 26  1  0
 19 27  1  0
 27 28  1  6
 27 29  1  0
 29 30  1  0
 30 31  1  0
 31 32  1  6
  7  5  1  0
 31 10  1  0
 31 13  1  0
 27 15  1  0
 24 18  1  0
  1 33  1  0
  1 34  1  0
  1 35  1  0
  2 36  1  6
  3 37  1  0
  3 38  1  0
  4 39  1  0
  4 40  1  0
  5 41  1  1
  8 42  1  0
  8 43  1  0
  8 44  1  0
  9 45  1  0
  9 46  1  0
  9 47  1  0
 10 48  1  1
 11 49  1  0
 11 50  1  0
 12 51  1  0
 12 52  1  0
 14 53  1  0
 14 54  1  0
 14 55  1  0
 15 56  1  6
 16 57  1  0
 16 58  1  0
 17 59  1  0
 19 60  1  1
 20 61  1  0
 20 62  1  0
 21 63  1  0
 21 64  1  0
 22 65  1  1
 23 66  1  0
 25 67  1  0
 25 68  1  0
 25 69  1  0
 26 70  1  0
 26 71  1  0
 26 72  1  0
 28 73  1  0
 28 74  1  0
 28 75  1  0
 29 76  1  0
 29 77  1  0
 30 78  1  0
 30 79  1  0
 32 80  1  0
 32 81  1  0
 32 82  1  0
M  END
>  <meeko>  (16) 
{"is_sidechain": [false], "intermolecular_energy": 2.731, "internal_energy": -0.839}

$$$$
EPH_relaxed_0001_pdb2pqr_Repair_301_r2_0001_out
     RDKit          3D

 82 86  0  0  0  0  0  0  0  0999 V2000
    4.2870   17.2120   -1.5900 C   0  0  0  0  0  0  0  0  0  0  0  0
    4.4920   15.6970   -1.5100 C   0  0  2  0  0  0  0  0  0  0  0  0
    4.9710   15.1040   -2.8500 C   0  0  0  0  0  0  0  0  0  0  0  0
    5.7290   13.7820   -2.7030 C   0  0  0  0  0  0  0  0  0  0  0  0
    6.0180   13.1570   -4.0340 C   0  0  2  0  0  0  0  0  0  0  0  0
    4.8550   12.8060   -4.7950 O   0  0  0  0  0  0  0  0  0  0  0  0
    5.6880   11.7150   -4.3700 C   0  0  0  0  0  0  0  0  0  0  0  0
    5.0400   10.8090   -3.3700 C   0  0  0  0  0  0  0  0  0  0  0  0
    6.4310   11.0530   -5.4880 C   0  0  0  0  0  0  0  0  0  0  0  0
    3.1980   15.0200   -1.0740 C   0  0  1  0  0  0  0  0  0  0  0  0
    2.1360   16.0310   -0.5660 C   0  0  0  0  0  0  0  0  0  0  0  0
    0.7520   15.4790   -0.9930 C   0  0  0  0  0  0  0  0  0  0  0  0
    1.0320   14.0230   -1.4340 C   0  0  1  0  0  0  0  0  0  0  0  0
    1.0880   13.2050   -0.1060 C   0  0  0  0  0  0  0  0  0  0  0  0
    0.0200   13.4020   -2.4520 C   0  0  2  0  0  0  0  0  0  0  0  0
   -1.4250   13.2750   -1.9400 C   0  0  0  0  0  0  0  0  0  0  0  0
   -1.7500   11.9870   -1.2600 C   0  0  0  0  0  0  0  0  0  0  0  0
   -1.0100   10.8640   -1.3170 C   0  0  0  0  0  0  0  0  0  0  0  0
    0.2400   10.7890   -2.2040 C   0  0  1  0  0  0  0  0  0  0  0  0
    0.2240    9.4630   -3.0090 C   0  0  0  0  0  0  0  0  0  0  0  0
    0.0690    8.2370   -2.1150 C   0  0  0  0  0  0  0  0  0  0  0  0
   -1.2140    8.3210   -1.2920 C   0  0  2  0  0  0  0  0  0  0  0  0
   -2.3360    8.2350   -2.1770 O   0  0  0  0  0  0  0  0  0  0  0  0
   -1.3150    9.6210   -0.4450 C   0  0  0  0  0  0  0  0  0  0  0  0
   -0.2830    9.5710    0.7090 C   0  0  0  0  0  0  0  0  0  0  0  0
   -2.7150    9.6470    0.2240 C   0  0  0  0  0  0  0  0  0  0  0  0
    0.5170   12.0570   -3.1210 C   0  0  1  0  0  0  0  0  0  0  0  0
   -0.2560   11.9180   -4.4680 C   0  0  0  0  0  0  0  0  0  0  0  0
    2.0470   12.1010   -3.4890 C   0  0  0  0  0  0  0  0  0  0  0  0
    2.9780   12.8320   -2.5030 C   0  0  0  0  0  0  0  0  0  0  0  0
    2.4210   14.2130   -2.1450 C   0  0  2  0  0  0  0  0  0  0  0  0
    2.3750   15.0660   -3.4580 C   0  0  0  0  0  0  0  0  0  0  0  0
    4.2306   17.6286   -0.5735 H   0  0  0  0  0  0  0  0  0  0  0  0
    5.1316   17.6684   -2.1270 H   0  0  0  0  0  0  0  0  0  0  0  0
    3.3515   17.4276   -2.1270 H   0  0  0  0  0  0  0  0  0  0  0  0
    5.2796   15.5086   -0.7656 H   0  0  0  0  0  0  0  0  0  0  0  0
    4.0912   14.9307   -3.4872 H   0  0  0  0  0  0  0  0  0  0  0  0
    5.6719   15.8289   -3.2896 H   0  0  0  0  0  0  0  0  0  0  0  0
    6.6803   13.9724   -2.1847 H   0  0  0  0  0  0  0  0  0  0  0  0
    5.0985   13.0877   -2.1281 H   0  0  0  0  0  0  0  0  0  0  0  0
    6.9417   13.7455   -4.1367 H   0  0  0  0  0  0  0  0  0  0  0  0
    5.2843   11.1506   -2.3533 H   0  0  0  0  0  0  0  0  0  0  0  0
    3.9492   10.8278   -3.5109 H   0  0  0  0  0  0  0  0  0  0  0  0
    5.4103    9.7828   -3.5109 H   0  0  0  0  0  0  0  0  0  0  0  0
    7.1914   10.3755   -5.0724 H   0  0  0  0  0  0  0  0  0  0  0  0
    5.7263   10.4779   -6.1067 H   0  0  0  0  0  0  0  0  0  0  0  0
    6.9213   11.8191   -6.1067 H   0  0  0  0  0  0  0  0  0  0  0  0
    3.5959   14.3404   -0.3060 H   0  0  0  0  0  0  0  0  0  0  0  0
    2.1880   16.1165    0.5294 H   0  0  0  0  0  0  0  0  0  0  0  0
    2.3095   17.0316   -0.9889 H   0  0  0  0  0  0  0  0  0  0  0  0
    0.0479   15.5003   -0.1481 H   0  0  0  0  0  0  0  0  0  0  0  0
    0.2936   16.0769   -1.7945 H   0  0  0  0  0  0  0  0  0  0  0  0
    1.0409   13.8932    0.7508 H   0  0  0  0  0  0  0  0  0  0  0  0
    0.2352   12.5113   -0.0664 H   0  0  0  0  0  0  0  0  0  0  0  0
    2.0273   12.6340   -0.0664 H   0  0  0  0  0  0  0  0  0  0  0  0
   -0.0109   14.1613   -3.2473 H   0  0  0  0  0  0  0  0  0  0  0  0
   -1.6052   14.0915   -1.2253 H   0  0  0  0  0  0  0  0  0  0  0  0
   -2.0683   13.3191   -2.8312 H   0  0  0  0  0  0  0  0  0  0  0  0
   -2.6723   11.9524   -0.6615 H   0  0  0  0  0  0  0  0  0  0  0  0
    1.1005   10.7996   -1.5189 H   0  0  0  0  0  0  0  0  0  0  0  0
   -0.6168    9.4910   -3.7177 H   0  0  0  0  0  0  0  0  0  0  0  0
    1.1895    9.3768   -3.5289 H   0  0  0  0  0  0  0  0  0  0  0  0
    0.0351    7.3350   -2.7436 H   0  0  0  0  0  0  0  0  0  0  0  0
    0.9258    8.1938   -1.4265 H   0  0  0  0  0  0  0  0  0  0  0  0
   -1.2044    7.4827   -0.5798 H   0  0  0  0  0  0  0  0  0  0  0  0
   -2.3990    7.3140   -2.4820 H   0  0  0  0  0  0  0  0  0  0  0  0
   -0.8105    9.5966    1.6740 H   0  0  0  0  0  0  0  0  0  0  0  0
    0.3037    8.6434    0.6363 H   0  0  0  0  0  0  0  0  0  0  0  0
    0.3906   10.4376    0.6363 H   0  0  0  0  0  0  0  0  0  0  0  0
   -2.5988    9.6448    1.3178 H   0  0  0  0  0  0  0  0  0  0  0  0
   -3.2526   10.5553   -0.0858 H   0  0  0  0  0  0  0  0  0  0  0  0
   -3.2860    8.7593   -0.0858 H   0  0  0  0  0  0  0  0  0  0  0  0
   -1.3196   11.7268   -4.2624 H   0  0  0  0  0  0  0  0  0  0  0  0
   -0.1558   12.8486   -5.0459 H   0  0  0  0  0  0  0  0  0  0  0  0
    0.1621   11.0806   -5.0459 H   0  0  0  0  0  0  0  0  0  0  0  0
    2.3994   11.0622   -3.5715 H   0  0  0  0  0  0  0  0  0  0  0  0
    2.1021   12.6820   -4.4214 H   0  0  0  0  0  0  0  0  0  0  0  0
    3.0720   12.2329   -1.5853 H   0  0  0  0  0  0  0  0  0  0  0  0
    3.9607   12.9628   -2.9796 H   0  0  0  0  0  0  0  0  0  0  0  0
    2.3174   16.1337   -3.1998 H   0  0  0  0  0  0  0  0  0  0  0  0
    3.2845   14.8800   -4.0481 H   0  0  0  0  0  0  0  0  0  0  0  0
    1.4908   14.7833   -4.0481 H   0  0  0  0  0  0  0  0  0  0  0  0
  1  2  1  0
  2  3  1  0
  3  4  1  0
  4  5  1  0
  5  6  1  0
  6  7  1  0
  7  8  1  0
  7  9  1  0
  2 10  1  0
 10 11  1  0
 11 12  1  0
 12 13  1  0
 13 14  1  1
 13 15  1  0
 15 16  1  0
 16 17  1  0
 17 18  2  0
 18 19  1  0
 19 20  1  0
 20 21  1  0
 21 22  1  0
 22 23  1  0
 22 24  1  0
 24 25  1  0
 24 26  1  0
 19 27  1  0
 27 28  1  6
 27 29  1  0
 29 30  1  0
 30 31  1  0
 31 32  1  6
  7  5  1  0
 31 10  1  0
 31 13  1  0
 27 15  1  0
 24 18  1  0
  1 33  1  0
  1 34  1  0
  1 35  1  0
  2 36  1  1
  3 37  1  0
  3 38  1  0
  4 39  1  0
  4 40  1  0
  5 41  1  6
  8 42  1  0
  8 43  1  0
  8 44  1  0
  9 45  1  0
  9 46  1  0
  9 47  1  0
 10 48  1  1
 11 49  1  0
 11 50  1  0
 12 51  1  0
 12 52  1  0
 14 53  1  0
 14 54  1  0
 14 55  1  0
 15 56  1  6
 16 57  1  0
 16 58  1  0
 17 59  1  0
 19 60  1  1
 20 61  1  0
 20 62  1  0
 21 63  1  0
 21 64  1  0
 22 65  1  1
 23 66  1  0
 25 67  1  0
 25 68  1  0
 25 69  1  0
 26 70  1  0
 26 71  1  0
 26 72  1  0
 28 73  1  0
 28 74  1  0
 28 75  1  0
 29 76  1  0
 29 77  1  0
 30 78  1  0
 30 79  1  0
 32 80  1  0
 32 81  1  0
 32 82  1  0
M  END
>  <meeko>  (17) 
{"is_sidechain": [false], "intermolecular_energy": 2.731, "internal_energy": -0.839}

$$$$
EPH_relaxed_0001_pdb2pqr_Repair_301_r2_0001_out
     RDKit          3D

 82 86  0  0  0  0  0  0  0  0999 V2000
    0.3020    9.9320    1.3190 C   0  0  0  0  0  0  0  0  0  0  0  0
    0.5300   10.2990   -0.1500 C   0  0  2  0  0  0  0  0  0  0  0  0
    1.0450    9.1020   -0.9740 C   0  0  0  0  0  0  0  0  0  0  0  0
    0.0490    8.6050   -2.0260 C   0  0  0  0  0  0  0  0  0  0  0  0
   -1.2620    8.2200   -1.4100 C   0  0  2  0  0  0  0  0  0  0  0  0
   -2.4030    8.4290   -2.2520 O   0  0  0  0  0  0  0  0  0  0  0  0
   -2.3450    9.2210   -1.0540 C   0  0  0  0  0  0  0  0  0  0  0  0
   -2.1660   10.6860   -1.3010 C   0  0  0  0  0  0  0  0  0  0  0  0
   -3.3650    8.8370   -0.0280 C   0  0  0  0  0  0  0  0  0  0  0  0
    1.5110   11.4610   -0.2490 C   0  0  1  0  0  0  0  0  0  0  0  0
    2.8330   11.0670   -0.9610 C   0  0  0  0  0  0  0  0  0  0  0  0
    3.2960   12.3110   -1.7640 C   0  0  0  0  0  0  0  0  0  0  0  0
    2.4200   13.4680   -1.2290 C   0  0  1  0  0  0  0  0  0  0  0  0
    3.1090   13.9120    0.0990 C   0  0  0  0  0  0  0  0  0  0  0  0
    2.2030   14.6750   -2.1990 C   0  0  2  0  0  0  0  0  0  0  0  0
    3.4820   15.4370   -2.5880 C   0  0  0  0  0  0  0  0  0  0  0  0
    3.8390   16.5800   -1.6960 C   0  0  0  0  0  0  0  0  0  0  0  0
    3.0190   17.1580   -0.7980 C   0  0  0  0  0  0  0  0  0  0  0  0
    1.5510   16.7270   -0.6810 C   0  0  1  0  0  0  0  0  0  0  0  0
    0.6450   17.9860   -0.6230 C   0  0  0  0  0  0  0  0  0  0  0  0
    1.0600   18.9540    0.4820 C   0  0  0  0  0  0  0  0  0  0  0  0
    2.5060   19.4040    0.2980 C   0  0  2  0  0  0  0  0  0  0  0  0
    2.5950   20.1940   -0.8920 O   0  0  0  0  0  0  0  0  0  0  0  0
    3.5110   18.2200    0.2150 C   0  0  0  0  0  0  0  0  0  0  0  0
    3.6360   17.5460    1.6040 C   0  0  0  0  0  0  0  0  0  0  0  0
    4.9110   18.8050   -0.1120 C   0  0  0  0  0  0  0  0  0  0  0  0
    1.0520   15.6660   -1.7540 C   0  0  1  0  0  0  0  0  0  0  0  0
    0.5710   16.3980   -3.0430 C   0  0  0  0  0  0  0  0  0  0  0  0
   -0.2020   14.9060   -1.1800 C   0  0  0  0  0  0  0  0  0  0  0  0
    0.0740   13.6530   -0.3290 C   0  0  0  0  0  0  0  0  0  0  0  0
    1.0540   12.7130   -1.0380 C   0  0  2  0  0  0  0  0  0  0  0  0
    0.3790   12.2320   -2.3670 C   0  0  0  0  0  0  0  0  0  0  0  0
    0.7724   10.6893    1.9634 H   0  0  0  0  0  0  0  0  0  0  0  0
   -0.7780    9.8955    1.5245 H   0  0  0  0  0  0  0  0  0  0  0  0
    0.7478    8.9476    1.5245 H   0  0  0  0  0  0  0  0  0  0  0  0
   -0.4414   10.5962   -0.5719 H   0  0  0  0  0  0  0  0  0  0  0  0
    1.9695    9.4055   -1.4870 H   0  0  0  0  0  0  0  0  0  0  0  0
    1.2088    8.2733   -0.2694 H   0  0  0  0  0  0  0  0  0  0  0  0
   -0.1235    9.4059   -2.7600 H   0  0  0  0  0  0  0  0  0  0  0  0
    0.4761    7.7135   -2.5084 H   0  0  0  0  0  0  0  0  0  0  0  0
   -0.7816    7.4165   -0.8324 H   0  0  0  0  0  0  0  0  0  0  0  0
   -2.1014   11.2149   -0.3387 H   0  0  0  0  0  0  0  0  0  0  0  0
   -1.2410   10.8511   -1.8730 H   0  0  0  0  0  0  0  0  0  0  0  0
   -3.0240   11.0689   -1.8730 H   0  0  0  0  0  0  0  0  0  0  0  0
   -2.9496    8.9934    0.9785 H   0  0  0  0  0  0  0  0  0  0  0  0
   -4.2639    9.4583   -0.1542 H   0  0  0  0  0  0  0  0  0  0  0  0
   -3.6311    7.7772   -0.1542 H   0  0  0  0  0  0  0  0  0  0  0  0
    1.6140   11.7067    0.8182 H   0  0  0  0  0  0  0  0  0  0  0  0
    3.5956   10.7902   -0.2181 H   0  0  0  0  0  0  0  0  0  0  0  0
    2.6823   10.2022   -1.6239 H   0  0  0  0  0  0  0  0  0  0  0  0
    4.3617   12.5152   -1.5836 H   0  0  0  0  0  0  0  0  0  0  0  0
    3.1861   12.1717   -2.8496 H   0  0  0  0  0  0  0  0  0  0  0  0
    2.5290   13.5383    0.9557 H   0  0  0  0  0  0  0  0  0  0  0  0
    4.1283   13.5004    0.1387 H   0  0  0  0  0  0  0  0  0  0  0  0
    3.1553   15.0103    0.1387 H   0  0  0  0  0  0  0  0  0  0  0  0
    1.8588   14.1796   -3.1188 H   0  0  0  0  0  0  0  0  0  0  0  0
    4.3192   14.7235   -2.5780 H   0  0  0  0  0  0  0  0  0  0  0  0
    3.2872   15.8732   -3.5788 H   0  0  0  0  0  0  0  0  0  0  0  0
    4.8586   16.9842   -1.7796 H   0  0  0  0  0  0  0  0  0  0  0  0
    1.4730   16.1663    0.2622 H   0  0  0  0  0  0  0  0  0  0  0  0
    0.7037   18.5078   -1.5896 H   0  0  0  0  0  0  0  0  0  0  0  0
   -0.3800   17.6507   -0.4063 H   0  0  0  0  0  0  0  0  0  0  0  0
    0.4024   19.8354    0.4542 H   0  0  0  0  0  0  0  0  0  0  0  0
    0.9730   18.4395    1.4504 H   0  0  0  0  0  0  0  0  0  0  0  0
    2.7843   19.9901    1.1863 H   0  0  0  0  0  0  0  0  0  0  0  0
    2.0110   19.7930   -1.5570 H   0  0  0  0  0  0  0  0  0  0  0  0
    3.4960   18.3009    2.3918 H   0  0  0  0  0  0  0  0  0  0  0  0
    2.8673   16.7655    1.7033 H   0  0  0  0  0  0  0  0  0  0  0  0
    4.6335   17.0930    1.7033 H   0  0  0  0  0  0  0  0  0  0  0  0
    5.4433   19.0274    0.8246 H   0  0  0  0  0  0  0  0  0  0  0  0
    5.4872   18.0724   -0.6962 H   0  0  0  0  0  0  0  0  0  0  0  0
    4.7946   19.7298   -0.6962 H   0  0  0  0  0  0  0  0  0  0  0  0
   -0.0132   17.2871   -2.7634 H   0  0  0  0  0  0  0  0  0  0  0  0
    1.4440   16.7050   -3.6377 H   0  0  0  0  0  0  0  0  0  0  0  0
   -0.0572   15.7186   -3.6377 H   0  0  0  0  0  0  0  0  0  0  0  0
   -0.7635   15.6157   -0.5547 H   0  0  0  0  0  0  0  0  0  0  0  0
   -0.7451   14.5394   -2.0635 H   0  0  0  0  0  0  0  0  0  0  0  0
    0.5045   13.9607    0.6353 H   0  0  0  0  0  0  0  0  0  0  0  0
   -0.8748   13.1184   -0.1743 H   0  0  0  0  0  0  0  0  0  0  0  0
   -0.4957   11.6087   -2.1293 H   0  0  0  0  0  0  0  0  0  0  0  0
    0.0581   13.1062   -2.9525 H   0  0  0  0  0  0  0  0  0  0  0  0
    1.1005   11.6433   -2.9525 H   0  0  0  0  0  0  0  0  0  0  0  0
  1  2  1  0
  2  3  1  0
  3  4  1  0
  4  5  1  0
  5  6  1  0
  6  7  1  0
  7  8  1  0
  7  9  1  0
  2 10  1  0
 10 11  1  0
 11 12  1  0
 12 13  1  0
 13 14  1  1
 13 15  1  0
 15 16  1  0
 16 17  1  0
 17 18  2  0
 18 19  1  0
 19 20  1  0
 20 21  1  0
 21 22  1  0
 22 23  1  0
 22 24  1  0
 24 25  1  0
 24 26  1  0
 19 27  1  0
 27 28  1  6
 27 29  1  0
 29 30  1  0
 30 31  1  0
 31 32  1  6
  7  5  1  0
 31 10  1  0
 31 13  1  0
 27 15  1  0
 24 18  1  0
  1 33  1  0
  1 34  1  0
  1 35  1  0
  2 36  1  6
  3 37  1  0
  3 38  1  0
  4 39  1  0
  4 40  1  0
  5 41  1  1
  8 42  1  0
  8 43  1  0
  8 44  1  0
  9 45  1  0
  9 46  1  0
  9 47  1  0
 10 48  1  1
 11 49  1  0
 11 50  1  0
 12 51  1  0
 12 52  1  0
 14 53  1  0
 14 54  1  0
 14 55  1  0
 15 56  1  6
 16 57  1  0
 16 58  1  0
 17 59  1  0
 19 60  1  1
 20 61  1  0
 20 62  1  0
 21 63  1  0
 21 64  1  0
 22 65  1  1
 23 66  1  0
 25 67  1  0
 25 68  1  0
 25 69  1  0
 26 70  1  0
 26 71  1  0
 26 72  1  0
 28 73  1  0
 28 74  1  0
 28 75  1  0
 29 76  1  0
 29 77  1  0
 30 78  1  0
 30 79  1  0
 32 80  1  0
 32 81  1  0
 32 82  1  0
M  END
>  <meeko>  (18) 
{"is_sidechain": [false], "intermolecular_energy": 2.731, "internal_energy": -0.839}

$$$$
EPH_relaxed_0001_pdb2pqr_Repair_301_r2_0001_out
     RDKit          3D

 82 86  0  0  0  0  0  0  0  0999 V2000
    2.8580   10.1250   -3.0060 C   0  0  0  0  0  0  0  0  0  0  0  0
    1.7010   10.0680   -2.0060 C   0  0  2  0  0  0  0  0  0  0  0  0
    0.6840    8.9630   -2.3560 C   0  0  0  0  0  0  0  0  0  0  0  0
   -0.0100    8.3550   -1.1330 C   0  0  0  0  0  0  0  0  0  0  0  0
   -1.4600    8.0830   -1.3970 C   0  0  2  0  0  0  0  0  0  0  0  0
   -2.1690    9.1640   -2.0160 O   0  0  0  0  0  0  0  0  0  0  0  0
   -2.5890    8.8070   -0.6890 C   0  0  0  0  0  0  0  0  0  0  0  0
   -2.3180    9.8600    0.3390 C   0  0  0  0  0  0  0  0  0  0  0  0
   -3.9360    8.1560   -0.6390 C   0  0  0  0  0  0  0  0  0  0  0  0
    1.0000   11.4200   -1.9450 C   0  0  1  0  0  0  0  0  0  0  0  0
   -0.2400   11.4090   -1.0110 C   0  0  0  0  0  0  0  0  0  0  0  0
   -0.3090   12.8060   -0.3420 C   0  0  0  0  0  0  0  0  0  0  0  0
    0.6820   13.6750   -1.1520 C   0  0  1  0  0  0  0  0  0  0  0  0
   -0.1110   14.1060   -2.4250 C   0  0  0  0  0  0  0  0  0  0  0  0
    1.2890   14.9070   -0.4060 C   0  0  2  0  0  0  0  0  0  0  0  0
    0.2690   15.9700    0.0370 C   0  0  0  0  0  0  0  0  0  0  0  0
    0.0070   17.0550   -0.9540 C   0  0  0  0  0  0  0  0  0  0  0  0
    0.7690   17.3340   -2.0280 C   0  0  0  0  0  0  0  0  0  0  0  0
    2.0820   16.5820   -2.2790 C   0  0  1  0  0  0  0  0  0  0  0  0
    3.1990   17.5960   -2.6400 C   0  0  0  0  0  0  0  0  0  0  0  0
    2.8130   18.5000   -3.8070 C   0  0  0  0  0  0  0  0  0  0  0  0
    1.5340   19.2740   -3.4970 C   0  0  2  0  0  0  0  0  0  0  0  0
    1.7990   20.1950   -2.4340 O   0  0  0  0  0  0  0  0  0  0  0  0
    0.3410   18.3570   -3.1090 C   0  0  0  0  0  0  0  0  0  0  0  0
   -0.1400   17.5740   -4.3560 C   0  0  0  0  0  0  0  0  0  0  0  0
   -0.8430   19.2670   -2.6850 C   0  0  0  0  0  0  0  0  0  0  0  0
    2.5270   15.5650   -1.1410 C   0  0  1  0  0  0  0  0  0  0  0  0
    3.3470   16.3150   -0.0470 C   0  0  0  0  0  0  0  0  0  0  0  0
    3.4940   14.4890   -1.7620 C   0  0  0  0  0  0  0  0  0  0  0  0
    2.8390   13.2380   -2.3780 C   0  0  0  0  0  0  0  0  0  0  0  0
    1.8200   12.6230   -1.4140 C   0  0  2  0  0  0  0  0  0  0  0  0
    2.5920   12.1590   -0.1320 C   0  0  0  0  0  0  0  0  0  0  0  0
    3.8121   10.1720   -2.4606 H   0  0  0  0  0  0  0  0  0  0  0  0
    2.8410    9.2249   -3.6381 H   0  0  0  0  0  0  0  0  0  0  0  0
    2.7526   11.0190   -3.6381 H   0  0  0  0  0  0  0  0  0  0  0  0
    2.1268    9.8246   -1.0214 H   0  0  0  0  0  0  0  0  0  0  0  0
   -0.0854    9.3946   -3.0131 H   0  0  0  0  0  0  0  0  0  0  0  0
    1.2453    8.1521   -2.8433 H   0  0  0  0  0  0  0  0  0  0  0  0
    0.4886    7.4095   -0.8735 H   0  0  0  0  0  0  0  0  0  0  0  0
    0.0585    9.0767   -0.3056 H   0  0  0  0  0  0  0  0  0  0  0  0
   -1.2546    7.0142   -1.5567 H   0  0  0  0  0  0  0  0  0  0  0  0
   -2.4292    9.4280    1.3445 H   0  0  0  0  0  0  0  0  0  0  0  0
   -1.2930   10.2392    0.2141 H   0  0  0  0  0  0  0  0  0  0  0  0
   -3.0326   10.6869    0.2141 H   0  0  0  0  0  0  0  0  0  0  0  0
   -4.2348    8.0116    0.4098 H   0  0  0  0  0  0  0  0  0  0  0  0
   -4.6724    8.7977   -1.1450 H   0  0  0  0  0  0  0  0  0  0  0  0
   -3.8907    7.1803   -1.1450 H   0  0  0  0  0  0  0  0  0  0  0  0
    0.7753   11.5592   -3.0128 H   0  0  0  0  0  0  0  0  0  0  0  0
   -1.1530   11.2236   -1.5958 H   0  0  0  0  0  0  0  0  0  0  0  0
   -0.1585   10.6133   -0.2559 H   0  0  0  0  0  0  0  0  0  0  0  0
   -1.3274   13.2170   -0.4050 H   0  0  0  0  0  0  0  0  0  0  0  0
   -0.0547   12.7697    0.7276 H   0  0  0  0  0  0  0  0  0  0  0  0
   -1.0407   14.6113   -2.1243 H   0  0  0  0  0  0  0  0  0  0  0  0
    0.5032   14.7944   -3.0240 H   0  0  0  0  0  0  0  0  0  0  0  0
   -0.3546   13.2161   -3.0240 H   0  0  0  0  0  0  0  0  0  0  0  0
    1.6711   14.4553    0.5213 H   0  0  0  0  0  0  0  0  0  0  0  0
   -0.6841   15.4611    0.2436 H   0  0  0  0  0  0  0  0  0  0  0  0
    0.7061   16.4622    0.9183 H   0  0  0  0  0  0  0  0  0  0  0  0
   -0.8842   17.6794   -0.7931 H   0  0  0  0  0  0  0  0  0  0  0  0
    1.8918   15.9158   -3.1334 H   0  0  0  0  0  0  0  0  0  0  0  0
    3.4033   18.2238   -1.7601 H   0  0  0  0  0  0  0  0  0  0  0  0
    4.0870   17.0214   -2.9420 H   0  0  0  0  0  0  0  0  0  0  0  0
    3.6289   19.2133   -3.9951 H   0  0  0  0  0  0  0  0  0  0  0  0
    2.6382   17.8733   -4.6940 H   0  0  0  0  0  0  0  0  0  0  0  0
    1.2372   19.8017   -4.4154 H   0  0  0  0  0  0  0  0  0  0  0  0
    1.2120   19.9650   -1.6930 H   0  0  0  0  0  0  0  0  0  0  0  0
   -0.6909   16.6773   -4.0359 H   0  0  0  0  0  0  0  0  0  0  0  0
   -0.8006   18.2145   -4.9588 H   0  0  0  0  0  0  0  0  0  0  0  0
    0.7299   17.2742   -4.9588 H   0  0  0  0  0  0  0  0  0  0  0  0
   -0.8981   19.3093   -1.5872 H   0  0  0  0  0  0  0  0  0  0  0  0
   -0.6876   20.2804   -3.0837 H   0  0  0  0  0  0  0  0  0  0  0  0
   -1.7823   18.8561   -3.0837 H   0  0  0  0  0  0  0  0  0  0  0  0
    3.0029   16.0003    0.9493 H   0  0  0  0  0  0  0  0  0  0  0  0
    4.4144   16.0741   -0.1593 H   0  0  0  0  0  0  0  0  0  0  0  0
    3.2021   17.3996   -0.1593 H   0  0  0  0  0  0  0  0  0  0  0  0
    4.0769   14.9830   -2.5533 H   0  0  0  0  0  0  0  0  0  0  0  0
    4.0888   14.1147   -0.9158 H   0  0  0  0  0  0  0  0  0  0  0  0
    2.3277   13.5212   -3.3099 H   0  0  0  0  0  0  0  0  0  0  0  0
    3.6238   12.4944   -2.5807 H   0  0  0  0  0  0  0  0  0  0  0  0
    2.0453   12.4876    0.7642 H   0  0  0  0  0  0  0  0  0  0  0  0
    2.6737   11.0620   -0.1301 H   0  0  0  0  0  0  0  0  0  0  0  0
    3.5990   12.6016   -0.1301 H   0  0  0  0  0  0  0  0  0  0  0  0
  1  2  1  0
  2  3  1  0
  3  4  1  0
  4  5  1  0
  5  6  1  0
  6  7  1  0
  7  8  1  0
  7  9  1  0
  2 10  1  0
 10 11  1  0
 11 12  1  0
 12 13  1  0
 13 14  1  6
 13 15  1  0
 15 16  1  0
 16 17  1  0
 17 18  2  0
 18 19  1  0
 19 20  1  0
 20 21  1  0
 21 22  1  0
 22 23  1  0
 22 24  1  0
 24 25  1  0
 24 26  1  0
 19 27  1  0
 27 28  1  1
 27 29  1  0
 29 30  1  0
 30 31  1  0
 31 32  1  1
  7  5  1  0
 31 10  1  0
 31 13  1  0
 27 15  1  0
 24 18  1  0
  1 33  1  0
  1 34  1  0
  1 35  1  0
  2 36  1  1
  3 37  1  0
  3 38  1  0
  4 39  1  0
  4 40  1  0
  5 41  1  6
  8 42  1  0
  8 43  1  0
  8 44  1  0
  9 45  1  0
  9 46  1  0
  9 47  1  0
 10 48  1  6
 11 49  1  0
 11 50  1  0
 12 51  1  0
 12 52  1  0
 14 53  1  0
 14 54  1  0
 14 55  1  0
 15 56  1  1
 16 57  1  0
 16 58  1  0
 17 59  1  0
 19 60  1  6
 20 61  1  0
 20 62  1  0
 21 63  1  0
 21 64  1  0
 22 65  1  6
 23 66  1  0
 25 67  1  0
 25 68  1  0
 25 69  1  0
 26 70  1  0
 26 71  1  0
 26 72  1  0
 28 73  1  0
 28 74  1  0
 28 75  1  0
 29 76  1  0
 29 77  1  0
 30 78  1  0
 30 79  1  0
 32 80  1  0
 32 81  1  0
 32 82  1  0
M  END
>  <meeko>  (19) 
{"is_sidechain": [false], "intermolecular_energy": 2.731, "internal_energy": -0.839}

$$$$
EPH_relaxed_0001_pdb2pqr_Repair_301_r2_0001_out
     RDKit          3D

 82 86  0  0  0  0  0  0  0  0999 V2000
   -5.2860    5.7520   -1.5010 C   0  0  0  0  0  0  0  0  0  0  0  0
   -5.4840    7.2480   -1.7580 C   0  0  2  0  0  0  0  0  0  0  0  0
   -5.1830    8.0980   -0.5080 C   0  0  0  0  0  0  0  0  0  0  0  0
   -4.1950    9.2400   -0.7630 C   0  0  0  0  0  0  0  0  0  0  0  0
   -2.8010    8.8690   -0.3550 C   0  0  2  0  0  0  0  0  0  0  0  0
   -2.2740    9.6350    0.7360 O   0  0  0  0  0  0  0  0  0  0  0  0
   -1.6070    9.7890   -0.5270 C   0  0  0  0  0  0  0  0  0  0  0  0
   -1.7510   11.1520   -1.1290 C   0  0  0  0  0  0  0  0  0  0  0  0
   -0.2380    9.1850   -0.5640 C   0  0  0  0  0  0  0  0  0  0  0  0
   -6.9090    7.5090   -2.2340 C   0  0  1  0  0  0  0  0  0  0  0  0
   -7.2210    6.8210   -3.5890 C   0  0  0  0  0  0  0  0  0  0  0  0
   -8.7080    6.3840   -3.5370 C   0  0  0  0  0  0  0  0  0  0  0  0
   -9.2870    7.1190   -2.3060 C   0  0  1  0  0  0  0  0  0  0  0  0
   -9.5990    8.5630   -2.8110 C   0  0  0  0  0  0  0  0  0  0  0  0
  -10.5350    6.4610   -1.6320 C   0  0  2  0  0  0  0  0  0  0  0  0
  -11.7850    6.3660   -2.5250 C   0  0  0  0  0  0  0  0  0  0  0  0
  -12.7120    7.5340   -2.4520 C   0  0  0  0  0  0  0  0  0  0  0  0
  -12.7000    8.4830   -1.4980 C   0  0  0  0  0  0  0  0  0  0  0  0
  -11.7480    8.3830   -0.2990 C   0  0  1  0  0  0  0  0  0  0  0  0
  -12.5280    8.6810    1.0080 C   0  0  0  0  0  0  0  0  0  0  0  0
  -13.2650   10.0160    0.9590 C   0  0  0  0  0  0  0  0  0  0  0  0
  -14.2450   10.0540   -0.2120 C   0  0  2  0  0  0  0  0  0  0  0  0
  -15.2880    9.1040    0.0280 O   0  0  0  0  0  0  0  0  0  0  0  0
  -13.5740    9.7590   -1.5820 C   0  0  0  0  0  0  0  0  0  0  0  0
  -12.6630   10.9450   -1.9830 C   0  0  0  0  0  0  0  0  0  0  0  0
  -14.6930    9.6890   -2.6560 C   0  0  0  0  0  0  0  0  0  0  0  0
  -10.8880    7.0500   -0.2060 C   0  0  1  0  0  0  0  0  0  0  0  0
  -11.6960    5.9460    0.5440 C   0  0  0  0  0  0  0  0  0  0  0  0
   -9.6030    7.3260    0.6610 C   0  0  0  0  0  0  0  0  0  0  0  0
   -8.3650    7.8620   -0.0820 C   0  0  0  0  0  0  0  0  0  0  0  0
   -8.0630    7.0190   -1.3240 C   0  0  2  0  0  0  0  0  0  0  0  0
   -7.7240    5.5660   -0.8460 C   0  0  0  0  0  0  0  0  0  0  0  0
   -5.2614    5.5663   -0.4171 H   0  0  0  0  0  0  0  0  0  0  0  0
   -6.1175    5.1895   -1.9506 H   0  0  0  0  0  0  0  0  0  0  0  0
   -4.3368    5.4252   -1.9506 H   0  0  0  0  0  0  0  0  0  0  0  0
   -4.7694    7.5464   -2.5392 H   0  0  0  0  0  0  0  0  0  0  0  0
   -6.1276    8.5304   -0.1464 H   0  0  0  0  0  0  0  0  0  0  0  0
   -4.7173    7.4292    0.2308 H   0  0  0  0  0  0  0  0  0  0  0  0
   -4.1997    9.4825   -1.8359 H   0  0  0  0  0  0  0  0  0  0  0  0
   -4.5092   10.1058   -0.1616 H   0  0  0  0  0  0  0  0  0  0  0  0
   -2.9709    7.8199   -0.6388 H   0  0  0  0  0  0  0  0  0  0  0  0
   -1.8301   11.9006   -0.3269 H   0  0  0  0  0  0  0  0  0  0  0  0
   -0.8712   11.3728   -1.7512 H   0  0  0  0  0  0  0  0  0  0  0  0
   -2.6575   11.1841   -1.7512 H   0  0  0  0  0  0  0  0  0  0  0  0
    0.1208    9.0267    0.4637 H   0  0  0  0  0  0  0  0  0  0  0  0
   -0.2769    8.2205   -1.0915 H   0  0  0  0  0  0  0  0  0  0  0  0
    0.4482    9.8639   -1.0915 H   0  0  0  0  0  0  0  0  0  0  0  0
   -6.8954    8.6085   -2.2649 H   0  0  0  0  0  0  0  0  0  0  0  0
   -7.0624    7.5269   -4.4176 H   0  0  0  0  0  0  0  0  0  0  0  0
   -6.5609    5.9567   -3.7543 H   0  0  0  0  0  0  0  0  0  0  0  0
   -9.2344    6.6877   -4.4539 H   0  0  0  0  0  0  0  0  0  0  0  0
   -8.8199    5.2923   -3.4621 H   0  0  0  0  0  0  0  0  0  0  0  0
   -9.7431    9.2300   -1.9483 H   0  0  0  0  0  0  0  0  0  0  0  0
   -8.7590    8.9279   -3.4203 H   0  0  0  0  0  0  0  0  0  0  0  0
  -10.5147    8.5485   -3.4203 H   0  0  0  0  0  0  0  0  0  0  0  0
  -10.1993    5.4252   -1.4758 H   0  0  0  0  0  0  0  0  0  0  0  0
  -11.4505    6.2624   -3.5678 H   0  0  0  0  0  0  0  0  0  0  0  0
  -12.3564    5.5010   -2.1571 H   0  0  0  0  0  0  0  0  0  0  0  0
  -13.4687    7.6267   -3.2450 H   0  0  0  0  0  0  0  0  0  0  0  0
  -10.9778    9.1523   -0.4574 H   0  0  0  0  0  0  0  0  0  0  0  0
  -13.2626    7.8786    1.1708 H   0  0  0  0  0  0  0  0  0  0  0  0
  -11.7968    8.7336    1.8281 H   0  0  0  0  0  0  0  0  0  0  0  0
  -13.8203   10.1557    1.8982 H   0  0  0  0  0  0  0  0  0  0  0  0
  -12.5268   10.8207    0.8262 H   0  0  0  0  0  0  0  0  0  0  0  0
  -14.6461   11.0765   -0.2732 H   0  0  0  0  0  0  0  0  0  0  0  0
  -15.0580    8.6130    0.8350 H   0  0  0  0  0  0  0  0  0  0  0  0
  -12.2836   11.4389   -1.0763 H   0  0  0  0  0  0  0  0  0  0  0  0
  -11.8168   10.5722   -2.5788 H   0  0  0  0  0  0  0  0  0  0  0  0
  -13.2413   11.6665   -2.5788 H   0  0  0  0  0  0  0  0  0  0  0  0
  -15.6733    9.6277   -2.1607 H   0  0  0  0  0  0  0  0  0  0  0  0
  -14.6553   10.5913   -3.2841 H   0  0  0  0  0  0  0  0  0  0  0  0
  -14.5432    8.7985   -3.2841 H   0  0  0  0  0  0  0  0  0  0  0  0
  -11.5914    6.0889    1.6297 H   0  0  0  0  0  0  0  0  0  0  0  0
  -12.7579    6.0158    0.2656 H   0  0  0  0  0  0  0  0  0  0  0  0
  -11.3083    4.9549    0.2656 H   0  0  0  0  0  0  0  0  0  0  0  0
   -9.8735    8.0631    1.4314 H   0  0  0  0  0  0  0  0  0  0  0  0
   -9.3015    6.3420    1.0494 H   0  0  0  0  0  0  0  0  0  0  0  0
   -8.5520    8.9015   -0.3895 H   0  0  0  0  0  0  0  0  0  0  0  0
   -7.5000    7.8104    0.5955 H   0  0  0  0  0  0  0  0  0  0  0  0
   -7.7166    5.5341    0.2535 H   0  0  0  0  0  0  0  0  0  0  0  0
   -8.4834    4.8678   -1.2280 H   0  0  0  0  0  0  0  0  0  0  0  0
   -6.7341    5.2759   -1.2280 H   0  0  0  0  0  0  0  0  0  0  0  0
  1  2  1  0
  2  3  1  0
  3  4  1  0
  4  5  1  0
  5  6  1  0
  6  7  1  0
  7  8  1  0
  7  9  1  0
  2 10  1  0
 10 11  1  0
 11 12  1  0
 12 13  1  0
 13 14  1  6
 13 15  1  0
 15 16  1  0
 16 17  1  0
 17 18  2  0
 18 19  1  0
 19 20  1  0
 20 21  1  0
 21 22  1  0
 22 23  1  0
 22 24  1  0
 24 25  1  0
 24 26  1  0
 19 27  1  0
 27 28  1  1
 27 29  1  0
 29 30  1  0
 30 31  1  0
 31 32  1  1
  7  5  1  0
 31 10  1  0
 31 13  1  0
 27 15  1  0
 24 18  1  0
  1 33  1  0
  1 34  1  0
  1 35  1  0
  2 36  1  6
  3 37  1  0
  3 38  1  0
  4 39  1  0
  4 40  1  0
  5 41  1  1
  8 42  1  0
  8 43  1  0
  8 44  1  0
  9 45  1  0
  9 46  1  0
  9 47  1  0
 10 48  1  6
 11 49  1  0
 11 50  1  0
 12 51  1  0
 12 52  1  0
 14 53  1  0
 14 54  1  0
 14 55  1  0
 15 56  1  1
 16 57  1  0
 16 58  1  0
 17 59  1  0
 19 60  1  6
 20 61  1  0
 20 62  1  0
 21 63  1  0
 21 64  1  0
 22 65  1  6
 23 66  1  0
 25 67  1  0
 25 68  1  0
 25 69  1  0
 26 70  1  0
 26 71  1  0
 26 72  1  0
 28 73  1  0
 28 74  1  0
 28 75  1  0
 29 76  1  0
 29 77  1  0
 30 78  1  0
 30 79  1  0
 32 80  1  0
 32 81  1  0
 32 82  1  0
M  END
>  <meeko>  (20) 
{"is_sidechain": [false], "intermolecular_energy": 2.731, "internal_energy": -0.839}

$$$$
