EPH_relaxed_0001_pdb2pqr_Repair_260_r2_0001_out
     RDKit          3D

 82 86  0  0  0  0  0  0  0  0999 V2000
   -5.2880    6.0680   -1.1360 C   0  0  0  0  0  0  0  0  0  0  0  0
   -5.4370    7.4510   -1.7760 C   0  0  2  0  0  0  0  0  0  0  0  0
   -5.0260    8.5840   -0.8140 C   0  0  0  0  0  0  0  0  0  0  0  0
   -3.7000    8.3270   -0.0920 C   0  0  0  0  0  0  0  0  0  0  0  0
   -2.9010    9.5850    0.0620 C   0  0  2  0  0  0  0  0  0  0  0  0
   -2.5060   10.1990   -1.1720 O   0  0  0  0  0  0  0  0  0  0  0  0
   -1.4430    9.7050   -0.3410 C   0  0  0  0  0  0  0  0  0  0  0  0
   -0.6990    8.5470   -0.9290 C   0  0  0  0  0  0  0  0  0  0  0  0
   -0.6140   10.7840    0.2830 C   0  0  0  0  0  0  0  0  0  0  0  0
   -6.8740    7.6570   -2.2400 C   0  0  1  0  0  0  0  0  0  0  0  0
   -7.1720    6.9560   -3.5920 C   0  0  0  0  0  0  0  0  0  0  0  0
   -8.6410    6.4620   -3.5250 C   0  0  0  0  0  0  0  0  0  0  0  0
   -9.2370    7.1780   -2.2900 C   0  0  1  0  0  0  0  0  0  0  0  0
   -9.6070    8.6070   -2.7950 C   0  0  0  0  0  0  0  0  0  0  0  0
  -10.4530    6.4740   -1.6050 C   0  0  2  0  0  0  0  0  0  0  0  0
  -11.7060    6.3300   -2.4870 C   0  0  0  0  0  0  0  0  0  0  0  0
  -12.6750    7.4630   -2.4070 C   0  0  0  0  0  0  0  0  0  0  0  0
  -12.6920    8.4130   -1.4540 C   0  0  0  0  0  0  0  0  0  0  0  0
  -11.7260    8.3510   -0.2630 C   0  0  1  0  0  0  0  0  0  0  0  0
  -12.5050    8.6210    1.0500 C   0  0  0  0  0  0  0  0  0  0  0  0
  -13.2920    9.9270    1.0050 C   0  0  0  0  0  0  0  0  0  0  0  0
  -14.2830    9.9270   -0.1560 C   0  0  2  0  0  0  0  0  0  0  0  0
  -15.2870    8.9390    0.0940 O   0  0  0  0  0  0  0  0  0  0  0  0
  -13.6130    9.6550   -1.5320 C   0  0  0  0  0  0  0  0  0  0  0  0
  -12.7510   10.8750   -1.9420 C   0  0  0  0  0  0  0  0  0  0  0  0
  -14.7380    9.5410   -2.5960 C   0  0  0  0  0  0  0  0  0  0  0  0
  -10.8150    7.0510   -0.1760 C   0  0  1  0  0  0  0  0  0  0  0  0
  -11.5740    5.9200    0.5820 C   0  0  0  0  0  0  0  0  0  0  0  0
   -9.5340    7.3770    0.6790 C   0  0  0  0  0  0  0  0  0  0  0  0
   -8.3240    7.9590   -0.0760 C   0  0  0  0  0  0  0  0  0  0  0  0
   -8.0010    7.1250   -1.3200 C   0  0  2  0  0  0  0  0  0  0  0  0
   -7.6030    5.6870   -0.8420 C   0  0  0  0  0  0  0  0  0  0  0  0
   -5.2988    6.1678   -0.0406 H   0  0  0  0  0  0  0  0  0  0  0  0
   -6.1221    5.4251   -1.4538 H   0  0  0  0  0  0  0  0  0  0  0  0
   -4.3361    5.6175   -1.4538 H   0  0  0  0  0  0  0  0  0  0  0  0
   -4.7580    7.4901   -2.6406 H   0  0  0  0  0  0  0  0  0  0  0  0
   -4.9316    9.5144   -1.3932 H   0  0  0  0  0  0  0  0  0  0  0  0
   -5.8060    8.6486   -0.0410 H   0  0  0  0  0  0  0  0  0  0  0  0
   -3.9112    7.9143    0.9055 H   0  0  0  0  0  0  0  0  0  0  0  0
   -3.1125    7.6188   -0.6948 H   0  0  0  0  0  0  0  0  0  0  0  0
   -3.4327    9.8364    0.9916 H   0  0  0  0  0  0  0  0  0  0  0  0
   -0.2965    7.9205   -0.1193 H   0  0  0  0  0  0  0  0  0  0  0  0
   -1.3825    7.9492   -1.5499 H   0  0  0  0  0  0  0  0  0  0  0  0
    0.1288    8.9202   -1.5499 H   0  0  0  0  0  0  0  0  0  0  0  0
   -0.6743   10.7055    1.3785 H   0  0  0  0  0  0  0  0  0  0  0  0
    0.4330   10.6725   -0.0355 H   0  0  0  0  0  0  0  0  0  0  0  0
   -0.9915   11.7669   -0.0355 H   0  0  0  0  0  0  0  0  0  0  0  0
   -6.9015    8.7562   -2.2720 H   0  0  0  0  0  0  0  0  0  0  0  0
   -7.0487    7.6666   -4.4225 H   0  0  0  0  0  0  0  0  0  0  0  0
   -6.4806    6.1178   -3.7634 H   0  0  0  0  0  0  0  0  0  0  0  0
   -9.1871    6.7425   -4.4377 H   0  0  0  0  0  0  0  0  0  0  0  0
   -8.7099    5.3670   -3.4462 H   0  0  0  0  0  0  0  0  0  0  0  0
   -9.7781    9.2678   -1.9324 H   0  0  0  0  0  0  0  0  0  0  0  0
   -8.7824    9.0055   -3.4043 H   0  0  0  0  0  0  0  0  0  0  0  0
  -10.5214    8.5552   -3.4043 H   0  0  0  0  0  0  0  0  0  0  0  0
  -10.0775    5.4516   -1.4511 H   0  0  0  0  0  0  0  0  0  0  0  0
  -11.3770    6.2371   -3.5325 H   0  0  0  0  0  0  0  0  0  0  0  0
  -12.2412    5.4445   -2.1136 H   0  0  0  0  0  0  0  0  0  0  0  0
  -13.4405    7.5267   -3.1944 H   0  0  0  0  0  0  0  0  0  0  0  0
  -10.9870    9.1486   -0.4291 H   0  0  0  0  0  0  0  0  0  0  0  0
  -13.2074    7.7917    1.2202 H   0  0  0  0  0  0  0  0  0  0  0  0
  -11.7696    8.7021    1.8640 H   0  0  0  0  0  0  0  0  0  0  0  0
  -13.8435   10.0477    1.9491 H   0  0  0  0  0  0  0  0  0  0  0  0
  -12.5854   10.7580    0.8634 H   0  0  0  0  0  0  0  0  0  0  0  0
  -14.7230   10.9335   -0.2143 H   0  0  0  0  0  0  0  0  0  0  0  0
  -15.9390    9.3290    0.7010 H   0  0  0  0  0  0  0  0  0  0  0  0
  -12.3886   11.3880   -1.0389 H   0  0  0  0  0  0  0  0  0  0  0  0
  -11.8926   10.5334   -2.5391 H   0  0  0  0  0  0  0  0  0  0  0  0
  -13.3597   11.5700   -2.5391 H   0  0  0  0  0  0  0  0  0  0  0  0
  -15.7107    9.4424   -2.0920 H   0  0  0  0  0  0  0  0  0  0  0  0
  -14.7407   10.4435   -3.2249 H   0  0  0  0  0  0  0  0  0  0  0  0
  -14.5596    8.6563   -3.2249 H   0  0  0  0  0  0  0  0  0  0  0  0
  -11.4715    6.0727    1.6665 H   0  0  0  0  0  0  0  0  0  0  0  0
  -12.6388    5.9451    0.3072 H   0  0  0  0  0  0  0  0  0  0  0  0
  -11.1473    4.9441    0.3072 H   0  0  0  0  0  0  0  0  0  0  0  0
   -9.8256    8.1043    1.4511 H   0  0  0  0  0  0  0  0  0  0  0  0
   -9.1916    6.4058    1.0658 H   0  0  0  0  0  0  0  0  0  0  0  0
   -8.5536    8.9899   -0.3835 H   0  0  0  0  0  0  0  0  0  0  0  0
   -7.4515    7.9423    0.5937 H   0  0  0  0  0  0  0  0  0  0  0  0
   -7.5943    5.6554    0.2575 H   0  0  0  0  0  0  0  0  0  0  0  0
   -8.3333    4.9584   -1.2240 H   0  0  0  0  0  0  0  0  0  0  0  0
   -6.6021    5.4376   -1.2240 H   0  0  0  0  0  0  0  0  0  0  0  0
  1  2  1  0
  2  3  1  0
  3  4  1  0
  4  5  1  0
  5  6  1  0
  6  7  1  0
  7  8  1  0
  7  9  1  0
  2 10  1  0
 10 11  1  0
 11 12  1  0
 12 13  1  0
 13 14  1  6
 13 15  1  0
 15 16  1  0
 16 17  1  0
 17 18  2  0
 18 19  1  0
 19 20  1  0
 20 21  1  0
 21 22  1  0
 22 23  1  0
 22 24  1  0
 24 25  1  0
 24 26  1  0
 19 27  1  0
 27 28  1  1
 27 29  1  0
 29 30  1  0
 30 31  1  0
 31 32  1  1
  7  5  1  0
 31 10  1  0
 31 13  1  0
 27 15  1  0
 24 18  1  0
  1 33  1  0
  1 34  1  0
  1 35  1  0
  2 36  1  6
  3 37  1  0
  3 38  1  0
  4 39  1  0
  4 40  1  0
  5 41  1  1
  8 42  1  0
  8 43  1  0
  8 44  1  0
  9 45  1  0
  9 46  1  0
  9 47  1  0
 10 48  1  6
 11 49  1  0
 11 50  1  0
 12 51  1  0
 12 52  1  0
 14 53  1  0
 14 54  1  0
 14 55  1  0
 15 56  1  1
 16 57  1  0
 16 58  1  0
 17 59  1  0
 19 60  1  6
 20 61  1  0
 20 62  1  0
 21 63  1  0
 21 64  1  0
 22 65  1  6
 23 66  1  0
 25 67  1  0
 25 68  1  0
 25 69  1  0
 26 70  1  0
 26 71  1  0
 26 72  1  0
 28 73  1  0
 28 74  1  0
 28 75  1  0
 29 76  1  0
 29 77  1  0
 30 78  1  0
 30 79  1  0
 32 80  1  0
 32 81  1  0
 32 82  1  0
M  END
>  <meeko>  (1) 
{"is_sidechain": [false], "intermolecular_energy": 2.731, "internal_energy": -0.839}

$$$$
EPH_relaxed_0001_pdb2pqr_Repair_260_r2_0001_out
     RDKit          3D

 82 86  0  0  0  0  0  0  0  0999 V2000
   -5.0190    8.5350   -0.5280 C   0  0  0  0  0  0  0  0  0  0  0  0
   -5.3560    7.4480   -1.5520 C   0  0  2  0  0  0  0  0  0  0  0  0
   -4.3580    7.4260   -2.7270 C   0  0  0  0  0  0  0  0  0  0  0  0
   -2.9380    7.0230   -2.3200 C   0  0  0  0  0  0  0  0  0  0  0  0
   -1.9270    8.0430   -2.7500 C   0  0  2  0  0  0  0  0  0  0  0  0
   -0.5920    7.7930   -2.2920 O   0  0  0  0  0  0  0  0  0  0  0  0
   -1.2230    8.9810   -1.7880 C   0  0  0  0  0  0  0  0  0  0  0  0
   -1.5030    8.9450   -0.3180 C   0  0  0  0  0  0  0  0  0  0  0  0
   -0.6370   10.2490   -2.3250 C   0  0  0  0  0  0  0  0  0  0  0  0
   -6.7730    7.6500   -2.0770 C   0  0  1  0  0  0  0  0  0  0  0  0
   -7.0090    6.9510   -3.4430 C   0  0  0  0  0  0  0  0  0  0  0  0
   -8.4770    6.4520   -3.4420 C   0  0  0  0  0  0  0  0  0  0  0  0
   -9.1290    7.1600   -2.2310 C   0  0  1  0  0  0  0  0  0  0  0  0
   -9.4840    8.5900   -2.7470 C   0  0  0  0  0  0  0  0  0  0  0  0
  -10.3710    6.4490   -1.6020 C   0  0  2  0  0  0  0  0  0  0  0  0
  -11.5840    6.3030   -2.5370 C   0  0  0  0  0  0  0  0  0  0  0  0
  -12.5610    7.4310   -2.4960 C   0  0  0  0  0  0  0  0  0  0  0  0
  -12.6220    8.3780   -1.5420 C   0  0  0  0  0  0  0  0  0  0  0  0
  -11.7090    8.3160   -0.3110 C   0  0  1  0  0  0  0  0  0  0  0  0
  -12.5460    8.5790    0.9690 C   0  0  0  0  0  0  0  0  0  0  0  0
  -13.3360    9.8820    0.8940 C   0  0  0  0  0  0  0  0  0  0  0  0
  -14.2750    9.8810   -0.3100 C   0  0  2  0  0  0  0  0  0  0  0  0
  -15.2850    8.8880   -0.1060 O   0  0  0  0  0  0  0  0  0  0  0  0
  -13.5450    9.6160   -1.6560 C   0  0  0  0  0  0  0  0  0  0  0  0
  -12.6720   10.8410   -2.0250 C   0  0  0  0  0  0  0  0  0  0  0  0
  -14.6220    9.5010   -2.7690 C   0  0  0  0  0  0  0  0  0  0  0  0
  -10.7970    7.0200   -0.1880 C   0  0  1  0  0  0  0  0  0  0  0  0
  -11.5840    5.8830    0.5330 C   0  0  0  0  0  0  0  0  0  0  0  0
   -9.5560    7.3490    0.7230 C   0  0  0  0  0  0  0  0  0  0  0  0
   -8.3170    7.9380    0.0230 C   0  0  0  0  0  0  0  0  0  0  0  0
   -7.9370    7.1100   -1.2080 C   0  0  2  0  0  0  0  0  0  0  0  0
   -7.5540    5.6720   -0.7180 C   0  0  0  0  0  0  0  0  0  0  0  0
   -5.1437    8.1328    0.4882 H   0  0  0  0  0  0  0  0  0  0  0  0
   -3.9777    8.8607   -0.6682 H   0  0  0  0  0  0  0  0  0  0  0  0
   -5.6934    9.3926   -0.6682 H   0  0  0  0  0  0  0  0  0  0  0  0
   -5.2833    6.4775   -1.0393 H   0  0  0  0  0  0  0  0  0  0  0  0
   -4.7210    6.7087   -3.4778 H   0  0  0  0  0  0  0  0  0  0  0  0
   -4.3012    8.4518   -3.1202 H   0  0  0  0  0  0  0  0  0  0  0  0
   -2.8967    6.9196   -1.2257 H   0  0  0  0  0  0  0  0  0  0  0  0
   -2.6966    6.0711   -2.8155 H   0  0  0  0  0  0  0  0  0  0  0  0
   -2.4724    8.2218   -3.6884 H   0  0  0  0  0  0  0  0  0  0  0  0
   -0.5614    9.0661    0.2377 H   0  0  0  0  0  0  0  0  0  0  0  0
   -2.1912    9.7621   -0.0557 H   0  0  0  0  0  0  0  0  0  0  0  0
   -1.9621    7.9804   -0.0557 H   0  0  0  0  0  0  0  0  0  0  0  0
   -0.3373   10.8975   -1.4885 H   0  0  0  0  0  0  0  0  0  0  0  0
    0.2438   10.0140   -2.9406 H   0  0  0  0  0  0  0  0  0  0  0  0
   -1.3868   10.7676   -2.9406 H   0  0  0  0  0  0  0  0  0  0  0  0
   -6.8041    8.7492   -2.1068 H   0  0  0  0  0  0  0  0  0  0  0  0
   -6.8518    7.6641   -4.2657 H   0  0  0  0  0  0  0  0  0  0  0  0
   -6.3078    6.1156   -3.5857 H   0  0  0  0  0  0  0  0  0  0  0  0
   -8.9839    6.7349   -4.3763 H   0  0  0  0  0  0  0  0  0  0  0  0
   -8.5451    5.3564   -3.3710 H   0  0  0  0  0  0  0  0  0  0  0  0
   -9.6500    9.2585   -1.8894 H   0  0  0  0  0  0  0  0  0  0  0  0
   -8.6544    8.9759   -3.3576 H   0  0  0  0  0  0  0  0  0  0  0  0
  -10.3978    8.5431   -3.3576 H   0  0  0  0  0  0  0  0  0  0  0  0
   -9.9982    5.4275   -1.4361 H   0  0  0  0  0  0  0  0  0  0  0  0
  -11.2099    6.2149   -3.5677 H   0  0  0  0  0  0  0  0  0  0  0  0
  -12.1309    5.4143   -2.1889 H   0  0  0  0  0  0  0  0  0  0  0  0
  -13.2929    7.4933   -3.3148 H   0  0  0  0  0  0  0  0  0  0  0  0
  -10.9669    9.1172   -0.4429 H   0  0  0  0  0  0  0  0  0  0  0  0
  -13.2515    7.7463    1.1062 H   0  0  0  0  0  0  0  0  0  0  0  0
  -11.8468    8.6607    1.8142 H   0  0  0  0  0  0  0  0  0  0  0  0
  -13.9291    9.9971    1.8132 H   0  0  0  0  0  0  0  0  0  0  0  0
  -12.6278   10.7168    0.7868 H   0  0  0  0  0  0  0  0  0  0  0  0
  -14.7159   10.8860   -0.3855 H   0  0  0  0  0  0  0  0  0  0  0  0
  -15.0440    8.1110   -0.6380 H   0  0  0  0  0  0  0  0  0  0  0  0
  -12.3219   11.3322   -1.1051 H   0  0  0  0  0  0  0  0  0  0  0  0
  -11.8056   10.5092   -2.6160 H   0  0  0  0  0  0  0  0  0  0  0  0
  -13.2684   11.5516   -2.6160 H   0  0  0  0  0  0  0  0  0  0  0  0
  -15.6153    9.3949   -2.3085 H   0  0  0  0  0  0  0  0  0  0  0  0
  -14.6021   10.4064   -3.3934 H   0  0  0  0  0  0  0  0  0  0  0  0
  -14.4114    8.6202   -3.3934 H   0  0  0  0  0  0  0  0  0  0  0  0
  -11.4961    6.0099    1.6221 H   0  0  0  0  0  0  0  0  0  0  0  0
  -12.6440    5.9297    0.2427 H   0  0  0  0  0  0  0  0  0  0  0  0
  -11.1670    4.9074    0.2427 H   0  0  0  0  0  0  0  0  0  0  0  0
   -9.8841    8.0729    1.4834 H   0  0  0  0  0  0  0  0  0  0  0  0
   -9.2267    6.3783    1.1221 H   0  0  0  0  0  0  0  0  0  0  0  0
   -8.5372    8.9690   -0.2909 H   0  0  0  0  0  0  0  0  0  0  0  0
   -7.4743    7.9222    0.7299 H   0  0  0  0  0  0  0  0  0  0  0  0
   -7.5478    5.6489    0.3817 H   0  0  0  0  0  0  0  0  0  0  0  0
   -8.2905    4.9476   -1.0959 H   0  0  0  0  0  0  0  0  0  0  0  0
   -6.5547    5.4099   -1.0959 H   0  0  0  0  0  0  0  0  0  0  0  0
  1  2  1  0
  2  3  1  0
  3  4  1  0
  4  5  1  0
  5  6  1  0
  6  7  1  0
  7  8  1  0
  7  9  1  0
  2 10  1  0
 10 11  1  0
 11 12  1  0
 12 13  1  0
 13 14  1  6
 13 15  1  0
 15 16  1  0
 16 17  1  0
 17 18  2  0
 18 19  1  0
 19 20  1  0
 20 21  1  0
 21 22  1  0
 22 23  1  0
 22 24  1  0
 24 25  1  0
 24 26  1  0
 19 27  1  0
 27 28  1  1
 27 29  1  0
 29 30  1  0
 30 31  1  0
 31 32  1  1
  7  5  1  0
 31 10  1  0
 31 13  1  0
 27 15  1  0
 24 18  1  0
  1 33  1  0
  1 34  1  0
  1 35  1  0
  2 36  1  1
  3 37  1  0
  3 38  1  0
  4 39  1  0
  4 40  1  0
  5 41  1  6
  8 42  1  0
  8 43  1  0
  8 44  1  0
  9 45  1  0
  9 46  1  0
  9 47  1  0
 10 48  1  6
 11 49  1  0
 11 50  1  0
 12 51  1  0
 12 52  1  0
 14 53  1  0
 14 54  1  0
 14 55  1  0
 15 56  1  1
 16 57  1  0
 16 58  1  0
 17 59  1  0
 19 60  1  6
 20 61  1  0
 20 62  1  0
 21 63  1  0
 21 64  1  0
 22 65  1  6
 23 66  1  0
 25 67  1  0
 25 68  1  0
 25 69  1  0
 26 70  1  0
 26 71  1  0
 26 72  1  0
 28 73  1  0
 28 74  1  0
 28 75  1  0
 29 76  1  0
 29 77  1  0
 30 78  1  0
 30 79  1  0
 32 80  1  0
 32 81  1  0
 32 82  1  0
M  END
>  <meeko>  (2) 
{"is_sidechain": [false], "intermolecular_energy": 2.731, "internal_energy": -0.839}

$$$$
EPH_relaxed_0001_pdb2pqr_Repair_260_r2_0001_out
     RDKit          3D

 82 86  0  0  0  0  0  0  0  0999 V2000
  -15.2190    8.7890    0.4430 C   0  0  0  0  0  0  0  0  0  0  0  0
  -14.3250    9.0970   -0.7610 C   0  0  2  0  0  0  0  0  0  0  0  0
  -14.6250    8.1740   -1.9590 C   0  0  0  0  0  0  0  0  0  0  0  0
  -14.6020    8.8920   -3.3110 C   0  0  0  0  0  0  0  0  0  0  0  0
  -15.2680   10.2330   -3.2380 C   0  0  2  0  0  0  0  0  0  0  0  0
  -14.9170   11.1340   -4.2970 O   0  0  0  0  0  0  0  0  0  0  0  0
  -14.5190   11.5260   -2.9730 C   0  0  0  0  0  0  0  0  0  0  0  0
  -13.0370   11.5400   -2.7630 C   0  0  0  0  0  0  0  0  0  0  0  0
  -15.2810   12.6970   -2.4360 C   0  0  0  0  0  0  0  0  0  0  0  0
  -12.8580    8.9750   -0.3650 C   0  0  1  0  0  0  0  0  0  0  0  0
  -12.6500    9.0120    1.1730 C   0  0  0  0  0  0  0  0  0  0  0  0
  -11.4650    8.0620    1.4860 C   0  0  0  0  0  0  0  0  0  0  0  0
  -10.8230    7.7730    0.1100 C   0  0  1  0  0  0  0  0  0  0  0  0
   -9.9180    9.0120   -0.1790 C   0  0  0  0  0  0  0  0  0  0  0  0
  -10.0240    6.4340   -0.0120 C   0  0  2  0  0  0  0  0  0  0  0  0
   -8.7970    6.3200    0.9080 C   0  0  0  0  0  0  0  0  0  0  0  0
   -7.5140    6.8120    0.3240 C   0  0  0  0  0  0  0  0  0  0  0  0
   -7.2920    7.0590   -0.9800 C   0  0  0  0  0  0  0  0  0  0  0  0
   -8.3640    6.7520   -2.0330 C   0  0  1  0  0  0  0  0  0  0  0  0
   -7.7150    6.0090   -3.2310 C   0  0  0  0  0  0  0  0  0  0  0  0
   -6.5260    6.7660   -3.8130 C   0  0  0  0  0  0  0  0  0  0  0  0
   -5.4560    7.0020   -2.7500 C   0  0  2  0  0  0  0  0  0  0  0  0
   -4.8970    5.7400   -2.3700 O   0  0  0  0  0  0  0  0  0  0  0  0
   -5.9950    7.7350   -1.4900 C   0  0  0  0  0  0  0  0  0  0  0  0
   -6.3210    9.2070   -1.8440 C   0  0  0  0  0  0  0  0  0  0  0  0
   -4.8530    7.7830   -0.4400 C   0  0  0  0  0  0  0  0  0  0  0  0
   -9.6720    6.0230   -1.4990 C   0  0  1  0  0  0  0  0  0  0  0  0
   -9.4560    4.4790   -1.4950 C   0  0  0  0  0  0  0  0  0  0  0  0
  -10.8590    6.3030   -2.4950 C   0  0  0  0  0  0  0  0  0  0  0  0
  -11.6850    7.5800   -2.2500 C   0  0  0  0  0  0  0  0  0  0  0  0
  -12.1140    7.6830   -0.7830 C   0  0  2  0  0  0  0  0  0  0  0  0
  -13.0430    6.4610   -0.4690 C   0  0  0  0  0  0  0  0  0  0  0  0
  -14.6620    8.9809    1.3719 H   0  0  0  0  0  0  0  0  0  0  0  0
  -16.1112    9.4316    0.4111 H   0  0  0  0  0  0  0  0  0  0  0  0
  -15.5261    7.7332    0.4111 H   0  0  0  0  0  0  0  0  0  0  0  0
  -14.5405   10.1285   -1.0766 H   0  0  0  0  0  0  0  0  0  0  0  0
  -13.8706    7.3737   -1.9781 H   0  0  0  0  0  0  0  0  0  0  0  0
  -15.6449    7.7866   -1.8184 H   0  0  0  0  0  0  0  0  0  0  0  0
  -13.5564    9.0298   -3.6237 H   0  0  0  0  0  0  0  0  0  0  0  0
  -15.1523    8.2748   -4.0364 H   0  0  0  0  0  0  0  0  0  0  0  0
  -16.1621    9.7902   -2.7749 H   0  0  0  0  0  0  0  0  0  0  0  0
  -12.8195   11.5421   -1.6847 H   0  0  0  0  0  0  0  0  0  0  0  0
  -12.5927   10.6460   -3.2250 H   0  0  0  0  0  0  0  0  0  0  0  0
  -12.6097   12.4422   -3.2250 H   0  0  0  0  0  0  0  0  0  0  0  0
  -15.2647   12.6720   -1.3364 H   0  0  0  0  0  0  0  0  0  0  0  0
  -14.8163   13.6297   -2.7885 H   0  0  0  0  0  0  0  0  0  0  0  0
  -16.3219   12.6499   -2.7885 H   0  0  0  0  0  0  0  0  0  0  0  0
  -12.4471    9.8379   -0.9095 H   0  0  0  0  0  0  0  0  0  0  0  0
  -12.4116   10.0353    1.4987 H   0  0  0  0  0  0  0  0  0  0  0  0
  -13.5607    8.6961    1.7029 H   0  0  0  0  0  0  0  0  0  0  0  0
  -10.7426    8.5502    2.1567 H   0  0  0  0  0  0  0  0  0  0  0  0
  -11.7904    7.1432    1.9957 H   0  0  0  0  0  0  0  0  0  0  0  0
   -9.5922    9.4580    0.7723 H   0  0  0  0  0  0  0  0  0  0  0  0
   -9.0368    8.6957   -0.7565 H   0  0  0  0  0  0  0  0  0  0  0  0
  -10.4874    9.7552   -0.7565 H   0  0  0  0  0  0  0  0  0  0  0  0
  -10.7465    5.6934    0.3616 H   0  0  0  0  0  0  0  0  0  0  0  0
   -9.0005    6.9012    1.8195 H   0  0  0  0  0  0  0  0  0  0  0  0
   -8.6545    5.2451    1.0934 H   0  0  0  0  0  0  0  0  0  0  0  0
   -6.6794    6.9875    1.0187 H   0  0  0  0  0  0  0  0  0  0  0  0
   -8.7531    7.7262   -2.3641 H   0  0  0  0  0  0  0  0  0  0  0  0
   -7.3714    5.0215   -2.8894 H   0  0  0  0  0  0  0  0  0  0  0  0
   -8.4750    5.9217   -4.0215 H   0  0  0  0  0  0  0  0  0  0  0  0
   -6.0927    6.1781   -4.6356 H   0  0  0  0  0  0  0  0  0  0  0  0
   -6.8768    7.7416   -4.1806 H   0  0  0  0  0  0  0  0  0  0  0  0
   -4.6918    7.6584   -3.1917 H   0  0  0  0  0  0  0  0  0  0  0  0
   -5.3960    5.0460   -2.8340 H   0  0  0  0  0  0  0  0  0  0  0  0
   -6.4494    9.7870   -0.9182 H   0  0  0  0  0  0  0  0  0  0  0  0
   -5.4957    9.6340   -2.4326 H   0  0  0  0  0  0  0  0  0  0  0  0
   -7.2495    9.2456   -2.4326 H   0  0  0  0  0  0  0  0  0  0  0  0
   -5.2842    7.7649    0.5718 H   0  0  0  0  0  0  0  0  0  0  0  0
   -4.1950    6.9117   -0.5738 H   0  0  0  0  0  0  0  0  0  0  0  0
   -4.2704    8.7064   -0.5738 H   0  0  0  0  0  0  0  0  0  0  0  0
   -9.4056    4.1185   -0.4570 H   0  0  0  0  0  0  0  0  0  0  0  0
  -10.2945    3.9901   -2.0126 H   0  0  0  0  0  0  0  0  0  0  0  0
   -8.5155    4.2390   -2.0126 H   0  0  0  0  0  0  0  0  0  0  0  0
  -10.4348    6.3703   -3.5077 H   0  0  0  0  0  0  0  0  0  0  0  0
  -11.5632    5.4715   -2.3444 H   0  0  0  0  0  0  0  0  0  0  0  0
  -11.0752    8.4581   -2.5090 H   0  0  0  0  0  0  0  0  0  0  0  0
  -12.5877    7.5393   -2.8772 H   0  0  0  0  0  0  0  0  0  0  0  0
  -13.1346    6.3405    0.6205 H   0  0  0  0  0  0  0  0  0  0  0  0
  -14.0383    6.6359   -0.9035 H   0  0  0  0  0  0  0  0  0  0  0  0
  -12.6083    5.5487   -0.9035 H   0  0  0  0  0  0  0  0  0  0  0  0
  1  2  1  0
  2  3  1  0
  3  4  1  0
  4  5  1  0
  5  6  1  0
  6  7  1  0
  7  8  1  0
  7  9  1  0
  2 10  1  0
 10 11  1  0
 11 12  1  0
 12 13  1  0
 13 14  1  6
 13 15  1  0
 15 16  1  0
 16 17  1  0
 17 18  2  0
 18 19  1  0
 19 20  1  0
 20 21  1  0
 21 22  1  0
 22 23  1  0
 22 24  1  0
 24 25  1  0
 24 26  1  0
 19 27  1  0
 27 28  1  1
 27 29  1  0
 29 30  1  0
 30 31  1  0
 31 32  1  1
  7  5  1  0
 31 10  1  0
 31 13  1  0
 27 15  1  0
 24 18  1  0
  1 33  1  0
  1 34  1  0
  1 35  1  0
  2 36  1  6
  3 37  1  0
  3 38  1  0
  4 39  1  0
  4 40  1  0
  5 41  1  1
  8 42  1  0
  8 43  1  0
  8 44  1  0
  9 45  1  0
  9 46  1  0
  9 47  1  0
 10 48  1  6
 11 49  1  0
 11 50  1  0
 12 51  1  0
 12 52  1  0
 14 53  1  0
 14 54  1  0
 14 55  1  0
 15 56  1  1
 16 57  1  0
 16 58  1  0
 17 59  1  0
 19 60  1  6
 20 61  1  0
 20 62  1  0
 21 63  1  0
 21 64  1  0
 22 65  1  6
 23 66  1  0
 25 67  1  0
 25 68  1  0
 25 69  1  0
 26 70  1  0
 26 71  1  0
 26 72  1  0
 28 73  1  0
 28 74  1  0
 28 75  1  0
 29 76  1  0
 29 77  1  0
 30 78  1  0
 30 79  1  0
 32 80  1  0
 32 81  1  0
 32 82  1  0
M  END
>  <meeko>  (3) 
{"is_sidechain": [false], "intermolecular_energy": 2.731, "internal_energy": -0.839}

$$$$
EPH_relaxed_0001_pdb2pqr_Repair_260_r2_0001_out
     RDKit          3D

 82 86  0  0  0  0  0  0  0  0999 V2000
   -5.0290    6.4200   -3.1890 C   0  0  0  0  0  0  0  0  0  0  0  0
   -5.8860    7.5830   -2.6810 C   0  0  2  0  0  0  0  0  0  0  0  0
   -5.3510    8.1630   -1.3560 C   0  0  0  0  0  0  0  0  0  0  0  0
   -3.8620    7.8960   -1.1250 C   0  0  0  0  0  0  0  0  0  0  0  0
   -3.2280    8.9710   -0.2950 C   0  0  2  0  0  0  0  0  0  0  0  0
   -3.0190   10.2120   -0.9820 O   0  0  0  0  0  0  0  0  0  0  0  0
   -1.8360    9.5170   -0.5530 C   0  0  0  0  0  0  0  0  0  0  0  0
   -0.9930    9.0020   -1.6770 C   0  0  0  0  0  0  0  0  0  0  0  0
   -1.1130   10.1930    0.5700 C   0  0  0  0  0  0  0  0  0  0  0  0
   -7.3300    7.1260   -2.5050 C   0  0  1  0  0  0  0  0  0  0  0  0
   -7.5230    5.6190   -2.8210 C   0  0  0  0  0  0  0  0  0  0  0  0
   -8.6080    5.0930   -1.8460 C   0  0  0  0  0  0  0  0  0  0  0  0
   -9.2360    6.3680   -1.2360 C   0  0  1  0  0  0  0  0  0  0  0  0
  -10.2580    6.8630   -2.3070 C   0  0  0  0  0  0  0  0  0  0  0  0
   -9.9030    6.2060    0.1680 C   0  0  2  0  0  0  0  0  0  0  0  0
  -11.1040    5.2440    0.2130 C   0  0  0  0  0  0  0  0  0  0  0  0
  -12.4340    5.8740   -0.0360 C   0  0  0  0  0  0  0  0  0  0  0  0
  -12.6940    7.1940   -0.0040 C   0  0  0  0  0  0  0  0  0  0  0  0
  -11.6090    8.2000    0.4040 C   0  0  1  0  0  0  0  0  0  0  0  0
  -12.1980    9.2120    1.4220 C   0  0  0  0  0  0  0  0  0  0  0  0
  -13.4610    9.8930    0.9050 C   0  0  0  0  0  0  0  0  0  0  0  0
  -14.5360    8.8640    0.5660 C   0  0  2  0  0  0  0  0  0  0  0  0
  -14.9670    8.2320    1.7750 O   0  0  0  0  0  0  0  0  0  0  0  0
  -14.0550    7.7860   -0.4450 C   0  0  0  0  0  0  0  0  0  0  0  0
  -13.8760    8.4260   -1.8430 C   0  0  0  0  0  0  0  0  0  0  0  0
  -15.1850    6.7310   -0.5920 C   0  0  0  0  0  0  0  0  0  0  0  0
  -10.2320    7.5750    0.8910 C   0  0  1  0  0  0  0  0  0  0  0  0
  -10.2990    7.2660    2.4190 C   0  0  0  0  0  0  0  0  0  0  0  0
   -9.0880    8.6400    0.7030 C   0  0  0  0  0  0  0  0  0  0  0  0
   -8.3860    8.6710   -0.6670 C   0  0  0  0  0  0  0  0  0  0  0  0
   -7.9520    7.2650   -1.0930 C   0  0  2  0  0  0  0  0  0  0  0  0
   -6.9060    6.7500   -0.0460 C   0  0  0  0  0  0  0  0  0  0  0  0
   -4.6197    5.8646   -2.3323 H   0  0  0  0  0  0  0  0  0  0  0  0
   -5.6489    5.7472   -3.7998 H   0  0  0  0  0  0  0  0  0  0  0  0
   -4.2028    6.8128   -3.7998 H   0  0  0  0  0  0  0  0  0  0  0  0
   -5.8386    8.3833   -3.4342 H   0  0  0  0  0  0  0  0  0  0  0  0
   -5.5118    9.2512   -1.3631 H   0  0  0  0  0  0  0  0  0  0  0  0
   -5.8974    7.6636   -0.5423 H   0  0  0  0  0  0  0  0  0  0  0  0
   -3.7489    6.9323   -0.6069 H   0  0  0  0  0  0  0  0  0  0  0  0
   -3.3609    7.8785   -2.1041 H   0  0  0  0  0  0  0  0  0  0  0  0
   -3.7122    8.5867    0.6149 H   0  0  0  0  0  0  0  0  0  0  0  0
   -0.1217    8.4697   -1.2678 H   0  0  0  0  0  0  0  0  0  0  0  0
   -1.5870    8.3124   -2.2947 H   0  0  0  0  0  0  0  0  0  0  0  0
   -0.6506    9.8453   -2.2947 H   0  0  0  0  0  0  0  0  0  0  0  0
   -1.5042    9.8272    1.5308 H   0  0  0  0  0  0  0  0  0  0  0  0
   -0.0383    9.9682    0.5022 H   0  0  0  0  0  0  0  0  0  0  0  0
   -1.2652   11.2803    0.5022 H   0  0  0  0  0  0  0  0  0  0  0  0
   -7.8276    7.8133   -3.2050 H   0  0  0  0  0  0  0  0  0  0  0  0
   -7.8543    5.4896   -3.8619 H   0  0  0  0  0  0  0  0  0  0  0  0
   -6.5802    5.0658   -2.6985 H   0  0  0  0  0  0  0  0  0  0  0  0
   -9.3658    4.5078   -2.3875 H   0  0  0  0  0  0  0  0  0  0  0  0
   -8.1902    4.4255   -1.0780 H   0  0  0  0  0  0  0  0  0  0  0  0
  -11.1385    7.2895   -1.8041 H   0  0  0  0  0  0  0  0  0  0  0  0
   -9.7864    7.6325   -2.9358 H   0  0  0  0  0  0  0  0  0  0  0  0
  -10.5694    6.0159   -2.9358 H   0  0  0  0  0  0  0  0  0  0  0  0
   -9.1081    5.7192    0.7521 H   0  0  0  0  0  0  0  0  0  0  0  0
  -10.9470    4.4680   -0.5507 H   0  0  0  0  0  0  0  0  0  0  0  0
  -11.1407    4.8502    1.2394 H   0  0  0  0  0  0  0  0  0  0  0  0
  -13.2738    5.2016   -0.2654 H   0  0  0  0  0  0  0  0  0  0  0  0
  -11.3182    8.7248   -0.5180 H   0  0  0  0  0  0  0  0  0  0  0  0
  -12.4414    8.6762    2.3514 H   0  0  0  0  0  0  0  0  0  0  0  0
  -11.4426    9.9934    1.5914 H   0  0  0  0  0  0  0  0  0  0  0  0
  -13.8455   10.5736    1.6789 H   0  0  0  0  0  0  0  0  0  0  0  0
  -13.2096   10.4519   -0.0085 H   0  0  0  0  0  0  0  0  0  0  0  0
  -15.3650    9.4005    0.0813 H   0  0  0  0  0  0  0  0  0  0  0  0
  -15.9370    8.1750    1.7480 H   0  0  0  0  0  0  0  0  0  0  0  0
  -13.5813    9.4796   -1.7289 H   0  0  0  0  0  0  0  0  0  0  0  0
  -13.0948    7.8847   -2.3968 H   0  0  0  0  0  0  0  0  0  0  0  0
  -14.8247    8.3685   -2.3968 H   0  0  0  0  0  0  0  0  0  0  0  0
  -15.5236    6.4149    0.4057 H   0  0  0  0  0  0  0  0  0  0  0  0
  -16.0289    7.1719   -1.1429 H   0  0  0  0  0  0  0  0  0  0  0  0
  -14.8030    5.8589   -1.1429 H   0  0  0  0  0  0  0  0  0  0  0  0
  -10.0995    8.1859    2.9882 H   0  0  0  0  0  0  0  0  0  0  0  0
  -11.3001    6.8875    2.6730 H   0  0  0  0  0  0  0  0  0  0  0  0
   -9.5446    6.5068    2.6730 H   0  0  0  0  0  0  0  0  0  0  0  0
   -9.5273    9.6338    0.8743 H   0  0  0  0  0  0  0  0  0  0  0  0
   -8.3057    8.3515    1.4205 H   0  0  0  0  0  0  0  0  0  0  0  0
   -9.0802    9.0762   -1.4179 H   0  0  0  0  0  0  0  0  0  0  0  0
   -7.4908    9.3054   -0.5880 H   0  0  0  0  0  0  0  0  0  0  0  0
   -7.2829    6.9356    0.9706 H   0  0  0  0  0  0  0  0  0  0  0  0
   -6.7471    5.6707   -0.1868 H   0  0  0  0  0  0  0  0  0  0  0  0
   -5.9537    7.2822   -0.1868 H   0  0  0  0  0  0  0  0  0  0  0  0
  1  2  1  0
  2  3  1  0
  3  4  1  0
  4  5  1  0
  5  6  1  0
  6  7  1  0
  7  8  1  0
  7  9  1  0
  2 10  1  0
 10 11  1  0
 11 12  1  0
 12 13  1  0
 13 14  1  6
 13 15  1  0
 15 16  1  0
 16 17  1  0
 17 18  2  0
 18 19  1  0
 19 20  1  0
 20 21  1  0
 21 22  1  0
 22 23  1  0
 22 24  1  0
 24 25  1  0
 24 26  1  0
 19 27  1  0
 27 28  1  1
 27 29  1  0
 29 30  1  0
 30 31  1  0
 31 32  1  1
  7  5  1  0
 31 10  1  0
 31 13  1  0
 27 15  1  0
 24 18  1  0
  1 33  1  0
  1 34  1  0
  1 35  1  0
  2 36  1  6
  3 37  1  0
  3 38  1  0
  4 39  1  0
  4 40  1  0
  5 41  1  1
  8 42  1  0
  8 43  1  0
  8 44  1  0
  9 45  1  0
  9 46  1  0
  9 47  1  0
 10 48  1  6
 11 49  1  0
 11 50  1  0
 12 51  1  0
 12 52  1  0
 14 53  1  0
 14 54  1  0
 14 55  1  0
 15 56  1  1
 16 57  1  0
 16 58  1  0
 17 59  1  0
 19 60  1  6
 20 61  1  0
 20 62  1  0
 21 63  1  0
 21 64  1  0
 22 65  1  6
 23 66  1  0
 25 67  1  0
 25 68  1  0
 25 69  1  0
 26 70  1  0
 26 71  1  0
 26 72  1  0
 28 73  1  0
 28 74  1  0
 28 75  1  0
 29 76  1  0
 29 77  1  0
 30 78  1  0
 30 79  1  0
 32 80  1  0
 32 81  1  0
 32 82  1  0
M  END
>  <meeko>  (4) 
{"is_sidechain": [false], "intermolecular_energy": 2.731, "internal_energy": -0.839}

$$$$
EPH_relaxed_0001_pdb2pqr_Repair_260_r2_0001_out
     RDKit          3D

 82 86  0  0  0  0  0  0  0  0999 V2000
   -4.1220    7.0410   -2.8990 C   0  0  0  0  0  0  0  0  0  0  0  0
   -4.0800    7.4770   -1.4320 C   0  0  2  0  0  0  0  0  0  0  0  0
   -5.4910    7.7120   -0.8560 C   0  0  0  0  0  0  0  0  0  0  0  0
   -6.4870    6.5990   -1.1940 C   0  0  0  0  0  0  0  0  0  0  0  0
   -7.9040    7.0460   -0.9990 C   0  0  2  0  0  0  0  0  0  0  0  0
   -8.8580    5.9810   -0.8890 O   0  0  0  0  0  0  0  0  0  0  0  0
   -8.9960    6.8390   -2.0330 C   0  0  0  0  0  0  0  0  0  0  0  0
   -8.7170    6.1620   -3.3380 C   0  0  0  0  0  0  0  0  0  0  0  0
  -10.2050    7.7200   -1.9820 C   0  0  0  0  0  0  0  0  0  0  0  0
   -3.2420    8.7420   -1.2890 C   0  0  1  0  0  0  0  0  0  0  0  0
   -3.6800    9.6160   -0.0840 C   0  0  0  0  0  0  0  0  0  0  0  0
   -2.3940   10.2620    0.4910 C   0  0  0  0  0  0  0  0  0  0  0  0
   -1.3150   10.0110   -0.5890 C   0  0  1  0  0  0  0  0  0  0  0  0
   -1.5490   11.1250   -1.6560 C   0  0  0  0  0  0  0  0  0  0  0  0
    0.1680    9.9890   -0.0920 C   0  0  2  0  0  0  0  0  0  0  0  0
    0.6720   11.3090    0.5160 C   0  0  0  0  0  0  0  0  0  0  0  0
    1.3040   12.2560   -0.4490 C   0  0  0  0  0  0  0  0  0  0  0  0
    1.7190   11.9450   -1.6910 C   0  0  0  0  0  0  0  0  0  0  0  0
    1.6560   10.5010   -2.2050 C   0  0  1  0  0  0  0  0  0  0  0  0
    2.9990   10.1370   -2.8900 C   0  0  0  0  0  0  0  0  0  0  0  0
    3.3850   11.1280   -3.9840 C   0  0  0  0  0  0  0  0  0  0  0  0
    3.4940   12.5440   -3.4230 C   0  0  2  0  0  0  0  0  0  0  0  0
    4.6000   12.5960   -2.5170 O   0  0  0  0  0  0  0  0  0  0  0  0
    2.2030   13.0170   -2.6990 C   0  0  0  0  0  0  0  0  0  0  0  0
    1.0790   13.2490   -3.7390 C   0  0  0  0  0  0  0  0  0  0  0  0
    2.4940   14.4010   -2.0590 C   0  0  0  0  0  0  0  0  0  0  0  0
    1.1960    9.4080   -1.1460 C   0  0  1  0  0  0  0  0  0  0  0  0
    2.4270    8.9010   -0.3350 C   0  0  0  0  0  0  0  0  0  0  0  0
    0.6240    8.1580   -1.9140 C   0  0  0  0  0  0  0  0  0  0  0  0
   -0.8740    8.1870   -2.2710 C   0  0  0  0  0  0  0  0  0  0  0  0
   -1.7210    8.5640   -1.0520 C   0  0  2  0  0  0  0  0  0  0  0  0
   -1.5240    7.4500    0.0310 C   0  0  0  0  0  0  0  0  0  0  0  0
   -4.2273    5.9474   -2.9536 H   0  0  0  0  0  0  0  0  0  0  0  0
   -4.9784    7.5173   -3.3987 H   0  0  0  0  0  0  0  0  0  0  0  0
   -3.1904    7.3450   -3.3987 H   0  0  0  0  0  0  0  0  0  0  0  0
   -3.6201    6.6598   -0.8570 H   0  0  0  0  0  0  0  0  0  0  0  0
   -5.4114    7.7861    0.2386 H   0  0  0  0  0  0  0  0  0  0  0  0
   -5.8747    8.6364   -1.3124 H   0  0  0  0  0  0  0  0  0  0  0  0
   -6.3478    6.3028   -2.2442 H   0  0  0  0  0  0  0  0  0  0  0  0
   -6.2981    5.7524   -0.5176 H   0  0  0  0  0  0  0  0  0  0  0  0
   -7.5722    7.9358   -0.4438 H   0  0  0  0  0  0  0  0  0  0  0  0
   -8.3040    5.1599   -3.1503 H   0  0  0  0  0  0  0  0  0  0  0  0
   -9.6513    6.0720   -3.9115 H   0  0  0  0  0  0  0  0  0  0  0  0
   -7.9905    6.7564   -3.9115 H   0  0  0  0  0  0  0  0  0  0  0  0
  -10.4726    7.9150   -0.9330 H   0  0  0  0  0  0  0  0  0  0  0  0
   -9.9865    8.6721   -2.4878 H   0  0  0  0  0  0  0  0  0  0  0  0
  -11.0444    7.2204   -2.4878 H   0  0  0  0  0  0  0  0  0  0  0  0
   -3.4186    9.1930   -2.2766 H   0  0  0  0  0  0  0  0  0  0  0  0
   -4.3798   10.3967   -0.4169 H   0  0  0  0  0  0  0  0  0  0  0  0
   -4.1920    9.0099    0.6779 H   0  0  0  0  0  0  0  0  0  0  0  0
   -2.5395   11.3405    0.6514 H   0  0  0  0  0  0  0  0  0  0  0  0
   -2.1144    9.8379    1.4667 H   0  0  0  0  0  0  0  0  0  0  0  0
   -1.7498   12.0809   -1.1501 H   0  0  0  0  0  0  0  0  0  0  0  0
   -0.6521   11.2244   -2.2851 H   0  0  0  0  0  0  0  0  0  0  0  0
   -2.4101   10.8551   -2.2851 H   0  0  0  0  0  0  0  0  0  0  0  0
    0.1268    9.2730    0.7420 H   0  0  0  0  0  0  0  0  0  0  0  0
   -0.1854   11.8186    0.9800 H   0  0  0  0  0  0  0  0  0  0  0  0
    1.4606   11.0326    1.2313 H   0  0  0  0  0  0  0  0  0  0  0  0
    1.4423   13.2956   -0.1173 H   0  0  0  0  0  0  0  0  0  0  0  0
    0.8409   10.4758   -2.9433 H   0  0  0  0  0  0  0  0  0  0  0  0
    3.7921   10.1265   -2.1279 H   0  0  0  0  0  0  0  0  0  0  0  0
    2.8771    9.1504   -3.3609 H   0  0  0  0  0  0  0  0  0  0  0  0
    4.3554   10.8338   -4.4103 H   0  0  0  0  0  0  0  0  0  0  0  0
    2.6052   11.1164   -4.7597 H   0  0  0  0  0  0  0  0  0  0  0  0
    3.6440   13.2255   -4.2733 H   0  0  0  0  0  0  0  0  0  0  0  0
    5.2030   11.8690   -2.7450 H   0  0  0  0  0  0  0  0  0  0  0  0
    0.1309   13.4447   -3.2167 H   0  0  0  0  0  0  0  0  0  0  0  0
    1.3355   14.1131   -4.3695 H   0  0  0  0  0  0  0  0  0  0  0  0
    0.9724   12.3539   -4.3695 H   0  0  0  0  0  0  0  0  0  0  0  0
    2.4748   14.3095   -0.9630 H   0  0  0  0  0  0  0  0  0  0  0  0
    3.4857   14.7523   -2.3803 H   0  0  0  0  0  0  0  0  0  0  0  0
    1.7278   15.1219   -2.3803 H   0  0  0  0  0  0  0  0  0  0  0  0
    2.2177    8.9872    0.7414 H   0  0  0  0  0  0  0  0  0  0  0  0
    2.6240    7.8485   -0.5871 H   0  0  0  0  0  0  0  0  0  0  0  0
    3.3080    9.5095   -0.5871 H   0  0  0  0  0  0  0  0  0  0  0  0
    1.1879    8.0580   -2.8532 H   0  0  0  0  0  0  0  0  0  0  0  0
    0.7369    7.3154   -1.2160 H   0  0  0  0  0  0  0  0  0  0  0  0
   -1.0398    8.9275   -3.0673 H   0  0  0  0  0  0  0  0  0  0  0  0
   -1.1733    7.1840   -2.6094 H   0  0  0  0  0  0  0  0  0  0  0  0
   -1.6028    7.8954    1.0337 H   0  0  0  0  0  0  0  0  0  0  0  0
   -2.2999    6.6797   -0.0900 H   0  0  0  0  0  0  0  0  0  0  0  0
   -0.5310    6.9925   -0.0900 H   0  0  0  0  0  0  0  0  0  0  0  0
  1  2  1  0
  2  3  1  0
  3  4  1  0
  4  5  1  0
  5  6  1  0
  6  7  1  0
  7  8  1  0
  7  9  1  0
  2 10  1  0
 10 11  1  0
 11 12  1  0
 12 13  1  0
 13 14  1  6
 13 15  1  0
 15 16  1  0
 16 17  1  0
 17 18  2  0
 18 19  1  0
 19 20  1  0
 20 21  1  0
 21 22  1  0
 22 23  1  0
 22 24  1  0
 24 25  1  0
 24 26  1  0
 19 27  1  0
 27 28  1  1
 27 29  1  0
 29 30  1  0
 30 31  1  0
 31 32  1  1
  7  5  1  0
 31 10  1  0
 31 13  1  0
 27 15  1  0
 24 18  1  0
  1 33  1  0
  1 34  1  0
  1 35  1  0
  2 36  1  1
  3 37  1  0
  3 38  1  0
  4 39  1  0
  4 40  1  0
  5 41  1  1
  8 42  1  0
  8 43  1  0
  8 44  1  0
  9 45  1  0
  9 46  1  0
  9 47  1  0
 10 48  1  6
 11 49  1  0
 11 50  1  0
 12 51  1  0
 12 52  1  0
 14 53  1  0
 14 54  1  0
 14 55  1  0
 15 56  1  1
 16 57  1  0
 16 58  1  0
 17 59  1  0
 19 60  1  6
 20 61  1  0
 20 62  1  0
 21 63  1  0
 21 64  1  0
 22 65  1  6
 23 66  1  0
 25 67  1  0
 25 68  1  0
 25 69  1  0
 26 70  1  0
 26 71  1  0
 26 72  1  0
 28 73  1  0
 28 74  1  0
 28 75  1  0
 29 76  1  0
 29 77  1  0
 30 78  1  0
 30 79  1  0
 32 80  1  0
 32 81  1  0
 32 82  1  0
M  END
>  <meeko>  (5) 
{"is_sidechain": [false], "intermolecular_energy": 2.731, "internal_energy": -0.839}

$$$$
EPH_relaxed_0001_pdb2pqr_Repair_260_r2_0001_out
     RDKit          3D

 82 86  0  0  0  0  0  0  0  0999 V2000
  -14.1040    9.7420    0.8440 C   0  0  0  0  0  0  0  0  0  0  0  0
  -13.4270    9.2800   -0.4490 C   0  0  2  0  0  0  0  0  0  0  0  0
  -14.3310    8.3430   -1.2750 C   0  0  0  0  0  0  0  0  0  0  0  0
  -14.5570    8.8150   -2.7140 C   0  0  0  0  0  0  0  0  0  0  0  0
  -15.2620   10.1370   -2.7590 C   0  0  2  0  0  0  0  0  0  0  0  0
  -15.0500   10.8870   -3.9620 O   0  0  0  0  0  0  0  0  0  0  0  0
  -14.5390   11.4710   -2.7530 C   0  0  0  0  0  0  0  0  0  0  0  0
  -13.0450   11.5490   -2.6990 C   0  0  0  0  0  0  0  0  0  0  0  0
  -15.2870   12.6890   -2.3080 C   0  0  0  0  0  0  0  0  0  0  0  0
  -12.1110    8.5830   -0.1270 C   0  0  1  0  0  0  0  0  0  0  0  0
  -12.2660    7.4880    0.9620 C   0  0  0  0  0  0  0  0  0  0  0  0
  -11.2750    6.3520    0.5980 C   0  0  0  0  0  0  0  0  0  0  0  0
  -10.3570    6.9670   -0.4840 C   0  0  1  0  0  0  0  0  0  0  0  0
   -9.3040    7.8010    0.3110 C   0  0  0  0  0  0  0  0  0  0  0  0
   -9.6730    5.9600   -1.4650 C   0  0  2  0  0  0  0  0  0  0  0  0
   -8.7100    4.9580   -0.8050 C   0  0  0  0  0  0  0  0  0  0  0  0
   -7.2880    5.4030   -0.7170 C   0  0  0  0  0  0  0  0  0  0  0  0
   -6.7460    6.4300   -1.3990 C   0  0  0  0  0  0  0  0  0  0  0  0
   -7.5650    7.2020   -2.4420 C   0  0  1  0  0  0  0  0  0  0  0  0
   -6.7230    7.3840   -3.7310 C   0  0  0  0  0  0  0  0  0  0  0  0
   -5.3680    8.0290   -3.4590 C   0  0  0  0  0  0  0  0  0  0  0  0
   -4.5600    7.2020   -2.4630 C   0  0  2  0  0  0  0  0  0  0  0  0
   -4.2190    5.9520   -3.0710 O   0  0  0  0  0  0  0  0  0  0  0  0
   -5.3120    6.9460   -1.1270 C   0  0  0  0  0  0  0  0  0  0  0  0
   -5.4140    8.2670   -0.3250 C   0  0  0  0  0  0  0  0  0  0  0  0
   -4.4470    5.9830   -0.2690 C   0  0  0  0  0  0  0  0  0  0  0  0
   -9.0210    6.6360   -2.7380 C   0  0  1  0  0  0  0  0  0  0  0  0
   -8.9490    5.5350   -3.8400 C   0  0  0  0  0  0  0  0  0  0  0  0
   -9.9130    7.7930   -3.3240 C   0  0  0  0  0  0  0  0  0  0  0  0
  -10.6570    8.6800   -2.3070 C   0  0  0  0  0  0  0  0  0  0  0  0
  -11.4060    7.8250   -1.2800 C   0  0  2  0  0  0  0  0  0  0  0  0
  -12.4870    6.9920   -2.0480 C   0  0  0  0  0  0  0  0  0  0  0  0
  -13.5426    9.3589    1.7089 H   0  0  0  0  0  0  0  0  0  0  0  0
  -14.1216   10.8414    0.8761 H   0  0  0  0  0  0  0  0  0  0  0  0
  -15.1342    9.3577    0.8761 H   0  0  0  0  0  0  0  0  0  0  0  0
  -13.2338   10.1749   -1.0589 H   0  0  0  0  0  0  0  0  0  0  0  0
  -13.8635    7.3478   -1.3055 H   0  0  0  0  0  0  0  0  0  0  0  0
  -15.3148    8.3303   -0.7831 H   0  0  0  0  0  0  0  0  0  0  0  0
  -13.5823    8.9135   -3.2142 H   0  0  0  0  0  0  0  0  0  0  0  0
  -15.1881    8.0721   -3.2237 H   0  0  0  0  0  0  0  0  0  0  0  0
  -16.0895    9.7436   -2.1503 H   0  0  0  0  0  0  0  0  0  0  0  0
  -12.7164   11.5662   -1.6494 H   0  0  0  0  0  0  0  0  0  0  0  0
  -12.6136   10.6722   -3.2040 H   0  0  0  0  0  0  0  0  0  0  0  0
  -12.7072   12.4660   -3.2040 H   0  0  0  0  0  0  0  0  0  0  0  0
  -15.3089   12.7246   -1.2088 H   0  0  0  0  0  0  0  0  0  0  0  0
  -14.7855   13.5887   -2.6941 H   0  0  0  0  0  0  0  0  0  0  0  0
  -16.3162   12.6487   -2.6941 H   0  0  0  0  0  0  0  0  0  0  0  0
  -11.5100    9.4541    0.1729 H   0  0  0  0  0  0  0  0  0  0  0  0
  -12.0219    7.9009    1.9519 H   0  0  0  0  0  0  0  0  0  0  0  0
  -13.2995    7.1133    1.0012 H   0  0  0  0  0  0  0  0  0  0  0  0
  -10.6891    6.0507    1.4789 H   0  0  0  0  0  0  0  0  0  0  0  0
  -11.7899    5.4471    0.2430 H   0  0  0  0  0  0  0  0  0  0  0  0
   -9.4707    7.6690    1.3902 H   0  0  0  0  0  0  0  0  0  0  0  0
   -8.2920    7.4568    0.0515 H   0  0  0  0  0  0  0  0  0  0  0  0
   -9.4072    8.8650    0.0515 H   0  0  0  0  0  0  0  0  0  0  0  0
  -10.5255    5.3637   -1.8224 H   0  0  0  0  0  0  0  0  0  0  0  0
   -9.0691    4.7639    0.2164 H   0  0  0  0  0  0  0  0  0  0  0  0
   -8.7103    4.0664   -1.4493 H   0  0  0  0  0  0  0  0  0  0  0  0
   -6.6269    4.8449   -0.0377 H   0  0  0  0  0  0  0  0  0  0  0  0
   -7.7783    8.1840   -1.9946 H   0  0  0  0  0  0  0  0  0  0  0  0
   -6.5582    6.3965   -4.1867 H   0  0  0  0  0  0  0  0  0  0  0  0
   -7.2817    8.0522   -4.4029 H   0  0  0  0  0  0  0  0  0  0  0  0
   -4.8084    8.1027   -4.4032 H   0  0  0  0  0  0  0  0  0  0  0  0
   -5.5347    9.0287   -3.0314 H   0  0  0  0  0  0  0  0  0  0  0  0
   -3.6585    7.7791   -2.2095 H   0  0  0  0  0  0  0  0  0  0  0  0
   -5.0040    5.6340   -3.5480 H   0  0  0  0  0  0  0  0  0  0  0  0
   -5.3968    8.0443    0.7521 H   0  0  0  0  0  0  0  0  0  0  0  0
   -4.5633    8.9166   -0.5787 H   0  0  0  0  0  0  0  0  0  0  0  0
   -6.3543    8.7783   -0.5787 H   0  0  0  0  0  0  0  0  0  0  0  0
   -4.6257    6.1819    0.7980 H   0  0  0  0  0  0  0  0  0  0  0  0
   -4.7195    4.9423   -0.4986 H   0  0  0  0  0  0  0  0  0  0  0  0
   -3.3832    6.1427   -0.4986 H   0  0  0  0  0  0  0  0  0  0  0  0
   -8.8842    4.5448   -3.3653 H   0  0  0  0  0  0  0  0  0  0  0  0
   -9.8522    5.5832   -4.4660 H   0  0  0  0  0  0  0  0  0  0  0  0
   -8.0598    5.7004   -4.4660 H   0  0  0  0  0  0  0  0  0  0  0  0
   -9.2600    8.4468   -3.9208 H   0  0  0  0  0  0  0  0  0  0  0  0
  -10.7038    7.2853   -3.8957 H   0  0  0  0  0  0  0  0  0  0  0  0
   -9.9283    9.3160   -1.7831 H   0  0  0  0  0  0  0  0  0  0  0  0
  -11.3877    9.2985   -2.8488 H   0  0  0  0  0  0  0  0  0  0  0  0
  -13.1430    6.4865   -1.3240 H   0  0  0  0  0  0  0  0  0  0  0  0
  -13.0869    7.6636   -2.6797 H   0  0  0  0  0  0  0  0  0  0  0  0
  -11.9905    6.2408   -2.6797 H   0  0  0  0  0  0  0  0  0  0  0  0
  1  2  1  0
  2  3  1  0
  3  4  1  0
  4  5  1  0
  5  6  1  0
  6  7  1  0
  7  8  1  0
  7  9  1  0
  2 10  1  0
 10 11  1  0
 11 12  1  0
 12 13  1  0
 13 14  1  1
 13 15  1  0
 15 16  1  0
 16 17  1  0
 17 18  2  0
 18 19  1  0
 19 20  1  0
 20 21  1  0
 21 22  1  0
 22 23  1  0
 22 24  1  0
 24 25  1  0
 24 26  1  0
 19 27  1  0
 27 28  1  6
 27 29  1  0
 29 30  1  0
 30 31  1  0
 31 32  1  6
  7  5  1  0
 31 10  1  0
 31 13  1  0
 27 15  1  0
 24 18  1  0
  1 33  1  0
  1 34  1  0
  1 35  1  0
  2 36  1  6
  3 37  1  0
  3 38  1  0
  4 39  1  0
  4 40  1  0
  5 41  1  1
  8 42  1  0
  8 43  1  0
  8 44  1  0
  9 45  1  0
  9 46  1  0
  9 47  1  0
 10 48  1  1
 11 49  1  0
 11 50  1  0
 12 51  1  0
 12 52  1  0
 14 53  1  0
 14 54  1  0
 14 55  1  0
 15 56  1  6
 16 57  1  0
 16 58  1  0
 17 59  1  0
 19 60  1  1
 20 61  1  0
 20 62  1  0
 21 63  1  0
 21 64  1  0
 22 65  1  1
 23 66  1  0
 25 67  1  0
 25 68  1  0
 25 69  1  0
 26 70  1  0
 26 71  1  0
 26 72  1  0
 28 73  1  0
 28 74  1  0
 28 75  1  0
 29 76  1  0
 29 77  1  0
 30 78  1  0
 30 79  1  0
 32 80  1  0
 32 81  1  0
 32 82  1  0
M  END
>  <meeko>  (6) 
{"is_sidechain": [false], "intermolecular_energy": 2.731, "internal_energy": -0.839}

$$$$
EPH_relaxed_0001_pdb2pqr_Repair_260_r2_0001_out
     RDKit          3D

 82 86  0  0  0  0  0  0  0  0999 V2000
  -12.8290   10.8940   -2.0240 C   0  0  0  0  0  0  0  0  0  0  0  0
  -13.0780    9.5940   -1.2530 C   0  0  2  0  0  0  0  0  0  0  0  0
  -14.0470    9.7970   -0.0720 C   0  0  0  0  0  0  0  0  0  0  0  0
  -15.2580    8.8600   -0.1010 C   0  0  0  0  0  0  0  0  0  0  0  0
  -15.0290    7.6320    0.7270 C   0  0  2  0  0  0  0  0  0  0  0  0
  -13.8110    6.9330    0.4390 O   0  0  0  0  0  0  0  0  0  0  0  0
  -15.0290    6.2260    0.1570 C   0  0  0  0  0  0  0  0  0  0  0  0
  -15.2630    5.9740   -1.2990 C   0  0  0  0  0  0  0  0  0  0  0  0
  -15.2870    5.0780    1.0830 C   0  0  0  0  0  0  0  0  0  0  0  0
  -11.7550    9.0270   -0.7510 C   0  0  1  0  0  0  0  0  0  0  0  0
  -11.8940    8.3150    0.6210 C   0  0  0  0  0  0  0  0  0  0  0  0
  -10.9050    7.1200    0.6070 C   0  0  0  0  0  0  0  0  0  0  0  0
  -10.0020    7.3760   -0.6220 C   0  0  1  0  0  0  0  0  0  0  0  0
   -8.9410    8.4110   -0.1320 C   0  0  0  0  0  0  0  0  0  0  0  0
   -9.3280    6.1170   -1.2590 C   0  0  2  0  0  0  0  0  0  0  0  0
   -8.3540    5.3620   -0.3380 C   0  0  0  0  0  0  0  0  0  0  0  0
   -6.9320    5.8110   -0.4080 C   0  0  0  0  0  0  0  0  0  0  0  0
   -6.4020    6.5810   -1.3770 C   0  0  0  0  0  0  0  0  0  0  0  0
   -7.2360    7.0000   -2.5940 C   0  0  1  0  0  0  0  0  0  0  0  0
   -6.4100    6.7800   -3.8890 C   0  0  0  0  0  0  0  0  0  0  0  0
   -5.0540    7.4760   -3.8430 C   0  0  0  0  0  0  0  0  0  0  0  0
   -4.2310    6.9890   -2.6530 C   0  0  2  0  0  0  0  0  0  0  0  0
   -3.8950    5.6140   -2.8560 O   0  0  0  0  0  0  0  0  0  0  0  0
   -4.9650    7.1530   -1.2930 C   0  0  0  0  0  0  0  0  0  0  0  0
   -5.0610    8.6550   -0.9300 C   0  0  0  0  0  0  0  0  0  0  0  0
   -4.0870    6.4960   -0.1940 C   0  0  0  0  0  0  0  0  0  0  0  0
   -8.6940    6.3730   -2.6860 C   0  0  1  0  0  0  0  0  0  0  0  0
   -8.6330    4.9890   -3.4010 C   0  0  0  0  0  0  0  0  0  0  0  0
   -9.5960    7.2990   -3.5850 C   0  0  0  0  0  0  0  0  0  0  0  0
  -10.3300    8.4530   -2.8760 C   0  0  0  0  0  0  0  0  0  0  0  0
  -11.0630    7.9530   -1.6280 C   0  0  2  0  0  0  0  0  0  0  0  0
  -12.1520    6.9270   -2.0920 C   0  0  0  0  0  0  0  0  0  0  0  0
  -12.6712   11.7179   -1.3124 H   0  0  0  0  0  0  0  0  0  0  0  0
  -11.9364   10.7799   -2.6566 H   0  0  0  0  0  0  0  0  0  0  0  0
  -13.7006   11.1178   -2.6566 H   0  0  0  0  0  0  0  0  0  0  0  0
  -13.5483    8.8815   -1.9466 H   0  0  0  0  0  0  0  0  0  0  0  0
  -13.4954    9.6227    0.8636 H   0  0  0  0  0  0  0  0  0  0  0  0
  -14.4335   10.8242   -0.1463 H   0  0  0  0  0  0  0  0  0  0  0  0
  -16.1337    9.3970    0.2925 H   0  0  0  0  0  0  0  0  0  0  0  0
  -15.4233    8.5456   -1.1421 H   0  0  0  0  0  0  0  0  0  0  0  0
  -15.5561    8.0821    1.5811 H   0  0  0  0  0  0  0  0  0  0  0  0
  -16.0071    5.1726   -1.4175 H   0  0  0  0  0  0  0  0  0  0  0  0
  -15.6351    6.8932   -1.7750 H   0  0  0  0  0  0  0  0  0  0  0  0
  -14.3188    5.6709   -1.7750 H   0  0  0  0  0  0  0  0  0  0  0  0
  -15.2095    5.4226    2.1247 H   0  0  0  0  0  0  0  0  0  0  0  0
  -16.2968    4.6809    0.9023 H   0  0  0  0  0  0  0  0  0  0  0  0
  -14.5442    4.2871    0.9023 H   0  0  0  0  0  0  0  0  0  0  0  0
  -11.1523    9.9471   -0.7378 H   0  0  0  0  0  0  0  0  0  0  0  0
  -11.6384    9.0088    1.4355 H   0  0  0  0  0  0  0  0  0  0  0  0
  -12.9261    7.9717    0.7852 H   0  0  0  0  0  0  0  0  0  0  0  0
  -10.3076    7.0994    1.5304 H   0  0  0  0  0  0  0  0  0  0  0  0
  -11.4222    6.1508    0.5502 H   0  0  0  0  0  0  0  0  0  0  0  0
   -8.9248    8.4268    0.9678 H   0  0  0  0  0  0  0  0  0  0  0  0
   -7.9481    8.1248   -0.5092 H   0  0  0  0  0  0  0  0  0  0  0  0
   -9.2024    9.4107   -0.5092 H   0  0  0  0  0  0  0  0  0  0  0  0
  -10.1833    5.4413   -1.4068 H   0  0  0  0  0  0  0  0  0  0  0  0
   -8.6996    5.4883    0.6986 H   0  0  0  0  0  0  0  0  0  0  0  0
   -8.3601    4.3167   -0.6804 H   0  0  0  0  0  0  0  0  0  0  0  0
   -6.2606    5.4853    0.4002 H   0  0  0  0  0  0  0  0  0  0  0  0
   -7.4465    8.0717   -2.4630 H   0  0  0  0  0  0  0  0  0  0  0  0
   -6.2478    5.7005   -4.0247 H   0  0  0  0  0  0  0  0  0  0  0  0
   -6.9789    7.2122   -4.7254 H   0  0  0  0  0  0  0  0  0  0  0  0
   -4.5065    7.2594   -4.7721 H   0  0  0  0  0  0  0  0  0  0  0  0
   -5.2183    8.5585   -3.7368 H   0  0  0  0  0  0  0  0  0  0  0  0
   -3.3274    7.6140   -2.5990 H   0  0  0  0  0  0  0  0  0  0  0  0
   -2.9840    5.4830   -2.5410 H   0  0  0  0  0  0  0  0  0  0  0  0
   -5.0682    8.7681    0.1642 H   0  0  0  0  0  0  0  0  0  0  0  0
   -4.1952    9.1893   -1.3481 H   0  0  0  0  0  0  0  0  0  0  0  0
   -5.9878    9.0748   -1.3481 H   0  0  0  0  0  0  0  0  0  0  0  0
   -4.4674    6.7807    0.7981 H   0  0  0  0  0  0  0  0  0  0  0  0
   -4.1238    5.4018   -0.3007 H   0  0  0  0  0  0  0  0  0  0  0  0
   -3.0476    6.8400   -0.3007 H   0  0  0  0  0  0  0  0  0  0  0  0
   -8.5977    4.1883   -2.6476 H   0  0  0  0  0  0  0  0  0  0  0  0
   -9.5264    4.8615   -4.0300 H   0  0  0  0  0  0  0  0  0  0  0  0
   -7.7319    4.9406   -4.0300 H   0  0  0  0  0  0  0  0  0  0  0  0
   -8.9518    7.7404   -4.3597 H   0  0  0  0  0  0  0  0  0  0  0  0
  -10.3921    6.6427   -3.9666 H   0  0  0  0  0  0  0  0  0  0  0  0
   -9.5968    9.2178   -2.5802 H   0  0  0  0  0  0  0  0  0  0  0  0
  -11.0701    8.8767   -3.5708 H   0  0  0  0  0  0  0  0  0  0  0  0
  -12.6305    6.4762   -1.2101 H   0  0  0  0  0  0  0  0  0  0  0  0
  -12.9110    7.4459   -2.6959 H   0  0  0  0  0  0  0  0  0  0  0  0
  -11.6792    6.1385   -2.6959 H   0  0  0  0  0  0  0  0  0  0  0  0
  1  2  1  0
  2  3  1  0
  3  4  1  0
  4  5  1  0
  5  6  1  0
  6  7  1  0
  7  8  1  0
  7  9  1  0
  2 10  1  0
 10 11  1  0
 11 12  1  0
 12 13  1  0
 13 14  1  1
 13 15  1  0
 15 16  1  0
 16 17  1  0
 17 18  2  0
 18 19  1  0
 19 20  1  0
 20 21  1  0
 21 22  1  0
 22 23  1  0
 22 24  1  0
 24 25  1  0
 24 26  1  0
 19 27  1  0
 27 28  1  6
 27 29  1  0
 29 30  1  0
 30 31  1  0
 31 32  1  6
  7  5  1  0
 31 10  1  0
 31 13  1  0
 27 15  1  0
 24 18  1  0
  1 33  1  0
  1 34  1  0
  1 35  1  0
  2 36  1  6
  3 37  1  0
  3 38  1  0
  4 39  1  0
  4 40  1  0
  5 41  1  1
  8 42  1  0
  8 43  1  0
  8 44  1  0
  9 45  1  0
  9 46  1  0
  9 47  1  0
 10 48  1  1
 11 49  1  0
 11 50  1  0
 12 51  1  0
 12 52  1  0
 14 53  1  0
 14 54  1  0
 14 55  1  0
 15 56  1  6
 16 57  1  0
 16 58  1  0
 17 59  1  0
 19 60  1  1
 20 61  1  0
 20 62  1  0
 21 63  1  0
 21 64  1  0
 22 65  1  1
 23 66  1  0
 25 67  1  0
 25 68  1  0
 25 69  1  0
 26 70  1  0
 26 71  1  0
 26 72  1  0
 28 73  1  0
 28 74  1  0
 28 75  1  0
 29 76  1  0
 29 77  1  0
 30 78  1  0
 30 79  1  0
 32 80  1  0
 32 81  1  0
 32 82  1  0
M  END
>  <meeko>  (7) 
{"is_sidechain": [false], "intermolecular_energy": 2.731, "internal_energy": -0.839}

$$$$
EPH_relaxed_0001_pdb2pqr_Repair_260_r2_0001_out
     RDKit          3D

 82 86  0  0  0  0  0  0  0  0999 V2000
   -0.6980    8.0850   -1.9280 C   0  0  0  0  0  0  0  0  0  0  0  0
   -1.0280    8.7190   -0.5740 C   0  0  2  0  0  0  0  0  0  0  0  0
   -2.5190    9.0940   -0.4560 C   0  0  0  0  0  0  0  0  0  0  0  0
   -3.4230    8.3380   -1.4340 C   0  0  0  0  0  0  0  0  0  0  0  0
   -4.8260    8.2290   -0.9200 C   0  0  2  0  0  0  0  0  0  0  0  0
   -5.1810    6.9330   -0.4180 O   0  0  0  0  0  0  0  0  0  0  0  0
   -5.8960    7.3800   -1.5810 C   0  0  0  0  0  0  0  0  0  0  0  0
   -5.6080    6.5840   -2.8150 C   0  0  0  0  0  0  0  0  0  0  0  0
   -7.3330    7.7060   -1.3170 C   0  0  0  0  0  0  0  0  0  0  0  0
   -0.1610    9.9530   -0.3520 C   0  0  1  0  0  0  0  0  0  0  0  0
    1.0570    9.6700    0.5660 C   0  0  0  0  0  0  0  0  0  0  0  0
    2.2240   10.5470    0.0440 C   0  0  0  0  0  0  0  0  0  0  0  0
    1.5570   11.5410   -0.9350 C   0  0  1  0  0  0  0  0  0  0  0  0
    0.9580   12.6590   -0.0250 C   0  0  0  0  0  0  0  0  0  0  0  0
    2.4780   12.1370   -2.0490 C   0  0  2  0  0  0  0  0  0  0  0  0
    3.6570   12.9830   -1.5390 C   0  0  0  0  0  0  0  0  0  0  0  0
    3.3760   14.4410   -1.3840 C   0  0  0  0  0  0  0  0  0  0  0  0
    2.3230   15.0940   -1.9090 C   0  0  0  0  0  0  0  0  0  0  0  0
    1.3300   14.3750   -2.8310 C   0  0  1  0  0  0  0  0  0  0  0  0
    1.0520   15.2540   -4.0790 C   0  0  0  0  0  0  0  0  0  0  0  0
    0.5940   16.6620   -3.7130 C   0  0  0  0  0  0  0  0  0  0  0  0
    1.6340   17.3660   -2.8450 C   0  0  2  0  0  0  0  0  0  0  0  0
    2.8120   17.5890   -3.6260 O   0  0  0  0  0  0  0  0  0  0  0  0
    2.0010   16.5690   -1.5620 C   0  0  0  0  0  0  0  0  0  0  0  0
    0.8060   16.5860   -0.5780 C   0  0  0  0  0  0  0  0  0  0  0  0
    3.1600   17.3180   -0.8500 C   0  0  0  0  0  0  0  0  0  0  0  0
    1.6960   12.8760   -3.2100 C   0  0  1  0  0  0  0  0  0  0  0  0
    2.6290   12.8550   -4.4590 C   0  0  0  0  0  0  0  0  0  0  0  0
    0.3810   12.1150   -3.6250 C   0  0  0  0  0  0  0  0  0  0  0  0
   -0.4210   11.4460   -2.4920 C   0  0  0  0  0  0  0  0  0  0  0  0
    0.4910   10.5980   -1.6010 C   0  0  2  0  0  0  0  0  0  0  0  0
    1.0910    9.4510   -2.4840 C   0  0  0  0  0  0  0  0  0  0  0  0
   -0.1955    7.1196   -1.7681 H   0  0  0  0  0  0  0  0  0  0  0  0
   -1.6274    7.9253   -2.4943 H   0  0  0  0  0  0  0  0  0  0  0  0
   -0.0340    8.7546   -2.4943 H   0  0  0  0  0  0  0  0  0  0  0  0
   -0.8138    7.9700    0.2026 H   0  0  0  0  0  0  0  0  0  0  0  0
   -2.8530    8.8719    0.5683 H   0  0  0  0  0  0  0  0  0  0  0  0
   -2.6021   10.1629   -0.7019 H   0  0  0  0  0  0  0  0  0  0  0  0
   -3.4358    8.8738   -2.3946 H   0  0  0  0  0  0  0  0  0  0  0  0
   -3.0221    7.3209   -1.5555 H   0  0  0  0  0  0  0  0  0  0  0  0
   -4.8138    9.2801   -0.5959 H   0  0  0  0  0  0  0  0  0  0  0  0
   -5.2465    5.5848   -2.5307 H   0  0  0  0  0  0  0  0  0  0  0  0
   -6.5275    6.4855   -3.4107 H   0  0  0  0  0  0  0  0  0  0  0  0
   -4.8383    7.0966   -3.4107 H   0  0  0  0  0  0  0  0  0  0  0  0
   -7.5066    7.7454   -0.2315 H   0  0  0  0  0  0  0  0  0  0  0  0
   -7.5755    8.6820   -1.7628 H   0  0  0  0  0  0  0  0  0  0  0  0
   -7.9729    6.9302   -1.7628 H   0  0  0  0  0  0  0  0  0  0  0  0
   -0.9138   10.6331    0.0732 H   0  0  0  0  0  0  0  0  0  0  0  0
    0.8179    9.9375    1.6058 H   0  0  0  0  0  0  0  0  0  0  0  0
    1.3258    8.6035    0.5479 H   0  0  0  0  0  0  0  0  0  0  0  0
    2.7073   11.0841    0.8734 H   0  0  0  0  0  0  0  0  0  0  0  0
    3.0109    9.9496   -0.4396 H   0  0  0  0  0  0  0  0  0  0  0  0
    1.1028   12.3887    1.0314 H   0  0  0  0  0  0  0  0  0  0  0  0
    1.4662   13.6122   -0.2326 H   0  0  0  0  0  0  0  0  0  0  0  0
   -0.1171   12.7639   -0.2326 H   0  0  0  0  0  0  0  0  0  0  0  0
    2.9273   11.2349   -2.4898 H   0  0  0  0  0  0  0  0  0  0  0  0
    3.9586   12.5888   -0.5574 H   0  0  0  0  0  0  0  0  0  0  0  0
    4.4419   12.9043   -2.3056 H   0  0  0  0  0  0  0  0  0  0  0  0
    4.0898   15.0312   -0.7907 H   0  0  0  0  0  0  0  0  0  0  0  0
    0.4060   14.2536   -2.2466 H   0  0  0  0  0  0  0  0  0  0  0  0
    1.9757   15.3267   -4.6718 H   0  0  0  0  0  0  0  0  0  0  0  0
    0.2412   14.7770   -4.6492 H   0  0  0  0  0  0  0  0  0  0  0  0
    0.4424   17.2423   -4.6351 H   0  0  0  0  0  0  0  0  0  0  0  0
   -0.3455   16.5891   -3.1455 H   0  0  0  0  0  0  0  0  0  0  0  0
    1.1945   18.3168   -2.5091 H   0  0  0  0  0  0  0  0  0  0  0  0
    2.8880   18.5470   -3.7750 H   0  0  0  0  0  0  0  0  0  0  0  0
    1.1821   16.5807    0.4557 H   0  0  0  0  0  0  0  0  0  0  0  0
    0.2062   17.4928   -0.7453 H   0  0  0  0  0  0  0  0  0  0  0  0
    0.1806   15.6967   -0.7453 H   0  0  0  0  0  0  0  0  0  0  0  0
    3.0343   17.2368    0.2398 H   0  0  0  0  0  0  0  0  0  0  0  0
    4.1209   16.8696   -1.1427 H   0  0  0  0  0  0  0  0  0  0  0  0
    3.1459   18.3783   -1.1427 H   0  0  0  0  0  0  0  0  0  0  0  0
    3.6790   12.8314   -4.1320 H   0  0  0  0  0  0  0  0  0  0  0  0
    2.4129   11.9615   -5.0631 H   0  0  0  0  0  0  0  0  0  0  0  0
    2.4533   13.7573   -5.0631 H   0  0  0  0  0  0  0  0  0  0  0  0
   -0.2820   12.8409   -4.1184 H   0  0  0  0  0  0  0  0  0  0  0  0
    0.7175   11.2877   -4.2671 H   0  0  0  0  0  0  0  0  0  0  0  0
   -0.8980   12.2257   -1.8800 H   0  0  0  0  0  0  0  0  0  0  0  0
   -1.1812   10.7897   -2.9409 H   0  0  0  0  0  0  0  0  0  0  0  0
    1.5023    8.6648   -1.8339 H   0  0  0  0  0  0  0  0  0  0  0  0
    0.3001    9.0252   -3.1190 H   0  0  0  0  0  0  0  0  0  0  0  0
    1.8918    9.8578   -3.1190 H   0  0  0  0  0  0  0  0  0  0  0  0
  1  2  1  0
  2  3  1  0
  3  4  1  0
  4  5  1  0
  5  6  1  0
  6  7  1  0
  7  8  1  0
  7  9  1  0
  2 10  1  0
 10 11  1  0
 11 12  1  0
 12 13  1  0
 13 14  1  1
 13 15  1  0
 15 16  1  0
 16 17  1  0
 17 18  2  0
 18 19  1  0
 19 20  1  0
 20 21  1  0
 21 22  1  0
 22 23  1  0
 22 24  1  0
 24 25  1  0
 24 26  1  0
 19 27  1  0
 27 28  1  6
 27 29  1  0
 29 30  1  0
 30 31  1  0
 31 32  1  6
  7  5  1  0
 31 10  1  0
 31 13  1  0
 27 15  1  0
 24 18  1  0
  1 33  1  0
  1 34  1  0
  1 35  1  0
  2 36  1  1
  3 37  1  0
  3 38  1  0
  4 39  1  0
  4 40  1  0
  5 41  1  1
  8 42  1  0
  8 43  1  0
  8 44  1  0
  9 45  1  0
  9 46  1  0
  9 47  1  0
 10 48  1  1
 11 49  1  0
 11 50  1  0
 12 51  1  0
 12 52  1  0
 14 53  1  0
 14 54  1  0
 14 55  1  0
 15 56  1  6
 16 57  1  0
 16 58  1  0
 17 59  1  0
 19 60  1  1
 20 61  1  0
 20 62  1  0
 21 63  1  0
 21 64  1  0
 22 65  1  1
 23 66  1  0
 25 67  1  0
 25 68  1  0
 25 69  1  0
 26 70  1  0
 26 71  1  0
 26 72  1  0
 28 73  1  0
 28 74  1  0
 28 75  1  0
 29 76  1  0
 29 77  1  0
 30 78  1  0
 30 79  1  0
 32 80  1  0
 32 81  1  0
 32 82  1  0
M  END
>  <meeko>  (8) 
{"is_sidechain": [false], "intermolecular_energy": 2.731, "internal_energy": -0.839}

$$$$
EPH_relaxed_0001_pdb2pqr_Repair_260_r2_0001_out
     RDKit          3D

 82 86  0  0  0  0  0  0  0  0999 V2000
  -11.4260    8.9070   -2.6950 C   0  0  0  0  0  0  0  0  0  0  0  0
  -11.0400    7.6420   -1.9240 C   0  0  2  0  0  0  0  0  0  0  0  0
  -12.1300    7.2190   -0.9180 C   0  0  0  0  0  0  0  0  0  0  0  0
  -13.5370    7.6830   -1.3040 C   0  0  0  0  0  0  0  0  0  0  0  0
  -13.7720    9.1140   -0.9270 C   0  0  2  0  0  0  0  0  0  0  0  0
  -15.1410    9.4460   -0.6590 O   0  0  0  0  0  0  0  0  0  0  0  0
  -14.5420   10.0930   -1.7940 C   0  0  0  0  0  0  0  0  0  0  0  0
  -15.1250    9.6780   -3.1080 C   0  0  0  0  0  0  0  0  0  0  0  0
  -14.3090   11.5580   -1.5990 C   0  0  0  0  0  0  0  0  0  0  0  0
   -9.7170    7.8590   -1.1980 C   0  0  1  0  0  0  0  0  0  0  0  0
   -9.8220    7.5940    0.3280 C   0  0  0  0  0  0  0  0  0  0  0  0
   -8.4690    6.9810    0.7700 C   0  0  0  0  0  0  0  0  0  0  0  0
   -7.5230    7.2180   -0.4310 C   0  0  1  0  0  0  0  0  0  0  0  0
   -7.0460    8.6970   -0.2790 C   0  0  0  0  0  0  0  0  0  0  0  0
   -6.3150    6.2340   -0.5650 C   0  0  2  0  0  0  0  0  0  0  0  0
   -5.3140    6.2670    0.6030 C   0  0  0  0  0  0  0  0  0  0  0  0
   -4.1830    7.2300    0.4460 C   0  0  0  0  0  0  0  0  0  0  0  0
   -3.8190    7.8280   -0.7030 C   0  0  0  0  0  0  0  0  0  0  0  0
   -4.5120    7.4790   -2.0270 C   0  0  1  0  0  0  0  0  0  0  0  0
   -3.4420    7.2560   -3.1280 C   0  0  0  0  0  0  0  0  0  0  0  0
   -2.4870    8.4380   -3.2630 C   0  0  0  0  0  0  0  0  0  0  0  0
   -1.7740    8.7170   -1.9430 C   0  0  2  0  0  0  0  0  0  0  0  0
   -0.9080    7.6180   -1.6450 O   0  0  0  0  0  0  0  0  0  0  0  0
   -2.7510    8.9480   -0.7560 C   0  0  0  0  0  0  0  0  0  0  0  0
   -3.4770   10.3040   -0.9370 C   0  0  0  0  0  0  0  0  0  0  0  0
   -1.9060    9.0780    0.5400 C   0  0  0  0  0  0  0  0  0  0  0  0
   -5.5760    6.3010   -1.9620 C   0  0  1  0  0  0  0  0  0  0  0  0
   -4.8630    4.9280   -2.1550 C   0  0  0  0  0  0  0  0  0  0  0  0
   -6.5820    6.4510   -3.1640 C   0  0  0  0  0  0  0  0  0  0  0  0
   -7.8170    7.3410   -2.9300 C   0  0  0  0  0  0  0  0  0  0  0  0
   -8.5200    6.9710   -1.6200 C   0  0  2  0  0  0  0  0  0  0  0  0
   -9.0300    5.4950   -1.7520 C   0  0  0  0  0  0  0  0  0  0  0  0
  -11.6709    9.7095   -1.9837 H   0  0  0  0  0  0  0  0  0  0  0  0
  -10.5832    9.2223   -3.3276 H   0  0  0  0  0  0  0  0  0  0  0  0
  -12.3013    8.6981   -3.3276 H   0  0  0  0  0  0  0  0  0  0  0  0
  -10.9333    6.8281   -2.6563 H   0  0  0  0  0  0  0  0  0  0  0  0
  -12.1328    6.1211   -0.8502 H   0  0  0  0  0  0  0  0  0  0  0  0
  -11.8854    7.6981    0.0415 H   0  0  0  0  0  0  0  0  0  0  0  0
  -13.6618    7.5759   -2.3916 H   0  0  0  0  0  0  0  0  0  0  0  0
  -14.2640    7.0616   -0.7605 H   0  0  0  0  0  0  0  0  0  0  0  0
  -12.7846    9.1733   -0.4459 H   0  0  0  0  0  0  0  0  0  0  0  0
  -16.0099    9.0481   -2.9340 H   0  0  0  0  0  0  0  0  0  0  0  0
  -15.4177   10.5721   -3.6780 H   0  0  0  0  0  0  0  0  0  0  0  0
  -14.3760    9.1087   -3.6780 H   0  0  0  0  0  0  0  0  0  0  0  0
  -14.2731   11.7835   -0.5230 H   0  0  0  0  0  0  0  0  0  0  0  0
  -13.3543   11.8427   -2.0653 H   0  0  0  0  0  0  0  0  0  0  0  0
  -15.1283   12.1248   -2.0653 H   0  0  0  0  0  0  0  0  0  0  0  0
   -9.5249    8.9061   -1.4749 H   0  0  0  0  0  0  0  0  0  0  0  0
  -10.0038    8.5369    0.8645 H   0  0  0  0  0  0  0  0  0  0  0  0
  -10.6563    6.9136    0.5540 H   0  0  0  0  0  0  0  0  0  0  0  0
   -8.0888    7.4869    1.6697 H   0  0  0  0  0  0  0  0  0  0  0  0
   -8.5578    5.9152    1.0274 H   0  0  0  0  0  0  0  0  0  0  0  0
   -6.9650    8.9482    0.7889 H   0  0  0  0  0  0  0  0  0  0  0  0
   -6.0637    8.8167   -0.7594 H   0  0  0  0  0  0  0  0  0  0  0  0
   -7.7733    9.3680   -0.7594 H   0  0  0  0  0  0  0  0  0  0  0  0
   -6.8049    5.2506   -0.5106 H   0  0  0  0  0  0  0  0  0  0  0  0
   -5.8655    6.5361    1.5160 H   0  0  0  0  0  0  0  0  0  0  0  0
   -4.8589    5.2664    0.6425 H   0  0  0  0  0  0  0  0  0  0  0  0
   -3.5981    7.4707    1.3460 H   0  0  0  0  0  0  0  0  0  0  0  0
   -5.1352    8.3484   -2.2834 H   0  0  0  0  0  0  0  0  0  0  0  0
   -2.8585    6.3582   -2.8761 H   0  0  0  0  0  0  0  0  0  0  0  0
   -3.9684    7.1406   -4.0869 H   0  0  0  0  0  0  0  0  0  0  0  0
   -1.7379    8.2091   -4.0353 H   0  0  0  0  0  0  0  0  0  0  0  0
   -3.0685    9.3288   -3.5429 H   0  0  0  0  0  0  0  0  0  0  0  0
   -1.2041    9.6496   -2.0671 H   0  0  0  0  0  0  0  0  0  0  0  0
   -0.0370    7.9840   -1.4140 H   0  0  0  0  0  0  0  0  0  0  0  0
   -3.7061   10.7319    0.0501 H   0  0  0  0  0  0  0  0  0  0  0  0
   -2.8285   10.9955   -1.4948 H   0  0  0  0  0  0  0  0  0  0  0  0
   -4.4121   10.1477   -1.4948 H   0  0  0  0  0  0  0  0  0  0  0  0
   -2.5621    8.9771    1.4171 H   0  0  0  0  0  0  0  0  0  0  0  0
   -1.1421    8.2868    0.5605 H   0  0  0  0  0  0  0  0  0  0  0  0
   -1.4152   10.0622    0.5605 H   0  0  0  0  0  0  0  0  0  0  0  0
   -4.6362    4.4912   -1.1713 H   0  0  0  0  0  0  0  0  0  0  0  0
   -5.5220    4.2481   -2.7149 H   0  0  0  0  0  0  0  0  0  0  0  0
   -3.9278    5.0760   -2.7149 H   0  0  0  0  0  0  0  0  0  0  0  0
   -6.0246    6.8722   -4.0137 H   0  0  0  0  0  0  0  0  0  0  0  0
   -6.9833    5.4405   -3.3308 H   0  0  0  0  0  0  0  0  0  0  0  0
   -7.4987    8.3929   -2.8828 H   0  0  0  0  0  0  0  0  0  0  0  0
   -8.5214    7.1885   -3.7610 H   0  0  0  0  0  0  0  0  0  0  0  0
   -9.1778    5.0671   -0.7495 H   0  0  0  0  0  0  0  0  0  0  0  0
   -9.9840    5.4843   -2.2996 H   0  0  0  0  0  0  0  0  0  0  0  0
   -8.2862    4.8976   -2.2996 H   0  0  0  0  0  0  0  0  0  0  0  0
  1  2  1  0
  2  3  1  0
  3  4  1  0
  4  5  1  0
  5  6  1  0
  6  7  1  0
  7  8  1  0
  7  9  1  0
  2 10  1  0
 10 11  1  0
 11 12  1  0
 12 13  1  0
 13 14  1  1
 13 15  1  0
 15 16  1  0
 16 17  1  0
 17 18  2  0
 18 19  1  0
 19 20  1  0
 20 21  1  0
 21 22  1  0
 22 23  1  0
 22 24  1  0
 24 25  1  0
 24 26  1  0
 19 27  1  0
 27 28  1  6
 27 29  1  0
 29 30  1  0
 30 31  1  0
 31 32  1  6
  7  5  1  0
 31 10  1  0
 31 13  1  0
 27 15  1  0
 24 18  1  0
  1 33  1  0
  1 34  1  0
  1 35  1  0
  2 36  1  6
  3 37  1  0
  3 38  1  0
  4 39  1  0
  4 40  1  0
  5 41  1  1
  8 42  1  0
  8 43  1  0
  8 44  1  0
  9 45  1  0
  9 46  1  0
  9 47  1  0
 10 48  1  1
 11 49  1  0
 11 50  1  0
 12 51  1  0
 12 52  1  0
 14 53  1  0
 14 54  1  0
 14 55  1  0
 15 56  1  6
 16 57  1  0
 16 58  1  0
 17 59  1  0
 19 60  1  6
 20 61  1  0
 20 62  1  0
 21 63  1  0
 21 64  1  0
 22 65  1  6
 23 66  1  0
 25 67  1  0
 25 68  1  0
 25 69  1  0
 26 70  1  0
 26 71  1  0
 26 72  1  0
 28 73  1  0
 28 74  1  0
 28 75  1  0
 29 76  1  0
 29 77  1  0
 30 78  1  0
 30 79  1  0
 32 80  1  0
 32 81  1  0
 32 82  1  0
M  END
>  <meeko>  (9) 
{"is_sidechain": [false], "intermolecular_energy": 2.731, "internal_energy": -0.839}

$$$$
EPH_relaxed_0001_pdb2pqr_Repair_260_r2_0001_out
     RDKit          3D

 82 86  0  0  0  0  0  0  0  0999 V2000
    2.6210   17.0420   -2.2360 C   0  0  0  0  0  0  0  0  0  0  0  0
    1.4340   17.1400   -3.1980 C   0  0  2  0  0  0  0  0  0  0  0  0
    0.3540   18.1160   -2.6910 C   0  0  0  0  0  0  0  0  0  0  0  0
    0.6040   18.6260   -1.2690 C   0  0  0  0  0  0  0  0  0  0  0  0
   -0.4240   19.6340   -0.8520 C   0  0  2  0  0  0  0  0  0  0  0  0
   -0.4160   19.9550    0.5450 O   0  0  0  0  0  0  0  0  0  0  0  0
   -1.5980   19.3060    0.0520 C   0  0  0  0  0  0  0  0  0  0  0  0
   -1.8050   17.9260    0.5920 C   0  0  0  0  0  0  0  0  0  0  0  0
   -2.8020   20.1940    0.0120 C   0  0  0  0  0  0  0  0  0  0  0  0
    0.8270   15.7600   -3.4180 C   0  0  1  0  0  0  0  0  0  0  0  0
    0.5730   15.4500   -4.9170 C   0  0  0  0  0  0  0  0  0  0  0  0
    0.8330   13.9340   -5.1110 C   0  0  0  0  0  0  0  0  0  0  0  0
    0.9010   13.3630   -3.6750 C   0  0  1  0  0  0  0  0  0  0  0  0
   -0.5890   13.1810   -3.2460 C   0  0  0  0  0  0  0  0  0  0  0  0
    1.7190   12.0430   -3.4940 C   0  0  2  0  0  0  0  0  0  0  0  0
    1.1740   10.8270   -4.2620 C   0  0  0  0  0  0  0  0  0  0  0  0
    0.1910    9.9880   -3.5140 C   0  0  0  0  0  0  0  0  0  0  0  0
   -0.0250   10.0330   -2.1860 C   0  0  0  0  0  0  0  0  0  0  0  0
    0.8310   10.9270   -1.2790 C   0  0  1  0  0  0  0  0  0  0  0  0
    1.2800   10.1200   -0.0330 C   0  0  0  0  0  0  0  0  0  0  0  0
    0.1070    9.4890    0.7100 C   0  0  0  0  0  0  0  0  0  0  0  0
   -0.6850    8.5620   -0.2090 C   0  0  2  0  0  0  0  0  0  0  0  0
    0.1370    7.4420   -0.5530 O   0  0  0  0  0  0  0  0  0  0  0  0
   -1.1820    9.2620   -1.5050 C   0  0  0  0  0  0  0  0  0  0  0  0
   -2.3000   10.2750   -1.1530 C   0  0  0  0  0  0  0  0  0  0  0  0
   -1.8420    8.1850   -2.4070 C   0  0  0  0  0  0  0  0  0  0  0  0
    2.0380   11.6800   -1.9870 C   0  0  1  0  0  0  0  0  0  0  0  0
    3.2990   10.7620   -2.0080 C   0  0  0  0  0  0  0  0  0  0  0  0
    2.4250   12.9460   -1.1360 C   0  0  0  0  0  0  0  0  0  0  0  0
    1.6640   14.2500   -1.4440 C   0  0  0  0  0  0  0  0  0  0  0  0
    1.6530   14.5360   -2.9480 C   0  0  2  0  0  0  0  0  0  0  0  0
    3.1370   14.7460   -3.4050 C   0  0  0  0  0  0  0  0  0  0  0  0
    2.2558   17.0721   -1.1988 H   0  0  0  0  0  0  0  0  0  0  0  0
    3.1561   16.0966   -2.4090 H   0  0  0  0  0  0  0  0  0  0  0  0
    3.3039   17.8868   -2.4090 H   0  0  0  0  0  0  0  0  0  0  0  0
    1.8139   17.5350   -4.1518 H   0  0  0  0  0  0  0  0  0  0  0  0
    0.3216   18.9812   -3.3696 H   0  0  0  0  0  0  0  0  0  0  0  0
   -0.5962   17.5622   -2.6715 H   0  0  0  0  0  0  0  0  0  0  0  0
    0.5703   17.7742   -0.5738 H   0  0  0  0  0  0  0  0  0  0  0  0
    1.5899   19.1135   -1.2483 H   0  0  0  0  0  0  0  0  0  0  0  0
   -0.3619   20.1364   -1.8286 H   0  0  0  0  0  0  0  0  0  0  0  0
   -1.8002   17.9580    1.6915 H   0  0  0  0  0  0  0  0  0  0  0  0
   -2.7717   17.5360    0.2407 H   0  0  0  0  0  0  0  0  0  0  0  0
   -0.9953   17.2695    0.2407 H   0  0  0  0  0  0  0  0  0  0  0  0
   -3.1193   20.4280    1.0389 H   0  0  0  0  0  0  0  0  0  0  0  0
   -2.5527   21.1262   -0.5162 H   0  0  0  0  0  0  0  0  0  0  0  0
   -3.6189   19.6805   -0.5162 H   0  0  0  0  0  0  0  0  0  0  0  0
   -0.0809   15.8592   -2.8050 H   0  0  0  0  0  0  0  0  0  0  0  0
   -0.4662   15.6931   -5.1832 H   0  0  0  0  0  0  0  0  0  0  0  0
    1.2329   16.0494   -5.5614 H   0  0  0  0  0  0  0  0  0  0  0  0
    0.0118   13.4683   -5.6756 H   0  0  0  0  0  0  0  0  0  0  0  0
    1.7527   13.7381   -5.6818 H   0  0  0  0  0  0  0  0  0  0  0  0
   -0.6561   13.1728   -2.1481 H   0  0  0  0  0  0  0  0  0  0  0  0
   -1.1893   14.0125   -3.6438 H   0  0  0  0  0  0  0  0  0  0  0  0
   -0.9715   12.2295   -3.6438 H   0  0  0  0  0  0  0  0  0  0  0  0
    2.6778   12.2922   -3.9722 H   0  0  0  0  0  0  0  0  0  0  0  0
    0.6822   11.1942   -5.1749 H   0  0  0  0  0  0  0  0  0  0  0  0
    2.0403   10.1782   -4.4585 H   0  0  0  0  0  0  0  0  0  0  0  0
   -0.4072    9.2727   -4.0974 H   0  0  0  0  0  0  0  0  0  0  0  0
    0.1812   11.7592   -0.9705 H   0  0  0  0  0  0  0  0  0  0  0  0
    1.9624    9.3208   -0.3578 H   0  0  0  0  0  0  0  0  0  0  0  0
    1.7744   10.8195    0.6570 H   0  0  0  0  0  0  0  0  0  0  0  0
    0.4906    8.9093    1.5625 H   0  0  0  0  0  0  0  0  0  0  0  0
   -0.5599   10.2909    1.0596 H   0  0  0  0  0  0  0  0  0  0  0  0
   -1.5834    8.2426    0.3395 H   0  0  0  0  0  0  0  0  0  0  0  0
   -0.2880    6.6440   -0.1940 H   0  0  0  0  0  0  0  0  0  0  0  0
   -2.3900   10.3565   -0.0597 H   0  0  0  0  0  0  0  0  0  0  0  0
   -2.0489   11.2594   -1.5747 H   0  0  0  0  0  0  0  0  0  0  0  0
   -3.2550    9.9283   -1.5747 H   0  0  0  0  0  0  0  0  0  0  0  0
   -2.3128    7.4167   -1.7761 H   0  0  0  0  0  0  0  0  0  0  0  0
   -2.6063    8.6568   -3.0421 H   0  0  0  0  0  0  0  0  0  0  0  0
   -1.0747    7.7182   -3.0421 H   0  0  0  0  0  0  0  0  0  0  0  0
    3.6067   10.5380   -0.9759 H   0  0  0  0  0  0  0  0  0  0  0  0
    3.0612    9.8242   -2.5314 H   0  0  0  0  0  0  0  0  0  0  0  0
    4.1184   11.2764   -2.5314 H   0  0  0  0  0  0  0  0  0  0  0  0
    2.2511   12.7014   -0.0777 H   0  0  0  0  0  0  0  0  0  0  0  0
    3.4732   13.1568   -1.3945 H   0  0  0  0  0  0  0  0  0  0  0  0
    0.6275   14.1543   -1.0883 H   0  0  0  0  0  0  0  0  0  0  0  0
    2.1714   15.0813   -0.9326 H   0  0  0  0  0  0  0  0  0  0  0  0
    3.7838   14.8375   -2.5199 H   0  0  0  0  0  0  0  0  0  0  0  0
    3.4604   13.8847   -4.0079 H   0  0  0  0  0  0  0  0  0  0  0  0
    3.2087   15.6632   -4.0079 H   0  0  0  0  0  0  0  0  0  0  0  0
  1  2  1  0
  2  3  1  0
  3  4  1  0
  4  5  1  0
  5  6  1  0
  6  7  1  0
  7  8  1  0
  7  9  1  0
  2 10  1  0
 10 11  1  0
 11 12  1  0
 12 13  1  0
 13 14  1  1
 13 15  1  0
 15 16  1  0
 16 17  1  0
 17 18  2  0
 18 19  1  0
 19 20  1  0
 20 21  1  0
 21 22  1  0
 22 23  1  0
 22 24  1  0
 24 25  1  0
 24 26  1  0
 19 27  1  0
 27 28  1  6
 27 29  1  0
 29 30  1  0
 30 31  1  0
 31 32  1  6
  7  5  1  0
 31 10  1  0
 31 13  1  0
 27 15  1  0
 24 18  1  0
  1 33  1  0
  1 34  1  0
  1 35  1  0
  2 36  1  6
  3 37  1  0
  3 38  1  0
  4 39  1  0
  4 40  1  0
  5 41  1  6
  8 42  1  0
  8 43  1  0
  8 44  1  0
  9 45  1  0
  9 46  1  0
  9 47  1  0
 10 48  1  1
 11 49  1  0
 11 50  1  0
 12 51  1  0
 12 52  1  0
 14 53  1  0
 14 54  1  0
 14 55  1  0
 15 56  1  6
 16 57  1  0
 16 58  1  0
 17 59  1  0
 19 60  1  1
 20 61  1  0
 20 62  1  0
 21 63  1  0
 21 64  1  0
 22 65  1  1
 23 66  1  0
 25 67  1  0
 25 68  1  0
 25 69  1  0
 26 70  1  0
 26 71  1  0
 26 72  1  0
 28 73  1  0
 28 74  1  0
 28 75  1  0
 29 76  1  0
 29 77  1  0
 30 78  1  0
 30 79  1  0
 32 80  1  0
 32 81  1  0
 32 82  1  0
M  END
>  <meeko>  (10) 
{"is_sidechain": [false], "intermolecular_energy": 2.731, "internal_energy": -0.839}

$$$$
EPH_relaxed_0001_pdb2pqr_Repair_260_r2_0001_out
     RDKit          3D

 82 86  0  0  0  0  0  0  0  0999 V2000
   -2.4510    9.3240    0.5650 C   0  0  0  0  0  0  0  0  0  0  0  0
   -3.1180    8.4210   -0.4760 C   0  0  2  0  0  0  0  0  0  0  0  0
   -2.4150    8.4980   -1.8470 C   0  0  0  0  0  0  0  0  0  0  0  0
   -0.9360    8.8820   -1.7600 C   0  0  0  0  0  0  0  0  0  0  0  0
   -0.6120   10.0440   -2.6490 C   0  0  2  0  0  0  0  0  0  0  0  0
    0.1460    9.7090   -3.8190 O   0  0  0  0  0  0  0  0  0  0  0  0
    0.7970   10.5640   -2.8650 C   0  0  0  0  0  0  0  0  0  0  0  0
    1.9740    9.9350   -2.1880 C   0  0  0  0  0  0  0  0  0  0  0  0
    0.9740   11.9720   -3.3410 C   0  0  0  0  0  0  0  0  0  0  0  0
   -4.5880    8.7950   -0.6230 C   0  0  1  0  0  0  0  0  0  0  0  0
   -4.8070    9.9870   -1.5930 C   0  0  0  0  0  0  0  0  0  0  0  0
   -6.1460    9.7240   -2.3290 C   0  0  0  0  0  0  0  0  0  0  0  0
   -6.8110    8.5780   -1.5310 C   0  0  1  0  0  0  0  0  0  0  0  0
   -7.4780    9.2770   -0.3050 C   0  0  0  0  0  0  0  0  0  0  0  0
   -7.8330    7.6920   -2.3160 C   0  0  2  0  0  0  0  0  0  0  0  0
   -9.0740    8.4360   -2.8400 C   0  0  0  0  0  0  0  0  0  0  0  0
  -10.2410    8.4640   -1.9090 C   0  0  0  0  0  0  0  0  0  0  0  0
  -10.3970    7.6790   -0.8270 C   0  0  0  0  0  0  0  0  0  0  0  0
   -9.3820    6.5760   -0.5010 C   0  0  1  0  0  0  0  0  0  0  0  0
  -10.1360    5.2650   -0.1530 C   0  0  0  0  0  0  0  0  0  0  0  0
  -11.1650    5.4590    0.9570 C   0  0  0  0  0  0  0  0  0  0  0  0
  -12.1900    6.5220    0.5710 C   0  0  2  0  0  0  0  0  0  0  0  0
  -12.9690    6.0350   -0.5260 O   0  0  0  0  0  0  0  0  0  0  0  0
  -11.5460    7.8850    0.1910 C   0  0  0  0  0  0  0  0  0  0  0  0
  -10.9600    8.5550    1.4580 C   0  0  0  0  0  0  0  0  0  0  0  0
  -12.6760    8.8220   -0.3130 C   0  0  0  0  0  0  0  0  0  0  0  0
   -8.2320    6.3520   -1.5750 C   0  0  1  0  0  0  0  0  0  0  0  0
   -8.7190    5.3620   -2.6770 C   0  0  0  0  0  0  0  0  0  0  0  0
   -7.0010    5.6660   -0.8740 C   0  0  0  0  0  0  0  0  0  0  0  0
   -5.9640    6.6000   -0.2200 C   0  0  0  0  0  0  0  0  0  0  0  0
   -5.5450    7.7140   -1.1840 C   0  0  2  0  0  0  0  0  0  0  0  0
   -4.8510    7.0420   -2.4180 C   0  0  0  0  0  0  0  0  0  0  0  0
   -2.7102    8.9731    1.5748 H   0  0  0  0  0  0  0  0  0  0  0  0
   -1.3593    9.2902    0.4341 H   0  0  0  0  0  0  0  0  0  0  0  0
   -2.8042   10.3575    0.4341 H   0  0  0  0  0  0  0  0  0  0  0  0
   -3.0322    7.3843   -0.1185 H   0  0  0  0  0  0  0  0  0  0  0  0
   -2.4901    7.5133   -2.3314 H   0  0  0  0  0  0  0  0  0  0  0  0
   -2.9188    9.2887   -2.4223 H   0  0  0  0  0  0  0  0  0  0  0  0
   -0.6982    9.1513   -0.7203 H   0  0  0  0  0  0  0  0  0  0  0  0
   -0.3379    8.0200   -2.0905 H   0  0  0  0  0  0  0  0  0  0  0  0
   -1.5501   10.5477   -2.3730 H   0  0  0  0  0  0  0  0  0  0  0  0
    1.8486   10.0020   -1.0972 H   0  0  0  0  0  0  0  0  0  0  0  0
    2.0460    8.8782   -2.4846 H   0  0  0  0  0  0  0  0  0  0  0  0
    2.8926   10.4624   -2.4846 H   0  0  0  0  0  0  0  0  0  0  0  0
    1.0585   12.6441   -2.4744 H   0  0  0  0  0  0  0  0  0  0  0  0
    1.8879   12.0413   -3.9492 H   0  0  0  0  0  0  0  0  0  0  0  0
    0.1057   12.2653   -3.9492 H   0  0  0  0  0  0  0  0  0  0  0  0
   -4.8311    9.0024    0.4296 H   0  0  0  0  0  0  0  0  0  0  0  0
   -4.8637   10.9294   -1.0285 H   0  0  0  0  0  0  0  0  0  0  0  0
   -3.9743   10.0739   -2.3065 H   0  0  0  0  0  0  0  0  0  0  0  0
   -6.7789   10.6236   -2.3172 H   0  0  0  0  0  0  0  0  0  0  0  0
   -5.9963    9.4635   -3.3872 H   0  0  0  0  0  0  0  0  0  0  0  0
   -7.0723    8.8519    0.6249 H   0  0  0  0  0  0  0  0  0  0  0  0
   -7.2661   10.3559   -0.3380 H   0  0  0  0  0  0  0  0  0  0  0  0
   -8.5656    9.1158   -0.3380 H   0  0  0  0  0  0  0  0  0  0  0  0
   -7.2587    7.4039   -3.2089 H   0  0  0  0  0  0  0  0  0  0  0  0
   -8.7830    9.4755   -3.0516 H   0  0  0  0  0  0  0  0  0  0  0  0
   -9.4078    7.8821   -3.7299 H   0  0  0  0  0  0  0  0  0  0  0  0
  -11.0408    9.1874   -2.1258 H   0  0  0  0  0  0  0  0  0  0  0  0
   -8.8213    6.9287    0.3772 H   0  0  0  0  0  0  0  0  0  0  0  0
  -10.6535    4.9058   -1.0548 H   0  0  0  0  0  0  0  0  0  0  0  0
   -9.3927    4.5370    0.2042 H   0  0  0  0  0  0  0  0  0  0  0  0
  -11.6847    4.5063    1.1367 H   0  0  0  0  0  0  0  0  0  0  0  0
  -10.6421    5.7894    1.8666 H   0  0  0  0  0  0  0  0  0  0  0  0
  -12.8200    6.7083    1.4533 H   0  0  0  0  0  0  0  0  0  0  0  0
  -13.3990    5.2120   -0.2380 H   0  0  0  0  0  0  0  0  0  0  0  0
  -11.3799    8.0749    2.3542 H   0  0  0  0  0  0  0  0  0  0  0  0
   -9.8658    8.4417    1.4599 H   0  0  0  0  0  0  0  0  0  0  0  0
  -11.2179    9.6243    1.4599 H   0  0  0  0  0  0  0  0  0  0  0  0
  -13.2022    9.2583    0.5488 H   0  0  0  0  0  0  0  0  0  0  0  0
  -12.2400    9.6273   -0.9225 H   0  0  0  0  0  0  0  0  0  0  0  0
  -13.3866    8.2445   -0.9225 H   0  0  0  0  0  0  0  0  0  0  0  0
   -9.1570    4.4716   -2.2024 H   0  0  0  0  0  0  0  0  0  0  0  0
   -9.4777    5.8545   -3.3030 H   0  0  0  0  0  0  0  0  0  0  0  0
   -7.8658    5.0616   -3.3030 H   0  0  0  0  0  0  0  0  0  0  0  0
   -7.3925    5.0021   -0.0892 H   0  0  0  0  0  0  0  0  0  0  0  0
   -6.4580    5.1544   -1.6823 H   0  0  0  0  0  0  0  0  0  0  0  0
   -6.4040    7.0510    0.6817 H   0  0  0  0  0  0  0  0  0  0  0  0
   -5.0740    6.0084    0.0406 H   0  0  0  0  0  0  0  0  0  0  0  0
   -4.1020    6.3167   -2.0674 H   0  0  0  0  0  0  0  0  0  0  0  0
   -5.6067    6.5236   -3.0264 H   0  0  0  0  0  0  0  0  0  0  0  0
   -4.3572    7.8140   -3.0264 H   0  0  0  0  0  0  0  0  0  0  0  0
  1  2  1  0
  2  3  1  0
  3  4  1  0
  4  5  1  0
  5  6  1  0
  6  7  1  0
  7  8  1  0
  7  9  1  0
  2 10  1  0
 10 11  1  0
 11 12  1  0
 12 13  1  0
 13 14  1  1
 13 15  1  0
 15 16  1  0
 16 17  1  0
 17 18  2  0
 18 19  1  0
 19 20  1  0
 20 21  1  0
 21 22  1  0
 22 23  1  0
 22 24  1  0
 24 25  1  0
 24 26  1  0
 19 27  1  0
 27 28  1  6
 27 29  1  0
 29 30  1  0
 30 31  1  0
 31 32  1  6
  7  5  1  0
 31 10  1  0
 31 13  1  0
 27 15  1  0
 24 18  1  0
  1 33  1  0
  1 34  1  0
  1 35  1  0
  2 36  1  1
  3 37  1  0
  3 38  1  0
  4 39  1  0
  4 40  1  0
  5 41  1  6
  8 42  1  0
  8 43  1  0
  8 44  1  0
  9 45  1  0
  9 46  1  0
  9 47  1  0
 10 48  1  1
 11 49  1  0
 11 50  1  0
 12 51  1  0
 12 52  1  0
 14 53  1  0
 14 54  1  0
 14 55  1  0
 15 56  1  6
 16 57  1  0
 16 58  1  0
 17 59  1  0
 19 60  1  1
 20 61  1  0
 20 62  1  0
 21 63  1  0
 21 64  1  0
 22 65  1  1
 23 66  1  0
 25 67  1  0
 25 68  1  0
 25 69  1  0
 26 70  1  0
 26 71  1  0
 26 72  1  0
 28 73  1  0
 28 74  1  0
 28 75  1  0
 29 76  1  0
 29 77  1  0
 30 78  1  0
 30 79  1  0
 32 80  1  0
 32 81  1  0
 32 82  1  0
M  END
>  <meeko>  (11) 
{"is_sidechain": [false], "intermolecular_energy": 2.731, "internal_energy": -0.839}

$$$$
EPH_relaxed_0001_pdb2pqr_Repair_260_r2_0001_out
     RDKit          3D

 82 86  0  0  0  0  0  0  0  0999 V2000
    0.9410   11.9300   -3.6430 C   0  0  0  0  0  0  0  0  0  0  0  0
    1.2340   11.2320   -2.3120 C   0  0  2  0  0  0  0  0  0  0  0  0
    2.7010   10.7670   -2.2110 C   0  0  0  0  0  0  0  0  0  0  0  0
    3.5200   11.0340   -3.4770 C   0  0  0  0  0  0  0  0  0  0  0  0
    4.9800   11.1790   -3.1720 C   0  0  2  0  0  0  0  0  0  0  0  0
    5.6480   12.2060   -3.9150 O   0  0  0  0  0  0  0  0  0  0  0  0
    6.0780   10.8590   -4.1690 C   0  0  0  0  0  0  0  0  0  0  0  0
    5.7630   10.3690   -5.5470 C   0  0  0  0  0  0  0  0  0  0  0  0
    7.4500   10.5570   -3.6500 C   0  0  0  0  0  0  0  0  0  0  0  0
    0.2970   10.0440   -2.1310 C   0  0  1  0  0  0  0  0  0  0  0  0
    0.9960    8.8280   -1.4660 C   0  0  0  0  0  0  0  0  0  0  0  0
   -0.0650    8.1370   -0.5710 C   0  0  0  0  0  0  0  0  0  0  0  0
   -1.4100    8.7680   -1.0020 C   0  0  1  0  0  0  0  0  0  0  0  0
   -1.8170    7.9980   -2.2980 C   0  0  0  0  0  0  0  0  0  0  0  0
   -2.5540    8.7510    0.0630 C   0  0  2  0  0  0  0  0  0  0  0  0
   -3.0200    7.3500    0.4980 C   0  0  0  0  0  0  0  0  0  0  0  0
   -4.1390    6.7730   -0.3030 C   0  0  0  0  0  0  0  0  0  0  0  0
   -4.9360    7.4600   -1.1430 C   0  0  0  0  0  0  0  0  0  0  0  0
   -4.8090    8.9830   -1.2790 C   0  0  1  0  0  0  0  0  0  0  0  0
   -6.2200    9.6260   -1.2270 C   0  0  0  0  0  0  0  0  0  0  0  0
   -7.1750    9.0260   -2.2550 C   0  0  0  0  0  0  0  0  0  0  0  0
   -7.3190    7.5200   -2.0510 C   0  0  2  0  0  0  0  0  0  0  0  0
   -7.9790    7.2850   -0.8030 O   0  0  0  0  0  0  0  0  0  0  0  0
   -5.9600    6.7650   -2.0730 C   0  0  0  0  0  0  0  0  0  0  0  0
   -5.3890    6.7660   -3.5130 C   0  0  0  0  0  0  0  0  0  0  0  0
   -6.2330    5.2790   -1.7150 C   0  0  0  0  0  0  0  0  0  0  0  0
   -3.7820    9.6840   -0.2900 C   0  0  1  0  0  0  0  0  0  0  0  0
   -4.4880   10.0200    1.0590 C   0  0  0  0  0  0  0  0  0  0  0  0
   -3.3300   11.0590   -0.9090 C   0  0  0  0  0  0  0  0  0  0  0  0
   -2.1190   11.0280   -1.8610 C   0  0  0  0  0  0  0  0  0  0  0  0
   -0.9530   10.2530   -1.2390 C   0  0  2  0  0  0  0  0  0  0  0  0
   -0.5070   11.0160    0.0540 C   0  0  0  0  0  0  0  0  0  0  0  0
    0.5219   12.9284   -3.4490 H   0  0  0  0  0  0  0  0  0  0  0  0
    1.8734   12.0292   -4.2181 H   0  0  0  0  0  0  0  0  0  0  0  0
    0.2172   11.3339   -4.2181 H   0  0  0  0  0  0  0  0  0  0  0  0
    1.0641   11.9647   -1.5093 H   0  0  0  0  0  0  0  0  0  0  0  0
    3.1761   11.2964   -1.3720 H   0  0  0  0  0  0  0  0  0  0  0  0
    2.6833    9.6771   -2.0636 H   0  0  0  0  0  0  0  0  0  0  0  0
    3.3831   10.1941   -4.1740 H   0  0  0  0  0  0  0  0  0  0  0  0
    3.1672   11.9764   -3.9214 H   0  0  0  0  0  0  0  0  0  0  0  0
    4.8170   10.8696   -2.1291 H   0  0  0  0  0  0  0  0  0  0  0  0
    5.1692    9.4454   -5.4809 H   0  0  0  0  0  0  0  0  0  0  0  0
    5.1886   11.1364   -6.0866 H   0  0  0  0  0  0  0  0  0  0  0  0
    6.6996   10.1650   -6.0866 H   0  0  0  0  0  0  0  0  0  0  0  0
    7.4349   10.5603   -2.5501 H   0  0  0  0  0  0  0  0  0  0  0  0
    7.7683    9.5673   -4.0093 H   0  0  0  0  0  0  0  0  0  0  0  0
    8.1545   11.3216   -4.0093 H   0  0  0  0  0  0  0  0  0  0  0  0
   -0.0084    9.8892   -3.1763 H   0  0  0  0  0  0  0  0  0  0  0  0
    1.3549    8.1295   -2.2362 H   0  0  0  0  0  0  0  0  0  0  0  0
    1.8655    9.1478   -0.8729 H   0  0  0  0  0  0  0  0  0  0  0  0
   -0.0721    7.0509   -0.7452 H   0  0  0  0  0  0  0  0  0  0  0  0
    0.1376    8.2784    0.5009 H   0  0  0  0  0  0  0  0  0  0  0  0
   -2.3148    7.0562   -2.0239 H   0  0  0  0  0  0  0  0  0  0  0  0
   -2.5055    8.6174   -2.8916 H   0  0  0  0  0  0  0  0  0  0  0  0
   -0.9174    7.7780   -2.8916 H   0  0  0  0  0  0  0  0  0  0  0  0
   -2.0624    9.1896    0.9439 H   0  0  0  0  0  0  0  0  0  0  0  0
   -2.1607    6.6674    0.4225 H   0  0  0  0  0  0  0  0  0  0  0  0
   -3.4052    7.4619    1.5222 H   0  0  0  0  0  0  0  0  0  0  0  0
   -4.3289    5.6946   -0.1983 H   0  0  0  0  0  0  0  0  0  0  0  0
   -4.3520    9.1640   -2.2631 H   0  0  0  0  0  0  0  0  0  0  0  0
   -6.6410    9.4717   -0.2225 H   0  0  0  0  0  0  0  0  0  0  0  0
   -6.1083   10.6953   -1.4594 H   0  0  0  0  0  0  0  0  0  0  0  0
   -8.1621    9.4998   -2.1491 H   0  0  0  0  0  0  0  0  0  0  0  0
   -6.7678    9.2070   -3.2607 H   0  0  0  0  0  0  0  0  0  0  0  0
   -7.9087    7.1285   -2.8930 H   0  0  0  0  0  0  0  0  0  0  0  0
   -7.2930    7.1680   -0.1240 H   0  0  0  0  0  0  0  0  0  0  0  0
   -4.2898    6.7679   -3.4716 H   0  0  0  0  0  0  0  0  0  0  0  0
   -5.7343    5.8672   -4.0450 H   0  0  0  0  0  0  0  0  0  0  0  0
   -5.7374    7.6635   -4.0450 H   0  0  0  0  0  0  0  0  0  0  0  0
   -6.2543    5.1633   -0.6213 H   0  0  0  0  0  0  0  0  0  0  0  0
   -7.2024    4.9728   -2.1350 H   0  0  0  0  0  0  0  0  0  0  0  0
   -5.4357    4.6482   -2.1350 H   0  0  0  0  0  0  0  0  0  0  0  0
   -3.8438    9.7134    1.8963 H   0  0  0  0  0  0  0  0  0  0  0  0
   -4.6732   11.1028    1.1162 H   0  0  0  0  0  0  0  0  0  0  0  0
   -5.4451    9.4808    1.1162 H   0  0  0  0  0  0  0  0  0  0  0  0
   -4.1835   11.4681   -1.4695 H   0  0  0  0  0  0  0  0  0  0  0  0
   -3.0066   11.6679   -0.0519 H   0  0  0  0  0  0  0  0  0  0  0  0
   -2.4135   10.5410   -2.8023 H   0  0  0  0  0  0  0  0  0  0  0  0
   -1.7932   12.0618   -2.0482 H   0  0  0  0  0  0  0  0  0  0  0  0
   -0.8347   10.4555    0.9419 H   0  0  0  0  0  0  0  0  0  0  0  0
    0.5888   11.1110    0.0641 H   0  0  0  0  0  0  0  0  0  0  0  0
   -0.9619   12.0175    0.0641 H   0  0  0  0  0  0  0  0  0  0  0  0
  1  2  1  0
  2  3  1  0
  3  4  1  0
  4  5  1  0
  5  6  1  0
  6  7  1  0
  7  8  1  0
  7  9  1  0
  2 10  1  0
 10 11  1  0
 11 12  1  0
 12 13  1  0
 13 14  1  6
 13 15  1  0
 15 16  1  0
 16 17  1  0
 17 18  2  0
 18 19  1  0
 19 20  1  0
 20 21  1  0
 21 22  1  0
 22 23  1  0
 22 24  1  0
 24 25  1  0
 24 26  1  0
 19 27  1  0
 27 28  1  1
 27 29  1  0
 29 30  1  0
 30 31  1  0
 31 32  1  1
  7  5  1  0
 31 10  1  0
 31 13  1  0
 27 15  1  0
 24 18  1  0
  1 33  1  0
  1 34  1  0
  1 35  1  0
  2 36  1  1
  3 37  1  0
  3 38  1  0
  4 39  1  0
  4 40  1  0
  5 41  1  1
  8 42  1  0
  8 43  1  0
  8 44  1  0
  9 45  1  0
  9 46  1  0
  9 47  1  0
 10 48  1  6
 11 49  1  0
 11 50  1  0
 12 51  1  0
 12 52  1  0
 14 53  1  0
 14 54  1  0
 14 55  1  0
 15 56  1  1
 16 57  1  0
 16 58  1  0
 17 59  1  0
 19 60  1  6
 20 61  1  0
 20 62  1  0
 21 63  1  0
 21 64  1  0
 22 65  1  6
 23 66  1  0
 25 67  1  0
 25 68  1  0
 25 69  1  0
 26 70  1  0
 26 71  1  0
 26 72  1  0
 28 73  1  0
 28 74  1  0
 28 75  1  0
 29 76  1  0
 29 77  1  0
 30 78  1  0
 30 79  1  0
 32 80  1  0
 32 81  1  0
 32 82  1  0
M  END
>  <meeko>  (12) 
{"is_sidechain": [false], "intermolecular_energy": 2.731, "internal_energy": -0.839}

$$$$
EPH_relaxed_0001_pdb2pqr_Repair_260_r2_0001_out
     RDKit          3D

 82 86  0  0  0  0  0  0  0  0999 V2000
   -2.1160    7.7190   -2.3010 C   0  0  0  0  0  0  0  0  0  0  0  0
   -1.8950    8.3010   -0.9020 C   0  0  2  0  0  0  0  0  0  0  0  0
   -3.1920    8.3200   -0.0690 C   0  0  0  0  0  0  0  0  0  0  0  0
   -4.4580    8.5190   -0.9070 C   0  0  0  0  0  0  0  0  0  0  0  0
   -5.3100    7.2870   -0.9240 C   0  0  2  0  0  0  0  0  0  0  0  0
   -5.4530    6.6760   -2.2130 O   0  0  0  0  0  0  0  0  0  0  0  0
   -6.6530    7.2080   -1.6280 C   0  0  0  0  0  0  0  0  0  0  0  0
   -7.2190    8.3820   -2.3610 C   0  0  0  0  0  0  0  0  0  0  0  0
   -7.6280    6.1580   -1.1930 C   0  0  0  0  0  0  0  0  0  0  0  0
   -1.3230    9.7100   -1.0090 C   0  0  1  0  0  0  0  0  0  0  0  0
   -0.7150   10.2120    0.3280 C   0  0  0  0  0  0  0  0  0  0  0  0
    0.5070   11.0920   -0.0390 C   0  0  0  0  0  0  0  0  0  0  0  0
    0.3670   11.3390   -1.5590 C   0  0  1  0  0  0  0  0  0  0  0  0
   -0.6660   12.5020   -1.6830 C   0  0  0  0  0  0  0  0  0  0  0  0
    1.6890   11.6570   -2.3320 C   0  0  2  0  0  0  0  0  0  0  0  0
    2.4060   12.9460   -1.8950 C   0  0  0  0  0  0  0  0  0  0  0  0
    2.0080   14.1800   -2.6360 C   0  0  0  0  0  0  0  0  0  0  0  0
    1.3260   14.2100   -3.7960 C   0  0  0  0  0  0  0  0  0  0  0  0
    0.9680   12.9130   -4.5330 C   0  0  1  0  0  0  0  0  0  0  0  0
    1.3060   13.0630   -6.0390 C   0  0  0  0  0  0  0  0  0  0  0  0
    0.6510   14.2900   -6.6660 C   0  0  0  0  0  0  0  0  0  0  0  0
    1.0760   15.5650   -5.9420 C   0  0  2  0  0  0  0  0  0  0  0  0
    2.4730   15.7790   -6.1690 O   0  0  0  0  0  0  0  0  0  0  0  0
    0.7940   15.5260   -4.4150 C   0  0  0  0  0  0  0  0  0  0  0  0
   -0.7330   15.5980   -4.1650 C   0  0  0  0  0  0  0  0  0  0  0  0
    1.3980   16.8100   -3.7840 C   0  0  0  0  0  0  0  0  0  0  0  0
    1.5550   11.5750   -3.9070 C   0  0  1  0  0  0  0  0  0  0  0  0
    2.9880   11.3110   -4.4620 C   0  0  0  0  0  0  0  0  0  0  0  0
    0.6680   10.3590   -4.3690 C   0  0  0  0  0  0  0  0  0  0  0  0
   -0.5560   10.0200   -3.4970 C   0  0  0  0  0  0  0  0  0  0  0  0
   -0.1690    9.9340   -2.0180 C   0  0  2  0  0  0  0  0  0  0  0  0
    0.8530    8.7580   -1.8590 C   0  0  0  0  0  0  0  0  0  0  0  0
   -2.5053    6.6938   -2.2144 H   0  0  0  0  0  0  0  0  0  0  0  0
   -2.8404    8.3414   -2.8468 H   0  0  0  0  0  0  0  0  0  0  0  0
   -1.1611    7.7037   -2.8468 H   0  0  0  0  0  0  0  0  0  0  0  0
   -1.1788    7.6481   -0.3817 H   0  0  0  0  0  0  0  0  0  0  0  0
   -3.2759    7.3620    0.4651 H   0  0  0  0  0  0  0  0  0  0  0  0
   -3.1217    9.1775    0.6164 H   0  0  0  0  0  0  0  0  0  0  0  0
   -5.0404    9.3495   -0.4814 H   0  0  0  0  0  0  0  0  0  0  0  0
   -4.1539    8.7402   -1.9407 H   0  0  0  0  0  0  0  0  0  0  0  0
   -4.9959    7.0268    0.0976 H   0  0  0  0  0  0  0  0  0  0  0  0
   -7.5786    9.1278   -1.6368 H   0  0  0  0  0  0  0  0  0  0  0  0
   -6.4384    8.8310   -2.9927 H   0  0  0  0  0  0  0  0  0  0  0  0
   -8.0564    8.0509   -2.9927 H   0  0  0  0  0  0  0  0  0  0  0  0
   -7.6617    6.1217   -0.0941 H   0  0  0  0  0  0  0  0  0  0  0  0
   -8.6274    6.4017   -1.5827 H   0  0  0  0  0  0  0  0  0  0  0  0
   -7.3111    5.1794   -1.5827 H   0  0  0  0  0  0  0  0  0  0  0  0
   -2.2228   10.2492   -1.3402 H   0  0  0  0  0  0  0  0  0  0  0  0
   -1.4568   10.8059    0.8821 H   0  0  0  0  0  0  0  0  0  0  0  0
   -0.4163    9.3683    0.9675 H   0  0  0  0  0  0  0  0  0  0  0  0
    0.4805   12.0431    0.5131 H   0  0  0  0  0  0  0  0  0  0  0  0
    1.4612   10.6095    0.2192 H   0  0  0  0  0  0  0  0  0  0  0  0
   -0.9635   12.8369   -0.6783 H   0  0  0  0  0  0  0  0  0  0  0  0
   -0.2099   13.3409   -2.2290 H   0  0  0  0  0  0  0  0  0  0  0  0
   -1.5529   12.1480   -2.2290 H   0  0  0  0  0  0  0  0  0  0  0  0
    2.3467   10.8306   -2.0246 H   0  0  0  0  0  0  0  0  0  0  0  0
    2.1945   13.1074   -0.8277 H   0  0  0  0  0  0  0  0  0  0  0  0
    3.4726   12.7902   -2.1142 H   0  0  0  0  0  0  0  0  0  0  0  0
    2.2967   15.1462   -2.1966 H   0  0  0  0  0  0  0  0  0  0  0  0
   -0.1164   12.7803   -4.4049 H   0  0  0  0  0  0  0  0  0  0  0  0
    2.3970   13.1509   -6.1485 H   0  0  0  0  0  0  0  0  0  0  0  0
    0.9174   12.1748   -6.5586 H   0  0  0  0  0  0  0  0  0  0  0  0
    0.9514   14.3584   -7.7220 H   0  0  0  0  0  0  0  0  0  0  0  0
   -0.4409   14.1863   -6.5828 H   0  0  0  0  0  0  0  0  0  0  0  0
    0.4757   16.3919   -6.3494 H   0  0  0  0  0  0  0  0  0  0  0  0
    2.9180   14.9180   -6.0960 H   0  0  0  0  0  0  0  0  0  0  0  0
   -0.9273   15.6072   -3.0823 H   0  0  0  0  0  0  0  0  0  0  0  0
   -1.1358   16.5161   -4.6176 H   0  0  0  0  0  0  0  0  0  0  0  0
   -1.2204   14.7218   -4.6176 H   0  0  0  0  0  0  0  0  0  0  0  0
    1.3612   16.7318   -2.6874 H   0  0  0  0  0  0  0  0  0  0  0  0
    2.4430   16.9215   -4.1088 H   0  0  0  0  0  0  0  0  0  0  0  0
    0.8176   17.6861   -4.1088 H   0  0  0  0  0  0  0  0  0  0  0  0
    3.6880   11.1820   -3.6233 H   0  0  0  0  0  0  0  0  0  0  0  0
    2.9807   10.3991   -5.0771 H   0  0  0  0  0  0  0  0  0  0  0  0
    3.3062   12.1656   -5.0771 H   0  0  0  0  0  0  0  0  0  0  0  0
    0.3031   10.5798   -5.3830 H   0  0  0  0  0  0  0  0  0  0  0  0
    1.3251    9.4799   -4.2962 H   0  0  0  0  0  0  0  0  0  0  0  0
   -1.3169   10.8040   -3.6247 H   0  0  0  0  0  0  0  0  0  0  0  0
   -0.9519    9.0436   -3.8131 H   0  0  0  0  0  0  0  0  0  0  0  0
    1.0232    8.5621   -0.7900 H   0  0  0  0  0  0  0  0  0  0  0  0
    0.4489    7.8538   -2.3376 H   0  0  0  0  0  0  0  0  0  0  0  0
    1.8047    9.0321   -2.3376 H   0  0  0  0  0  0  0  0  0  0  0  0
  1  2  1  0
  2  3  1  0
  3  4  1  0
  4  5  1  0
  5  6  1  0
  6  7  1  0
  7  8  1  0
  7  9  1  0
  2 10  1  0
 10 11  1  0
 11 12  1  0
 12 13  1  0
 13 14  1  1
 13 15  1  0
 15 16  1  0
 16 17  1  0
 17 18  2  0
 18 19  1  0
 19 20  1  0
 20 21  1  0
 21 22  1  0
 22 23  1  0
 22 24  1  0
 24 25  1  0
 24 26  1  0
 19 27  1  0
 27 28  1  6
 27 29  1  0
 29 30  1  0
 30 31  1  0
 31 32  1  6
  7  5  1  0
 31 10  1  0
 31 13  1  0
 27 15  1  0
 24 18  1  0
  1 33  1  0
  1 34  1  0
  1 35  1  0
  2 36  1  1
  3 37  1  0
  3 38  1  0
  4 39  1  0
  4 40  1  0
  5 41  1  1
  8 42  1  0
  8 43  1  0
  8 44  1  0
  9 45  1  0
  9 46  1  0
  9 47  1  0
 10 48  1  6
 11 49  1  0
 11 50  1  0
 12 51  1  0
 12 52  1  0
 14 53  1  0
 14 54  1  0
 14 55  1  0
 15 56  1  1
 16 57  1  0
 16 58  1  0
 17 59  1  0
 19 60  1  6
 20 61  1  0
 20 62  1  0
 21 63  1  0
 21 64  1  0
 22 65  1  6
 23 66  1  0
 25 67  1  0
 25 68  1  0
 25 69  1  0
 26 70  1  0
 26 71  1  0
 26 72  1  0
 28 73  1  0
 28 74  1  0
 28 75  1  0
 29 76  1  0
 29 77  1  0
 30 78  1  0
 30 79  1  0
 32 80  1  0
 32 81  1  0
 32 82  1  0
M  END
>  <meeko>  (13) 
{"is_sidechain": [false], "intermolecular_energy": 2.731, "internal_energy": -0.839}

$$$$
EPH_relaxed_0001_pdb2pqr_Repair_260_r2_0001_out
     RDKit          3D

 82 86  0  0  0  0  0  0  0  0999 V2000
   -4.7080    6.3980    0.6640 C   0  0  0  0  0  0  0  0  0  0  0  0
   -4.8670    7.0120   -0.7290 C   0  0  2  0  0  0  0  0  0  0  0  0
   -3.6680    7.9040   -1.1100 C   0  0  0  0  0  0  0  0  0  0  0  0
   -3.2640    8.8930   -0.0130 C   0  0  0  0  0  0  0  0  0  0  0  0
   -2.2850    9.9100   -0.5170 C   0  0  2  0  0  0  0  0  0  0  0  0
   -1.6650    9.5770   -1.7660 O   0  0  0  0  0  0  0  0  0  0  0  0
   -0.7940    9.6540   -0.6270 C   0  0  0  0  0  0  0  0  0  0  0  0
   -0.1960    8.3400   -0.2280 C   0  0  0  0  0  0  0  0  0  0  0  0
    0.1340   10.8280   -0.6550 C   0  0  0  0  0  0  0  0  0  0  0  0
   -6.1590    7.8170   -0.7980 C   0  0  1  0  0  0  0  0  0  0  0  0
   -5.9850    9.1610   -1.5540 C   0  0  0  0  0  0  0  0  0  0  0  0
   -7.3130    9.4230   -2.3120 C   0  0  0  0  0  0  0  0  0  0  0  0
   -8.3120    8.4070   -1.7100 C   0  0  1  0  0  0  0  0  0  0  0  0
   -8.7960    9.0620   -0.3780 C   0  0  0  0  0  0  0  0  0  0  0  0
   -9.5140    7.9970   -2.6210 C   0  0  2  0  0  0  0  0  0  0  0  0
  -10.4650    9.1450   -3.0030 C   0  0  0  0  0  0  0  0  0  0  0  0
  -11.6100    9.3610   -2.0700 C   0  0  0  0  0  0  0  0  0  0  0  0
  -12.0290    8.4920   -1.1320 C   0  0  0  0  0  0  0  0  0  0  0  0
  -11.3910    7.1030   -1.0030 C   0  0  1  0  0  0  0  0  0  0  0  0
  -12.5050    6.0320   -0.8710 C   0  0  0  0  0  0  0  0  0  0  0  0
  -13.4770    6.3350    0.2650 C   0  0  0  0  0  0  0  0  0  0  0  0
  -14.1350    7.6980    0.0710 C   0  0  2  0  0  0  0  0  0  0  0  0
  -14.9770    7.6430   -1.0850 O   0  0  0  0  0  0  0  0  0  0  0  0
  -13.1100    8.8570   -0.0840 C   0  0  0  0  0  0  0  0  0  0  0  0
  -12.4050    9.1130    1.2710 C   0  0  0  0  0  0  0  0  0  0  0  0
  -13.9000   10.1520   -0.4140 C   0  0  0  0  0  0  0  0  0  0  0  0
  -10.3130    6.7300   -2.1090 C   0  0  1  0  0  0  0  0  0  0  0  0
  -11.0210    6.1170   -3.3560 C   0  0  0  0  0  0  0  0  0  0  0  0
   -9.3610    5.6110   -1.5430 C   0  0  0  0  0  0  0  0  0  0  0  0
   -8.1260    6.0840   -0.7530 C   0  0  0  0  0  0  0  0  0  0  0  0
   -7.3640    7.1670   -1.5230 C   0  0  2  0  0  0  0  0  0  0  0  0
   -6.8460    6.5310   -2.8570 C   0  0  0  0  0  0  0  0  0  0  0  0
   -4.9065    7.1646    1.4275 H   0  0  0  0  0  0  0  0  0  0  0  0
   -5.4211    5.5689    0.7828 H   0  0  0  0  0  0  0  0  0  0  0  0
   -3.6821    6.0192    0.7828 H   0  0  0  0  0  0  0  0  0  0  0  0
   -4.9062    6.1850   -1.4532 H   0  0  0  0  0  0  0  0  0  0  0  0
   -2.8069    7.2546   -1.3265 H   0  0  0  0  0  0  0  0  0  0  0  0
   -3.9745    8.4993   -1.9828 H   0  0  0  0  0  0  0  0  0  0  0  0
   -4.1640    9.4126    0.3477 H   0  0  0  0  0  0  0  0  0  0  0  0
   -2.7836    8.3273    0.7989 H   0  0  0  0  0  0  0  0  0  0  0  0
   -2.8615   10.7264   -0.0576 H   0  0  0  0  0  0  0  0  0  0  0  0
   -0.1640    8.2698    0.8693 H   0  0  0  0  0  0  0  0  0  0  0  0
   -0.8099    7.5206   -0.6301 H   0  0  0  0  0  0  0  0  0  0  0  0
    0.8251    8.2646   -0.6301 H   0  0  0  0  0  0  0  0  0  0  0  0
    0.3734   11.1308    0.3751 H   0  0  0  0  0  0  0  0  0  0  0  0
    1.0599   10.5510   -1.1803 H   0  0  0  0  0  0  0  0  0  0  0  0
   -0.3493   11.6650   -1.1803 H   0  0  0  0  0  0  0  0  0  0  0  0
   -6.3741    7.9135    0.2764 H   0  0  0  0  0  0  0  0  0  0  0  0
   -5.7894    9.9747   -0.8401 H   0  0  0  0  0  0  0  0  0  0  0  0
   -5.1349    9.1153   -2.2506 H   0  0  0  0  0  0  0  0  0  0  0  0
   -7.6589   10.4537   -2.1447 H   0  0  0  0  0  0  0  0  0  0  0  0
   -7.2028    9.3054   -3.4001 H   0  0  0  0  0  0  0  0  0  0  0  0
   -8.3838    8.5042    0.4758 H   0  0  0  0  0  0  0  0  0  0  0  0
   -8.4502   10.1054   -0.3357 H   0  0  0  0  0  0  0  0  0  0  0  0
   -9.8949    9.0379   -0.3357 H   0  0  0  0  0  0  0  0  0  0  0  0
   -9.0123    7.7021   -3.5545 H   0  0  0  0  0  0  0  0  0  0  0  0
   -9.8778   10.0744   -3.0415 H   0  0  0  0  0  0  0  0  0  0  0  0
  -10.9086    8.8641   -3.9696 H   0  0  0  0  0  0  0  0  0  0  0  0
  -12.1576   10.3111   -2.1566 H   0  0  0  0  0  0  0  0  0  0  0  0
  -10.7881    7.1292   -0.0833 H   0  0  0  0  0  0  0  0  0  0  0  0
  -13.0680    5.9908   -1.8151 H   0  0  0  0  0  0  0  0  0  0  0  0
  -12.0190    5.0710   -0.6468 H   0  0  0  0  0  0  0  0  0  0  0  0
  -14.2564    5.5591    0.2885 H   0  0  0  0  0  0  0  0  0  0  0  0
  -12.9174    6.3470    1.2120 H   0  0  0  0  0  0  0  0  0  0  0  0
  -14.7186    7.9146    0.9779 H   0  0  0  0  0  0  0  0  0  0  0  0
  -14.4320    7.8700   -1.8570 H   0  0  0  0  0  0  0  0  0  0  0  0
  -13.0910    8.8639    2.0941 H   0  0  0  0  0  0  0  0  0  0  0  0
  -11.5051    8.4842    1.3407 H   0  0  0  0  0  0  0  0  0  0  0  0
  -12.1182   10.1727    1.3407 H   0  0  0  0  0  0  0  0  0  0  0  0
  -14.2014   10.6461    0.5214 H   0  0  0  0  0  0  0  0  0  0  0  0
  -13.2624   10.8315   -0.9986 H   0  0  0  0  0  0  0  0  0  0  0  0
  -14.7959    9.8960   -0.9986 H   0  0  0  0  0  0  0  0  0  0  0  0
  -11.8144    5.4301   -3.0264 H   0  0  0  0  0  0  0  0  0  0  0  0
  -11.4619    6.9233   -3.9606 H   0  0  0  0  0  0  0  0  0  0  0  0
  -10.2861    5.5653   -3.9606 H   0  0  0  0  0  0  0  0  0  0  0  0
   -9.9582    4.9722   -0.8758 H   0  0  0  0  0  0  0  0  0  0  0  0
   -8.9573    5.1009   -2.4300 H   0  0  0  0  0  0  0  0  0  0  0  0
   -8.4527    6.4929    0.2145 H   0  0  0  0  0  0  0  0  0  0  0  0
   -7.4563    5.2246   -0.6016 H   0  0  0  0  0  0  0  0  0  0  0  0
   -6.1668    5.6971   -2.6261 H   0  0  0  0  0  0  0  0  0  0  0  0
   -7.7001    6.1574   -3.4410 H   0  0  0  0  0  0  0  0  0  0  0  0
   -6.3073    7.2918   -3.4410 H   0  0  0  0  0  0  0  0  0  0  0  0
  1  2  1  0
  2  3  1  0
  3  4  1  0
  4  5  1  0
  5  6  1  0
  6  7  1  0
  7  8  1  0
  7  9  1  0
  2 10  1  0
 10 11  1  0
 11 12  1  0
 12 13  1  0
 13 14  1  1
 13 15  1  0
 15 16  1  0
 16 17  1  0
 17 18  2  0
 18 19  1  0
 19 20  1  0
 20 21  1  0
 21 22  1  0
 22 23  1  0
 22 24  1  0
 24 25  1  0
 24 26  1  0
 19 27  1  0
 27 28  1  6
 27 29  1  0
 29 30  1  0
 30 31  1  0
 31 32  1  6
  7  5  1  0
 31 10  1  0
 31 13  1  0
 27 15  1  0
 24 18  1  0
  1 33  1  0
  1 34  1  0
  1 35  1  0
  2 36  1  6
  3 37  1  0
  3 38  1  0
  4 39  1  0
  4 40  1  0
  5 41  1  6
  8 42  1  0
  8 43  1  0
  8 44  1  0
  9 45  1  0
  9 46  1  0
  9 47  1  0
 10 48  1  1
 11 49  1  0
 11 50  1  0
 12 51  1  0
 12 52  1  0
 14 53  1  0
 14 54  1  0
 14 55  1  0
 15 56  1  6
 16 57  1  0
 16 58  1  0
 17 59  1  0
 19 60  1  1
 20 61  1  0
 20 62  1  0
 21 63  1  0
 21 64  1  0
 22 65  1  1
 23 66  1  0
 25 67  1  0
 25 68  1  0
 25 69  1  0
 26 70  1  0
 26 71  1  0
 26 72  1  0
 28 73  1  0
 28 74  1  0
 28 75  1  0
 29 76  1  0
 29 77  1  0
 30 78  1  0
 30 79  1  0
 32 80  1  0
 32 81  1  0
 32 82  1  0
M  END
>  <meeko>  (14) 
{"is_sidechain": [false], "intermolecular_energy": 2.731, "internal_energy": -0.839}

$$$$
EPH_relaxed_0001_pdb2pqr_Repair_260_r2_0001_out
     RDKit          3D

 82 86  0  0  0  0  0  0  0  0999 V2000
  -14.3590    5.4600    0.4730 C   0  0  0  0  0  0  0  0  0  0  0  0
  -13.8120    6.8820    0.3150 C   0  0  2  0  0  0  0  0  0  0  0  0
  -14.9260    7.9000   -0.0020 C   0  0  0  0  0  0  0  0  0  0  0  0
  -14.4990    9.3580    0.1880 C   0  0  0  0  0  0  0  0  0  0  0  0
  -15.2400   10.2770   -0.7350 C   0  0  2  0  0  0  0  0  0  0  0  0
  -15.1730    9.9160   -2.1210 O   0  0  0  0  0  0  0  0  0  0  0  0
  -14.5560   11.1630   -1.7610 C   0  0  0  0  0  0  0  0  0  0  0  0
  -13.0670   11.1720   -1.9150 C   0  0  0  0  0  0  0  0  0  0  0  0
  -15.2880   12.3660   -2.2680 C   0  0  0  0  0  0  0  0  0  0  0  0
  -12.7520    6.9120   -0.7790 C   0  0  1  0  0  0  0  0  0  0  0  0
  -13.1230    7.8670   -1.9450 C   0  0  0  0  0  0  0  0  0  0  0  0
  -11.7980    8.4920   -2.4510 C   0  0  0  0  0  0  0  0  0  0  0  0
  -10.6880    7.6390   -1.7940 C   0  0  1  0  0  0  0  0  0  0  0  0
  -10.5770    6.3660   -2.6910 C   0  0  0  0  0  0  0  0  0  0  0  0
   -9.3010    8.3350   -1.6050 C   0  0  2  0  0  0  0  0  0  0  0  0
   -8.6030    8.7620   -2.9080 C   0  0  0  0  0  0  0  0  0  0  0  0
   -7.6930    7.7410   -3.5080 C   0  0  0  0  0  0  0  0  0  0  0  0
   -7.2250    6.6460   -2.8810 C   0  0  0  0  0  0  0  0  0  0  0  0
   -7.5290    6.3960   -1.3980 C   0  0  1  0  0  0  0  0  0  0  0  0
   -6.2260    5.9830   -0.6650 C   0  0  0  0  0  0  0  0  0  0  0  0
   -5.5340    4.7950   -1.3260 C   0  0  0  0  0  0  0  0  0  0  0  0
   -5.1960    5.1030   -2.7830 C   0  0  2  0  0  0  0  0  0  0  0  0
   -4.2020    6.1320   -2.8180 O   0  0  0  0  0  0  0  0  0  0  0  0
   -6.4300    5.5410   -3.6190 C   0  0  0  0  0  0  0  0  0  0  0  0
   -7.3690    4.3280   -3.8350 C   0  0  0  0  0  0  0  0  0  0  0  0
   -5.9290    5.9570   -5.0290 C   0  0  0  0  0  0  0  0  0  0  0  0
   -8.3110    7.5580   -0.6460 C   0  0  1  0  0  0  0  0  0  0  0  0
   -7.3000    8.6120   -0.1000 C   0  0  0  0  0  0  0  0  0  0  0  0
   -9.0440    6.9540    0.6100 C   0  0  0  0  0  0  0  0  0  0  0  0
  -10.4600    6.3900    0.3830 C   0  0  0  0  0  0  0  0  0  0  0  0
  -11.3330    7.3900   -0.3820 C   0  0  2  0  0  0  0  0  0  0  0  0
  -11.4810    8.6720    0.5070 C   0  0  0  0  0  0  0  0  0  0  0  0
  -14.4515    5.2195    1.5424 H   0  0  0  0  0  0  0  0  0  0  0  0
  -15.3474    5.3921   -0.0050 H   0  0  0  0  0  0  0  0  0  0  0  0
  -13.6709    4.7472   -0.0050 H   0  0  0  0  0  0  0  0  0  0  0  0
  -13.3625    7.1730    1.2759 H   0  0  0  0  0  0  0  0  0  0  0  0
  -15.2350    7.7621   -1.0487 H   0  0  0  0  0  0  0  0  0  0  0  0
  -15.7462    7.7102    0.7060 H   0  0  0  0  0  0  0  0  0  0  0  0
  -14.7021    9.6565    1.2271 H   0  0  0  0  0  0  0  0  0  0  0  0
  -13.4258    9.4338   -0.0412 H   0  0  0  0  0  0  0  0  0  0  0  0
  -15.9899   10.4899    0.0411 H   0  0  0  0  0  0  0  0  0  0  0  0
  -12.5956   11.1748   -0.9211 H   0  0  0  0  0  0  0  0  0  0  0  0
  -12.7502   10.2758   -2.4685 H   0  0  0  0  0  0  0  0  0  0  0  0
  -12.7611   12.0720   -2.4685 H   0  0  0  0  0  0  0  0  0  0  0  0
  -15.6499   12.9608   -1.4164 H   0  0  0  0  0  0  0  0  0  0  0  0
  -14.6088   12.9775   -2.8801 H   0  0  0  0  0  0  0  0  0  0  0  0
  -16.1433   12.0438   -2.8801 H   0  0  0  0  0  0  0  0  0  0  0  0
  -12.7299    5.8443   -1.0425 H   0  0  0  0  0  0  0  0  0  0  0  0
  -13.6098    7.3042   -2.7551 H   0  0  0  0  0  0  0  0  0  0  0  0
  -13.8238    8.6457   -1.6096 H   0  0  0  0  0  0  0  0  0  0  0  0
  -11.7349    8.4333   -3.5476 H   0  0  0  0  0  0  0  0  0  0  0  0
  -11.7137    9.5576   -2.1914 H   0  0  0  0  0  0  0  0  0  0  0  0
  -10.4992    5.4734   -2.0528 H   0  0  0  0  0  0  0  0  0  0  0  0
  -11.4716    6.2858   -3.3261 H   0  0  0  0  0  0  0  0  0  0  0  0
   -9.6821    6.4418   -3.3261 H   0  0  0  0  0  0  0  0  0  0  0  0
   -9.5734    9.2692   -1.0921 H   0  0  0  0  0  0  0  0  0  0  0  0
   -9.3811    9.0007   -3.6480 H   0  0  0  0  0  0  0  0  0  0  0  0
   -7.9668    9.6201   -2.6455 H   0  0  0  0  0  0  0  0  0  0  0  0
   -7.3787    7.8972   -4.5505 H   0  0  0  0  0  0  0  0  0  0  0  0
   -8.2510    5.5666   -1.3704 H   0  0  0  0  0  0  0  0  0  0  0  0
   -5.5348    6.8387   -0.6656 H   0  0  0  0  0  0  0  0  0  0  0  0
   -6.4989    5.6836    0.3577 H   0  0  0  0  0  0  0  0  0  0  0  0
   -4.6056    4.5699   -0.7807 H   0  0  0  0  0  0  0  0  0  0  0  0
   -6.2149    3.9315   -1.2981 H   0  0  0  0  0  0  0  0  0  0  0  0
   -4.8227    4.1738   -3.2382 H   0  0  0  0  0  0  0  0  0  0  0  0
   -3.4930    5.8770   -2.2030 H   0  0  0  0  0  0  0  0  0  0  0  0
   -7.6798    3.9265   -2.8592 H   0  0  0  0  0  0  0  0  0  0  0  0
   -8.2572    4.6478   -4.3996 H   0  0  0  0  0  0  0  0  0  0  0  0
   -6.8368    3.5483   -4.3996 H   0  0  0  0  0  0  0  0  0  0  0  0
   -5.0864    6.6567   -4.9270 H   0  0  0  0  0  0  0  0  0  0  0  0
   -5.5991    5.0635   -5.5793 H   0  0  0  0  0  0  0  0  0  0  0  0
   -6.7467    6.4455   -5.5793 H   0  0  0  0  0  0  0  0  0  0  0  0
   -7.3136    8.5978    0.9998 H   0  0  0  0  0  0  0  0  0  0  0  0
   -6.2884    8.3692   -0.4573 H   0  0  0  0  0  0  0  0  0  0  0  0
   -7.5847    9.6126   -0.4573 H   0  0  0  0  0  0  0  0  0  0  0  0
   -8.4188    6.1370    0.9993 H   0  0  0  0  0  0  0  0  0  0  0  0
   -9.1782    7.8003    1.2997 H   0  0  0  0  0  0  0  0  0  0  0  0
  -10.3874    5.4583   -0.1973 H   0  0  0  0  0  0  0  0  0  0  0  0
  -10.9223    6.1987    1.3626 H   0  0  0  0  0  0  0  0  0  0  0  0
  -11.4482    8.3875    1.5691 H   0  0  0  0  0  0  0  0  0  0  0  0
  -10.6571    9.3672    0.2880 H   0  0  0  0  0  0  0  0  0  0  0  0
  -12.4416    9.1612    0.2880 H   0  0  0  0  0  0  0  0  0  0  0  0
  1  2  1  0
  2  3  1  0
  3  4  1  0
  4  5  1  0
  5  6  1  0
  6  7  1  0
  7  8  1  0
  7  9  1  0
  2 10  1  0
 10 11  1  0
 11 12  1  0
 12 13  1  0
 13 14  1  6
 13 15  1  0
 15 16  1  0
 16 17  1  0
 17 18  2  0
 18 19  1  0
 19 20  1  0
 20 21  1  0
 21 22  1  0
 22 23  1  0
 22 24  1  0
 24 25  1  0
 24 26  1  0
 19 27  1  0
 27 28  1  1
 27 29  1  0
 29 30  1  0
 30 31  1  0
 31 32  1  1
  7  5  1  0
 31 10  1  0
 31 13  1  0
 27 15  1  0
 24 18  1  0
  1 33  1  0
  1 34  1  0
  1 35  1  0
  2 36  1  1
  3 37  1  0
  3 38  1  0
  4 39  1  0
  4 40  1  0
  5 41  1  1
  8 42  1  0
  8 43  1  0
  8 44  1  0
  9 45  1  0
  9 46  1  0
  9 47  1  0
 10 48  1  6
 11 49  1  0
 11 50  1  0
 12 51  1  0
 12 52  1  0
 14 53  1  0
 14 54  1  0
 14 55  1  0
 15 56  1  1
 16 57  1  0
 16 58  1  0
 17 59  1  0
 19 60  1  6
 20 61  1  0
 20 62  1  0
 21 63  1  0
 21 64  1  0
 22 65  1  6
 23 66  1  0
 25 67  1  0
 25 68  1  0
 25 69  1  0
 26 70  1  0
 26 71  1  0
 26 72  1  0
 28 73  1  0
 28 74  1  0
 28 75  1  0
 29 76  1  0
 29 77  1  0
 30 78  1  0
 30 79  1  0
 32 80  1  0
 32 81  1  0
 32 82  1  0
M  END
>  <meeko>  (15) 
{"is_sidechain": [false], "intermolecular_energy": 2.731, "internal_energy": -0.839}

$$$$
EPH_relaxed_0001_pdb2pqr_Repair_260_r2_0001_out
     RDKit          3D

 82 86  0  0  0  0  0  0  0  0999 V2000
   -3.1370    7.0390   -1.8740 C   0  0  0  0  0  0  0  0  0  0  0  0
   -2.8140    8.1550   -0.8750 C   0  0  2  0  0  0  0  0  0  0  0  0
   -4.0860    8.7510   -0.2390 C   0  0  0  0  0  0  0  0  0  0  0  0
   -5.2600    7.7700   -0.1750 C   0  0  0  0  0  0  0  0  0  0  0  0
   -5.8570    7.5310   -1.5290 C   0  0  2  0  0  0  0  0  0  0  0  0
   -6.8110    8.5170   -1.9450 O   0  0  0  0  0  0  0  0  0  0  0  0
   -7.3180    7.1870   -1.7500 C   0  0  0  0  0  0  0  0  0  0  0  0
   -8.2720    7.0620   -0.6030 C   0  0  0  0  0  0  0  0  0  0  0  0
   -7.7060    6.4970   -3.0200 C   0  0  0  0  0  0  0  0  0  0  0  0
   -2.0120    9.2530   -1.5640 C   0  0  1  0  0  0  0  0  0  0  0  0
   -2.6450   10.6580   -1.3830 C   0  0  0  0  0  0  0  0  0  0  0  0
   -1.4730   11.6670   -1.2810 C   0  0  0  0  0  0  0  0  0  0  0  0
   -0.2300   10.8670   -1.7360 C   0  0  1  0  0  0  0  0  0  0  0  0
   -0.2840   10.8950   -3.2960 C   0  0  0  0  0  0  0  0  0  0  0  0
    1.1500   11.3690   -1.1980 C   0  0  2  0  0  0  0  0  0  0  0  0
    1.5450   12.7900   -1.6380 C   0  0  0  0  0  0  0  0  0  0  0  0
    2.3280   12.8700   -2.9060 C   0  0  0  0  0  0  0  0  0  0  0  0
    2.9430   11.8370   -3.5120 C   0  0  0  0  0  0  0  0  0  0  0  0
    2.9680   10.4460   -2.8660 C   0  0  1  0  0  0  0  0  0  0  0  0
    4.4070    9.8690   -2.9340 C   0  0  0  0  0  0  0  0  0  0  0  0
    4.9680    9.8640   -4.3520 C   0  0  0  0  0  0  0  0  0  0  0  0
    4.9810   11.2730   -4.9390 C   0  0  2  0  0  0  0  0  0  0  0  0
    5.9210   12.0680   -4.2100 O   0  0  0  0  0  0  0  0  0  0  0  0
    3.5870   11.9600   -4.9150 C   0  0  0  0  0  0  0  0  0  0  0  0
    2.6510   11.2730   -5.9410 C   0  0  0  0  0  0  0  0  0  0  0  0
    3.7670   13.4230   -5.4030 C   0  0  0  0  0  0  0  0  0  0  0  0
    2.3390   10.3470   -1.4100 C   0  0  1  0  0  0  0  0  0  0  0  0
    3.4190   10.6920   -0.3390 C   0  0  0  0  0  0  0  0  0  0  0  0
    1.9040    8.8580   -1.1380 C   0  0  0  0  0  0  0  0  0  0  0  0
    0.4860    8.4560   -1.5860 C   0  0  0  0  0  0  0  0  0  0  0  0
   -0.5520    9.4690   -1.0940 C   0  0  2  0  0  0  0  0  0  0  0  0
   -0.5370    9.4480    0.4730 C   0  0  0  0  0  0  0  0  0  0  0  0
   -3.4023    6.1224   -1.3267 H   0  0  0  0  0  0  0  0  0  0  0  0
   -3.9830    7.3464   -2.5062 H   0  0  0  0  0  0  0  0  0  0  0  0
   -2.2576    6.8470   -2.5062 H   0  0  0  0  0  0  0  0  0  0  0  0
   -2.2169    7.7115   -0.0646 H   0  0  0  0  0  0  0  0  0  0  0  0
   -3.8448    9.0712    0.7854 H   0  0  0  0  0  0  0  0  0  0  0  0
   -4.4020    9.5892   -0.8773 H   0  0  0  0  0  0  0  0  0  0  0  0
   -4.9026    6.8122    0.2311 H   0  0  0  0  0  0  0  0  0  0  0  0
   -6.0368    8.2063    0.4702 H   0  0  0  0  0  0  0  0  0  0  0  0
   -4.9269    7.0619   -1.8824 H   0  0  0  0  0  0  0  0  0  0  0  0
   -7.7178    7.1346    0.3444 H   0  0  0  0  0  0  0  0  0  0  0  0
   -9.0162    7.8703   -0.6553 H   0  0  0  0  0  0  0  0  0  0  0  0
   -8.7829    6.0892   -0.6553 H   0  0  0  0  0  0  0  0  0  0  0  0
   -8.2324    5.5608   -2.7826 H   0  0  0  0  0  0  0  0  0  0  0  0
   -8.3682    7.1517   -3.6055 H   0  0  0  0  0  0  0  0  0  0  0  0
   -6.8025    6.2713   -3.6055 H   0  0  0  0  0  0  0  0  0  0  0  0
   -2.0220    8.8693   -2.5948 H   0  0  0  0  0  0  0  0  0  0  0  0
   -3.2802   10.9014   -2.2474 H   0  0  0  0  0  0  0  0  0  0  0  0
   -3.2762   10.6937   -0.4828 H   0  0  0  0  0  0  0  0  0  0  0  0
   -1.6438   12.5290   -1.9427 H   0  0  0  0  0  0  0  0  0  0  0  0
   -1.3591   12.0734   -0.2652 H   0  0  0  0  0  0  0  0  0  0  0  0
   -1.2167   11.3786   -3.6220 H   0  0  0  0  0  0  0  0  0  0  0  0
    0.5767   11.4604   -3.6826 H   0  0  0  0  0  0  0  0  0  0  0  0
   -0.2501    9.8657   -3.6826 H   0  0  0  0  0  0  0  0  0  0  0  0
    0.9716   11.4310   -0.1143 H   0  0  0  0  0  0  0  0  0  0  0  0
    0.6221   13.3735   -1.7710 H   0  0  0  0  0  0  0  0  0  0  0  0
    2.2035   13.1811   -0.8484 H   0  0  0  0  0  0  0  0  0  0  0  0
    2.4095   13.8564   -3.3860 H   0  0  0  0  0  0  0  0  0  0  0  0
    2.2870    9.8211   -3.4625 H   0  0  0  0  0  0  0  0  0  0  0  0
    5.0629   10.4810   -2.2974 H   0  0  0  0  0  0  0  0  0  0  0  0
    4.3654    8.8259   -2.5874 H   0  0  0  0  0  0  0  0  0  0  0  0
    5.9961    9.4734   -4.3309 H   0  0  0  0  0  0  0  0  0  0  0  0
    4.3274    9.2279   -4.9805 H   0  0  0  0  0  0  0  0  0  0  0  0
    5.2699   11.1862   -5.9968 H   0  0  0  0  0  0  0  0  0  0  0  0
    6.6670   11.4930   -3.9670 H   0  0  0  0  0  0  0  0  0  0  0  0
    1.8759   10.7041   -5.4067 H   0  0  0  0  0  0  0  0  0  0  0  0
    2.1749   12.0376   -6.5724 H   0  0  0  0  0  0  0  0  0  0  0  0
    3.2377   10.5895   -6.5724 H   0  0  0  0  0  0  0  0  0  0  0  0
    3.8493   14.0920   -4.5337 H   0  0  0  0  0  0  0  0  0  0  0  0
    4.6810   13.4971   -6.0105 H   0  0  0  0  0  0  0  0  0  0  0  0
    2.8982   13.7164   -6.0105 H   0  0  0  0  0  0  0  0  0  0  0  0
    2.9945   10.5564    0.6667 H   0  0  0  0  0  0  0  0  0  0  0  0
    4.2854   10.0259   -0.4642 H   0  0  0  0  0  0  0  0  0  0  0  0
    3.7388   11.7370   -0.4642 H   0  0  0  0  0  0  0  0  0  0  0  0
    2.6164    8.2025   -1.6603 H   0  0  0  0  0  0  0  0  0  0  0  0
    1.9001    8.7547   -0.0429 H   0  0  0  0  0  0  0  0  0  0  0  0
    0.4543    8.4131   -2.6847 H   0  0  0  0  0  0  0  0  0  0  0  0
    0.2477    7.4723   -1.1553 H   0  0  0  0  0  0  0  0  0  0  0  0
   -1.1362   10.2869    0.8567 H   0  0  0  0  0  0  0  0  0  0  0  0
   -0.9630    8.4991    0.8311 H   0  0  0  0  0  0  0  0  0  0  0  0
    0.4987    9.5432    0.8311 H   0  0  0  0  0  0  0  0  0  0  0  0
  1  2  1  0
  2  3  1  0
  3  4  1  0
  4  5  1  0
  5  6  1  0
  6  7  1  0
  7  8  1  0
  7  9  1  0
  2 10  1  0
 10 11  1  0
 11 12  1  0
 12 13  1  0
 13 14  1  6
 13 15  1  0
 15 16  1  0
 16 17  1  0
 17 18  2  0
 18 19  1  0
 19 20  1  0
 20 21  1  0
 21 22  1  0
 22 23  1  0
 22 24  1  0
 24 25  1  0
 24 26  1  0
 19 27  1  0
 27 28  1  1
 27 29  1  0
 29 30  1  0
 30 31  1  0
 31 32  1  1
  7  5  1  0
 31 10  1  0
 31 13  1  0
 27 15  1  0
 24 18  1  0
  1 33  1  0
  1 34  1  0
  1 35  1  0
  2 36  1  1
  3 37  1  0
  3 38  1  0
  4 39  1  0
  4 40  1  0
  5 41  1  6
  8 42  1  0
  8 43  1  0
  8 44  1  0
  9 45  1  0
  9 46  1  0
  9 47  1  0
 10 48  1  6
 11 49  1  0
 11 50  1  0
 12 51  1  0
 12 52  1  0
 14 53  1  0
 14 54  1  0
 14 55  1  0
 15 56  1  1
 16 57  1  0
 16 58  1  0
 17 59  1  0
 19 60  1  6
 20 61  1  0
 20 62  1  0
 21 63  1  0
 21 64  1  0
 22 65  1  6
 23 66  1  0
 25 67  1  0
 25 68  1  0
 25 69  1  0
 26 70  1  0
 26 71  1  0
 26 72  1  0
 28 73  1  0
 28 74  1  0
 28 75  1  0
 29 76  1  0
 29 77  1  0
 30 78  1  0
 30 79  1  0
 32 80  1  0
 32 81  1  0
 32 82  1  0
M  END
>  <meeko>  (16) 
{"is_sidechain": [false], "intermolecular_energy": 2.731, "internal_energy": -0.839}

$$$$
EPH_relaxed_0001_pdb2pqr_Repair_260_r2_0001_out
     RDKit          3D

 82 86  0  0  0  0  0  0  0  0999 V2000
   -4.9580    9.6260   -0.7690 C   0  0  0  0  0  0  0  0  0  0  0  0
   -5.2870    8.3060   -1.4720 C   0  0  2  0  0  0  0  0  0  0  0  0
   -4.3290    8.0190   -2.6460 C   0  0  0  0  0  0  0  0  0  0  0  0
   -3.3960    6.8300   -2.4020 C   0  0  0  0  0  0  0  0  0  0  0  0
   -3.8590    5.6030   -3.1280 C   0  0  2  0  0  0  0  0  0  0  0  0
   -5.2340    5.6310   -3.5320 O   0  0  0  0  0  0  0  0  0  0  0  0
   -4.8790    4.6320   -2.5620 C   0  0  0  0  0  0  0  0  0  0  0  0
   -5.4960    4.8450   -1.2160 C   0  0  0  0  0  0  0  0  0  0  0  0
   -4.9090    3.2340   -3.0970 C   0  0  0  0  0  0  0  0  0  0  0  0
   -6.7280    8.3270   -1.9680 C   0  0  1  0  0  0  0  0  0  0  0  0
   -6.8990    7.6150   -3.3370 C   0  0  0  0  0  0  0  0  0  0  0  0
   -8.2890    6.9300   -3.3140 C   0  0  0  0  0  0  0  0  0  0  0  0
   -9.0030    7.5370   -2.0840 C   0  0  1  0  0  0  0  0  0  0  0  0
   -9.5500    8.9140   -2.5780 C   0  0  0  0  0  0  0  0  0  0  0  0
  -10.1300    6.6660   -1.4400 C   0  0  2  0  0  0  0  0  0  0  0  0
  -11.3320    6.3720   -2.3550 C   0  0  0  0  0  0  0  0  0  0  0  0
  -12.4460    7.3630   -2.2830 C   0  0  0  0  0  0  0  0  0  0  0  0
  -12.6100    8.2860   -1.3170 C   0  0  0  0  0  0  0  0  0  0  0  0
  -11.6720    8.3330   -0.1040 C   0  0  1  0  0  0  0  0  0  0  0  0
  -12.5110    8.4740    1.1940 C   0  0  0  0  0  0  0  0  0  0  0  0
  -13.4640    9.6640    1.1480 C   0  0  0  0  0  0  0  0  0  0  0  0
  -14.4190    9.5520   -0.0380 C   0  0  2  0  0  0  0  0  0  0  0  0
  -15.2880    8.4340    0.1730 O   0  0  0  0  0  0  0  0  0  0  0  0
  -13.6880    9.3950   -1.4010 C   0  0  0  0  0  0  0  0  0  0  0  0
  -12.9880   10.7260   -1.7720 C   0  0  0  0  0  0  0  0  0  0  0  0
  -14.7630    9.1510   -2.4940 C   0  0  0  0  0  0  0  0  0  0  0  0
  -10.5980    7.1650   -0.0130 C   0  0  1  0  0  0  0  0  0  0  0  0
  -11.2170    5.9290    0.7100 C   0  0  0  0  0  0  0  0  0  0  0  0
   -9.3930    7.6430    0.8790 C   0  0  0  0  0  0  0  0  0  0  0  0
   -8.2540    8.3940    0.1630 C   0  0  0  0  0  0  0  0  0  0  0  0
   -7.7940    7.6330   -1.0840 C   0  0  2  0  0  0  0  0  0  0  0  0
   -7.2190    6.2530   -0.6170 C   0  0  0  0  0  0  0  0  0  0  0  0
   -4.9944    9.4801    0.3207 H   0  0  0  0  0  0  0  0  0  0  0  0
   -3.9502    9.9559   -1.0613 H   0  0  0  0  0  0  0  0  0  0  0  0
   -5.6931   10.3903   -1.0613 H   0  0  0  0  0  0  0  0  0  0  0  0
   -5.1588    7.4980   -0.7367 H   0  0  0  0  0  0  0  0  0  0  0  0
   -4.9311    7.8098   -3.5425 H   0  0  0  0  0  0  0  0  0  0  0  0
   -3.6924    8.9080   -2.7663 H   0  0  0  0  0  0  0  0  0  0  0  0
   -2.3865    7.0915   -2.7520 H   0  0  0  0  0  0  0  0  0  0  0  0
   -3.3954    6.6106   -1.3241 H   0  0  0  0  0  0  0  0  0  0  0  0
   -2.8597    5.4531   -3.5628 H   0  0  0  0  0  0  0  0  0  0  0  0
   -4.7652    4.5927   -0.4336 H   0  0  0  0  0  0  0  0  0  0  0  0
   -5.7952    5.8984   -1.1123 H   0  0  0  0  0  0  0  0  0  0  0  0
   -6.3814    4.2005   -1.1123 H   0  0  0  0  0  0  0  0  0  0  0  0
   -4.9243    2.5211   -2.2594 H   0  0  0  0  0  0  0  0  0  0  0  0
   -5.8103    3.0961   -3.7123 H   0  0  0  0  0  0  0  0  0  0  0  0
   -4.0144    3.0576   -3.7123 H   0  0  0  0  0  0  0  0  0  0  0  0
   -6.9016    9.4131   -1.9849 H   0  0  0  0  0  0  0  0  0  0  0  0
   -6.8521    8.3495   -4.1545 H   0  0  0  0  0  0  0  0  0  0  0  0
   -6.0985    6.8788   -3.5021 H   0  0  0  0  0  0  0  0  0  0  0  0
   -8.8468    7.1524   -4.2357 H   0  0  0  0  0  0  0  0  0  0  0  0
   -8.2130    5.8343   -3.2535 H   0  0  0  0  0  0  0  0  0  0  0  0
   -9.7995    9.5421   -1.7101 H   0  0  0  0  0  0  0  0  0  0  0  0
   -8.7832    9.4164   -3.1859 H   0  0  0  0  0  0  0  0  0  0  0  0
  -10.4526    8.7533   -3.1859 H   0  0  0  0  0  0  0  0  0  0  0  0
   -9.6256    5.6998   -1.2914 H   0  0  0  0  0  0  0  0  0  0  0  0
  -10.9697    6.3429   -3.3932 H   0  0  0  0  0  0  0  0  0  0  0  0
  -11.7520    5.4165   -2.0078 H   0  0  0  0  0  0  0  0  0  0  0  0
  -13.1961    7.3368   -3.0871 H   0  0  0  0  0  0  0  0  0  0  0  0
  -11.0425    9.2247   -0.2400 H   0  0  0  0  0  0  0  0  0  0  0  0
  -13.1001    7.5557    1.3346 H   0  0  0  0  0  0  0  0  0  0  0  0
  -11.8119    8.6381    2.0273 H   0  0  0  0  0  0  0  0  0  0  0  0
  -14.0485    9.6935    2.0794 H   0  0  0  0  0  0  0  0  0  0  0  0
  -12.8718   10.5843    1.0366 H   0  0  0  0  0  0  0  0  0  0  0  0
  -14.9873   10.4922   -0.0931 H   0  0  0  0  0  0  0  0  0  0  0  0
  -14.8430    7.6450   -0.1790 H   0  0  0  0  0  0  0  0  0  0  0  0
  -12.7067   11.2609   -0.8529 H   0  0  0  0  0  0  0  0  0  0  0  0
  -12.0852   10.5131   -2.3633 H   0  0  0  0  0  0  0  0  0  0  0  0
  -13.6750   11.3492   -2.3633 H   0  0  0  0  0  0  0  0  0  0  0  0
  -15.7290    8.9317   -2.0157 H   0  0  0  0  0  0  0  0  0  0  0  0
  -14.8597   10.0500   -3.1204 H   0  0  0  0  0  0  0  0  0  0  0  0
  -14.4621    8.2983   -3.1204 H   0  0  0  0  0  0  0  0  0  0  0  0
  -11.1473    6.0683    1.7989 H   0  0  0  0  0  0  0  0  0  0  0  0
  -12.2732    5.8258    0.4204 H   0  0  0  0  0  0  0  0  0  0  0  0
  -10.6670    5.0214    0.4204 H   0  0  0  0  0  0  0  0  0  0  0  0
   -9.7969    8.3114    1.6537 H   0  0  0  0  0  0  0  0  0  0  0  0
   -8.9334    6.7195    1.2610 H   0  0  0  0  0  0  0  0  0  0  0  0
   -8.6119    9.3905   -0.1353 H   0  0  0  0  0  0  0  0  0  0  0  0
   -7.4028    8.4813    0.8543 H   0  0  0  0  0  0  0  0  0  0  0  0
   -7.2033    6.2154    0.4822 H   0  0  0  0  0  0  0  0  0  0  0  0
   -7.8540    5.4418   -1.0026 H   0  0  0  0  0  0  0  0  0  0  0  0
   -6.1959    6.1327   -1.0026 H   0  0  0  0  0  0  0  0  0  0  0  0
  1  2  1  0
  2  3  1  0
  3  4  1  0
  4  5  1  0
  5  6  1  0
  6  7  1  0
  7  8  1  0
  7  9  1  0
  2 10  1  0
 10 11  1  0
 11 12  1  0
 12 13  1  0
 13 14  1  6
 13 15  1  0
 15 16  1  0
 16 17  1  0
 17 18  2  0
 18 19  1  0
 19 20  1  0
 20 21  1  0
 21 22  1  0
 22 23  1  0
 22 24  1  0
 24 25  1  0
 24 26  1  0
 19 27  1  0
 27 28  1  1
 27 29  1  0
 29 30  1  0
 30 31  1  0
 31 32  1  1
  7  5  1  0
 31 10  1  0
 31 13  1  0
 27 15  1  0
 24 18  1  0
  1 33  1  0
  1 34  1  0
  1 35  1  0
  2 36  1  1
  3 37  1  0
  3 38  1  0
  4 39  1  0
  4 40  1  0
  5 41  1  6
  8 42  1  0
  8 43  1  0
  8 44  1  0
  9 45  1  0
  9 46  1  0
  9 47  1  0
 10 48  1  6
 11 49  1  0
 11 50  1  0
 12 51  1  0
 12 52  1  0
 14 53  1  0
 14 54  1  0
 14 55  1  0
 15 56  1  1
 16 57  1  0
 16 58  1  0
 17 59  1  0
 19 60  1  6
 20 61  1  0
 20 62  1  0
 21 63  1  0
 21 64  1  0
 22 65  1  6
 23 66  1  0
 25 67  1  0
 25 68  1  0
 25 69  1  0
 26 70  1  0
 26 71  1  0
 26 72  1  0
 28 73  1  0
 28 74  1  0
 28 75  1  0
 29 76  1  0
 29 77  1  0
 30 78  1  0
 30 79  1  0
 32 80  1  0
 32 81  1  0
 32 82  1  0
M  END
>  <meeko>  (17) 
{"is_sidechain": [false], "intermolecular_energy": 2.731, "internal_energy": -0.839}

$$$$
