EPH_relaxed_0001_pdb2pqr_Repair_59_r2_0001_out
     RDKit          3D

 82 86  0  0  0  0  0  0  0  0999 V2000
   -1.6420    8.5700   -1.8540 C   0  0  0  0  0  0  0  0  0  0  0  0
   -2.0270    9.1000   -0.4700 C   0  0  2  0  0  0  0  0  0  0  0  0
   -3.5230    9.4650   -0.3830 C   0  0  0  0  0  0  0  0  0  0  0  0
   -4.4470    8.2490   -0.2720 C   0  0  0  0  0  0  0  0  0  0  0  0
   -5.1260    7.9490   -1.5740 C   0  0  2  0  0  0  0  0  0  0  0  0
   -6.3370    8.6820   -1.8000 O   0  0  0  0  0  0  0  0  0  0  0  0
   -6.4730    7.2570   -1.6750 C   0  0  0  0  0  0  0  0  0  0  0  0
   -7.2200    6.8220   -0.4530 C   0  0  0  0  0  0  0  0  0  0  0  0
   -6.8310    6.5700   -2.9560 C   0  0  0  0  0  0  0  0  0  0  0  0
   -1.1740   10.3150   -0.1230 C   0  0  1  0  0  0  0  0  0  0  0  0
   -0.1360   10.0170    0.9920 C   0  0  0  0  0  0  0  0  0  0  0  0
    1.1270   10.8530    0.6620 C   0  0  0  0  0  0  0  0  0  0  0  0
    0.6640   11.8450   -0.4300 C   0  0  1  0  0  0  0  0  0  0  0  0
   -0.0470   12.9960    0.3490 C   0  0  0  0  0  0  0  0  0  0  0  0
    1.7770   12.3940   -1.3820 C   0  0  2  0  0  0  0  0  0  0  0  0
    2.8780   13.2180   -0.6910 C   0  0  0  0  0  0  0  0  0  0  0  0
    2.6180   14.6860   -0.6080 C   0  0  0  0  0  0  0  0  0  0  0  0
    1.6880   15.3570   -1.3130 C   0  0  0  0  0  0  0  0  0  0  0  0
    0.8430   14.6470   -2.3790 C   0  0  1  0  0  0  0  0  0  0  0  0
    0.8060   15.5090   -3.6680 C   0  0  0  0  0  0  0  0  0  0  0  0
    0.3340   16.9350   -3.4050 C   0  0  0  0  0  0  0  0  0  0  0  0
    1.2340   17.6270   -2.3840 C   0  0  2  0  0  0  0  0  0  0  0  0
    2.5320   17.8040   -2.9580 O   0  0  0  0  0  0  0  0  0  0  0  0
    1.3560   16.8460   -1.0460 C   0  0  0  0  0  0  0  0  0  0  0  0
    0.0120   16.9140   -0.2790 C   0  0  0  0  0  0  0  0  0  0  0  0
    2.4000   17.5780   -0.1600 C   0  0  0  0  0  0  0  0  0  0  0  0
    1.2240   13.1310   -2.6680 C   0  0  1  0  0  0  0  0  0  0  0  0
    2.3530   13.0620   -3.7410 C   0  0  0  0  0  0  0  0  0  0  0  0
   -0.0240   12.3980   -3.2880 C   0  0  0  0  0  0  0  0  0  0  0  0
   -1.0250   11.7730   -2.2980 C   0  0  0  0  0  0  0  0  0  0  0  0
   -0.3020   10.9180   -1.2530 C   0  0  2  0  0  0  0  0  0  0  0  0
    0.4040    9.7390   -2.0060 C   0  0  0  0  0  0  0  0  0  0  0  0
   -0.9989    7.6847   -1.7417 H   0  0  0  0  0  0  0  0  0  0  0  0
   -2.5519    8.2944   -2.4073 H   0  0  0  0  0  0  0  0  0  0  0  0
   -1.0986    9.3501   -2.4073 H   0  0  0  0  0  0  0  0  0  0  0  0
   -1.8408    8.2948    0.2560 H   0  0  0  0  0  0  0  0  0  0  0  0
   -3.6750   10.0989    0.5030 H   0  0  0  0  0  0  0  0  0  0  0  0
   -3.7829    9.9824   -1.3183 H   0  0  0  0  0  0  0  0  0  0  0  0
   -3.8513    7.3747    0.0293 H   0  0  0  0  0  0  0  0  0  0  0  0
   -5.2220    8.4739    0.4755 H   0  0  0  0  0  0  0  0  0  0  0  0
   -4.1589    7.7558   -2.0612 H   0  0  0  0  0  0  0  0  0  0  0  0
   -6.6713    7.1415    0.4453 H   0  0  0  0  0  0  0  0  0  0  0  0
   -8.2208    7.2785   -0.4531 H   0  0  0  0  0  0  0  0  0  0  0  0
   -7.3168    5.7263   -0.4531 H   0  0  0  0  0  0  0  0  0  0  0  0
   -7.3288    5.6147   -2.7331 H   0  0  0  0  0  0  0  0  0  0  0  0
   -7.5101    7.2103   -3.5381 H   0  0  0  0  0  0  0  0  0  0  0  0
   -5.9171    6.3802   -3.5381 H   0  0  0  0  0  0  0  0  0  0  0  0
   -1.9673   11.0231    0.1586 H   0  0  0  0  0  0  0  0  0  0  0  0
   -0.5388   10.3102    1.9727 H   0  0  0  0  0  0  0  0  0  0  0  0
    0.1008    8.9436    1.0346 H   0  0  0  0  0  0  0  0  0  0  0  0
    1.4789   11.3931    1.5533 H   0  0  0  0  0  0  0  0  0  0  0  0
    1.9664   10.2260    0.3271 H   0  0  0  0  0  0  0  0  0  0  0  0
    0.0580   12.8261    1.4307 H   0  0  0  0  0  0  0  0  0  0  0  0
    0.4141   13.9585    0.0826 H   0  0  0  0  0  0  0  0  0  0  0  0
   -1.1141   13.0145    0.0826 H   0  0  0  0  0  0  0  0  0  0  0  0
    2.2671   11.4723   -1.7289 H   0  0  0  0  0  0  0  0  0  0  0  0
    2.9968   12.8353    0.3334 H   0  0  0  0  0  0  0  0  0  0  0  0
    3.7792   13.1029   -1.3112 H   0  0  0  0  0  0  0  0  0  0  0  0
    3.2391   15.2686    0.0883 H   0  0  0  0  0  0  0  0  0  0  0  0
   -0.1699   14.5614   -1.9586 H   0  0  0  0  0  0  0  0  0  0  0  0
    1.8185   15.5461   -4.0964 H   0  0  0  0  0  0  0  0  0  0  0  0
    0.0899   15.0429   -4.3607 H   0  0  0  0  0  0  0  0  0  0  0  0
    0.3567   17.5015   -4.3476 H   0  0  0  0  0  0  0  0  0  0  0  0
   -0.6895   16.8981   -3.0036 H   0  0  0  0  0  0  0  0  0  0  0  0
    0.7724   18.5954   -2.1407 H   0  0  0  0  0  0  0  0  0  0  0  0
    3.0380   16.9890   -2.8000 H   0  0  0  0  0  0  0  0  0  0  0  0
    0.2067   16.9041    0.8036 H   0  0  0  0  0  0  0  0  0  0  0  0
   -0.5172   17.8401   -0.5479 H   0  0  0  0  0  0  0  0  0  0  0  0
   -0.6080   16.0461   -0.5479 H   0  0  0  0  0  0  0  0  0  0  0  0
    2.1620   17.4111    0.9009 H   0  0  0  0  0  0  0  0  0  0  0  0
    3.4044   17.1853   -0.3766 H   0  0  0  0  0  0  0  0  0  0  0  0
    2.3732   18.6561   -0.3766 H   0  0  0  0  0  0  0  0  0  0  0  0
    3.3309   13.0022   -3.2409 H   0  0  0  0  0  0  0  0  0  0  0  0
    2.2075   12.1711   -4.3696 H   0  0  0  0  0  0  0  0  0  0  0  0
    2.3171   13.9640   -4.3696 H   0  0  0  0  0  0  0  0  0  0  0  0
   -0.5723   13.1318   -3.8969 H   0  0  0  0  0  0  0  0  0  0  0  0
    0.3912   11.5495   -3.8516 H   0  0  0  0  0  0  0  0  0  0  0  0
   -1.5751   12.5769   -1.7870 H   0  0  0  0  0  0  0  0  0  0  0  0
   -1.7176   11.1289   -2.8596 H   0  0  0  0  0  0  0  0  0  0  0  0
    0.8252    9.0356   -1.2727 H   0  0  0  0  0  0  0  0  0  0  0  0
   -0.3294    9.2155   -2.6369 H   0  0  0  0  0  0  0  0  0  0  0  0
    1.2117   10.1383   -2.6369 H   0  0  0  0  0  0  0  0  0  0  0  0
  1  2  1  0
  2  3  1  0
  3  4  1  0
  4  5  1  0
  5  6  1  0
  6  7  1  0
  7  8  1  0
  7  9  1  0
  2 10  1  0
 10 11  1  0
 11 12  1  0
 12 13  1  0
 13 14  1  1
 13 15  1  0
 15 16  1  0
 16 17  1  0
 17 18  2  0
 18 19  1  0
 19 20  1  0
 20 21  1  0
 21 22  1  0
 22 23  1  0
 22 24  1  0
 24 25  1  0
 24 26  1  0
 19 27  1  0
 27 28  1  6
 27 29  1  0
 29 30  1  0
 30 31  1  0
 31 32  1  6
  7  5  1  0
 31 10  1  0
 31 13  1  0
 27 15  1  0
 24 18  1  0
  1 33  1  0
  1 34  1  0
  1 35  1  0
  2 36  1  1
  3 37  1  0
  3 38  1  0
  4 39  1  0
  4 40  1  0
  5 41  1  6
  8 42  1  0
  8 43  1  0
  8 44  1  0
  9 45  1  0
  9 46  1  0
  9 47  1  0
 10 48  1  1
 11 49  1  0
 11 50  1  0
 12 51  1  0
 12 52  1  0
 14 53  1  0
 14 54  1  0
 14 55  1  0
 15 56  1  6
 16 57  1  0
 16 58  1  0
 17 59  1  0
 19 60  1  1
 20 61  1  0
 20 62  1  0
 21 63  1  0
 21 64  1  0
 22 65  1  1
 23 66  1  0
 25 67  1  0
 25 68  1  0
 25 69  1  0
 26 70  1  0
 26 71  1  0
 26 72  1  0
 28 73  1  0
 28 74  1  0
 28 75  1  0
 29 76  1  0
 29 77  1  0
 30 78  1  0
 30 79  1  0
 32 80  1  0
 32 81  1  0
 32 82  1  0
M  END
>  <meeko>  (1) 
{"is_sidechain": [false], "intermolecular_energy": 2.731, "internal_energy": -0.839}

$$$$
EPH_relaxed_0001_pdb2pqr_Repair_59_r2_0001_out
     RDKit          3D

 82 86  0  0  0  0  0  0  0  0999 V2000
    2.3410   18.0390   -2.6570 C   0  0  0  0  0  0  0  0  0  0  0  0
    1.0500   17.6350   -1.9390 C   0  0  2  0  0  0  0  0  0  0  0  0
    1.1970   17.6890   -0.4060 C   0  0  0  0  0  0  0  0  0  0  0  0
    0.8830   19.0620    0.1950 C   0  0  0  0  0  0  0  0  0  0  0  0
   -0.5570   19.1760    0.5940 C   0  0  2  0  0  0  0  0  0  0  0  0
   -1.4360   18.2530   -0.0630 O   0  0  0  0  0  0  0  0  0  0  0  0
   -1.6520   19.6450   -0.3470 C   0  0  0  0  0  0  0  0  0  0  0  0
   -1.3520   20.0320   -1.7610 C   0  0  0  0  0  0  0  0  0  0  0  0
   -2.9150   20.1910    0.2420 C   0  0  0  0  0  0  0  0  0  0  0  0
    0.6300   16.2360   -2.3730 C   0  0  1  0  0  0  0  0  0  0  0  0
    0.7900   16.0110   -3.9010 C   0  0  0  0  0  0  0  0  0  0  0  0
    1.2100   14.5310   -4.0940 C   0  0  0  0  0  0  0  0  0  0  0  0
    0.9570   13.8720   -2.7180 C   0  0  1  0  0  0  0  0  0  0  0  0
   -0.5730   13.5650   -2.6950 C   0  0  0  0  0  0  0  0  0  0  0  0
    1.8060   12.5990   -2.3960 C   0  0  2  0  0  0  0  0  0  0  0  0
    1.5710   11.4030   -3.3350 C   0  0  0  0  0  0  0  0  0  0  0  0
    0.5010   10.4550   -2.9060 C   0  0  0  0  0  0  0  0  0  0  0  0
   -0.0460   10.3970   -1.6780 C   0  0  0  0  0  0  0  0  0  0  0  0
    0.4780   11.2820   -0.5400 C   0  0  1  0  0  0  0  0  0  0  0  0
    0.6610   10.4250    0.7400 C   0  0  0  0  0  0  0  0  0  0  0  0
   -0.6080    9.6710    1.1250 C   0  0  0  0  0  0  0  0  0  0  0  0
   -1.0650    8.7580   -0.0100 C   0  0  2  0  0  0  0  0  0  0  0  0
   -0.0970    7.7190   -0.1840 O   0  0  0  0  0  0  0  0  0  0  0  0
   -1.2730    9.5090   -1.3540 C   0  0  0  0  0  0  0  0  0  0  0  0
   -2.5200   10.4220   -1.2530 C   0  0  0  0  0  0  0  0  0  0  0  0
   -1.5950    8.4540   -2.4470 C   0  0  0  0  0  0  0  0  0  0  0  0
    1.7610   12.1570   -0.8770 C   0  0  1  0  0  0  0  0  0  0  0  0
    3.0550   11.3260   -0.6160 C   0  0  0  0  0  0  0  0  0  0  0  0
    1.8180   13.3860    0.1060 C   0  0  0  0  0  0  0  0  0  0  0  0
    1.0580   14.6550   -0.3250 C   0  0  0  0  0  0  0  0  0  0  0  0
    1.4060   15.0400   -1.7660 C   0  0  2  0  0  0  0  0  0  0  0  0
    2.9360   15.3760   -1.8160 C   0  0  0  0  0  0  0  0  0  0  0  0
    3.1141   18.2809   -1.9129 H   0  0  0  0  0  0  0  0  0  0  0  0
    2.6863   17.2060   -3.2869 H   0  0  0  0  0  0  0  0  0  0  0  0
    2.1498   18.9203   -3.2869 H   0  0  0  0  0  0  0  0  0  0  0  0
    0.2733   18.3608   -2.2217 H   0  0  0  0  0  0  0  0  0  0  0  0
    0.5100   16.9517    0.0348 H   0  0  0  0  0  0  0  0  0  0  0  0
    2.2505   17.4711   -0.1764 H   0  0  0  0  0  0  0  0  0  0  0  0
    1.5125   19.2144    1.0841 H   0  0  0  0  0  0  0  0  0  0  0  0
    1.0887   19.8261   -0.5691 H   0  0  0  0  0  0  0  0  0  0  0  0
   -0.2746   19.4867    1.6107 H   0  0  0  0  0  0  0  0  0  0  0  0
   -0.6781   20.9014   -1.7681 H   0  0  0  0  0  0  0  0  0  0  0  0
   -0.8689   19.1893   -2.2772 H   0  0  0  0  0  0  0  0  0  0  0  0
   -2.2885   20.2898   -2.2772 H   0  0  0  0  0  0  0  0  0  0  0  0
   -2.8498   20.1628    1.3397 H   0  0  0  0  0  0  0  0  0  0  0  0
   -3.0553   21.2301   -0.0904 H   0  0  0  0  0  0  0  0  0  0  0  0
   -3.7681   19.5813   -0.0904 H   0  0  0  0  0  0  0  0  0  0  0  0
   -0.4084   16.2344   -2.0099 H   0  0  0  0  0  0  0  0  0  0  0  0
   -0.1636   16.2041   -4.4142 H   0  0  0  0  0  0  0  0  0  0  0  0
    1.5421   16.6932   -4.3239 H   0  0  0  0  0  0  0  0  0  0  0  0
    0.5982   14.0519   -4.8725 H   0  0  0  0  0  0  0  0  0  0  0  0
    2.2567   14.4329   -4.4178 H   0  0  0  0  0  0  0  0  0  0  0  0
   -0.9175   13.4959   -1.6526 H   0  0  0  0  0  0  0  0  0  0  0  0
   -1.1167   14.3720   -3.2081 H   0  0  0  0  0  0  0  0  0  0  0  0
   -0.7633   12.6108   -3.2081 H   0  0  0  0  0  0  0  0  0  0  0  0
    2.8311   12.9423   -2.5993 H   0  0  0  0  0  0  0  0  0  0  0  0
    1.2987   11.7970   -4.3253 H   0  0  0  0  0  0  0  0  0  0  0  0
    2.5074   10.8258   -3.3321 H   0  0  0  0  0  0  0  0  0  0  0  0
    0.1280    9.7435   -3.6574 H   0  0  0  0  0  0  0  0  0  0  0  0
   -0.2937   12.0472   -0.3697 H   0  0  0  0  0  0  0  0  0  0  0  0
    1.4651    9.6953    0.5639 H   0  0  0  0  0  0  0  0  0  0  0  0
    0.9078   11.1075    1.5666 H   0  0  0  0  0  0  0  0  0  0  0  0
   -0.4078    9.0618    2.0188 H   0  0  0  0  0  0  0  0  0  0  0  0
   -1.4034   10.4030    1.3291 H   0  0  0  0  0  0  0  0  0  0  0  0
   -2.0444    8.3449    0.2729 H   0  0  0  0  0  0  0  0  0  0  0  0
   -0.5750    6.9120   -0.4430 H   0  0  0  0  0  0  0  0  0  0  0  0
   -2.7606   10.5982   -0.1942 H   0  0  0  0  0  0  0  0  0  0  0  0
   -2.3119   11.3828   -1.7465 H   0  0  0  0  0  0  0  0  0  0  0  0
   -3.3731    9.9334   -1.7465 H   0  0  0  0  0  0  0  0  0  0  0  0
   -1.8841    7.5067   -1.9684 H   0  0  0  0  0  0  0  0  0  0  0  0
   -2.4235    8.8162   -3.0734 H   0  0  0  0  0  0  0  0  0  0  0  0
   -0.7055    8.2918   -3.0734 H   0  0  0  0  0  0  0  0  0  0  0  0
    3.2132   11.2244    0.4678 H   0  0  0  0  0  0  0  0  0  0  0  0
    2.9469   10.3280   -1.0659 H   0  0  0  0  0  0  0  0  0  0  0  0
    3.9175   11.8395   -1.0659 H   0  0  0  0  0  0  0  0  0  0  0  0
    1.4019   13.0603    1.0708 H   0  0  0  0  0  0  0  0  0  0  0  0
    2.8772   13.6811    0.1374 H   0  0  0  0  0  0  0  0  0  0  0  0
   -0.0237   14.4682   -0.2537 H   0  0  0  0  0  0  0  0  0  0  0  0
    1.3508   15.4815    0.3392 H   0  0  0  0  0  0  0  0  0  0  0  0
    3.3263   15.4617   -0.7911 H   0  0  0  0  0  0  0  0  0  0  0  0
    3.4704   14.5738   -2.3460 H   0  0  0  0  0  0  0  0  0  0  0  0
    3.0851   16.3283   -2.3460 H   0  0  0  0  0  0  0  0  0  0  0  0
  1  2  1  0
  2  3  1  0
  3  4  1  0
  4  5  1  0
  5  6  1  0
  6  7  1  0
  7  8  1  0
  7  9  1  0
  2 10  1  0
 10 11  1  0
 11 12  1  0
 12 13  1  0
 13 14  1  1
 13 15  1  0
 15 16  1  0
 16 17  1  0
 17 18  2  0
 18 19  1  0
 19 20  1  0
 20 21  1  0
 21 22  1  0
 22 23  1  0
 22 24  1  0
 24 25  1  0
 24 26  1  0
 19 27  1  0
 27 28  1  1
 27 29  1  0
 29 30  1  0
 30 31  1  0
 31 32  1  1
  7  5  1  0
 31 10  1  0
 31 13  1  0
 27 15  1  0
 24 18  1  0
  1 33  1  0
  1 34  1  0
  1 35  1  0
  2 36  1  6
  3 37  1  0
  3 38  1  0
  4 39  1  0
  4 40  1  0
  5 41  1  1
  8 42  1  0
  8 43  1  0
  8 44  1  0
  9 45  1  0
  9 46  1  0
  9 47  1  0
 10 48  1  6
 11 49  1  0
 11 50  1  0
 12 51  1  0
 12 52  1  0
 14 53  1  0
 14 54  1  0
 14 55  1  0
 15 56  1  6
 16 57  1  0
 16 58  1  0
 17 59  1  0
 19 60  1  1
 20 61  1  0
 20 62  1  0
 21 63  1  0
 21 64  1  0
 22 65  1  1
 23 66  1  0
 25 67  1  0
 25 68  1  0
 25 69  1  0
 26 70  1  0
 26 71  1  0
 26 72  1  0
 28 73  1  0
 28 74  1  0
 28 75  1  0
 29 76  1  0
 29 77  1  0
 30 78  1  0
 30 79  1  0
 32 80  1  0
 32 81  1  0
 32 82  1  0
M  END
>  <meeko>  (2) 
{"is_sidechain": [false], "intermolecular_energy": 2.731, "internal_energy": -0.839}

$$$$
EPH_relaxed_0001_pdb2pqr_Repair_59_r2_0001_out
     RDKit          3D

 82 86  0  0  0  0  0  0  0  0999 V2000
    4.1410   17.6410    0.1500 C   0  0  0  0  0  0  0  0  0  0  0  0
    2.7440   18.2060   -0.1210 C   0  0  2  0  0  0  0  0  0  0  0  0
    2.3320   19.2630    0.9220 C   0  0  0  0  0  0  0  0  0  0  0  0
    3.5180   19.9870    1.5660 C   0  0  0  0  0  0  0  0  0  0  0  0
    3.9730   19.3010    2.8190 C   0  0  2  0  0  0  0  0  0  0  0  0
    4.3140   20.1840    3.8950 O   0  0  0  0  0  0  0  0  0  0  0  0
    5.3880   19.3940    3.3580 C   0  0  0  0  0  0  0  0  0  0  0  0
    6.4390   20.1940    2.6550 C   0  0  0  0  0  0  0  0  0  0  0  0
    5.8720   18.3240    4.2860 C   0  0  0  0  0  0  0  0  0  0  0  0
    1.7230   17.0740   -0.1470 C   0  0  1  0  0  0  0  0  0  0  0  0
    0.2940   17.5670   -0.5000 C   0  0  0  0  0  0  0  0  0  0  0  0
   -0.3750   16.4420   -1.3300 C   0  0  0  0  0  0  0  0  0  0  0  0
    0.5530   15.2180   -1.1470 C   0  0  1  0  0  0  0  0  0  0  0  0
    0.1500   14.6120    0.2330 C   0  0  0  0  0  0  0  0  0  0  0  0
    0.5120   14.1440   -2.2830 C   0  0  2  0  0  0  0  0  0  0  0  0
   -0.8470   13.4490   -2.4750 C   0  0  0  0  0  0  0  0  0  0  0  0
   -1.0450   12.2040   -1.6760 C   0  0  0  0  0  0  0  0  0  0  0  0
   -0.0720   11.5080   -1.0580 C   0  0  0  0  0  0  0  0  0  0  0  0
    1.4010   11.9080   -1.2110 C   0  0  1  0  0  0  0  0  0  0  0  0
    2.2520   10.6460   -1.5080 C   0  0  0  0  0  0  0  0  0  0  0  0
    2.0510    9.5470   -0.4690 C   0  0  0  0  0  0  0  0  0  0  0  0
    0.5830    9.1360   -0.3880 C   0  0  2  0  0  0  0  0  0  0  0  0
    0.2110    8.5060   -1.6180 O   0  0  0  0  0  0  0  0  0  0  0  0
   -0.3720   10.3280   -0.1010 C   0  0  0  0  0  0  0  0  0  0  0  0
   -0.1720   10.8180    1.3540 C   0  0  0  0  0  0  0  0  0  0  0  0
   -1.8310    9.8020   -0.1850 C   0  0  0  0  0  0  0  0  0  0  0  0
    1.6950   13.0950   -2.2260 C   0  0  1  0  0  0  0  0  0  0  0  0
    1.8600   12.5310   -3.6710 C   0  0  0  0  0  0  0  0  0  0  0  0
    3.0700   13.7640   -1.8500 C   0  0  0  0  0  0  0  0  0  0  0  0
    3.0290   14.9000   -0.8100 C   0  0  0  0  0  0  0  0  0  0  0  0
    1.9540   15.9310   -1.1660 C   0  0  2  0  0  0  0  0  0  0  0  0
    2.3440   16.5740   -2.5410 C   0  0  0  0  0  0  0  0  0  0  0  0
    4.3054   17.5745    1.2356 H   0  0  0  0  0  0  0  0  0  0  0  0
    4.2239   16.6387   -0.2955 H   0  0  0  0  0  0  0  0  0  0  0  0
    4.8974   18.3039   -0.2955 H   0  0  0  0  0  0  0  0  0  0  0  0
    2.7728   18.7045   -1.1011 H   0  0  0  0  0  0  0  0  0  0  0  0
    1.6962   20.0111    0.4259 H   0  0  0  0  0  0  0  0  0  0  0  0
    1.8040   18.7314    1.7273 H   0  0  0  0  0  0  0  0  0  0  0  0
    4.3525   20.0111    0.8497 H   0  0  0  0  0  0  0  0  0  0  0  0
    3.1956   21.0049    1.8303 H   0  0  0  0  0  0  0  0  0  0  0  0
    3.3168   18.4422    2.6144 H   0  0  0  0  0  0  0  0  0  0  0  0
    7.0843   20.6852    3.3982 H   0  0  0  0  0  0  0  0  0  0  0  0
    7.0467   19.5278    2.0250 H   0  0  0  0  0  0  0  0  0  0  0  0
    5.9587   20.9571    2.0250 H   0  0  0  0  0  0  0  0  0  0  0  0
    5.7256   18.6477    5.3270 H   0  0  0  0  0  0  0  0  0  0  0  0
    5.3047   17.3988    4.1065 H   0  0  0  0  0  0  0  0  0  0  0  0
    6.9414   18.1391    4.1065 H   0  0  0  0  0  0  0  0  0  0  0  0
    1.8431   16.6939    0.8782 H   0  0  0  0  0  0  0  0  0  0  0  0
   -0.2807   17.7522    0.4195 H   0  0  0  0  0  0  0  0  0  0  0  0
    0.3301   18.5085   -1.0678 H   0  0  0  0  0  0  0  0  0  0  0  0
   -1.3836   16.2252   -0.9484 H   0  0  0  0  0  0  0  0  0  0  0  0
   -0.4961   16.7194   -2.3875 H   0  0  0  0  0  0  0  0  0  0  0  0
    0.5633   15.2334    1.0411 H   0  0  0  0  0  0  0  0  0  0  0  0
   -0.9466   14.5850    0.3154 H   0  0  0  0  0  0  0  0  0  0  0  0
    0.5492   13.5903    0.3154 H   0  0  0  0  0  0  0  0  0  0  0  0
    0.6672   14.7509   -3.1872 H   0  0  0  0  0  0  0  0  0  0  0  0
   -1.6361   14.1621   -2.1943 H   0  0  0  0  0  0  0  0  0  0  0  0
   -0.8855   13.1424   -3.5307 H   0  0  0  0  0  0  0  0  0  0  0  0
   -2.0727   11.8228   -1.5842 H   0  0  0  0  0  0  0  0  0  0  0  0
    1.7005   12.3412   -0.2452 H   0  0  0  0  0  0  0  0  0  0  0  0
    1.9681   10.2537   -2.4957 H   0  0  0  0  0  0  0  0  0  0  0  0
    3.3108   10.9429   -1.4794 H   0  0  0  0  0  0  0  0  0  0  0  0
    2.6552    8.6715   -0.7492 H   0  0  0  0  0  0  0  0  0  0  0  0
    2.3633    9.9307    0.5135 H   0  0  0  0  0  0  0  0  0  0  0  0
    0.4815    8.4421    0.4594 H   0  0  0  0  0  0  0  0  0  0  0  0
    0.2510    9.1800   -2.3170 H   0  0  0  0  0  0  0  0  0  0  0  0
   -0.4929   10.0317    2.0531 H   0  0  0  0  0  0  0  0  0  0  0  0
    0.8911   11.0458    1.5213 H   0  0  0  0  0  0  0  0  0  0  0  0
   -0.7720   11.7246    1.5213 H   0  0  0  0  0  0  0  0  0  0  0  0
   -2.2282    9.6588    0.8307 H   0  0  0  0  0  0  0  0  0  0  0  0
   -2.4537   10.5322   -0.7226 H   0  0  0  0  0  0  0  0  0  0  0  0
   -1.8444    8.8424   -0.7226 H   0  0  0  0  0  0  0  0  0  0  0  0
    2.1685   11.4764   -3.6200 H   0  0  0  0  0  0  0  0  0  0  0  0
    0.9019   12.6073   -4.2060 H   0  0  0  0  0  0  0  0  0  0  0  0
    2.6259   13.1116   -4.2060 H   0  0  0  0  0  0  0  0  0  0  0  0
    3.7269   12.9750   -1.4551 H   0  0  0  0  0  0  0  0  0  0  0  0
    3.4233   14.2366   -2.7784 H   0  0  0  0  0  0  0  0  0  0  0  0
    2.8055   14.4742    0.1793 H   0  0  0  0  0  0  0  0  0  0  0  0
    4.0074   15.4025   -0.8010 H   0  0  0  0  0  0  0  0  0  0  0  0
    2.9071   17.5024   -2.3650 H   0  0  0  0  0  0  0  0  0  0  0  0
    2.9672   15.8697   -3.1115 H   0  0  0  0  0  0  0  0  0  0  0  0
    1.4314   16.8012   -3.1115 H   0  0  0  0  0  0  0  0  0  0  0  0
  1  2  1  0
  2  3  1  0
  3  4  1  0
  4  5  1  0
  5  6  1  0
  6  7  1  0
  7  8  1  0
  7  9  1  0
  2 10  1  0
 10 11  1  0
 11 12  1  0
 12 13  1  0
 13 14  1  1
 13 15  1  0
 15 16  1  0
 16 17  1  0
 17 18  2  0
 18 19  1  0
 19 20  1  0
 20 21  1  0
 21 22  1  0
 22 23  1  0
 22 24  1  0
 24 25  1  0
 24 26  1  0
 19 27  1  0
 27 28  1  6
 27 29  1  0
 29 30  1  0
 30 31  1  0
 31 32  1  6
  7  5  1  0
 31 10  1  0
 31 13  1  0
 27 15  1  0
 24 18  1  0
  1 33  1  0
  1 34  1  0
  1 35  1  0
  2 36  1  6
  3 37  1  0
  3 38  1  0
  4 39  1  0
  4 40  1  0
  5 41  1  1
  8 42  1  0
  8 43  1  0
  8 44  1  0
  9 45  1  0
  9 46  1  0
  9 47  1  0
 10 48  1  1
 11 49  1  0
 11 50  1  0
 12 51  1  0
 12 52  1  0
 14 53  1  0
 14 54  1  0
 14 55  1  0
 15 56  1  6
 16 57  1  0
 16 58  1  0
 17 59  1  0
 19 60  1  1
 20 61  1  0
 20 62  1  0
 21 63  1  0
 21 64  1  0
 22 65  1  1
 23 66  1  0
 25 67  1  0
 25 68  1  0
 25 69  1  0
 26 70  1  0
 26 71  1  0
 26 72  1  0
 28 73  1  0
 28 74  1  0
 28 75  1  0
 29 76  1  0
 29 77  1  0
 30 78  1  0
 30 79  1  0
 32 80  1  0
 32 81  1  0
 32 82  1  0
M  END
>  <meeko>  (3) 
{"is_sidechain": [false], "intermolecular_energy": 2.731, "internal_energy": -0.839}

$$$$
EPH_relaxed_0001_pdb2pqr_Repair_59_r2_0001_out
     RDKit          3D

 82 86  0  0  0  0  0  0  0  0999 V2000
    0.4030   18.4020   -0.0680 C   0  0  0  0  0  0  0  0  0  0  0  0
    1.4890   17.3430   -0.2770 C   0  0  2  0  0  0  0  0  0  0  0  0
    2.7050   17.9000   -1.0440 C   0  0  0  0  0  0  0  0  0  0  0  0
    3.9370   18.1270   -0.1640 C   0  0  0  0  0  0  0  0  0  0  0  0
    3.5590   18.6010    1.2070 C   0  0  2  0  0  0  0  0  0  0  0  0
    3.7830   19.9980    1.4400 O   0  0  0  0  0  0  0  0  0  0  0  0
    4.5670   19.0890    2.2310 C   0  0  0  0  0  0  0  0  0  0  0  0
    6.0320   19.1270    1.9270 C   0  0  0  0  0  0  0  0  0  0  0  0
    4.1860   19.0660    3.6780 C   0  0  0  0  0  0  0  0  0  0  0  0
    0.9100   16.1440   -1.0190 C   0  0  1  0  0  0  0  0  0  0  0  0
    0.7750   16.3940   -2.5440 C   0  0  0  0  0  0  0  0  0  0  0  0
    1.0590   15.0410   -3.2460 C   0  0  0  0  0  0  0  0  0  0  0  0
    1.0190   13.9950   -2.1080 C   0  0  1  0  0  0  0  0  0  0  0  0
   -0.4980   13.7040   -1.8830 C   0  0  0  0  0  0  0  0  0  0  0  0
    1.8300   12.6800   -2.3490 C   0  0  2  0  0  0  0  0  0  0  0  0
    1.3530   11.8290   -3.5390 C   0  0  0  0  0  0  0  0  0  0  0  0
    0.3210   10.8000   -3.2140 C   0  0  0  0  0  0  0  0  0  0  0  0
    0.0040   10.3740   -1.9770 C   0  0  0  0  0  0  0  0  0  0  0  0
    0.7810   10.8680   -0.7500 C   0  0  1  0  0  0  0  0  0  0  0  0
    1.1380    9.6610    0.1560 C   0  0  0  0  0  0  0  0  0  0  0  0
   -0.0850    8.8310    0.5350 C   0  0  0  0  0  0  0  0  0  0  0  0
   -0.7970    8.3100   -0.7100 C   0  0  2  0  0  0  0  0  0  0  0  0
    0.0560    7.3680   -1.3680 O   0  0  0  0  0  0  0  0  0  0  0  0
   -1.1980    9.4360   -1.7030 C   0  0  0  0  0  0  0  0  0  0  0  0
   -2.3460   10.2810   -1.0970 C   0  0  0  0  0  0  0  0  0  0  0  0
   -1.7790    8.7650   -2.9770 C   0  0  0  0  0  0  0  0  0  0  0  0
    2.0340   11.7970   -1.0510 C   0  0  1  0  0  0  0  0  0  0  0  0
    3.2980   10.9210   -1.3040 C   0  0  0  0  0  0  0  0  0  0  0  0
    2.3460   12.6690    0.2220 C   0  0  0  0  0  0  0  0  0  0  0  0
    1.6020   14.0130    0.3440 C   0  0  0  0  0  0  0  0  0  0  0  0
    1.7060   14.8160   -0.9560 C   0  0  2  0  0  0  0  0  0  0  0  0
    3.2190   15.1430   -1.1970 C   0  0  0  0  0  0  0  0  0  0  0  0
    0.2443   18.5568    1.0094 H   0  0  0  0  0  0  0  0  0  0  0  0
    0.7193   19.3480   -0.5316 H   0  0  0  0  0  0  0  0  0  0  0  0
   -0.5348   18.0620   -0.5316 H   0  0  0  0  0  0  0  0  0  0  0  0
    1.8413   17.0307    0.7172 H   0  0  0  0  0  0  0  0  0  0  0  0
    2.9718   17.1862   -1.8373 H   0  0  0  0  0  0  0  0  0  0  0  0
    2.4105   18.8815   -1.4438 H   0  0  0  0  0  0  0  0  0  0  0  0
    4.4902   17.1805   -0.0741 H   0  0  0  0  0  0  0  0  0  0  0  0
    4.5576   18.9028   -0.6362 H   0  0  0  0  0  0  0  0  0  0  0  0
    2.7479   17.8602    1.2654 H   0  0  0  0  0  0  0  0  0  0  0  0
    6.6015   19.1418    2.8680 H   0  0  0  0  0  0  0  0  0  0  0  0
    6.3089   18.2357    1.3448 H   0  0  0  0  0  0  0  0  0  0  0  0
    6.2623   20.0314    1.3448 H   0  0  0  0  0  0  0  0  0  0  0  0
    5.0936   19.1208    4.2971 H   0  0  0  0  0  0  0  0  0  0  0  0
    3.5380   19.9267    3.9003 H   0  0  0  0  0  0  0  0  0  0  0  0
    3.6463   18.1336    3.9003 H   0  0  0  0  0  0  0  0  0  0  0  0
   -0.0432   16.0367   -0.4805 H   0  0  0  0  0  0  0  0  0  0  0  0
   -0.2420   16.7385   -2.7828 H   0  0  0  0  0  0  0  0  0  0  0  0
    1.4789   17.1692   -2.8810 H   0  0  0  0  0  0  0  0  0  0  0  0
    0.2872   14.8249   -3.9994 H   0  0  0  0  0  0  0  0  0  0  0  0
    2.0215   15.0414   -3.7785 H   0  0  0  0  0  0  0  0  0  0  0  0
   -0.7075   13.6638   -0.8039 H   0  0  0  0  0  0  0  0  0  0  0  0
   -1.0970   14.5036   -2.3433 H   0  0  0  0  0  0  0  0  0  0  0  0
   -0.7585   12.7395   -2.3433 H   0  0  0  0  0  0  0  0  0  0  0  0
    2.8215   13.0623   -2.6334 H   0  0  0  0  0  0  0  0  0  0  0  0
    0.9302   12.5077   -4.2944 H   0  0  0  0  0  0  0  0  0  0  0  0
    2.2358   11.2745   -3.8899 H   0  0  0  0  0  0  0  0  0  0  0  0
   -0.2265   10.3522   -4.0565 H   0  0  0  0  0  0  0  0  0  0  0  0
    0.1036   11.5494   -0.2145 H   0  0  0  0  0  0  0  0  0  0  0  0
    1.8494    9.0159   -0.3804 H   0  0  0  0  0  0  0  0  0  0  0  0
    1.5724   10.0584    1.0852 H   0  0  0  0  0  0  0  0  0  0  0  0
    0.2357    7.9773    1.1502 H   0  0  0  0  0  0  0  0  0  0  0  0
   -0.7824    9.4694    1.0972 H   0  0  0  0  0  0  0  0  0  0  0  0
   -1.7332    7.8355   -0.3808 H   0  0  0  0  0  0  0  0  0  0  0  0
    0.9150    7.3820   -0.9150 H   0  0  0  0  0  0  0  0  0  0  0  0
   -2.2910   10.2405    0.0009 H   0  0  0  0  0  0  0  0  0  0  0  0
   -2.2487   11.3246   -1.4308 H   0  0  0  0  0  0  0  0  0  0  0  0
   -3.3136    9.8780   -1.4308 H   0  0  0  0  0  0  0  0  0  0  0  0
   -2.4732    7.9632   -2.6850 H   0  0  0  0  0  0  0  0  0  0  0  0
   -2.3167    9.5161   -3.5743 H   0  0  0  0  0  0  0  0  0  0  0  0
   -0.9587    8.3403   -3.5743 H   0  0  0  0  0  0  0  0  0  0  0  0
    3.7337   10.6190   -0.3402 H   0  0  0  0  0  0  0  0  0  0  0  0
    3.0146   10.0247   -1.8752 H   0  0  0  0  0  0  0  0  0  0  0  0
    4.0378   11.5011   -1.8752 H   0  0  0  0  0  0  0  0  0  0  0  0
    2.0932   12.0673    1.1075 H   0  0  0  0  0  0  0  0  0  0  0  0
    3.4094   12.9361    0.1339 H   0  0  0  0  0  0  0  0  0  0  0  0
    0.5417   13.8189    0.5635 H   0  0  0  0  0  0  0  0  0  0  0  0
    2.0620   14.5967    1.1550 H   0  0  0  0  0  0  0  0  0  0  0  0
    3.7291   15.2532   -0.2287 H   0  0  0  0  0  0  0  0  0  0  0  0
    3.6849   14.3248   -1.7658 H   0  0  0  0  0  0  0  0  0  0  0  0
    3.3054   16.0806   -1.7658 H   0  0  0  0  0  0  0  0  0  0  0  0
  1  2  1  0
  2  3  1  0
  3  4  1  0
  4  5  1  0
  5  6  1  0
  6  7  1  0
  7  8  1  0
  7  9  1  0
  2 10  1  0
 10 11  1  0
 11 12  1  0
 12 13  1  0
 13 14  1  1
 13 15  1  0
 15 16  1  0
 16 17  1  0
 17 18  2  0
 18 19  1  0
 19 20  1  0
 20 21  1  0
 21 22  1  0
 22 23  1  0
 22 24  1  0
 24 25  1  0
 24 26  1  0
 19 27  1  0
 27 28  1  6
 27 29  1  0
 29 30  1  0
 30 31  1  0
 31 32  1  6
  7  5  1  0
 31 10  1  0
 31 13  1  0
 27 15  1  0
 24 18  1  0
  1 33  1  0
  1 34  1  0
  1 35  1  0
  2 36  1  1
  3 37  1  0
  3 38  1  0
  4 39  1  0
  4 40  1  0
  5 41  1  1
  8 42  1  0
  8 43  1  0
  8 44  1  0
  9 45  1  0
  9 46  1  0
  9 47  1  0
 10 48  1  1
 11 49  1  0
 11 50  1  0
 12 51  1  0
 12 52  1  0
 14 53  1  0
 14 54  1  0
 14 55  1  0
 15 56  1  6
 16 57  1  0
 16 58  1  0
 17 59  1  0
 19 60  1  1
 20 61  1  0
 20 62  1  0
 21 63  1  0
 21 64  1  0
 22 65  1  1
 23 66  1  0
 25 67  1  0
 25 68  1  0
 25 69  1  0
 26 70  1  0
 26 71  1  0
 26 72  1  0
 28 73  1  0
 28 74  1  0
 28 75  1  0
 29 76  1  0
 29 77  1  0
 30 78  1  0
 30 79  1  0
 32 80  1  0
 32 81  1  0
 32 82  1  0
M  END
>  <meeko>  (4) 
{"is_sidechain": [false], "intermolecular_energy": 2.731, "internal_energy": -0.839}

$$$$
EPH_relaxed_0001_pdb2pqr_Repair_59_r2_0001_out
     RDKit          3D

 82 86  0  0  0  0  0  0  0  0999 V2000
    2.1950   18.1310   -2.6800 C   0  0  0  0  0  0  0  0  0  0  0  0
    0.8770   17.7430   -2.0030 C   0  0  2  0  0  0  0  0  0  0  0  0
    0.9670   17.8290   -0.4660 C   0  0  0  0  0  0  0  0  0  0  0  0
    2.3830   18.0960    0.0540 C   0  0  0  0  0  0  0  0  0  0  0  0
    2.4030   19.2060    1.0610 C   0  0  2  0  0  0  0  0  0  0  0  0
    3.4270   20.1860    0.8500 O   0  0  0  0  0  0  0  0  0  0  0  0
    3.5310   19.4110    2.0560 C   0  0  0  0  0  0  0  0  0  0  0  0
    4.7160   18.4980    2.0920 C   0  0  0  0  0  0  0  0  0  0  0  0
    3.2520   20.1940    3.3010 C   0  0  0  0  0  0  0  0  0  0  0  0
    0.4720   16.3350   -2.4230 C   0  0  1  0  0  0  0  0  0  0  0  0
    0.5510   16.1230   -3.9580 C   0  0  0  0  0  0  0  0  0  0  0  0
    0.9990   14.6570   -4.1850 C   0  0  0  0  0  0  0  0  0  0  0  0
    0.8430   13.9830   -2.8010 C   0  0  1  0  0  0  0  0  0  0  0  0
   -0.6750   13.6350   -2.6940 C   0  0  0  0  0  0  0  0  0  0  0  0
    1.7420   12.7310   -2.5370 C   0  0  2  0  0  0  0  0  0  0  0  0
    1.4870   11.5350   -3.4700 C   0  0  0  0  0  0  0  0  0  0  0  0
    0.4680   10.5560   -2.9880 C   0  0  0  0  0  0  0  0  0  0  0  0
   -0.0070   10.4760   -1.7310 C   0  0  0  0  0  0  0  0  0  0  0  0
    0.5570   11.3690   -0.6180 C   0  0  1  0  0  0  0  0  0  0  0  0
    0.8340   10.5100    0.6430 C   0  0  0  0  0  0  0  0  0  0  0  0
   -0.3900    9.7190    1.0940 C   0  0  0  0  0  0  0  0  0  0  0  0
   -0.8860    8.8010   -0.0200 C   0  0  2  0  0  0  0  0  0  0  0  0
    0.0980    7.7890   -0.2560 O   0  0  0  0  0  0  0  0  0  0  0  0
   -1.1890    9.5540   -1.3460 C   0  0  0  0  0  0  0  0  0  0  0  0
   -2.4530   10.4310   -1.1680 C   0  0  0  0  0  0  0  0  0  0  0  0
   -1.5440    8.4960   -2.4260 C   0  0  0  0  0  0  0  0  0  0  0  0
    1.7950   12.2800   -1.0210 C   0  0  1  0  0  0  0  0  0  0  0  0
    3.1230   11.4840   -0.8390 C   0  0  0  0  0  0  0  0  0  0  0  0
    1.8730   13.5050   -0.0340 C   0  0  0  0  0  0  0  0  0  0  0  0
    1.0570   14.7560   -0.4130 C   0  0  0  0  0  0  0  0  0  0  0  0
    1.3120   15.1580   -1.8680 C   0  0  2  0  0  0  0  0  0  0  0  0
    2.8270   15.5350   -2.0010 C   0  0  0  0  0  0  0  0  0  0  0  0
    2.9503   18.3533   -1.9118 H   0  0  0  0  0  0  0  0  0  0  0  0
    2.5443   17.2976   -3.3072 H   0  0  0  0  0  0  0  0  0  0  0  0
    2.0370   19.0207   -3.3072 H   0  0  0  0  0  0  0  0  0  0  0  0
    0.1122   18.4629   -2.3299 H   0  0  0  0  0  0  0  0  0  0  0  0
    0.3123   18.6445   -0.1249 H   0  0  0  0  0  0  0  0  0  0  0  0
    0.6587   16.8499   -0.0707 H   0  0  0  0  0  0  0  0  0  0  0  0
    2.7684   17.1799    0.5254 H   0  0  0  0  0  0  0  0  0  0  0  0
    3.0110   18.3946   -0.7984 H   0  0  0  0  0  0  0  0  0  0  0  0
    1.3116   19.1468    1.1847 H   0  0  0  0  0  0  0  0  0  0  0  0
    4.9866   18.2895    3.1376 H   0  0  0  0  0  0  0  0  0  0  0  0
    4.4681   17.5552    1.5824 H   0  0  0  0  0  0  0  0  0  0  0  0
    5.5644   18.9781    1.5824 H   0  0  0  0  0  0  0  0  0  0  0  0
    3.4732   19.5733    4.1818 H   0  0  0  0  0  0  0  0  0  0  0  0
    3.8850   21.0935    3.3180 H   0  0  0  0  0  0  0  0  0  0  0  0
    2.1929   20.4906    3.3180 H   0  0  0  0  0  0  0  0  0  0  0  0
   -0.5440   16.3027   -2.0026 H   0  0  0  0  0  0  0  0  0  0  0  0
   -0.4351   16.2927   -4.4150 H   0  0  0  0  0  0  0  0  0  0  0  0
    1.2593   16.8279   -4.4179 H   0  0  0  0  0  0  0  0  0  0  0  0
    0.3569   14.1657   -4.9309 H   0  0  0  0  0  0  0  0  0  0  0  0
    2.0278   14.5896   -4.5684 H   0  0  0  0  0  0  0  0  0  0  0  0
   -0.9623   13.5691   -1.6342 H   0  0  0  0  0  0  0  0  0  0  0  0
   -1.2669   14.4208   -3.1862 H   0  0  0  0  0  0  0  0  0  0  0  0
   -0.8655   12.6699   -3.1862 H   0  0  0  0  0  0  0  0  0  0  0  0
    2.7446   13.1023   -2.7958 H   0  0  0  0  0  0  0  0  0  0  0  0
    1.1492   11.9271   -4.4406 H   0  0  0  0  0  0  0  0  0  0  0  0
    2.4371   10.9834   -3.5242 H   0  0  0  0  0  0  0  0  0  0  0  0
    0.0718    9.8393   -3.7224 H   0  0  0  0  0  0  0  0  0  0  0  0
   -0.2232   12.1128   -0.3988 H   0  0  0  0  0  0  0  0  0  0  0  0
    1.6463    9.8036    0.4167 H   0  0  0  0  0  0  0  0  0  0  0  0
    1.1077   11.1947    1.4592 H   0  0  0  0  0  0  0  0  0  0  0  0
   -0.1225    9.1101    1.9702 H   0  0  0  0  0  0  0  0  0  0  0  0
   -1.1920   10.4274    1.3488 H   0  0  0  0  0  0  0  0  0  0  0  0
   -1.8368    8.3607    0.3149 H   0  0  0  0  0  0  0  0  0  0  0  0
    0.0030    7.4940   -1.1780 H   0  0  0  0  0  0  0  0  0  0  0  0
   -2.6543   10.5707   -0.0956 H   0  0  0  0  0  0  0  0  0  0  0  0
   -2.2892   11.4105   -1.6410 H   0  0  0  0  0  0  0  0  0  0  0  0
   -3.3132    9.9347   -1.6410 H   0  0  0  0  0  0  0  0  0  0  0  0
   -1.8572    7.5624   -1.9357 H   0  0  0  0  0  0  0  0  0  0  0  0
   -2.3646    8.8738   -3.0536 H   0  0  0  0  0  0  0  0  0  0  0  0
   -0.6616    8.3024   -3.0536 H   0  0  0  0  0  0  0  0  0  0  0  0
    3.3315   11.3590    0.2338 H   0  0  0  0  0  0  0  0  0  0  0  0
    3.0255   10.4953   -1.3112 H   0  0  0  0  0  0  0  0  0  0  0  0
    3.9490   12.0360   -1.3112 H   0  0  0  0  0  0  0  0  0  0  0  0
    1.5195   13.1627    0.9498 H   0  0  0  0  0  0  0  0  0  0  0  0
    2.9241   13.8285   -0.0594 H   0  0  0  0  0  0  0  0  0  0  0  0
   -0.0136   14.5403   -0.2819 H   0  0  0  0  0  0  0  0  0  0  0  0
    1.3658   15.5864    0.2390 H   0  0  0  0  0  0  0  0  0  0  0  0
    3.2670   15.6445   -0.9988 H   0  0  0  0  0  0  0  0  0  0  0  0
    3.3557   14.7410   -2.5488 H   0  0  0  0  0  0  0  0  0  0  0  0
    2.9219   16.4842   -2.5488 H   0  0  0  0  0  0  0  0  0  0  0  0
  1  2  1  0
  2  3  1  0
  3  4  1  0
  4  5  1  0
  5  6  1  0
  6  7  1  0
  7  8  1  0
  7  9  1  0
  2 10  1  0
 10 11  1  0
 11 12  1  0
 12 13  1  0
 13 14  1  1
 13 15  1  0
 15 16  1  0
 16 17  1  0
 17 18  2  0
 18 19  1  0
 19 20  1  0
 20 21  1  0
 21 22  1  0
 22 23  1  0
 22 24  1  0
 24 25  1  0
 24 26  1  0
 19 27  1  0
 27 28  1  6
 27 29  1  0
 29 30  1  0
 30 31  1  0
 31 32  1  1
  7  5  1  0
 31 10  1  0
 31 13  1  0
 27 15  1  0
 24 18  1  0
  1 33  1  0
  1 34  1  0
  1 35  1  0
  2 36  1  6
  3 37  1  0
  3 38  1  0
  4 39  1  0
  4 40  1  0
  5 41  1  1
  8 42  1  0
  8 43  1  0
  8 44  1  0
  9 45  1  0
  9 46  1  0
  9 47  1  0
 10 48  1  1
 11 49  1  0
 11 50  1  0
 12 51  1  0
 12 52  1  0
 14 53  1  0
 14 54  1  0
 14 55  1  0
 15 56  1  6
 16 57  1  0
 16 58  1  0
 17 59  1  0
 19 60  1  1
 20 61  1  0
 20 62  1  0
 21 63  1  0
 21 64  1  0
 22 65  1  1
 23 66  1  0
 25 67  1  0
 25 68  1  0
 25 69  1  0
 26 70  1  0
 26 71  1  0
 26 72  1  0
 28 73  1  0
 28 74  1  0
 28 75  1  0
 29 76  1  0
 29 77  1  0
 30 78  1  0
 30 79  1  0
 32 80  1  0
 32 81  1  0
 32 82  1  0
M  END
>  <meeko>  (5) 
{"is_sidechain": [false], "intermolecular_energy": 2.731, "internal_energy": -0.839}

$$$$
EPH_relaxed_0001_pdb2pqr_Repair_59_r2_0001_out
     RDKit          3D

 82 86  0  0  0  0  0  0  0  0999 V2000
    3.8090   17.9570    0.6620 C   0  0  0  0  0  0  0  0  0  0  0  0
    2.7390   18.4250   -0.3280 C   0  0  2  0  0  0  0  0  0  0  0  0
    2.0160   19.6980    0.1570 C   0  0  0  0  0  0  0  0  0  0  0  0
    0.7870   19.4150    1.0240 C   0  0  0  0  0  0  0  0  0  0  0  0
   -0.4390   20.0870    0.4840 C   0  0  2  0  0  0  0  0  0  0  0  0
   -1.5230   20.1920    1.4160 O   0  0  0  0  0  0  0  0  0  0  0  0
   -1.7570   19.3690    0.2620 C   0  0  0  0  0  0  0  0  0  0  0  0
   -1.9160   17.9140    0.5750 C   0  0  0  0  0  0  0  0  0  0  0  0
   -2.7360   19.9540   -0.7070 C   0  0  0  0  0  0  0  0  0  0  0  0
    1.7280   17.3100   -0.5650 C   0  0  1  0  0  0  0  0  0  0  0  0
    0.5150   17.7740   -1.4160 C   0  0  0  0  0  0  0  0  0  0  0  0
    0.0970   16.5670   -2.2940 C   0  0  0  0  0  0  0  0  0  0  0  0
    0.8550   15.3630   -1.6890 C   0  0  1  0  0  0  0  0  0  0  0  0
   -0.0010   14.9260   -0.4590 C   0  0  0  0  0  0  0  0  0  0  0  0
    1.1320   14.1640   -2.6540 C   0  0  2  0  0  0  0  0  0  0  0  0
   -0.1240   13.4660   -3.2040 C   0  0  0  0  0  0  0  0  0  0  0  0
   -0.6300   12.3250   -2.3860 C   0  0  0  0  0  0  0  0  0  0  0  0
    0.0560   11.6960   -1.4130 C   0  0  0  0  0  0  0  0  0  0  0  0
    1.5170   12.0590   -1.1180 C   0  0  1  0  0  0  0  0  0  0  0  0
    2.3560   10.7610   -0.9840 C   0  0  0  0  0  0  0  0  0  0  0  0
    1.7760    9.7930    0.0430 C   0  0  0  0  0  0  0  0  0  0  0  0
    0.3430    9.4100   -0.3160 C   0  0  2  0  0  0  0  0  0  0  0  0
    0.3590    8.6460   -1.5250 O   0  0  0  0  0  0  0  0  0  0  0  0
   -0.5950   10.6390   -0.4870 C   0  0  0  0  0  0  0  0  0  0  0  0
   -0.8520   11.2930    0.8930 C   0  0  0  0  0  0  0  0  0  0  0  0
   -1.9710   10.1230   -0.9860 C   0  0  0  0  0  0  0  0  0  0  0  0
    2.1810   13.1160   -2.1020 C   0  0  1  0  0  0  0  0  0  0  0  0
    2.7770   12.3850   -3.3440 C   0  0  0  0  0  0  0  0  0  0  0  0
    3.3910   13.8080   -1.3710 C   0  0  0  0  0  0  0  0  0  0  0  0
    3.0710   15.0580   -0.5290 C   0  0  0  0  0  0  0  0  0  0  0  0
    2.2200   16.0520   -1.3250 C   0  0  2  0  0  0  0  0  0  0  0  0
    3.0650   16.5260   -2.5560 C   0  0  0  0  0  0  0  0  0  0  0  0
    3.4508   18.1137    1.6902 H   0  0  0  0  0  0  0  0  0  0  0  0
    4.0126   16.8877    0.5035 H   0  0  0  0  0  0  0  0  0  0  0  0
    4.7324   18.5334    0.5035 H   0  0  0  0  0  0  0  0  0  0  0  0
    3.2468   18.6734   -1.2717 H   0  0  0  0  0  0  0  0  0  0  0  0
    2.7258   20.2975    0.7459 H   0  0  0  0  0  0  0  0  0  0  0  0
    1.6618   20.2279   -0.7395 H   0  0  0  0  0  0  0  0  0  0  0  0
    0.6143   18.3291    1.0540 H   0  0  0  0  0  0  0  0  0  0  0  0
    0.9796   19.8115    2.0318 H   0  0  0  0  0  0  0  0  0  0  0  0
    0.1710   20.7283   -0.1692 H   0  0  0  0  0  0  0  0  0  0  0  0
   -1.9314   17.7732    1.6658 H   0  0  0  0  0  0  0  0  0  0  0  0
   -2.8596   17.5473    0.1446 H   0  0  0  0  0  0  0  0  0  0  0  0
   -1.0739   17.3522    0.1446 H   0  0  0  0  0  0  0  0  0  0  0  0
   -3.5523   20.4418   -0.1541 H   0  0  0  0  0  0  0  0  0  0  0  0
   -2.2269   20.6961   -1.3396 H   0  0  0  0  0  0  0  0  0  0  0  0
   -3.1483   19.1541   -1.3396 H   0  0  0  0  0  0  0  0  0  0  0  0
    1.4921   17.0514    0.4778 H   0  0  0  0  0  0  0  0  0  0  0  0
   -0.3165   18.0712   -0.7600 H   0  0  0  0  0  0  0  0  0  0  0  0
    0.7778   18.6425   -2.0378 H   0  0  0  0  0  0  0  0  0  0  0  0
   -0.9901   16.4072   -2.2422 H   0  0  0  0  0  0  0  0  0  0  0  0
    0.3383   16.7206   -3.3562 H   0  0  0  0  0  0  0  0  0  0  0  0
    0.5258   15.1949    0.4685 H   0  0  0  0  0  0  0  0  0  0  0  0
   -0.9744   15.4375   -0.4893 H   0  0  0  0  0  0  0  0  0  0  0  0
   -0.1576   13.8376   -0.4893 H   0  0  0  0  0  0  0  0  0  0  0  0
    1.6007   14.6595   -3.5170 H   0  0  0  0  0  0  0  0  0  0  0  0
   -0.9260   14.2156   -3.2743 H   0  0  0  0  0  0  0  0  0  0  0  0
    0.1665   13.0385   -4.1750 H   0  0  0  0  0  0  0  0  0  0  0  0
   -1.6491   11.9678   -2.5956 H   0  0  0  0  0  0  0  0  0  0  0  0
    1.5088   12.5988   -0.1596 H   0  0  0  0  0  0  0  0  0  0  0  0
    2.3883   10.2594   -1.9624 H   0  0  0  0  0  0  0  0  0  0  0  0
    3.3617   11.0472   -0.6424 H   0  0  0  0  0  0  0  0  0  0  0  0
    2.3952    8.8842    0.0708 H   0  0  0  0  0  0  0  0  0  0  0  0
    1.7715   10.2860    1.0263 H   0  0  0  0  0  0  0  0  0  0  0  0
   -0.0604    8.8209    0.5208 H   0  0  0  0  0  0  0  0  0  0  0  0
    0.0650    7.7450   -1.3070 H   0  0  0  0  0  0  0  0  0  0  0  0
   -0.5748   10.5877    1.6903 H   0  0  0  0  0  0  0  0  0  0  0  0
   -0.2459   12.2064    0.9845 H   0  0  0  0  0  0  0  0  0  0  0  0
   -1.9178   11.5494    0.9845 H   0  0  0  0  0  0  0  0  0  0  0  0
   -2.6083    9.8840   -0.1219 H   0  0  0  0  0  0  0  0  0  0  0  0
   -2.4553   10.9006   -1.5949 H   0  0  0  0  0  0  0  0  0  0  0  0
   -1.8246    9.2187   -1.5949 H   0  0  0  0  0  0  0  0  0  0  0  0
    3.4390   11.5730   -3.0088 H   0  0  0  0  0  0  0  0  0  0  0  0
    1.9601   11.9657   -3.9496 H   0  0  0  0  0  0  0  0  0  0  0  0
    3.3523   13.1007   -3.9496 H   0  0  0  0  0  0  0  0  0  0  0  0
    3.8454   13.0630   -0.7013 H   0  0  0  0  0  0  0  0  0  0  0  0
    4.0486   14.1647   -2.1774 H   0  0  0  0  0  0  0  0  0  0  0  0
    2.5193   14.7531    0.3725 H   0  0  0  0  0  0  0  0  0  0  0  0
    4.0170   15.5475   -0.2543 H   0  0  0  0  0  0  0  0  0  0  0  0
    3.9735   17.0356   -2.2027 H   0  0  0  0  0  0  0  0  0  0  0  0
    3.3468   15.6543   -3.1648 H   0  0  0  0  0  0  0  0  0  0  0  0
    2.4680   17.2209   -3.1648 H   0  0  0  0  0  0  0  0  0  0  0  0
  1  2  1  0
  2  3  1  0
  3  4  1  0
  4  5  1  0
  5  6  1  0
  6  7  1  0
  7  8  1  0
  7  9  1  0
  2 10  1  0
 10 11  1  0
 11 12  1  0
 12 13  1  0
 13 14  1  1
 13 15  1  0
 15 16  1  0
 16 17  1  0
 17 18  2  0
 18 19  1  0
 19 20  1  0
 20 21  1  0
 21 22  1  0
 22 23  1  0
 22 24  1  0
 24 25  1  0
 24 26  1  0
 19 27  1  0
 27 28  1  6
 27 29  1  0
 29 30  1  0
 30 31  1  0
 31 32  1  6
  7  5  1  0
 31 10  1  0
 31 13  1  0
 27 15  1  0
 24 18  1  0
  1 33  1  0
  1 34  1  0
  1 35  1  0
  2 36  1  6
  3 37  1  0
  3 38  1  0
  4 39  1  0
  4 40  1  0
  5 41  1  6
  8 42  1  0
  8 43  1  0
  8 44  1  0
  9 45  1  0
  9 46  1  0
  9 47  1  0
 10 48  1  1
 11 49  1  0
 11 50  1  0
 12 51  1  0
 12 52  1  0
 14 53  1  0
 14 54  1  0
 14 55  1  0
 15 56  1  6
 16 57  1  0
 16 58  1  0
 17 59  1  0
 19 60  1  1
 20 61  1  0
 20 62  1  0
 21 63  1  0
 21 64  1  0
 22 65  1  1
 23 66  1  0
 25 67  1  0
 25 68  1  0
 25 69  1  0
 26 70  1  0
 26 71  1  0
 26 72  1  0
 28 73  1  0
 28 74  1  0
 28 75  1  0
 29 76  1  0
 29 77  1  0
 30 78  1  0
 30 79  1  0
 32 80  1  0
 32 81  1  0
 32 82  1  0
M  END
>  <meeko>  (6) 
{"is_sidechain": [false], "intermolecular_energy": 2.731, "internal_energy": -0.839}

$$$$
EPH_relaxed_0001_pdb2pqr_Repair_59_r2_0001_out
     RDKit          3D

 82 86  0  0  0  0  0  0  0  0999 V2000
   -5.1680    5.8030   -1.7320 C   0  0  0  0  0  0  0  0  0  0  0  0
   -5.4600    7.3050   -1.7770 C   0  0  2  0  0  0  0  0  0  0  0  0
   -5.2380    7.9810   -0.4090 C   0  0  0  0  0  0  0  0  0  0  0  0
   -4.1850    9.0920   -0.4340 C   0  0  0  0  0  0  0  0  0  0  0  0
   -2.8370    8.5690   -0.8290 C   0  0  2  0  0  0  0  0  0  0  0  0
   -1.7910    8.8410    0.1130 O   0  0  0  0  0  0  0  0  0  0  0  0
   -1.6610    9.4640   -1.1750 C   0  0  0  0  0  0  0  0  0  0  0  0
   -1.7800   10.9550   -1.1450 C   0  0  0  0  0  0  0  0  0  0  0  0
   -0.5540    8.8990   -2.0090 C   0  0  0  0  0  0  0  0  0  0  0  0
   -6.8890    7.5430   -2.2510 C   0  0  1  0  0  0  0  0  0  0  0  0
   -7.1930    6.8490   -3.6050 C   0  0  0  0  0  0  0  0  0  0  0  0
   -8.6720    6.3890   -3.5490 C   0  0  0  0  0  0  0  0  0  0  0  0
   -9.2610    7.1160   -2.3180 C   0  0  1  0  0  0  0  0  0  0  0  0
   -9.5960    8.5540   -2.8240 C   0  0  0  0  0  0  0  0  0  0  0  0
  -10.4970    6.4390   -1.6410 C   0  0  2  0  0  0  0  0  0  0  0  0
  -11.7470    6.3240   -2.5320 C   0  0  0  0  0  0  0  0  0  0  0  0
  -12.6910    7.4770   -2.4590 C   0  0  0  0  0  0  0  0  0  0  0  0
  -12.6930    8.4270   -1.5050 C   0  0  0  0  0  0  0  0  0  0  0  0
  -11.7380    8.3430   -0.3080 C   0  0  1  0  0  0  0  0  0  0  0  0
  -12.5200    8.6310    1.0000 C   0  0  0  0  0  0  0  0  0  0  0  0
  -13.2780    9.9540    0.9500 C   0  0  0  0  0  0  0  0  0  0  0  0
  -14.2600    9.9760   -0.2180 C   0  0  2  0  0  0  0  0  0  0  0  0
  -15.2870    9.0100    0.0250 O   0  0  0  0  0  0  0  0  0  0  0  0
  -13.5870    9.6890   -1.5900 C   0  0  0  0  0  0  0  0  0  0  0  0
  -12.6950   10.8900   -1.9930 C   0  0  0  0  0  0  0  0  0  0  0  0
  -14.7060    9.6000   -2.6620 C   0  0  0  0  0  0  0  0  0  0  0  0
  -10.8570    7.0240   -0.2150 C   0  0  1  0  0  0  0  0  0  0  0  0
  -11.6460    5.9090    0.5370 C   0  0  0  0  0  0  0  0  0  0  0  0
   -9.5750    7.3210    0.6500 C   0  0  0  0  0  0  0  0  0  0  0  0
   -8.3470    7.8760   -0.0960 C   0  0  0  0  0  0  0  0  0  0  0  0
   -8.0340    7.0360   -1.3390 C   0  0  2  0  0  0  0  0  0  0  0  0
   -7.6710    5.5900   -0.8590 C   0  0  0  0  0  0  0  0  0  0  0  0
   -5.1039    5.4732   -0.6846 H   0  0  0  0  0  0  0  0  0  0  0  0
   -5.9768    5.2569   -2.2395 H   0  0  0  0  0  0  0  0  0  0  0  0
   -4.2135    5.5997   -2.2395 H   0  0  0  0  0  0  0  0  0  0  0  0
   -4.7530    7.7585   -2.4873 H   0  0  0  0  0  0  0  0  0  0  0  0
   -6.1928    8.4151   -0.0774 H   0  0  0  0  0  0  0  0  0  0  0  0
   -4.8688    7.2042    0.2768 H   0  0  0  0  0  0  0  0  0  0  0  0
   -4.4950    9.8609   -1.1570 H   0  0  0  0  0  0  0  0  0  0  0  0
   -4.1062    9.5128    0.5793 H   0  0  0  0  0  0  0  0  0  0  0  0
   -3.2942    7.7164   -1.3524 H   0  0  0  0  0  0  0  0  0  0  0  0
   -1.8075   11.2997   -0.1008 H   0  0  0  0  0  0  0  0  0  0  0  0
   -0.9147   11.4023   -1.6561 H   0  0  0  0  0  0  0  0  0  0  0  0
   -2.7053   11.2593   -1.6561 H   0  0  0  0  0  0  0  0  0  0  0  0
    0.2319    8.4979   -1.3521 H   0  0  0  0  0  0  0  0  0  0  0  0
   -0.9485    8.0920   -2.6439 H   0  0  0  0  0  0  0  0  0  0  0  0
   -0.1319    9.6919   -2.6439 H   0  0  0  0  0  0  0  0  0  0  0  0
   -6.8919    8.6425   -2.2829 H   0  0  0  0  0  0  0  0  0  0  0  0
   -7.0474    7.5566   -4.4345 H   0  0  0  0  0  0  0  0  0  0  0  0
   -6.5197    5.9952   -3.7714 H   0  0  0  0  0  0  0  0  0  0  0  0
   -9.2049    6.6830   -4.4653 H   0  0  0  0  0  0  0  0  0  0  0  0
   -8.7659    5.2957   -3.4719 H   0  0  0  0  0  0  0  0  0  0  0  0
   -9.7510    9.2193   -1.9618 H   0  0  0  0  0  0  0  0  0  0  0  0
   -8.7618    8.9319   -3.4334 H   0  0  0  0  0  0  0  0  0  0  0  0
  -10.5113    8.5243   -3.4334 H   0  0  0  0  0  0  0  0  0  0  0  0
  -10.1447    5.4088   -1.4840 H   0  0  0  0  0  0  0  0  0  0  0  0
  -11.4126    6.2243   -3.5752 H   0  0  0  0  0  0  0  0  0  0  0  0
  -12.3045    5.4509   -2.1621 H   0  0  0  0  0  0  0  0  0  0  0  0
  -13.4495    7.5577   -3.2516 H   0  0  0  0  0  0  0  0  0  0  0  0
  -10.9800    9.1238   -0.4687 H   0  0  0  0  0  0  0  0  0  0  0  0
  -13.2415    7.8174    1.1657 H   0  0  0  0  0  0  0  0  0  0  0  0
  -11.7882    8.6966    1.8186 H   0  0  0  0  0  0  0  0  0  0  0  0
  -13.8337   10.0863    1.8901 H   0  0  0  0  0  0  0  0  0  0  0  0
  -12.5524   10.7695    0.8141 H   0  0  0  0  0  0  0  0  0  0  0  0
  -14.6767   10.9922   -0.2794 H   0  0  0  0  0  0  0  0  0  0  0  0
  -15.3100    8.4060   -0.7370 H   0  0  0  0  0  0  0  0  0  0  0  0
  -12.3231   11.3908   -1.0870 H   0  0  0  0  0  0  0  0  0  0  0  0
  -11.8433   10.5304   -2.5891 H   0  0  0  0  0  0  0  0  0  0  0  0
  -13.2853   11.6015   -2.5891 H   0  0  0  0  0  0  0  0  0  0  0  0
  -15.6843    9.5222   -2.1652 H   0  0  0  0  0  0  0  0  0  0  0  0
  -14.6845   10.5027   -3.2902 H   0  0  0  0  0  0  0  0  0  0  0  0
  -14.5421    8.7121   -3.2902 H   0  0  0  0  0  0  0  0  0  0  0  0
  -11.5426    6.0551    1.6223 H   0  0  0  0  0  0  0  0  0  0  0  0
  -12.7092    5.9615    0.2596 H   0  0  0  0  0  0  0  0  0  0  0  0
  -11.2428    4.9239    0.2596 H   0  0  0  0  0  0  0  0  0  0  0  0
   -9.8559    8.0543    1.4203 H   0  0  0  0  0  0  0  0  0  0  0  0
   -9.2573    6.3424    1.0391 H   0  0  0  0  0  0  0  0  0  0  0  0
   -8.5511    8.9121   -0.4040 H   0  0  0  0  0  0  0  0  0  0  0  0
   -7.4799    7.8387    0.5798 H   0  0  0  0  0  0  0  0  0  0  0  0
   -7.6634    5.5598    0.2406 H   0  0  0  0  0  0  0  0  0  0  0  0
   -8.4184    4.8787   -1.2402 H   0  0  0  0  0  0  0  0  0  0  0  0
   -6.6762    5.3160   -1.2402 H   0  0  0  0  0  0  0  0  0  0  0  0
  1  2  1  0
  2  3  1  0
  3  4  1  0
  4  5  1  0
  5  6  1  0
  6  7  1  0
  7  8  1  0
  7  9  1  0
  2 10  1  0
 10 11  1  0
 11 12  1  0
 12 13  1  0
 13 14  1  6
 13 15  1  0
 15 16  1  0
 16 17  1  0
 17 18  2  0
 18 19  1  0
 19 20  1  0
 20 21  1  0
 21 22  1  0
 22 23  1  0
 22 24  1  0
 24 25  1  0
 24 26  1  0
 19 27  1  0
 27 28  1  1
 27 29  1  0
 29 30  1  0
 30 31  1  0
 31 32  1  1
  7  5  1  0
 31 10  1  0
 31 13  1  0
 27 15  1  0
 24 18  1  0
  1 33  1  0
  1 34  1  0
  1 35  1  0
  2 36  1  6
  3 37  1  0
  3 38  1  0
  4 39  1  0
  4 40  1  0
  5 41  1  6
  8 42  1  0
  8 43  1  0
  8 44  1  0
  9 45  1  0
  9 46  1  0
  9 47  1  0
 10 48  1  6
 11 49  1  0
 11 50  1  0
 12 51  1  0
 12 52  1  0
 14 53  1  0
 14 54  1  0
 14 55  1  0
 15 56  1  1
 16 57  1  0
 16 58  1  0
 17 59  1  0
 19 60  1  6
 20 61  1  0
 20 62  1  0
 21 63  1  0
 21 64  1  0
 22 65  1  6
 23 66  1  0
 25 67  1  0
 25 68  1  0
 25 69  1  0
 26 70  1  0
 26 71  1  0
 26 72  1  0
 28 73  1  0
 28 74  1  0
 28 75  1  0
 29 76  1  0
 29 77  1  0
 30 78  1  0
 30 79  1  0
 32 80  1  0
 32 81  1  0
 32 82  1  0
M  END
>  <meeko>  (7) 
{"is_sidechain": [false], "intermolecular_energy": 2.731, "internal_energy": -0.839}

$$$$
EPH_relaxed_0001_pdb2pqr_Repair_59_r2_0001_out
     RDKit          3D

 82 86  0  0  0  0  0  0  0  0999 V2000
   -0.2300   10.3610   -3.5270 C   0  0  0  0  0  0  0  0  0  0  0  0
    0.9140   10.1970   -2.5220 C   0  0  2  0  0  0  0  0  0  0  0  0
    0.7450    8.9380   -1.6490 C   0  0  0  0  0  0  0  0  0  0  0  0
    0.0630    9.2070   -0.3050 C   0  0  0  0  0  0  0  0  0  0  0  0
   -1.3570    8.7290   -0.2990 C   0  0  2  0  0  0  0  0  0  0  0  0
   -2.0110    8.7770   -1.5730 O   0  0  0  0  0  0  0  0  0  0  0  0
   -2.5470    9.6350   -0.5540 C   0  0  0  0  0  0  0  0  0  0  0  0
   -2.3700   11.0950   -0.8320 C   0  0  0  0  0  0  0  0  0  0  0  0
   -3.8910    9.2100   -0.0520 C   0  0  0  0  0  0  0  0  0  0  0  0
    1.0090   11.4350   -1.6380 C   0  0  1  0  0  0  0  0  0  0  0  0
    2.0830   11.2930   -0.5260 C   0  0  0  0  0  0  0  0  0  0  0  0
    2.7050   12.6990   -0.3230 C   0  0  0  0  0  0  0  0  0  0  0  0
    1.7530   13.6590   -1.0750 C   0  0  1  0  0  0  0  0  0  0  0  0
    0.5680   13.9030   -0.0890 C   0  0  0  0  0  0  0  0  0  0  0  0
    2.3780   15.0030   -1.5700 C   0  0  2  0  0  0  0  0  0  0  0  0
    2.9010   15.9290   -0.4580 C   0  0  0  0  0  0  0  0  0  0  0  0
    1.9090   16.9110    0.0730 C   0  0  0  0  0  0  0  0  0  0  0  0
    0.7430   17.2400   -0.5140 C   0  0  0  0  0  0  0  0  0  0  0  0
    0.3660   16.6740   -1.8890 C   0  0  1  0  0  0  0  0  0  0  0  0
   -0.1610   17.8190   -2.7940 C   0  0  0  0  0  0  0  0  0  0  0  0
   -1.3050   18.5950   -2.1480 C   0  0  0  0  0  0  0  0  0  0  0  0
   -0.8740   19.1910   -0.8110 C   0  0  2  0  0  0  0  0  0  0  0  0
    0.1170   20.1940   -1.0510 O   0  0  0  0  0  0  0  0  0  0  0  0
   -0.3150   18.1320    0.1810 C   0  0  0  0  0  0  0  0  0  0  0  0
   -1.4680   17.2230    0.6750 C   0  0  0  0  0  0  0  0  0  0  0  0
    0.2130   18.8820    1.4330 C   0  0  0  0  0  0  0  0  0  0  0  0
    1.4790   15.7940   -2.6050 C   0  0  1  0  0  0  0  0  0  0  0  0
    2.4400   16.7120   -3.4210 C   0  0  0  0  0  0  0  0  0  0  0  0
    0.7870   14.8390   -3.6480 C   0  0  0  0  0  0  0  0  0  0  0  0
    0.2980   13.4750   -3.1230 C   0  0  0  0  0  0  0  0  0  0  0  0
    1.3960   12.7700   -2.3220 C   0  0  2  0  0  0  0  0  0  0  0  0
    2.5930   12.4910   -3.2930 C   0  0  0  0  0  0  0  0  0  0  0  0
   -1.1775   10.4968   -2.9850 H   0  0  0  0  0  0  0  0  0  0  0  0
   -0.0396   11.2410   -4.1589 H   0  0  0  0  0  0  0  0  0  0  0  0
   -0.2945    9.4629   -4.1589 H   0  0  0  0  0  0  0  0  0  0  0  0
    1.8445   10.0769   -3.0962 H   0  0  0  0  0  0  0  0  0  0  0  0
    0.1389    8.2082   -2.2059 H   0  0  0  0  0  0  0  0  0  0  0  0
    1.7551    8.5631   -1.4272 H   0  0  0  0  0  0  0  0  0  0  0  0
    0.6185    8.6843    0.4876 H   0  0  0  0  0  0  0  0  0  0  0  0
    0.0599   10.2935   -0.1333 H   0  0  0  0  0  0  0  0  0  0  0  0
   -1.1353    8.0105    0.5039 H   0  0  0  0  0  0  0  0  0  0  0  0
   -2.3035   11.6439    0.1189 H   0  0  0  0  0  0  0  0  0  0  0  0
   -1.4466   11.2490   -1.4096 H   0  0  0  0  0  0  0  0  0  0  0  0
   -3.2298   11.4651   -1.4096 H   0  0  0  0  0  0  0  0  0  0  0  0
   -3.8886    9.2108    1.0480 H   0  0  0  0  0  0  0  0  0  0  0  0
   -4.6570    9.9098   -0.4175 H   0  0  0  0  0  0  0  0  0  0  0  0
   -4.1154    8.1971   -0.4175 H   0  0  0  0  0  0  0  0  0  0  0  0
   -0.0291   11.4845   -1.2776 H   0  0  0  0  0  0  0  0  0  0  0  0
    1.6174   10.9462    0.4083 H   0  0  0  0  0  0  0  0  0  0  0  0
    2.8510   10.5585   -0.8100 H   0  0  0  0  0  0  0  0  0  0  0  0
    2.7484   12.9538    0.7462 H   0  0  0  0  0  0  0  0  0  0  0  0
    3.7374   12.7566   -0.6982 H   0  0  0  0  0  0  0  0  0  0  0  0
    0.9313   13.8282    0.9466 H   0  0  0  0  0  0  0  0  0  0  0  0
    0.1499   14.9061   -0.2593 H   0  0  0  0  0  0  0  0  0  0  0  0
   -0.2124   13.1467   -0.2593 H   0  0  0  0  0  0  0  0  0  0  0  0
    3.2688   14.6604   -2.1169 H   0  0  0  0  0  0  0  0  0  0  0  0
    3.2372   15.2991    0.3788 H   0  0  0  0  0  0  0  0  0  0  0  0
    3.7065   16.5250   -0.9119 H   0  0  0  0  0  0  0  0  0  0  0  0
    2.1516   17.4074    1.0242 H   0  0  0  0  0  0  0  0  0  0  0  0
   -0.4356   15.9429   -1.7074 H   0  0  0  0  0  0  0  0  0  0  0  0
    0.6656   18.5151   -2.9995 H   0  0  0  0  0  0  0  0  0  0  0  0
   -0.5460   17.3640   -3.7185 H   0  0  0  0  0  0  0  0  0  0  0  0
   -1.6139   19.4080   -2.8216 H   0  0  0  0  0  0  0  0  0  0  0  0
   -2.1417   17.9034   -1.9704 H   0  0  0  0  0  0  0  0  0  0  0  0
   -1.7693   19.6217   -0.3388 H   0  0  0  0  0  0  0  0  0  0  0  0
   -0.0580   20.9320   -0.4430 H   0  0  0  0  0  0  0  0  0  0  0  0
   -1.4812   17.2126    1.7749 H   0  0  0  0  0  0  0  0  0  0  0  0
   -2.4268   17.6108    0.3005 H   0  0  0  0  0  0  0  0  0  0  0  0
   -1.3147   16.2002    0.3005 H   0  0  0  0  0  0  0  0  0  0  0  0
   -0.1439   18.3751    2.3417 H   0  0  0  0  0  0  0  0  0  0  0  0
    1.3129   18.8842    1.4223 H   0  0  0  0  0  0  0  0  0  0  0  0
   -0.1559   19.9183    1.4223 H   0  0  0  0  0  0  0  0  0  0  0  0
    3.0583   17.3027   -2.7291 H   0  0  0  0  0  0  0  0  0  0  0  0
    3.0901   16.0910   -4.0548 H   0  0  0  0  0  0  0  0  0  0  0  0
    1.8494   17.3899   -4.0548 H   0  0  0  0  0  0  0  0  0  0  0  0
   -0.0848   15.3698   -4.0580 H   0  0  0  0  0  0  0  0  0  0  0  0
    1.5693   14.6008   -4.3837 H   0  0  0  0  0  0  0  0  0  0  0  0
   -0.5764   13.6317   -2.4742 H   0  0  0  0  0  0  0  0  0  0  0  0
    0.0312   12.8435   -3.9832 H   0  0  0  0  0  0  0  0  0  0  0  0
    3.4993   12.2798   -2.7065 H   0  0  0  0  0  0  0  0  0  0  0  0
    2.3563   11.6240   -3.9272 H   0  0  0  0  0  0  0  0  0  0  0  0
    2.7640   13.3734   -3.9272 H   0  0  0  0  0  0  0  0  0  0  0  0
  1  2  1  0
  2  3  1  0
  3  4  1  0
  4  5  1  0
  5  6  1  0
  6  7  1  0
  7  8  1  0
  7  9  1  0
  2 10  1  0
 10 11  1  0
 11 12  1  0
 12 13  1  0
 13 14  1  1
 13 15  1  0
 15 16  1  0
 16 17  1  0
 17 18  2  0
 18 19  1  0
 19 20  1  0
 20 21  1  0
 21 22  1  0
 22 23  1  0
 22 24  1  0
 24 25  1  0
 24 26  1  0
 19 27  1  0
 27 28  1  6
 27 29  1  0
 29 30  1  0
 30 31  1  0
 31 32  1  6
  7  5  1  0
 31 10  1  0
 31 13  1  0
 27 15  1  0
 24 18  1  0
  1 33  1  0
  1 34  1  0
  1 35  1  0
  2 36  1  6
  3 37  1  0
  3 38  1  0
  4 39  1  0
  4 40  1  0
  5 41  1  1
  8 42  1  0
  8 43  1  0
  8 44  1  0
  9 45  1  0
  9 46  1  0
  9 47  1  0
 10 48  1  1
 11 49  1  0
 11 50  1  0
 12 51  1  0
 12 52  1  0
 14 53  1  0
 14 54  1  0
 14 55  1  0
 15 56  1  6
 16 57  1  0
 16 58  1  0
 17 59  1  0
 19 60  1  1
 20 61  1  0
 20 62  1  0
 21 63  1  0
 21 64  1  0
 22 65  1  1
 23 66  1  0
 25 67  1  0
 25 68  1  0
 25 69  1  0
 26 70  1  0
 26 71  1  0
 26 72  1  0
 28 73  1  0
 28 74  1  0
 28 75  1  0
 29 76  1  0
 29 77  1  0
 30 78  1  0
 30 79  1  0
 32 80  1  0
 32 81  1  0
 32 82  1  0
M  END
>  <meeko>  (8) 
{"is_sidechain": [false], "intermolecular_energy": 2.731, "internal_energy": -0.839}

$$$$
EPH_relaxed_0001_pdb2pqr_Repair_59_r2_0001_out
     RDKit          3D

 82 86  0  0  0  0  0  0  0  0999 V2000
    0.3710    8.8090   -2.3380 C   0  0  0  0  0  0  0  0  0  0  0  0
    1.1150    9.9450   -3.0440 C   0  0  2  0  0  0  0  0  0  0  0  0
    2.6180    9.9570   -2.7010 C   0  0  0  0  0  0  0  0  0  0  0  0
    3.4960   10.5620   -3.8010 C   0  0  0  0  0  0  0  0  0  0  0  0
    4.8920   10.8160   -3.3190 C   0  0  2  0  0  0  0  0  0  0  0  0
    5.4810   12.0290   -3.8060 O   0  0  0  0  0  0  0  0  0  0  0  0
    6.1060   10.8060   -4.2280 C   0  0  0  0  0  0  0  0  0  0  0  0
    5.9800   10.5330   -5.6940 C   0  0  0  0  0  0  0  0  0  0  0  0
    7.4540   10.5760   -3.6190 C   0  0  0  0  0  0  0  0  0  0  0  0
    0.4870   11.2850   -2.6770 C   0  0  1  0  0  0  0  0  0  0  0  0
   -0.8820   11.1270   -1.9630 C   0  0  0  0  0  0  0  0  0  0  0  0
   -0.9790   12.2730   -0.9240 C   0  0  0  0  0  0  0  0  0  0  0  0
    0.1700   13.2380   -1.2990 C   0  0  1  0  0  0  0  0  0  0  0  0
   -0.3910   14.0910   -2.4800 C   0  0  0  0  0  0  0  0  0  0  0  0
    0.7200   14.1400   -0.1460 C   0  0  2  0  0  0  0  0  0  0  0  0
   -0.2990   15.1250    0.4530 C   0  0  0  0  0  0  0  0  0  0  0  0
   -0.3450   16.4680   -0.1960 C   0  0  0  0  0  0  0  0  0  0  0  0
    0.5890   16.9680   -1.0270 C   0  0  0  0  0  0  0  0  0  0  0  0
    1.8830   16.1950   -1.3130 C   0  0  1  0  0  0  0  0  0  0  0  0
    3.0950   17.1580   -1.2050 C   0  0  0  0  0  0  0  0  0  0  0  0
    2.9430   18.3910   -2.0910 C   0  0  0  0  0  0  0  0  0  0  0  0
    1.6760   19.1640   -1.7370 C   0  0  2  0  0  0  0  0  0  0  0  0
    1.8210   19.7110   -0.4230 O   0  0  0  0  0  0  0  0  0  0  0  0
    0.3890   18.2940   -1.8020 C   0  0  0  0  0  0  0  0  0  0  0  0
    0.0660   17.9510   -3.2770 C   0  0  0  0  0  0  0  0  0  0  0  0
   -0.7960   19.1550   -1.2870 C   0  0  0  0  0  0  0  0  0  0  0  0
    2.0900   14.8570   -0.4810 C   0  0  1  0  0  0  0  0  0  0  0  0
    2.7690   15.1800    0.8850 C   0  0  0  0  0  0  0  0  0  0  0  0
    3.0830   13.9160   -1.2600 C   0  0  0  0  0  0  0  0  0  0  0  0
    2.4660   12.9630   -2.3010 C   0  0  0  0  0  0  0  0  0  0  0  0
    1.2770   12.2000   -1.7090 C   0  0  2  0  0  0  0  0  0  0  0  0
    1.8150   11.3160   -0.5330 C   0  0  0  0  0  0  0  0  0  0  0  0
    0.4549    8.9371   -1.2487 H   0  0  0  0  0  0  0  0  0  0  0  0
   -0.6896    8.8288   -2.6289 H   0  0  0  0  0  0  0  0  0  0  0  0
    0.8131    7.8447   -2.6289 H   0  0  0  0  0  0  0  0  0  0  0  0
    1.0249    9.7758   -4.1272 H   0  0  0  0  0  0  0  0  0  0  0  0
    2.7597   10.5439   -1.7815 H   0  0  0  0  0  0  0  0  0  0  0  0
    2.9289    8.9086   -2.5819 H   0  0  0  0  0  0  0  0  0  0  0  0
    3.5337    9.8647   -4.6509 H   0  0  0  0  0  0  0  0  0  0  0  0
    3.0560   11.5248   -4.1002 H   0  0  0  0  0  0  0  0  0  0  0  0
    4.6805   10.3094   -2.3658 H   0  0  0  0  0  0  0  0  0  0  0  0
    5.5234    9.5437   -5.8448 H   0  0  0  0  0  0  0  0  0  0  0  0
    5.3465   11.3037   -6.1574 H   0  0  0  0  0  0  0  0  0  0  0  0
    6.9775   10.5510   -6.1574 H   0  0  0  0  0  0  0  0  0  0  0  0
    7.3683   10.5906   -2.5224 H   0  0  0  0  0  0  0  0  0  0  0  0
    7.8411    9.5988   -3.9435 H   0  0  0  0  0  0  0  0  0  0  0  0
    8.1432   11.3695   -3.9435 H   0  0  0  0  0  0  0  0  0  0  0  0
    0.4398   11.7457   -3.6748 H   0  0  0  0  0  0  0  0  0  0  0  0
   -1.7013   11.2068   -2.6927 H   0  0  0  0  0  0  0  0  0  0  0  0
   -0.9623   10.1441   -1.4757 H   0  0  0  0  0  0  0  0  0  0  0  0
   -1.9519   12.7811   -0.9960 H   0  0  0  0  0  0  0  0  0  0  0  0
   -0.8955   11.9068    0.1099 H   0  0  0  0  0  0  0  0  0  0  0  0
   -0.9539   14.9469   -2.0791 H   0  0  0  0  0  0  0  0  0  0  0  0
    0.4432   14.4571   -3.0965 H   0  0  0  0  0  0  0  0  0  0  0  0
   -1.0576   13.4701   -3.0965 H   0  0  0  0  0  0  0  0  0  0  0  0
    0.9299   13.4077    0.6475 H   0  0  0  0  0  0  0  0  0  0  0  0
   -1.2983   14.6728    0.3696 H   0  0  0  0  0  0  0  0  0  0  0  0
    0.0205   15.2995    1.4910 H   0  0  0  0  0  0  0  0  0  0  0  0
   -1.2158   17.1034    0.0231 H   0  0  0  0  0  0  0  0  0  0  0  0
    1.7933   15.8215   -2.3438 H   0  0  0  0  0  0  0  0  0  0  0  0
    3.1935   17.4850   -0.1594 H   0  0  0  0  0  0  0  0  0  0  0  0
    3.9873   16.6112   -1.5438 H   0  0  0  0  0  0  0  0  0  0  0  0
    3.8155   19.0457   -1.9495 H   0  0  0  0  0  0  0  0  0  0  0  0
    2.8735   18.0639   -3.1389 H   0  0  0  0  0  0  0  0  0  0  0  0
    1.5550   19.9596   -2.4870 H   0  0  0  0  0  0  0  0  0  0  0  0
    2.6480   20.2220   -0.4060 H   0  0  0  0  0  0  0  0  0  0  0  0
   -0.6878   17.1506   -3.3107 H   0  0  0  0  0  0  0  0  0  0  0  0
   -0.3257   18.8451   -3.7841 H   0  0  0  0  0  0  0  0  0  0  0  0
    0.9820   17.6137   -3.7841 H   0  0  0  0  0  0  0  0  0  0  0  0
   -0.7975   19.1561   -0.1870 H   0  0  0  0  0  0  0  0  0  0  0  0
   -0.6871   20.1860   -1.6546 H   0  0  0  0  0  0  0  0  0  0  0  0
   -1.7429   18.7328   -1.6546 H   0  0  0  0  0  0  0  0  0  0  0  0
    2.1082   14.8657    1.7063 H   0  0  0  0  0  0  0  0  0  0  0  0
    3.7247   14.6400    0.9562 H   0  0  0  0  0  0  0  0  0  0  0  0
    2.9531   16.2622    0.9562 H   0  0  0  0  0  0  0  0  0  0  0  0
    3.8069   14.5574   -1.7841 H   0  0  0  0  0  0  0  0  0  0  0  0
    3.5188   13.2597   -0.4923 H   0  0  0  0  0  0  0  0  0  0  0  0
    2.1227   13.5489   -3.1664 H   0  0  0  0  0  0  0  0  0  0  0  0
    3.2319   12.2355   -2.6079 H   0  0  0  0  0  0  0  0  0  0  0  0
    1.5362   11.7742    0.4274 H   0  0  0  0  0  0  0  0  0  0  0  0
    1.3761   10.3096   -0.6003 H   0  0  0  0  0  0  0  0  0  0  0  0
    2.9105   11.2435   -0.6003 H   0  0  0  0  0  0  0  0  0  0  0  0
  1  2  1  0
  2  3  1  0
  3  4  1  0
  4  5  1  0
  5  6  1  0
  6  7  1  0
  7  8  1  0
  7  9  1  0
  2 10  1  0
 10 11  1  0
 11 12  1  0
 12 13  1  0
 13 14  1  6
 13 15  1  0
 15 16  1  0
 16 17  1  0
 17 18  2  0
 18 19  1  0
 19 20  1  0
 20 21  1  0
 21 22  1  0
 22 23  1  0
 22 24  1  0
 24 25  1  0
 24 26  1  0
 19 27  1  0
 27 28  1  1
 27 29  1  0
 29 30  1  0
 30 31  1  0
 31 32  1  1
  7  5  1  0
 31 10  1  0
 31 13  1  0
 27 15  1  0
 24 18  1  0
  1 33  1  0
  1 34  1  0
  1 35  1  0
  2 36  1  6
  3 37  1  0
  3 38  1  0
  4 39  1  0
  4 40  1  0
  5 41  1  1
  8 42  1  0
  8 43  1  0
  8 44  1  0
  9 45  1  0
  9 46  1  0
  9 47  1  0
 10 48  1  6
 11 49  1  0
 11 50  1  0
 12 51  1  0
 12 52  1  0
 14 53  1  0
 14 54  1  0
 14 55  1  0
 15 56  1  1
 16 57  1  0
 16 58  1  0
 17 59  1  0
 19 60  1  6
 20 61  1  0
 20 62  1  0
 21 63  1  0
 21 64  1  0
 22 65  1  6
 23 66  1  0
 25 67  1  0
 25 68  1  0
 25 69  1  0
 26 70  1  0
 26 71  1  0
 26 72  1  0
 28 73  1  0
 28 74  1  0
 28 75  1  0
 29 76  1  0
 29 77  1  0
 30 78  1  0
 30 79  1  0
 32 80  1  0
 32 81  1  0
 32 82  1  0
M  END
>  <meeko>  (9) 
{"is_sidechain": [false], "intermolecular_energy": 2.731, "internal_energy": -0.839}

$$$$
EPH_relaxed_0001_pdb2pqr_Repair_59_r2_0001_out
     RDKit          3D

 82 86  0  0  0  0  0  0  0  0999 V2000
    0.1760   17.8070   -2.5510 C   0  0  0  0  0  0  0  0  0  0  0  0
   -0.0800   16.9050   -1.3410 C   0  0  2  0  0  0  0  0  0  0  0  0
   -0.1470   17.7050   -0.0240 C   0  0  0  0  0  0  0  0  0  0  0  0
    0.4640   19.1050   -0.1230 C   0  0  0  0  0  0  0  0  0  0  0  0
    1.6300   19.2680    0.8050 C   0  0  2  0  0  0  0  0  0  0  0  0
    2.6280   20.1940    0.3570 O   0  0  0  0  0  0  0  0  0  0  0  0
    3.0400   18.8220    0.4640 C   0  0  0  0  0  0  0  0  0  0  0  0
    3.3580   18.1780   -0.8490 C   0  0  0  0  0  0  0  0  0  0  0  0
    4.0000   18.5670    1.5840 C   0  0  0  0  0  0  0  0  0  0  0  0
    1.0060   15.8390   -1.2480 C   0  0  1  0  0  0  0  0  0  0  0  0
    1.2200   15.3290    0.2020 C   0  0  0  0  0  0  0  0  0  0  0  0
    1.5720   13.8230    0.0990 C   0  0  0  0  0  0  0  0  0  0  0  0
    1.8740   13.5950   -1.4000 C   0  0  1  0  0  0  0  0  0  0  0  0
    3.3450   14.0810   -1.5910 C   0  0  0  0  0  0  0  0  0  0  0  0
    1.6740   12.1380   -1.9320 C   0  0  2  0  0  0  0  0  0  0  0  0
    2.5860   11.0780   -1.2900 C   0  0  0  0  0  0  0  0  0  0  0  0
    3.8880   10.8530   -1.9840 C   0  0  0  0  0  0  0  0  0  0  0  0
    4.1920   11.2620   -3.2300 C   0  0  0  0  0  0  0  0  0  0  0  0
    3.1400   11.9450   -4.1130 C   0  0  1  0  0  0  0  0  0  0  0  0
    3.1700   11.3210   -5.5320 C   0  0  0  0  0  0  0  0  0  0  0  0
    4.5630   11.3510   -6.1550 C   0  0  0  0  0  0  0  0  0  0  0  0
    5.5690   10.6120   -5.2770 C   0  0  2  0  0  0  0  0  0  0  0  0
    5.2370    9.2200   -5.2660 O   0  0  0  0  0  0  0  0  0  0  0  0
    5.6200   11.1480   -3.8180 C   0  0  0  0  0  0  0  0  0  0  0  0
    6.2660   12.5550   -3.8040 C   0  0  0  0  0  0  0  0  0  0  0  0
    6.5670   10.2270   -3.0040 C   0  0  0  0  0  0  0  0  0  0  0  0
    1.6710   12.0190   -3.5100 C   0  0  1  0  0  0  0  0  0  0  0  0
    0.8880   10.7160   -3.8560 C   0  0  0  0  0  0  0  0  0  0  0  0
    0.8920   13.2010   -4.1980 C   0  0  0  0  0  0  0  0  0  0  0  0
    1.0340   14.5940   -3.5550 C   0  0  0  0  0  0  0  0  0  0  0  0
    0.7870   14.5290   -2.0450 C   0  0  2  0  0  0  0  0  0  0  0  0
   -0.6930   14.0650   -1.8220 C   0  0  0  0  0  0  0  0  0  0  0  0
    0.4611   18.8117   -2.2056 H   0  0  0  0  0  0  0  0  0  0  0  0
    0.9894   17.3835   -3.1585 H   0  0  0  0  0  0  0  0  0  0  0  0
   -0.7386   17.8740   -3.1585 H   0  0  0  0  0  0  0  0  0  0  0  0
   -1.0595   16.4262   -1.4868 H   0  0  0  0  0  0  0  0  0  0  0  0
   -1.2028   17.8066    0.2673 H   0  0  0  0  0  0  0  0  0  0  0  0
    0.4419   17.1490    0.7203 H   0  0  0  0  0  0  0  0  0  0  0  0
    0.8039   19.2734   -1.1555 H   0  0  0  0  0  0  0  0  0  0  0  0
   -0.3064   19.8363    0.1626 H   0  0  0  0  0  0  0  0  0  0  0  0
    0.9889   19.0838    1.6797 H   0  0  0  0  0  0  0  0  0  0  0  0
    3.8388   17.2044   -0.6730 H   0  0  0  0  0  0  0  0  0  0  0  0
    2.4292   18.0305   -1.4195 H   0  0  0  0  0  0  0  0  0  0  0  0
    4.0398   18.8258   -1.4195 H   0  0  0  0  0  0  0  0  0  0  0  0
    3.4852   18.7037    2.5465 H   0  0  0  0  0  0  0  0  0  0  0  0
    4.3795   17.5369    1.5143 H   0  0  0  0  0  0  0  0  0  0  0  0
    4.8407   19.2730    1.5143 H   0  0  0  0  0  0  0  0  0  0  0  0
    1.8517   16.4004   -1.6719 H   0  0  0  0  0  0  0  0  0  0  0  0
    2.0446   15.8790    0.6791 H   0  0  0  0  0  0  0  0  0  0  0  0
    0.3176   15.4829    0.8120 H   0  0  0  0  0  0  0  0  0  0  0  0
    2.4537   13.5874    0.7130 H   0  0  0  0  0  0  0  0  0  0  0  0
    0.7585   13.1785    0.4635 H   0  0  0  0  0  0  0  0  0  0  0  0
    3.8110   14.2350   -0.6066 H   0  0  0  0  0  0  0  0  0  0  0  0
    3.9121   13.3225   -2.1505 H   0  0  0  0  0  0  0  0  0  0  0  0
    3.3485   15.0281   -2.1505 H   0  0  0  0  0  0  0  0  0  0  0  0
    0.6551   11.9005   -1.5921 H   0  0  0  0  0  0  0  0  0  0  0  0
    2.8007   11.3940   -0.2585 H   0  0  0  0  0  0  0  0  0  0  0  0
    2.0384   10.1261   -1.3540 H   0  0  0  0  0  0  0  0  0  0  0  0
    4.6655   10.3064   -1.4302 H   0  0  0  0  0  0  0  0  0  0  0  0
    3.4296   13.0049   -4.1656 H   0  0  0  0  0  0  0  0  0  0  0  0
    2.8364   10.2750   -5.4644 H   0  0  0  0  0  0  0  0  0  0  0  0
    2.5044   11.9175   -6.1733 H   0  0  0  0  0  0  0  0  0  0  0  0
    4.5258   10.8696   -7.1434 H   0  0  0  0  0  0  0  0  0  0  0  0
    4.8829   12.3992   -6.2496 H   0  0  0  0  0  0  0  0  0  0  0  0
    6.5672   10.7792   -5.7079 H   0  0  0  0  0  0  0  0  0  0  0  0
    5.8870    8.7670   -4.7030 H   0  0  0  0  0  0  0  0  0  0  0  0
    6.4151   12.8797   -2.7636 H   0  0  0  0  0  0  0  0  0  0  0  0
    7.2372   12.5177   -4.3192 H   0  0  0  0  0  0  0  0  0  0  0  0
    5.6047   13.2672   -4.3192 H   0  0  0  0  0  0  0  0  0  0  0  0
    6.4008   10.3887   -1.9287 H   0  0  0  0  0  0  0  0  0  0  0  0
    6.3596    9.1758   -3.2531 H   0  0  0  0  0  0  0  0  0  0  0  0
    7.6120   10.4636   -3.2531 H   0  0  0  0  0  0  0  0  0  0  0  0
    0.5853   10.2123   -2.9261 H   0  0  0  0  0  0  0  0  0  0  0  0
   -0.0067   10.9708   -4.4430 H   0  0  0  0  0  0  0  0  0  0  0  0
    1.5330   10.0456   -4.4430 H   0  0  0  0  0  0  0  0  0  0  0  0
    1.2492   13.2755   -5.2357 H   0  0  0  0  0  0  0  0  0  0  0  0
   -0.1723   12.9432   -4.0942 H   0  0  0  0  0  0  0  0  0  0  0  0
    2.0506   14.9724   -3.7373 H   0  0  0  0  0  0  0  0  0  0  0  0
    0.2869   15.2651   -4.0038 H   0  0  0  0  0  0  0  0  0  0  0  0
   -0.8985   14.0006   -0.7433 H   0  0  0  0  0  0  0  0  0  0  0  0
   -1.3784   14.7914   -2.2831 H   0  0  0  0  0  0  0  0  0  0  0  0
   -0.8410   13.0773   -2.2831 H   0  0  0  0  0  0  0  0  0  0  0  0
  1  2  1  0
  2  3  1  0
  3  4  1  0
  4  5  1  0
  5  6  1  0
  6  7  1  0
  7  8  1  0
  7  9  1  0
  2 10  1  0
 10 11  1  0
 11 12  1  0
 12 13  1  0
 13 14  1  1
 13 15  1  0
 15 16  1  0
 16 17  1  0
 17 18  2  0
 18 19  1  0
 19 20  1  0
 20 21  1  0
 21 22  1  0
 22 23  1  0
 22 24  1  0
 24 25  1  0
 24 26  1  0
 19 27  1  0
 27 28  1  1
 27 29  1  0
 29 30  1  0
 30 31  1  0
 31 32  1  6
  7  5  1  0
 31 10  1  0
 31 13  1  0
 27 15  1  0
 24 18  1  0
  1 33  1  0
  1 34  1  0
  1 35  1  0
  2 36  1  6
  3 37  1  0
  3 38  1  0
  4 39  1  0
  4 40  1  0
  5 41  1  1
  8 42  1  0
  8 43  1  0
  8 44  1  0
  9 45  1  0
  9 46  1  0
  9 47  1  0
 10 48  1  6
 11 49  1  0
 11 50  1  0
 12 51  1  0
 12 52  1  0
 14 53  1  0
 14 54  1  0
 14 55  1  0
 15 56  1  1
 16 57  1  0
 16 58  1  0
 17 59  1  0
 19 60  1  6
 20 61  1  0
 20 62  1  0
 21 63  1  0
 21 64  1  0
 22 65  1  6
 23 66  1  0
 25 67  1  0
 25 68  1  0
 25 69  1  0
 26 70  1  0
 26 71  1  0
 26 72  1  0
 28 73  1  0
 28 74  1  0
 28 75  1  0
 29 76  1  0
 29 77  1  0
 30 78  1  0
 30 79  1  0
 32 80  1  0
 32 81  1  0
 32 82  1  0
M  END
>  <meeko>  (10) 
{"is_sidechain": [false], "intermolecular_energy": 2.731, "internal_energy": -0.839}

$$$$
EPH_relaxed_0001_pdb2pqr_Repair_59_r2_0001_out
     RDKit          3D

 82 86  0  0  0  0  0  0  0  0999 V2000
    2.8110   18.8540   -1.1670 C   0  0  0  0  0  0  0  0  0  0  0  0
    2.5120   17.8040   -2.2400 C   0  0  2  0  0  0  0  0  0  0  0  0
    1.0960   17.9620   -2.8290 C   0  0  0  0  0  0  0  0  0  0  0  0
    0.4020   19.2640   -2.4220 C   0  0  0  0  0  0  0  0  0  0  0  0
   -0.9020   19.0060   -1.7310 C   0  0  2  0  0  0  0  0  0  0  0  0
   -1.6690   20.1810   -1.4410 O   0  0  0  0  0  0  0  0  0  0  0  0
   -1.1940   19.4380   -0.3070 C   0  0  0  0  0  0  0  0  0  0  0  0
   -0.1740   20.1640    0.5130 C   0  0  0  0  0  0  0  0  0  0  0  0
   -2.2770   18.7320    0.4480 C   0  0  0  0  0  0  0  0  0  0  0  0
    2.6820   16.4050   -1.6590 C   0  0  1  0  0  0  0  0  0  0  0  0
    3.4200   16.4100   -0.2940 C   0  0  0  0  0  0  0  0  0  0  0  0
    2.7970   15.2740    0.5570 C   0  0  0  0  0  0  0  0  0  0  0  0
    1.9630   14.4460   -0.4500 C   0  0  1  0  0  0  0  0  0  0  0  0
    2.9980   13.5180   -1.1600 C   0  0  0  0  0  0  0  0  0  0  0  0
    0.7700   13.6300    0.1470 C   0  0  2  0  0  0  0  0  0  0  0  0
    1.1670   12.5400    1.1580 C   0  0  0  0  0  0  0  0  0  0  0  0
    1.4290   11.1920    0.5730 C   0  0  0  0  0  0  0  0  0  0  0  0
    1.0770   10.7950   -0.6650 C   0  0  0  0  0  0  0  0  0  0  0  0
    0.2570   11.7100   -1.5820 C   0  0  1  0  0  0  0  0  0  0  0  0
   -0.8990   10.8990   -2.2240 C   0  0  0  0  0  0  0  0  0  0  0  0
   -0.4070    9.6450   -2.9400 C   0  0  0  0  0  0  0  0  0  0  0  0
    0.3540    8.7330   -1.9810 C   0  0  2  0  0  0  0  0  0  0  0  0
   -0.5600    8.2240   -1.0050 O   0  0  0  0  0  0  0  0  0  0  0  0
    1.5370    9.4450   -1.2670 C   0  0  0  0  0  0  0  0  0  0  0  0
    2.6670    9.7270   -2.2880 C   0  0  0  0  0  0  0  0  0  0  0  0
    2.1310    8.4570   -0.2260 C   0  0  0  0  0  0  0  0  0  0  0  0
   -0.2410   13.0740   -0.9360 C   0  0  1  0  0  0  0  0  0  0  0  0
   -1.5990   12.8520   -0.2030 C   0  0  0  0  0  0  0  0  0  0  0  0
   -0.5200   14.1150   -2.0830 C   0  0  0  0  0  0  0  0  0  0  0  0
    0.6710   14.9750   -2.5470 C   0  0  0  0  0  0  0  0  0  0  0  0
    1.3930   15.6020   -1.3510 C   0  0  2  0  0  0  0  0  0  0  0  0
    0.3840   16.5580   -0.6290 C   0  0  0  0  0  0  0  0  0  0  0  0
    2.6835   18.4063   -0.1703 H   0  0  0  0  0  0  0  0  0  0  0  0
    3.8460   19.2091   -1.2798 H   0  0  0  0  0  0  0  0  0  0  0  0
    2.1184   19.7011   -1.2798 H   0  0  0  0  0  0  0  0  0  0  0  0
    3.2288   17.9556   -3.0605 H   0  0  0  0  0  0  0  0  0  0  0  0
    1.1715   17.9370   -3.9261 H   0  0  0  0  0  0  0  0  0  0  0  0
    0.4884   17.1359   -2.4311 H   0  0  0  0  0  0  0  0  0  0  0  0
    1.0618   19.8215   -1.7410 H   0  0  0  0  0  0  0  0  0  0  0  0
    0.1970   19.8424   -3.3349 H   0  0  0  0  0  0  0  0  0  0  0  0
   -1.0098   18.0398   -2.2456 H   0  0  0  0  0  0  0  0  0  0  0  0
   -0.3870   20.0124    1.5815 H   0  0  0  0  0  0  0  0  0  0  0  0
    0.8282   19.7749    0.2801 H   0  0  0  0  0  0  0  0  0  0  0  0
   -0.2134   21.2383    0.2801 H   0  0  0  0  0  0  0  0  0  0  0  0
   -2.1041   18.8447    1.5285 H   0  0  0  0  0  0  0  0  0  0  0  0
   -3.2518   19.1687    0.1851 H   0  0  0  0  0  0  0  0  0  0  0  0
   -2.2708   17.6639    0.1851 H   0  0  0  0  0  0  0  0  0  0  0  0
    3.2345   15.9292   -2.4826 H   0  0  0  0  0  0  0  0  0  0  0  0
    4.4940   16.2254   -0.4437 H   0  0  0  0  0  0  0  0  0  0  0  0
    3.3136   17.3828    0.2083 H   0  0  0  0  0  0  0  0  0  0  0  0
    3.5831   14.6541    1.0127 H   0  0  0  0  0  0  0  0  0  0  0  0
    2.1867   15.6603    1.3866 H   0  0  0  0  0  0  0  0  0  0  0  0
    3.5923   12.9851   -0.4032 H   0  0  0  0  0  0  0  0  0  0  0  0
    2.4659   12.7888   -1.7886 H   0  0  0  0  0  0  0  0  0  0  0  0
    3.6651   14.1262   -1.7886 H   0  0  0  0  0  0  0  0  0  0  0  0
    0.2287   14.3922    0.7267 H   0  0  0  0  0  0  0  0  0  0  0  0
    2.0813   12.8706    1.6726 H   0  0  0  0  0  0  0  0  0  0  0  0
    0.3034   12.4179    1.8283 H   0  0  0  0  0  0  0  0  0  0  0  0
    1.9537   10.4614    1.2062 H   0  0  0  0  0  0  0  0  0  0  0  0
    0.9498   12.0557   -2.3634 H   0  0  0  0  0  0  0  0  0  0  0  0
   -1.6020   10.6001   -1.4325 H   0  0  0  0  0  0  0  0  0  0  0  0
   -1.3826   11.5431   -2.9732 H   0  0  0  0  0  0  0  0  0  0  0  0
   -1.2716    9.0995   -3.3459 H   0  0  0  0  0  0  0  0  0  0  0  0
    0.2721    9.9470   -3.7509 H   0  0  0  0  0  0  0  0  0  0  0  0
    0.7916    7.9193   -2.5780 H   0  0  0  0  0  0  0  0  0  0  0  0
   -0.3730    8.6730   -0.1630 H   0  0  0  0  0  0  0  0  0  0  0  0
    3.5978    9.9593   -1.7499 H   0  0  0  0  0  0  0  0  0  0  0  0
    2.8203    8.8396   -2.9196 H   0  0  0  0  0  0  0  0  0  0  0  0
    2.3854   10.5824   -2.9196 H   0  0  0  0  0  0  0  0  0  0  0  0
    1.9131    8.8195    0.7894 H   0  0  0  0  0  0  0  0  0  0  0  0
    1.6805    7.4631   -0.3651 H   0  0  0  0  0  0  0  0  0  0  0  0
    3.2200    8.3887   -0.3651 H   0  0  0  0  0  0  0  0  0  0  0  0
   -1.4372   12.8785    0.8847 H   0  0  0  0  0  0  0  0  0  0  0  0
   -2.3039   13.6468   -0.4883 H   0  0  0  0  0  0  0  0  0  0  0  0
   -2.0141   11.8741   -0.4883 H   0  0  0  0  0  0  0  0  0  0  0  0
   -0.8873   13.5567   -2.9567 H   0  0  0  0  0  0  0  0  0  0  0  0
   -1.2398   14.8282   -1.6548 H   0  0  0  0  0  0  0  0  0  0  0  0
    1.3780   14.3410   -3.1022 H   0  0  0  0  0  0  0  0  0  0  0  0
    0.2911   15.7825   -3.1901 H   0  0  0  0  0  0  0  0  0  0  0  0
    0.4948   16.4530    0.4604 H   0  0  0  0  0  0  0  0  0  0  0  0
    0.5920   17.5982   -0.9201 H   0  0  0  0  0  0  0  0  0  0  0  0
   -0.6434   16.2942   -0.9201 H   0  0  0  0  0  0  0  0  0  0  0  0
  1  2  1  0
  2  3  1  0
  3  4  1  0
  4  5  1  0
  5  6  1  0
  6  7  1  0
  7  8  1  0
  7  9  1  0
  2 10  1  0
 10 11  1  0
 11 12  1  0
 12 13  1  0
 13 14  1  6
 13 15  1  0
 15 16  1  0
 16 17  1  0
 17 18  2  0
 18 19  1  0
 19 20  1  0
 20 21  1  0
 21 22  1  0
 22 23  1  0
 22 24  1  0
 24 25  1  0
 24 26  1  0
 19 27  1  0
 27 28  1  1
 27 29  1  0
 29 30  1  0
 30 31  1  0
 31 32  1  1
  7  5  1  0
 31 10  1  0
 31 13  1  0
 27 15  1  0
 24 18  1  0
  1 33  1  0
  1 34  1  0
  1 35  1  0
  2 36  1  6
  3 37  1  0
  3 38  1  0
  4 39  1  0
  4 40  1  0
  5 41  1  6
  8 42  1  0
  8 43  1  0
  8 44  1  0
  9 45  1  0
  9 46  1  0
  9 47  1  0
 10 48  1  6
 11 49  1  0
 11 50  1  0
 12 51  1  0
 12 52  1  0
 14 53  1  0
 14 54  1  0
 14 55  1  0
 15 56  1  1
 16 57  1  0
 16 58  1  0
 17 59  1  0
 19 60  1  6
 20 61  1  0
 20 62  1  0
 21 63  1  0
 21 64  1  0
 22 65  1  6
 23 66  1  0
 25 67  1  0
 25 68  1  0
 25 69  1  0
 26 70  1  0
 26 71  1  0
 26 72  1  0
 28 73  1  0
 28 74  1  0
 28 75  1  0
 29 76  1  0
 29 77  1  0
 30 78  1  0
 30 79  1  0
 32 80  1  0
 32 81  1  0
 32 82  1  0
M  END
>  <meeko>  (11) 
{"is_sidechain": [false], "intermolecular_energy": 2.731, "internal_energy": -0.839}

$$$$
EPH_relaxed_0001_pdb2pqr_Repair_59_r2_0001_out
     RDKit          3D

 82 86  0  0  0  0  0  0  0  0999 V2000
   -3.7400    7.2060   -3.4060 C   0  0  0  0  0  0  0  0  0  0  0  0
   -3.7690    7.2830   -1.8770 C   0  0  2  0  0  0  0  0  0  0  0  0
   -5.1860    7.0670   -1.3110 C   0  0  0  0  0  0  0  0  0  0  0  0
   -6.3000    7.3030   -2.3340 C   0  0  0  0  0  0  0  0  0  0  0  0
   -7.6300    7.5000   -1.6700 C   0  0  2  0  0  0  0  0  0  0  0  0
   -8.2020    6.3100   -1.1120 O   0  0  0  0  0  0  0  0  0  0  0  0
   -8.9240    6.9100   -2.1990 C   0  0  0  0  0  0  0  0  0  0  0  0
   -8.9520    6.0800   -3.4440 C   0  0  0  0  0  0  0  0  0  0  0  0
  -10.2180    7.5410   -1.7880 C   0  0  0  0  0  0  0  0  0  0  0  0
   -3.2230    8.6290   -1.4140 C   0  0  1  0  0  0  0  0  0  0  0  0
   -3.8310    9.0880   -0.0620 C   0  0  0  0  0  0  0  0  0  0  0  0
   -2.7110    9.8410    0.7000 C   0  0  0  0  0  0  0  0  0  0  0  0
   -1.6110   10.0800   -0.3600 C   0  0  1  0  0  0  0  0  0  0  0  0
   -2.0870   11.3360   -1.1560 C   0  0  0  0  0  0  0  0  0  0  0  0
   -0.1550   10.2590    0.1830 C   0  0  2  0  0  0  0  0  0  0  0  0
    0.0550   11.4790    1.0960 C   0  0  0  0  0  0  0  0  0  0  0  0
    0.4610   12.7350    0.4000 C   0  0  0  0  0  0  0  0  0  0  0  0
    0.9250   12.8150   -0.8610 C   0  0  0  0  0  0  0  0  0  0  0  0
    1.1730   11.5490   -1.6910 C   0  0  1  0  0  0  0  0  0  0  0  0
    2.5590   11.6460   -2.3830 C   0  0  0  0  0  0  0  0  0  0  0  0
    2.7140   12.9220   -3.2040 C   0  0  0  0  0  0  0  0  0  0  0  0
    2.5180   14.1590   -2.3320 C   0  0  2  0  0  0  0  0  0  0  0  0
    3.5920   14.2350   -1.3900 O   0  0  0  0  0  0  0  0  0  0  0  0
    1.1590   14.1680   -1.5780 C   0  0  0  0  0  0  0  0  0  0  0  0
    0.0050   14.3900   -2.5860 C   0  0  0  0  0  0  0  0  0  0  0  0
    1.1490   15.3960   -0.6280 C   0  0  0  0  0  0  0  0  0  0  0  0
    0.9670   10.1690   -0.9300 C   0  0  1  0  0  0  0  0  0  0  0  0
    2.2840    9.7610   -0.2020 C   0  0  0  0  0  0  0  0  0  0  0  0
    0.6740    9.0380   -1.9850 C   0  0  0  0  0  0  0  0  0  0  0  0
   -0.7980    8.8310   -2.3920 C   0  0  0  0  0  0  0  0  0  0  0  0
   -1.6980    8.7280   -1.1570 C   0  0  2  0  0  0  0  0  0  0  0  0
   -1.2570    7.4610   -0.3480 C   0  0  0  0  0  0  0  0  0  0  0  0
   -3.3681    6.2184   -3.7164 H   0  0  0  0  0  0  0  0  0  0  0  0
   -4.7561    7.3556   -3.8000 H   0  0  0  0  0  0  0  0  0  0  0  0
   -3.0750    7.9887   -3.8000 H   0  0  0  0  0  0  0  0  0  0  0  0
   -3.1333    6.4715   -1.4931 H   0  0  0  0  0  0  0  0  0  0  0  0
   -5.2610    6.0311   -0.9487 H   0  0  0  0  0  0  0  0  0  0  0  0
   -5.3267    7.8042   -0.5068 H   0  0  0  0  0  0  0  0  0  0  0  0
   -6.0591    8.2004   -2.9228 H   0  0  0  0  0  0  0  0  0  0  0  0
   -6.3670    6.4146   -2.9791 H   0  0  0  0  0  0  0  0  0  0  0  0
   -7.3542    8.5206   -1.3661 H   0  0  0  0  0  0  0  0  0  0  0  0
   -8.9879    5.0144   -3.1735 H   0  0  0  0  0  0  0  0  0  0  0  0
   -9.8419    6.3381   -4.0368 H   0  0  0  0  0  0  0  0  0  0  0  0
   -8.0467    6.2775   -4.0368 H   0  0  0  0  0  0  0  0  0  0  0  0
  -10.2790    7.5708   -0.6901 H   0  0  0  0  0  0  0  0  0  0  0  0
  -10.2692    8.5652   -2.1860 H   0  0  0  0  0  0  0  0  0  0  0  0
  -11.0565    6.9507   -2.1860 H   0  0  0  0  0  0  0  0  0  0  0  0
   -3.4997    9.2473   -2.2807 H   0  0  0  0  0  0  0  0  0  0  0  0
   -4.6852    9.7581   -0.2390 H   0  0  0  0  0  0  0  0  0  0  0  0
   -4.1946    8.2280    0.5195 H   0  0  0  0  0  0  0  0  0  0  0  0
   -3.0848   10.7975    1.0942 H   0  0  0  0  0  0  0  0  0  0  0  0
   -2.3400    9.2722    1.5653 H   0  0  0  0  0  0  0  0  0  0  0  0
   -2.3862   12.1254   -0.4507 H   0  0  0  0  0  0  0  0  0  0  0  0
   -1.2652   11.7020   -1.7890 H   0  0  0  0  0  0  0  0  0  0  0  0
   -2.9450   11.0655   -1.7890 H   0  0  0  0  0  0  0  0  0  0  0  0
   -0.0339    9.3778    0.8302 H   0  0  0  0  0  0  0  0  0  0  0  0
   -0.8895   11.6739    1.6251 H   0  0  0  0  0  0  0  0  0  0  0  0
    0.8892   11.2185    1.7640 H   0  0  0  0  0  0  0  0  0  0  0  0
    0.3737   13.6747    0.9651 H   0  0  0  0  0  0  0  0  0  0  0  0
    0.3774   11.5232   -2.4501 H   0  0  0  0  0  0  0  0  0  0  0  0
    3.3413   11.6267   -1.6100 H   0  0  0  0  0  0  0  0  0  0  0  0
    2.6493   10.7927   -3.0713 H   0  0  0  0  0  0  0  0  0  0  0  0
    3.7222   12.9472   -3.6431 H   0  0  0  0  0  0  0  0  0  0  0  0
    1.9496   12.9255   -3.9950 H   0  0  0  0  0  0  0  0  0  0  0  0
    2.5125   15.0342   -2.9983 H   0  0  0  0  0  0  0  0  0  0  0  0
    3.2620   13.8980   -0.5400 H   0  0  0  0  0  0  0  0  0  0  0  0
   -0.9313   14.5701   -2.0375 H   0  0  0  0  0  0  0  0  0  0  0  0
    0.2329   15.2608   -3.2183 H   0  0  0  0  0  0  0  0  0  0  0  0
   -0.1064   13.4968   -3.2183 H   0  0  0  0  0  0  0  0  0  0  0  0
    1.1518   15.0515    0.4166 H   0  0  0  0  0  0  0  0  0  0  0  0
    2.0422   16.0106   -0.8138 H   0  0  0  0  0  0  0  0  0  0  0  0
    0.2459   15.9960   -0.8138 H   0  0  0  0  0  0  0  0  0  0  0  0
    2.1312    9.8083    0.8863 H   0  0  0  0  0  0  0  0  0  0  0  0
    2.5592    8.7355   -0.4893 H   0  0  0  0  0  0  0  0  0  0  0  0
    3.0908   10.4513   -0.4893 H   0  0  0  0  0  0  0  0  0  0  0  0
    1.2405    9.2786   -2.8967 H   0  0  0  0  0  0  0  0  0  0  0  0
    0.9705    8.1007   -1.4915 H   0  0  0  0  0  0  0  0  0  0  0  0
   -1.1251    9.6832   -3.0058 H   0  0  0  0  0  0  0  0  0  0  0  0
   -0.8761    7.8938   -2.9625 H   0  0  0  0  0  0  0  0  0  0  0  0
   -1.3298    7.6703    0.7295 H   0  0  0  0  0  0  0  0  0  0  0  0
   -1.9140    6.6163   -0.6027 H   0  0  0  0  0  0  0  0  0  0  0  0
   -0.2175    7.2068   -0.6027 H   0  0  0  0  0  0  0  0  0  0  0  0
  1  2  1  0
  2  3  1  0
  3  4  1  0
  4  5  1  0
  5  6  1  0
  6  7  1  0
  7  8  1  0
  7  9  1  0
  2 10  1  0
 10 11  1  0
 11 12  1  0
 12 13  1  0
 13 14  1  6
 13 15  1  0
 15 16  1  0
 16 17  1  0
 17 18  2  0
 18 19  1  0
 19 20  1  0
 20 21  1  0
 21 22  1  0
 22 23  1  0
 22 24  1  0
 24 25  1  0
 24 26  1  0
 19 27  1  0
 27 28  1  1
 27 29  1  0
 29 30  1  0
 30 31  1  0
 31 32  1  1
  7  5  1  0
 31 10  1  0
 31 13  1  0
 27 15  1  0
 24 18  1  0
  1 33  1  0
  1 34  1  0
  1 35  1  0
  2 36  1  1
  3 37  1  0
  3 38  1  0
  4 39  1  0
  4 40  1  0
  5 41  1  1
  8 42  1  0
  8 43  1  0
  8 44  1  0
  9 45  1  0
  9 46  1  0
  9 47  1  0
 10 48  1  6
 11 49  1  0
 11 50  1  0
 12 51  1  0
 12 52  1  0
 14 53  1  0
 14 54  1  0
 14 55  1  0
 15 56  1  1
 16 57  1  0
 16 58  1  0
 17 59  1  0
 19 60  1  6
 20 61  1  0
 20 62  1  0
 21 63  1  0
 21 64  1  0
 22 65  1  6
 23 66  1  0
 25 67  1  0
 25 68  1  0
 25 69  1  0
 26 70  1  0
 26 71  1  0
 26 72  1  0
 28 73  1  0
 28 74  1  0
 28 75  1  0
 29 76  1  0
 29 77  1  0
 30 78  1  0
 30 79  1  0
 32 80  1  0
 32 81  1  0
 32 82  1  0
M  END
>  <meeko>  (12) 
{"is_sidechain": [false], "intermolecular_energy": 2.731, "internal_energy": -0.839}

$$$$
EPH_relaxed_0001_pdb2pqr_Repair_59_r2_0001_out
     RDKit          3D

 82 86  0  0  0  0  0  0  0  0999 V2000
   -0.8520   16.3480   -5.8420 C   0  0  0  0  0  0  0  0  0  0  0  0
    0.2380   15.6440   -6.6550 C   0  0  2  0  0  0  0  0  0  0  0  0
   -0.1650   15.4630   -8.1320 C   0  0  0  0  0  0  0  0  0  0  0  0
    0.4710   16.4880   -9.0750 C   0  0  0  0  0  0  0  0  0  0  0  0
    1.8700   16.1040   -9.4490 C   0  0  2  0  0  0  0  0  0  0  0  0
    2.3350   16.6630  -10.6850 O   0  0  0  0  0  0  0  0  0  0  0  0
    2.2070   15.2320  -10.6440 C   0  0  0  0  0  0  0  0  0  0  0  0
    1.1380   14.6910  -11.5410 C   0  0  0  0  0  0  0  0  0  0  0  0
    3.5180   14.5100  -10.6560 C   0  0  0  0  0  0  0  0  0  0  0  0
    0.5590   14.2910   -6.0330 C   0  0  1  0  0  0  0  0  0  0  0  0
    1.8230   13.6340   -6.6500 C   0  0  0  0  0  0  0  0  0  0  0  0
    2.5330   12.8680   -5.5040 C   0  0  0  0  0  0  0  0  0  0  0  0
    1.4950   12.8300   -4.3580 C   0  0  1  0  0  0  0  0  0  0  0  0
    0.5380   11.6520   -4.7220 C   0  0  0  0  0  0  0  0  0  0  0  0
    2.0690   12.6810   -2.9110 C   0  0  2  0  0  0  0  0  0  0  0  0
    2.8390   11.3760   -2.6450 C   0  0  0  0  0  0  0  0  0  0  0  0
    2.0150   10.2420   -2.1330 C   0  0  0  0  0  0  0  0  0  0  0  0
    0.7720   10.3450   -1.6260 C   0  0  0  0  0  0  0  0  0  0  0  0
    0.1080   11.7150   -1.4400 C   0  0  1  0  0  0  0  0  0  0  0  0
   -0.5360   11.7920   -0.0310 C   0  0  0  0  0  0  0  0  0  0  0  0
   -1.4970   10.6370    0.2360 C   0  0  0  0  0  0  0  0  0  0  0  0
   -0.7860    9.2930    0.0990 C   0  0  2  0  0  0  0  0  0  0  0  0
    0.1820    9.1750    1.1470 O   0  0  0  0  0  0  0  0  0  0  0  0
   -0.0900    9.1060   -1.2780 C   0  0  0  0  0  0  0  0  0  0  0  0
   -1.1610    8.9330   -2.3830 C   0  0  0  0  0  0  0  0  0  0  0  0
    0.7070    7.7740   -1.2330 C   0  0  0  0  0  0  0  0  0  0  0  0
    1.0190   12.9770   -1.7640 C   0  0  1  0  0  0  0  0  0  0  0  0
    1.8400   13.3780   -0.5010 C   0  0  0  0  0  0  0  0  0  0  0  0
    0.0940   14.2060   -2.1020 C   0  0  0  0  0  0  0  0  0  0  0  0
   -0.3410   14.3650   -3.5710 C   0  0  0  0  0  0  0  0  0  0  0  0
    0.8610   14.2600   -4.5140 C   0  0  2  0  0  0  0  0  0  0  0  0
    1.8310   15.4460   -4.1860 C   0  0  0  0  0  0  0  0  0  0  0  0
   -0.6505   16.2178   -4.7685 H   0  0  0  0  0  0  0  0  0  0  0  0
   -0.8570   17.4204   -6.0867 H   0  0  0  0  0  0  0  0  0  0  0  0
   -1.8316   15.9115   -6.0867 H   0  0  0  0  0  0  0  0  0  0  0  0
    1.1323   16.2841   -6.6329 H   0  0  0  0  0  0  0  0  0  0  0  0
    0.1420   14.4572   -8.4547 H   0  0  0  0  0  0  0  0  0  0  0  0
   -1.2540   15.6082   -8.1876 H   0  0  0  0  0  0  0  0  0  0  0  0
   -0.1365   16.5560   -9.9895 H   0  0  0  0  0  0  0  0  0  0  0  0
    0.5089   17.4560   -8.5539 H   0  0  0  0  0  0  0  0  0  0  0  0
    2.1630   16.0500   -8.3901 H   0  0  0  0  0  0  0  0  0  0  0  0
    0.3215   14.2778  -10.9306 H   0  0  0  0  0  0  0  0  0  0  0  0
    0.7478   15.5002  -12.1759 H   0  0  0  0  0  0  0  0  0  0  0  0
    1.5590   13.8974  -12.1759 H   0  0  0  0  0  0  0  0  0  0  0  0
    3.8465   14.3291   -9.6219 H   0  0  0  0  0  0  0  0  0  0  0  0
    3.4023   13.5484  -11.1775 H   0  0  0  0  0  0  0  0  0  0  0  0
    4.2688   15.1219  -11.1775 H   0  0  0  0  0  0  0  0  0  0  0  0
   -0.3848   13.7651   -6.2397 H   0  0  0  0  0  0  0  0  0  0  0  0
    1.5351   12.9366   -7.4504 H   0  0  0  0  0  0  0  0  0  0  0  0
    2.4877   14.3921   -7.0898 H   0  0  0  0  0  0  0  0  0  0  0  0
    2.7965   11.8488   -5.8231 H   0  0  0  0  0  0  0  0  0  0  0  0
    3.4731   13.3511   -5.1993 H   0  0  0  0  0  0  0  0  0  0  0  0
    0.1607   11.1875   -3.7990 H   0  0  0  0  0  0  0  0  0  0  0  0
   -0.3077   12.0354   -5.3118 H   0  0  0  0  0  0  0  0  0  0  0  0
    1.0865   10.9028   -5.3118 H   0  0  0  0  0  0  0  0  0  0  0  0
    2.8203   13.4835   -2.8716 H   0  0  0  0  0  0  0  0  0  0  0  0
    3.3052   11.0581   -3.5892 H   0  0  0  0  0  0  0  0  0  0  0  0
    3.5644   11.6074   -1.8511 H   0  0  0  0  0  0  0  0  0  0  0  0
    2.4608    9.2372   -2.1732 H   0  0  0  0  0  0  0  0  0  0  0  0
   -0.6733   11.7809   -2.2115 H   0  0  0  0  0  0  0  0  0  0  0  0
    0.2635   11.7675    0.7241 H   0  0  0  0  0  0  0  0  0  0  0  0
   -1.1137   12.7266    0.0219 H   0  0  0  0  0  0  0  0  0  0  0  0
   -1.8972   10.7302    1.2564 H   0  0  0  0  0  0  0  0  0  0  0  0
   -2.3115   10.6802   -0.5020 H   0  0  0  0  0  0  0  0  0  0  0  0
   -1.5507    8.5058    0.1735 H   0  0  0  0  0  0  0  0  0  0  0  0
   -0.1480    8.5130    1.7780 H   0  0  0  0  0  0  0  0  0  0  0  0
   -2.1452    8.7740   -1.9181 H   0  0  0  0  0  0  0  0  0  0  0  0
   -1.1925    9.8377   -3.0079 H   0  0  0  0  0  0  0  0  0  0  0  0
   -0.9061    8.0644   -3.0079 H   0  0  0  0  0  0  0  0  0  0  0  0
    0.8798    7.4853   -0.1857 H   0  0  0  0  0  0  0  0  0  0  0  0
    0.1322    6.9854   -1.7407 H   0  0  0  0  0  0  0  0  0  0  0  0
    1.6736    7.9077   -1.7407 H   0  0  0  0  0  0  0  0  0  0  0  0
    1.2781   13.1035    0.4040 H   0  0  0  0  0  0  0  0  0  0  0  0
    2.8048   12.8497   -0.5079 H   0  0  0  0  0  0  0  0  0  0  0  0
    2.0164   14.4637   -0.5079 H   0  0  0  0  0  0  0  0  0  0  0  0
   -0.8175   14.1137   -1.4932 H   0  0  0  0  0  0  0  0  0  0  0  0
    0.7054   15.0944   -1.8853 H   0  0  0  0  0  0  0  0  0  0  0  0
   -1.0635   13.5738   -3.8198 H   0  0  0  0  0  0  0  0  0  0  0  0
   -0.7983   15.3577   -3.6955 H   0  0  0  0  0  0  0  0  0  0  0  0
    1.9205   15.5555   -3.0951 H   0  0  0  0  0  0  0  0  0  0  0  0
    2.8219   15.2390   -4.6163 H   0  0  0  0  0  0  0  0  0  0  0  0
    1.4315   16.3762   -4.6163 H   0  0  0  0  0  0  0  0  0  0  0  0
  1  2  1  0
  2  3  1  0
  3  4  1  0
  4  5  1  0
  5  6  1  0
  6  7  1  0
  7  8  1  0
  7  9  1  0
  2 10  1  0
 10 11  1  0
 11 12  1  0
 12 13  1  0
 13 14  1  6
 13 15  1  0
 15 16  1  0
 16 17  1  0
 17 18  2  0
 18 19  1  0
 19 20  1  0
 20 21  1  0
 21 22  1  0
 22 23  1  0
 22 24  1  0
 24 25  1  0
 24 26  1  0
 19 27  1  0
 27 28  1  1
 27 29  1  0
 29 30  1  0
 30 31  1  0
 31 32  1  1
  7  5  1  0
 31 10  1  0
 31 13  1  0
 27 15  1  0
 24 18  1  0
  1 33  1  0
  1 34  1  0
  1 35  1  0
  2 36  1  6
  3 37  1  0
  3 38  1  0
  4 39  1  0
  4 40  1  0
  5 41  1  1
  8 42  1  0
  8 43  1  0
  8 44  1  0
  9 45  1  0
  9 46  1  0
  9 47  1  0
 10 48  1  1
 11 49  1  0
 11 50  1  0
 12 51  1  0
 12 52  1  0
 14 53  1  0
 14 54  1  0
 14 55  1  0
 15 56  1  6
 16 57  1  0
 16 58  1  0
 17 59  1  0
 19 60  1  6
 20 61  1  0
 20 62  1  0
 21 63  1  0
 21 64  1  0
 22 65  1  1
 23 66  1  0
 25 67  1  0
 25 68  1  0
 25 69  1  0
 26 70  1  0
 26 71  1  0
 26 72  1  0
 28 73  1  0
 28 74  1  0
 28 75  1  0
 29 76  1  0
 29 77  1  0
 30 78  1  0
 30 79  1  0
 32 80  1  0
 32 81  1  0
 32 82  1  0
M  END
>  <meeko>  (13) 
{"is_sidechain": [false], "intermolecular_energy": 2.731, "internal_energy": -0.839}

$$$$
EPH_relaxed_0001_pdb2pqr_Repair_59_r2_0001_out
     RDKit          3D

 82 86  0  0  0  0  0  0  0  0999 V2000
   -0.2860   15.0860   -7.6590 C   0  0  0  0  0  0  0  0  0  0  0  0
    1.0820   15.0730   -6.9710 C   0  0  2  0  0  0  0  0  0  0  0  0
    2.2420   15.1670   -7.9820 C   0  0  0  0  0  0  0  0  0  0  0  0
    2.2700   16.4830   -8.7650 C   0  0  0  0  0  0  0  0  0  0  0  0
    1.8630   16.2880  -10.1930 C   0  0  2  0  0  0  0  0  0  0  0  0
    1.2010   15.0450  -10.4620 O   0  0  0  0  0  0  0  0  0  0  0  0
    2.4730   15.2360  -11.1010 C   0  0  0  0  0  0  0  0  0  0  0  0
    3.5440   14.3110  -10.6140 C   0  0  0  0  0  0  0  0  0  0  0  0
    2.3810   15.4300  -12.5830 C   0  0  0  0  0  0  0  0  0  0  0  0
    1.2280   13.8110   -6.1280 C   0  0  1  0  0  0  0  0  0  0  0  0
    2.6590   13.2140   -6.1880 C   0  0  0  0  0  0  0  0  0  0  0  0
    2.9530   12.6150   -4.7890 C   0  0  0  0  0  0  0  0  0  0  0  0
    1.5790   12.5880   -4.0790 C   0  0  1  0  0  0  0  0  0  0  0  0
    0.8740   11.3050   -4.6200 C   0  0  0  0  0  0  0  0  0  0  0  0
    1.6070   12.6170   -2.5160 C   0  0  2  0  0  0  0  0  0  0  0  0
    2.2960   11.4110   -1.8540 C   0  0  0  0  0  0  0  0  0  0  0  0
    1.4010   10.2590   -1.5370 C   0  0  0  0  0  0  0  0  0  0  0  0
    0.0560   10.2980   -1.5110 C   0  0  0  0  0  0  0  0  0  0  0  0
   -0.6980   11.6170   -1.7230 C   0  0  1  0  0  0  0  0  0  0  0  0
   -1.8040   11.7610   -0.6440 C   0  0  0  0  0  0  0  0  0  0  0  0
   -2.7380   10.5560   -0.6000 C   0  0  0  0  0  0  0  0  0  0  0  0
   -1.9590    9.2710   -0.3300 C   0  0  2  0  0  0  0  0  0  0  0  0
   -1.4220    9.3280    0.9960 O   0  0  0  0  0  0  0  0  0  0  0  0
   -0.8100    9.0250   -1.3480 C   0  0  0  0  0  0  0  0  0  0  0  0
   -1.4090    8.6650   -2.7300 C   0  0  0  0  0  0  0  0  0  0  0  0
   -0.0160    7.7760   -0.8790 C   0  0  0  0  0  0  0  0  0  0  0  0
    0.2050   12.9190   -1.8480 C   0  0  1  0  0  0  0  0  0  0  0  0
    0.5030   13.4990   -0.4310 C   0  0  0  0  0  0  0  0  0  0  0  0
   -0.5990   14.0300   -2.6220 C   0  0  0  0  0  0  0  0  0  0  0  0
   -0.4920   14.0220   -4.1590 C   0  0  0  0  0  0  0  0  0  0  0  0
    0.9710   13.9400   -4.6050 C   0  0  2  0  0  0  0  0  0  0  0  0
    1.7010   15.2290   -4.0950 C   0  0  0  0  0  0  0  0  0  0  0  0
   -1.0795   15.0935   -6.8972 H   0  0  0  0  0  0  0  0  0  0  0  0
   -0.3721   15.9850   -8.2870 H   0  0  0  0  0  0  0  0  0  0  0  0
   -0.3891   14.1888   -8.2870 H   0  0  0  0  0  0  0  0  0  0  0  0
    1.1349   15.9612   -6.3242 H   0  0  0  0  0  0  0  0  0  0  0  0
    3.1902   15.0691   -7.4330 H   0  0  0  0  0  0  0  0  0  0  0  0
    2.0965   14.3596   -8.7147 H   0  0  0  0  0  0  0  0  0  0  0  0
    1.5775   17.1943   -8.2911 H   0  0  0  0  0  0  0  0  0  0  0  0
    3.3006   16.8672   -8.7521 H   0  0  0  0  0  0  0  0  0  0  0  0
    1.7028   17.3689  -10.3197 H   0  0  0  0  0  0  0  0  0  0  0  0
    3.5510   14.3050   -9.5140 H   0  0  0  0  0  0  0  0  0  0  0  0
    3.3470   13.2944  -10.9850 H   0  0  0  0  0  0  0  0  0  0  0  0
    4.5212   14.6538  -10.9850 H   0  0  0  0  0  0  0  0  0  0  0  0
    1.9187   16.4049  -12.7972 H   0  0  0  0  0  0  0  0  0  0  0  0
    3.3899   15.3987  -13.0202 H   0  0  0  0  0  0  0  0  0  0  0  0
    1.7668   14.6290  -13.0202 H   0  0  0  0  0  0  0  0  0  0  0  0
    0.4472   13.1891   -6.5902 H   0  0  0  0  0  0  0  0  0  0  0  0
    2.7093   12.4272   -6.9551 H   0  0  0  0  0  0  0  0  0  0  0  0
    3.3980   13.9854   -6.4504 H   0  0  0  0  0  0  0  0  0  0  0  0
    3.3629   11.5983   -4.8803 H   0  0  0  0  0  0  0  0  0  0  0  0
    3.6985   13.2019   -4.2324 H   0  0  0  0  0  0  0  0  0  0  0  0
    0.5352   10.6885   -3.7743 H   0  0  0  0  0  0  0  0  0  0  0  0
    0.0078   11.5936   -5.2335 H   0  0  0  0  0  0  0  0  0  0  0  0
    1.5821   10.7286   -5.2335 H   0  0  0  0  0  0  0  0  0  0  0  0
    2.2529   13.4826   -2.3076 H   0  0  0  0  0  0  0  0  0  0  0  0
    3.0823   11.0530   -2.5349 H   0  0  0  0  0  0  0  0  0  0  0  0
    2.6796   11.7724   -0.8885 H   0  0  0  0  0  0  0  0  0  0  0  0
    1.8814    9.2970   -1.3051 H   0  0  0  0  0  0  0  0  0  0  0  0
   -1.1565   11.5481   -2.7205 H   0  0  0  0  0  0  0  0  0  0  0  0
   -1.3246   11.8718    0.3398 H   0  0  0  0  0  0  0  0  0  0  0  0
   -2.4087   12.6432   -0.9011 H   0  0  0  0  0  0  0  0  0  0  0  0
   -3.4780   10.7032    0.2004 H   0  0  0  0  0  0  0  0  0  0  0  0
   -3.2389   10.4644   -1.5750 H   0  0  0  0  0  0  0  0  0  0  0  0
   -2.6605    8.4309   -0.4398 H   0  0  0  0  0  0  0  0  0  0  0  0
   -0.9100   10.1510    1.0710 H   0  0  0  0  0  0  0  0  0  0  0  0
   -2.3441    8.1030   -2.5892 H   0  0  0  0  0  0  0  0  0  0  0  0
   -1.6169    9.5879   -3.2912 H   0  0  0  0  0  0  0  0  0  0  0  0
   -0.6915    8.0483   -3.2912 H   0  0  0  0  0  0  0  0  0  0  0  0
    0.0034    7.7454    0.2204 H   0  0  0  0  0  0  0  0  0  0  0  0
   -0.5024    6.8670   -1.2626 H   0  0  0  0  0  0  0  0  0  0  0  0
    1.0135    7.8307   -1.2626 H   0  0  0  0  0  0  0  0  0  0  0  0
    0.1425   12.7974    0.3356 H   0  0  0  0  0  0  0  0  0  0  0  0
    1.5872   13.6439   -0.3147 H   0  0  0  0  0  0  0  0  0  0  0  0
   -0.0105   14.4648   -0.3147 H   0  0  0  0  0  0  0  0  0  0  0  0
   -1.6615   13.9139   -2.3619 H   0  0  0  0  0  0  0  0  0  0  0  0
   -0.1485   14.9829   -2.3073 H   0  0  0  0  0  0  0  0  0  0  0  0
   -1.0380   13.1523   -4.5534 H   0  0  0  0  0  0  0  0  0  0  0  0
   -0.9255   14.9559   -4.5462 H   0  0  0  0  0  0  0  0  0  0  0  0
    1.7055   15.2369   -2.9950 H   0  0  0  0  0  0  0  0  0  0  0  0
    2.7366   15.2350   -4.4659 H   0  0  0  0  0  0  0  0  0  0  0  0
    1.1735   16.1202   -4.4659 H   0  0  0  0  0  0  0  0  0  0  0  0
  1  2  1  0
  2  3  1  0
  3  4  1  0
  4  5  1  0
  5  6  1  0
  6  7  1  0
  7  8  1  0
  7  9  1  0
  2 10  1  0
 10 11  1  0
 11 12  1  0
 12 13  1  0
 13 14  1  1
 13 15  1  0
 15 16  1  0
 16 17  1  0
 17 18  2  0
 18 19  1  0
 19 20  1  0
 20 21  1  0
 21 22  1  0
 22 23  1  0
 22 24  1  0
 24 25  1  0
 24 26  1  0
 19 27  1  0
 27 28  1  1
 27 29  1  0
 29 30  1  0
 30 31  1  0
 31 32  1  1
  7  5  1  0
 31 10  1  0
 31 13  1  0
 27 15  1  0
 24 18  1  0
  1 33  1  0
  1 34  1  0
  1 35  1  0
  2 36  1  1
  3 37  1  0
  3 38  1  0
  4 39  1  0
  4 40  1  0
  5 41  1  6
  8 42  1  0
  8 43  1  0
  8 44  1  0
  9 45  1  0
  9 46  1  0
  9 47  1  0
 10 48  1  6
 11 49  1  0
 11 50  1  0
 12 51  1  0
 12 52  1  0
 14 53  1  0
 14 54  1  0
 14 55  1  0
 15 56  1  6
 16 57  1  0
 16 58  1  0
 17 59  1  0
 19 60  1  6
 20 61  1  0
 20 62  1  0
 21 63  1  0
 21 64  1  0
 22 65  1  1
 23 66  1  0
 25 67  1  0
 25 68  1  0
 25 69  1  0
 26 70  1  0
 26 71  1  0
 26 72  1  0
 28 73  1  0
 28 74  1  0
 28 75  1  0
 29 76  1  0
 29 77  1  0
 30 78  1  0
 30 79  1  0
 32 80  1  0
 32 81  1  0
 32 82  1  0
M  END
>  <meeko>  (14) 
{"is_sidechain": [false], "intermolecular_energy": 2.731, "internal_energy": -0.839}

$$$$
EPH_relaxed_0001_pdb2pqr_Repair_59_r2_0001_out
     RDKit          3D

 82 86  0  0  0  0  0  0  0  0999 V2000
   -0.0800    9.3410   -2.4330 C   0  0  0  0  0  0  0  0  0  0  0  0
    0.9720   10.3530   -2.8950 C   0  0  2  0  0  0  0  0  0  0  0  0
    2.3710    9.7180   -3.0240 C   0  0  0  0  0  0  0  0  0  0  0  0
    3.3320   10.5200   -3.9060 C   0  0  0  0  0  0  0  0  0  0  0  0
    4.7120   10.5660   -3.3230 C   0  0  2  0  0  0  0  0  0  0  0  0
    5.3430   11.8520   -3.3760 O   0  0  0  0  0  0  0  0  0  0  0  0
    5.9620   10.8110   -4.1480 C   0  0  0  0  0  0  0  0  0  0  0  0
    5.8900   11.0250   -5.6280 C   0  0  0  0  0  0  0  0  0  0  0  0
    7.2800   10.3580   -3.6030 C   0  0  0  0  0  0  0  0  0  0  0  0
    1.0210   11.5300   -1.9280 C   0  0  1  0  0  0  0  0  0  0  0  0
    2.0940   11.3490   -0.8210 C   0  0  0  0  0  0  0  0  0  0  0  0
    2.6670   12.7570   -0.5190 C   0  0  0  0  0  0  0  0  0  0  0  0
    1.6870   13.7340   -1.2110 C   0  0  1  0  0  0  0  0  0  0  0  0
    0.4900   13.8710   -0.2190 C   0  0  0  0  0  0  0  0  0  0  0  0
    2.2690   15.1290   -1.6100 C   0  0  2  0  0  0  0  0  0  0  0  0
    2.7540   15.9940   -0.4340 C   0  0  0  0  0  0  0  0  0  0  0  0
    1.7280   16.9040    0.1550 C   0  0  0  0  0  0  0  0  0  0  0  0
    0.5540   17.2330   -0.4160 C   0  0  0  0  0  0  0  0  0  0  0  0
    0.2030   16.7490   -1.8290 C   0  0  1  0  0  0  0  0  0  0  0  0
   -0.3580   17.9350   -2.6570 C   0  0  0  0  0  0  0  0  0  0  0  0
   -1.5310   18.6260   -1.9690 C   0  0  0  0  0  0  0  0  0  0  0  0
   -1.1270   19.1440   -0.5910 C   0  0  2  0  0  0  0  0  0  0  0  0
   -0.1690   20.1940   -0.7560 O   0  0  0  0  0  0  0  0  0  0  0  0
   -0.5370   18.0400    0.3300 C   0  0  0  0  0  0  0  0  0  0  0  0
   -1.6610   17.0610    0.7540 C   0  0  0  0  0  0  0  0  0  0  0  0
   -0.0400   18.7200    1.6340 C   0  0  0  0  0  0  0  0  0  0  0  0
    1.3480   15.9580   -2.5950 C   0  0  1  0  0  0  0  0  0  0  0  0
    2.2820   16.9600   -3.3400 C   0  0  0  0  0  0  0  0  0  0  0  0
    0.6930   15.0530   -3.7050 C   0  0  0  0  0  0  0  0  0  0  0  0
    0.2480   13.6410   -3.2770 C   0  0  0  0  0  0  0  0  0  0  0  0
    1.3660   12.9200   -2.5180 C   0  0  2  0  0  0  0  0  0  0  0  0
    2.5760   12.7490   -3.4970 C   0  0  0  0  0  0  0  0  0  0  0  0
   -0.1064    9.3156   -1.3336 H   0  0  0  0  0  0  0  0  0  0  0  0
   -1.0674    9.6374   -2.8167 H   0  0  0  0  0  0  0  0  0  0  0  0
    0.1780    8.3429   -2.8167 H   0  0  0  0  0  0  0  0  0  0  0  0
    0.6761   10.7052   -3.8942 H   0  0  0  0  0  0  0  0  0  0  0  0
    2.8092    9.6358   -2.0184 H   0  0  0  0  0  0  0  0  0  0  0  0
    2.2360    8.7377   -3.5044 H   0  0  0  0  0  0  0  0  0  0  0  0
    3.3802   10.0503   -4.8995 H   0  0  0  0  0  0  0  0  0  0  0  0
    2.9545   11.5509   -3.9753 H   0  0  0  0  0  0  0  0  0  0  0  0
    4.4524    9.7884   -2.5895 H   0  0  0  0  0  0  0  0  0  0  0  0
    5.5454   12.0491   -5.8341 H   0  0  0  0  0  0  0  0  0  0  0  0
    6.8871   10.8780   -6.0687 H   0  0  0  0  0  0  0  0  0  0  0  0
    5.1846   10.3052   -6.0687 H   0  0  0  0  0  0  0  0  0  0  0  0
    7.2457   10.3698   -2.5036 H   0  0  0  0  0  0  0  0  0  0  0  0
    7.4896    9.3362   -3.9524 H   0  0  0  0  0  0  0  0  0  0  0  0
    8.0735   11.0350   -3.9524 H   0  0  0  0  0  0  0  0  0  0  0  0
   -0.0195   11.5200   -1.5714 H   0  0  0  0  0  0  0  0  0  0  0  0
    1.6361   10.9242    0.0845 H   0  0  0  0  0  0  0  0  0  0  0  0
    2.8877   10.6617   -1.1490 H   0  0  0  0  0  0  0  0  0  0  0  0
    2.6966   12.9398    0.5653 H   0  0  0  0  0  0  0  0  0  0  0  0
    3.6987   12.8741   -0.8821 H   0  0  0  0  0  0  0  0  0  0  0  0
    0.8637   13.8282    0.8147 H   0  0  0  0  0  0  0  0  0  0  0  0
   -0.0166   14.8330   -0.3862 H   0  0  0  0  0  0  0  0  0  0  0  0
   -0.2208   13.0483   -0.3862 H   0  0  0  0  0  0  0  0  0  0  0  0
    3.1735   14.8548   -2.1727 H   0  0  0  0  0  0  0  0  0  0  0  0
    3.1066   15.3201    0.3606 H   0  0  0  0  0  0  0  0  0  0  0  0
    3.5409   16.6461   -0.8407 H   0  0  0  0  0  0  0  0  0  0  0  0
    1.9498   17.3430    1.1389 H   0  0  0  0  0  0  0  0  0  0  0  0
   -0.5737   15.9802   -1.7036 H   0  0  0  0  0  0  0  0  0  0  0  0
    0.4455   18.6709   -2.8079 H   0  0  0  0  0  0  0  0  0  0  0  0
   -0.7225   17.5316   -3.6132 H   0  0  0  0  0  0  0  0  0  0  0  0
   -1.8640   19.4720   -2.5882 H   0  0  0  0  0  0  0  0  0  0  0  0
   -2.3448   17.8963   -1.8451 H   0  0  0  0  0  0  0  0  0  0  0  0
   -2.0386   19.5111   -0.0968 H   0  0  0  0  0  0  0  0  0  0  0  0
    0.3350   20.2660    0.0720 H   0  0  0  0  0  0  0  0  0  0  0  0
   -1.7130   17.0157    1.8518 H   0  0  0  0  0  0  0  0  0  0  0  0
   -2.6238   17.4134    0.3556 H   0  0  0  0  0  0  0  0  0  0  0  0
   -1.4440   16.0589    0.3556 H   0  0  0  0  0  0  0  0  0  0  0  0
   -0.4367   18.1773    2.5047 H   0  0  0  0  0  0  0  0  0  0  0  0
    1.0595   18.7023    1.6607 H   0  0  0  0  0  0  0  0  0  0  0  0
   -0.3907   19.7623    1.6607 H   0  0  0  0  0  0  0  0  0  0  0  0
    2.8395   17.5581   -2.6041 H   0  0  0  0  0  0  0  0  0  0  0  0
    2.9897   16.4020   -3.9707 H   0  0  0  0  0  0  0  0  0  0  0  0
    1.6757   17.6268   -3.9707 H   0  0  0  0  0  0  0  0  0  0  0  0
   -0.1945   15.5810   -4.0840 H   0  0  0  0  0  0  0  0  0  0  0  0
    1.4863   14.8914   -4.4497 H   0  0  0  0  0  0  0  0  0  0  0  0
   -0.6340   13.7240   -2.6250 H   0  0  0  0  0  0  0  0  0  0  0  0
    0.0065   13.0608   -4.1798 H   0  0  0  0  0  0  0  0  0  0  0  0
    3.5014   12.6182   -2.9169 H   0  0  0  0  0  0  0  0  0  0  0  0
    2.4126   11.8650   -4.1309 H   0  0  0  0  0  0  0  0  0  0  0  0
    2.6640   13.6436   -4.1309 H   0  0  0  0  0  0  0  0  0  0  0  0
  1  2  1  0
  2  3  1  0
  3  4  1  0
  4  5  1  0
  5  6  1  0
  6  7  1  0
  7  8  1  0
  7  9  1  0
  2 10  1  0
 10 11  1  0
 11 12  1  0
 12 13  1  0
 13 14  1  1
 13 15  1  0
 15 16  1  0
 16 17  1  0
 17 18  2  0
 18 19  1  0
 19 20  1  0
 20 21  1  0
 21 22  1  0
 22 23  1  0
 22 24  1  0
 24 25  1  0
 24 26  1  0
 19 27  1  0
 27 28  1  6
 27 29  1  0
 29 30  1  0
 30 31  1  0
 31 32  1  6
  7  5  1  0
 31 10  1  0
 31 13  1  0
 27 15  1  0
 24 18  1  0
  1 33  1  0
  1 34  1  0
  1 35  1  0
  2 36  1  6
  3 37  1  0
  3 38  1  0
  4 39  1  0
  4 40  1  0
  5 41  1  1
  8 42  1  0
  8 43  1  0
  8 44  1  0
  9 45  1  0
  9 46  1  0
  9 47  1  0
 10 48  1  1
 11 49  1  0
 11 50  1  0
 12 51  1  0
 12 52  1  0
 14 53  1  0
 14 54  1  0
 14 55  1  0
 15 56  1  6
 16 57  1  0
 16 58  1  0
 17 59  1  0
 19 60  1  1
 20 61  1  0
 20 62  1  0
 21 63  1  0
 21 64  1  0
 22 65  1  1
 23 66  1  0
 25 67  1  0
 25 68  1  0
 25 69  1  0
 26 70  1  0
 26 71  1  0
 26 72  1  0
 28 73  1  0
 28 74  1  0
 28 75  1  0
 29 76  1  0
 29 77  1  0
 30 78  1  0
 30 79  1  0
 32 80  1  0
 32 81  1  0
 32 82  1  0
M  END
>  <meeko>  (15) 
{"is_sidechain": [false], "intermolecular_energy": 2.731, "internal_energy": -0.839}

$$$$
EPH_relaxed_0001_pdb2pqr_Repair_59_r2_0001_out
     RDKit          3D

 82 86  0  0  0  0  0  0  0  0999 V2000
   -2.1220    7.7320   -2.2730 C   0  0  0  0  0  0  0  0  0  0  0  0
   -2.3160    8.3930   -0.9050 C   0  0  2  0  0  0  0  0  0  0  0  0
   -3.7930    8.3900   -0.4630 C   0  0  0  0  0  0  0  0  0  0  0  0
   -4.6650    7.3980   -1.2370 C   0  0  0  0  0  0  0  0  0  0  0  0
   -6.1080    7.8030   -1.2270 C   0  0  2  0  0  0  0  0  0  0  0  0
   -7.0140    6.7790   -0.7960 O   0  0  0  0  0  0  0  0  0  0  0  0
   -7.1500    7.2130   -2.1590 C   0  0  0  0  0  0  0  0  0  0  0  0
   -6.7910    6.1680   -3.1680 C   0  0  0  0  0  0  0  0  0  0  0  0
   -8.4000    7.9940   -2.4210 C   0  0  0  0  0  0  0  0  0  0  0  0
   -1.7850    9.8210   -0.9380 C   0  0  1  0  0  0  0  0  0  0  0  0
   -1.3790   10.3400    0.4670 C   0  0  0  0  0  0  0  0  0  0  0  0
   -0.1500   11.2630    0.2660 C   0  0  0  0  0  0  0  0  0  0  0  0
   -0.0930   11.5090   -1.2600 C   0  0  1  0  0  0  0  0  0  0  0  0
   -1.1410   12.6360   -1.5240 C   0  0  0  0  0  0  0  0  0  0  0  0
    1.3080   11.8750   -1.8490 C   0  0  2  0  0  0  0  0  0  0  0  0
    1.9150   13.1870   -1.3230 C   0  0  0  0  0  0  0  0  0  0  0  0
    1.5770   14.4080   -2.1130 C   0  0  0  0  0  0  0  0  0  0  0  0
    1.0560   14.4170   -3.3540 C   0  0  0  0  0  0  0  0  0  0  0  0
    0.8450   13.1110   -4.1300 C   0  0  1  0  0  0  0  0  0  0  0  0
    1.3760   13.2770   -5.5780 C   0  0  0  0  0  0  0  0  0  0  0  0
    0.7690   14.4820   -6.2890 C   0  0  0  0  0  0  0  0  0  0  0  0
    1.0490   15.7690   -5.5170 C   0  0  2  0  0  0  0  0  0  0  0  0
    2.4550   16.0320   -5.5550 O   0  0  0  0  0  0  0  0  0  0  0  0
    0.5660   15.7160   -4.0410 C   0  0  0  0  0  0  0  0  0  0  0  0
   -0.9820   15.7350   -3.9980 C   0  0  0  0  0  0  0  0  0  0  0  0
    1.0360   17.0180   -3.3380 C   0  0  0  0  0  0  0  0  0  0  0  0
    1.3890   11.7920   -3.4280 C   0  0  1  0  0  0  0  0  0  0  0  0
    2.8910   11.5800   -3.7860 C   0  0  0  0  0  0  0  0  0  0  0  0
    0.6150   10.5470   -4.0020 C   0  0  0  0  0  0  0  0  0  0  0  0
   -0.7030   10.1650   -3.3020 C   0  0  0  0  0  0  0  0  0  0  0  0
   -0.5140   10.0880   -1.7840 C   0  0  2  0  0  0  0  0  0  0  0  0
    0.5180    8.9470   -1.4870 C   0  0  0  0  0  0  0  0  0  0  0  0
   -1.8147    6.6850   -2.1340 H   0  0  0  0  0  0  0  0  0  0  0  0
   -3.0678    7.7652   -2.8337 H   0  0  0  0  0  0  0  0  0  0  0  0
   -1.3442    8.2711   -2.8337 H   0  0  0  0  0  0  0  0  0  0  0  0
   -1.7502    7.8029   -0.1690 H   0  0  0  0  0  0  0  0  0  0  0  0
   -3.8354    8.1299    0.6050 H   0  0  0  0  0  0  0  0  0  0  0  0
   -4.1914    9.3949   -0.6664 H   0  0  0  0  0  0  0  0  0  0  0  0
   -4.3147    7.3528   -2.2787 H   0  0  0  0  0  0  0  0  0  0  0  0
   -4.5813    6.4153   -0.7499 H   0  0  0  0  0  0  0  0  0  0  0  0
   -5.8388    8.8417   -0.9848 H   0  0  0  0  0  0  0  0  0  0  0  0
   -6.4758    5.2505   -2.6494 H   0  0  0  0  0  0  0  0  0  0  0  0
   -7.6661    5.9508   -3.7982 H   0  0  0  0  0  0  0  0  0  0  0  0
   -5.9672    6.5344   -3.7982 H   0  0  0  0  0  0  0  0  0  0  0  0
   -8.8601    8.2815   -1.4641 H   0  0  0  0  0  0  0  0  0  0  0  0
   -8.1533    8.8989   -2.9957 H   0  0  0  0  0  0  0  0  0  0  0  0
   -9.1051    7.3755   -2.9957 H   0  0  0  0  0  0  0  0  0  0  0  0
   -2.6506   10.3291   -1.3881 H   0  0  0  0  0  0  0  0  0  0  0  0
   -2.2085   10.9063    0.9157 H   0  0  0  0  0  0  0  0  0  0  0  0
   -1.1392    9.5051    1.1419 H   0  0  0  0  0  0  0  0  0  0  0  0
   -0.2836   12.2111    0.8076 H   0  0  0  0  0  0  0  0  0  0  0  0
    0.7771   10.8134    0.6512 H   0  0  0  0  0  0  0  0  0  0  0  0
   -1.5065   13.0291   -0.5638 H   0  0  0  0  0  0  0  0  0  0  0  0
   -0.6697   13.4481   -2.0971 H   0  0  0  0  0  0  0  0  0  0  0  0
   -1.9851   12.2248   -2.0971 H   0  0  0  0  0  0  0  0  0  0  0  0
    1.9471   11.0716   -1.4538 H   0  0  0  0  0  0  0  0  0  0  0  0
    1.5574   13.3383   -0.2938 H   0  0  0  0  0  0  0  0  0  0  0  0
    3.0061   13.0688   -1.3975 H   0  0  0  0  0  0  0  0  0  0  0  0
    1.7701   15.3826   -1.6409 H   0  0  0  0  0  0  0  0  0  0  0  0
   -0.2415   12.9404   -4.1485 H   0  0  0  0  0  0  0  0  0  0  0  0
    2.4681   13.4028   -5.5408 H   0  0  0  0  0  0  0  0  0  0  0  0
    1.0911   12.3774   -6.1433 H   0  0  0  0  0  0  0  0  0  0  0  0
    1.2054   14.5637   -7.2954 H   0  0  0  0  0  0  0  0  0  0  0  0
   -0.3200   14.3404   -6.3524 H   0  0  0  0  0  0  0  0  0  0  0  0
    0.4807   16.5758   -6.0030 H   0  0  0  0  0  0  0  0  0  0  0  0
    2.8340   15.5040   -6.2790 H   0  0  0  0  0  0  0  0  0  0  0  0
   -1.3197   15.7391   -2.9511 H   0  0  0  0  0  0  0  0  0  0  0  0
   -1.3519   16.6378   -4.5062 H   0  0  0  0  0  0  0  0  0  0  0  0
   -1.3739   14.8416   -4.5062 H   0  0  0  0  0  0  0  0  0  0  0  0
    0.9876   16.8838   -2.2473 H   0  0  0  0  0  0  0  0  0  0  0  0
    2.0715   17.2414   -3.6343 H   0  0  0  0  0  0  0  0  0  0  0  0
    0.3819   17.8513   -3.6343 H   0  0  0  0  0  0  0  0  0  0  0  0
    3.4802   11.4968   -2.8609 H   0  0  0  0  0  0  0  0  0  0  0  0
    3.0009   10.6574   -4.3749 H   0  0  0  0  0  0  0  0  0  0  0  0
    3.2519   12.4361   -4.3749 H   0  0  0  0  0  0  0  0  0  0  0  0
    0.3830   10.7567   -5.0566 H   0  0  0  0  0  0  0  0  0  0  0  0
    1.2861    9.6908   -3.8389 H   0  0  0  0  0  0  0  0  0  0  0  0
   -1.4657   10.9236   -3.5318 H   0  0  0  0  0  0  0  0  0  0  0  0
   -1.0209    9.1772   -3.6669 H   0  0  0  0  0  0  0  0  0  0  0  0
    0.6276    8.8258   -0.3992 H   0  0  0  0  0  0  0  0  0  0  0  0
    0.1593    8.0046   -1.9266 H   0  0  0  0  0  0  0  0  0  0  0  0
    1.4915    9.2096   -1.9266 H   0  0  0  0  0  0  0  0  0  0  0  0
  1  2  1  0
  2  3  1  0
  3  4  1  0
  4  5  1  0
  5  6  1  0
  6  7  1  0
  7  8  1  0
  7  9  1  0
  2 10  1  0
 10 11  1  0
 11 12  1  0
 12 13  1  0
 13 14  1  1
 13 15  1  0
 15 16  1  0
 16 17  1  0
 17 18  2  0
 18 19  1  0
 19 20  1  0
 20 21  1  0
 21 22  1  0
 22 23  1  0
 22 24  1  0
 24 25  1  0
 24 26  1  0
 19 27  1  0
 27 28  1  1
 27 29  1  0
 29 30  1  0
 30 31  1  0
 31 32  1  6
  7  5  1  0
 31 10  1  0
 31 13  1  0
 27 15  1  0
 24 18  1  0
  1 33  1  0
  1 34  1  0
  1 35  1  0
  2 36  1  1
  3 37  1  0
  3 38  1  0
  4 39  1  0
  4 40  1  0
  5 41  1  1
  8 42  1  0
  8 43  1  0
  8 44  1  0
  9 45  1  0
  9 46  1  0
  9 47  1  0
 10 48  1  6
 11 49  1  0
 11 50  1  0
 12 51  1  0
 12 52  1  0
 14 53  1  0
 14 54  1  0
 14 55  1  0
 15 56  1  1
 16 57  1  0
 16 58  1  0
 17 59  1  0
 19 60  1  6
 20 61  1  0
 20 62  1  0
 21 63  1  0
 21 64  1  0
 22 65  1  6
 23 66  1  0
 25 67  1  0
 25 68  1  0
 25 69  1  0
 26 70  1  0
 26 71  1  0
 26 72  1  0
 28 73  1  0
 28 74  1  0
 28 75  1  0
 29 76  1  0
 29 77  1  0
 30 78  1  0
 30 79  1  0
 32 80  1  0
 32 81  1  0
 32 82  1  0
M  END
>  <meeko>  (16) 
{"is_sidechain": [false], "intermolecular_energy": 2.731, "internal_energy": -0.839}

$$$$
EPH_relaxed_0001_pdb2pqr_Repair_59_r2_0001_out
     RDKit          3D

 82 86  0  0  0  0  0  0  0  0999 V2000
    2.8470   11.3810   -5.3780 C   0  0  0  0  0  0  0  0  0  0  0  0
    1.8560   11.0710   -4.2530 C   0  0  2  0  0  0  0  0  0  0  0  0
    0.7390   10.1110   -4.7100 C   0  0  0  0  0  0  0  0  0  0  0  0
   -0.3330    9.8630   -3.6450 C   0  0  0  0  0  0  0  0  0  0  0  0
    0.1950    9.0410   -2.5080 C   0  0  2  0  0  0  0  0  0  0  0  0
   -0.6520    7.9550   -2.1110 O   0  0  0  0  0  0  0  0  0  0  0  0
   -0.4560    8.9930   -1.1380 C   0  0  0  0  0  0  0  0  0  0  0  0
   -1.6900    9.7820   -0.8320 C   0  0  0  0  0  0  0  0  0  0  0  0
    0.3750    8.5720    0.0340 C   0  0  0  0  0  0  0  0  0  0  0  0
    1.2470   12.3660   -3.7270 C   0  0  1  0  0  0  0  0  0  0  0  0
   -0.2930   12.2740   -3.5540 C   0  0  0  0  0  0  0  0  0  0  0  0
   -0.6540   13.1270   -2.3100 C   0  0  0  0  0  0  0  0  0  0  0  0
    0.6260   13.9410   -2.0100 C   0  0  1  0  0  0  0  0  0  0  0  0
    0.5790   15.1430   -3.0050 C   0  0  0  0  0  0  0  0  0  0  0  0
    0.8090   14.4210   -0.5330 C   0  0  2  0  0  0  0  0  0  0  0  0
   -0.2730   15.3870   -0.0220 C   0  0  0  0  0  0  0  0  0  0  0  0
    0.0150   16.8370   -0.2320 C   0  0  0  0  0  0  0  0  0  0  0  0
    1.2160   17.3580   -0.5470 C   0  0  0  0  0  0  0  0  0  0  0  0
    2.4640   16.4690   -0.6270 C   0  0  1  0  0  0  0  0  0  0  0  0
    3.6340   17.1510    0.1290 C   0  0  0  0  0  0  0  0  0  0  0  0
    3.8980   18.5720   -0.3600 C   0  0  0  0  0  0  0  0  0  0  0  0
    2.6510   19.4400   -0.2100 C   0  0  2  0  0  0  0  0  0  0  0  0
    2.3730   19.6110    1.1830 O   0  0  0  0  0  0  0  0  0  0  0  0
    1.4030   18.8480   -0.9230 C   0  0  0  0  0  0  0  0  0  0  0  0
    1.5870   18.9430   -2.4580 C   0  0  0  0  0  0  0  0  0  0  0  0
    0.1850   19.7460   -0.5770 C   0  0  0  0  0  0  0  0  0  0  0  0
    2.2620   14.9520   -0.2000 C   0  0  1  0  0  0  0  0  0  0  0  0
    2.4480   14.8040    1.3410 C   0  0  0  0  0  0  0  0  0  0  0  0
    3.3870   14.0760   -0.8680 C   0  0  0  0  0  0  0  0  0  0  0  0
    3.0970   13.5320   -2.2800 C   0  0  0  0  0  0  0  0  0  0  0  0
    1.7210   12.8620   -2.3380 C   0  0  2  0  0  0  0  0  0  0  0  0
    1.7450   11.6350   -1.3640 C   0  0  0  0  0  0  0  0  0  0  0  0
    3.8117   11.6828   -4.9440 H   0  0  0  0  0  0  0  0  0  0  0  0
    2.9888   10.4843   -5.9991 H   0  0  0  0  0  0  0  0  0  0  0  0
    2.4525   12.1987   -5.9991 H   0  0  0  0  0  0  0  0  0  0  0  0
    2.4140   10.5682   -3.4494 H   0  0  0  0  0  0  0  0  0  0  0  0
    0.2532   10.5411   -5.5982 H   0  0  0  0  0  0  0  0  0  0  0  0
    1.2142    9.1414   -4.9199 H   0  0  0  0  0  0  0  0  0  0  0  0
   -0.6783   10.8316   -3.2544 H   0  0  0  0  0  0  0  0  0  0  0  0
   -1.1601    9.3094   -4.1133 H   0  0  0  0  0  0  0  0  0  0  0  0
    1.2320    9.2231   -2.8264 H   0  0  0  0  0  0  0  0  0  0  0  0
   -1.8137    9.8611    0.2582 H   0  0  0  0  0  0  0  0  0  0  0  0
   -1.5979   10.7892   -1.2646 H   0  0  0  0  0  0  0  0  0  0  0  0
   -2.5656    9.2758   -1.2646 H   0  0  0  0  0  0  0  0  0  0  0  0
   -0.1457    8.8358    0.9663 H   0  0  0  0  0  0  0  0  0  0  0  0
    0.5347    7.4842   -0.0016 H   0  0  0  0  0  0  0  0  0  0  0  0
    1.3465    9.0866   -0.0016 H   0  0  0  0  0  0  0  0  0  0  0  0
    1.5854   13.0608   -4.5098 H   0  0  0  0  0  0  0  0  0  0  0  0
   -0.7990   12.6717   -4.4461 H   0  0  0  0  0  0  0  0  0  0  0  0
   -0.6148   11.2301   -3.4246 H   0  0  0  0  0  0  0  0  0  0  0  0
   -1.4977   13.7974   -2.5305 H   0  0  0  0  0  0  0  0  0  0  0  0
   -0.9642   12.5077   -1.4555 H   0  0  0  0  0  0  0  0  0  0  0  0
    0.5421   16.0858   -2.4396 H   0  0  0  0  0  0  0  0  0  0  0  0
    1.4783   15.1302   -3.6383 H   0  0  0  0  0  0  0  0  0  0  0  0
   -0.3166   15.0600   -3.6383 H   0  0  0  0  0  0  0  0  0  0  0  0
    0.6706   13.4901    0.0365 H   0  0  0  0  0  0  0  0  0  0  0  0
   -1.2134   15.1488   -0.5405 H   0  0  0  0  0  0  0  0  0  0  0  0
   -0.3209   15.2412    1.0672 H   0  0  0  0  0  0  0  0  0  0  0  0
   -0.8247   17.5387   -0.1199 H   0  0  0  0  0  0  0  0  0  0  0  0
    2.7101   16.3839   -1.6957 H   0  0  0  0  0  0  0  0  0  0  0  0
    3.3880   17.1869    1.2005 H   0  0  0  0  0  0  0  0  0  0  0  0
    4.5423   16.5595   -0.0585 H   0  0  0  0  0  0  0  0  0  0  0  0
    4.7153   19.0104    0.2314 H   0  0  0  0  0  0  0  0  0  0  0  0
    4.1727   18.5322   -1.4244 H   0  0  0  0  0  0  0  0  0  0  0  0
    2.8608   20.4050   -0.6946 H   0  0  0  0  0  0  0  0  0  0  0  0
    1.4570   19.9270    1.2640 H   0  0  0  0  0  0  0  0  0  0  0  0
    2.5438   19.4370   -2.6827 H   0  0  0  0  0  0  0  0  0  0  0  0
    1.5860   17.9317   -2.8907 H   0  0  0  0  0  0  0  0  0  0  0  0
    0.7619   19.5278   -2.8907 H   0  0  0  0  0  0  0  0  0  0  0  0
    0.0834   19.8209    0.5157 H   0  0  0  0  0  0  0  0  0  0  0  0
    0.3372   20.7496   -1.0008 H   0  0  0  0  0  0  0  0  0  0  0  0
   -0.7287   19.3038   -1.0008 H   0  0  0  0  0  0  0  0  0  0  0  0
    1.6897   15.4074    1.8615 H   0  0  0  0  0  0  0  0  0  0  0  0
    2.3335   13.7473    1.6243 H   0  0  0  0  0  0  0  0  0  0  0  0
    3.4520   15.1529    1.6243 H   0  0  0  0  0  0  0  0  0  0  0  0
    4.2963   14.6920   -0.9289 H   0  0  0  0  0  0  0  0  0  0  0  0
    3.4758   13.1851   -0.2289 H   0  0  0  0  0  0  0  0  0  0  0  0
    3.1223   14.3645   -2.9985 H   0  0  0  0  0  0  0  0  0  0  0  0
    3.8624   12.7830   -2.5311 H   0  0  0  0  0  0  0  0  0  0  0  0
    1.7380   11.9924   -0.3237 H   0  0  0  0  0  0  0  0  0  0  0  0
    0.8589   11.0080   -1.5422 H   0  0  0  0  0  0  0  0  0  0  0  0
    2.6549   11.0431   -1.5422 H   0  0  0  0  0  0  0  0  0  0  0  0
  1  2  1  0
  2  3  1  0
  3  4  1  0
  4  5  1  0
  5  6  1  0
  6  7  1  0
  7  8  1  0
  7  9  1  0
  2 10  1  0
 10 11  1  0
 11 12  1  0
 12 13  1  0
 13 14  1  6
 13 15  1  0
 15 16  1  0
 16 17  1  0
 17 18  2  0
 18 19  1  0
 19 20  1  0
 20 21  1  0
 21 22  1  0
 22 23  1  0
 22 24  1  0
 24 25  1  0
 24 26  1  0
 19 27  1  0
 27 28  1  1
 27 29  1  0
 29 30  1  0
 30 31  1  0
 31 32  1  1
  7  5  1  0
 31 10  1  0
 31 13  1  0
 27 15  1  0
 24 18  1  0
  1 33  1  0
  1 34  1  0
  1 35  1  0
  2 36  1  1
  3 37  1  0
  3 38  1  0
  4 39  1  0
  4 40  1  0
  5 41  1  1
  8 42  1  0
  8 43  1  0
  8 44  1  0
  9 45  1  0
  9 46  1  0
  9 47  1  0
 10 48  1  6
 11 49  1  0
 11 50  1  0
 12 51  1  0
 12 52  1  0
 14 53  1  0
 14 54  1  0
 14 55  1  0
 15 56  1  1
 16 57  1  0
 16 58  1  0
 17 59  1  0
 19 60  1  6
 20 61  1  0
 20 62  1  0
 21 63  1  0
 21 64  1  0
 22 65  1  6
 23 66  1  0
 25 67  1  0
 25 68  1  0
 25 69  1  0
 26 70  1  0
 26 71  1  0
 26 72  1  0
 28 73  1  0
 28 74  1  0
 28 75  1  0
 29 76  1  0
 29 77  1  0
 30 78  1  0
 30 79  1  0
 32 80  1  0
 32 81  1  0
 32 82  1  0
M  END
>  <meeko>  (17) 
{"is_sidechain": [false], "intermolecular_energy": 2.731, "internal_energy": -0.839}

$$$$
EPH_relaxed_0001_pdb2pqr_Repair_59_r2_0001_out
     RDKit          3D

 82 86  0  0  0  0  0  0  0  0999 V2000
    2.3160   17.8620   -4.0050 C   0  0  0  0  0  0  0  0  0  0  0  0
    2.1280   17.8780   -2.4860 C   0  0  2  0  0  0  0  0  0  0  0  0
    3.0220   18.9300   -1.8010 C   0  0  0  0  0  0  0  0  0  0  0  0
    2.4390   19.4780   -0.4950 C   0  0  0  0  0  0  0  0  0  0  0  0
    3.4510   19.4670    0.6110 C   0  0  2  0  0  0  0  0  0  0  0  0
    3.2940   18.4010    1.5560 O   0  0  0  0  0  0  0  0  0  0  0  0
    3.1040   19.7310    2.0640 C   0  0  0  0  0  0  0  0  0  0  0  0
    1.7000   20.0250    2.4900 C   0  0  0  0  0  0  0  0  0  0  0  0
    4.1910   20.1840    2.9880 C   0  0  0  0  0  0  0  0  0  0  0  0
    2.4180   16.4950   -1.9120 C   0  0  1  0  0  0  0  0  0  0  0  0
    3.3540   16.5460   -0.6750 C   0  0  0  0  0  0  0  0  0  0  0  0
    2.8950   15.4150    0.2800 C   0  0  0  0  0  0  0  0  0  0  0  0
    1.9390   14.5480   -0.5730 C   0  0  1  0  0  0  0  0  0  0  0  0
    2.8770   13.6280   -1.4150 C   0  0  0  0  0  0  0  0  0  0  0  0
    0.8710   13.7200    0.2130 C   0  0  2  0  0  0  0  0  0  0  0  0
    1.4420   12.6600    1.1710 C   0  0  0  0  0  0  0  0  0  0  0  0
    1.6460   11.3060    0.5770 C   0  0  0  0  0  0  0  0  0  0  0  0
    1.1210   10.8750   -0.5850 C   0  0  0  0  0  0  0  0  0  0  0  0
    0.1490   11.7520   -1.3840 C   0  0  1  0  0  0  0  0  0  0  0  0
   -1.0710   10.9020   -1.8280 C   0  0  0  0  0  0  0  0  0  0  0  0
   -0.6610    9.6440   -2.5870 C   0  0  0  0  0  0  0  0  0  0  0  0
    0.2580    8.7700   -1.7390 C   0  0  2  0  0  0  0  0  0  0  0  0
   -0.4850    8.2620   -0.6270 O   0  0  0  0  0  0  0  0  0  0  0  0
    1.5180    9.5220   -1.2260 C   0  0  0  0  0  0  0  0  0  0  0  0
    2.4730    9.8070   -2.4120 C   0  0  0  0  0  0  0  0  0  0  0  0
    2.2860    8.5710   -0.2700 C   0  0  0  0  0  0  0  0  0  0  0  0
   -0.2790   13.1190   -0.6940 C   0  0  1  0  0  0  0  0  0  0  0  0
   -1.5050   12.8830    0.2400 C   0  0  0  0  0  0  0  0  0  0  0  0
   -0.7540   14.1290   -1.8050 C   0  0  0  0  0  0  0  0  0  0  0  0
    0.3320   15.0040   -2.4590 C   0  0  0  0  0  0  0  0  0  0  0  0
    1.2110   15.6710   -1.3980 C   0  0  2  0  0  0  0  0  0  0  0  0
    0.2990   16.6210   -0.5490 C   0  0  0  0  0  0  0  0  0  0  0  0
    3.3865   17.7709   -4.2410 H   0  0  0  0  0  0  0  0  0  0  0  0
    1.7721   17.0069   -4.4328 H   0  0  0  0  0  0  0  0  0  0  0  0
    1.9245   18.7967   -4.4328 H   0  0  0  0  0  0  0  0  0  0  0  0
    1.0820   18.1528   -2.2851 H   0  0  0  0  0  0  0  0  0  0  0  0
    3.9951   18.4674   -1.5796 H   0  0  0  0  0  0  0  0  0  0  0  0
    3.1086   19.7789   -2.4952 H   0  0  0  0  0  0  0  0  0  0  0  0
    2.1031   20.5123   -0.6607 H   0  0  0  0  0  0  0  0  0  0  0  0
    1.5985   18.8338   -0.1975 H   0  0  0  0  0  0  0  0  0  0  0  0
    4.2172   19.8923   -0.0539 H   0  0  0  0  0  0  0  0  0  0  0  0
    1.6450   20.0365    3.5886 H   0  0  0  0  0  0  0  0  0  0  0  0
    1.3956   21.0064    2.0973 H   0  0  0  0  0  0  0  0  0  0  0  0
    1.0274   19.2482    2.0973 H   0  0  0  0  0  0  0  0  0  0  0  0
    3.8663   20.0487    4.0303 H   0  0  0  0  0  0  0  0  0  0  0  0
    5.0982   19.5891    2.8064 H   0  0  0  0  0  0  0  0  0  0  0  0
    4.4072   21.2471    2.8064 H   0  0  0  0  0  0  0  0  0  0  0  0
    2.8507   16.0132   -2.8012 H   0  0  0  0  0  0  0  0  0  0  0  0
    4.3974   16.3820   -0.9825 H   0  0  0  0  0  0  0  0  0  0  0  0
    3.3010   17.5268   -0.1798 H   0  0  0  0  0  0  0  0  0  0  0  0
    3.7561   14.8220    0.6218 H   0  0  0  0  0  0  0  0  0  0  0  0
    2.4078   15.8057    1.1855 H   0  0  0  0  0  0  0  0  0  0  0  0
    3.4969   13.0200   -0.7397 H   0  0  0  0  0  0  0  0  0  0  0  0
    2.2687   12.9665   -2.0494 H   0  0  0  0  0  0  0  0  0  0  0  0
    3.5266   14.2490   -2.0494 H   0  0  0  0  0  0  0  0  0  0  0  0
    0.4066   14.4833    0.8547 H   0  0  0  0  0  0  0  0  0  0  0  0
    2.4149   13.0209    1.5360 H   0  0  0  0  0  0  0  0  0  0  0  0
    0.6921   12.5333    1.9657 H   0  0  0  0  0  0  0  0  0  0  0  0
    2.2787   10.6009    1.1360 H   0  0  0  0  0  0  0  0  0  0  0  0
    0.7063   12.0954   -2.2680 H   0  0  0  0  0  0  0  0  0  0  0  0
   -1.6385   10.6052   -0.9336 H   0  0  0  0  0  0  0  0  0  0  0  0
   -1.6789   11.5186   -2.5064 H   0  0  0  0  0  0  0  0  0  0  0  0
   -1.5630    9.0709   -2.8476 H   0  0  0  0  0  0  0  0  0  0  0  0
   -0.1193    9.9437   -3.4963 H   0  0  0  0  0  0  0  0  0  0  0  0
    0.6202    7.9534   -2.3809 H   0  0  0  0  0  0  0  0  0  0  0  0
   -1.1490    8.9310   -0.3870 H   0  0  0  0  0  0  0  0  0  0  0  0
    3.4599   10.1015   -2.0255 H   0  0  0  0  0  0  0  0  0  0  0  0
    2.5755    8.9003   -3.0263 H   0  0  0  0  0  0  0  0  0  0  0  0
    2.0618   10.6216   -3.0263 H   0  0  0  0  0  0  0  0  0  0  0  0
    2.0661    8.8434    0.7728 H   0  0  0  0  0  0  0  0  0  0  0  0
    1.9694    7.5335   -0.4526 H   0  0  0  0  0  0  0  0  0  0  0  0
    3.3669    8.6621   -0.4526 H   0  0  0  0  0  0  0  0  0  0  0  0
   -1.1833   12.9449    1.2901 H   0  0  0  0  0  0  0  0  0  0  0  0
   -2.2681   13.6507    0.0444 H   0  0  0  0  0  0  0  0  0  0  0  0
   -1.9286   11.8868    0.0444 H   0  0  0  0  0  0  0  0  0  0  0  0
   -1.2349   13.5440   -2.6028 H   0  0  0  0  0  0  0  0  0  0  0  0
   -1.4187   14.8354   -1.2863 H   0  0  0  0  0  0  0  0  0  0  0  0
    0.9620   14.3736   -3.1037 H   0  0  0  0  0  0  0  0  0  0  0  0
   -0.1602   15.7897   -3.0510 H   0  0  0  0  0  0  0  0  0  0  0  0
    0.4747   16.4379    0.5213 H   0  0  0  0  0  0  0  0  0  0  0  0
    0.5389   17.6680   -0.7861 H   0  0  0  0  0  0  0  0  0  0  0  0
   -0.7569   16.4240   -0.7861 H   0  0  0  0  0  0  0  0  0  0  0  0
  1  2  1  0
  2  3  1  0
  3  4  1  0
  4  5  1  0
  5  6  1  0
  6  7  1  0
  7  8  1  0
  7  9  1  0
  2 10  1  0
 10 11  1  0
 11 12  1  0
 12 13  1  0
 13 14  1  6
 13 15  1  0
 15 16  1  0
 16 17  1  0
 17 18  2  0
 18 19  1  0
 19 20  1  0
 20 21  1  0
 21 22  1  0
 22 23  1  0
 22 24  1  0
 24 25  1  0
 24 26  1  0
 19 27  1  0
 27 28  1  1
 27 29  1  0
 29 30  1  0
 30 31  1  0
 31 32  1  1
  7  5  1  0
 31 10  1  0
 31 13  1  0
 27 15  1  0
 24 18  1  0
  1 33  1  0
  1 34  1  0
  1 35  1  0
  2 36  1  6
  3 37  1  0
  3 38  1  0
  4 39  1  0
  4 40  1  0
  5 41  1  6
  8 42  1  0
  8 43  1  0
  8 44  1  0
  9 45  1  0
  9 46  1  0
  9 47  1  0
 10 48  1  6
 11 49  1  0
 11 50  1  0
 12 51  1  0
 12 52  1  0
 14 53  1  0
 14 54  1  0
 14 55  1  0
 15 56  1  1
 16 57  1  0
 16 58  1  0
 17 59  1  0
 19 60  1  6
 20 61  1  0
 20 62  1  0
 21 63  1  0
 21 64  1  0
 22 65  1  6
 23 66  1  0
 25 67  1  0
 25 68  1  0
 25 69  1  0
 26 70  1  0
 26 71  1  0
 26 72  1  0
 28 73  1  0
 28 74  1  0
 28 75  1  0
 29 76  1  0
 29 77  1  0
 30 78  1  0
 30 79  1  0
 32 80  1  0
 32 81  1  0
 32 82  1  0
M  END
>  <meeko>  (18) 
{"is_sidechain": [false], "intermolecular_energy": 2.731, "internal_energy": -0.839}

$$$$
EPH_relaxed_0001_pdb2pqr_Repair_59_r2_0001_out
     RDKit          3D

 82 86  0  0  0  0  0  0  0  0999 V2000
    0.8760   14.8930   -2.6750 C   0  0  0  0  0  0  0  0  0  0  0  0
    1.1670   14.2000   -4.0090 C   0  0  2  0  0  0  0  0  0  0  0  0
    0.4890   14.9150   -5.1950 C   0  0  0  0  0  0  0  0  0  0  0  0
    1.1660   14.6490   -6.5430 C   0  0  0  0  0  0  0  0  0  0  0  0
    0.9200   15.7620   -7.5160 C   0  0  2  0  0  0  0  0  0  0  0  0
    0.4120   15.3420   -8.7890 O   0  0  0  0  0  0  0  0  0  0  0  0
    1.7150   15.9460   -8.7950 C   0  0  0  0  0  0  0  0  0  0  0  0
    2.8190   15.0070   -9.1690 C   0  0  0  0  0  0  0  0  0  0  0  0
    1.7490   17.3020   -9.4280 C   0  0  0  0  0  0  0  0  0  0  0  0
    0.7130   12.7470   -3.9490 C   0  0  1  0  0  0  0  0  0  0  0  0
    1.8400   11.7520   -4.3350 C   0  0  0  0  0  0  0  0  0  0  0  0
    1.6430   10.4890   -3.4570 C   0  0  0  0  0  0  0  0  0  0  0  0
    0.2330   10.6580   -2.8440 C   0  0  1  0  0  0  0  0  0  0  0  0
   -0.7500   10.1890   -3.9620 C   0  0  0  0  0  0  0  0  0  0  0  0
   -0.0270    9.9100   -1.4950 C   0  0  2  0  0  0  0  0  0  0  0  0
    0.0730    8.3770   -1.5700 C   0  0  0  0  0  0  0  0  0  0  0  0
   -1.2030    7.6690   -1.8840 C   0  0  0  0  0  0  0  0  0  0  0  0
   -2.4340    8.2090   -1.8190 C   0  0  0  0  0  0  0  0  0  0  0  0
   -2.6400    9.6380   -1.3000 C   0  0  1  0  0  0  0  0  0  0  0  0
   -3.8150    9.6560   -0.2870 C   0  0  0  0  0  0  0  0  0  0  0  0
   -5.0930    9.0540   -0.8620 C   0  0  0  0  0  0  0  0  0  0  0  0
   -4.8620    7.6140   -1.3130 C   0  0  2  0  0  0  0  0  0  0  0  0
   -4.6000    6.8070   -0.1610 O   0  0  0  0  0  0  0  0  0  0  0  0
   -3.6950    7.4690   -2.3290 C   0  0  0  0  0  0  0  0  0  0  0  0
   -4.1070    8.0900   -3.6870 C   0  0  0  0  0  0  0  0  0  0  0  0
   -3.4770    5.9550   -2.5930 C   0  0  0  0  0  0  0  0  0  0  0  0
   -1.3430   10.3680   -0.7440 C   0  0  1  0  0  0  0  0  0  0  0  0
   -1.1400   10.0180    0.7620 C   0  0  0  0  0  0  0  0  0  0  0  0
   -1.5600   11.9260   -0.8130 C   0  0  0  0  0  0  0  0  0  0  0  0
   -1.1720   12.6240   -2.1310 C   0  0  0  0  0  0  0  0  0  0  0  0
    0.2320   12.2070   -2.5790 C   0  0  2  0  0  0  0  0  0  0  0  0
    1.2450   12.6860   -1.4840 C   0  0  0  0  0  0  0  0  0  0  0  0
    1.1561   14.2259   -1.8465 H   0  0  0  0  0  0  0  0  0  0  0  0
    1.4595   15.8232   -2.6101 H   0  0  0  0  0  0  0  0  0  0  0  0
   -0.1967   15.1278   -2.6101 H   0  0  0  0  0  0  0  0  0  0  0  0
    2.2536   14.2439   -4.1746 H   0  0  0  0  0  0  0  0  0  0  0  0
   -0.5544   14.5721   -5.2567 H   0  0  0  0  0  0  0  0  0  0  0  0
    0.5651   15.9958   -5.0048 H   0  0  0  0  0  0  0  0  0  0  0  0
    2.2497   14.5477   -6.3838 H   0  0  0  0  0  0  0  0  0  0  0  0
    0.7413   13.7256   -6.9637 H   0  0  0  0  0  0  0  0  0  0  0  0
    0.6677   16.4531   -6.6983 H   0  0  0  0  0  0  0  0  0  0  0  0
    3.2868   14.6091   -8.2564 H   0  0  0  0  0  0  0  0  0  0  0  0
    2.4089   14.1768   -9.7627 H   0  0  0  0  0  0  0  0  0  0  0  0
    3.5726   15.5451   -9.7627 H   0  0  0  0  0  0  0  0  0  0  0  0
    1.7683   18.0726   -8.6433 H   0  0  0  0  0  0  0  0  0  0  0  0
    2.6497   17.3924  -10.0530 H   0  0  0  0  0  0  0  0  0  0  0  0
    0.8540   17.4375  -10.0530 H   0  0  0  0  0  0  0  0  0  0  0  0
   -0.1305   12.7894   -4.6538 H   0  0  0  0  0  0  0  0  0  0  0  0
    1.7638   11.4883   -5.4002 H   0  0  0  0  0  0  0  0  0  0  0  0
    2.8325   12.1965   -4.1698 H   0  0  0  0  0  0  0  0  0  0  0  0
    1.6933    9.5774   -4.0706 H   0  0  0  0  0  0  0  0  0  0  0  0
    2.4234   10.3886   -2.6883 H   0  0  0  0  0  0  0  0  0  0  0  0
   -1.6514    9.7589   -3.5009 H   0  0  0  0  0  0  0  0  0  0  0  0
   -1.0324   11.0494   -4.5865 H   0  0  0  0  0  0  0  0  0  0  0  0
   -0.2589    9.4282   -4.5865 H   0  0  0  0  0  0  0  0  0  0  0  0
    0.8229   10.2345   -0.8766 H   0  0  0  0  0  0  0  0  0  0  0  0
    0.8042    8.1220   -2.3512 H   0  0  0  0  0  0  0  0  0  0  0  0
    0.3672    8.0419   -0.5645 H   0  0  0  0  0  0  0  0  0  0  0  0
   -1.1310    6.6163   -2.1950 H   0  0  0  0  0  0  0  0  0  0  0  0
   -2.8958   10.2472   -2.1795 H   0  0  0  0  0  0  0  0  0  0  0  0
   -3.5225    9.0786    0.6024 H   0  0  0  0  0  0  0  0  0  0  0  0
   -4.0241   10.7067   -0.0373 H   0  0  0  0  0  0  0  0  0  0  0  0
   -5.8768    9.0684   -0.0903 H   0  0  0  0  0  0  0  0  0  0  0  0
   -5.4010    9.6501   -1.7336 H   0  0  0  0  0  0  0  0  0  0  0  0
   -5.7726    7.2813   -1.8328 H   0  0  0  0  0  0  0  0  0  0  0  0
   -5.1070    7.1790    0.5810 H   0  0  0  0  0  0  0  0  0  0  0  0
   -4.7072    8.9946   -3.5095 H   0  0  0  0  0  0  0  0  0  0  0  0
   -3.2048    8.3547   -4.2579 H   0  0  0  0  0  0  0  0  0  0  0  0
   -4.7016    7.3617   -4.2579 H   0  0  0  0  0  0  0  0  0  0  0  0
   -3.4004    5.4228   -1.6334 H   0  0  0  0  0  0  0  0  0  0  0  0
   -4.3270    5.5567   -3.1664 H   0  0  0  0  0  0  0  0  0  0  0  0
   -2.5491    5.8127   -3.1664 H   0  0  0  0  0  0  0  0  0  0  0  0
   -1.5948   10.8021    1.3852 H   0  0  0  0  0  0  0  0  0  0  0  0
   -1.6179    9.0519    0.9816 H   0  0  0  0  0  0  0  0  0  0  0  0
   -0.0641    9.9531    0.9816 H   0  0  0  0  0  0  0  0  0  0  0  0
   -2.6277   12.1215   -0.6347 H   0  0  0  0  0  0  0  0  0  0  0  0
   -0.8818   12.3449   -0.0550 H   0  0  0  0  0  0  0  0  0  0  0  0
   -1.8959   12.3471   -2.9116 H   0  0  0  0  0  0  0  0  0  0  0  0
   -1.1796   13.7118   -1.9675 H   0  0  0  0  0  0  0  0  0  0  0  0
    0.8268   12.4883   -0.4860 H   0  0  0  0  0  0  0  0  0  0  0  0
    2.1936   12.1411   -1.5986 H   0  0  0  0  0  0  0  0  0  0  0  0
    1.4258   13.7650   -1.5986 H   0  0  0  0  0  0  0  0  0  0  0  0
  1  2  1  0
  2  3  1  0
  3  4  1  0
  4  5  1  0
  5  6  1  0
  6  7  1  0
  7  8  1  0
  7  9  1  0
  2 10  1  0
 10 11  1  0
 11 12  1  0
 12 13  1  0
 13 14  1  6
 13 15  1  0
 15 16  1  0
 16 17  1  0
 17 18  2  0
 18 19  1  0
 19 20  1  0
 20 21  1  0
 21 22  1  0
 22 23  1  0
 22 24  1  0
 24 25  1  0
 24 26  1  0
 19 27  1  0
 27 28  1  1
 27 29  1  0
 29 30  1  0
 30 31  1  0
 31 32  1  1
  7  5  1  0
 31 10  1  0
 31 13  1  0
 27 15  1  0
 24 18  1  0
  1 33  1  0
  1 34  1  0
  1 35  1  0
  2 36  1  6
  3 37  1  0
  3 38  1  0
  4 39  1  0
  4 40  1  0
  5 41  1  1
  8 42  1  0
  8 43  1  0
  8 44  1  0
  9 45  1  0
  9 46  1  0
  9 47  1  0
 10 48  1  6
 11 49  1  0
 11 50  1  0
 12 51  1  0
 12 52  1  0
 14 53  1  0
 14 54  1  0
 14 55  1  0
 15 56  1  1
 16 57  1  0
 16 58  1  0
 17 59  1  0
 19 60  1  6
 20 61  1  0
 20 62  1  0
 21 63  1  0
 21 64  1  0
 22 65  1  6
 23 66  1  0
 25 67  1  0
 25 68  1  0
 25 69  1  0
 26 70  1  0
 26 71  1  0
 26 72  1  0
 28 73  1  0
 28 74  1  0
 28 75  1  0
 29 76  1  0
 29 77  1  0
 30 78  1  0
 30 79  1  0
 32 80  1  0
 32 81  1  0
 32 82  1  0
M  END
>  <meeko>  (19) 
{"is_sidechain": [false], "intermolecular_energy": 2.731, "internal_energy": -0.839}

$$$$
