EPH_relaxed_0001_pdb2pqr_Repair_136_r2_0001_out
     RDKit          3D

 82 86  0  0  0  0  0  0  0  0999 V2000
   -1.3260    8.7090   -1.8640 C   0  0  0  0  0  0  0  0  0  0  0  0
   -1.7450    9.2180   -0.4820 C   0  0  2  0  0  0  0  0  0  0  0  0
   -3.2540    9.5260   -0.4100 C   0  0  0  0  0  0  0  0  0  0  0  0
   -4.1340    8.2750   -0.3310 C   0  0  0  0  0  0  0  0  0  0  0  0
   -4.8470    8.0170   -1.6230 C   0  0  2  0  0  0  0  0  0  0  0  0
   -6.1720    8.5600   -1.6950 O   0  0  0  0  0  0  0  0  0  0  0  0
   -6.0710    7.1270   -1.7410 C   0  0  0  0  0  0  0  0  0  0  0  0
   -6.6520    6.4380   -0.5460 C   0  0  0  0  0  0  0  0  0  0  0  0
   -6.4040    6.5420   -3.0770 C   0  0  0  0  0  0  0  0  0  0  0  0
   -0.9420   10.4610   -0.1200 C   0  0  1  0  0  0  0  0  0  0  0  0
    0.1560   10.1760    0.9400 C   0  0  0  0  0  0  0  0  0  0  0  0
    1.3600   11.0900    0.5930 C   0  0  0  0  0  0  0  0  0  0  0  0
    0.8010   12.0980   -0.4370 C   0  0  1  0  0  0  0  0  0  0  0  0
    0.0650   13.1780    0.4160 C   0  0  0  0  0  0  0  0  0  0  0  0
    1.8420   12.7420   -1.4100 C   0  0  2  0  0  0  0  0  0  0  0  0
    2.9280   13.5960   -0.7310 C   0  0  0  0  0  0  0  0  0  0  0  0
    2.5960   15.0430   -0.5770 C   0  0  0  0  0  0  0  0  0  0  0  0
    1.6040   15.6910   -1.2160 C   0  0  0  0  0  0  0  0  0  0  0  0
    0.7530   14.9790   -2.2750 C   0  0  1  0  0  0  0  0  0  0  0  0
    0.6170   15.8860   -3.5260 C   0  0  0  0  0  0  0  0  0  0  0  0
    0.0840   17.2750   -3.1860 C   0  0  0  0  0  0  0  0  0  0  0  0
    0.9890   17.9740   -2.1740 C   0  0  2  0  0  0  0  0  0  0  0  0
    2.2510   18.2410   -2.7930 O   0  0  0  0  0  0  0  0  0  0  0  0
    1.2080   17.1480   -0.8760 C   0  0  0  0  0  0  0  0  0  0  0  0
   -0.1040   17.1150   -0.0530 C   0  0  0  0  0  0  0  0  0  0  0  0
    2.2490   17.8990   -0.0030 C   0  0  0  0  0  0  0  0  0  0  0  0
    1.1980   13.4980   -2.6420 C   0  0  1  0  0  0  0  0  0  0  0  0
    2.2830   13.5300   -3.7610 C   0  0  0  0  0  0  0  0  0  0  0  0
   -0.0350   12.7230   -3.2410 C   0  0  0  0  0  0  0  0  0  0  0  0
   -0.9600   12.0080   -2.2370 C   0  0  0  0  0  0  0  0  0  0  0  0
   -0.1500   11.1530   -1.2580 C   0  0  2  0  0  0  0  0  0  0  0  0
    0.5830   10.0430   -2.0860 C   0  0  0  0  0  0  0  0  0  0  0  0
   -0.6308    7.8644   -1.7484 H   0  0  0  0  0  0  0  0  0  0  0  0
   -2.2165    8.3776   -2.4182 H   0  0  0  0  0  0  0  0  0  0  0  0
   -0.8297    9.5193   -2.4182 H   0  0  0  0  0  0  0  0  0  0  0  0
   -1.5364    8.4172    0.2426 H   0  0  0  0  0  0  0  0  0  0  0  0
   -3.4411   10.1393    0.4838 H   0  0  0  0  0  0  0  0  0  0  0  0
   -3.5205   10.0485   -1.3406 H   0  0  0  0  0  0  0  0  0  0  0  0
   -3.5003    7.4077   -0.0941 H   0  0  0  0  0  0  0  0  0  0  0  0
   -4.8899    8.4362    0.4517 H   0  0  0  0  0  0  0  0  0  0  0  0
   -3.8980    8.0438   -2.1786 H   0  0  0  0  0  0  0  0  0  0  0  0
   -6.2606    6.9022    0.3712 H   0  0  0  0  0  0  0  0  0  0  0  0
   -7.7478    6.5317   -0.5655 H   0  0  0  0  0  0  0  0  0  0  0  0
   -6.3746    5.3737   -0.5655 H   0  0  0  0  0  0  0  0  0  0  0  0
   -6.9438    5.5937   -2.9378 H   0  0  0  0  0  0  0  0  0  0  0  0
   -7.0371    7.2454   -3.6378 H   0  0  0  0  0  0  0  0  0  0  0  0
   -5.4760    6.3568   -3.6378 H   0  0  0  0  0  0  0  0  0  0  0  0
   -1.7585   11.1141    0.2217 H   0  0  0  0  0  0  0  0  0  0  0  0
   -0.2196   10.4102    1.9470 H   0  0  0  0  0  0  0  0  0  0  0  0
    0.4490    9.1158    0.9303 H   0  0  0  0  0  0  0  0  0  0  0  0
    1.7220   11.6127    1.4906 H   0  0  0  0  0  0  0  0  0  0  0  0
    2.2149   10.5214    0.1983 H   0  0  0  0  0  0  0  0  0  0  0  0
    0.2113   12.9633    1.4849 H   0  0  0  0  0  0  0  0  0  0  0  0
    0.4747   14.1717    0.1822 H   0  0  0  0  0  0  0  0  0  0  0  0
   -1.0097   13.1602    0.1822 H   0  0  0  0  0  0  0  0  0  0  0  0
    2.3630   11.8615   -1.8140 H   0  0  0  0  0  0  0  0  0  0  0  0
    3.1104   13.1804    0.2710 H   0  0  0  0  0  0  0  0  0  0  0  0
    3.8065   13.5535   -1.3916 H   0  0  0  0  0  0  0  0  0  0  0  0
    3.2146   15.6300    0.1178 H   0  0  0  0  0  0  0  0  0  0  0  0
   -0.2347   14.8242   -1.8163 H   0  0  0  0  0  0  0  0  0  0  0  0
    1.6070   15.9928   -3.9935 H   0  0  0  0  0  0  0  0  0  0  0  0
   -0.1030   15.4094   -4.2075 H   0  0  0  0  0  0  0  0  0  0  0  0
    0.0383   17.8780   -4.1049 H   0  0  0  0  0  0  0  0  0  0  0  0
   -0.9184   17.1684   -2.7458 H   0  0  0  0  0  0  0  0  0  0  0  0
    0.4893   18.9062   -1.8719 H   0  0  0  0  0  0  0  0  0  0  0  0
    2.3770   17.5860   -3.5000 H   0  0  0  0  0  0  0  0  0  0  0  0
    0.1363   17.1210    1.0204 H   0  0  0  0  0  0  0  0  0  0  0  0
   -0.7125   17.9981   -0.2975 H   0  0  0  0  0  0  0  0  0  0  0  0
   -0.6674   16.2024   -0.2975 H   0  0  0  0  0  0  0  0  0  0  0  0
    2.0219   17.7352    1.0608 H   0  0  0  0  0  0  0  0  0  0  0  0
    3.2569   17.5186   -0.2256 H   0  0  0  0  0  0  0  0  0  0  0  0
    2.2059   18.9754   -0.2256 H   0  0  0  0  0  0  0  0  0  0  0  0
    3.2823   13.5595   -3.3021 H   0  0  0  0  0  0  0  0  0  0  0  0
    2.1926   12.6288   -4.3852 H   0  0  0  0  0  0  0  0  0  0  0  0
    2.1397   14.4243   -4.3852 H   0  0  0  0  0  0  0  0  0  0  0  0
   -0.6458   13.4488   -3.7978 H   0  0  0  0  0  0  0  0  0  0  0  0
    0.3998   11.9201   -3.8544 H   0  0  0  0  0  0  0  0  0  0  0  0
   -1.5283   12.7614   -1.6718 H   0  0  0  0  0  0  0  0  0  0  0  0
   -1.6422   11.3503   -2.7956 H   0  0  0  0  0  0  0  0  0  0  0  0
    1.0565    9.3259   -1.3993 H   0  0  0  0  0  0  0  0  0  0  0  0
   -0.1459    9.5170   -2.7200 H   0  0  0  0  0  0  0  0  0  0  0  0
    1.3530   10.5068   -2.7200 H   0  0  0  0  0  0  0  0  0  0  0  0
  1  2  1  0
  2  3  1  0
  3  4  1  0
  4  5  1  0
  5  6  1  0
  6  7  1  0
  7  8  1  0
  7  9  1  0
  2 10  1  0
 10 11  1  0
 11 12  1  0
 12 13  1  0
 13 14  1  1
 13 15  1  0
 15 16  1  0
 16 17  1  0
 17 18  2  0
 18 19  1  0
 19 20  1  0
 20 21  1  0
 21 22  1  0
 22 23  1  0
 22 24  1  0
 24 25  1  0
 24 26  1  0
 19 27  1  0
 27 28  1  6
 27 29  1  0
 29 30  1  0
 30 31  1  0
 31 32  1  6
  7  5  1  0
 31 10  1  0
 31 13  1  0
 27 15  1  0
 24 18  1  0
  1 33  1  0
  1 34  1  0
  1 35  1  0
  2 36  1  1
  3 37  1  0
  3 38  1  0
  4 39  1  0
  4 40  1  0
  5 41  1  6
  8 42  1  0
  8 43  1  0
  8 44  1  0
  9 45  1  0
  9 46  1  0
  9 47  1  0
 10 48  1  1
 11 49  1  0
 11 50  1  0
 12 51  1  0
 12 52  1  0
 14 53  1  0
 14 54  1  0
 14 55  1  0
 15 56  1  6
 16 57  1  0
 16 58  1  0
 17 59  1  0
 19 60  1  1
 20 61  1  0
 20 62  1  0
 21 63  1  0
 21 64  1  0
 22 65  1  1
 23 66  1  0
 25 67  1  0
 25 68  1  0
 25 69  1  0
 26 70  1  0
 26 71  1  0
 26 72  1  0
 28 73  1  0
 28 74  1  0
 28 75  1  0
 29 76  1  0
 29 77  1  0
 30 78  1  0
 30 79  1  0
 32 80  1  0
 32 81  1  0
 32 82  1  0
M  END
>  <meeko>  (1) 
{"is_sidechain": [false], "intermolecular_energy": 2.731, "internal_energy": -0.839}

$$$$
EPH_relaxed_0001_pdb2pqr_Repair_136_r2_0001_out
     RDKit          3D

 82 86  0  0  0  0  0  0  0  0999 V2000
    2.3380   19.7630   -0.8180 C   0  0  0  0  0  0  0  0  0  0  0  0
    2.2070   18.8100    0.3740 C   0  0  2  0  0  0  0  0  0  0  0  0
    3.5800   18.3240    0.8810 C   0  0  0  0  0  0  0  0  0  0  0  0
    3.8690   18.7060    2.3350 C   0  0  0  0  0  0  0  0  0  0  0  0
    5.3220   19.0030    2.5520 C   0  0  2  0  0  0  0  0  0  0  0  0
    6.0260   18.0190    3.3220 O   0  0  0  0  0  0  0  0  0  0  0  0
    5.9160   19.3260    3.9100 C   0  0  0  0  0  0  0  0  0  0  0  0
    5.0680   19.3690    5.1430 C   0  0  0  0  0  0  0  0  0  0  0  0
    7.2120   20.0730    3.9650 C   0  0  0  0  0  0  0  0  0  0  0  0
    1.3400   17.6170   -0.0080 C   0  0  1  0  0  0  0  0  0  0  0  0
    0.1330   18.0160   -0.8980 C   0  0  0  0  0  0  0  0  0  0  0  0
   -0.1010   16.8450   -1.8870 C   0  0  0  0  0  0  0  0  0  0  0  0
    0.7520   15.6840   -1.3250 C   0  0  1  0  0  0  0  0  0  0  0  0
   -0.1170   15.0620   -0.1870 C   0  0  0  0  0  0  0  0  0  0  0  0
    1.2120   14.6020   -2.3560 C   0  0  2  0  0  0  0  0  0  0  0  0
    0.0740   13.8210   -3.0340 C   0  0  0  0  0  0  0  0  0  0  0  0
   -0.3470   12.5710   -2.3350 C   0  0  0  0  0  0  0  0  0  0  0  0
    0.3500   11.9420   -1.3700 C   0  0  0  0  0  0  0  0  0  0  0  0
    1.7440   12.4340   -0.9580 C   0  0  1  0  0  0  0  0  0  0  0  0
    2.7130   11.2260   -0.8670 C   0  0  0  0  0  0  0  0  0  0  0  0
    2.1890   10.1230    0.0480 C   0  0  0  0  0  0  0  0  0  0  0  0
    0.8280    9.6200   -0.4280 C   0  0  2  0  0  0  0  0  0  0  0  0
    0.9950    8.9600   -1.6870 O   0  0  0  0  0  0  0  0  0  0  0  0
   -0.2290   10.7510   -0.5670 C   0  0  0  0  0  0  0  0  0  0  0  0
   -0.6320   11.2620    0.8380 C   0  0  0  0  0  0  0  0  0  0  0  0
   -1.5100   10.1330   -1.1890 C   0  0  0  0  0  0  0  0  0  0  0  0
    2.3390   13.6310   -1.8170 C   0  0  1  0  0  0  0  0  0  0  0  0
    3.0790   13.0690   -3.0700 C   0  0  0  0  0  0  0  0  0  0  0  0
    3.4230   14.3870   -0.9620 C   0  0  0  0  0  0  0  0  0  0  0  0
    2.9210   15.5250   -0.0530 C   0  0  0  0  0  0  0  0  0  0  0  0
    2.0100   16.4830   -0.8250 C   0  0  2  0  0  0  0  0  0  0  0  0
    2.8630   17.1410   -1.9630 C   0  0  0  0  0  0  0  0  0  0  0  0
    2.4793   20.7907   -0.4520 H   0  0  0  0  0  0  0  0  0  0  0  0
    3.2042   19.4690   -1.4290 H   0  0  0  0  0  0  0  0  0  0  0  0
    1.4246   19.7137   -1.4290 H   0  0  0  0  0  0  0  0  0  0  0  0
    1.7307   19.3675    1.1940 H   0  0  0  0  0  0  0  0  0  0  0  0
    3.6133   17.2277    0.7967 H   0  0  0  0  0  0  0  0  0  0  0  0
    4.3442   18.8158    0.2612 H   0  0  0  0  0  0  0  0  0  0  0  0
    3.2803   19.5988    2.5928 H   0  0  0  0  0  0  0  0  0  0  0  0
    3.5940   17.8542    2.9744 H   0  0  0  0  0  0  0  0  0  0  0  0
    5.3878   19.5107    1.5784 H   0  0  0  0  0  0  0  0  0  0  0  0
    5.7134   19.3363    6.0332 H   0  0  0  0  0  0  0  0  0  0  0  0
    4.4793   20.2982    5.1509 H   0  0  0  0  0  0  0  0  0  0  0  0
    4.3883   18.5042    5.1509 H   0  0  0  0  0  0  0  0  0  0  0  0
    7.4964   20.2369    5.0149 H   0  0  0  0  0  0  0  0  0  0  0  0
    7.9945   19.4874    3.4603 H   0  0  0  0  0  0  0  0  0  0  0  0
    7.0975   21.0436    3.4603 H   0  0  0  0  0  0  0  0  0  0  0  0
    1.0759   17.2526    0.9957 H   0  0  0  0  0  0  0  0  0  0  0  0
   -0.7611   18.1709   -0.2762 H   0  0  0  0  0  0  0  0  0  0  0  0
    0.3331   18.9538   -1.4370 H   0  0  0  0  0  0  0  0  0  0  0  0
   -1.1649   16.5671   -1.9151 H   0  0  0  0  0  0  0  0  0  0  0  0
    0.1787   17.1073   -2.9180 H   0  0  0  0  0  0  0  0  0  0  0  0
    0.2937   15.3559    0.7902 H   0  0  0  0  0  0  0  0  0  0  0  0
   -1.1512   15.4262   -0.2747 H   0  0  0  0  0  0  0  0  0  0  0  0
   -0.1057   13.9656   -0.2747 H   0  0  0  0  0  0  0  0  0  0  0  0
    1.6689   15.2117   -3.1494 H   0  0  0  0  0  0  0  0  0  0  0  0
   -0.8009   14.4844   -3.1003 H   0  0  0  0  0  0  0  0  0  0  0  0
    0.4632   13.5054   -4.0133 H   0  0  0  0  0  0  0  0  0  0  0  0
   -1.3078   12.1263   -2.6335 H   0  0  0  0  0  0  0  0  0  0  0  0
    1.6239   12.8918    0.0350 H   0  0  0  0  0  0  0  0  0  0  0  0
    2.8538   10.8102   -1.8756 H   0  0  0  0  0  0  0  0  0  0  0  0
    3.6607   11.5894   -0.4429 H   0  0  0  0  0  0  0  0  0  0  0  0
    2.9025    9.2858    0.0478 H   0  0  0  0  0  0  0  0  0  0  0  0
    2.0768   10.5323    1.0628 H   0  0  0  0  0  0  0  0  0  0  0  0
    0.4467    8.9270    0.3364 H   0  0  0  0  0  0  0  0  0  0  0  0
    1.8920    8.5860   -1.7060 H   0  0  0  0  0  0  0  0  0  0  0  0
   -0.1447   10.6441    1.6066 H   0  0  0  0  0  0  0  0  0  0  0  0
   -0.3136   12.3086    0.9528 H   0  0  0  0  0  0  0  0  0  0  0  0
   -1.7240   11.1963    0.9528 H   0  0  0  0  0  0  0  0  0  0  0  0
   -2.1868    9.8065   -0.3857 H   0  0  0  0  0  0  0  0  0  0  0  0
   -2.0157   10.8862   -1.8110 H   0  0  0  0  0  0  0  0  0  0  0  0
   -1.2352    9.2684   -1.8110 H   0  0  0  0  0  0  0  0  0  0  0  0
    3.9163   12.4331   -2.7468 H   0  0  0  0  0  0  0  0  0  0  0  0
    2.3780   12.4736   -3.6734 H   0  0  0  0  0  0  0  0  0  0  0  0
    3.4644   13.9041   -3.6734 H   0  0  0  0  0  0  0  0  0  0  0  0
    3.9192   13.6434   -0.3210 H   0  0  0  0  0  0  0  0  0  0  0  0
    4.0806   14.8744   -1.6968 H   0  0  0  0  0  0  0  0  0  0  0  0
    2.3583   15.0924    0.7874 H   0  0  0  0  0  0  0  0  0  0  0  0
    3.7908   16.0889    0.3150 H   0  0  0  0  0  0  0  0  0  0  0  0
    3.6589   17.7550   -1.5163 H   0  0  0  0  0  0  0  0  0  0  0  0
    3.3130   16.3538   -2.5858 H   0  0  0  0  0  0  0  0  0  0  0  0
    2.2158   17.7761   -2.5858 H   0  0  0  0  0  0  0  0  0  0  0  0
  1  2  1  0
  2  3  1  0
  3  4  1  0
  4  5  1  0
  5  6  1  0
  6  7  1  0
  7  8  1  0
  7  9  1  0
  2 10  1  0
 10 11  1  0
 11 12  1  0
 12 13  1  0
 13 14  1  1
 13 15  1  0
 15 16  1  0
 16 17  1  0
 17 18  2  0
 18 19  1  0
 19 20  1  0
 20 21  1  0
 21 22  1  0
 22 23  1  0
 22 24  1  0
 24 25  1  0
 24 26  1  0
 19 27  1  0
 27 28  1  6
 27 29  1  0
 29 30  1  0
 30 31  1  0
 31 32  1  6
  7  5  1  0
 31 10  1  0
 31 13  1  0
 27 15  1  0
 24 18  1  0
  1 33  1  0
  1 34  1  0
  1 35  1  0
  2 36  1  1
  3 37  1  0
  3 38  1  0
  4 39  1  0
  4 40  1  0
  5 41  1  6
  8 42  1  0
  8 43  1  0
  8 44  1  0
  9 45  1  0
  9 46  1  0
  9 47  1  0
 10 48  1  1
 11 49  1  0
 11 50  1  0
 12 51  1  0
 12 52  1  0
 14 53  1  0
 14 54  1  0
 14 55  1  0
 15 56  1  6
 16 57  1  0
 16 58  1  0
 17 59  1  0
 19 60  1  1
 20 61  1  0
 20 62  1  0
 21 63  1  0
 21 64  1  0
 22 65  1  1
 23 66  1  0
 25 67  1  0
 25 68  1  0
 25 69  1  0
 26 70  1  0
 26 71  1  0
 26 72  1  0
 28 73  1  0
 28 74  1  0
 28 75  1  0
 29 76  1  0
 29 77  1  0
 30 78  1  0
 30 79  1  0
 32 80  1  0
 32 81  1  0
 32 82  1  0
M  END
>  <meeko>  (2) 
{"is_sidechain": [false], "intermolecular_energy": 2.731, "internal_energy": -0.839}

$$$$
EPH_relaxed_0001_pdb2pqr_Repair_136_r2_0001_out
     RDKit          3D

 82 86  0  0  0  0  0  0  0  0999 V2000
    1.8020   18.3330   -2.0090 C   0  0  0  0  0  0  0  0  0  0  0  0
    1.4750   17.3330   -0.8960 C   0  0  2  0  0  0  0  0  0  0  0  0
    2.7220   16.9550   -0.0720 C   0  0  0  0  0  0  0  0  0  0  0  0
    3.6670   18.1310    0.1910 C   0  0  0  0  0  0  0  0  0  0  0  0
    3.4240   18.7480    1.5340 C   0  0  2  0  0  0  0  0  0  0  0  0
    3.8530   20.1110    1.6540 O   0  0  0  0  0  0  0  0  0  0  0  0
    4.5370   19.1560    2.4810 C   0  0  0  0  0  0  0  0  0  0  0  0
    5.9770   18.9600    2.1230 C   0  0  0  0  0  0  0  0  0  0  0  0
    4.2240   19.2880    3.9390 C   0  0  0  0  0  0  0  0  0  0  0  0
    0.8440   16.0800   -1.4920 C   0  0  1  0  0  0  0  0  0  0  0  0
    0.5670   16.2160   -3.0130 C   0  0  0  0  0  0  0  0  0  0  0  0
    0.8010   14.8160   -3.6360 C   0  0  0  0  0  0  0  0  0  0  0  0
    0.8780   13.8570   -2.4250 C   0  0  1  0  0  0  0  0  0  0  0  0
   -0.6090   13.5760   -2.0410 C   0  0  0  0  0  0  0  0  0  0  0  0
    1.6780   12.5310   -2.6420 C   0  0  2  0  0  0  0  0  0  0  0  0
    1.1040   11.5920   -3.7170 C   0  0  0  0  0  0  0  0  0  0  0  0
    0.1180   10.5860   -3.2240 C   0  0  0  0  0  0  0  0  0  0  0  0
   -0.0810   10.2510   -1.9360 C   0  0  0  0  0  0  0  0  0  0  0  0
    0.8000   10.8380   -0.8250 C   0  0  1  0  0  0  0  0  0  0  0  0
    1.2520    9.7040    0.1310 C   0  0  0  0  0  0  0  0  0  0  0  0
    0.0780    8.8990    0.6810 C   0  0  0  0  0  0  0  0  0  0  0  0
   -0.7390    8.2830   -0.4520 C   0  0  2  0  0  0  0  0  0  0  0  0
    0.0610    7.2990   -1.1150 O   0  0  0  0  0  0  0  0  0  0  0  0
   -1.2410    9.3310   -1.4840 C   0  0  0  0  0  0  0  0  0  0  0  0
   -2.3390   10.2130   -0.8390 C   0  0  0  0  0  0  0  0  0  0  0  0
   -1.9280    8.5640   -2.6460 C   0  0  0  0  0  0  0  0  0  0  0  0
    2.0100   11.7480   -1.3080 C   0  0  1  0  0  0  0  0  0  0  0  0
    3.2560   10.8610   -1.6100 C   0  0  0  0  0  0  0  0  0  0  0  0
    2.4260   12.7140   -0.1360 C   0  0  0  0  0  0  0  0  0  0  0  0
    1.6820   14.0590   -0.0460 C   0  0  0  0  0  0  0  0  0  0  0  0
    1.6570   14.7640   -1.4050 C   0  0  2  0  0  0  0  0  0  0  0  0
    3.1390   15.0800   -1.8070 C   0  0  0  0  0  0  0  0  0  0  0  0
    2.1145   19.2887   -1.5630 H   0  0  0  0  0  0  0  0  0  0  0  0
    2.6168   17.9351   -2.6317 H   0  0  0  0  0  0  0  0  0  0  0  0
    0.9095   18.4934   -2.6317 H   0  0  0  0  0  0  0  0  0  0  0  0
    0.7624   17.8183   -0.2128 H   0  0  0  0  0  0  0  0  0  0  0  0
    2.3894   16.5537    0.8967 H   0  0  0  0  0  0  0  0  0  0  0  0
    3.2848   16.2166   -0.6619 H   0  0  0  0  0  0  0  0  0  0  0  0
    4.7053   17.7705    0.1470 H   0  0  0  0  0  0  0  0  0  0  0  0
    3.4825   18.8971   -0.5765 H   0  0  0  0  0  0  0  0  0  0  0  0
    2.5203   18.1373    1.6768 H   0  0  0  0  0  0  0  0  0  0  0  0
    6.5756   18.8785    3.0423 H   0  0  0  0  0  0  0  0  0  0  0  0
    6.0857   18.0388    1.5318 H   0  0  0  0  0  0  0  0  0  0  0  0
    6.3280   19.8186    1.5318 H   0  0  0  0  0  0  0  0  0  0  0  0
    5.0780   18.9278    4.5314 H   0  0  0  0  0  0  0  0  0  0  0  0
    4.0310   20.3441    4.1784 H   0  0  0  0  0  0  0  0  0  0  0  0
    3.3330   18.6890    4.1784 H   0  0  0  0  0  0  0  0  0  0  0  0
   -0.0549   16.0088   -0.8620 H   0  0  0  0  0  0  0  0  0  0  0  0
   -0.4714   16.5372   -3.1819 H   0  0  0  0  0  0  0  0  0  0  0  0
    1.2279   16.9675   -3.4696 H   0  0  0  0  0  0  0  0  0  0  0  0
   -0.0342   14.5406   -4.2967 H   0  0  0  0  0  0  0  0  0  0  0  0
    1.7106   14.7814   -4.2536 H   0  0  0  0  0  0  0  0  0  0  0  0
   -0.7076   13.5574   -0.9456 H   0  0  0  0  0  0  0  0  0  0  0  0
   -1.2503   14.3689   -2.4534 H   0  0  0  0  0  0  0  0  0  0  0  0
   -0.9168   12.6038   -2.4534 H   0  0  0  0  0  0  0  0  0  0  0  0
    2.6349   12.8959   -3.0436 H   0  0  0  0  0  0  0  0  0  0  0  0
    0.6065   12.2108   -4.4783 H   0  0  0  0  0  0  0  0  0  0  0  0
    1.9572   11.0167   -4.1057 H   0  0  0  0  0  0  0  0  0  0  0  0
   -0.4987   10.0747   -3.9778 H   0  0  0  0  0  0  0  0  0  0  0  0
    0.1666   11.5540   -0.2808 H   0  0  0  0  0  0  0  0  0  0  0  0
    1.9188    9.0239   -0.4193 H   0  0  0  0  0  0  0  0  0  0  0  0
    1.7649   10.1716    0.9844 H   0  0  0  0  0  0  0  0  0  0  0  0
    0.4631    8.0951    1.3255 H   0  0  0  0  0  0  0  0  0  0  0  0
   -0.5724    9.5745    1.2561 H   0  0  0  0  0  0  0  0  0  0  0  0
   -1.6355    7.8294   -0.0042 H   0  0  0  0  0  0  0  0  0  0  0  0
   -0.1270    6.4400   -0.7000 H   0  0  0  0  0  0  0  0  0  0  0  0
   -2.2622   10.1513    0.2566 H   0  0  0  0  0  0  0  0  0  0  0  0
   -2.2048   11.2572   -1.1578 H   0  0  0  0  0  0  0  0  0  0  0  0
   -3.3297    9.8568   -1.1578 H   0  0  0  0  0  0  0  0  0  0  0  0
   -2.6081    7.8047   -2.2326 H   0  0  0  0  0  0  0  0  0  0  0  0
   -2.5003    9.2712   -3.2643 H   0  0  0  0  0  0  0  0  0  0  0  0
   -1.1623    8.0727   -3.2643 H   0  0  0  0  0  0  0  0  0  0  0  0
    3.7127   10.5359   -0.6636 H   0  0  0  0  0  0  0  0  0  0  0  0
    2.9464    9.9790   -2.1898 H   0  0  0  0  0  0  0  0  0  0  0  0
    3.9881   11.4423   -2.1898 H   0  0  0  0  0  0  0  0  0  0  0  0
    2.2609   12.1787    0.8106 H   0  0  0  0  0  0  0  0  0  0  0  0
    3.4740   12.9786   -0.3401 H   0  0  0  0  0  0  0  0  0  0  0  0
    0.6486   13.8771    0.2840 H   0  0  0  0  0  0  0  0  0  0  0  0
    2.2084   14.7033    0.6735 H   0  0  0  0  0  0  0  0  0  0  0  0
    3.7457   15.2094   -0.8986 H   0  0  0  0  0  0  0  0  0  0  0  0
    3.5429   14.2478   -2.4022 H   0  0  0  0  0  0  0  0  0  0  0  0
    3.1683   16.0046   -2.4022 H   0  0  0  0  0  0  0  0  0  0  0  0
  1  2  1  0
  2  3  1  0
  3  4  1  0
  4  5  1  0
  5  6  1  0
  6  7  1  0
  7  8  1  0
  7  9  1  0
  2 10  1  0
 10 11  1  0
 11 12  1  0
 12 13  1  0
 13 14  1  1
 13 15  1  0
 15 16  1  0
 16 17  1  0
 17 18  2  0
 18 19  1  0
 19 20  1  0
 20 21  1  0
 21 22  1  0
 22 23  1  0
 22 24  1  0
 24 25  1  0
 24 26  1  0
 19 27  1  0
 27 28  1  6
 27 29  1  0
 29 30  1  0
 30 31  1  0
 31 32  1  6
  7  5  1  0
 31 10  1  0
 31 13  1  0
 27 15  1  0
 24 18  1  0
  1 33  1  0
  1 34  1  0
  1 35  1  0
  2 36  1  1
  3 37  1  0
  3 38  1  0
  4 39  1  0
  4 40  1  0
  5 41  1  1
  8 42  1  0
  8 43  1  0
  8 44  1  0
  9 45  1  0
  9 46  1  0
  9 47  1  0
 10 48  1  1
 11 49  1  0
 11 50  1  0
 12 51  1  0
 12 52  1  0
 14 53  1  0
 14 54  1  0
 14 55  1  0
 15 56  1  6
 16 57  1  0
 16 58  1  0
 17 59  1  0
 19 60  1  1
 20 61  1  0
 20 62  1  0
 21 63  1  0
 21 64  1  0
 22 65  1  1
 23 66  1  0
 25 67  1  0
 25 68  1  0
 25 69  1  0
 26 70  1  0
 26 71  1  0
 26 72  1  0
 28 73  1  0
 28 74  1  0
 28 75  1  0
 29 76  1  0
 29 77  1  0
 30 78  1  0
 30 79  1  0
 32 80  1  0
 32 81  1  0
 32 82  1  0
M  END
>  <meeko>  (3) 
{"is_sidechain": [false], "intermolecular_energy": 2.731, "internal_energy": -0.839}

$$$$
EPH_relaxed_0001_pdb2pqr_Repair_136_r2_0001_out
     RDKit          3D

 82 86  0  0  0  0  0  0  0  0999 V2000
    1.9520   18.2760   -2.8240 C   0  0  0  0  0  0  0  0  0  0  0  0
    0.8720   17.7260   -1.8880 C   0  0  2  0  0  0  0  0  0  0  0  0
    1.3340   17.7050   -0.4170 C   0  0  0  0  0  0  0  0  0  0  0  0
    1.2620   19.0720    0.2700 C   0  0  0  0  0  0  0  0  0  0  0  0
   -0.0040   19.7980   -0.0720 C   0  0  2  0  0  0  0  0  0  0  0  0
   -0.7900   20.1940    1.0590 O   0  0  0  0  0  0  0  0  0  0  0  0
   -1.3880   19.2290    0.1790 C   0  0  0  0  0  0  0  0  0  0  0  0
   -1.5770   17.8780    0.7950 C   0  0  0  0  0  0  0  0  0  0  0  0
   -2.5370   19.7670   -0.6150 C   0  0  0  0  0  0  0  0  0  0  0  0
    0.4700   16.3230   -2.3280 C   0  0  1  0  0  0  0  0  0  0  0  0
    0.5520   16.1320   -3.8660 C   0  0  0  0  0  0  0  0  0  0  0  0
    1.0030   14.6690   -4.1110 C   0  0  0  0  0  0  0  0  0  0  0  0
    0.8450   13.9770   -2.7370 C   0  0  1  0  0  0  0  0  0  0  0  0
   -0.6720   13.6250   -2.6380 C   0  0  0  0  0  0  0  0  0  0  0  0
    1.7460   12.7230   -2.4880 C   0  0  2  0  0  0  0  0  0  0  0  0
    1.4950   11.5400   -3.4380 C   0  0  0  0  0  0  0  0  0  0  0  0
    0.4770   10.5520   -2.9710 C   0  0  0  0  0  0  0  0  0  0  0  0
    0.0000   10.4550   -1.7160 C   0  0  0  0  0  0  0  0  0  0  0  0
    0.5600   11.3330   -0.5900 C   0  0  1  0  0  0  0  0  0  0  0  0
    0.8370   10.4580    0.6600 C   0  0  0  0  0  0  0  0  0  0  0  0
   -0.3860    9.6590    1.0980 C   0  0  0  0  0  0  0  0  0  0  0  0
   -0.8790    8.7550   -0.0290 C   0  0  2  0  0  0  0  0  0  0  0  0
    0.1080    7.7480   -0.2770 O   0  0  0  0  0  0  0  0  0  0  0  0
   -1.1810    9.5250   -1.3450 C   0  0  0  0  0  0  0  0  0  0  0  0
   -2.4470   10.3980   -1.1580 C   0  0  0  0  0  0  0  0  0  0  0  0
   -1.5320    8.4810   -2.4390 C   0  0  0  0  0  0  0  0  0  0  0  0
    1.7980   12.2520   -0.9780 C   0  0  1  0  0  0  0  0  0  0  0  0
    3.1270   11.4560   -0.8050 C   0  0  0  0  0  0  0  0  0  0  0  0
    1.8730   13.4640    0.0250 C   0  0  0  0  0  0  0  0  0  0  0  0
    1.0540   14.7180   -0.3380 C   0  0  0  0  0  0  0  0  0  0  0  0
    1.3120   15.1400   -1.7880 C   0  0  2  0  0  0  0  0  0  0  0  0
    2.8260   15.5210   -1.9140 C   0  0  0  0  0  0  0  0  0  0  0  0
    2.7755   18.6954   -2.2273 H   0  0  0  0  0  0  0  0  0  0  0  0
    2.3357   17.4635   -3.4585 H   0  0  0  0  0  0  0  0  0  0  0  0
    1.5206   19.0642   -3.4585 H   0  0  0  0  0  0  0  0  0  0  0  0
    0.0042   18.3990   -1.9513 H   0  0  0  0  0  0  0  0  0  0  0  0
    0.6942   17.0032    0.1381 H   0  0  0  0  0  0  0  0  0  0  0  0
    2.3908   17.3998   -0.4161 H   0  0  0  0  0  0  0  0  0  0  0  0
    1.3063   18.9263    1.3594 H   0  0  0  0  0  0  0  0  0  0  0  0
    2.1104   19.6776   -0.0814 H   0  0  0  0  0  0  0  0  0  0  0  0
    0.4616   20.2386   -0.9659 H   0  0  0  0  0  0  0  0  0  0  0  0
   -1.5642   17.9697    1.8911 H   0  0  0  0  0  0  0  0  0  0  0  0
   -2.5423   17.4601    0.4733 H   0  0  0  0  0  0  0  0  0  0  0  0
   -0.7634   17.2113    0.4733 H   0  0  0  0  0  0  0  0  0  0  0  0
   -3.3167   20.1321    0.0696 H   0  0  0  0  0  0  0  0  0  0  0  0
   -2.1885   20.5955   -1.2491 H   0  0  0  0  0  0  0  0  0  0  0  0
   -2.9502   18.9688   -1.2491 H   0  0  0  0  0  0  0  0  0  0  0  0
   -0.5466   16.2831   -1.9098 H   0  0  0  0  0  0  0  0  0  0  0  0
   -0.4335   16.3062   -4.3225 H   0  0  0  0  0  0  0  0  0  0  0  0
    1.2596   16.8442   -4.3155 H   0  0  0  0  0  0  0  0  0  0  0  0
    0.3634   14.1865   -4.8647 H   0  0  0  0  0  0  0  0  0  0  0  0
    2.0328   14.6082   -4.4928 H   0  0  0  0  0  0  0  0  0  0  0  0
   -0.9644   13.5572   -1.5797 H   0  0  0  0  0  0  0  0  0  0  0  0
   -1.2635   14.4098   -3.1322 H   0  0  0  0  0  0  0  0  0  0  0  0
   -0.8575   12.6600   -3.1322 H   0  0  0  0  0  0  0  0  0  0  0  0
    2.7486   13.0993   -2.7395 H   0  0  0  0  0  0  0  0  0  0  0  0
    1.1577   11.9450   -4.4035 H   0  0  0  0  0  0  0  0  0  0  0  0
    2.4464   10.9912   -3.4988 H   0  0  0  0  0  0  0  0  0  0  0  0
    0.0839    9.8439   -3.7153 H   0  0  0  0  0  0  0  0  0  0  0  0
   -0.2228   12.0715   -0.3624 H   0  0  0  0  0  0  0  0  0  0  0  0
    1.6511    9.7563    0.4257 H   0  0  0  0  0  0  0  0  0  0  0  0
    1.1083   11.1322    1.4857 H   0  0  0  0  0  0  0  0  0  0  0  0
   -0.1188    9.0388    1.9663 H   0  0  0  0  0  0  0  0  0  0  0  0
   -1.1896   10.3627    1.3608 H   0  0  0  0  0  0  0  0  0  0  0  0
   -1.8296    8.3086    0.2983 H   0  0  0  0  0  0  0  0  0  0  0  0
   -0.2880    6.8880   -0.0560 H   0  0  0  0  0  0  0  0  0  0  0  0
   -2.6436   10.5336   -0.0842 H   0  0  0  0  0  0  0  0  0  0  0  0
   -2.2883   11.3796   -1.6285 H   0  0  0  0  0  0  0  0  0  0  0  0
   -3.3080    9.9008   -1.6285 H   0  0  0  0  0  0  0  0  0  0  0  0
   -1.8478    7.5417   -1.9616 H   0  0  0  0  0  0  0  0  0  0  0  0
   -2.3498    8.8670   -3.0653 H   0  0  0  0  0  0  0  0  0  0  0  0
   -0.6471    8.2946   -3.0653 H   0  0  0  0  0  0  0  0  0  0  0  0
    3.3409   11.3279    0.2664 H   0  0  0  0  0  0  0  0  0  0  0  0
    3.0275   10.4687   -1.2796 H   0  0  0  0  0  0  0  0  0  0  0  0
    3.9505   12.0097   -1.2796 H   0  0  0  0  0  0  0  0  0  0  0  0
    1.5201   13.1080    1.0041 H   0  0  0  0  0  0  0  0  0  0  0  0
    2.9233   13.7902    0.0043 H   0  0  0  0  0  0  0  0  0  0  0  0
   -0.0164   14.4977   -0.2123 H   0  0  0  0  0  0  0  0  0  0  0  0
    1.3582   15.5403    0.3263 H   0  0  0  0  0  0  0  0  0  0  0  0
    3.2613   15.6306   -0.9098 H   0  0  0  0  0  0  0  0  0  0  0  0
    3.3592   14.7290   -2.4604 H   0  0  0  0  0  0  0  0  0  0  0  0
    2.9208   16.4710   -2.4604 H   0  0  0  0  0  0  0  0  0  0  0  0
  1  2  1  0
  2  3  1  0
  3  4  1  0
  4  5  1  0
  5  6  1  0
  6  7  1  0
  7  8  1  0
  7  9  1  0
  2 10  1  0
 10 11  1  0
 11 12  1  0
 12 13  1  0
 13 14  1  1
 13 15  1  0
 15 16  1  0
 16 17  1  0
 17 18  2  0
 18 19  1  0
 19 20  1  0
 20 21  1  0
 21 22  1  0
 22 23  1  0
 22 24  1  0
 24 25  1  0
 24 26  1  0
 19 27  1  0
 27 28  1  6
 27 29  1  0
 29 30  1  0
 30 31  1  0
 31 32  1  1
  7  5  1  0
 31 10  1  0
 31 13  1  0
 27 15  1  0
 24 18  1  0
  1 33  1  0
  1 34  1  0
  1 35  1  0
  2 36  1  1
  3 37  1  0
  3 38  1  0
  4 39  1  0
  4 40  1  0
  5 41  1  6
  8 42  1  0
  8 43  1  0
  8 44  1  0
  9 45  1  0
  9 46  1  0
  9 47  1  0
 10 48  1  1
 11 49  1  0
 11 50  1  0
 12 51  1  0
 12 52  1  0
 14 53  1  0
 14 54  1  0
 14 55  1  0
 15 56  1  6
 16 57  1  0
 16 58  1  0
 17 59  1  0
 19 60  1  1
 20 61  1  0
 20 62  1  0
 21 63  1  0
 21 64  1  0
 22 65  1  1
 23 66  1  0
 25 67  1  0
 25 68  1  0
 25 69  1  0
 26 70  1  0
 26 71  1  0
 26 72  1  0
 28 73  1  0
 28 74  1  0
 28 75  1  0
 29 76  1  0
 29 77  1  0
 30 78  1  0
 30 79  1  0
 32 80  1  0
 32 81  1  0
 32 82  1  0
M  END
>  <meeko>  (4) 
{"is_sidechain": [false], "intermolecular_energy": 2.731, "internal_energy": -0.839}

$$$$
EPH_relaxed_0001_pdb2pqr_Repair_136_r2_0001_out
     RDKit          3D

 82 86  0  0  0  0  0  0  0  0999 V2000
    0.4750   15.0140   -7.1020 C   0  0  0  0  0  0  0  0  0  0  0  0
    1.9020   14.7430   -6.6170 C   0  0  2  0  0  0  0  0  0  0  0  0
    2.8790   14.5130   -7.7870 C   0  0  0  0  0  0  0  0  0  0  0  0
    3.0370   15.7280   -8.7060 C   0  0  0  0  0  0  0  0  0  0  0  0
    2.7880   15.3740  -10.1410 C   0  0  2  0  0  0  0  0  0  0  0  0
    2.2690   16.4440  -10.9400 O   0  0  0  0  0  0  0  0  0  0  0  0
    1.4040   15.3110  -10.7600 C   0  0  0  0  0  0  0  0  0  0  0  0
    0.1760   15.6050   -9.9560 C   0  0  0  0  0  0  0  0  0  0  0  0
    1.2110   14.4960  -12.0000 C   0  0  0  0  0  0  0  0  0  0  0  0
    1.9130   13.5380   -5.6840 C   0  0  1  0  0  0  0  0  0  0  0  0
    3.3460   13.0060   -5.4140 C   0  0  0  0  0  0  0  0  0  0  0  0
    3.3660   12.4990   -3.9480 C   0  0  0  0  0  0  0  0  0  0  0  0
    1.8770   12.4480   -3.5330 C   0  0  1  0  0  0  0  0  0  0  0  0
    1.3420   11.1060   -4.1220 C   0  0  0  0  0  0  0  0  0  0  0  0
    1.5830   12.5650   -2.0020 C   0  0  2  0  0  0  0  0  0  0  0  0
    2.1620   11.4310   -1.1380 C   0  0  0  0  0  0  0  0  0  0  0  0
    1.2600   10.2580   -0.9370 C   0  0  0  0  0  0  0  0  0  0  0  0
   -0.0620   10.2370   -1.1860 C   0  0  0  0  0  0  0  0  0  0  0  0
   -0.8010   11.5060   -1.6300 C   0  0  1  0  0  0  0  0  0  0  0  0
   -2.1090   11.6580   -0.8100 C   0  0  0  0  0  0  0  0  0  0  0  0
   -2.9910   10.4150   -0.8800 C   0  0  0  0  0  0  0  0  0  0  0  0
   -2.2410    9.1850   -0.3760 C   0  0  2  0  0  0  0  0  0  0  0  0
   -1.9910    9.3400    1.0250 O   0  0  0  0  0  0  0  0  0  0  0  0
   -0.9000    8.9360   -1.1220 C   0  0  0  0  0  0  0  0  0  0  0  0
   -1.1900    8.4720   -2.5710 C   0  0  0  0  0  0  0  0  0  0  0  0
   -0.1780    7.7530   -0.4230 C   0  0  0  0  0  0  0  0  0  0  0  0
    0.0640   12.8390   -1.6530 C   0  0  1  0  0  0  0  0  0  0  0  0
    0.0450   13.5100   -0.2450 C   0  0  0  0  0  0  0  0  0  0  0  0
   -0.6010   13.8670   -2.6430 C   0  0  0  0  0  0  0  0  0  0  0  0
   -0.1800   13.7790   -4.1220 C   0  0  0  0  0  0  0  0  0  0  0  0
    1.3460   13.7390   -4.2560 C   0  0  2  0  0  0  0  0  0  0  0  0
    1.9110   15.0870   -3.6920 C   0  0  0  0  0  0  0  0  0  0  0  0
   -0.1894   15.1402   -6.2344 H   0  0  0  0  0  0  0  0  0  0  0  0
    0.4622   15.9306   -7.7100 H   0  0  0  0  0  0  0  0  0  0  0  0
    0.1271   14.1659   -7.7100 H   0  0  0  0  0  0  0  0  0  0  0  0
    2.2428   15.6368   -6.0739 H   0  0  0  0  0  0  0  0  0  0  0  0
    3.8658   14.2618   -7.3710 H   0  0  0  0  0  0  0  0  0  0  0  0
    2.4616   13.6997   -8.3988 H   0  0  0  0  0  0  0  0  0  0  0  0
    2.3181   16.5023   -8.4000 H   0  0  0  0  0  0  0  0  0  0  0  0
    4.0710   16.0928   -8.6173 H   0  0  0  0  0  0  0  0  0  0  0  0
    3.6263   14.6618  -10.1348 H   0  0  0  0  0  0  0  0  0  0  0  0
    0.4169   15.5473   -8.8843 H   0  0  0  0  0  0  0  0  0  0  0  0
   -0.1865   16.6153  -10.1965 H   0  0  0  0  0  0  0  0  0  0  0  0
   -0.6048   14.8684  -10.1965 H   0  0  0  0  0  0  0  0  0  0  0  0
    0.9657   13.4600  -11.7234 H   0  0  0  0  0  0  0  0  0  0  0  0
    0.3888   14.9214  -12.5941 H   0  0  0  0  0  0  0  0  0  0  0  0
    2.1367   14.5075  -12.5941 H   0  0  0  0  0  0  0  0  0  0  0  0
    1.2642   12.8567   -6.2540 H   0  0  0  0  0  0  0  0  0  0  0  0
    3.5801   12.1813   -6.1033 H   0  0  0  0  0  0  0  0  0  0  0  0
    4.0963   13.7953   -5.5693 H   0  0  0  0  0  0  0  0  0  0  0  0
    3.8201   11.4988   -3.8891 H   0  0  0  0  0  0  0  0  0  0  0  0
    3.9607   13.1493   -3.2896 H   0  0  0  0  0  0  0  0  0  0  0  0
    1.0713   10.4269   -3.3001 H   0  0  0  0  0  0  0  0  0  0  0  0
    0.4545   11.3050   -4.7406 H   0  0  0  0  0  0  0  0  0  0  0  0
    2.1231   10.6399   -4.7406 H   0  0  0  0  0  0  0  0  0  0  0  0
    2.1432   13.4695   -1.7226 H   0  0  0  0  0  0  0  0  0  0  0  0
    3.0833   11.0726   -1.6205 H   0  0  0  0  0  0  0  0  0  0  0  0
    2.3267   11.8628   -0.1398 H   0  0  0  0  0  0  0  0  0  0  0  0
    1.7148    9.3330   -0.5529 H   0  0  0  0  0  0  0  0  0  0  0  0
   -1.0429   11.3610   -2.6932 H   0  0  0  0  0  0  0  0  0  0  0  0
   -1.8462   11.8452    0.2416 H   0  0  0  0  0  0  0  0  0  0  0  0
   -2.6775   12.4956   -1.2404 H   0  0  0  0  0  0  0  0  0  0  0  0
   -3.8844   10.5720   -0.2577 H   0  0  0  0  0  0  0  0  0  0  0  0
   -3.2775   10.2463   -1.9286 H   0  0  0  0  0  0  0  0  0  0  0  0
   -2.8757    8.3082   -0.5720 H   0  0  0  0  0  0  0  0  0  0  0  0
   -1.3010    8.7010    1.2730 H   0  0  0  0  0  0  0  0  0  0  0  0
   -1.7729    7.5394   -2.5476 H   0  0  0  0  0  0  0  0  0  0  0  0
   -1.7632    9.2495   -3.0972 H   0  0  0  0  0  0  0  0  0  0  0  0
   -0.2399    8.2975   -3.0972 H   0  0  0  0  0  0  0  0  0  0  0  0
   -0.2507    7.8722    0.6681 H   0  0  0  0  0  0  0  0  0  0  0  0
   -0.6524    6.8063   -0.7209 H   0  0  0  0  0  0  0  0  0  0  0  0
    0.8808    7.7421   -0.7209 H   0  0  0  0  0  0  0  0  0  0  0  0
    0.0670   12.7320    0.5323 H   0  0  0  0  0  0  0  0  0  0  0  0
    0.9251   14.1610   -0.1372 H   0  0  0  0  0  0  0  0  0  0  0  0
   -0.8705   14.1102   -0.1372 H   0  0  0  0  0  0  0  0  0  0  0  0
   -1.6897   13.7163   -2.5974 H   0  0  0  0  0  0  0  0  0  0  0  0
   -0.2578   14.8557   -2.3045 H   0  0  0  0  0  0  0  0  0  0  0  0
   -0.6041   12.8650   -4.5632 H   0  0  0  0  0  0  0  0  0  0  0  0
   -0.5552   14.6697   -4.6472 H   0  0  0  0  0  0  0  0  0  0  0  0
    1.8989   15.0582   -2.5924 H   0  0  0  0  0  0  0  0  0  0  0  0
    2.9437   15.2275   -4.0438 H   0  0  0  0  0  0  0  0  0  0  0  0
    1.2871   15.9218   -4.0438 H   0  0  0  0  0  0  0  0  0  0  0  0
  1  2  1  0
  2  3  1  0
  3  4  1  0
  4  5  1  0
  5  6  1  0
  6  7  1  0
  7  8  1  0
  7  9  1  0
  2 10  1  0
 10 11  1  0
 11 12  1  0
 12 13  1  0
 13 14  1  6
 13 15  1  0
 15 16  1  0
 16 17  1  0
 17 18  2  0
 18 19  1  0
 19 20  1  0
 20 21  1  0
 21 22  1  0
 22 23  1  0
 22 24  1  0
 24 25  1  0
 24 26  1  0
 19 27  1  0
 27 28  1  1
 27 29  1  0
 29 30  1  0
 30 31  1  0
 31 32  1  1
  7  5  1  0
 31 10  1  0
 31 13  1  0
 27 15  1  0
 24 18  1  0
  1 33  1  0
  1 34  1  0
  1 35  1  0
  2 36  1  1
  3 37  1  0
  3 38  1  0
  4 39  1  0
  4 40  1  0
  5 41  1  6
  8 42  1  0
  8 43  1  0
  8 44  1  0
  9 45  1  0
  9 46  1  0
  9 47  1  0
 10 48  1  6
 11 49  1  0
 11 50  1  0
 12 51  1  0
 12 52  1  0
 14 53  1  0
 14 54  1  0
 14 55  1  0
 15 56  1  1
 16 57  1  0
 16 58  1  0
 17 59  1  0
 19 60  1  6
 20 61  1  0
 20 62  1  0
 21 63  1  0
 21 64  1  0
 22 65  1  1
 23 66  1  0
 25 67  1  0
 25 68  1  0
 25 69  1  0
 26 70  1  0
 26 71  1  0
 26 72  1  0
 28 73  1  0
 28 74  1  0
 28 75  1  0
 29 76  1  0
 29 77  1  0
 30 78  1  0
 30 79  1  0
 32 80  1  0
 32 81  1  0
 32 82  1  0
M  END
>  <meeko>  (5) 
{"is_sidechain": [false], "intermolecular_energy": 2.731, "internal_energy": -0.839}

$$$$
EPH_relaxed_0001_pdb2pqr_Repair_136_r2_0001_out
     RDKit          3D

 82 86  0  0  0  0  0  0  0  0999 V2000
   -5.1030    5.9420   -1.7460 C   0  0  0  0  0  0  0  0  0  0  0  0
   -5.4330    7.4370   -1.7810 C   0  0  2  0  0  0  0  0  0  0  0  0
   -5.2220    8.1110   -0.4110 C   0  0  0  0  0  0  0  0  0  0  0  0
   -4.1490    9.2030   -0.4210 C   0  0  0  0  0  0  0  0  0  0  0  0
   -2.8050    8.6550   -0.7960 C   0  0  2  0  0  0  0  0  0  0  0  0
   -1.7590    8.9400    0.1430 O   0  0  0  0  0  0  0  0  0  0  0  0
   -1.6180    9.5280   -1.1610 C   0  0  0  0  0  0  0  0  0  0  0  0
   -1.7210   11.0210   -1.1700 C   0  0  0  0  0  0  0  0  0  0  0  0
   -0.5140    8.9290   -1.9760 C   0  0  0  0  0  0  0  0  0  0  0  0
   -6.8700    7.6400   -2.2460 C   0  0  1  0  0  0  0  0  0  0  0  0
   -7.1670    6.9380   -3.5980 C   0  0  0  0  0  0  0  0  0  0  0  0
   -8.6340    6.4420   -3.5320 C   0  0  0  0  0  0  0  0  0  0  0  0
   -9.2320    7.1570   -2.2980 C   0  0  1  0  0  0  0  0  0  0  0  0
   -9.6050    8.5860   -2.8040 C   0  0  0  0  0  0  0  0  0  0  0  0
  -10.4480    6.4520   -1.6130 C   0  0  2  0  0  0  0  0  0  0  0  0
  -11.7000    6.3060   -2.4960 C   0  0  0  0  0  0  0  0  0  0  0  0
  -12.6710    7.4370   -2.4180 C   0  0  0  0  0  0  0  0  0  0  0  0
  -12.6900    8.3880   -1.4650 C   0  0  0  0  0  0  0  0  0  0  0  0
  -11.7250    8.3280   -0.2740 C   0  0  1  0  0  0  0  0  0  0  0  0
  -12.5050    8.5980    1.0390 C   0  0  0  0  0  0  0  0  0  0  0  0
  -13.2950    9.9030    0.9930 C   0  0  0  0  0  0  0  0  0  0  0  0
  -14.2840    9.9010   -0.1700 C   0  0  2  0  0  0  0  0  0  0  0  0
  -15.2870    8.9110    0.0810 O   0  0  0  0  0  0  0  0  0  0  0  0
  -13.6130    9.6280   -1.5450 C   0  0  0  0  0  0  0  0  0  0  0  0
  -12.7530   10.8490   -1.9550 C   0  0  0  0  0  0  0  0  0  0  0  0
  -14.7370    9.5120   -2.6100 C   0  0  0  0  0  0  0  0  0  0  0  0
  -10.8120    7.0300   -0.1850 C   0  0  1  0  0  0  0  0  0  0  0  0
  -11.5700    5.8970    0.5730 C   0  0  0  0  0  0  0  0  0  0  0  0
   -9.5330    7.3580    0.6710 C   0  0  0  0  0  0  0  0  0  0  0  0
   -8.3220    7.9410   -0.0830 C   0  0  0  0  0  0  0  0  0  0  0  0
   -7.9980    7.1080   -1.3260 C   0  0  2  0  0  0  0  0  0  0  0  0
   -7.5980    5.6700   -0.8470 C   0  0  0  0  0  0  0  0  0  0  0  0
   -5.0291    5.6072   -0.7008 H   0  0  0  0  0  0  0  0  0  0  0  0
   -5.8985    5.3789   -2.2560 H   0  0  0  0  0  0  0  0  0  0  0  0
   -4.1444    5.7661   -2.2560 H   0  0  0  0  0  0  0  0  0  0  0  0
   -4.7410    7.9124   -2.4917 H   0  0  0  0  0  0  0  0  0  0  0  0
   -6.1742    8.5627   -0.0959 H   0  0  0  0  0  0  0  0  0  0  0  0
   -4.8785    7.3292    0.2824 H   0  0  0  0  0  0  0  0  0  0  0  0
   -4.4344    9.9768   -1.1489 H   0  0  0  0  0  0  0  0  0  0  0  0
   -4.0776    9.6234    0.5930 H   0  0  0  0  0  0  0  0  0  0  0  0
   -3.2697    7.7937   -1.2982 H   0  0  0  0  0  0  0  0  0  0  0  0
   -1.7467   11.3930   -0.1351 H   0  0  0  0  0  0  0  0  0  0  0  0
   -0.8500   11.4455   -1.6907 H   0  0  0  0  0  0  0  0  0  0  0  0
   -2.6420   11.3219   -1.6907 H   0  0  0  0  0  0  0  0  0  0  0  0
    0.2525    8.5131   -1.3056 H   0  0  0  0  0  0  0  0  0  0  0  0
   -0.9201    8.1275   -2.6106 H   0  0  0  0  0  0  0  0  0  0  0  0
   -0.0634    9.7063   -2.6106 H   0  0  0  0  0  0  0  0  0  0  0  0
   -6.8981    8.7392   -2.2787 H   0  0  0  0  0  0  0  0  0  0  0  0
   -7.0445    7.6486   -4.4287 H   0  0  0  0  0  0  0  0  0  0  0  0
   -6.4744    6.1006   -3.7686 H   0  0  0  0  0  0  0  0  0  0  0  0
   -9.1799    6.7214   -4.4452 H   0  0  0  0  0  0  0  0  0  0  0  0
   -8.7011    5.3469   -3.4530 H   0  0  0  0  0  0  0  0  0  0  0  0
   -9.7775    9.2469   -1.9417 H   0  0  0  0  0  0  0  0  0  0  0  0
   -8.7811    8.9858   -3.4134 H   0  0  0  0  0  0  0  0  0  0  0  0
  -10.5192    8.5322   -3.4134 H   0  0  0  0  0  0  0  0  0  0  0  0
  -10.0714    5.4302   -1.4575 H   0  0  0  0  0  0  0  0  0  0  0  0
  -11.3698    6.2131   -3.5411 H   0  0  0  0  0  0  0  0  0  0  0  0
  -12.2343    5.4201   -2.1222 H   0  0  0  0  0  0  0  0  0  0  0  0
  -13.4360    7.4988   -3.2060 H   0  0  0  0  0  0  0  0  0  0  0  0
  -10.9872    9.1265   -0.4410 H   0  0  0  0  0  0  0  0  0  0  0  0
  -13.2058    7.7675    1.2099 H   0  0  0  0  0  0  0  0  0  0  0  0
  -11.7697    8.6815    1.8529 H   0  0  0  0  0  0  0  0  0  0  0  0
  -13.8485   10.0223    1.9361 H   0  0  0  0  0  0  0  0  0  0  0  0
  -12.5899   10.7356    0.8531 H   0  0  0  0  0  0  0  0  0  0  0  0
  -14.7243   10.9072   -0.2309 H   0  0  0  0  0  0  0  0  0  0  0  0
  -16.1100    9.2130   -0.3400 H   0  0  0  0  0  0  0  0  0  0  0  0
  -12.3913   11.3625   -1.0520 H   0  0  0  0  0  0  0  0  0  0  0  0
  -11.8942   10.5087   -2.5521 H   0  0  0  0  0  0  0  0  0  0  0  0
  -13.3627   11.5430   -2.5521 H   0  0  0  0  0  0  0  0  0  0  0  0
  -15.7100    9.4116   -2.1068 H   0  0  0  0  0  0  0  0  0  0  0  0
  -14.7408   10.4145   -3.2388 H   0  0  0  0  0  0  0  0  0  0  0  0
  -14.5564    8.6277   -3.2388 H   0  0  0  0  0  0  0  0  0  0  0  0
  -11.4679    6.0496    1.6576 H   0  0  0  0  0  0  0  0  0  0  0  0
  -12.6348    5.9206    0.2980 H   0  0  0  0  0  0  0  0  0  0  0  0
  -11.1418    4.9218    0.2980 H   0  0  0  0  0  0  0  0  0  0  0  0
   -9.8264    8.0855    1.4421 H   0  0  0  0  0  0  0  0  0  0  0  0
   -9.1901    6.3875    1.0589 H   0  0  0  0  0  0  0  0  0  0  0  0
   -8.5517    8.9719   -0.3904 H   0  0  0  0  0  0  0  0  0  0  0  0
   -7.4501    7.9246    0.5875 H   0  0  0  0  0  0  0  0  0  0  0  0
   -7.5894    5.6390    0.2525 H   0  0  0  0  0  0  0  0  0  0  0  0
   -8.3273    4.9403   -1.2287 H   0  0  0  0  0  0  0  0  0  0  0  0
   -6.5967    5.4217   -1.2287 H   0  0  0  0  0  0  0  0  0  0  0  0
  1  2  1  0
  2  3  1  0
  3  4  1  0
  4  5  1  0
  5  6  1  0
  6  7  1  0
  7  8  1  0
  7  9  1  0
  2 10  1  0
 10 11  1  0
 11 12  1  0
 12 13  1  0
 13 14  1  6
 13 15  1  0
 15 16  1  0
 16 17  1  0
 17 18  2  0
 18 19  1  0
 19 20  1  0
 20 21  1  0
 21 22  1  0
 22 23  1  0
 22 24  1  0
 24 25  1  0
 24 26  1  0
 19 27  1  0
 27 28  1  1
 27 29  1  0
 29 30  1  0
 30 31  1  0
 31 32  1  1
  7  5  1  0
 31 10  1  0
 31 13  1  0
 27 15  1  0
 24 18  1  0
  1 33  1  0
  1 34  1  0
  1 35  1  0
  2 36  1  6
  3 37  1  0
  3 38  1  0
  4 39  1  0
  4 40  1  0
  5 41  1  6
  8 42  1  0
  8 43  1  0
  8 44  1  0
  9 45  1  0
  9 46  1  0
  9 47  1  0
 10 48  1  6
 11 49  1  0
 11 50  1  0
 12 51  1  0
 12 52  1  0
 14 53  1  0
 14 54  1  0
 14 55  1  0
 15 56  1  1
 16 57  1  0
 16 58  1  0
 17 59  1  0
 19 60  1  6
 20 61  1  0
 20 62  1  0
 21 63  1  0
 21 64  1  0
 22 65  1  6
 23 66  1  0
 25 67  1  0
 25 68  1  0
 25 69  1  0
 26 70  1  0
 26 71  1  0
 26 72  1  0
 28 73  1  0
 28 74  1  0
 28 75  1  0
 29 76  1  0
 29 77  1  0
 30 78  1  0
 30 79  1  0
 32 80  1  0
 32 81  1  0
 32 82  1  0
M  END
>  <meeko>  (6) 
{"is_sidechain": [false], "intermolecular_energy": 2.731, "internal_energy": -0.839}

$$$$
EPH_relaxed_0001_pdb2pqr_Repair_136_r2_0001_out
     RDKit          3D

 82 86  0  0  0  0  0  0  0  0999 V2000
   -2.3320    7.8740   -0.2500 C   0  0  0  0  0  0  0  0  0  0  0  0
   -2.9690    9.2660   -0.2110 C   0  0  2  0  0  0  0  0  0  0  0  0
   -4.4440    9.2430   -0.6600 C   0  0  0  0  0  0  0  0  0  0  0  0
   -5.0890    7.8560   -0.5840 C   0  0  0  0  0  0  0  0  0  0  0  0
   -5.8240    7.5180   -1.8460 C   0  0  2  0  0  0  0  0  0  0  0  0
   -6.8010    8.4860   -2.2480 O   0  0  0  0  0  0  0  0  0  0  0  0
   -7.3040    7.1890   -1.8890 C   0  0  0  0  0  0  0  0  0  0  0  0
   -8.1380    7.1820   -0.6460 C   0  0  0  0  0  0  0  0  0  0  0  0
   -7.8290    6.4030   -3.0500 C   0  0  0  0  0  0  0  0  0  0  0  0
   -2.1730   10.2270   -1.0860 C   0  0  1  0  0  0  0  0  0  0  0  0
   -2.7580   11.6640   -1.0810 C   0  0  0  0  0  0  0  0  0  0  0  0
   -1.5550   12.6370   -1.1790 C   0  0  0  0  0  0  0  0  0  0  0  0
   -0.3580   11.7390   -1.5680 C   0  0  1  0  0  0  0  0  0  0  0  0
   -0.4870   11.5450   -3.1120 C   0  0  0  0  0  0  0  0  0  0  0  0
    1.0590   12.2660   -1.1700 C   0  0  2  0  0  0  0  0  0  0  0  0
    1.4700   13.5950   -1.8270 C   0  0  0  0  0  0  0  0  0  0  0  0
    2.1920   13.4670   -3.1280 C   0  0  0  0  0  0  0  0  0  0  0  0
    2.7490   12.3390   -3.6050 C   0  0  0  0  0  0  0  0  0  0  0  0
    2.7690   11.0540   -2.7670 C   0  0  1  0  0  0  0  0  0  0  0  0
    4.1860   10.4250   -2.8150 C   0  0  0  0  0  0  0  0  0  0  0  0
    4.6770   10.1990   -4.2410 C   0  0  0  0  0  0  0  0  0  0  0  0
    4.6990   11.5080   -5.0250 C   0  0  2  0  0  0  0  0  0  0  0  0
    5.6950   12.3670   -4.4610 O   0  0  0  0  0  0  0  0  0  0  0  0
    3.3270   12.2370   -5.0390 C   0  0  0  0  0  0  0  0  0  0  0  0
    2.3240   11.4430   -5.9120 C   0  0  0  0  0  0  0  0  0  0  0  0
    3.5210   13.6090   -5.7400 C   0  0  0  0  0  0  0  0  0  0  0  0
    2.2090   11.1850   -1.2850 C   0  0  1  0  0  0  0  0  0  0  0  0
    3.3490   11.6430   -0.3240 C   0  0  0  0  0  0  0  0  0  0  0  0
    1.7480    9.7660   -0.7820 C   0  0  0  0  0  0  0  0  0  0  0  0
    0.2990    9.3520   -1.1040 C   0  0  0  0  0  0  0  0  0  0  0  0
   -0.6860   10.4590   -0.7170 C   0  0  2  0  0  0  0  0  0  0  0  0
   -0.5940   10.6610    0.8340 C   0  0  0  0  0  0  0  0  0  0  0  0
   -2.1685    7.5167    0.7774 H   0  0  0  0  0  0  0  0  0  0  0  0
   -3.0017    7.1790   -0.7777 H   0  0  0  0  0  0  0  0  0  0  0  0
   -1.3683    7.9264   -0.7777 H   0  0  0  0  0  0  0  0  0  0  0  0
   -2.9476    9.6100    0.8336 H   0  0  0  0  0  0  0  0  0  0  0  0
   -5.0143    9.9271   -0.0144 H   0  0  0  0  0  0  0  0  0  0  0  0
   -4.4633    9.5491   -1.7164 H   0  0  0  0  0  0  0  0  0  0  0  0
   -4.3023    7.1054   -0.4174 H   0  0  0  0  0  0  0  0  0  0  0  0
   -5.8124    7.8585    0.2447 H   0  0  0  0  0  0  0  0  0  0  0  0
   -4.9410    7.0005   -2.2492 H   0  0  0  0  0  0  0  0  0  0  0  0
   -7.4811    7.1875    0.2363 H   0  0  0  0  0  0  0  0  0  0  0  0
   -8.7804    8.0748   -0.6304 H   0  0  0  0  0  0  0  0  0  0  0  0
   -8.7653    6.2786   -0.6304 H   0  0  0  0  0  0  0  0  0  0  0  0
   -8.4043    5.5417   -2.6796 H   0  0  0  0  0  0  0  0  0  0  0  0
   -8.4811    7.0437   -3.6617 H   0  0  0  0  0  0  0  0  0  0  0  0
   -6.9874    6.0460   -3.6617 H   0  0  0  0  0  0  0  0  0  0  0  0
   -2.2442    9.7009   -2.0494 H   0  0  0  0  0  0  0  0  0  0  0  0
   -3.4287   11.8030   -1.9418 H   0  0  0  0  0  0  0  0  0  0  0  0
   -3.3425   11.8493   -0.1677 H   0  0  0  0  0  0  0  0  0  0  0  0
   -1.7347   13.4003   -1.9504 H   0  0  0  0  0  0  0  0  0  0  0  0
   -1.3805   13.1807   -0.2388 H   0  0  0  0  0  0  0  0  0  0  0  0
   -1.0851   10.6455   -3.3198 H   0  0  0  0  0  0  0  0  0  0  0  0
   -0.9813   12.4237   -3.5519 H   0  0  0  0  0  0  0  0  0  0  0  0
    0.5145   11.4291   -3.5519 H   0  0  0  0  0  0  0  0  0  0  0  0
    0.9349   12.4878   -0.0998 H   0  0  0  0  0  0  0  0  0  0  0  0
    0.5578   14.1845   -2.0011 H   0  0  0  0  0  0  0  0  0  0  0  0
    2.1770   14.0721   -1.1323 H   0  0  0  0  0  0  0  0  0  0  0  0
    2.2755   14.3713   -3.7487 H   0  0  0  0  0  0  0  0  0  0  0  0
    2.0437   10.3734   -3.2368 H   0  0  0  0  0  0  0  0  0  0  0  0
    4.8885   11.0988   -2.3027 H   0  0  0  0  0  0  0  0  0  0  0  0
    4.1329    9.4439   -2.3205 H   0  0  0  0  0  0  0  0  0  0  0  0
    5.6941    9.7813   -4.2094 H   0  0  0  0  0  0  0  0  0  0  0  0
    3.9897    9.5015   -4.7422 H   0  0  0  0  0  0  0  0  0  0  0  0
    4.9335   11.2617   -6.0711 H   0  0  0  0  0  0  0  0  0  0  0  0
    5.3230   12.7570   -3.6520 H   0  0  0  0  0  0  0  0  0  0  0  0
    1.6282   10.8922   -5.2621 H   0  0  0  0  0  0  0  0  0  0  0  0
    1.7583   12.1406   -6.5470 H   0  0  0  0  0  0  0  0  0  0  0  0
    2.8732   10.7322   -6.5470 H   0  0  0  0  0  0  0  0  0  0  0  0
    3.6324   14.3965   -4.9801 H   0  0  0  0  0  0  0  0  0  0  0  0
    4.4233   13.5754   -6.3682 H   0  0  0  0  0  0  0  0  0  0  0  0
    2.6447   13.8269   -6.3682 H   0  0  0  0  0  0  0  0  0  0  0  0
    3.0241   11.5125    0.7188 H   0  0  0  0  0  0  0  0  0  0  0  0
    4.2483   11.0364   -0.5065 H   0  0  0  0  0  0  0  0  0  0  0  0
    3.5786   12.7032   -0.5065 H   0  0  0  0  0  0  0  0  0  0  0  0
    2.4161    9.0189   -1.2353 H   0  0  0  0  0  0  0  0  0  0  0  0
    1.7948    9.8204    0.3157 H   0  0  0  0  0  0  0  0  0  0  0  0
    0.2125    9.1542   -2.1826 H   0  0  0  0  0  0  0  0  0  0  0  0
    0.0557    8.4482   -0.5262 H   0  0  0  0  0  0  0  0  0  0  0  0
   -0.9980    9.7740    1.3439 H   0  0  0  0  0  0  0  0  0  0  0  0
    0.4577   10.8032    1.1235 H   0  0  0  0  0  0  0  0  0  0  0  0
   -1.1771   11.5477    1.1235 H   0  0  0  0  0  0  0  0  0  0  0  0
  1  2  1  0
  2  3  1  0
  3  4  1  0
  4  5  1  0
  5  6  1  0
  6  7  1  0
  7  8  1  0
  7  9  1  0
  2 10  1  0
 10 11  1  0
 11 12  1  0
 12 13  1  0
 13 14  1  6
 13 15  1  0
 15 16  1  0
 16 17  1  0
 17 18  2  0
 18 19  1  0
 19 20  1  0
 20 21  1  0
 21 22  1  0
 22 23  1  0
 22 24  1  0
 24 25  1  0
 24 26  1  0
 19 27  1  0
 27 28  1  1
 27 29  1  0
 29 30  1  0
 30 31  1  0
 31 32  1  1
  7  5  1  0
 31 10  1  0
 31 13  1  0
 27 15  1  0
 24 18  1  0
  1 33  1  0
  1 34  1  0
  1 35  1  0
  2 36  1  1
  3 37  1  0
  3 38  1  0
  4 39  1  0
  4 40  1  0
  5 41  1  6
  8 42  1  0
  8 43  1  0
  8 44  1  0
  9 45  1  0
  9 46  1  0
  9 47  1  0
 10 48  1  6
 11 49  1  0
 11 50  1  0
 12 51  1  0
 12 52  1  0
 14 53  1  0
 14 54  1  0
 14 55  1  0
 15 56  1  1
 16 57  1  0
 16 58  1  0
 17 59  1  0
 19 60  1  6
 20 61  1  0
 20 62  1  0
 21 63  1  0
 21 64  1  0
 22 65  1  6
 23 66  1  0
 25 67  1  0
 25 68  1  0
 25 69  1  0
 26 70  1  0
 26 71  1  0
 26 72  1  0
 28 73  1  0
 28 74  1  0
 28 75  1  0
 29 76  1  0
 29 77  1  0
 30 78  1  0
 30 79  1  0
 32 80  1  0
 32 81  1  0
 32 82  1  0
M  END
>  <meeko>  (7) 
{"is_sidechain": [false], "intermolecular_energy": 2.731, "internal_energy": -0.839}

$$$$
EPH_relaxed_0001_pdb2pqr_Repair_136_r2_0001_out
     RDKit          3D

 82 86  0  0  0  0  0  0  0  0999 V2000
   -3.7900    7.1840   -3.3180 C   0  0  0  0  0  0  0  0  0  0  0  0
   -3.8160    7.3310   -1.7940 C   0  0  2  0  0  0  0  0  0  0  0  0
   -5.2410    7.1910   -1.2220 C   0  0  0  0  0  0  0  0  0  0  0  0
   -6.3450    7.4070   -2.2600 C   0  0  0  0  0  0  0  0  0  0  0  0
   -7.6890    7.5640   -1.6150 C   0  0  2  0  0  0  0  0  0  0  0  0
   -8.2350    6.3570   -1.0670 O   0  0  0  0  0  0  0  0  0  0  0  0
   -8.9580    6.9390   -2.1640 C   0  0  0  0  0  0  0  0  0  0  0  0
   -8.9440    6.1100   -3.4100 C   0  0  0  0  0  0  0  0  0  0  0  0
  -10.2750    7.5310   -1.7700 C   0  0  0  0  0  0  0  0  0  0  0  0
   -3.2220    8.6750   -1.3910 C   0  0  1  0  0  0  0  0  0  0  0  0
   -3.7820    9.1950   -0.0400 C   0  0  0  0  0  0  0  0  0  0  0  0
   -2.6220    9.9420    0.6670 C   0  0  0  0  0  0  0  0  0  0  0  0
   -1.5440   10.1150   -0.4280 C   0  0  1  0  0  0  0  0  0  0  0  0
   -2.0070   11.3560   -1.2540 C   0  0  0  0  0  0  0  0  0  0  0  0
   -0.0710   10.2710    0.0710 C   0  0  2  0  0  0  0  0  0  0  0  0
    0.1970   11.5140    0.9370 C   0  0  0  0  0  0  0  0  0  0  0  0
    0.6180   12.7340    0.1880 C   0  0  0  0  0  0  0  0  0  0  0  0
    1.0500   12.7600   -1.0860 C   0  0  0  0  0  0  0  0  0  0  0  0
    1.2420   11.4610   -1.8790 C   0  0  1  0  0  0  0  0  0  0  0  0
    2.6110   11.4970   -2.6080 C   0  0  0  0  0  0  0  0  0  0  0  0
    2.7790   12.7400   -3.4760 C   0  0  0  0  0  0  0  0  0  0  0  0
    2.6390   14.0100   -2.6420 C   0  0  2  0  0  0  0  0  0  0  0  0
    3.7400   14.0870   -1.7310 O   0  0  0  0  0  0  0  0  0  0  0  0
    1.3020   14.0820   -1.8530 C   0  0  0  0  0  0  0  0  0  0  0  0
    0.1280   14.3030   -2.8380 C   0  0  0  0  0  0  0  0  0  0  0  0
    1.3500   15.3400   -0.9450 C   0  0  0  0  0  0  0  0  0  0  0  0
    1.0190   10.1130   -1.0660 C   0  0  1  0  0  0  0  0  0  0  0  0
    2.3430    9.6930   -0.3590 C   0  0  0  0  0  0  0  0  0  0  0  0
    0.6680    8.9570   -2.0750 C   0  0  0  0  0  0  0  0  0  0  0  0
   -0.8190    8.7770   -2.4370 C   0  0  0  0  0  0  0  0  0  0  0  0
   -1.6890    8.7400   -1.1760 C   0  0  2  0  0  0  0  0  0  0  0  0
   -1.2610    7.4880   -0.3370 C   0  0  0  0  0  0  0  0  0  0  0  0
   -3.6040    6.1324   -3.5818 H   0  0  0  0  0  0  0  0  0  0  0  0
   -4.7581    7.5006   -3.7335 H   0  0  0  0  0  0  0  0  0  0  0  0
   -2.9892    7.8134   -3.7335 H   0  0  0  0  0  0  0  0  0  0  0  0
   -3.2095    6.5159   -1.3723 H   0  0  0  0  0  0  0  0  0  0  0  0
   -5.3498    6.1790   -0.8048 H   0  0  0  0  0  0  0  0  0  0  0  0
   -5.3594    7.9746   -0.4591 H   0  0  0  0  0  0  0  0  0  0  0  0
   -6.1185    8.3153   -2.8377 H   0  0  0  0  0  0  0  0  0  0  0  0
   -6.3793    6.5228   -2.9134 H   0  0  0  0  0  0  0  0  0  0  0  0
   -7.4466    8.5912   -1.3051 H   0  0  0  0  0  0  0  0  0  0  0  0
   -8.9260    5.0436   -3.1407 H   0  0  0  0  0  0  0  0  0  0  0  0
   -9.8459    6.3234   -4.0025 H   0  0  0  0  0  0  0  0  0  0  0  0
   -8.0498    6.3537   -4.0025 H   0  0  0  0  0  0  0  0  0  0  0  0
  -10.3486    7.5641   -0.6730 H   0  0  0  0  0  0  0  0  0  0  0  0
  -10.3539    8.5512   -2.1737 H   0  0  0  0  0  0  0  0  0  0  0  0
  -11.0904    6.9128   -2.1737 H   0  0  0  0  0  0  0  0  0  0  0  0
   -3.5042    9.2718   -2.2709 H   0  0  0  0  0  0  0  0  0  0  0  0
   -4.6225    9.8821   -0.2176 H   0  0  0  0  0  0  0  0  0  0  0  0
   -4.1531    8.3652    0.5794 H   0  0  0  0  0  0  0  0  0  0  0  0
   -2.9596   10.9211    1.0376 H   0  0  0  0  0  0  0  0  0  0  0  0
   -2.2436    9.3922    1.5414 H   0  0  0  0  0  0  0  0  0  0  0  0
   -2.3076   12.1617   -0.5680 H   0  0  0  0  0  0  0  0  0  0  0  0
   -1.1784   11.7044   -1.8880 H   0  0  0  0  0  0  0  0  0  0  0  0
   -2.8613   11.0765   -1.8880 H   0  0  0  0  0  0  0  0  0  0  0  0
    0.0419    9.4083    0.7441 H   0  0  0  0  0  0  0  0  0  0  0  0
   -0.7270   11.7529    1.4839 H   0  0  0  0  0  0  0  0  0  0  0  0
    1.0413   11.2524    1.5917 H   0  0  0  0  0  0  0  0  0  0  0  0
    0.5712   13.6940    0.7230 H   0  0  0  0  0  0  0  0  0  0  0  0
    0.4267   11.4317   -2.6169 H   0  0  0  0  0  0  0  0  0  0  0  0
    3.4122   11.4822   -1.8545 H   0  0  0  0  0  0  0  0  0  0  0  0
    2.6605   10.6191   -3.2689 H   0  0  0  0  0  0  0  0  0  0  0  0
    3.7758   12.7225   -3.9408 H   0  0  0  0  0  0  0  0  0  0  0  0
    1.9950   12.7382   -4.2476 H   0  0  0  0  0  0  0  0  0  0  0  0
    2.6381   14.8622   -3.3376 H   0  0  0  0  0  0  0  0  0  0  0  0
    3.3740   14.1880   -0.8350 H   0  0  0  0  0  0  0  0  0  0  0  0
   -0.7984   14.4774   -2.2711 H   0  0  0  0  0  0  0  0  0  0  0  0
    0.3403   15.1770   -3.4713 H   0  0  0  0  0  0  0  0  0  0  0  0
    0.0080   13.4117   -3.4713 H   0  0  0  0  0  0  0  0  0  0  0  0
    1.3382   15.0309    0.1106 H   0  0  0  0  0  0  0  0  0  0  0  0
    2.2704   15.9060   -1.1511 H   0  0  0  0  0  0  0  0  0  0  0  0
    0.4754   15.9745   -1.1511 H   0  0  0  0  0  0  0  0  0  0  0  0
    2.2061    9.7364    0.7316 H   0  0  0  0  0  0  0  0  0  0  0  0
    2.6071    8.6670   -0.6548 H   0  0  0  0  0  0  0  0  0  0  0  0
    3.1503   10.3792   -0.6548 H   0  0  0  0  0  0  0  0  0  0  0  0
    1.2162    9.1524   -3.0084 H   0  0  0  0  0  0  0  0  0  0  0  0
    0.9524    8.0284   -1.5584 H   0  0  0  0  0  0  0  0  0  0  0  0
   -1.1394    9.6169   -3.0709 H   0  0  0  0  0  0  0  0  0  0  0  0
   -0.9370    7.8237   -2.9731 H   0  0  0  0  0  0  0  0  0  0  0  0
   -1.3405    7.7205    0.7352 H   0  0  0  0  0  0  0  0  0  0  0  0
   -1.9209    6.6417   -0.5786 H   0  0  0  0  0  0  0  0  0  0  0  0
   -0.2211    7.2228   -0.5786 H   0  0  0  0  0  0  0  0  0  0  0  0
  1  2  1  0
  2  3  1  0
  3  4  1  0
  4  5  1  0
  5  6  1  0
  6  7  1  0
  7  8  1  0
  7  9  1  0
  2 10  1  0
 10 11  1  0
 11 12  1  0
 12 13  1  0
 13 14  1  6
 13 15  1  0
 15 16  1  0
 16 17  1  0
 17 18  2  0
 18 19  1  0
 19 20  1  0
 20 21  1  0
 21 22  1  0
 22 23  1  0
 22 24  1  0
 24 25  1  0
 24 26  1  0
 19 27  1  0
 27 28  1  1
 27 29  1  0
 29 30  1  0
 30 31  1  0
 31 32  1  1
  7  5  1  0
 31 10  1  0
 31 13  1  0
 27 15  1  0
 24 18  1  0
  1 33  1  0
  1 34  1  0
  1 35  1  0
  2 36  1  1
  3 37  1  0
  3 38  1  0
  4 39  1  0
  4 40  1  0
  5 41  1  1
  8 42  1  0
  8 43  1  0
  8 44  1  0
  9 45  1  0
  9 46  1  0
  9 47  1  0
 10 48  1  6
 11 49  1  0
 11 50  1  0
 12 51  1  0
 12 52  1  0
 14 53  1  0
 14 54  1  0
 14 55  1  0
 15 56  1  1
 16 57  1  0
 16 58  1  0
 17 59  1  0
 19 60  1  6
 20 61  1  0
 20 62  1  0
 21 63  1  0
 21 64  1  0
 22 65  1  6
 23 66  1  0
 25 67  1  0
 25 68  1  0
 25 69  1  0
 26 70  1  0
 26 71  1  0
 26 72  1  0
 28 73  1  0
 28 74  1  0
 28 75  1  0
 29 76  1  0
 29 77  1  0
 30 78  1  0
 30 79  1  0
 32 80  1  0
 32 81  1  0
 32 82  1  0
M  END
>  <meeko>  (8) 
{"is_sidechain": [false], "intermolecular_energy": 2.731, "internal_energy": -0.839}

$$$$
EPH_relaxed_0001_pdb2pqr_Repair_136_r2_0001_out
     RDKit          3D

 82 86  0  0  0  0  0  0  0  0999 V2000
    0.1950    8.9400   -2.6730 C   0  0  0  0  0  0  0  0  0  0  0  0
    0.9900   10.0970   -3.2840 C   0  0  2  0  0  0  0  0  0  0  0  0
    2.4820   10.0450   -2.8990 C   0  0  0  0  0  0  0  0  0  0  0  0
    3.4050   10.7150   -3.9200 C   0  0  0  0  0  0  0  0  0  0  0  0
    4.7950   10.8830   -3.3850 C   0  0  2  0  0  0  0  0  0  0  0  0
    5.5060   12.0120   -3.9080 O   0  0  0  0  0  0  0  0  0  0  0  0
    6.0430   10.7200   -4.2320 C   0  0  0  0  0  0  0  0  0  0  0  0
    5.9590   10.3730   -5.6850 C   0  0  0  0  0  0  0  0  0  0  0  0
    7.3380   10.4160   -3.5460 C   0  0  0  0  0  0  0  0  0  0  0  0
    0.3860   11.4280   -2.8500 C   0  0  1  0  0  0  0  0  0  0  0  0
   -0.9960   11.2620   -2.1650 C   0  0  0  0  0  0  0  0  0  0  0  0
   -1.0840   12.3500   -1.0640 C   0  0  0  0  0  0  0  0  0  0  0  0
    0.0930   13.3070   -1.3670 C   0  0  1  0  0  0  0  0  0  0  0  0
   -0.4300   14.2380   -2.5050 C   0  0  0  0  0  0  0  0  0  0  0  0
    0.6450   14.1280   -0.1560 C   0  0  2  0  0  0  0  0  0  0  0  0
   -0.3600   15.1010    0.4840 C   0  0  0  0  0  0  0  0  0  0  0  0
   -0.3660   16.4800   -0.0880 C   0  0  0  0  0  0  0  0  0  0  0  0
    0.5920   17.0040   -0.8760 C   0  0  0  0  0  0  0  0  0  0  0  0
    1.8720   16.2190   -1.1870 C   0  0  1  0  0  0  0  0  0  0  0  0
    3.1040   17.1450   -1.0070 C   0  0  0  0  0  0  0  0  0  0  0  0
    2.9950   18.4290   -1.8220 C   0  0  0  0  0  0  0  0  0  0  0  0
    1.7390   19.2110   -1.4430 C   0  0  2  0  0  0  0  0  0  0  0  0
    1.8770   19.6780   -0.0970 O   0  0  0  0  0  0  0  0  0  0  0  0
    0.4350   18.3760   -1.5750 C   0  0  0  0  0  0  0  0  0  0  0  0
    0.1270   18.1260   -3.0730 C   0  0  0  0  0  0  0  0  0  0  0  0
   -0.7380   19.2340   -1.0290 C   0  0  0  0  0  0  0  0  0  0  0  0
    2.0360   14.8310   -0.4300 C   0  0  1  0  0  0  0  0  0  0  0  0
    2.7010   15.0590    0.9620 C   0  0  0  0  0  0  0  0  0  0  0  0
    3.0200   13.9130   -1.2470 C   0  0  0  0  0  0  0  0  0  0  0  0
    2.3970   13.0360   -2.3500 C   0  0  0  0  0  0  0  0  0  0  0  0
    1.1820   12.2680   -1.8200 C   0  0  2  0  0  0  0  0  0  0  0  0
    1.6820   11.3060   -0.6880 C   0  0  0  0  0  0  0  0  0  0  0  0
    0.2390    9.0040   -1.5757 H   0  0  0  0  0  0  0  0  0  0  0  0
   -0.8528    9.0010   -3.0021 H   0  0  0  0  0  0  0  0  0  0  0  0
    0.6276    7.9837   -3.0021 H   0  0  0  0  0  0  0  0  0  0  0  0
    0.9287    9.9991   -4.3779 H   0  0  0  0  0  0  0  0  0  0  0  0
    2.6087   10.5521   -1.9311 H   0  0  0  0  0  0  0  0  0  0  0  0
    2.7662    8.9832   -2.8571 H   0  0  0  0  0  0  0  0  0  0  0  0
    3.4448   10.0931   -4.8265 H   0  0  0  0  0  0  0  0  0  0  0  0
    3.0010   11.7133   -4.1439 H   0  0  0  0  0  0  0  0  0  0  0  0
    4.4990   10.4532   -2.4167 H   0  0  0  0  0  0  0  0  0  0  0  0
    5.7015    9.3091   -5.7936 H   0  0  0  0  0  0  0  0  0  0  0  0
    5.1840   10.9887   -6.1648 H   0  0  0  0  0  0  0  0  0  0  0  0
    6.9298   10.5661   -6.1648 H   0  0  0  0  0  0  0  0  0  0  0  0
    7.1925   10.4502   -2.4562 H   0  0  0  0  0  0  0  0  0  0  0  0
    7.6814    9.4128   -3.8388 H   0  0  0  0  0  0  0  0  0  0  0  0
    8.0919   11.1616   -3.8388 H   0  0  0  0  0  0  0  0  0  0  0  0
    0.3634   11.9451   -3.8206 H   0  0  0  0  0  0  0  0  0  0  0  0
   -1.8022   11.4013   -2.9003 H   0  0  0  0  0  0  0  0  0  0  0  0
   -1.1048   10.2555   -1.7348 H   0  0  0  0  0  0  0  0  0  0  0  0
   -2.0438   12.8843   -1.1217 H   0  0  0  0  0  0  0  0  0  0  0  0
   -1.0260   11.9246   -0.0512 H   0  0  0  0  0  0  0  0  0  0  0  0
   -0.9233   15.1161   -2.0627 H   0  0  0  0  0  0  0  0  0  0  0  0
    0.4154   14.5670   -3.1272 H   0  0  0  0  0  0  0  0  0  0  0  0
   -1.1507   13.6872   -3.1272 H   0  0  0  0  0  0  0  0  0  0  0  0
    0.8253   13.3465    0.5969 H   0  0  0  0  0  0  0  0  0  0  0  0
   -1.3679   14.6779    0.3613 H   0  0  0  0  0  0  0  0  0  0  0  0
   -0.0520   15.2089    1.5345 H   0  0  0  0  0  0  0  0  0  0  0  0
   -1.2255   17.1222    0.1547 H   0  0  0  0  0  0  0  0  0  0  0  0
    1.7894   15.9075   -2.2387 H   0  0  0  0  0  0  0  0  0  0  0  0
    3.1938   17.4094    0.0570 H   0  0  0  0  0  0  0  0  0  0  0  0
    3.9883   16.5970   -1.3643 H   0  0  0  0  0  0  0  0  0  0  0  0
    3.8797   19.0537   -1.6297 H   0  0  0  0  0  0  0  0  0  0  0  0
    2.9355   18.1643   -2.8880 H   0  0  0  0  0  0  0  0  0  0  0  0
    1.6465   20.0504   -2.1479 H   0  0  0  0  0  0  0  0  0  0  0  0
    1.4420   20.5460   -0.0420 H   0  0  0  0  0  0  0  0  0  0  0  0
   -0.7243   17.4350   -3.1620 H   0  0  0  0  0  0  0  0  0  0  0  0
   -0.1227   19.0801   -3.5602 H   0  0  0  0  0  0  0  0  0  0  0  0
    1.0093   17.6854   -3.5602 H   0  0  0  0  0  0  0  0  0  0  0  0
   -0.7206   19.2213    0.0708 H   0  0  0  0  0  0  0  0  0  0  0  0
   -0.6320   20.2692   -1.3855 H   0  0  0  0  0  0  0  0  0  0  0  0
   -1.6925   18.8194   -1.3855 H   0  0  0  0  0  0  0  0  0  0  0  0
    1.9817   14.8124    1.7568 H   0  0  0  0  0  0  0  0  0  0  0  0
    3.5865   14.4131    1.0555 H   0  0  0  0  0  0  0  0  0  0  0  0
    3.0039   16.1123    1.0555 H   0  0  0  0  0  0  0  0  0  0  0  0
    3.7665   14.5659   -1.7229 H   0  0  0  0  0  0  0  0  0  0  0  0
    3.4293   13.2040   -0.5123 H   0  0  0  0  0  0  0  0  0  0  0  0
    2.0802   13.6787   -3.1846 H   0  0  0  0  0  0  0  0  0  0  0  0
    3.1508   12.3095   -2.6877 H   0  0  0  0  0  0  0  0  0  0  0  0
    1.4535   11.7455    0.2941 H   0  0  0  0  0  0  0  0  0  0  0  0
    1.1747   10.3345   -0.7819 H   0  0  0  0  0  0  0  0  0  0  0  0
    2.7686   11.1629   -0.7819 H   0  0  0  0  0  0  0  0  0  0  0  0
  1  2  1  0
  2  3  1  0
  3  4  1  0
  4  5  1  0
  5  6  1  0
  6  7  1  0
  7  8  1  0
  7  9  1  0
  2 10  1  0
 10 11  1  0
 11 12  1  0
 12 13  1  0
 13 14  1  6
 13 15  1  0
 15 16  1  0
 16 17  1  0
 17 18  2  0
 18 19  1  0
 19 20  1  0
 20 21  1  0
 21 22  1  0
 22 23  1  0
 22 24  1  0
 24 25  1  0
 24 26  1  0
 19 27  1  0
 27 28  1  1
 27 29  1  0
 29 30  1  0
 30 31  1  0
 31 32  1  1
  7  5  1  0
 31 10  1  0
 31 13  1  0
 27 15  1  0
 24 18  1  0
  1 33  1  0
  1 34  1  0
  1 35  1  0
  2 36  1  6
  3 37  1  0
  3 38  1  0
  4 39  1  0
  4 40  1  0
  5 41  1  1
  8 42  1  0
  8 43  1  0
  8 44  1  0
  9 45  1  0
  9 46  1  0
  9 47  1  0
 10 48  1  6
 11 49  1  0
 11 50  1  0
 12 51  1  0
 12 52  1  0
 14 53  1  0
 14 54  1  0
 14 55  1  0
 15 56  1  1
 16 57  1  0
 16 58  1  0
 17 59  1  0
 19 60  1  6
 20 61  1  0
 20 62  1  0
 21 63  1  0
 21 64  1  0
 22 65  1  6
 23 66  1  0
 25 67  1  0
 25 68  1  0
 25 69  1  0
 26 70  1  0
 26 71  1  0
 26 72  1  0
 28 73  1  0
 28 74  1  0
 28 75  1  0
 29 76  1  0
 29 77  1  0
 30 78  1  0
 30 79  1  0
 32 80  1  0
 32 81  1  0
 32 82  1  0
M  END
>  <meeko>  (9) 
{"is_sidechain": [false], "intermolecular_energy": 2.731, "internal_energy": -0.839}

$$$$
EPH_relaxed_0001_pdb2pqr_Repair_136_r2_0001_out
     RDKit          3D

 82 86  0  0  0  0  0  0  0  0999 V2000
    3.3570   14.7720   -7.3500 C   0  0  0  0  0  0  0  0  0  0  0  0
    1.8550   15.0500   -7.2530 C   0  0  2  0  0  0  0  0  0  0  0  0
    1.4810   16.4300   -7.8320 C   0  0  0  0  0  0  0  0  0  0  0  0
    2.2260   16.7760   -9.1250 C   0  0  0  0  0  0  0  0  0  0  0  0
    1.5130   16.2490  -10.3330 C   0  0  2  0  0  0  0  0  0  0  0  0
    0.9310   14.9500  -10.1660 O   0  0  0  0  0  0  0  0  0  0  0  0
    1.9920   15.0500  -11.1300 C   0  0  0  0  0  0  0  0  0  0  0  0
    3.2320   14.3050  -10.7490 C   0  0  0  0  0  0  0  0  0  0  0  0
    1.5330   14.9040  -12.5480 C   0  0  0  0  0  0  0  0  0  0  0  0
    1.4010   14.9560   -5.8010 C   0  0  1  0  0  0  0  0  0  0  0  0
    0.1200   15.7850   -5.5200 C   0  0  0  0  0  0  0  0  0  0  0  0
   -0.7000   14.9980   -4.4650 C   0  0  0  0  0  0  0  0  0  0  0  0
    0.2780   13.9250   -3.9320 C   0  0  1  0  0  0  0  0  0  0  0  0
    1.1560   14.6700   -2.8780 C   0  0  0  0  0  0  0  0  0  0  0  0
   -0.3700   12.6340   -3.3340 C   0  0  2  0  0  0  0  0  0  0  0  0
   -1.2520   12.8620   -2.0930 C   0  0  0  0  0  0  0  0  0  0  0  0
   -0.5420   12.7740   -0.7820 C   0  0  0  0  0  0  0  0  0  0  0  0
    0.6800   12.2460   -0.5880 C   0  0  0  0  0  0  0  0  0  0  0  0
    1.4400   11.5740   -1.7400 C   0  0  1  0  0  0  0  0  0  0  0  0
    2.0230   10.2210   -1.2560 C   0  0  0  0  0  0  0  0  0  0  0  0
    2.8770   10.3670   -0.0000 C   0  0  0  0  0  0  0  0  0  0  0  0
    2.0700   10.9840    1.1390 C   0  0  2  0  0  0  0  0  0  0  0  0
    1.0500   10.0620    1.5340 O   0  0  0  0  0  0  0  0  0  0  0  0
    1.4260   12.3480    0.7650 C   0  0  0  0  0  0  0  0  0  0  0  0
    2.5300   13.4260    0.6310 C   0  0  0  0  0  0  0  0  0  0  0  0
    0.5270   12.7930    1.9500 C   0  0  0  0  0  0  0  0  0  0  0  0
    0.6460   11.4420   -3.1100 C   0  0  1  0  0  0  0  0  0  0  0  0
   -0.1990   10.1310   -3.1110 C   0  0  0  0  0  0  0  0  0  0  0  0
    1.6780   11.3060   -4.2910 C   0  0  0  0  0  0  0  0  0  0  0  0
    2.1910   12.6150   -4.9200 C   0  0  0  0  0  0  0  0  0  0  0  0
    1.0280   13.5510   -5.2630 C   0  0  2  0  0  0  0  0  0  0  0  0
    0.1400   12.8370   -6.3370 C   0  0  0  0  0  0  0  0  0  0  0  0
    3.7814   14.6934   -6.3382 H   0  0  0  0  0  0  0  0  0  0  0  0
    3.5210   13.8282   -7.8907 H   0  0  0  0  0  0  0  0  0  0  0  0
    3.8480   15.5945   -7.8907 H   0  0  0  0  0  0  0  0  0  0  0  0
    1.3387   14.2875   -7.8546 H   0  0  0  0  0  0  0  0  0  0  0  0
    0.4009   16.4384   -8.0403 H   0  0  0  0  0  0  0  0  0  0  0  0
    1.7690   17.1824   -7.0830 H   0  0  0  0  0  0  0  0  0  0  0  0
    2.3073   17.8699   -9.2079 H   0  0  0  0  0  0  0  0  0  0  0  0
    3.2211   16.3090   -9.0831 H   0  0  0  0  0  0  0  0  0  0  0  0
    1.2215   17.2662  -10.6336 H   0  0  0  0  0  0  0  0  0  0  0  0
    3.3095   14.2584   -9.6527 H   0  0  0  0  0  0  0  0  0  0  0  0
    3.1866   13.2845  -11.1571 H   0  0  0  0  0  0  0  0  0  0  0  0
    4.1117   14.8243  -11.1571 H   0  0  0  0  0  0  0  0  0  0  0  0
    0.4848   14.5706  -12.5616 H   0  0  0  0  0  0  0  0  0  0  0  0
    1.6163   15.8730  -13.0620 H   0  0  0  0  0  0  0  0  0  0  0  0
    2.1608   14.1612  -13.0620 H   0  0  0  0  0  0  0  0  0  0  0  0
    2.3088   15.3227   -5.2996 H   0  0  0  0  0  0  0  0  0  0  0  0
    0.3892   16.7768   -5.1277 H   0  0  0  0  0  0  0  0  0  0  0  0
   -0.4626   15.9358   -6.4408 H   0  0  0  0  0  0  0  0  0  0  0  0
   -1.0272   15.6632   -3.6523 H   0  0  0  0  0  0  0  0  0  0  0  0
   -1.6127   14.5558   -4.8910 H   0  0  0  0  0  0  0  0  0  0  0  0
    0.8283   14.3919   -1.8654 H   0  0  0  0  0  0  0  0  0  0  0  0
    2.2103   14.3867   -3.0129 H   0  0  0  0  0  0  0  0  0  0  0  0
    1.0481   15.7563   -3.0129 H   0  0  0  0  0  0  0  0  0  0  0  0
   -1.0558   12.3214   -4.1353 H   0  0  0  0  0  0  0  0  0  0  0  0
   -1.6974   13.8647   -2.1719 H   0  0  0  0  0  0  0  0  0  0  0  0
   -1.9938   12.0498   -2.0929 H   0  0  0  0  0  0  0  0  0  0  0  0
   -1.0626   13.1751    0.1001 H   0  0  0  0  0  0  0  0  0  0  0  0
    2.2588   12.2591   -2.0051 H   0  0  0  0  0  0  0  0  0  0  0  0
    1.1903    9.5360   -1.0384 H   0  0  0  0  0  0  0  0  0  0  0  0
    2.6698    9.8312   -2.0558 H   0  0  0  0  0  0  0  0  0  0  0  0
    3.2353    9.3740    0.3093 H   0  0  0  0  0  0  0  0  0  0  0  0
    3.7261   11.0283   -0.2274 H   0  0  0  0  0  0  0  0  0  0  0  0
    2.7669   11.1831    1.9665 H   0  0  0  0  0  0  0  0  0  0  0  0
    1.4880    9.2380    1.8070 H   0  0  0  0  0  0  0  0  0  0  0  0
    2.8556   13.7439    1.6325 H   0  0  0  0  0  0  0  0  0  0  0  0
    3.3867   13.0073    0.0827 H   0  0  0  0  0  0  0  0  0  0  0  0
    2.1318   14.2925    0.0827 H   0  0  0  0  0  0  0  0  0  0  0  0
    1.0241   12.5469    2.8999 H   0  0  0  0  0  0  0  0  0  0  0  0
    0.3584   13.8786    1.8948 H   0  0  0  0  0  0  0  0  0  0  0  0
   -0.4385   12.2687    1.8948 H   0  0  0  0  0  0  0  0  0  0  0  0
   -0.3980    9.8222   -2.0741 H   0  0  0  0  0  0  0  0  0  0  0  0
   -1.1524   10.3097   -3.6298 H   0  0  0  0  0  0  0  0  0  0  0  0
    0.3575    9.3365   -3.6298 H   0  0  0  0  0  0  0  0  0  0  0  0
    2.5507   10.7564   -3.9085 H   0  0  0  0  0  0  0  0  0  0  0  0
    1.1283   10.7963   -5.0960 H   0  0  0  0  0  0  0  0  0  0  0  0
    2.8601   13.1188   -4.2070 H   0  0  0  0  0  0  0  0  0  0  0  0
    2.7300   12.3709   -5.8473 H   0  0  0  0  0  0  0  0  0  0  0  0
   -0.6223   12.2241   -5.8338 H   0  0  0  0  0  0  0  0  0  0  0  0
   -0.3536   13.5926   -6.9658 H   0  0  0  0  0  0  0  0  0  0  0  0
    0.7720   12.1927   -6.9658 H   0  0  0  0  0  0  0  0  0  0  0  0
  1  2  1  0
  2  3  1  0
  3  4  1  0
  4  5  1  0
  5  6  1  0
  6  7  1  0
  7  8  1  0
  7  9  1  0
  2 10  1  0
 10 11  1  0
 11 12  1  0
 12 13  1  0
 13 14  1  1
 13 15  1  0
 15 16  1  0
 16 17  1  0
 17 18  2  0
 18 19  1  0
 19 20  1  0
 20 21  1  0
 21 22  1  0
 22 23  1  0
 22 24  1  0
 24 25  1  0
 24 26  1  0
 19 27  1  0
 27 28  1  1
 27 29  1  0
 29 30  1  0
 30 31  1  0
 31 32  1  6
  7  5  1  0
 31 10  1  0
 31 13  1  0
 27 15  1  0
 24 18  1  0
  1 33  1  0
  1 34  1  0
  1 35  1  0
  2 36  1  6
  3 37  1  0
  3 38  1  0
  4 39  1  0
  4 40  1  0
  5 41  1  6
  8 42  1  0
  8 43  1  0
  8 44  1  0
  9 45  1  0
  9 46  1  0
  9 47  1  0
 10 48  1  1
 11 49  1  0
 11 50  1  0
 12 51  1  0
 12 52  1  0
 14 53  1  0
 14 54  1  0
 14 55  1  0
 15 56  1  6
 16 57  1  0
 16 58  1  0
 17 59  1  0
 19 60  1  6
 20 61  1  0
 20 62  1  0
 21 63  1  0
 21 64  1  0
 22 65  1  1
 23 66  1  0
 25 67  1  0
 25 68  1  0
 25 69  1  0
 26 70  1  0
 26 71  1  0
 26 72  1  0
 28 73  1  0
 28 74  1  0
 28 75  1  0
 29 76  1  0
 29 77  1  0
 30 78  1  0
 30 79  1  0
 32 80  1  0
 32 81  1  0
 32 82  1  0
M  END
>  <meeko>  (10) 
{"is_sidechain": [false], "intermolecular_energy": 2.731, "internal_energy": -0.839}

$$$$
EPH_relaxed_0001_pdb2pqr_Repair_136_r2_0001_out
     RDKit          3D

 82 86  0  0  0  0  0  0  0  0999 V2000
    3.4620   10.6150   -3.7360 C   0  0  0  0  0  0  0  0  0  0  0  0
    2.4380   11.1760   -4.7270 C   0  0  2  0  0  0  0  0  0  0  0  0
    3.1110   11.8150   -5.9580 C   0  0  0  0  0  0  0  0  0  0  0  0
    3.1090   13.3460   -5.9350 C   0  0  0  0  0  0  0  0  0  0  0  0
    2.4670   13.9180   -7.1630 C   0  0  2  0  0  0  0  0  0  0  0  0
    2.7030   15.3170   -7.3650 O   0  0  0  0  0  0  0  0  0  0  0  0
    1.3400   14.9320   -7.1230 C   0  0  0  0  0  0  0  0  0  0  0  0
    0.7870   15.4330   -5.8260 C   0  0  0  0  0  0  0  0  0  0  0  0
    0.4540   15.0650   -8.3220 C   0  0  0  0  0  0  0  0  0  0  0  0
    1.5470   12.1980   -4.0310 C   0  0  1  0  0  0  0  0  0  0  0  0
    0.1330   11.6420   -3.7140 C   0  0  0  0  0  0  0  0  0  0  0  0
   -0.3080   12.2780   -2.3710 C   0  0  0  0  0  0  0  0  0  0  0  0
    0.7080   13.4190   -2.1280 C   0  0  1  0  0  0  0  0  0  0  0  0
    0.1940   14.6060   -3.0030 C   0  0  0  0  0  0  0  0  0  0  0  0
    0.9210   13.8490   -0.6400 C   0  0  2  0  0  0  0  0  0  0  0  0
   -0.3260   14.4190    0.0600 C   0  0  0  0  0  0  0  0  0  0  0  0
   -0.4980   15.8980   -0.0490 C   0  0  0  0  0  0  0  0  0  0  0  0
    0.4520   16.7700   -0.4340 C   0  0  0  0  0  0  0  0  0  0  0  0
    1.8850   16.3000   -0.7150 C   0  0  1  0  0  0  0  0  0  0  0  0
    2.8900   17.2570   -0.0220 C   0  0  0  0  0  0  0  0  0  0  0  0
    2.6680   18.7160   -0.4060 C   0  0  0  0  0  0  0  0  0  0  0  0
    1.2510   19.1630   -0.0580 C   0  0  2  0  0  0  0  0  0  0  0  0
    1.1060   19.1660    1.3660 O   0  0  0  0  0  0  0  0  0  0  0  0
    0.1520   18.2670   -0.6940 C   0  0  0  0  0  0  0  0  0  0  0  0
    0.1140   18.4970   -2.2250 C   0  0  0  0  0  0  0  0  0  0  0  0
   -1.2230   18.7390   -0.1500 C   0  0  0  0  0  0  0  0  0  0  0  0
    2.1860   14.7700   -0.4060 C   0  0  1  0  0  0  0  0  0  0  0  0
    2.5910   14.5990    1.0900 C   0  0  0  0  0  0  0  0  0  0  0  0
    3.4280   14.3080   -1.2580 C   0  0  0  0  0  0  0  0  0  0  0  0
    3.1400   13.7820   -2.6770 C   0  0  0  0  0  0  0  0  0  0  0  0
    2.0210   12.7360   -2.6570 C   0  0  2  0  0  0  0  0  0  0  0  0
    2.5170   11.5200   -1.8020 C   0  0  0  0  0  0  0  0  0  0  0  0
    3.1186   10.8031   -2.7080 H   0  0  0  0  0  0  0  0  0  0  0  0
    3.5699    9.5318   -3.8941 H   0  0  0  0  0  0  0  0  0  0  0  0
    4.4330   11.1071   -3.8941 H   0  0  0  0  0  0  0  0  0  0  0  0
    1.8278   10.3336   -5.0848 H   0  0  0  0  0  0  0  0  0  0  0  0
    4.1545   11.4697   -6.0017 H   0  0  0  0  0  0  0  0  0  0  0  0
    2.5294   11.5059   -6.8391 H   0  0  0  0  0  0  0  0  0  0  0  0
    2.5532   13.6885   -5.0497 H   0  0  0  0  0  0  0  0  0  0  0  0
    4.1534   13.6899   -5.9021 H   0  0  0  0  0  0  0  0  0  0  0  0
    2.5806   12.9625   -7.6959 H   0  0  0  0  0  0  0  0  0  0  0  0
    1.3177   14.9522   -4.9910 H   0  0  0  0  0  0  0  0  0  0  0  0
    0.9214   16.5231   -5.7668 H   0  0  0  0  0  0  0  0  0  0  0  0
   -0.2846   15.1919   -5.7668 H   0  0  0  0  0  0  0  0  0  0  0  0
   -0.5846   15.2209   -7.9949 H   0  0  0  0  0  0  0  0  0  0  0  0
    0.7811   15.9241   -8.9261 H   0  0  0  0  0  0  0  0  0  0  0  0
    0.5144   14.1477   -8.9261 H   0  0  0  0  0  0  0  0  0  0  0  0
    1.5713   13.0032   -4.7800 H   0  0  0  0  0  0  0  0  0  0  0  0
   -0.5705   11.9187   -4.5130 H   0  0  0  0  0  0  0  0  0  0  0  0
    0.1471   10.5443   -3.6449 H   0  0  0  0  0  0  0  0  0  0  0  0
   -1.3300   12.6777   -2.4475 H   0  0  0  0  0  0  0  0  0  0  0  0
   -0.3209   11.5483   -1.5480 H   0  0  0  0  0  0  0  0  0  0  0  0
   -0.1576   15.4179   -2.3494 H   0  0  0  0  0  0  0  0  0  0  0  0
    1.0130   14.9750   -3.6380 H   0  0  0  0  0  0  0  0  0  0  0  0
   -0.6354   14.2612   -3.6380 H   0  0  0  0  0  0  0  0  0  0  0  0
    1.1290   12.8889   -0.1451 H   0  0  0  0  0  0  0  0  0  0  0  0
   -1.2124   13.9402   -0.3816 H   0  0  0  0  0  0  0  0  0  0  0  0
   -0.1980   14.2055    1.1315 H   0  0  0  0  0  0  0  0  0  0  0  0
   -1.4852   16.3100    0.2072 H   0  0  0  0  0  0  0  0  0  0  0  0
    2.0132   16.3518   -1.8063 H   0  0  0  0  0  0  0  0  0  0  0  0
    2.7770   17.1581    1.0677 H   0  0  0  0  0  0  0  0  0  0  0  0
    3.9009   16.9751   -0.3515 H   0  0  0  0  0  0  0  0  0  0  0  0
    3.3876   19.3449    0.1386 H   0  0  0  0  0  0  0  0  0  0  0  0
    2.8114   18.8186   -1.4918 H   0  0  0  0  0  0  0  0  0  0  0  0
    1.1114   20.1717   -0.4738 H   0  0  0  0  0  0  0  0  0  0  0  0
    0.1860   18.9250    1.5680 H   0  0  0  0  0  0  0  0  0  0  0  0
   -0.0621   19.5630   -2.4314 H   0  0  0  0  0  0  0  0  0  0  0  0
    1.0747   18.1921   -2.6655 H   0  0  0  0  0  0  0  0  0  0  0  0
   -0.6976   17.8993   -2.6655 H   0  0  0  0  0  0  0  0  0  0  0  0
   -1.2040   18.7325    0.9498 H   0  0  0  0  0  0  0  0  0  0  0  0
   -1.4281   19.7590   -0.5072 H   0  0  0  0  0  0  0  0  0  0  0  0
   -2.0113   18.0600   -0.5072 H   0  0  0  0  0  0  0  0  0  0  0  0
    1.7696   14.9458    1.7342 H   0  0  0  0  0  0  0  0  0  0  0  0
    2.7952   13.5379    1.2956 H   0  0  0  0  0  0  0  0  0  0  0  0
    3.4939   15.1927    1.2956 H   0  0  0  0  0  0  0  0  0  0  0  0
    4.1051   15.1697   -1.3536 H   0  0  0  0  0  0  0  0  0  0  0  0
    3.8480   13.4499   -0.7127 H   0  0  0  0  0  0  0  0  0  0  0  0
    2.8353   14.6228   -3.3176 H   0  0  0  0  0  0  0  0  0  0  0  0
    4.0536   13.3110   -3.0688 H   0  0  0  0  0  0  0  0  0  0  0  0
    2.4193   11.7594   -0.7328 H   0  0  0  0  0  0  0  0  0  0  0  0
    1.9083   10.6343   -2.0365 H   0  0  0  0  0  0  0  0  0  0  0  0
    3.5715   11.3127   -2.0365 H   0  0  0  0  0  0  0  0  0  0  0  0
  1  2  1  0
  2  3  1  0
  3  4  1  0
  4  5  1  0
  5  6  1  0
  6  7  1  0
  7  8  1  0
  7  9  1  0
  2 10  1  0
 10 11  1  0
 11 12  1  0
 12 13  1  0
 13 14  1  6
 13 15  1  0
 15 16  1  0
 16 17  1  0
 17 18  2  0
 18 19  1  0
 19 20  1  0
 20 21  1  0
 21 22  1  0
 22 23  1  0
 22 24  1  0
 24 25  1  0
 24 26  1  0
 19 27  1  0
 27 28  1  1
 27 29  1  0
 29 30  1  0
 30 31  1  0
 31 32  1  1
  7  5  1  0
 31 10  1  0
 31 13  1  0
 27 15  1  0
 24 18  1  0
  1 33  1  0
  1 34  1  0
  1 35  1  0
  2 36  1  6
  3 37  1  0
  3 38  1  0
  4 39  1  0
  4 40  1  0
  5 41  1  6
  8 42  1  0
  8 43  1  0
  8 44  1  0
  9 45  1  0
  9 46  1  0
  9 47  1  0
 10 48  1  6
 11 49  1  0
 11 50  1  0
 12 51  1  0
 12 52  1  0
 14 53  1  0
 14 54  1  0
 14 55  1  0
 15 56  1  1
 16 57  1  0
 16 58  1  0
 17 59  1  0
 19 60  1  6
 20 61  1  0
 20 62  1  0
 21 63  1  0
 21 64  1  0
 22 65  1  6
 23 66  1  0
 25 67  1  0
 25 68  1  0
 25 69  1  0
 26 70  1  0
 26 71  1  0
 26 72  1  0
 28 73  1  0
 28 74  1  0
 28 75  1  0
 29 76  1  0
 29 77  1  0
 30 78  1  0
 30 79  1  0
 32 80  1  0
 32 81  1  0
 32 82  1  0
M  END
>  <meeko>  (11) 
{"is_sidechain": [false], "intermolecular_energy": 2.731, "internal_energy": -0.839}

$$$$
EPH_relaxed_0001_pdb2pqr_Repair_136_r2_0001_out
     RDKit          3D

 82 86  0  0  0  0  0  0  0  0999 V2000
    3.1300   18.8680   -1.0530 C   0  0  0  0  0  0  0  0  0  0  0  0
    1.6440   18.9630   -0.6950 C   0  0  2  0  0  0  0  0  0  0  0  0
    1.3910   19.9260    0.4820 C   0  0  0  0  0  0  0  0  0  0  0  0
    2.0630   19.4920    1.7870 C   0  0  0  0  0  0  0  0  0  0  0  0
    3.5560   19.6060    1.7060 C   0  0  2  0  0  0  0  0  0  0  0  0
    4.2690   18.4280    2.1050 O   0  0  0  0  0  0  0  0  0  0  0  0
    4.4630   19.5940    2.9220 C   0  0  0  0  0  0  0  0  0  0  0  0
    3.9100   19.4650    4.3070 C   0  0  0  0  0  0  0  0  0  0  0  0
    5.8290   20.1940    2.8020 C   0  0  0  0  0  0  0  0  0  0  0  0
    1.1000   17.5790   -0.3630 C   0  0  1  0  0  0  0  0  0  0  0  0
   -0.3530   17.6220    0.1790 C   0  0  0  0  0  0  0  0  0  0  0  0
   -1.0640   16.3470   -0.3430 C   0  0  0  0  0  0  0  0  0  0  0  0
    0.0790   15.4560   -0.8820 C   0  0  1  0  0  0  0  0  0  0  0  0
    0.6750   14.7600    0.3820 C   0  0  0  0  0  0  0  0  0  0  0  0
   -0.3140   14.4180   -1.9820 C   0  0  2  0  0  0  0  0  0  0  0  0
   -1.3270   13.3480   -1.5380 C   0  0  0  0  0  0  0  0  0  0  0  0
   -0.7320   12.1020   -0.9720 C   0  0  0  0  0  0  0  0  0  0  0  0
    0.5570   11.7290   -1.0850 C   0  0  0  0  0  0  0  0  0  0  0  0
    1.5430   12.5500   -1.9260 C   0  0  1  0  0  0  0  0  0  0  0  0
    2.3700   11.5990   -2.8300 C   0  0  0  0  0  0  0  0  0  0  0  0
    3.0590   10.4910   -2.0390 C   0  0  0  0  0  0  0  0  0  0  0  0
    2.0400    9.6610   -1.2620 C   0  0  2  0  0  0  0  0  0  0  0  0
    1.2210    8.9470   -2.1940 O   0  0  0  0  0  0  0  0  0  0  0  0
    1.1420   10.5140   -0.3240 C   0  0  0  0  0  0  0  0  0  0  0  0
    1.9840   11.0440    0.8630 C   0  0  0  0  0  0  0  0  0  0  0  0
    0.0670    9.5770    0.2910 C   0  0  0  0  0  0  0  0  0  0  0  0
    0.9200   13.7690   -2.7320 C   0  0  1  0  0  0  0  0  0  0  0  0
    0.3920   13.2790   -4.1150 C   0  0  0  0  0  0  0  0  0  0  0  0
    2.0540   14.8180   -3.0360 C   0  0  0  0  0  0  0  0  0  0  0  0
    2.3140   15.8920   -1.9620 C   0  0  0  0  0  0  0  0  0  0  0  0
    1.0050   16.5550   -1.5210 C   0  0  2  0  0  0  0  0  0  0  0  0
    0.3940   17.2830   -2.7670 C   0  0  0  0  0  0  0  0  0  0  0  0
    3.7277   18.8298   -0.1304 H   0  0  0  0  0  0  0  0  0  0  0  0
    3.3075   17.9567   -1.6429 H   0  0  0  0  0  0  0  0  0  0  0  0
    3.4221   19.7493   -1.6429 H   0  0  0  0  0  0  0  0  0  0  0  0
    1.1173   19.3683   -1.5715 H   0  0  0  0  0  0  0  0  0  0  0  0
    1.7754   20.9192    0.2069 H   0  0  0  0  0  0  0  0  0  0  0  0
    0.3064   19.9320    0.6653 H   0  0  0  0  0  0  0  0  0  0  0  0
    1.7004   20.1320    2.6048 H   0  0  0  0  0  0  0  0  0  0  0  0
    1.8088   18.4375    1.9697 H   0  0  0  0  0  0  0  0  0  0  0  0
    3.4807   20.2909    0.8485 H   0  0  0  0  0  0  0  0  0  0  0  0
    4.7090   19.6514    5.0397 H   0  0  0  0  0  0  0  0  0  0  0  0
    3.1033   20.1991    4.4496 H   0  0  0  0  0  0  0  0  0  0  0  0
    3.5113   18.4497    4.4496 H   0  0  0  0  0  0  0  0  0  0  0  0
    6.2398   20.3744    3.8064 H   0  0  0  0  0  0  0  0  0  0  0  0
    6.4868   19.5019    2.2557 H   0  0  0  0  0  0  0  0  0  0  0  0
    5.7644   21.1466    2.2557 H   0  0  0  0  0  0  0  0  0  0  0  0
    1.8575   17.2541    0.3654 H   0  0  0  0  0  0  0  0  0  0  0  0
   -0.3468   17.6286    1.2790 H   0  0  0  0  0  0  0  0  0  0  0  0
   -0.8734   18.5303   -0.1588 H   0  0  0  0  0  0  0  0  0  0  0  0
   -1.6001   15.8398    0.4727 H   0  0  0  0  0  0  0  0  0  0  0  0
   -1.8149   16.5742   -1.1141 H   0  0  0  0  0  0  0  0  0  0  0  0
    0.2688   15.2343    1.2876 H   0  0  0  0  0  0  0  0  0  0  0  0
    0.4059   13.6935    0.3745 H   0  0  0  0  0  0  0  0  0  0  0  0
    1.7703   14.8618    0.3745 H   0  0  0  0  0  0  0  0  0  0  0  0
   -0.8422   15.0430   -2.7171 H   0  0  0  0  0  0  0  0  0  0  0  0
   -1.9770   13.7932   -0.7704 H   0  0  0  0  0  0  0  0  0  0  0  0
   -1.8646   13.0422   -2.4477 H   0  0  0  0  0  0  0  0  0  0  0  0
   -1.4032   11.4314   -0.4153 H   0  0  0  0  0  0  0  0  0  0  0  0
    2.2070   13.0543   -1.2086 H   0  0  0  0  0  0  0  0  0  0  0  0
    1.6958   11.1388   -3.5674 H   0  0  0  0  0  0  0  0  0  0  0  0
    3.1536   12.1986   -3.3162 H   0  0  0  0  0  0  0  0  0  0  0  0
    3.6014    9.8351   -2.7358 H   0  0  0  0  0  0  0  0  0  0  0  0
    3.7558   10.9516   -1.3232 H   0  0  0  0  0  0  0  0  0  0  0  0
    2.6012    8.9705   -0.6153 H   0  0  0  0  0  0  0  0  0  0  0  0
    1.3900    9.3160   -3.0770 H   0  0  0  0  0  0  0  0  0  0  0  0
    1.5107   10.7461    1.8102 H   0  0  0  0  0  0  0  0  0  0  0  0
    2.9981   10.6211    0.8109 H   0  0  0  0  0  0  0  0  0  0  0  0
    2.0412   12.1413    0.8109 H   0  0  0  0  0  0  0  0  0  0  0  0
    0.1228    9.6256    1.3885 H   0  0  0  0  0  0  0  0  0  0  0  0
   -0.9317    9.8979   -0.0399 H   0  0  0  0  0  0  0  0  0  0  0  0
    0.2485    8.5438   -0.0399 H   0  0  0  0  0  0  0  0  0  0  0  0
   -0.4064   12.5381   -3.9611 H   0  0  0  0  0  0  0  0  0  0  0  0
   -0.0060   14.1350   -4.6797 H   0  0  0  0  0  0  0  0  0  0  0  0
    1.2159   12.8183   -4.6797 H   0  0  0  0  0  0  0  0  0  0  0  0
    2.9912   14.2613   -3.1835 H   0  0  0  0  0  0  0  0  0  0  0  0
    1.7032   15.3730   -3.9186 H   0  0  0  0  0  0  0  0  0  0  0  0
    2.7903   15.4206   -1.0897 H   0  0  0  0  0  0  0  0  0  0  0  0
    2.9712   16.6636   -2.3895 H   0  0  0  0  0  0  0  0  0  0  0  0
   -0.2791   18.0849   -2.4296 H   0  0  0  0  0  0  0  0  0  0  0  0
    1.2040   17.7149   -3.3730 H   0  0  0  0  0  0  0  0  0  0  0  0
   -0.1719   16.5601   -3.3730 H   0  0  0  0  0  0  0  0  0  0  0  0
  1  2  1  0
  2  3  1  0
  3  4  1  0
  4  5  1  0
  5  6  1  0
  6  7  1  0
  7  8  1  0
  7  9  1  0
  2 10  1  0
 10 11  1  0
 11 12  1  0
 12 13  1  0
 13 14  1  1
 13 15  1  0
 15 16  1  0
 16 17  1  0
 17 18  2  0
 18 19  1  0
 19 20  1  0
 20 21  1  0
 21 22  1  0
 22 23  1  0
 22 24  1  0
 24 25  1  0
 24 26  1  0
 19 27  1  0
 27 28  1  6
 27 29  1  0
 29 30  1  0
 30 31  1  0
 31 32  1  6
  7  5  1  0
 31 10  1  0
 31 13  1  0
 27 15  1  0
 24 18  1  0
  1 33  1  0
  1 34  1  0
  1 35  1  0
  2 36  1  6
  3 37  1  0
  3 38  1  0
  4 39  1  0
  4 40  1  0
  5 41  1  6
  8 42  1  0
  8 43  1  0
  8 44  1  0
  9 45  1  0
  9 46  1  0
  9 47  1  0
 10 48  1  1
 11 49  1  0
 11 50  1  0
 12 51  1  0
 12 52  1  0
 14 53  1  0
 14 54  1  0
 14 55  1  0
 15 56  1  6
 16 57  1  0
 16 58  1  0
 17 59  1  0
 19 60  1  1
 20 61  1  0
 20 62  1  0
 21 63  1  0
 21 64  1  0
 22 65  1  1
 23 66  1  0
 25 67  1  0
 25 68  1  0
 25 69  1  0
 26 70  1  0
 26 71  1  0
 26 72  1  0
 28 73  1  0
 28 74  1  0
 28 75  1  0
 29 76  1  0
 29 77  1  0
 30 78  1  0
 30 79  1  0
 32 80  1  0
 32 81  1  0
 32 82  1  0
M  END
>  <meeko>  (12) 
{"is_sidechain": [false], "intermolecular_energy": 2.731, "internal_energy": -0.839}

$$$$
EPH_relaxed_0001_pdb2pqr_Repair_136_r2_0001_out
     RDKit          3D

 82 86  0  0  0  0  0  0  0  0999 V2000
    0.2010   17.7240   -2.4760 C   0  0  0  0  0  0  0  0  0  0  0  0
   -0.0700   16.8550   -1.2450 C   0  0  2  0  0  0  0  0  0  0  0  0
   -0.0720   17.6790    0.0580 C   0  0  0  0  0  0  0  0  0  0  0  0
    0.5330   19.0770   -0.0960 C   0  0  0  0  0  0  0  0  0  0  0  0
    1.6750   19.2940    0.8490 C   0  0  2  0  0  0  0  0  0  0  0  0
    2.6880   20.1890    0.3700 O   0  0  0  0  0  0  0  0  0  0  0  0
    3.0910   18.8250    0.5720 C   0  0  0  0  0  0  0  0  0  0  0  0
    3.4400   18.1000   -0.6900 C   0  0  0  0  0  0  0  0  0  0  0  0
    4.0220   18.6370    1.7300 C   0  0  0  0  0  0  0  0  0  0  0  0
    0.9680   15.7420   -1.1560 C   0  0  1  0  0  0  0  0  0  0  0  0
    1.0360   15.1020    0.2560 C   0  0  0  0  0  0  0  0  0  0  0  0
    1.3460   13.5970    0.0500 C   0  0  0  0  0  0  0  0  0  0  0  0
    1.7710   13.4860   -1.4330 C   0  0  1  0  0  0  0  0  0  0  0  0
    3.2680   13.9260   -1.4550 C   0  0  0  0  0  0  0  0  0  0  0  0
    1.5700   12.0890   -2.1060 C   0  0  2  0  0  0  0  0  0  0  0  0
    2.3870   10.9420   -1.4860 C   0  0  0  0  0  0  0  0  0  0  0  0
    3.7360   10.7230   -2.0850 C   0  0  0  0  0  0  0  0  0  0  0  0
    4.1610   11.2250   -3.2600 C   0  0  0  0  0  0  0  0  0  0  0  0
    3.2140   12.0240   -4.1640 C   0  0  1  0  0  0  0  0  0  0  0  0
    3.3480   11.5220   -5.6260 C   0  0  0  0  0  0  0  0  0  0  0  0
    4.7900   11.5490   -6.1240 C   0  0  0  0  0  0  0  0  0  0  0  0
    5.6900   10.6970   -5.2320 C   0  0  2  0  0  0  0  0  0  0  0  0
    5.3120    9.3240   -5.3740 O   0  0  0  0  0  0  0  0  0  0  0  0
    5.6310   11.1040   -3.7340 C   0  0  0  0  0  0  0  0  0  0  0  0
    6.3190   12.4770   -3.5400 C   0  0  0  0  0  0  0  0  0  0  0  0
    6.4720   10.0790   -2.9270 C   0  0  0  0  0  0  0  0  0  0  0  0
    1.7010   12.1050   -3.6830 C   0  0  1  0  0  0  0  0  0  0  0  0
    0.9090   10.8690   -4.2090 C   0  0  0  0  0  0  0  0  0  0  0  0
    1.0250   13.3730   -4.3270 C   0  0  0  0  0  0  0  0  0  0  0  0
    1.1560   14.6990   -3.5540 C   0  0  0  0  0  0  0  0  0  0  0  0
    0.7760   14.5150   -2.0820 C   0  0  2  0  0  0  0  0  0  0  0  0
   -0.7320   14.0930   -2.0260 C   0  0  0  0  0  0  0  0  0  0  0  0
    0.5142   18.7282   -2.1542 H   0  0  0  0  0  0  0  0  0  0  0  0
    0.9992   17.2667   -3.0791 H   0  0  0  0  0  0  0  0  0  0  0  0
   -0.7156   17.8015   -3.0791 H   0  0  0  0  0  0  0  0  0  0  0  0
   -1.0733   16.4193   -1.3616 H   0  0  0  0  0  0  0  0  0  0  0  0
   -1.1122   17.7866    0.3991 H   0  0  0  0  0  0  0  0  0  0  0  0
    0.5536   17.1364    0.7820 H   0  0  0  0  0  0  0  0  0  0  0  0
    0.8962   19.1966   -1.1274 H   0  0  0  0  0  0  0  0  0  0  0  0
   -0.2483   19.8160    0.1351 H   0  0  0  0  0  0  0  0  0  0  0  0
    1.0114   19.1653    1.7168 H   0  0  0  0  0  0  0  0  0  0  0  0
    3.9048   17.1345   -0.4416 H   0  0  0  0  0  0  0  0  0  0  0  0
    2.5266   17.9268   -1.2779 H   0  0  0  0  0  0  0  0  0  0  0  0
    4.1451   18.7059   -1.2779 H   0  0  0  0  0  0  0  0  0  0  0  0
    3.4639   18.7497    2.6712 H   0  0  0  0  0  0  0  0  0  0  0  0
    4.4652   17.6312    1.6847 H   0  0  0  0  0  0  0  0  0  0  0  0
    4.8207   19.3920    1.6847 H   0  0  0  0  0  0  0  0  0  0  0  0
    1.8662   16.3019   -1.4556 H   0  0  0  0  0  0  0  0  0  0  0  0
    1.8328   15.5753    0.8485 H   0  0  0  0  0  0  0  0  0  0  0  0
    0.0889   15.2397    0.7983 H   0  0  0  0  0  0  0  0  0  0  0  0
    2.1622   13.2743    0.7131 H   0  0  0  0  0  0  0  0  0  0  0  0
    0.4829   12.9571    0.2858 H   0  0  0  0  0  0  0  0  0  0  0  0
    3.6338   14.0335   -0.4232 H   0  0  0  0  0  0  0  0  0  0  0  0
    3.8660   13.1656   -1.9787 H   0  0  0  0  0  0  0  0  0  0  0  0
    3.3595   14.8890   -1.9787 H   0  0  0  0  0  0  0  0  0  0  0  0
    0.5182   11.8650   -1.8748 H   0  0  0  0  0  0  0  0  0  0  0  0
    2.5216   11.1604   -0.4163 H   0  0  0  0  0  0  0  0  0  0  0  0
    1.8154   10.0224   -1.6799 H   0  0  0  0  0  0  0  0  0  0  0  0
    4.4430   10.0987   -1.5189 H   0  0  0  0  0  0  0  0  0  0  0  0
    3.5415   13.0720   -4.0976 H   0  0  0  0  0  0  0  0  0  0  0  0
    2.9758   10.4883   -5.6794 H   0  0  0  0  0  0  0  0  0  0  0  0
    2.7610   12.1972   -6.2660 H   0  0  0  0  0  0  0  0  0  0  0  0
    4.8240   11.1556   -7.1507 H   0  0  0  0  0  0  0  0  0  0  0  0
    5.1514   12.5876   -6.0986 H   0  0  0  0  0  0  0  0  0  0  0  0
    6.7277   10.8592   -5.5590 H   0  0  0  0  0  0  0  0  0  0  0  0
    5.1830    9.1500   -6.3210 H   0  0  0  0  0  0  0  0  0  0  0  0
    6.4237   12.6860   -2.4651 H   0  0  0  0  0  0  0  0  0  0  0  0
    7.3141   12.4580   -4.0085 H   0  0  0  0  0  0  0  0  0  0  0  0
    5.7081   13.2627   -4.0085 H   0  0  0  0  0  0  0  0  0  0  0  0
    6.3286   10.2537   -1.8505 H   0  0  0  0  0  0  0  0  0  0  0  0
    6.1473    9.0587   -3.1793 H   0  0  0  0  0  0  0  0  0  0  0  0
    7.5360   10.1981   -3.1793 H   0  0  0  0  0  0  0  0  0  0  0  0
    0.5340   10.2838   -3.3564 H   0  0  0  0  0  0  0  0  0  0  0  0
    0.0609   11.2102   -4.8208 H   0  0  0  0  0  0  0  0  0  0  0  0
    1.5734   10.2411   -4.8208 H   0  0  0  0  0  0  0  0  0  0  0  0
    1.4742   13.5212   -5.3201 H   0  0  0  0  0  0  0  0  0  0  0  0
   -0.0523   13.1509   -4.3363 H   0  0  0  0  0  0  0  0  0  0  0  0
    2.1966   15.0503   -3.6158 H   0  0  0  0  0  0  0  0  0  0  0  0
    0.4736   15.4357   -4.0030 H   0  0  0  0  0  0  0  0  0  0  0  0
   -1.0492   14.0042   -0.9765 H   0  0  0  0  0  0  0  0  0  0  0  0
   -1.3448   14.8542   -2.5311 H   0  0  0  0  0  0  0  0  0  0  0  0
   -0.8607   13.1243   -2.5311 H   0  0  0  0  0  0  0  0  0  0  0  0
  1  2  1  0
  2  3  1  0
  3  4  1  0
  4  5  1  0
  5  6  1  0
  6  7  1  0
  7  8  1  0
  7  9  1  0
  2 10  1  0
 10 11  1  0
 11 12  1  0
 12 13  1  0
 13 14  1  1
 13 15  1  0
 15 16  1  0
 16 17  1  0
 17 18  2  0
 18 19  1  0
 19 20  1  0
 20 21  1  0
 21 22  1  0
 22 23  1  0
 22 24  1  0
 24 25  1  0
 24 26  1  0
 19 27  1  0
 27 28  1  6
 27 29  1  0
 29 30  1  0
 30 31  1  0
 31 32  1  6
  7  5  1  0
 31 10  1  0
 31 13  1  0
 27 15  1  0
 24 18  1  0
  1 33  1  0
  1 34  1  0
  1 35  1  0
  2 36  1  6
  3 37  1  0
  3 38  1  0
  4 39  1  0
  4 40  1  0
  5 41  1  1
  8 42  1  0
  8 43  1  0
  8 44  1  0
  9 45  1  0
  9 46  1  0
  9 47  1  0
 10 48  1  6
 11 49  1  0
 11 50  1  0
 12 51  1  0
 12 52  1  0
 14 53  1  0
 14 54  1  0
 14 55  1  0
 15 56  1  6
 16 57  1  0
 16 58  1  0
 17 59  1  0
 19 60  1  6
 20 61  1  0
 20 62  1  0
 21 63  1  0
 21 64  1  0
 22 65  1  6
 23 66  1  0
 25 67  1  0
 25 68  1  0
 25 69  1  0
 26 70  1  0
 26 71  1  0
 26 72  1  0
 28 73  1  0
 28 74  1  0
 28 75  1  0
 29 76  1  0
 29 77  1  0
 30 78  1  0
 30 79  1  0
 32 80  1  0
 32 81  1  0
 32 82  1  0
M  END
>  <meeko>  (13) 
{"is_sidechain": [false], "intermolecular_energy": 2.731, "internal_energy": -0.839}

$$$$
EPH_relaxed_0001_pdb2pqr_Repair_136_r2_0001_out
     RDKit          3D

 82 86  0  0  0  0  0  0  0  0999 V2000
    0.3630   14.7800   -4.0580 C   0  0  0  0  0  0  0  0  0  0  0  0
    1.4910   13.7690   -4.2840 C   0  0  2  0  0  0  0  0  0  0  0  0
    2.1540   13.9360   -5.6660 C   0  0  0  0  0  0  0  0  0  0  0  0
    1.3870   14.8700   -6.6070 C   0  0  0  0  0  0  0  0  0  0  0  0
    2.0690   15.0000   -7.9350 C   0  0  2  0  0  0  0  0  0  0  0  0
    2.4560   16.3360   -8.2810 O   0  0  0  0  0  0  0  0  0  0  0  0
    1.4610   15.7280   -9.1200 C   0  0  0  0  0  0  0  0  0  0  0  0
    0.1140   16.3730   -9.0310 C   0  0  0  0  0  0  0  0  0  0  0  0
    1.9530   15.3940  -10.4940 C   0  0  0  0  0  0  0  0  0  0  0  0
    0.9560   12.3500   -4.1310 C   0  0  1  0  0  0  0  0  0  0  0  0
    2.0340   11.2710   -4.4130 C   0  0  0  0  0  0  0  0  0  0  0  0
    1.7460   10.0890   -3.4520 C   0  0  0  0  0  0  0  0  0  0  0  0
    0.3340   10.3780   -2.8910 C   0  0  1  0  0  0  0  0  0  0  0  0
   -0.6470    9.8810   -3.9980 C   0  0  0  0  0  0  0  0  0  0  0  0
    0.0020    9.7470   -1.4990 C   0  0  2  0  0  0  0  0  0  0  0  0
    0.0180    8.2090   -1.4590 C   0  0  0  0  0  0  0  0  0  0  0  0
   -1.2880    7.5490   -1.7570 C   0  0  0  0  0  0  0  0  0  0  0  0
   -2.4880    8.1580   -1.7640 C   0  0  0  0  0  0  0  0  0  0  0  0
   -2.6270    9.6310   -1.3560 C   0  0  1  0  0  0  0  0  0  0  0  0
   -3.8210    9.7870   -0.3790 C   0  0  0  0  0  0  0  0  0  0  0  0
   -5.1180    9.2140   -0.9430 C   0  0  0  0  0  0  0  0  0  0  0  0
   -4.9570    7.7340   -1.2820 C   0  0  2  0  0  0  0  0  0  0  0  0
   -4.7670    7.0010   -0.0680 O   0  0  0  0  0  0  0  0  0  0  0  0
   -3.7770    7.4520   -2.2530 C   0  0  0  0  0  0  0  0  0  0  0  0
   -4.1220    7.9930   -3.6630 C   0  0  0  0  0  0  0  0  0  0  0  0
   -3.6370    5.9130   -2.4010 C   0  0  0  0  0  0  0  0  0  0  0  0
   -1.3040   10.3290   -0.8190 C   0  0  1  0  0  0  0  0  0  0  0  0
   -1.1550   10.0810    0.7130 C   0  0  0  0  0  0  0  0  0  0  0  0
   -1.4320   11.8870   -1.0070 C   0  0  0  0  0  0  0  0  0  0  0  0
   -0.9750   12.4640   -2.3600 C   0  0  0  0  0  0  0  0  0  0  0  0
    0.4140   11.9410   -2.7390 C   0  0  2  0  0  0  0  0  0  0  0  0
    1.4260   12.4430   -1.6540 C   0  0  0  0  0  0  0  0  0  0  0  0
    0.2069   14.9199   -2.9782 H   0  0  0  0  0  0  0  0  0  0  0  0
    0.6354   15.7419   -4.5168 H   0  0  0  0  0  0  0  0  0  0  0  0
   -0.5635   14.4043   -4.5168 H   0  0  0  0  0  0  0  0  0  0  0  0
    2.2624   13.9597   -3.5234 H   0  0  0  0  0  0  0  0  0  0  0  0
    3.1649   14.3441   -5.5194 H   0  0  0  0  0  0  0  0  0  0  0  0
    2.1674   12.9428   -6.1387 H   0  0  0  0  0  0  0  0  0  0  0  0
    0.3757   14.4666   -6.7635 H   0  0  0  0  0  0  0  0  0  0  0  0
    1.3462   15.8666   -6.1432 H   0  0  0  0  0  0  0  0  0  0  0  0
    2.5118   13.9983   -7.8323 H   0  0  0  0  0  0  0  0  0  0  0  0
   -0.1605   16.5044   -7.9739 H   0  0  0  0  0  0  0  0  0  0  0  0
    0.1439   17.3545   -9.5268 H   0  0  0  0  0  0  0  0  0  0  0  0
   -0.6318   15.7343   -9.5268 H   0  0  0  0  0  0  0  0  0  0  0  0
    2.8610   14.7776  -10.4186 H   0  0  0  0  0  0  0  0  0  0  0  0
    1.1753   14.8364  -11.0365 H   0  0  0  0  0  0  0  0  0  0  0  0
    2.1842   16.3226  -11.0365 H   0  0  0  0  0  0  0  0  0  0  0  0
    0.1330   12.3840   -4.8600 H   0  0  0  0  0  0  0  0  0  0  0  0
    1.9684   10.9341   -5.4581 H   0  0  0  0  0  0  0  0  0  0  0  0
    3.0457   11.6723   -4.2533 H   0  0  0  0  0  0  0  0  0  0  0  0
    1.7594    9.1334   -3.9967 H   0  0  0  0  0  0  0  0  0  0  0  0
    2.5015   10.0039   -2.6570 H   0  0  0  0  0  0  0  0  0  0  0  0
   -1.5338    9.4317   -3.5272 H   0  0  0  0  0  0  0  0  0  0  0  0
   -0.9553   10.7317   -4.6236 H   0  0  0  0  0  0  0  0  0  0  0  0
   -0.1435    9.1293   -4.6236 H   0  0  0  0  0  0  0  0  0  0  0  0
    0.8545   10.0706   -0.8838 H   0  0  0  0  0  0  0  0  0  0  0  0
    0.7528    7.8575   -2.1982 H   0  0  0  0  0  0  0  0  0  0  0  0
    0.2682    7.9344   -0.4236 H   0  0  0  0  0  0  0  0  0  0  0  0
   -1.2674    6.4743   -1.9905 H   0  0  0  0  0  0  0  0  0  0  0  0
   -2.8292   10.1860   -2.2839 H   0  0  0  0  0  0  0  0  0  0  0  0
   -3.5813    9.2617    0.5573 H   0  0  0  0  0  0  0  0  0  0  0  0
   -3.9766   10.8630   -0.2115 H   0  0  0  0  0  0  0  0  0  0  0  0
   -5.9170    9.3275   -0.1956 H   0  0  0  0  0  0  0  0  0  0  0  0
   -5.3728    9.7599   -1.8633 H   0  0  0  0  0  0  0  0  0  0  0  0
   -5.8725    7.4133   -1.8006 H   0  0  0  0  0  0  0  0  0  0  0  0
   -5.2870    6.1820   -0.1350 H   0  0  0  0  0  0  0  0  0  0  0  0
   -4.7112    8.9169   -3.5672 H   0  0  0  0  0  0  0  0  0  0  0  0
   -3.1926    8.2060   -4.2115 H   0  0  0  0  0  0  0  0  0  0  0  0
   -4.7072    7.2402   -4.2115 H   0  0  0  0  0  0  0  0  0  0  0  0
   -3.5950    5.4510   -1.4036 H   0  0  0  0  0  0  0  0  0  0  0  0
   -4.5029    5.5174   -2.9521 H   0  0  0  0  0  0  0  0  0  0  0  0
   -2.7140    5.6801   -2.9521 H   0  0  0  0  0  0  0  0  0  0  0  0
   -1.6448   10.8962    1.2657 H   0  0  0  0  0  0  0  0  0  0  0  0
   -1.6274    9.1234    0.9771 H   0  0  0  0  0  0  0  0  0  0  0  0
   -0.0877   10.0485    0.9771 H   0  0  0  0  0  0  0  0  0  0  0  0
   -2.4911   12.1523   -0.8730 H   0  0  0  0  0  0  0  0  0  0  0  0
   -0.7492   12.3233   -0.2631 H   0  0  0  0  0  0  0  0  0  0  0  0
   -1.6948   12.1698   -3.1381 H   0  0  0  0  0  0  0  0  0  0  0  0
   -0.9257   13.5596   -2.2750 H   0  0  0  0  0  0  0  0  0  0  0  0
    1.0193   12.2413   -0.6520 H   0  0  0  0  0  0  0  0  0  0  0  0
    2.3838   11.9155   -1.7740 H   0  0  0  0  0  0  0  0  0  0  0  0
    1.5856   13.5247   -1.7740 H   0  0  0  0  0  0  0  0  0  0  0  0
  1  2  1  0
  2  3  1  0
  3  4  1  0
  4  5  1  0
  5  6  1  0
  6  7  1  0
  7  8  1  0
  7  9  1  0
  2 10  1  0
 10 11  1  0
 11 12  1  0
 12 13  1  0
 13 14  1  6
 13 15  1  0
 15 16  1  0
 16 17  1  0
 17 18  2  0
 18 19  1  0
 19 20  1  0
 20 21  1  0
 21 22  1  0
 22 23  1  0
 22 24  1  0
 24 25  1  0
 24 26  1  0
 19 27  1  0
 27 28  1  1
 27 29  1  0
 29 30  1  0
 30 31  1  0
 31 32  1  1
  7  5  1  0
 31 10  1  0
 31 13  1  0
 27 15  1  0
 24 18  1  0
  1 33  1  0
  1 34  1  0
  1 35  1  0
  2 36  1  1
  3 37  1  0
  3 38  1  0
  4 39  1  0
  4 40  1  0
  5 41  1  6
  8 42  1  0
  8 43  1  0
  8 44  1  0
  9 45  1  0
  9 46  1  0
  9 47  1  0
 10 48  1  6
 11 49  1  0
 11 50  1  0
 12 51  1  0
 12 52  1  0
 14 53  1  0
 14 54  1  0
 14 55  1  0
 15 56  1  1
 16 57  1  0
 16 58  1  0
 17 59  1  0
 19 60  1  6
 20 61  1  0
 20 62  1  0
 21 63  1  0
 21 64  1  0
 22 65  1  6
 23 66  1  0
 25 67  1  0
 25 68  1  0
 25 69  1  0
 26 70  1  0
 26 71  1  0
 26 72  1  0
 28 73  1  0
 28 74  1  0
 28 75  1  0
 29 76  1  0
 29 77  1  0
 30 78  1  0
 30 79  1  0
 32 80  1  0
 32 81  1  0
 32 82  1  0
M  END
>  <meeko>  (14) 
{"is_sidechain": [false], "intermolecular_energy": 2.731, "internal_energy": -0.839}

$$$$
EPH_relaxed_0001_pdb2pqr_Repair_136_r2_0001_out
     RDKit          3D

 82 86  0  0  0  0  0  0  0  0999 V2000
   -2.2250    7.8080   -2.0390 C   0  0  0  0  0  0  0  0  0  0  0  0
   -2.2130    8.5060   -0.6760 C   0  0  2  0  0  0  0  0  0  0  0  0
   -3.6010    8.4970   -0.0070 C   0  0  0  0  0  0  0  0  0  0  0  0
   -4.7640    8.5660   -1.0010 C   0  0  0  0  0  0  0  0  0  0  0  0
   -5.5360    7.2820   -1.0400 C   0  0  2  0  0  0  0  0  0  0  0  0
   -5.6310    6.6800   -2.3380 O   0  0  0  0  0  0  0  0  0  0  0  0
   -6.8660    7.1270   -1.7540 C   0  0  0  0  0  0  0  0  0  0  0  0
   -7.5010    8.2730   -2.4780 C   0  0  0  0  0  0  0  0  0  0  0  0
   -7.7750    6.0120   -1.3400 C   0  0  0  0  0  0  0  0  0  0  0  0
   -1.7180    9.9390   -0.8300 C   0  0  1  0  0  0  0  0  0  0  0  0
   -1.3540   10.5950    0.5290 C   0  0  0  0  0  0  0  0  0  0  0  0
   -0.1450   11.5300    0.2650 C   0  0  0  0  0  0  0  0  0  0  0  0
   -0.0650   11.6370   -1.2760 C   0  0  1  0  0  0  0  0  0  0  0  0
   -1.1350   12.7060   -1.6600 C   0  0  0  0  0  0  0  0  0  0  0  0
    1.3380   11.9860   -1.8710 C   0  0  2  0  0  0  0  0  0  0  0  0
    1.9010   13.3570   -1.4570 C   0  0  0  0  0  0  0  0  0  0  0  0
    1.5470   14.4910   -2.3600 C   0  0  0  0  0  0  0  0  0  0  0  0
    1.0510   14.3730   -3.6060 C   0  0  0  0  0  0  0  0  0  0  0  0
    0.8900   12.9960   -4.2630 C   0  0  1  0  0  0  0  0  0  0  0  0
    1.4450   13.0450   -5.7100 C   0  0  0  0  0  0  0  0  0  0  0  0
    0.8210   14.1630   -6.5390 C   0  0  0  0  0  0  0  0  0  0  0  0
    1.0520   15.5220   -5.8840 C   0  0  2  0  0  0  0  0  0  0  0  0
    2.4520   15.8190   -5.9210 O   0  0  0  0  0  0  0  0  0  0  0  0
    0.5420   15.5900   -4.4180 C   0  0  0  0  0  0  0  0  0  0  0  0
   -1.0070   15.5700   -4.4040 C   0  0  0  0  0  0  0  0  0  0  0  0
    0.9630   16.9640   -3.8290 C   0  0  0  0  0  0  0  0  0  0  0  0
    1.4530   11.7630   -3.4340 C   0  0  1  0  0  0  0  0  0  0  0  0
    2.9670   11.5600   -3.7450 C   0  0  0  0  0  0  0  0  0  0  0  0
    0.7230   10.4500   -3.9060 C   0  0  0  0  0  0  0  0  0  0  0  0
   -0.5980   10.0960   -3.1960 C   0  0  0  0  0  0  0  0  0  0  0  0
   -0.4380   10.1630   -1.6740 C   0  0  2  0  0  0  0  0  0  0  0  0
    0.6170    9.0830   -1.2560 C   0  0  0  0  0  0  0  0  0  0  0  0
   -2.2437    6.7180   -1.8926 H   0  0  0  0  0  0  0  0  0  0  0  0
   -3.1180    8.1178   -2.6017 H   0  0  0  0  0  0  0  0  0  0  0  0
   -1.3219    8.0869   -2.6017 H   0  0  0  0  0  0  0  0  0  0  0  0
   -1.5285    7.9447   -0.0230 H   0  0  0  0  0  0  0  0  0  0  0  0
   -3.6986    7.5705    0.5779 H   0  0  0  0  0  0  0  0  0  0  0  0
   -3.6610    9.3981    0.6210 H   0  0  0  0  0  0  0  0  0  0  0  0
   -5.4407    9.3800   -0.7021 H   0  0  0  0  0  0  0  0  0  0  0  0
   -4.3485    8.7472   -2.0033 H   0  0  0  0  0  0  0  0  0  0  0  0
   -5.2127    7.0289   -0.0195 H   0  0  0  0  0  0  0  0  0  0  0  0
   -7.8997    8.9925   -1.7476 H   0  0  0  0  0  0  0  0  0  0  0  0
   -6.7494    8.7696   -3.1092 H   0  0  0  0  0  0  0  0  0  0  0  0
   -8.3206    7.8990   -3.1092 H   0  0  0  0  0  0  0  0  0  0  0  0
   -7.8164    5.9612   -0.2420 H   0  0  0  0  0  0  0  0  0  0  0  0
   -8.7844    6.1953   -1.7369 H   0  0  0  0  0  0  0  0  0  0  0  0
   -7.3921    5.0602   -1.7369 H   0  0  0  0  0  0  0  0  0  0  0  0
   -2.5871   10.3799   -1.3401 H   0  0  0  0  0  0  0  0  0  0  0  0
   -2.2067   11.1766    0.9093 H   0  0  0  0  0  0  0  0  0  0  0  0
   -1.1064    9.8323    1.2820 H   0  0  0  0  0  0  0  0  0  0  0  0
   -0.3136   12.5195    0.7149 H   0  0  0  0  0  0  0  0  0  0  0  0
    0.7858   11.1434    0.7056 H   0  0  0  0  0  0  0  0  0  0  0  0
   -1.5670   13.1376   -0.7450 H   0  0  0  0  0  0  0  0  0  0  0  0
   -0.6614   13.5024   -2.2528 H   0  0  0  0  0  0  0  0  0  0  0  0
   -1.9309   12.2316   -2.2528 H   0  0  0  0  0  0  0  0  0  0  0  0
    1.9885   11.2392   -1.3923 H   0  0  0  0  0  0  0  0  0  0  0  0
    1.5202   13.5913   -0.4520 H   0  0  0  0  0  0  0  0  0  0  0  0
    2.9960   13.2624   -1.5025 H   0  0  0  0  0  0  0  0  0  0  0  0
    1.7046   15.5093   -1.9751 H   0  0  0  0  0  0  0  0  0  0  0  0
   -0.1910   12.7935   -4.2852 H   0  0  0  0  0  0  0  0  0  0  0  0
    2.5325   13.2043   -5.6652 H   0  0  0  0  0  0  0  0  0  0  0  0
    1.1950   12.0902   -6.1957 H   0  0  0  0  0  0  0  0  0  0  0  0
    1.2750   14.1645   -7.5410 H   0  0  0  0  0  0  0  0  0  0  0  0
   -0.2625   13.9861   -6.6078 H   0  0  0  0  0  0  0  0  0  0  0  0
    0.4728   16.2650   -6.4519 H   0  0  0  0  0  0  0  0  0  0  0  0
    2.9330   14.9770   -5.8570 H   0  0  0  0  0  0  0  0  0  0  0  0
   -1.3642   15.5654   -3.3636 H   0  0  0  0  0  0  0  0  0  0  0  0
   -1.3899   16.4633   -4.9192 H   0  0  0  0  0  0  0  0  0  0  0  0
   -1.3667   14.6671   -4.9192 H   0  0  0  0  0  0  0  0  0  0  0  0
    0.9472   16.9123   -2.7303 H   0  0  0  0  0  0  0  0  0  0  0  0
    1.9787   17.2133   -4.1697 H   0  0  0  0  0  0  0  0  0  0  0  0
    0.2613   17.7395   -4.1697 H   0  0  0  0  0  0  0  0  0  0  0  0
    3.5282   11.4848   -2.8019 H   0  0  0  0  0  0  0  0  0  0  0  0
    3.1012   10.6358   -4.3263 H   0  0  0  0  0  0  0  0  0  0  0  0
    3.3399   12.4162   -4.3263 H   0  0  0  0  0  0  0  0  0  0  0  0
    0.5057   10.5574   -4.9790 H   0  0  0  0  0  0  0  0  0  0  0  0
    1.4131    9.6309   -3.6551 H   0  0  0  0  0  0  0  0  0  0  0  0
   -1.3761   10.8084   -3.5077 H   0  0  0  0  0  0  0  0  0  0  0  0
   -0.8813    9.0701   -3.4739 H   0  0  0  0  0  0  0  0  0  0  0  0
    0.6706    9.0282   -0.1587 H   0  0  0  0  0  0  0  0  0  0  0  0
    0.3181    8.1036   -1.6579 H   0  0  0  0  0  0  0  0  0  0  0  0
    1.6031    9.3588   -1.6579 H   0  0  0  0  0  0  0  0  0  0  0  0
  1  2  1  0
  2  3  1  0
  3  4  1  0
  4  5  1  0
  5  6  1  0
  6  7  1  0
  7  8  1  0
  7  9  1  0
  2 10  1  0
 10 11  1  0
 11 12  1  0
 12 13  1  0
 13 14  1  6
 13 15  1  0
 15 16  1  0
 16 17  1  0
 17 18  2  0
 18 19  1  0
 19 20  1  0
 20 21  1  0
 21 22  1  0
 22 23  1  0
 22 24  1  0
 24 25  1  0
 24 26  1  0
 19 27  1  0
 27 28  1  1
 27 29  1  0
 29 30  1  0
 30 31  1  0
 31 32  1  1
  7  5  1  0
 31 10  1  0
 31 13  1  0
 27 15  1  0
 24 18  1  0
  1 33  1  0
  1 34  1  0
  1 35  1  0
  2 36  1  1
  3 37  1  0
  3 38  1  0
  4 39  1  0
  4 40  1  0
  5 41  1  1
  8 42  1  0
  8 43  1  0
  8 44  1  0
  9 45  1  0
  9 46  1  0
  9 47  1  0
 10 48  1  6
 11 49  1  0
 11 50  1  0
 12 51  1  0
 12 52  1  0
 14 53  1  0
 14 54  1  0
 14 55  1  0
 15 56  1  1
 16 57  1  0
 16 58  1  0
 17 59  1  0
 19 60  1  6
 20 61  1  0
 20 62  1  0
 21 63  1  0
 21 64  1  0
 22 65  1  6
 23 66  1  0
 25 67  1  0
 25 68  1  0
 25 69  1  0
 26 70  1  0
 26 71  1  0
 26 72  1  0
 28 73  1  0
 28 74  1  0
 28 75  1  0
 29 76  1  0
 29 77  1  0
 30 78  1  0
 30 79  1  0
 32 80  1  0
 32 81  1  0
 32 82  1  0
M  END
>  <meeko>  (15) 
{"is_sidechain": [false], "intermolecular_energy": 2.731, "internal_energy": -0.839}

$$$$
EPH_relaxed_0001_pdb2pqr_Repair_136_r2_0001_out
     RDKit          3D

 82 86  0  0  0  0  0  0  0  0999 V2000
    2.8540   11.4210   -5.4700 C   0  0  0  0  0  0  0  0  0  0  0  0
    1.9040   11.0950   -4.3150 C   0  0  2  0  0  0  0  0  0  0  0  0
    0.7960   10.1080   -4.7340 C   0  0  0  0  0  0  0  0  0  0  0  0
   -0.2820    9.9020   -3.6670 C   0  0  0  0  0  0  0  0  0  0  0  0
    0.2160    9.0590   -2.5320 C   0  0  2  0  0  0  0  0  0  0  0  0
   -0.6590    7.9900   -2.1520 O   0  0  0  0  0  0  0  0  0  0  0  0
   -0.4470    9.0160   -1.1680 C   0  0  0  0  0  0  0  0  0  0  0  0
   -1.6660    9.8310   -0.8670 C   0  0  0  0  0  0  0  0  0  0  0  0
    0.3620    8.5650    0.0080 C   0  0  0  0  0  0  0  0  0  0  0  0
    1.2820   12.3780   -3.7770 C   0  0  1  0  0  0  0  0  0  0  0  0
   -0.2560   12.2690   -3.6010 C   0  0  0  0  0  0  0  0  0  0  0  0
   -0.6240   13.1070   -2.3500 C   0  0  0  0  0  0  0  0  0  0  0  0
    0.6480   13.9330   -2.0450 C   0  0  1  0  0  0  0  0  0  0  0  0
    0.5860   15.1420   -3.0300 C   0  0  0  0  0  0  0  0  0  0  0  0
    0.8290   14.4020   -0.5650 C   0  0  2  0  0  0  0  0  0  0  0  0
   -0.2620   15.3520   -0.0430 C   0  0  0  0  0  0  0  0  0  0  0  0
    0.0100   16.8060   -0.2420 C   0  0  0  0  0  0  0  0  0  0  0  0
    1.2030   17.3430   -0.5550 C   0  0  0  0  0  0  0  0  0  0  0  0
    2.4610   16.4690   -0.6450 C   0  0  1  0  0  0  0  0  0  0  0  0
    3.6260   17.1570    0.1140 C   0  0  0  0  0  0  0  0  0  0  0  0
    3.8720   18.5850   -0.3640 C   0  0  0  0  0  0  0  0  0  0  0  0
    2.6170   19.4380   -0.2040 C   0  0  2  0  0  0  0  0  0  0  0  0
    2.3400   19.5940    1.1910 O   0  0  0  0  0  0  0  0  0  0  0  0
    1.3740   18.8390   -0.9190 C   0  0  0  0  0  0  0  0  0  0  0  0
    1.5530   18.9480   -2.4540 C   0  0  0  0  0  0  0  0  0  0  0  0
    0.1460   19.7200   -0.5620 C   0  0  0  0  0  0  0  0  0  0  0  0
    2.2770   14.9460   -0.2310 C   0  0  1  0  0  0  0  0  0  0  0  0
    2.4680   14.7870    1.3090 C   0  0  0  0  0  0  0  0  0  0  0  0
    3.4100   14.0880   -0.9090 C   0  0  0  0  0  0  0  0  0  0  0  0
    3.1230   13.5530   -2.3250 C   0  0  0  0  0  0  0  0  0  0  0  0
    1.7540   12.8680   -2.3850 C   0  0  2  0  0  0  0  0  0  0  0  0
    1.7930   11.6340   -1.4210 C   0  0  0  0  0  0  0  0  0  0  0  0
    3.8218   11.7531   -5.0662 H   0  0  0  0  0  0  0  0  0  0  0  0
    3.0030   10.5226   -6.0870 H   0  0  0  0  0  0  0  0  0  0  0  0
    2.4200   12.2216   -6.0870 H   0  0  0  0  0  0  0  0  0  0  0  0
    2.4969   10.6091   -3.5261 H   0  0  0  0  0  0  0  0  0  0  0  0
    0.3139   10.4936   -5.6445 H   0  0  0  0  0  0  0  0  0  0  0  0
    1.2789    9.1328   -4.8948 H   0  0  0  0  0  0  0  0  0  0  0  0
   -0.5878   10.8832   -3.2750 H   0  0  0  0  0  0  0  0  0  0  0  0
   -1.1317    9.3820   -4.1336 H   0  0  0  0  0  0  0  0  0  0  0  0
    1.2598    9.2194   -2.8399 H   0  0  0  0  0  0  0  0  0  0  0  0
   -1.7912    9.9147    0.2226 H   0  0  0  0  0  0  0  0  0  0  0  0
   -1.5521   10.8352   -1.3012 H   0  0  0  0  0  0  0  0  0  0  0  0
   -2.5505    9.3419   -1.3012 H   0  0  0  0  0  0  0  0  0  0  0  0
   -0.1515    8.8512    0.9377 H   0  0  0  0  0  0  0  0  0  0  0  0
    0.4786    7.4717   -0.0248 H   0  0  0  0  0  0  0  0  0  0  0  0
    1.3533    9.0407   -0.0248 H   0  0  0  0  0  0  0  0  0  0  0  0
    1.6108   13.0821   -4.5555 H   0  0  0  0  0  0  0  0  0  0  0  0
   -0.7680   12.6688   -4.4887 H   0  0  0  0  0  0  0  0  0  0  0  0
   -0.5661   11.2207   -3.4791 H   0  0  0  0  0  0  0  0  0  0  0  0
   -1.4755   13.7699   -2.5635 H   0  0  0  0  0  0  0  0  0  0  0  0
   -0.9258   12.4771   -1.5002 H   0  0  0  0  0  0  0  0  0  0  0  0
    0.5379   16.0797   -2.4570 H   0  0  0  0  0  0  0  0  0  0  0  0
    1.4852   15.1452   -3.6636 H   0  0  0  0  0  0  0  0  0  0  0  0
   -0.3088   15.0532   -3.6636 H   0  0  0  0  0  0  0  0  0  0  0  0
    0.7017   13.4648   -0.0033 H   0  0  0  0  0  0  0  0  0  0  0  0
   -1.2013   15.1080   -0.5608 H   0  0  0  0  0  0  0  0  0  0  0  0
   -0.3055   15.1967    1.0451 H   0  0  0  0  0  0  0  0  0  0  0  0
   -0.8372   17.4973   -0.1225 H   0  0  0  0  0  0  0  0  0  0  0  0
    2.7054   16.3968   -1.7151 H   0  0  0  0  0  0  0  0  0  0  0  0
    3.3829   17.1809    1.1865 H   0  0  0  0  0  0  0  0  0  0  0  0
    4.5403   16.5772   -0.0805 H   0  0  0  0  0  0  0  0  0  0  0  0
    4.6860   19.0277    0.2287 H   0  0  0  0  0  0  0  0  0  0  0  0
    4.1433   18.5565   -1.4296 H   0  0  0  0  0  0  0  0  0  0  0  0
    2.8157   20.4092   -0.6807 H   0  0  0  0  0  0  0  0  0  0  0  0
    2.8900   18.9540    1.6740 H   0  0  0  0  0  0  0  0  0  0  0  0
    2.4730   19.5082   -2.6770 H   0  0  0  0  0  0  0  0  0  0  0  0
    1.6237   17.9395   -2.8874 H   0  0  0  0  0  0  0  0  0  0  0  0
    0.6894   19.4737   -2.8874 H   0  0  0  0  0  0  0  0  0  0  0  0
    0.0498   19.7890    0.5316 H   0  0  0  0  0  0  0  0  0  0  0  0
    0.2827   20.7273   -0.9824 H   0  0  0  0  0  0  0  0  0  0  0  0
   -0.7644   19.2677   -0.9824 H   0  0  0  0  0  0  0  0  0  0  0  0
    1.7260   15.4047    1.8362 H   0  0  0  0  0  0  0  0  0  0  0  0
    2.3317   13.7318    1.5884 H   0  0  0  0  0  0  0  0  0  0  0  0
    3.4810   15.1124    1.5884 H   0  0  0  0  0  0  0  0  0  0  0  0
    4.3124   14.7144   -0.9665 H   0  0  0  0  0  0  0  0  0  0  0  0
    3.5097   13.1927   -0.2778 H   0  0  0  0  0  0  0  0  0  0  0  0
    3.1372   14.3919   -3.0364 H   0  0  0  0  0  0  0  0  0  0  0  0
    3.8963   12.8150   -2.5847 H   0  0  0  0  0  0  0  0  0  0  0  0
    1.7820   11.9831   -0.3779 H   0  0  0  0  0  0  0  0  0  0  0  0
    0.9145   10.9978   -1.6041 H   0  0  0  0  0  0  0  0  0  0  0  0
    2.7099   11.0545   -1.6041 H   0  0  0  0  0  0  0  0  0  0  0  0
  1  2  1  0
  2  3  1  0
  3  4  1  0
  4  5  1  0
  5  6  1  0
  6  7  1  0
  7  8  1  0
  7  9  1  0
  2 10  1  0
 10 11  1  0
 11 12  1  0
 12 13  1  0
 13 14  1  6
 13 15  1  0
 15 16  1  0
 16 17  1  0
 17 18  2  0
 18 19  1  0
 19 20  1  0
 20 21  1  0
 21 22  1  0
 22 23  1  0
 22 24  1  0
 24 25  1  0
 24 26  1  0
 19 27  1  0
 27 28  1  1
 27 29  1  0
 29 30  1  0
 30 31  1  0
 31 32  1  1
  7  5  1  0
 31 10  1  0
 31 13  1  0
 27 15  1  0
 24 18  1  0
  1 33  1  0
  1 34  1  0
  1 35  1  0
  2 36  1  1
  3 37  1  0
  3 38  1  0
  4 39  1  0
  4 40  1  0
  5 41  1  1
  8 42  1  0
  8 43  1  0
  8 44  1  0
  9 45  1  0
  9 46  1  0
  9 47  1  0
 10 48  1  6
 11 49  1  0
 11 50  1  0
 12 51  1  0
 12 52  1  0
 14 53  1  0
 14 54  1  0
 14 55  1  0
 15 56  1  1
 16 57  1  0
 16 58  1  0
 17 59  1  0
 19 60  1  6
 20 61  1  0
 20 62  1  0
 21 63  1  0
 21 64  1  0
 22 65  1  6
 23 66  1  0
 25 67  1  0
 25 68  1  0
 25 69  1  0
 26 70  1  0
 26 71  1  0
 26 72  1  0
 28 73  1  0
 28 74  1  0
 28 75  1  0
 29 76  1  0
 29 77  1  0
 30 78  1  0
 30 79  1  0
 32 80  1  0
 32 81  1  0
 32 82  1  0
M  END
>  <meeko>  (16) 
{"is_sidechain": [false], "intermolecular_energy": 2.731, "internal_energy": -0.839}

$$$$
EPH_relaxed_0001_pdb2pqr_Repair_136_r2_0001_out
     RDKit          3D

 82 86  0  0  0  0  0  0  0  0999 V2000
    0.0450    8.8310   -2.3020 C   0  0  0  0  0  0  0  0  0  0  0  0
    0.9410    9.9360   -2.8680 C   0  0  2  0  0  0  0  0  0  0  0  0
    2.3860    9.8410   -2.3390 C   0  0  0  0  0  0  0  0  0  0  0  0
    3.4480   10.2080   -3.3790 C   0  0  0  0  0  0  0  0  0  0  0  0
    2.9000   11.1230   -4.4310 C   0  0  2  0  0  0  0  0  0  0  0  0
    3.4500   10.9260   -5.7410 O   0  0  0  0  0  0  0  0  0  0  0  0
    3.7250   12.1930   -5.1220 C   0  0  0  0  0  0  0  0  0  0  0  0
    5.1680   12.4050   -4.7850 C   0  0  0  0  0  0  0  0  0  0  0  0
    3.0130   13.3440   -5.7610 C   0  0  0  0  0  0  0  0  0  0  0  0
    0.3540   11.3030   -2.5360 C   0  0  1  0  0  0  0  0  0  0  0  0
   -1.0380   11.2060   -1.8580 C   0  0  0  0  0  0  0  0  0  0  0  0
   -1.1210   12.3700   -0.8370 C   0  0  0  0  0  0  0  0  0  0  0  0
    0.0740   13.2860   -1.1930 C   0  0  1  0  0  0  0  0  0  0  0  0
   -0.4220   14.1420   -2.4000 C   0  0  0  0  0  0  0  0  0  0  0  0
    0.6250   14.1820   -0.0370 C   0  0  2  0  0  0  0  0  0  0  0  0
   -0.3710   15.2130    0.5220 C   0  0  0  0  0  0  0  0  0  0  0  0
   -0.3490   16.5480   -0.1460 C   0  0  0  0  0  0  0  0  0  0  0  0
    0.6250   17.0010   -0.9570 C   0  0  0  0  0  0  0  0  0  0  0  0
    1.8970   16.1770   -1.1970 C   0  0  1  0  0  0  0  0  0  0  0  0
    3.1410   17.0940   -1.0680 C   0  0  0  0  0  0  0  0  0  0  0  0
    3.0600   18.3200   -1.9730 C   0  0  0  0  0  0  0  0  0  0  0  0
    1.8130   19.1450   -1.6640 C   0  0  2  0  0  0  0  0  0  0  0  0
    1.9430   19.7040   -0.3540 O   0  0  0  0  0  0  0  0  0  0  0  0
    0.4970   18.3230   -1.7540 C   0  0  0  0  0  0  0  0  0  0  0  0
    0.2020   17.9720   -3.2330 C   0  0  0  0  0  0  0  0  0  0  0  0
   -0.6680   19.2340   -1.2830 C   0  0  0  0  0  0  0  0  0  0  0  0
    2.0300   14.8440   -0.3420 C   0  0  1  0  0  0  0  0  0  0  0  0
    2.6840   15.1590    1.0380 C   0  0  0  0  0  0  0  0  0  0  0  0
    3.0080   13.8550   -1.0810 C   0  0  0  0  0  0  0  0  0  0  0  0
    2.3840   12.9120   -2.1270 C   0  0  0  0  0  0  0  0  0  0  0  0
    1.1520   12.2010   -1.5580 C   0  0  2  0  0  0  0  0  0  0  0  0
    1.6240   11.3140   -0.3560 C   0  0  0  0  0  0  0  0  0  0  0  0
    0.0719    8.8642   -1.2028 H   0  0  0  0  0  0  0  0  0  0  0  0
   -0.9879    8.9831   -2.6483 H   0  0  0  0  0  0  0  0  0  0  0  0
    0.4073    7.8518   -2.6483 H   0  0  0  0  0  0  0  0  0  0  0  0
    0.9797    9.8029   -3.9592 H   0  0  0  0  0  0  0  0  0  0  0  0
    2.4879   10.5240   -1.4828 H   0  0  0  0  0  0  0  0  0  0  0  0
    2.5580    8.7907   -2.0611 H   0  0  0  0  0  0  0  0  0  0  0  0
    4.2856   10.7091   -2.8717 H   0  0  0  0  0  0  0  0  0  0  0  0
    3.7818    9.2819   -3.8699 H   0  0  0  0  0  0  0  0  0  0  0  0
    1.9227   11.1555   -3.9272 H   0  0  0  0  0  0  0  0  0  0  0  0
    5.2905   12.4230   -3.6920 H   0  0  0  0  0  0  0  0  0  0  0  0
    5.7675   11.5853   -5.2077 H   0  0  0  0  0  0  0  0  0  0  0  0
    5.5064   13.3625   -5.2077 H   0  0  0  0  0  0  0  0  0  0  0  0
    2.6056   14.0025   -4.9797 H   0  0  0  0  0  0  0  0  0  0  0  0
    3.7189   13.9102   -6.3865 H   0  0  0  0  0  0  0  0  0  0  0  0
    2.1912   12.9652   -6.3865 H   0  0  0  0  0  0  0  0  0  0  0  0
    0.3505   11.7513   -3.5405 H   0  0  0  0  0  0  0  0  0  0  0  0
   -1.8337   11.3053   -2.6110 H   0  0  0  0  0  0  0  0  0  0  0  0
   -1.1675   10.2339   -1.3597 H   0  0  0  0  0  0  0  0  0  0  0  0
   -2.0718   12.9129   -0.9432 H   0  0  0  0  0  0  0  0  0  0  0  0
   -1.0804   12.0162    0.2038 H   0  0  0  0  0  0  0  0  0  0  0  0
   -0.9407   15.0371   -2.0261 H   0  0  0  0  0  0  0  0  0  0  0  0
    0.4396   14.4464   -3.0123 H   0  0  0  0  0  0  0  0  0  0  0  0
   -1.1146   13.5458   -3.0123 H   0  0  0  0  0  0  0  0  0  0  0  0
    0.7841   13.4516    0.7700 H   0  0  0  0  0  0  0  0  0  0  0  0
   -1.3843   14.7977    0.4183 H   0  0  0  0  0  0  0  0  0  0  0  0
   -0.0722   15.3900    1.5657 H   0  0  0  0  0  0  0  0  0  0  0  0
   -1.2011   17.2182    0.0404 H   0  0  0  0  0  0  0  0  0  0  0  0
    1.8218   15.7941   -2.2255 H   0  0  0  0  0  0  0  0  0  0  0  0
    3.2240   17.4310   -0.0242 H   0  0  0  0  0  0  0  0  0  0  0  0
    4.0205   16.5092   -1.3756 H   0  0  0  0  0  0  0  0  0  0  0  0
    3.9524   18.9435   -1.8152 H   0  0  0  0  0  0  0  0  0  0  0  0
    3.0070   17.9818   -3.0184 H   0  0  0  0  0  0  0  0  0  0  0  0
    1.7421   19.9343   -2.4269 H   0  0  0  0  0  0  0  0  0  0  0  0
    1.6670   19.0250    0.2850 H   0  0  0  0  0  0  0  0  0  0  0  0
   -0.5052   17.1306   -3.2761 H   0  0  0  0  0  0  0  0  0  0  0  0
   -0.2367   18.8459   -3.7368 H   0  0  0  0  0  0  0  0  0  0  0  0
    1.1384   17.6902   -3.7368 H   0  0  0  0  0  0  0  0  0  0  0  0
   -0.6953   19.2553   -0.1835 H   0  0  0  0  0  0  0  0  0  0  0  0
   -0.5139   20.2537   -1.6658 H   0  0  0  0  0  0  0  0  0  0  0  0
   -1.6204   18.8386   -1.6658 H   0  0  0  0  0  0  0  0  0  0  0  0
    2.0109   14.8348    1.8453 H   0  0  0  0  0  0  0  0  0  0  0  0
    3.6410   14.6230    1.1211 H   0  0  0  0  0  0  0  0  0  0  0  0
    2.8615   16.2414    1.1211 H   0  0  0  0  0  0  0  0  0  0  0  0
    3.7702   14.4612   -1.5924 H   0  0  0  0  0  0  0  0  0  0  0  0
    3.3969   13.1932   -0.2931 H   0  0  0  0  0  0  0  0  0  0  0  0
    2.0858   13.4989   -3.0083 H   0  0  0  0  0  0  0  0  0  0  0  0
    3.1302   12.1530   -2.4046 H   0  0  0  0  0  0  0  0  0  0  0  0
    1.3607   11.8088    0.5905 H   0  0  0  0  0  0  0  0  0  0  0  0
    1.1285   10.3333   -0.4072 H   0  0  0  0  0  0  0  0  0  0  0  0
    2.7142   11.1771   -0.4072 H   0  0  0  0  0  0  0  0  0  0  0  0
  1  2  1  0
  2  3  1  0
  3  4  1  0
  4  5  1  0
  5  6  1  0
  6  7  1  0
  7  8  1  0
  7  9  1  0
  2 10  1  0
 10 11  1  0
 11 12  1  0
 12 13  1  0
 13 14  1  6
 13 15  1  0
 15 16  1  0
 16 17  1  0
 17 18  2  0
 18 19  1  0
 19 20  1  0
 20 21  1  0
 21 22  1  0
 22 23  1  0
 22 24  1  0
 24 25  1  0
 24 26  1  0
 19 27  1  0
 27 28  1  1
 27 29  1  0
 29 30  1  0
 30 31  1  0
 31 32  1  1
  7  5  1  0
 31 10  1  0
 31 13  1  0
 27 15  1  0
 24 18  1  0
  1 33  1  0
  1 34  1  0
  1 35  1  0
  2 36  1  6
  3 37  1  0
  3 38  1  0
  4 39  1  0
  4 40  1  0
  5 41  1  6
  8 42  1  0
  8 43  1  0
  8 44  1  0
  9 45  1  0
  9 46  1  0
  9 47  1  0
 10 48  1  6
 11 49  1  0
 11 50  1  0
 12 51  1  0
 12 52  1  0
 14 53  1  0
 14 54  1  0
 14 55  1  0
 15 56  1  1
 16 57  1  0
 16 58  1  0
 17 59  1  0
 19 60  1  6
 20 61  1  0
 20 62  1  0
 21 63  1  0
 21 64  1  0
 22 65  1  6
 23 66  1  0
 25 67  1  0
 25 68  1  0
 25 69  1  0
 26 70  1  0
 26 71  1  0
 26 72  1  0
 28 73  1  0
 28 74  1  0
 28 75  1  0
 29 76  1  0
 29 77  1  0
 30 78  1  0
 30 79  1  0
 32 80  1  0
 32 81  1  0
 32 82  1  0
M  END
>  <meeko>  (17) 
{"is_sidechain": [false], "intermolecular_energy": 2.731, "internal_energy": -0.839}

$$$$
EPH_relaxed_0001_pdb2pqr_Repair_136_r2_0001_out
     RDKit          3D

 82 86  0  0  0  0  0  0  0  0999 V2000
    4.1080   17.9850   -1.3870 C   0  0  0  0  0  0  0  0  0  0  0  0
    2.5850   18.0610   -1.5270 C   0  0  2  0  0  0  0  0  0  0  0  0
    1.9970   19.2950   -0.8120 C   0  0  0  0  0  0  0  0  0  0  0  0
    0.6970   19.8070   -1.4380 C   0  0  0  0  0  0  0  0  0  0  0  0
   -0.4620   19.6710   -0.4970 C   0  0  2  0  0  0  0  0  0  0  0  0
   -1.3210   18.5540   -0.7620 O   0  0  0  0  0  0  0  0  0  0  0  0
   -1.9080   19.8570   -0.9190 C   0  0  0  0  0  0  0  0  0  0  0  0
   -2.2720   20.1940   -2.3300 C   0  0  0  0  0  0  0  0  0  0  0  0
   -2.9220   20.1910    0.1310 C   0  0  0  0  0  0  0  0  0  0  0  0
    1.9490   16.7890   -0.9780 C   0  0  1  0  0  0  0  0  0  0  0  0
    0.7380   17.0790   -0.0520 C   0  0  0  0  0  0  0  0  0  0  0  0
   -0.2840   15.9360   -0.2810 C   0  0  0  0  0  0  0  0  0  0  0  0
    0.5010   14.8630   -1.0710 C   0  0  1  0  0  0  0  0  0  0  0  0
    1.3170   14.0860    0.0100 C   0  0  0  0  0  0  0  0  0  0  0  0
   -0.3500   13.8960   -1.9570 C   0  0  2  0  0  0  0  0  0  0  0  0
   -1.3480   13.0130   -1.1870 C   0  0  0  0  0  0  0  0  0  0  0  0
   -0.8180   11.6890   -0.7440 C   0  0  0  0  0  0  0  0  0  0  0  0
    0.3080   11.1070   -1.1950 C   0  0  0  0  0  0  0  0  0  0  0  0
    1.1280   11.7450   -2.3230 C   0  0  1  0  0  0  0  0  0  0  0  0
    1.4990   10.6620   -3.3700 C   0  0  0  0  0  0  0  0  0  0  0  0
    2.2030    9.4620   -2.7450 C   0  0  0  0  0  0  0  0  0  0  0  0
    1.3330    8.8190   -1.6680 C   0  0  2  0  0  0  0  0  0  0  0  0
    0.1790    8.2440   -2.2900 O   0  0  0  0  0  0  0  0  0  0  0  0
    0.8880    9.8170   -0.5630 C   0  0  0  0  0  0  0  0  0  0  0  0
    2.1080   10.2090    0.3060 C   0  0  0  0  0  0  0  0  0  0  0  0
   -0.0980    9.0770    0.3800 C   0  0  0  0  0  0  0  0  0  0  0  0
    0.4990   13.0450   -2.9870 C   0  0  1  0  0  0  0  0  0  0  0  0
   -0.4740   12.6380   -4.1360 C   0  0  0  0  0  0  0  0  0  0  0  0
    1.6480   13.8880   -3.6560 C   0  0  0  0  0  0  0  0  0  0  0  0
    2.3710   14.9120   -2.7600 C   0  0  0  0  0  0  0  0  0  0  0  0
    1.3650   15.7860   -2.0050 C   0  0  2  0  0  0  0  0  0  0  0  0
    0.5450   16.5960   -3.0660 C   0  0  0  0  0  0  0  0  0  0  0  0
    4.3780   17.9715   -0.3207 H   0  0  0  0  0  0  0  0  0  0  0  0
    4.4753   17.0674   -1.8699 H   0  0  0  0  0  0  0  0  0  0  0  0
    4.5648   18.8615   -1.8699 H   0  0  0  0  0  0  0  0  0  0  0  0
    2.3553   18.1595   -2.5982 H   0  0  0  0  0  0  0  0  0  0  0  0
    1.7959   19.0264    0.2356 H   0  0  0  0  0  0  0  0  0  0  0  0
    2.7379   20.1029   -0.9031 H   0  0  0  0  0  0  0  0  0  0  0  0
    0.8211   20.8681   -1.6999 H   0  0  0  0  0  0  0  0  0  0  0  0
    0.4856   19.2026   -2.3325 H   0  0  0  0  0  0  0  0  0  0  0  0
    0.1269   20.0989    0.3277 H   0  0  0  0  0  0  0  0  0  0  0  0
   -3.0792   20.9413   -2.3319 H   0  0  0  0  0  0  0  0  0  0  0  0
   -1.3921   20.6033   -2.8479 H   0  0  0  0  0  0  0  0  0  0  0  0
   -2.6124   19.2852   -2.8479 H   0  0  0  0  0  0  0  0  0  0  0  0
   -2.4796   20.0453    1.1275 H   0  0  0  0  0  0  0  0  0  0  0  0
   -3.2347   21.2396    0.0184 H   0  0  0  0  0  0  0  0  0  0  0  0
   -3.7966   19.5335    0.0184 H   0  0  0  0  0  0  0  0  0  0  0  0
    2.8222   16.3476   -0.4752 H   0  0  0  0  0  0  0  0  0  0  0  0
    1.0603   17.0939    0.9996 H   0  0  0  0  0  0  0  0  0  0  0  0
    0.2925   18.0586   -0.2796 H   0  0  0  0  0  0  0  0  0  0  0  0
   -0.6356   15.5313    0.6795 H   0  0  0  0  0  0  0  0  0  0  0  0
   -1.1794   16.2789   -0.8201 H   0  0  0  0  0  0  0  0  0  0  0  0
    0.9887   14.3987    1.0122 H   0  0  0  0  0  0  0  0  0  0  0  0
    1.1492   13.0055   -0.1103 H   0  0  0  0  0  0  0  0  0  0  0  0
    2.3879   14.3064   -0.1103 H   0  0  0  0  0  0  0  0  0  0  0  0
   -0.9622   14.5941   -2.5468 H   0  0  0  0  0  0  0  0  0  0  0  0
   -1.6717   13.5660   -0.2929 H   0  0  0  0  0  0  0  0  0  0  0  0
   -2.1657   12.7940   -1.8894 H   0  0  0  0  0  0  0  0  0  0  0  0
   -1.3973   11.1434    0.0154 H   0  0  0  0  0  0  0  0  0  0  0  0
    2.0413   12.1364   -1.8512 H   0  0  0  0  0  0  0  0  0  0  0  0
    0.5774   10.3145   -3.8598 H   0  0  0  0  0  0  0  0  0  0  0  0
    2.1931   11.1183   -4.0912 H   0  0  0  0  0  0  0  0  0  0  0  0
    2.4130    8.7194   -3.5289 H   0  0  0  0  0  0  0  0  0  0  0  0
    3.1389    9.8066   -2.2809 H   0  0  0  0  0  0  0  0  0  0  0  0
    1.9406    8.0496   -1.1692 H   0  0  0  0  0  0  0  0  0  0  0  0
    0.4330    7.3680   -2.6270 H   0  0  0  0  0  0  0  0  0  0  0  0
    1.8427   10.1238    1.3701 H   0  0  0  0  0  0  0  0  0  0  0  0
    2.9488    9.5358    0.0826 H   0  0  0  0  0  0  0  0  0  0  0  0
    2.3993   11.2460    0.0826 H   0  0  0  0  0  0  0  0  0  0  0  0
    0.1730    9.2804    1.4265 H   0  0  0  0  0  0  0  0  0  0  0  0
   -1.1220    9.4314    0.1909 H   0  0  0  0  0  0  0  0  0  0  0  0
   -0.0438    7.9947    0.1909 H   0  0  0  0  0  0  0  0  0  0  0  0
   -1.4076   12.2475   -3.7048 H   0  0  0  0  0  0  0  0  0  0  0  0
   -0.6969   13.5183   -4.7568 H   0  0  0  0  0  0  0  0  0  0  0  0
   -0.0037   11.8612   -4.7568 H   0  0  0  0  0  0  0  0  0  0  0  0
    2.4036   13.1819   -4.0308 H   0  0  0  0  0  0  0  0  0  0  0  0
    1.1503   14.4866   -4.4331 H   0  0  0  0  0  0  0  0  0  0  0  0
    2.9979   14.3748   -2.0330 H   0  0  0  0  0  0  0  0  0  0  0  0
    2.9903   15.5604   -3.3973 H   0  0  0  0  0  0  0  0  0  0  0  0
   -0.1466   17.2792   -2.5513 H   0  0  0  0  0  0  0  0  0  0  0  0
    1.2341   17.1778   -3.6958 H   0  0  0  0  0  0  0  0  0  0  0  0
   -0.0283   15.8998   -3.6958 H   0  0  0  0  0  0  0  0  0  0  0  0
  1  2  1  0
  2  3  1  0
  3  4  1  0
  4  5  1  0
  5  6  1  0
  6  7  1  0
  7  8  1  0
  7  9  1  0
  2 10  1  0
 10 11  1  0
 11 12  1  0
 12 13  1  0
 13 14  1  1
 13 15  1  0
 15 16  1  0
 16 17  1  0
 17 18  2  0
 18 19  1  0
 19 20  1  0
 20 21  1  0
 21 22  1  0
 22 23  1  0
 22 24  1  0
 24 25  1  0
 24 26  1  0
 19 27  1  0
 27 28  1  6
 27 29  1  0
 29 30  1  0
 30 31  1  0
 31 32  1  6
  7  5  1  0
 31 10  1  0
 31 13  1  0
 27 15  1  0
 24 18  1  0
  1 33  1  0
  1 34  1  0
  1 35  1  0
  2 36  1  6
  3 37  1  0
  3 38  1  0
  4 39  1  0
  4 40  1  0
  5 41  1  1
  8 42  1  0
  8 43  1  0
  8 44  1  0
  9 45  1  0
  9 46  1  0
  9 47  1  0
 10 48  1  1
 11 49  1  0
 11 50  1  0
 12 51  1  0
 12 52  1  0
 14 53  1  0
 14 54  1  0
 14 55  1  0
 15 56  1  6
 16 57  1  0
 16 58  1  0
 17 59  1  0
 19 60  1  1
 20 61  1  0
 20 62  1  0
 21 63  1  0
 21 64  1  0
 22 65  1  1
 23 66  1  0
 25 67  1  0
 25 68  1  0
 25 69  1  0
 26 70  1  0
 26 71  1  0
 26 72  1  0
 28 73  1  0
 28 74  1  0
 28 75  1  0
 29 76  1  0
 29 77  1  0
 30 78  1  0
 30 79  1  0
 32 80  1  0
 32 81  1  0
 32 82  1  0
M  END
>  <meeko>  (18) 
{"is_sidechain": [false], "intermolecular_energy": 2.731, "internal_energy": -0.839}

$$$$
EPH_relaxed_0001_pdb2pqr_Repair_136_r2_0001_out
     RDKit          3D

 82 86  0  0  0  0  0  0  0  0999 V2000
    0.7630   10.9420   -4.6040 C   0  0  0  0  0  0  0  0  0  0  0  0
    0.6160   10.3880   -3.1840 C   0  0  2  0  0  0  0  0  0  0  0  0
   -0.7100    9.6240   -2.9940 C   0  0  0  0  0  0  0  0  0  0  0  0
   -0.6040    8.4350   -2.0350 C   0  0  0  0  0  0  0  0  0  0  0  0
   -0.3730    8.8810   -0.6230 C   0  0  2  0  0  0  0  0  0  0  0  0
   -1.3800    8.4640    0.3080 O   0  0  0  0  0  0  0  0  0  0  0  0
   -1.2620    9.8800    0.0950 C   0  0  0  0  0  0  0  0  0  0  0  0
   -2.4480   10.4950   -0.5800 C   0  0  0  0  0  0  0  0  0  0  0  0
   -0.7020   10.6210    1.2680 C   0  0  0  0  0  0  0  0  0  0  0  0
    0.7140   11.5220   -2.1700 C   0  0  1  0  0  0  0  0  0  0  0  0
    1.7480   11.2330   -1.0500 C   0  0  0  0  0  0  0  0  0  0  0  0
    2.3980   12.5920   -0.6810 C   0  0  0  0  0  0  0  0  0  0  0  0
    1.4950   13.6520   -1.3530 C   0  0  1  0  0  0  0  0  0  0  0  0
    0.2860   13.8230   -0.3810 C   0  0  0  0  0  0  0  0  0  0  0  0
    2.1680   15.0240   -1.6840 C   0  0  2  0  0  0  0  0  0  0  0  0
    2.6780   15.8110   -0.4650 C   0  0  0  0  0  0  0  0  0  0  0  0
    1.6950   16.7590    0.1390 C   0  0  0  0  0  0  0  0  0  0  0  0
    0.5560   17.1810   -0.4420 C   0  0  0  0  0  0  0  0  0  0  0  0
    0.2090   16.7740   -1.8800 C   0  0  1  0  0  0  0  0  0  0  0  0
   -0.2620   18.0220   -2.6720 C   0  0  0  0  0  0  0  0  0  0  0  0
   -1.4060   18.7570   -1.9800 C   0  0  0  0  0  0  0  0  0  0  0  0
   -1.0020   19.1960   -0.5750 C   0  0  2  0  0  0  0  0  0  0  0  0
    0.0210   20.1910   -0.6790 O   0  0  0  0  0  0  0  0  0  0  0  0
   -0.5010   18.0230    0.3130 C   0  0  0  0  0  0  0  0  0  0  0  0
   -1.6900   17.0990    0.6750 C   0  0  0  0  0  0  0  0  0  0  0  0
    0.0070   18.6210    1.6520 C   0  0  0  0  0  0  0  0  0  0  0  0
    1.3210   15.9440   -2.6540 C   0  0  1  0  0  0  0  0  0  0  0  0
    2.3300   16.9160   -3.3390 C   0  0  0  0  0  0  0  0  0  0  0  0
    0.6380   15.1240   -3.8120 C   0  0  0  0  0  0  0  0  0  0  0  0
    0.0990   13.7270   -3.4500 C   0  0  0  0  0  0  0  0  0  0  0  0
    1.1540   12.9110   -2.6970 C   0  0  2  0  0  0  0  0  0  0  0  0
    2.3740   12.7030   -3.6580 C   0  0  0  0  0  0  0  0  0  0  0  0
    1.0448   12.0042   -4.5558 H   0  0  0  0  0  0  0  0  0  0  0  0
    1.5430   10.3795   -5.1381 H   0  0  0  0  0  0  0  0  0  0  0  0
   -0.1932   10.8402   -5.1381 H   0  0  0  0  0  0  0  0  0  0  0  0
    1.4358    9.6729   -3.0212 H   0  0  0  0  0  0  0  0  0  0  0  0
   -1.4602   10.3240   -2.5976 H   0  0  0  0  0  0  0  0  0  0  0  0
   -0.9914    9.2194   -3.9774 H   0  0  0  0  0  0  0  0  0  0  0  0
   -1.5394    7.8577   -2.0781 H   0  0  0  0  0  0  0  0  0  0  0  0
    0.2535    7.8196   -2.3450 H   0  0  0  0  0  0  0  0  0  0  0  0
    0.7172    8.8283   -0.7593 H   0  0  0  0  0  0  0  0  0  0  0  0
   -3.1537   10.8609    0.1803 H   0  0  0  0  0  0  0  0  0  0  0  0
   -2.1175   11.3353   -1.2082 H   0  0  0  0  0  0  0  0  0  0  0  0
   -2.9444    9.7407   -1.2082 H   0  0  0  0  0  0  0  0  0  0  0  0
   -1.0550   10.1539    2.1993 H   0  0  0  0  0  0  0  0  0  0  0  0
    0.3969   10.5854    1.2336 H   0  0  0  0  0  0  0  0  0  0  0  0
   -1.0362   11.6684    1.2336 H   0  0  0  0  0  0  0  0  0  0  0  0
   -0.3330   11.5618   -1.8351 H   0  0  0  0  0  0  0  0  0  0  0  0
    1.2449   10.8026   -0.1716 H   0  0  0  0  0  0  0  0  0  0  0  0
    2.5059   10.5111   -1.3883 H   0  0  0  0  0  0  0  0  0  0  0  0
    2.4141   12.7311    0.4100 H   0  0  0  0  0  0  0  0  0  0  0  0
    3.4427   12.6598   -1.0185 H   0  0  0  0  0  0  0  0  0  0  0  0
    0.6415   13.7727    0.6588 H   0  0  0  0  0  0  0  0  0  0  0  0
   -0.1920   14.7977   -0.5583 H   0  0  0  0  0  0  0  0  0  0  0  0
   -0.4436   13.0191   -0.5583 H   0  0  0  0  0  0  0  0  0  0  0  0
    3.0671   14.7183   -2.2391 H   0  0  0  0  0  0  0  0  0  0  0  0
    2.9711   15.0864    0.3090 H   0  0  0  0  0  0  0  0  0  0  0  0
    3.5123   16.4287   -0.8289 H   0  0  0  0  0  0  0  0  0  0  0  0
    1.9205   17.1454    1.1439 H   0  0  0  0  0  0  0  0  0  0  0  0
   -0.6148   16.0495   -1.8001 H   0  0  0  0  0  0  0  0  0  0  0  0
    0.5873   18.7128   -2.7791 H   0  0  0  0  0  0  0  0  0  0  0  0
   -0.6297   17.6776   -3.6499 H   0  0  0  0  0  0  0  0  0  0  0  0
   -1.6734   19.6450   -2.5716 H   0  0  0  0  0  0  0  0  0  0  0  0
   -2.2649   18.0743   -1.9010 H   0  0  0  0  0  0  0  0  0  0  0  0
   -1.9003   19.5994   -0.0847 H   0  0  0  0  0  0  0  0  0  0  0  0
    0.5450   20.1620    0.1390 H   0  0  0  0  0  0  0  0  0  0  0  0
   -1.7801   17.0290    1.7691 H   0  0  0  0  0  0  0  0  0  0  0  0
   -2.6183   17.5150    0.2565 H   0  0  0  0  0  0  0  0  0  0  0  0
   -1.5161   16.0967    0.2565 H   0  0  0  0  0  0  0  0  0  0  0  0
   -0.4523   18.0803    2.4927 H   0  0  0  0  0  0  0  0  0  0  0  0
    1.1012   18.5218    1.7062 H   0  0  0  0  0  0  0  0  0  0  0  0
   -0.2678   19.6847    1.7062 H   0  0  0  0  0  0  0  0  0  0  0  0
    2.8953   17.4606   -2.5684 H   0  0  0  0  0  0  0  0  0  0  0  0
    3.0263   16.3397   -3.9659 H   0  0  0  0  0  0  0  0  0  0  0  0
    1.7801   17.6333   -3.9659 H   0  0  0  0  0  0  0  0  0  0  0  0
   -0.2071   15.7196   -4.1877 H   0  0  0  0  0  0  0  0  0  0  0  0
    1.4370   14.9427   -4.5460 H   0  0  0  0  0  0  0  0  0  0  0  0
   -0.7914   13.8385   -2.8138 H   0  0  0  0  0  0  0  0  0  0  0  0
   -0.1563   13.1976   -4.3798 H   0  0  0  0  0  0  0  0  0  0  0  0
    3.2865   12.5474   -3.0637 H   0  0  0  0  0  0  0  0  0  0  0  0
    2.1950   11.8224   -4.2925 H   0  0  0  0  0  0  0  0  0  0  0  0
    2.4969   13.5931   -4.2925 H   0  0  0  0  0  0  0  0  0  0  0  0
  1  2  1  0
  2  3  1  0
  3  4  1  0
  4  5  1  0
  5  6  1  0
  6  7  1  0
  7  8  1  0
  7  9  1  0
  2 10  1  0
 10 11  1  0
 11 12  1  0
 12 13  1  0
 13 14  1  1
 13 15  1  0
 15 16  1  0
 16 17  1  0
 17 18  2  0
 18 19  1  0
 19 20  1  0
 20 21  1  0
 21 22  1  0
 22 23  1  0
 22 24  1  0
 24 25  1  0
 24 26  1  0
 19 27  1  0
 27 28  1  6
 27 29  1  0
 29 30  1  0
 30 31  1  0
 31 32  1  6
  7  5  1  0
 31 10  1  0
 31 13  1  0
 27 15  1  0
 24 18  1  0
  1 33  1  0
  1 34  1  0
  1 35  1  0
  2 36  1  1
  3 37  1  0
  3 38  1  0
  4 39  1  0
  4 40  1  0
  5 41  1  1
  8 42  1  0
  8 43  1  0
  8 44  1  0
  9 45  1  0
  9 46  1  0
  9 47  1  0
 10 48  1  1
 11 49  1  0
 11 50  1  0
 12 51  1  0
 12 52  1  0
 14 53  1  0
 14 54  1  0
 14 55  1  0
 15 56  1  6
 16 57  1  0
 16 58  1  0
 17 59  1  0
 19 60  1  1
 20 61  1  0
 20 62  1  0
 21 63  1  0
 21 64  1  0
 22 65  1  1
 23 66  1  0
 25 67  1  0
 25 68  1  0
 25 69  1  0
 26 70  1  0
 26 71  1  0
 26 72  1  0
 28 73  1  0
 28 74  1  0
 28 75  1  0
 29 76  1  0
 29 77  1  0
 30 78  1  0
 30 79  1  0
 32 80  1  0
 32 81  1  0
 32 82  1  0
M  END
>  <meeko>  (19) 
{"is_sidechain": [false], "intermolecular_energy": 2.731, "internal_energy": -0.839}

$$$$
