EPH_relaxed_0001_pdb2pqr_Repair_418_r2_0001_out
     RDKit          3D

 82 86  0  0  0  0  0  0  0  0999 V2000
   -1.7040    8.4550   -1.7860 C   0  0  0  0  0  0  0  0  0  0  0  0
   -2.1140    9.0830   -0.4510 C   0  0  2  0  0  0  0  0  0  0  0  0
   -3.6180    9.4200   -0.4060 C   0  0  0  0  0  0  0  0  0  0  0  0
   -4.5210    8.1890   -0.2850 C   0  0  0  0  0  0  0  0  0  0  0  0
   -5.2270    7.8920   -1.5730 C   0  0  2  0  0  0  0  0  0  0  0  0
   -6.3720    8.7150   -1.8330 O   0  0  0  0  0  0  0  0  0  0  0  0
   -6.6280    7.3140   -1.6450 C   0  0  0  0  0  0  0  0  0  0  0  0
   -7.4070    6.9970   -0.4070 C   0  0  0  0  0  0  0  0  0  0  0  0
   -7.0460    6.6050   -2.8960 C   0  0  0  0  0  0  0  0  0  0  0  0
   -1.2910   10.3400   -0.1930 C   0  0  1  0  0  0  0  0  0  0  0  0
   -0.3050   10.1750    0.9940 C   0  0  0  0  0  0  0  0  0  0  0  0
    0.9640   10.9910    0.6370 C   0  0  0  0  0  0  0  0  0  0  0  0
    0.5440   11.8580   -0.5720 C   0  0  1  0  0  0  0  0  0  0  0  0
   -0.2150   13.0720    0.0490 C   0  0  0  0  0  0  0  0  0  0  0  0
    1.6950   12.3220   -1.5230 C   0  0  2  0  0  0  0  0  0  0  0  0
    2.7530   13.2290   -0.8720 C   0  0  0  0  0  0  0  0  0  0  0  0
    2.4750   14.6940   -0.9550 C   0  0  0  0  0  0  0  0  0  0  0  0
    1.5730   15.2740   -1.7680 C   0  0  0  0  0  0  0  0  0  0  0  0
    0.7880   14.4450   -2.7920 C   0  0  1  0  0  0  0  0  0  0  0  0
    0.8030   15.1670   -4.1650 C   0  0  0  0  0  0  0  0  0  0  0  0
    0.3050   16.6060   -4.0740 C   0  0  0  0  0  0  0  0  0  0  0  0
    1.1470   17.4140   -3.0900 C   0  0  2  0  0  0  0  0  0  0  0  0
    2.4700   17.5500   -3.6190 O   0  0  0  0  0  0  0  0  0  0  0  0
    1.2130   16.7770   -1.6740 C   0  0  0  0  0  0  0  0  0  0  0  0
   -0.1660   16.9050   -0.9810 C   0  0  0  0  0  0  0  0  0  0  0  0
    2.2060   17.6130   -0.8210 C   0  0  0  0  0  0  0  0  0  0  0  0
    1.1960   12.9130   -2.9040 C   0  0  1  0  0  0  0  0  0  0  0  0
    2.3760   12.7490   -3.9100 C   0  0  0  0  0  0  0  0  0  0  0  0
   -0.0130   12.1000   -3.5010 C   0  0  0  0  0  0  0  0  0  0  0  0
   -1.0540   11.5660   -2.4990 C   0  0  0  0  0  0  0  0  0  0  0  0
   -0.3720   10.8350   -1.3380 C   0  0  2  0  0  0  0  0  0  0  0  0
    0.3810    9.5950   -1.9300 C   0  0  0  0  0  0  0  0  0  0  0  0
   -1.1115    7.5475   -1.5977 H   0  0  0  0  0  0  0  0  0  0  0  0
   -2.6050    8.1922   -2.3597 H   0  0  0  0  0  0  0  0  0  0  0  0
   -1.1009    9.1742   -2.3597 H   0  0  0  0  0  0  0  0  0  0  0  0
   -1.9175    8.3417    0.3376 H   0  0  0  0  0  0  0  0  0  0  0  0
   -3.8020   10.0723    0.4604 H   0  0  0  0  0  0  0  0  0  0  0  0
   -3.8667    9.9089   -1.3595 H   0  0  0  0  0  0  0  0  0  0  0  0
   -3.9052    7.3208   -0.0074 H   0  0  0  0  0  0  0  0  0  0  0  0
   -5.2807    8.3947    0.4835 H   0  0  0  0  0  0  0  0  0  0  0  0
   -4.2810    7.5961   -2.0500 H   0  0  0  0  0  0  0  0  0  0  0  0
   -6.8033    7.2427    0.4791 H   0  0  0  0  0  0  0  0  0  0  0  0
   -8.3337    7.5896   -0.3951 H   0  0  0  0  0  0  0  0  0  0  0  0
   -7.6566    5.9258   -0.3951 H   0  0  0  0  0  0  0  0  0  0  0  0
   -7.5884    5.6851   -2.6323 H   0  0  0  0  0  0  0  0  0  0  0  0
   -7.7020    7.2607   -3.4873 H   0  0  0  0  0  0  0  0  0  0  0  0
   -6.1547    6.3484   -3.4873 H   0  0  0  0  0  0  0  0  0  0  0  0
   -2.1038   11.0616   -0.0238 H   0  0  0  0  0  0  0  0  0  0  0  0
   -0.7571   10.5627    1.9188 H   0  0  0  0  0  0  0  0  0  0  0  0
   -0.0600    9.1156    1.1600 H   0  0  0  0  0  0  0  0  0  0  0  0
    1.2682   11.6254    1.4826 H   0  0  0  0  0  0  0  0  0  0  0  0
    1.8242   10.3448    0.4077 H   0  0  0  0  0  0  0  0  0  0  0  0
   -0.1746   13.0073    1.1464 H   0  0  0  0  0  0  0  0  0  0  0  0
    0.2588   14.0083   -0.2808 H   0  0  0  0  0  0  0  0  0  0  0  0
   -1.2643   13.0561   -0.2808 H   0  0  0  0  0  0  0  0  0  0  0  0
    2.2107   11.3769   -1.7486 H   0  0  0  0  0  0  0  0  0  0  0  0
    2.8266   12.9566    0.1912 H   0  0  0  0  0  0  0  0  0  0  0  0
    3.6837   13.0634   -1.4344 H   0  0  0  0  0  0  0  0  0  0  0  0
    3.0568   15.3549   -0.2957 H   0  0  0  0  0  0  0  0  0  0  0  0
   -0.2424   14.3893   -2.4109 H   0  0  0  0  0  0  0  0  0  0  0  0
    1.8339   15.1741   -4.5485 H   0  0  0  0  0  0  0  0  0  0  0  0
    0.1251   14.6207   -4.8372 H   0  0  0  0  0  0  0  0  0  0  0  0
    0.3675   17.0720   -5.0684 H   0  0  0  0  0  0  0  0  0  0  0  0
   -0.7360   16.5952   -3.7187 H   0  0  0  0  0  0  0  0  0  0  0  0
    0.6644   18.3952   -2.9702 H   0  0  0  0  0  0  0  0  0  0  0  0
    2.6760   18.4990   -3.6560 H   0  0  0  0  0  0  0  0  0  0  0  0
   -0.0304   16.8924    0.1105 H   0  0  0  0  0  0  0  0  0  0  0  0
   -0.6405   17.8511   -1.2806 H   0  0  0  0  0  0  0  0  0  0  0  0
   -0.8066   16.0625   -1.2806 H   0  0  0  0  0  0  0  0  0  0  0  0
    2.0047   17.4435    0.2471 H   0  0  0  0  0  0  0  0  0  0  0  0
    3.2367   17.3067   -1.0530 H   0  0  0  0  0  0  0  0  0  0  0  0
    2.0798   18.6808   -1.0530 H   0  0  0  0  0  0  0  0  0  0  0  0
    3.3162   12.6183   -3.3542 H   0  0  0  0  0  0  0  0  0  0  0  0
    2.1985   11.8669   -4.5428 H   0  0  0  0  0  0  0  0  0  0  0  0
    2.4458   13.6461   -4.5428 H   0  0  0  0  0  0  0  0  0  0  0  0
   -0.5392   12.7577   -4.2085 H   0  0  0  0  0  0  0  0  0  0  0  0
    0.4379   11.2038   -3.9522 H   0  0  0  0  0  0  0  0  0  0  0  0
   -1.6362   12.4100   -2.1006 H   0  0  0  0  0  0  0  0  0  0  0  0
   -1.7128   10.8569   -3.0217 H   0  0  0  0  0  0  0  0  0  0  0  0
    0.7606    8.9699   -1.1083 H   0  0  0  0  0  0  0  0  0  0  0  0
   -0.3122    9.0061   -2.5486 H   0  0  0  0  0  0  0  0  0  0  0  0
    1.2232    9.9385   -2.5486 H   0  0  0  0  0  0  0  0  0  0  0  0
  1  2  1  0
  2  3  1  0
  3  4  1  0
  4  5  1  0
  5  6  1  0
  6  7  1  0
  7  8  1  0
  7  9  1  0
  2 10  1  0
 10 11  1  0
 11 12  1  0
 12 13  1  0
 13 14  1  1
 13 15  1  0
 15 16  1  0
 16 17  1  0
 17 18  2  0
 18 19  1  0
 19 20  1  0
 20 21  1  0
 21 22  1  0
 22 23  1  0
 22 24  1  0
 24 25  1  0
 24 26  1  0
 19 27  1  0
 27 28  1  6
 27 29  1  0
 29 30  1  0
 30 31  1  0
 31 32  1  6
  7  5  1  0
 31 10  1  0
 31 13  1  0
 27 15  1  0
 24 18  1  0
  1 33  1  0
  1 34  1  0
  1 35  1  0
  2 36  1  1
  3 37  1  0
  3 38  1  0
  4 39  1  0
  4 40  1  0
  5 41  1  6
  8 42  1  0
  8 43  1  0
  8 44  1  0
  9 45  1  0
  9 46  1  0
  9 47  1  0
 10 48  1  1
 11 49  1  0
 11 50  1  0
 12 51  1  0
 12 52  1  0
 14 53  1  0
 14 54  1  0
 14 55  1  0
 15 56  1  6
 16 57  1  0
 16 58  1  0
 17 59  1  0
 19 60  1  1
 20 61  1  0
 20 62  1  0
 21 63  1  0
 21 64  1  0
 22 65  1  1
 23 66  1  0
 25 67  1  0
 25 68  1  0
 25 69  1  0
 26 70  1  0
 26 71  1  0
 26 72  1  0
 28 73  1  0
 28 74  1  0
 28 75  1  0
 29 76  1  0
 29 77  1  0
 30 78  1  0
 30 79  1  0
 32 80  1  0
 32 81  1  0
 32 82  1  0
M  END
>  <meeko>  (1) 
{"is_sidechain": [false], "intermolecular_energy": 2.731, "internal_energy": -0.839}

$$$$
EPH_relaxed_0001_pdb2pqr_Repair_418_r2_0001_out
     RDKit          3D

 82 86  0  0  0  0  0  0  0  0999 V2000
    2.0690   17.9680   -3.1560 C   0  0  0  0  0  0  0  0  0  0  0  0
    0.6650   17.6620   -2.6260 C   0  0  2  0  0  0  0  0  0  0  0  0
    0.5480   17.9170   -1.1100 C   0  0  0  0  0  0  0  0  0  0  0  0
    0.8630   19.3590   -0.7020 C   0  0  0  0  0  0  0  0  0  0  0  0
   -0.3810   20.1220   -0.3620 C   0  0  2  0  0  0  0  0  0  0  0  0
   -0.6850   20.1790    1.0380 O   0  0  0  0  0  0  0  0  0  0  0  0
   -1.6280   19.4760    0.2130 C   0  0  0  0  0  0  0  0  0  0  0  0
   -1.6930   18.0050    0.4800 C   0  0  0  0  0  0  0  0  0  0  0  0
   -2.9380   20.1850    0.0580 C   0  0  0  0  0  0  0  0  0  0  0  0
    0.2940   16.2180   -2.9420 C   0  0  1  0  0  0  0  0  0  0  0  0
    0.4170   15.8860   -4.4530 C   0  0  0  0  0  0  0  0  0  0  0  0
    0.8960   14.4150   -4.5500 C   0  0  0  0  0  0  0  0  0  0  0  0
    0.7150   13.8500   -3.1220 C   0  0  1  0  0  0  0  0  0  0  0  0
   -0.7990   13.4820   -3.0250 C   0  0  0  0  0  0  0  0  0  0  0  0
    1.6290   12.6410   -2.7360 C   0  0  2  0  0  0  0  0  0  0  0  0
    1.4190   11.3700   -3.5770 C   0  0  0  0  0  0  0  0  0  0  0  0
    0.4050   10.4130   -3.0430 C   0  0  0  0  0  0  0  0  0  0  0  0
   -0.1010   10.4240   -1.7960 C   0  0  0  0  0  0  0  0  0  0  0  0
    0.4180   11.4130   -0.7440 C   0  0  1  0  0  0  0  0  0  0  0  0
    0.6770   10.6630    0.5880 C   0  0  0  0  0  0  0  0  0  0  0  0
   -0.5450    9.8870    1.0700 C   0  0  0  0  0  0  0  0  0  0  0  0
   -0.9960    8.8730    0.0220 C   0  0  2  0  0  0  0  0  0  0  0  0
    0.0120    7.8650   -0.1080 O   0  0  0  0  0  0  0  0  0  0  0  0
   -1.2770    9.5130   -1.3670 C   0  0  0  0  0  0  0  0  0  0  0  0
   -2.5600   10.3770   -1.2910 C   0  0  0  0  0  0  0  0  0  0  0  0
   -1.5860    8.3660   -2.3670 C   0  0  0  0  0  0  0  0  0  0  0  0
    1.6500   12.3130   -1.1880 C   0  0  1  0  0  0  0  0  0  0  0  0
    2.9870   11.5590   -0.9110 C   0  0  0  0  0  0  0  0  0  0  0  0
    1.6820   13.6140   -0.3010 C   0  0  0  0  0  0  0  0  0  0  0  0
    0.8540   14.8140   -0.7980 C   0  0  0  0  0  0  0  0  0  0  0  0
    1.1410   15.1040   -2.2750 C   0  0  2  0  0  0  0  0  0  0  0  0
    2.6520   15.4990   -2.4010 C   0  0  0  0  0  0  0  0  0  0  0  0
    2.7558   18.1177   -2.3099 H   0  0  0  0  0  0  0  0  0  0  0  0
    2.4211   17.1255   -3.7694 H   0  0  0  0  0  0  0  0  0  0  0  0
    2.0385   18.8806   -3.7694 H   0  0  0  0  0  0  0  0  0  0  0  0
   -0.0352   18.3445   -3.1299 H   0  0  0  0  0  0  0  0  0  0  0  0
   -0.4806   17.6844   -0.7971 H   0  0  0  0  0  0  0  0  0  0  0  0
    1.2922   17.2738   -0.6176 H   0  0  0  0  0  0  0  0  0  0  0  0
    1.5241   19.3446    0.1771 H   0  0  0  0  0  0  0  0  0  0  0  0
    1.3501   19.8579   -1.5528 H   0  0  0  0  0  0  0  0  0  0  0  0
   -0.2271   20.7989   -1.2153 H   0  0  0  0  0  0  0  0  0  0  0  0
   -1.7008   17.8294    1.5659 H   0  0  0  0  0  0  0  0  0  0  0  0
   -2.6103   17.5918    0.0352 H   0  0  0  0  0  0  0  0  0  0  0  0
   -0.8157   17.5125    0.0352 H   0  0  0  0  0  0  0  0  0  0  0  0
   -3.3531   20.4097    1.0516 H   0  0  0  0  0  0  0  0  0  0  0  0
   -2.7840   21.1229   -0.4957 H   0  0  0  0  0  0  0  0  0  0  0  0
   -3.6390   19.5432   -0.4957 H   0  0  0  0  0  0  0  0  0  0  0  0
   -0.7318   16.2003   -2.5453 H   0  0  0  0  0  0  0  0  0  0  0  0
   -0.5595   15.9998   -4.9466 H   0  0  0  0  0  0  0  0  0  0  0  0
    1.1247   16.5655   -4.9504 H   0  0  0  0  0  0  0  0  0  0  0  0
    0.2826   13.8537   -5.2702 H   0  0  0  0  0  0  0  0  0  0  0  0
    1.9359   14.3375   -4.9002 H   0  0  0  0  0  0  0  0  0  0  0  0
   -1.0920   13.4108   -1.9671 H   0  0  0  0  0  0  0  0  0  0  0  0
   -1.3980   14.2607   -3.5198 H   0  0  0  0  0  0  0  0  0  0  0  0
   -0.9738   12.5152   -3.5198 H   0  0  0  0  0  0  0  0  0  0  0  0
    2.6317   13.0100   -2.9978 H   0  0  0  0  0  0  0  0  0  0  0  0
    1.0994   11.6773   -4.5837 H   0  0  0  0  0  0  0  0  0  0  0  0
    2.3797   10.8343   -3.5645 H   0  0  0  0  0  0  0  0  0  0  0  0
    0.0405    9.6325   -3.7271 H   0  0  0  0  0  0  0  0  0  0  0  0
   -0.3809   12.1561   -0.6039 H   0  0  0  0  0  0  0  0  0  0  0  0
    1.5070    9.9567    0.4393 H   0  0  0  0  0  0  0  0  0  0  0  0
    0.9178   11.4155    1.3534 H   0  0  0  0  0  0  0  0  0  0  0  0
   -0.2905    9.3556    1.9989 H   0  0  0  0  0  0  0  0  0  0  0  0
   -1.3654   10.5983    1.2460 H   0  0  0  0  0  0  0  0  0  0  0  0
   -1.9470    8.4414    0.3675 H   0  0  0  0  0  0  0  0  0  0  0  0
    0.2650    7.5850    0.7880 H   0  0  0  0  0  0  0  0  0  0  0  0
   -2.8215   10.5531   -0.2372 H   0  0  0  0  0  0  0  0  0  0  0  0
   -2.3832   11.3407   -1.7909 H   0  0  0  0  0  0  0  0  0  0  0  0
   -3.3866    9.8508   -1.7909 H   0  0  0  0  0  0  0  0  0  0  0  0
   -1.8327    7.4502   -1.8097 H   0  0  0  0  0  0  0  0  0  0  0  0
   -2.4393    8.6512   -2.9998 H   0  0  0  0  0  0  0  0  0  0  0  0
   -0.7049    8.1840   -2.9998 H   0  0  0  0  0  0  0  0  0  0  0  0
    3.1409   11.4722    0.1747 H   0  0  0  0  0  0  0  0  0  0  0  0
    2.9403   10.5542   -1.3562 H   0  0  0  0  0  0  0  0  0  0  0  0
    3.8227   12.1188   -1.3562 H   0  0  0  0  0  0  0  0  0  0  0  0
    1.3104   13.3444    0.6986 H   0  0  0  0  0  0  0  0  0  0  0  0
    2.7275   13.9549   -0.3277 H   0  0  0  0  0  0  0  0  0  0  0  0
   -0.2157   14.5880   -0.6769 H   0  0  0  0  0  0  0  0  0  0  0  0
    1.1297   15.6995   -0.2066 H   0  0  0  0  0  0  0  0  0  0  0  0
    3.0863   15.6125   -1.3968 H   0  0  0  0  0  0  0  0  0  0  0  0
    3.1924   14.7119   -2.9474 H   0  0  0  0  0  0  0  0  0  0  0  0
    2.7381   16.4498   -2.9474 H   0  0  0  0  0  0  0  0  0  0  0  0
  1  2  1  0
  2  3  1  0
  3  4  1  0
  4  5  1  0
  5  6  1  0
  6  7  1  0
  7  8  1  0
  7  9  1  0
  2 10  1  0
 10 11  1  0
 11 12  1  0
 12 13  1  0
 13 14  1  1
 13 15  1  0
 15 16  1  0
 16 17  1  0
 17 18  2  0
 18 19  1  0
 19 20  1  0
 20 21  1  0
 21 22  1  0
 22 23  1  0
 22 24  1  0
 24 25  1  0
 24 26  1  0
 19 27  1  0
 27 28  1  6
 27 29  1  0
 29 30  1  0
 30 31  1  0
 31 32  1  1
  7  5  1  0
 31 10  1  0
 31 13  1  0
 27 15  1  0
 24 18  1  0
  1 33  1  0
  1 34  1  0
  1 35  1  0
  2 36  1  6
  3 37  1  0
  3 38  1  0
  4 39  1  0
  4 40  1  0
  5 41  1  6
  8 42  1  0
  8 43  1  0
  8 44  1  0
  9 45  1  0
  9 46  1  0
  9 47  1  0
 10 48  1  1
 11 49  1  0
 11 50  1  0
 12 51  1  0
 12 52  1  0
 14 53  1  0
 14 54  1  0
 14 55  1  0
 15 56  1  6
 16 57  1  0
 16 58  1  0
 17 59  1  0
 19 60  1  1
 20 61  1  0
 20 62  1  0
 21 63  1  0
 21 64  1  0
 22 65  1  1
 23 66  1  0
 25 67  1  0
 25 68  1  0
 25 69  1  0
 26 70  1  0
 26 71  1  0
 26 72  1  0
 28 73  1  0
 28 74  1  0
 28 75  1  0
 29 76  1  0
 29 77  1  0
 30 78  1  0
 30 79  1  0
 32 80  1  0
 32 81  1  0
 32 82  1  0
M  END
>  <meeko>  (2) 
{"is_sidechain": [false], "intermolecular_energy": 2.731, "internal_energy": -0.839}

$$$$
EPH_relaxed_0001_pdb2pqr_Repair_418_r2_0001_out
     RDKit          3D

 82 86  0  0  0  0  0  0  0  0999 V2000
   -5.1090    5.9200   -1.8600 C   0  0  0  0  0  0  0  0  0  0  0  0
   -5.4480    7.4130   -1.8460 C   0  0  2  0  0  0  0  0  0  0  0  0
   -5.2400    8.0440   -0.4550 C   0  0  0  0  0  0  0  0  0  0  0  0
   -4.1780    9.1470   -0.4310 C   0  0  0  0  0  0  0  0  0  0  0  0
   -2.8180    8.6140   -0.7670 C   0  0  2  0  0  0  0  0  0  0  0  0
   -1.7970    8.9350    0.1870 O   0  0  0  0  0  0  0  0  0  0  0  0
   -1.6380    9.4980   -1.1250 C   0  0  0  0  0  0  0  0  0  0  0  0
   -1.7640   10.9890   -1.1670 C   0  0  0  0  0  0  0  0  0  0  0  0
   -0.5070    8.9010   -1.9040 C   0  0  0  0  0  0  0  0  0  0  0  0
   -6.8860    7.6240   -2.3040 C   0  0  1  0  0  0  0  0  0  0  0  0
   -7.1930    6.9230   -3.6540 C   0  0  0  0  0  0  0  0  0  0  0  0
   -8.6630    6.4350   -3.5810 C   0  0  0  0  0  0  0  0  0  0  0  0
   -9.2510    7.1520   -2.3430 C   0  0  1  0  0  0  0  0  0  0  0  0
   -9.6190    8.5830   -2.8470 C   0  0  0  0  0  0  0  0  0  0  0  0
  -10.4670    6.4530   -1.6520 C   0  0  2  0  0  0  0  0  0  0  0  0
  -11.7240    6.3130   -2.5290 C   0  0  0  0  0  0  0  0  0  0  0  0
  -12.6890    7.4480   -2.4450 C   0  0  0  0  0  0  0  0  0  0  0  0
  -12.6980    8.3990   -1.4920 C   0  0  0  0  0  0  0  0  0  0  0  0
  -11.7270    8.3340   -0.3060 C   0  0  1  0  0  0  0  0  0  0  0  0
  -12.5000    8.6080    1.0110 C   0  0  0  0  0  0  0  0  0  0  0  0
  -13.2830    9.9160    0.9690 C   0  0  0  0  0  0  0  0  0  0  0  0
  -14.2780    9.9190   -0.1880 C   0  0  2  0  0  0  0  0  0  0  0  0
  -15.2850    8.9340    0.0670 O   0  0  0  0  0  0  0  0  0  0  0  0
  -13.6160    9.6440   -1.5670 C   0  0  0  0  0  0  0  0  0  0  0  0
  -12.7520   10.8610   -1.9820 C   0  0  0  0  0  0  0  0  0  0  0  0
  -14.7460    9.5330   -2.6260 C   0  0  0  0  0  0  0  0  0  0  0  0
  -10.8200    7.0320   -0.2230 C   0  0  1  0  0  0  0  0  0  0  0  0
  -11.5800    5.9030    0.5390 C   0  0  0  0  0  0  0  0  0  0  0  0
   -9.5350    7.3540    0.6270 C   0  0  0  0  0  0  0  0  0  0  0  0
   -8.3260    7.9310   -0.1330 C   0  0  0  0  0  0  0  0  0  0  0  0
   -8.0110    7.0960   -1.3780 C   0  0  2  0  0  0  0  0  0  0  0  0
   -7.6160    5.6570   -0.9020 C   0  0  0  0  0  0  0  0  0  0  0  0
   -5.0257    5.5532   -0.8263 H   0  0  0  0  0  0  0  0  0  0  0  0
   -5.9047    5.3682   -2.3819 H   0  0  0  0  0  0  0  0  0  0  0  0
   -4.1530    5.7659   -2.3819 H   0  0  0  0  0  0  0  0  0  0  0  0
   -4.7588    7.9144   -2.5414 H   0  0  0  0  0  0  0  0  0  0  0  0
   -6.1959    8.4753   -0.1230 H   0  0  0  0  0  0  0  0  0  0  0  0
   -4.8864    7.2433    0.2112 H   0  0  0  0  0  0  0  0  0  0  0  0
   -4.4496    9.9195   -1.1654 H   0  0  0  0  0  0  0  0  0  0  0  0
   -4.1409    9.5655    0.5856 H   0  0  0  0  0  0  0  0  0  0  0  0
   -3.2584    7.7354   -1.2611 H   0  0  0  0  0  0  0  0  0  0  0  0
   -1.7973   11.3832   -0.1406 H   0  0  0  0  0  0  0  0  0  0  0  0
   -0.8987   11.4154   -1.6956 H   0  0  0  0  0  0  0  0  0  0  0  0
   -2.6886   11.2641   -1.6956 H   0  0  0  0  0  0  0  0  0  0  0  0
    0.2470    8.5030   -1.2090 H   0  0  0  0  0  0  0  0  0  0  0  0
   -0.8879    8.0865   -2.5376 H   0  0  0  0  0  0  0  0  0  0  0  0
   -0.0494    9.6750   -2.5376 H   0  0  0  0  0  0  0  0  0  0  0  0
   -6.9095    8.7232   -2.3372 H   0  0  0  0  0  0  0  0  0  0  0  0
   -7.0703    7.6325   -4.4856 H   0  0  0  0  0  0  0  0  0  0  0  0
   -6.5059    6.0817   -3.8272 H   0  0  0  0  0  0  0  0  0  0  0  0
   -9.2119    6.7185   -4.4911 H   0  0  0  0  0  0  0  0  0  0  0  0
   -8.7357    5.3402   -3.5027 H   0  0  0  0  0  0  0  0  0  0  0  0
   -9.7888    9.2434   -1.9838 H   0  0  0  0  0  0  0  0  0  0  0  0
   -8.7939    8.9807   -3.4562 H   0  0  0  0  0  0  0  0  0  0  0  0
  -10.5336    8.5333   -3.4562 H   0  0  0  0  0  0  0  0  0  0  0  0
  -10.0953    5.4292   -1.4984 H   0  0  0  0  0  0  0  0  0  0  0  0
  -11.3994    6.2195   -3.5759 H   0  0  0  0  0  0  0  0  0  0  0  0
  -12.2603    5.4290   -2.1536 H   0  0  0  0  0  0  0  0  0  0  0  0
  -13.4585    7.5133   -3.2283 H   0  0  0  0  0  0  0  0  0  0  0  0
  -10.9855    9.1286   -0.4755 H   0  0  0  0  0  0  0  0  0  0  0  0
  -13.2042    7.7811    1.1850 H   0  0  0  0  0  0  0  0  0  0  0  0
  -11.7605    8.6878    1.8214 H   0  0  0  0  0  0  0  0  0  0  0  0
  -13.8307   10.0383    1.9151 H   0  0  0  0  0  0  0  0  0  0  0  0
  -12.5744   10.7449    0.8249 H   0  0  0  0  0  0  0  0  0  0  0  0
  -14.7136   10.9274   -0.2450 H   0  0  0  0  0  0  0  0  0  0  0  0
  -16.1420    9.3910    0.0990 H   0  0  0  0  0  0  0  0  0  0  0  0
  -12.3867   11.3756   -1.0810 H   0  0  0  0  0  0  0  0  0  0  0  0
  -11.8956   10.5159   -2.5798 H   0  0  0  0  0  0  0  0  0  0  0  0
  -13.3603   11.5557   -2.5798 H   0  0  0  0  0  0  0  0  0  0  0  0
  -15.7168    9.4376   -2.1177 H   0  0  0  0  0  0  0  0  0  0  0  0
  -14.7487   10.4352   -3.2553 H   0  0  0  0  0  0  0  0  0  0  0  0
  -14.5731    8.6475   -3.2553 H   0  0  0  0  0  0  0  0  0  0  0  0
  -11.4757    6.0579    1.6230 H   0  0  0  0  0  0  0  0  0  0  0  0
  -12.6452    5.9290    0.2657 H   0  0  0  0  0  0  0  0  0  0  0  0
  -11.1551    4.9259    0.2657 H   0  0  0  0  0  0  0  0  0  0  0  0
   -9.8211    8.0829    1.3996 H   0  0  0  0  0  0  0  0  0  0  0  0
   -9.1947    6.3820    1.0136 H   0  0  0  0  0  0  0  0  0  0  0  0
   -8.5529    8.9627   -0.4397 H   0  0  0  0  0  0  0  0  0  0  0  0
   -7.4510    7.9107    0.5333 H   0  0  0  0  0  0  0  0  0  0  0  0
   -7.6070    5.6241    0.1975 H   0  0  0  0  0  0  0  0  0  0  0  0
   -8.3479    4.9304   -1.2846 H   0  0  0  0  0  0  0  0  0  0  0  0
   -6.6157    5.4059   -1.2846 H   0  0  0  0  0  0  0  0  0  0  0  0
  1  2  1  0
  2  3  1  0
  3  4  1  0
  4  5  1  0
  5  6  1  0
  6  7  1  0
  7  8  1  0
  7  9  1  0
  2 10  1  0
 10 11  1  0
 11 12  1  0
 12 13  1  0
 13 14  1  6
 13 15  1  0
 15 16  1  0
 16 17  1  0
 17 18  2  0
 18 19  1  0
 19 20  1  0
 20 21  1  0
 21 22  1  0
 22 23  1  0
 22 24  1  0
 24 25  1  0
 24 26  1  0
 19 27  1  0
 27 28  1  1
 27 29  1  0
 29 30  1  0
 30 31  1  0
 31 32  1  1
  7  5  1  0
 31 10  1  0
 31 13  1  0
 27 15  1  0
 24 18  1  0
  1 33  1  0
  1 34  1  0
  1 35  1  0
  2 36  1  6
  3 37  1  0
  3 38  1  0
  4 39  1  0
  4 40  1  0
  5 41  1  6
  8 42  1  0
  8 43  1  0
  8 44  1  0
  9 45  1  0
  9 46  1  0
  9 47  1  0
 10 48  1  6
 11 49  1  0
 11 50  1  0
 12 51  1  0
 12 52  1  0
 14 53  1  0
 14 54  1  0
 14 55  1  0
 15 56  1  1
 16 57  1  0
 16 58  1  0
 17 59  1  0
 19 60  1  6
 20 61  1  0
 20 62  1  0
 21 63  1  0
 21 64  1  0
 22 65  1  6
 23 66  1  0
 25 67  1  0
 25 68  1  0
 25 69  1  0
 26 70  1  0
 26 71  1  0
 26 72  1  0
 28 73  1  0
 28 74  1  0
 28 75  1  0
 29 76  1  0
 29 77  1  0
 30 78  1  0
 30 79  1  0
 32 80  1  0
 32 81  1  0
 32 82  1  0
M  END
>  <meeko>  (3) 
{"is_sidechain": [false], "intermolecular_energy": 2.731, "internal_energy": -0.839}

$$$$
EPH_relaxed_0001_pdb2pqr_Repair_418_r2_0001_out
     RDKit          3D

 82 86  0  0  0  0  0  0  0  0999 V2000
    0.1020   18.8420   -2.3230 C   0  0  0  0  0  0  0  0  0  0  0  0
    0.8570   17.7520   -1.5560 C   0  0  2  0  0  0  0  0  0  0  0  0
    2.3850   17.9370   -1.6390 C   0  0  0  0  0  0  0  0  0  0  0  0
    2.9150   19.0830   -0.7730 C   0  0  0  0  0  0  0  0  0  0  0  0
    4.1820   18.7050   -0.0670 C   0  0  2  0  0  0  0  0  0  0  0  0
    4.0140   17.7650    1.0020 O   0  0  0  0  0  0  0  0  0  0  0  0
    4.4780   19.0730    1.3740 C   0  0  0  0  0  0  0  0  0  0  0  0
    3.5020   19.8550    2.1970 C   0  0  0  0  0  0  0  0  0  0  0  0
    5.9050   19.1000    1.8270 C   0  0  0  0  0  0  0  0  0  0  0  0
    0.4680   16.3780   -2.0880 C   0  0  1  0  0  0  0  0  0  0  0  0
    0.6190   16.2690   -3.6280 C   0  0  0  0  0  0  0  0  0  0  0  0
    1.0740   14.8180   -3.9310 C   0  0  0  0  0  0  0  0  0  0  0  0
    0.8510   14.0540   -2.6050 C   0  0  1  0  0  0  0  0  0  0  0  0
   -0.6710   13.7080   -2.5930 C   0  0  0  0  0  0  0  0  0  0  0  0
    1.7340   12.7830   -2.3830 C   0  0  2  0  0  0  0  0  0  0  0  0
    1.5200   11.6530   -3.4060 C   0  0  0  0  0  0  0  0  0  0  0  0
    0.4780   10.6500   -3.0390 C   0  0  0  0  0  0  0  0  0  0  0  0
   -0.0560   10.4890   -1.8140 C   0  0  0  0  0  0  0  0  0  0  0  0
    0.4560   11.3020   -0.6180 C   0  0  1  0  0  0  0  0  0  0  0  0
    0.6720   10.3590    0.5950 C   0  0  0  0  0  0  0  0  0  0  0  0
   -0.5750    9.5460    0.9330 C   0  0  0  0  0  0  0  0  0  0  0  0
   -1.0190    8.7070   -0.2620 C   0  0  2  0  0  0  0  0  0  0  0  0
   -0.0270    7.7080   -0.5190 O   0  0  0  0  0  0  0  0  0  0  0  0
   -1.2580    9.5490   -1.5470 C   0  0  0  0  0  0  0  0  0  0  0  0
   -2.5260   10.4190   -1.3710 C   0  0  0  0  0  0  0  0  0  0  0  0
   -1.5630    8.5670   -2.7110 C   0  0  0  0  0  0  0  0  0  0  0  0
    1.7140   12.2310   -0.9000 C   0  0  1  0  0  0  0  0  0  0  0  0
    3.0300   11.4170   -0.7100 C   0  0  0  0  0  0  0  0  0  0  0  0
    1.7490   13.3870    0.1690 C   0  0  0  0  0  0  0  0  0  0  0  0
    0.9530   14.6640   -0.1630 C   0  0  0  0  0  0  0  0  0  0  0  0
    1.2790   15.1620   -1.5750 C   0  0  2  0  0  0  0  0  0  0  0  0
    2.7990   15.5390   -1.6110 C   0  0  0  0  0  0  0  0  0  0  0  0
   -0.3744   19.5298   -1.6089 H   0  0  0  0  0  0  0  0  0  0  0  0
    0.8074   19.4009   -2.9555 H   0  0  0  0  0  0  0  0  0  0  0  0
   -0.6692   18.3781   -2.9555 H   0  0  0  0  0  0  0  0  0  0  0  0
    0.5720   17.8341   -0.4967 H   0  0  0  0  0  0  0  0  0  0  0  0
    2.8660   17.0034   -1.3117 H   0  0  0  0  0  0  0  0  0  0  0  0
    2.6218   18.1878   -2.6835 H   0  0  0  0  0  0  0  0  0  0  0  0
    3.1113   19.9539   -1.4156 H   0  0  0  0  0  0  0  0  0  0  0  0
    2.1557   19.3171   -0.0124 H   0  0  0  0  0  0  0  0  0  0  0  0
    4.7623   18.8267   -0.9935 H   0  0  0  0  0  0  0  0  0  0  0  0
    3.7079   19.6900    3.2649 H   0  0  0  0  0  0  0  0  0  0  0  0
    3.6021   20.9257    1.9654 H   0  0  0  0  0  0  0  0  0  0  0  0
    2.4789   19.5238    1.9654 H   0  0  0  0  0  0  0  0  0  0  0  0
    5.9407   19.1007    2.9264 H   0  0  0  0  0  0  0  0  0  0  0  0
    6.4283   18.2116    1.4437 H   0  0  0  0  0  0  0  0  0  0  0  0
    6.3943   20.0076    1.4437 H   0  0  0  0  0  0  0  0  0  0  0  0
   -0.5668   16.3232   -1.7189 H   0  0  0  0  0  0  0  0  0  0  0  0
   -0.3439   16.4743   -4.1186 H   0  0  0  0  0  0  0  0  0  0  0  0
    1.3497   16.9992   -4.0060 H   0  0  0  0  0  0  0  0  0  0  0  0
    0.4669   14.3812   -4.7376 H   0  0  0  0  0  0  0  0  0  0  0  0
    2.1198   14.7708   -4.2687 H   0  0  0  0  0  0  0  0  0  0  0  0
   -1.0208   13.6285   -1.5531 H   0  0  0  0  0  0  0  0  0  0  0  0
   -1.2315   14.5016   -3.1087 H   0  0  0  0  0  0  0  0  0  0  0  0
   -0.8333   12.7500   -3.1087 H   0  0  0  0  0  0  0  0  0  0  0  0
    2.7487   13.1654   -2.5678 H   0  0  0  0  0  0  0  0  0  0  0  0
    1.2287   12.1112   -4.3627 H   0  0  0  0  0  0  0  0  0  0  0  0
    2.4704   11.1012   -3.4532 H   0  0  0  0  0  0  0  0  0  0  0  0
    0.1155    9.9858   -3.8373 H   0  0  0  0  0  0  0  0  0  0  0  0
   -0.3329   12.0328   -0.3865 H   0  0  0  0  0  0  0  0  0  0  0  0
    1.4927    9.6651    0.3606 H   0  0  0  0  0  0  0  0  0  0  0  0
    0.9089   10.9857    1.4674 H   0  0  0  0  0  0  0  0  0  0  0  0
   -0.3515    8.8786    1.7784 H   0  0  0  0  0  0  0  0  0  0  0  0
   -1.3866   10.2405    1.1956 H   0  0  0  0  0  0  0  0  0  0  0  0
   -1.9851    8.2495   -0.0025 H   0  0  0  0  0  0  0  0  0  0  0  0
    0.7390    8.1510   -0.9210 H   0  0  0  0  0  0  0  0  0  0  0  0
   -2.7291   10.5584   -0.2989 H   0  0  0  0  0  0  0  0  0  0  0  0
   -2.3669   11.3990   -1.8445 H   0  0  0  0  0  0  0  0  0  0  0  0
   -3.3831    9.9179   -1.8445 H   0  0  0  0  0  0  0  0  0  0  0  0
   -1.8655    7.5929   -2.2992 H   0  0  0  0  0  0  0  0  0  0  0  0
   -2.3775    8.9727   -3.3291 H   0  0  0  0  0  0  0  0  0  0  0  0
   -0.6620    8.4399   -3.3291 H   0  0  0  0  0  0  0  0  0  0  0  0
    3.2320   11.2920    0.3640 H   0  0  0  0  0  0  0  0  0  0  0  0
    2.9208   10.4285   -1.1800 H   0  0  0  0  0  0  0  0  0  0  0  0
    3.8657   11.9561   -1.1800 H   0  0  0  0  0  0  0  0  0  0  0  0
    1.3504   12.9817    1.1107 H   0  0  0  0  0  0  0  0  0  0  0  0
    2.8006   13.7065    0.2135 H   0  0  0  0  0  0  0  0  0  0  0  0
   -0.1229   14.4444   -0.0984 H   0  0  0  0  0  0  0  0  0  0  0  0
    1.2301   15.4473    0.5578 H   0  0  0  0  0  0  0  0  0  0  0  0
    3.1779   15.6330   -0.5826 H   0  0  0  0  0  0  0  0  0  0  0  0
    3.3594   14.7526   -2.1378 H   0  0  0  0  0  0  0  0  0  0  0  0
    2.9270   16.4961   -2.1378 H   0  0  0  0  0  0  0  0  0  0  0  0
  1  2  1  0
  2  3  1  0
  3  4  1  0
  4  5  1  0
  5  6  1  0
  6  7  1  0
  7  8  1  0
  7  9  1  0
  2 10  1  0
 10 11  1  0
 11 12  1  0
 12 13  1  0
 13 14  1  1
 13 15  1  0
 15 16  1  0
 16 17  1  0
 17 18  2  0
 18 19  1  0
 19 20  1  0
 20 21  1  0
 21 22  1  0
 22 23  1  0
 22 24  1  0
 24 25  1  0
 24 26  1  0
 19 27  1  0
 27 28  1  1
 27 29  1  0
 29 30  1  0
 30 31  1  0
 31 32  1  1
  7  5  1  0
 31 10  1  0
 31 13  1  0
 27 15  1  0
 24 18  1  0
  1 33  1  0
  1 34  1  0
  1 35  1  0
  2 36  1  1
  3 37  1  0
  3 38  1  0
  4 39  1  0
  4 40  1  0
  5 41  1  6
  8 42  1  0
  8 43  1  0
  8 44  1  0
  9 45  1  0
  9 46  1  0
  9 47  1  0
 10 48  1  6
 11 49  1  0
 11 50  1  0
 12 51  1  0
 12 52  1  0
 14 53  1  0
 14 54  1  0
 14 55  1  0
 15 56  1  6
 16 57  1  0
 16 58  1  0
 17 59  1  0
 19 60  1  1
 20 61  1  0
 20 62  1  0
 21 63  1  0
 21 64  1  0
 22 65  1  1
 23 66  1  0
 25 67  1  0
 25 68  1  0
 25 69  1  0
 26 70  1  0
 26 71  1  0
 26 72  1  0
 28 73  1  0
 28 74  1  0
 28 75  1  0
 29 76  1  0
 29 77  1  0
 30 78  1  0
 30 79  1  0
 32 80  1  0
 32 81  1  0
 32 82  1  0
M  END
>  <meeko>  (4) 
{"is_sidechain": [false], "intermolecular_energy": 2.731, "internal_energy": -0.839}

$$$$
EPH_relaxed_0001_pdb2pqr_Repair_418_r2_0001_out
     RDKit          3D

 82 86  0  0  0  0  0  0  0  0999 V2000
    3.8880   17.4850   -0.7860 C   0  0  0  0  0  0  0  0  0  0  0  0
    2.6200   17.7430   -1.6050 C   0  0  2  0  0  0  0  0  0  0  0  0
    2.0200   19.1350   -1.3230 C   0  0  0  0  0  0  0  0  0  0  0  0
    1.3360   19.2450    0.0420 C   0  0  0  0  0  0  0  0  0  0  0  0
    0.0270   19.9690   -0.0510 C   0  0  2  0  0  0  0  0  0  0  0  0
   -0.6230   20.1940    1.2070 O   0  0  0  0  0  0  0  0  0  0  0  0
   -1.3080   19.3300    0.2850 C   0  0  0  0  0  0  0  0  0  0  0  0
   -1.4000   17.9070    0.7390 C   0  0  0  0  0  0  0  0  0  0  0  0
   -2.5530   19.9290   -0.2910 C   0  0  0  0  0  0  0  0  0  0  0  0
    1.5860   16.6620   -1.3170 C   0  0  1  0  0  0  0  0  0  0  0  0
    0.1350   17.1290   -1.6120 C   0  0  0  0  0  0  0  0  0  0  0  0
   -0.6330   15.8920   -2.1450 C   0  0  0  0  0  0  0  0  0  0  0  0
    0.2920   14.6930   -1.8290 C   0  0  1  0  0  0  0  0  0  0  0  0
    0.0260   14.3670   -0.3260 C   0  0  0  0  0  0  0  0  0  0  0  0
    0.1170   13.4290   -2.7340 C   0  0  2  0  0  0  0  0  0  0  0  0
   -1.2640   12.7560   -2.6550 C   0  0  0  0  0  0  0  0  0  0  0  0
   -1.3960   11.6880   -1.6210 C   0  0  0  0  0  0  0  0  0  0  0  0
   -0.3740   11.0870   -0.9830 C   0  0  0  0  0  0  0  0  0  0  0  0
    1.0810   11.4020   -1.3550 C   0  0  1  0  0  0  0  0  0  0  0  0
    1.8780   10.0780   -1.4930 C   0  0  0  0  0  0  0  0  0  0  0  0
    1.7700    9.1980   -0.2510 C   0  0  0  0  0  0  0  0  0  0  0  0
    0.3130    8.8590    0.0520 C   0  0  2  0  0  0  0  0  0  0  0  0
   -0.1930    8.0250   -0.9950 O   0  0  0  0  0  0  0  0  0  0  0  0
   -0.5900   10.1150    0.2020 C   0  0  0  0  0  0  0  0  0  0  0  0
   -0.2320   10.8590    1.5130 C   0  0  0  0  0  0  0  0  0  0  0  0
   -2.0560    9.6320    0.3650 C   0  0  0  0  0  0  0  0  0  0  0  0
    1.2850   12.3700   -2.5990 C   0  0  1  0  0  0  0  0  0  0  0  0
    1.2910   11.5430   -3.9210 C   0  0  0  0  0  0  0  0  0  0  0  0
    2.7010   13.0500   -2.4940 C   0  0  0  0  0  0  0  0  0  0  0  0
    2.7850   14.3590   -1.6870 C   0  0  0  0  0  0  0  0  0  0  0  0
    1.6930   15.3420   -2.1210 C   0  0  2  0  0  0  0  0  0  0  0  0
    1.9470   15.7060   -3.6240 C   0  0  0  0  0  0  0  0  0  0  0  0
    3.6481   17.5338    0.2864 H   0  0  0  0  0  0  0  0  0  0  0  0
    4.2843   16.4878   -1.0281 H   0  0  0  0  0  0  0  0  0  0  0  0
    4.6424   18.2480   -1.0281 H   0  0  0  0  0  0  0  0  0  0  0  0
    2.9012   17.7140   -2.6680 H   0  0  0  0  0  0  0  0  0  0  0  0
    2.8302   19.8777   -1.3663 H   0  0  0  0  0  0  0  0  0  0  0  0
    1.2470   19.3124   -2.0852 H   0  0  0  0  0  0  0  0  0  0  0  0
    1.1566   18.2328    0.4335 H   0  0  0  0  0  0  0  0  0  0  0  0
    1.9966   19.8152    0.7118 H   0  0  0  0  0  0  0  0  0  0  0  0
    0.3744   20.5339   -0.9286 H   0  0  0  0  0  0  0  0  0  0  0  0
   -1.4022   17.8723    1.8385 H   0  0  0  0  0  0  0  0  0  0  0  0
   -2.3290   17.4593    0.3561 H   0  0  0  0  0  0  0  0  0  0  0  0
   -0.5364   17.3434    0.3561 H   0  0  0  0  0  0  0  0  0  0  0  0
   -3.2176   20.2488    0.5251 H   0  0  0  0  0  0  0  0  0  0  0  0
   -2.2888   20.7986   -0.9107 H   0  0  0  0  0  0  0  0  0  0  0  0
   -3.0676   19.1799   -0.9107 H   0  0  0  0  0  0  0  0  0  0  0  0
    1.8067   16.4748   -0.2557 H   0  0  0  0  0  0  0  0  0  0  0  0
   -0.3380   17.5007   -0.6911 H   0  0  0  0  0  0  0  0  0  0  0  0
    0.1250   17.9472   -2.3472 H   0  0  0  0  0  0  0  0  0  0  0  0
   -1.5992   15.7833   -1.6305 H   0  0  0  0  0  0  0  0  0  0  0  0
   -0.8601   15.9724   -3.2183 H   0  0  0  0  0  0  0  0  0  0  0  0
    0.5949   15.0642    0.3067 H   0  0  0  0  0  0  0  0  0  0  0  0
   -1.0481   14.4713   -0.1127 H   0  0  0  0  0  0  0  0  0  0  0  0
    0.3437   13.3357   -0.1127 H   0  0  0  0  0  0  0  0  0  0  0  0
    0.1847   13.8522   -3.7471 H   0  0  0  0  0  0  0  0  0  0  0  0
   -2.0093   13.5348   -2.4359 H   0  0  0  0  0  0  0  0  0  0  0  0
   -1.4160   12.2600   -3.6250 H   0  0  0  0  0  0  0  0  0  0  0  0
   -2.4140   11.3646   -1.3580 H   0  0  0  0  0  0  0  0  0  0  0  0
    1.4859   11.9966   -0.5228 H   0  0  0  0  0  0  0  0  0  0  0  0
    1.4870    9.5193   -2.3561 H   0  0  0  0  0  0  0  0  0  0  0  0
    2.9383   10.3388   -1.6263 H   0  0  0  0  0  0  0  0  0  0  0  0
    2.3288    8.2658   -0.4205 H   0  0  0  0  0  0  0  0  0  0  0  0
    2.1884    9.7467    0.6057 H   0  0  0  0  0  0  0  0  0  0  0  0
    0.2898    8.3389    1.0210 H   0  0  0  0  0  0  0  0  0  0  0  0
   -0.3300    8.5850   -1.7780 H   0  0  0  0  0  0  0  0  0  0  0  0
   -0.5278   10.2443    2.3759 H   0  0  0  0  0  0  0  0  0  0  0  0
    0.8523   11.0410    1.5469 H   0  0  0  0  0  0  0  0  0  0  0  0
   -0.7663   11.8199    1.5469 H   0  0  0  0  0  0  0  0  0  0  0  0
   -2.2989    9.5520    1.4349 H   0  0  0  0  0  0  0  0  0  0  0  0
   -2.7351   10.3539   -0.1122 H   0  0  0  0  0  0  0  0  0  0  0  0
   -2.1730    8.6478   -0.1122 H   0  0  0  0  0  0  0  0  0  0  0  0
    1.2988   10.4693   -3.6818 H   0  0  0  0  0  0  0  0  0  0  0  0
    0.3911   11.7816   -4.5069 H   0  0  0  0  0  0  0  0  0  0  0  0
    2.1873   11.7947   -4.5069 H   0  0  0  0  0  0  0  0  0  0  0  0
    3.3839   12.3260   -2.0255 H   0  0  0  0  0  0  0  0  0  0  0  0
    2.9626   13.3304   -3.5250 H   0  0  0  0  0  0  0  0  0  0  0  0
    2.6600   14.1314   -0.6181 H   0  0  0  0  0  0  0  0  0  0  0  0
    3.7661   14.8215   -1.8701 H   0  0  0  0  0  0  0  0  0  0  0  0
    2.5756   16.6068   -3.6819 H   0  0  0  0  0  0  0  0  0  0  0  0
    2.4584   14.8694   -4.1225 H   0  0  0  0  0  0  0  0  0  0  0  0
    0.9853   15.8973   -4.1225 H   0  0  0  0  0  0  0  0  0  0  0  0
  1  2  1  0
  2  3  1  0
  3  4  1  0
  4  5  1  0
  5  6  1  0
  6  7  1  0
  7  8  1  0
  7  9  1  0
  2 10  1  0
 10 11  1  0
 11 12  1  0
 12 13  1  0
 13 14  1  1
 13 15  1  0
 15 16  1  0
 16 17  1  0
 17 18  2  0
 18 19  1  0
 19 20  1  0
 20 21  1  0
 21 22  1  0
 22 23  1  0
 22 24  1  0
 24 25  1  0
 24 26  1  0
 19 27  1  0
 27 28  1  6
 27 29  1  0
 29 30  1  0
 30 31  1  0
 31 32  1  6
  7  5  1  0
 31 10  1  0
 31 13  1  0
 27 15  1  0
 24 18  1  0
  1 33  1  0
  1 34  1  0
  1 35  1  0
  2 36  1  6
  3 37  1  0
  3 38  1  0
  4 39  1  0
  4 40  1  0
  5 41  1  6
  8 42  1  0
  8 43  1  0
  8 44  1  0
  9 45  1  0
  9 46  1  0
  9 47  1  0
 10 48  1  1
 11 49  1  0
 11 50  1  0
 12 51  1  0
 12 52  1  0
 14 53  1  0
 14 54  1  0
 14 55  1  0
 15 56  1  6
 16 57  1  0
 16 58  1  0
 17 59  1  0
 19 60  1  1
 20 61  1  0
 20 62  1  0
 21 63  1  0
 21 64  1  0
 22 65  1  1
 23 66  1  0
 25 67  1  0
 25 68  1  0
 25 69  1  0
 26 70  1  0
 26 71  1  0
 26 72  1  0
 28 73  1  0
 28 74  1  0
 28 75  1  0
 29 76  1  0
 29 77  1  0
 30 78  1  0
 30 79  1  0
 32 80  1  0
 32 81  1  0
 32 82  1  0
M  END
>  <meeko>  (5) 
{"is_sidechain": [false], "intermolecular_energy": 2.731, "internal_energy": -0.839}

$$$$
EPH_relaxed_0001_pdb2pqr_Repair_418_r2_0001_out
     RDKit          3D

 82 86  0  0  0  0  0  0  0  0999 V2000
    2.1200   17.8580   -2.1970 C   0  0  0  0  0  0  0  0  0  0  0  0
    0.6720   17.7930   -2.6900 C   0  0  2  0  0  0  0  0  0  0  0  0
   -0.3150   18.4080   -1.6770 C   0  0  0  0  0  0  0  0  0  0  0  0
   -0.1250   17.8980   -0.2460 C   0  0  0  0  0  0  0  0  0  0  0  0
   -1.4310   17.7890    0.4810 C   0  0  2  0  0  0  0  0  0  0  0  0
   -1.3290   17.8610    1.9090 O   0  0  0  0  0  0  0  0  0  0  0  0
   -1.7990   16.6150    1.3700 C   0  0  0  0  0  0  0  0  0  0  0  0
   -0.8590   15.4690    1.5770 C   0  0  0  0  0  0  0  0  0  0  0  0
   -3.2470   16.3490    1.6410 C   0  0  0  0  0  0  0  0  0  0  0  0
    0.2860   16.3470   -2.9810 C   0  0  1  0  0  0  0  0  0  0  0  0
    0.3450   16.0060   -4.4940 C   0  0  0  0  0  0  0  0  0  0  0  0
    0.8180   14.5330   -4.6020 C   0  0  0  0  0  0  0  0  0  0  0  0
    0.6970   13.9780   -3.1640 C   0  0  1  0  0  0  0  0  0  0  0  0
   -0.8120   13.6130   -3.0000 C   0  0  0  0  0  0  0  0  0  0  0  0
    1.6240   12.7700   -2.8090 C   0  0  2  0  0  0  0  0  0  0  0  0
    1.3770   11.4940   -3.6320 C   0  0  0  0  0  0  0  0  0  0  0  0
    0.3860   10.5420   -3.0500 C   0  0  0  0  0  0  0  0  0  0  0  0
   -0.0670   10.5620   -1.7830 C   0  0  0  0  0  0  0  0  0  0  0  0
    0.4970   11.5560   -0.7610 C   0  0  1  0  0  0  0  0  0  0  0  0
    0.8110   10.8140    0.5650 C   0  0  0  0  0  0  0  0  0  0  0  0
   -0.3900   10.0430    1.1030 C   0  0  0  0  0  0  0  0  0  0  0  0
   -0.8860    9.0230    0.0800 C   0  0  2  0  0  0  0  0  0  0  0  0
    0.1140    8.0130   -0.0860 O   0  0  0  0  0  0  0  0  0  0  0  0
   -1.2250    9.6540   -1.2990 C   0  0  0  0  0  0  0  0  0  0  0  0
   -2.5030   10.5210   -1.1750 C   0  0  0  0  0  0  0  0  0  0  0  0
   -1.5760    8.5020   -2.2780 C   0  0  0  0  0  0  0  0  0  0  0  0
    1.7110   12.4520   -1.2610 C   0  0  1  0  0  0  0  0  0  0  0  0
    3.0570   11.6980   -1.0360 C   0  0  0  0  0  0  0  0  0  0  0  0
    1.7810   13.7580   -0.3850 C   0  0  0  0  0  0  0  0  0  0  0  0
    0.9340   14.9560   -0.8540 C   0  0  0  0  0  0  0  0  0  0  0  0
    1.1590   15.2370   -2.3430 C   0  0  2  0  0  0  0  0  0  0  0  0
    2.6630   15.6280   -2.5350 C   0  0  0  0  0  0  0  0  0  0  0  0
    2.1332   17.8586   -1.0971 H   0  0  0  0  0  0  0  0  0  0  0  0
    2.6739   16.9838   -2.5699 H   0  0  0  0  0  0  0  0  0  0  0  0
    2.5933   18.7783   -2.5699 H   0  0  0  0  0  0  0  0  0  0  0  0
    0.6103   18.3874   -3.6135 H   0  0  0  0  0  0  0  0  0  0  0  0
   -0.1785   19.4995   -1.6778 H   0  0  0  0  0  0  0  0  0  0  0  0
   -1.3262   18.1116   -1.9925 H   0  0  0  0  0  0  0  0  0  0  0  0
    0.3475   16.9053   -0.2810 H   0  0  0  0  0  0  0  0  0  0  0  0
    0.5089   18.6172    0.2933 H   0  0  0  0  0  0  0  0  0  0  0  0
   -1.9604   18.2809   -0.3483 H   0  0  0  0  0  0  0  0  0  0  0  0
   -0.7197   15.2991    2.6548 H   0  0  0  0  0  0  0  0  0  0  0  0
   -1.2776   14.5632    1.1142 H   0  0  0  0  0  0  0  0  0  0  0  0
    0.1112   15.7024    1.1142 H   0  0  0  0  0  0  0  0  0  0  0  0
   -3.4170   16.3178    2.7273 H   0  0  0  0  0  0  0  0  0  0  0  0
   -3.8563   17.1502    1.1974 H   0  0  0  0  0  0  0  0  0  0  0  0
   -3.5317   15.3835    1.1974 H   0  0  0  0  0  0  0  0  0  0  0  0
   -0.7224   16.3324   -2.5417 H   0  0  0  0  0  0  0  0  0  0  0  0
   -0.6512   16.1182   -4.9468 H   0  0  0  0  0  0  0  0  0  0  0  0
    1.0319   16.6815   -5.0248 H   0  0  0  0  0  0  0  0  0  0  0  0
    0.1739   13.9679   -5.2918 H   0  0  0  0  0  0  0  0  0  0  0  0
    1.8419   14.4515   -4.9958 H   0  0  0  0  0  0  0  0  0  0  0  0
   -1.0605   13.5529   -1.9301 H   0  0  0  0  0  0  0  0  0  0  0  0
   -1.4305   14.3874   -3.4772 H   0  0  0  0  0  0  0  0  0  0  0  0
   -1.0082   12.6415   -3.4772 H   0  0  0  0  0  0  0  0  0  0  0  0
    2.6151   13.1358   -3.1155 H   0  0  0  0  0  0  0  0  0  0  0  0
    1.0154   11.7954   -4.6262 H   0  0  0  0  0  0  0  0  0  0  0  0
    2.3367   10.9571   -3.6564 H   0  0  0  0  0  0  0  0  0  0  0  0
   -0.0076    9.7574   -3.7129 H   0  0  0  0  0  0  0  0  0  0  0  0
   -0.2948   12.3010   -0.5935 H   0  0  0  0  0  0  0  0  0  0  0  0
    1.6334   10.1056    0.3864 H   0  0  0  0  0  0  0  0  0  0  0  0
    1.0843   11.5714    1.3145 H   0  0  0  0  0  0  0  0  0  0  0  0
   -0.0971    9.5167    2.0234 H   0  0  0  0  0  0  0  0  0  0  0  0
   -1.2015   10.7563    1.3098 H   0  0  0  0  0  0  0  0  0  0  0  0
   -1.8222    8.5952    0.4679 H   0  0  0  0  0  0  0  0  0  0  0  0
   -0.2960    7.1570    0.1230 H   0  0  0  0  0  0  0  0  0  0  0  0
   -2.7368   10.6796   -0.1119 H   0  0  0  0  0  0  0  0  0  0  0  0
   -2.3356   11.4927   -1.6625 H   0  0  0  0  0  0  0  0  0  0  0  0
   -3.3440   10.0062   -1.6625 H   0  0  0  0  0  0  0  0  0  0  0  0
   -1.8496    7.6041   -1.7046 H   0  0  0  0  0  0  0  0  0  0  0  0
   -2.4227    8.8045   -2.9117 H   0  0  0  0  0  0  0  0  0  0  0  0
   -0.7044    8.2810   -2.9117 H   0  0  0  0  0  0  0  0  0  0  0  0
    3.2430   11.5938    0.0431 H   0  0  0  0  0  0  0  0  0  0  0  0
    2.9999   10.7005   -1.4962 H   0  0  0  0  0  0  0  0  0  0  0  0
    3.8778   12.2677   -1.4962 H   0  0  0  0  0  0  0  0  0  0  0  0
    1.4515   13.4951    0.6310 H   0  0  0  0  0  0  0  0  0  0  0  0
    2.8247   14.0976   -0.4582 H   0  0  0  0  0  0  0  0  0  0  0  0
   -0.1299   14.7320   -0.6868 H   0  0  0  0  0  0  0  0  0  0  0  0
    1.2351   15.8447   -0.2799 H   0  0  0  0  0  0  0  0  0  0  0  0
    3.1383   15.7516   -1.5507 H   0  0  0  0  0  0  0  0  0  0  0  0
    3.1796   14.8343   -3.0946 H   0  0  0  0  0  0  0  0  0  0  0  0
    2.7277   16.5728   -3.0946 H   0  0  0  0  0  0  0  0  0  0  0  0
  1  2  1  0
  2  3  1  0
  3  4  1  0
  4  5  1  0
  5  6  1  0
  6  7  1  0
  7  8  1  0
  7  9  1  0
  2 10  1  0
 10 11  1  0
 11 12  1  0
 12 13  1  0
 13 14  1  1
 13 15  1  0
 15 16  1  0
 16 17  1  0
 17 18  2  0
 18 19  1  0
 19 20  1  0
 20 21  1  0
 21 22  1  0
 22 23  1  0
 22 24  1  0
 24 25  1  0
 24 26  1  0
 19 27  1  0
 27 28  1  6
 27 29  1  0
 29 30  1  0
 30 31  1  0
 31 32  1  1
  7  5  1  0
 31 10  1  0
 31 13  1  0
 27 15  1  0
 24 18  1  0
  1 33  1  0
  1 34  1  0
  1 35  1  0
  2 36  1  6
  3 37  1  0
  3 38  1  0
  4 39  1  0
  4 40  1  0
  5 41  1  6
  8 42  1  0
  8 43  1  0
  8 44  1  0
  9 45  1  0
  9 46  1  0
  9 47  1  0
 10 48  1  1
 11 49  1  0
 11 50  1  0
 12 51  1  0
 12 52  1  0
 14 53  1  0
 14 54  1  0
 14 55  1  0
 15 56  1  6
 16 57  1  0
 16 58  1  0
 17 59  1  0
 19 60  1  1
 20 61  1  0
 20 62  1  0
 21 63  1  0
 21 64  1  0
 22 65  1  1
 23 66  1  0
 25 67  1  0
 25 68  1  0
 25 69  1  0
 26 70  1  0
 26 71  1  0
 26 72  1  0
 28 73  1  0
 28 74  1  0
 28 75  1  0
 29 76  1  0
 29 77  1  0
 30 78  1  0
 30 79  1  0
 32 80  1  0
 32 81  1  0
 32 82  1  0
M  END
>  <meeko>  (6) 
{"is_sidechain": [false], "intermolecular_energy": 2.731, "internal_energy": -0.839}

$$$$
EPH_relaxed_0001_pdb2pqr_Repair_418_r2_0001_out
     RDKit          3D

 82 86  0  0  0  0  0  0  0  0999 V2000
   -0.8830   16.3540   -5.8240 C   0  0  0  0  0  0  0  0  0  0  0  0
    0.2100   15.6480   -6.6310 C   0  0  2  0  0  0  0  0  0  0  0  0
   -0.1900   15.4570   -8.1070 C   0  0  0  0  0  0  0  0  0  0  0  0
    0.4360   16.4850   -9.0530 C   0  0  0  0  0  0  0  0  0  0  0  0
    1.8400   16.1160   -9.4230 C   0  0  2  0  0  0  0  0  0  0  0  0
    2.3090   16.6950  -10.6470 O   0  0  0  0  0  0  0  0  0  0  0  0
    2.1920   15.2630  -10.6270 C   0  0  0  0  0  0  0  0  0  0  0  0
    1.1340   14.7260  -11.5390 C   0  0  0  0  0  0  0  0  0  0  0  0
    3.5080   14.5500  -10.6390 C   0  0  0  0  0  0  0  0  0  0  0  0
    0.5330   14.2990   -6.0000 C   0  0  1  0  0  0  0  0  0  0  0  0
    1.7570   13.6080   -6.6590 C   0  0  0  0  0  0  0  0  0  0  0  0
    2.5020   12.8480   -5.5320 C   0  0  0  0  0  0  0  0  0  0  0  0
    1.5140   12.8480   -4.3420 C   0  0  1  0  0  0  0  0  0  0  0  0
    0.5210   11.6820   -4.6440 C   0  0  0  0  0  0  0  0  0  0  0  0
    2.1470   12.7130   -2.9190 C   0  0  2  0  0  0  0  0  0  0  0  0
    2.9050   11.3980   -2.6640 C   0  0  0  0  0  0  0  0  0  0  0  0
    2.0830   10.2880   -2.0970 C   0  0  0  0  0  0  0  0  0  0  0  0
    0.8650   10.4230   -1.5390 C   0  0  0  0  0  0  0  0  0  0  0  0
    0.2350   11.8080   -1.3490 C   0  0  1  0  0  0  0  0  0  0  0  0
   -0.3460   11.9200    0.0850 C   0  0  0  0  0  0  0  0  0  0  0  0
   -1.3150   10.7880    0.4140 C   0  0  0  0  0  0  0  0  0  0  0  0
   -0.6350    9.4290    0.2690 C   0  0  2  0  0  0  0  0  0  0  0  0
    0.3750    9.3090    1.2760 O   0  0  0  0  0  0  0  0  0  0  0  0
   -0.0030    9.2060   -1.1330 C   0  0  0  0  0  0  0  0  0  0  0  0
   -1.1240    9.0350   -2.1880 C   0  0  0  0  0  0  0  0  0  0  0  0
    0.7710    7.8600   -1.1000 C   0  0  0  0  0  0  0  0  0  0  0  0
    1.1540   13.0470   -1.7330 C   0  0  1  0  0  0  0  0  0  0  0  0
    2.0360   13.4530   -0.5140 C   0  0  0  0  0  0  0  0  0  0  0  0
    0.2380   14.2870   -2.0510 C   0  0  0  0  0  0  0  0  0  0  0  0
   -0.2580   14.4300   -3.5030 C   0  0  0  0  0  0  0  0  0  0  0  0
    0.9000   14.2880   -4.4950 C   0  0  2  0  0  0  0  0  0  0  0  0
    1.9050   15.4600   -4.2290 C   0  0  0  0  0  0  0  0  0  0  0  0
   -0.6856   16.2265   -4.7494 H   0  0  0  0  0  0  0  0  0  0  0  0
   -0.8870   17.4258   -6.0714 H   0  0  0  0  0  0  0  0  0  0  0  0
   -1.8616   15.9169   -6.0714 H   0  0  0  0  0  0  0  0  0  0  0  0
    1.1027   16.2905   -6.6115 H   0  0  0  0  0  0  0  0  0  0  0  0
    0.1278   14.4533   -8.4257 H   0  0  0  0  0  0  0  0  0  0  0  0
   -1.2804   15.5903   -8.1640 H   0  0  0  0  0  0  0  0  0  0  0  0
   -0.1705   16.5421   -9.9689 H   0  0  0  0  0  0  0  0  0  0  0  0
    0.4619   17.4554   -8.5356 H   0  0  0  0  0  0  0  0  0  0  0  0
    2.1259   16.0494   -8.3629 H   0  0  0  0  0  0  0  0  0  0  0  0
    0.3112   14.3084  -10.9402 H   0  0  0  0  0  0  0  0  0  0  0  0
    0.7501   15.5383  -12.1736 H   0  0  0  0  0  0  0  0  0  0  0  0
    1.5631   13.9366  -12.1736 H   0  0  0  0  0  0  0  0  0  0  0  0
    3.8377   14.3714   -9.6049 H   0  0  0  0  0  0  0  0  0  0  0  0
    3.3989   13.5876  -11.1605 H   0  0  0  0  0  0  0  0  0  0  0  0
    4.2546   15.1670  -11.1605 H   0  0  0  0  0  0  0  0  0  0  0  0
   -0.4280   13.7874   -6.1571 H   0  0  0  0  0  0  0  0  0  0  0  0
    1.4221   12.9029   -7.4341 H   0  0  0  0  0  0  0  0  0  0  0  0
    2.4157   14.3462   -7.1398 H   0  0  0  0  0  0  0  0  0  0  0  0
    2.7332   11.8190   -5.8447 H   0  0  0  0  0  0  0  0  0  0  0  0
    3.4629   13.3184   -5.2763 H   0  0  0  0  0  0  0  0  0  0  0  0
    0.1577   11.2554   -3.6974 H   0  0  0  0  0  0  0  0  0  0  0  0
   -0.3310   12.0668   -5.2237 H   0  0  0  0  0  0  0  0  0  0  0  0
    1.0366   10.9022   -5.2237 H   0  0  0  0  0  0  0  0  0  0  0  0
    2.9126   13.5028   -2.9259 H   0  0  0  0  0  0  0  0  0  0  0  0
    3.3238   11.0558   -3.6219 H   0  0  0  0  0  0  0  0  0  0  0  0
    3.6687   11.6288   -1.9067 H   0  0  0  0  0  0  0  0  0  0  0  0
    2.5083    9.2744   -2.1386 H   0  0  0  0  0  0  0  0  0  0  0  0
   -0.5771   11.8763   -2.0878 H   0  0  0  0  0  0  0  0  0  0  0  0
    0.4850   11.8933    0.8052 H   0  0  0  0  0  0  0  0  0  0  0  0
   -0.9044   12.8657    0.1460 H   0  0  0  0  0  0  0  0  0  0  0  0
   -1.6678   10.9055    1.4492 H   0  0  0  0  0  0  0  0  0  0  0  0
   -2.1607   10.8343   -0.2879 H   0  0  0  0  0  0  0  0  0  0  0  0
   -1.4105    8.6582    0.3895 H   0  0  0  0  0  0  0  0  0  0  0  0
    1.1180    8.8150    0.8910 H   0  0  0  0  0  0  0  0  0  0  0  0
   -2.0877    8.8880   -1.6785 H   0  0  0  0  0  0  0  0  0  0  0  0
   -1.1757    9.9357   -2.8174 H   0  0  0  0  0  0  0  0  0  0  0  0
   -0.9048    8.1599   -2.8174 H   0  0  0  0  0  0  0  0  0  0  0  0
    0.9428    7.5613   -0.0554 H   0  0  0  0  0  0  0  0  0  0  0  0
    0.1806    7.0849   -1.6106 H   0  0  0  0  0  0  0  0  0  0  0  0
    1.7378    7.9804   -1.6106 H   0  0  0  0  0  0  0  0  0  0  0  0
    1.5066   13.2093    0.4189 H   0  0  0  0  0  0  0  0  0  0  0  0
    2.9875   12.9023   -0.5503 H   0  0  0  0  0  0  0  0  0  0  0  0
    2.2364   14.5340   -0.5503 H   0  0  0  0  0  0  0  0  0  0  0  0
   -0.6475   14.2219   -1.4017 H   0  0  0  0  0  0  0  0  0  0  0  0
    0.8741   15.1672   -1.8760 H   0  0  0  0  0  0  0  0  0  0  0  0
   -1.0043   13.6480   -3.7069 H   0  0  0  0  0  0  0  0  0  0  0  0
   -0.7031   15.4285   -3.6245 H   0  0  0  0  0  0  0  0  0  0  0  0
    2.0256   15.6006   -3.1447 H   0  0  0  0  0  0  0  0  0  0  0  0
    2.8793   15.2165   -4.6778 H   0  0  0  0  0  0  0  0  0  0  0  0
    1.5157   16.3858   -4.6778 H   0  0  0  0  0  0  0  0  0  0  0  0
  1  2  1  0
  2  3  1  0
  3  4  1  0
  4  5  1  0
  5  6  1  0
  6  7  1  0
  7  8  1  0
  7  9  1  0
  2 10  1  0
 10 11  1  0
 11 12  1  0
 12 13  1  0
 13 14  1  6
 13 15  1  0
 15 16  1  0
 16 17  1  0
 17 18  2  0
 18 19  1  0
 19 20  1  0
 20 21  1  0
 21 22  1  0
 22 23  1  0
 22 24  1  0
 24 25  1  0
 24 26  1  0
 19 27  1  0
 27 28  1  1
 27 29  1  0
 29 30  1  0
 30 31  1  0
 31 32  1  6
  7  5  1  0
 31 10  1  0
 31 13  1  0
 27 15  1  0
 24 18  1  0
  1 33  1  0
  1 34  1  0
  1 35  1  0
  2 36  1  6
  3 37  1  0
  3 38  1  0
  4 39  1  0
  4 40  1  0
  5 41  1  1
  8 42  1  0
  8 43  1  0
  8 44  1  0
  9 45  1  0
  9 46  1  0
  9 47  1  0
 10 48  1  1
 11 49  1  0
 11 50  1  0
 12 51  1  0
 12 52  1  0
 14 53  1  0
 14 54  1  0
 14 55  1  0
 15 56  1  6
 16 57  1  0
 16 58  1  0
 17 59  1  0
 19 60  1  6
 20 61  1  0
 20 62  1  0
 21 63  1  0
 21 64  1  0
 22 65  1  1
 23 66  1  0
 25 67  1  0
 25 68  1  0
 25 69  1  0
 26 70  1  0
 26 71  1  0
 26 72  1  0
 28 73  1  0
 28 74  1  0
 28 75  1  0
 29 76  1  0
 29 77  1  0
 30 78  1  0
 30 79  1  0
 32 80  1  0
 32 81  1  0
 32 82  1  0
M  END
>  <meeko>  (7) 
{"is_sidechain": [false], "intermolecular_energy": 2.731, "internal_energy": -0.839}

$$$$
EPH_relaxed_0001_pdb2pqr_Repair_418_r2_0001_out
     RDKit          3D

 82 86  0  0  0  0  0  0  0  0999 V2000
   -0.2930   15.0980   -7.6460 C   0  0  0  0  0  0  0  0  0  0  0  0
    1.0790   15.0780   -6.9670 C   0  0  2  0  0  0  0  0  0  0  0  0
    2.2330   15.1640   -7.9860 C   0  0  0  0  0  0  0  0  0  0  0  0
    2.2620   16.4770   -8.7730 C   0  0  0  0  0  0  0  0  0  0  0  0
    1.8650   16.2740  -10.2040 C   0  0  2  0  0  0  0  0  0  0  0  0
    1.2140   15.0260  -10.4740 O   0  0  0  0  0  0  0  0  0  0  0  0
    2.4890   15.2250  -11.1050 C   0  0  0  0  0  0  0  0  0  0  0  0
    3.5630   14.3090  -10.6080 C   0  0  0  0  0  0  0  0  0  0  0  0
    2.4060   15.4130  -12.5880 C   0  0  0  0  0  0  0  0  0  0  0  0
    1.2230   13.8170   -6.1230 C   0  0  1  0  0  0  0  0  0  0  0  0
    2.6560   13.2230   -6.1750 C   0  0  0  0  0  0  0  0  0  0  0  0
    2.9440   12.6250   -4.7740 C   0  0  0  0  0  0  0  0  0  0  0  0
    1.5660   12.5960   -4.0720 C   0  0  1  0  0  0  0  0  0  0  0  0
    0.8660   11.3110   -4.6150 C   0  0  0  0  0  0  0  0  0  0  0  0
    1.5860   12.6250   -2.5090 C   0  0  2  0  0  0  0  0  0  0  0  0
    2.2750   11.4210   -1.8420 C   0  0  0  0  0  0  0  0  0  0  0  0
    1.3800   10.2680   -1.5290 C   0  0  0  0  0  0  0  0  0  0  0  0
    0.0350   10.3050   -1.5090 C   0  0  0  0  0  0  0  0  0  0  0  0
   -0.7200   11.6220   -1.7260 C   0  0  1  0  0  0  0  0  0  0  0  0
   -1.8320   11.7650   -0.6530 C   0  0  0  0  0  0  0  0  0  0  0  0
   -2.7640   10.5570   -0.6130 C   0  0  0  0  0  0  0  0  0  0  0  0
   -1.9840    9.2750   -0.3380 C   0  0  2  0  0  0  0  0  0  0  0  0
   -1.4540    9.3330    0.9900 O   0  0  0  0  0  0  0  0  0  0  0  0
   -0.8300    9.0300   -1.3500 C   0  0  0  0  0  0  0  0  0  0  0  0
   -1.4210    8.6680   -2.7350 C   0  0  0  0  0  0  0  0  0  0  0  0
   -0.0360    7.7830   -0.8770 C   0  0  0  0  0  0  0  0  0  0  0  0
    0.1800   12.9260   -1.8480 C   0  0  1  0  0  0  0  0  0  0  0  0
    0.4700   13.5070   -0.4300 C   0  0  0  0  0  0  0  0  0  0  0  0
   -0.6220   14.0350   -2.6260 C   0  0  0  0  0  0  0  0  0  0  0  0
   -0.5060   14.0260   -4.1620 C   0  0  0  0  0  0  0  0  0  0  0  0
    0.9590   13.9460   -4.6010 C   0  0  2  0  0  0  0  0  0  0  0  0
    1.6830   15.2370   -4.0880 C   0  0  0  0  0  0  0  0  0  0  0  0
   -1.0815   15.1095   -6.8791 H   0  0  0  0  0  0  0  0  0  0  0  0
   -0.3785   15.9975   -8.2734 H   0  0  0  0  0  0  0  0  0  0  0  0
   -0.4047   14.2014   -8.2734 H   0  0  0  0  0  0  0  0  0  0  0  0
    1.1414   15.9667   -6.3218 H   0  0  0  0  0  0  0  0  0  0  0  0
    3.1842   15.0635   -7.4428 H   0  0  0  0  0  0  0  0  0  0  0  0
    2.0790   14.3551   -8.7154 H   0  0  0  0  0  0  0  0  0  0  0  0
    1.5638   17.1877   -8.3067 H   0  0  0  0  0  0  0  0  0  0  0  0
    3.2909   16.8656   -8.7542 H   0  0  0  0  0  0  0  0  0  0  0  0
    1.6971   17.3533  -10.3344 H   0  0  0  0  0  0  0  0  0  0  0  0
    3.5641   14.3081   -9.5080 H   0  0  0  0  0  0  0  0  0  0  0  0
    3.3743   13.2895  -10.9753 H   0  0  0  0  0  0  0  0  0  0  0  0
    4.5400   14.6562  -10.9753 H   0  0  0  0  0  0  0  0  0  0  0  0
    1.9708   16.3988  -12.8088 H   0  0  0  0  0  0  0  0  0  0  0  0
    3.4148   15.3519  -13.0224 H   0  0  0  0  0  0  0  0  0  0  0  0
    1.7715   14.6264  -13.0224 H   0  0  0  0  0  0  0  0  0  0  0  0
    0.4455   13.1938   -6.5890 H   0  0  0  0  0  0  0  0  0  0  0  0
    2.7121   12.4360   -6.9415 H   0  0  0  0  0  0  0  0  0  0  0  0
    3.3946   13.9960   -6.4337 H   0  0  0  0  0  0  0  0  0  0  0  0
    3.3562   11.6090   -4.8626 H   0  0  0  0  0  0  0  0  0  0  0  0
    3.6856   13.2131   -4.2136 H   0  0  0  0  0  0  0  0  0  0  0  0
    0.5290   10.6923   -3.7703 H   0  0  0  0  0  0  0  0  0  0  0  0
   -0.0009   11.5972   -5.2287 H   0  0  0  0  0  0  0  0  0  0  0  0
    1.5766   10.7379   -5.2287 H   0  0  0  0  0  0  0  0  0  0  0  0
    2.2298   13.4916   -2.2979 H   0  0  0  0  0  0  0  0  0  0  0  0
    3.0656   11.0640   -2.5184 H   0  0  0  0  0  0  0  0  0  0  0  0
    2.6537   11.7839   -0.8751 H   0  0  0  0  0  0  0  0  0  0  0  0
    1.8607    9.3067   -1.2949 H   0  0  0  0  0  0  0  0  0  0  0  0
   -1.1725   11.5507   -2.7261 H   0  0  0  0  0  0  0  0  0  0  0  0
   -1.3582   11.8779    0.3333 H   0  0  0  0  0  0  0  0  0  0  0  0
   -2.4372   12.6457   -0.9139 H   0  0  0  0  0  0  0  0  0  0  0  0
   -3.5086   10.7031    0.1834 H   0  0  0  0  0  0  0  0  0  0  0  0
   -3.2595   10.4635   -1.5906 H   0  0  0  0  0  0  0  0  0  0  0  0
   -2.6837    8.4337   -0.4504 H   0  0  0  0  0  0  0  0  0  0  0  0
   -1.3930   10.2700    1.2420 H   0  0  0  0  0  0  0  0  0  0  0  0
   -2.3518    8.0979   -2.5988 H   0  0  0  0  0  0  0  0  0  0  0  0
   -1.6346    9.5904   -3.2950 H   0  0  0  0  0  0  0  0  0  0  0  0
   -0.6964    8.0586   -3.2950 H   0  0  0  0  0  0  0  0  0  0  0  0
   -0.0182    7.7550    0.2225 H   0  0  0  0  0  0  0  0  0  0  0  0
   -0.5212    6.8727   -1.2591 H   0  0  0  0  0  0  0  0  0  0  0  0
    0.9940    7.8375   -1.2591 H   0  0  0  0  0  0  0  0  0  0  0  0
    0.1171   12.7999    0.3352 H   0  0  0  0  0  0  0  0  0  0  0  0
    1.5523   13.6643   -0.3125 H   0  0  0  0  0  0  0  0  0  0  0  0
   -0.0549   14.4665   -0.3125 H   0  0  0  0  0  0  0  0  0  0  0  0
   -1.6857   13.9168   -2.3717 H   0  0  0  0  0  0  0  0  0  0  0  0
   -0.1760   14.9892   -2.3088 H   0  0  0  0  0  0  0  0  0  0  0  0
   -1.0485   13.1552   -4.5587 H   0  0  0  0  0  0  0  0  0  0  0  0
   -0.9383   14.9594   -4.5517 H   0  0  0  0  0  0  0  0  0  0  0  0
    1.6863   15.2430   -2.9880 H   0  0  0  0  0  0  0  0  0  0  0  0
    2.7189   15.2480   -4.4579 H   0  0  0  0  0  0  0  0  0  0  0  0
    1.1522   16.1266   -4.4579 H   0  0  0  0  0  0  0  0  0  0  0  0
  1  2  1  0
  2  3  1  0
  3  4  1  0
  4  5  1  0
  5  6  1  0
  6  7  1  0
  7  8  1  0
  7  9  1  0
  2 10  1  0
 10 11  1  0
 11 12  1  0
 12 13  1  0
 13 14  1  1
 13 15  1  0
 15 16  1  0
 16 17  1  0
 17 18  2  0
 18 19  1  0
 19 20  1  0
 20 21  1  0
 21 22  1  0
 22 23  1  0
 22 24  1  0
 24 25  1  0
 24 26  1  0
 19 27  1  0
 27 28  1  1
 27 29  1  0
 29 30  1  0
 30 31  1  0
 31 32  1  1
  7  5  1  0
 31 10  1  0
 31 13  1  0
 27 15  1  0
 24 18  1  0
  1 33  1  0
  1 34  1  0
  1 35  1  0
  2 36  1  1
  3 37  1  0
  3 38  1  0
  4 39  1  0
  4 40  1  0
  5 41  1  6
  8 42  1  0
  8 43  1  0
  8 44  1  0
  9 45  1  0
  9 46  1  0
  9 47  1  0
 10 48  1  6
 11 49  1  0
 11 50  1  0
 12 51  1  0
 12 52  1  0
 14 53  1  0
 14 54  1  0
 14 55  1  0
 15 56  1  6
 16 57  1  0
 16 58  1  0
 17 59  1  0
 19 60  1  6
 20 61  1  0
 20 62  1  0
 21 63  1  0
 21 64  1  0
 22 65  1  1
 23 66  1  0
 25 67  1  0
 25 68  1  0
 25 69  1  0
 26 70  1  0
 26 71  1  0
 26 72  1  0
 28 73  1  0
 28 74  1  0
 28 75  1  0
 29 76  1  0
 29 77  1  0
 30 78  1  0
 30 79  1  0
 32 80  1  0
 32 81  1  0
 32 82  1  0
M  END
>  <meeko>  (8) 
{"is_sidechain": [false], "intermolecular_energy": 2.731, "internal_energy": -0.839}

$$$$
EPH_relaxed_0001_pdb2pqr_Repair_418_r2_0001_out
     RDKit          3D

 82 86  0  0  0  0  0  0  0  0999 V2000
   -2.2510    7.8440   -2.1580 C   0  0  0  0  0  0  0  0  0  0  0  0
   -2.1880    8.4470   -0.7520 C   0  0  2  0  0  0  0  0  0  0  0  0
   -3.5590    8.4210   -0.0470 C   0  0  0  0  0  0  0  0  0  0  0  0
   -4.7470    8.5160   -1.0070 C   0  0  0  0  0  0  0  0  0  0  0  0
   -5.5500    7.2510   -1.0240 C   0  0  2  0  0  0  0  0  0  0  0  0
   -5.6550    6.6250   -2.3090 O   0  0  0  0  0  0  0  0  0  0  0  0
   -6.8810    7.1130   -1.7400 C   0  0  0  0  0  0  0  0  0  0  0  0
   -7.4860    8.2590   -2.4880 C   0  0  0  0  0  0  0  0  0  0  0  0
   -7.8170    6.0290   -1.3060 C   0  0  0  0  0  0  0  0  0  0  0  0
   -1.6660    9.8770   -0.8230 C   0  0  1  0  0  0  0  0  0  0  0  0
   -1.2300   10.4230    0.5630 C   0  0  0  0  0  0  0  0  0  0  0  0
   -0.0110   11.3490    0.3150 C   0  0  0  0  0  0  0  0  0  0  0  0
    0.0080   11.5680   -1.2160 C   0  0  1  0  0  0  0  0  0  0  0  0
   -1.0520   12.6850   -1.4740 C   0  0  0  0  0  0  0  0  0  0  0  0
    1.3930   11.9300   -1.8450 C   0  0  2  0  0  0  0  0  0  0  0  0
    2.0050   13.2550   -1.3570 C   0  0  0  0  0  0  0  0  0  0  0  0
    1.6410   14.4600   -2.1590 C   0  0  0  0  0  0  0  0  0  0  0  0
    1.0900   14.4440   -3.3870 C   0  0  0  0  0  0  0  0  0  0  0  0
    0.8690   13.1230   -4.1350 C   0  0  1  0  0  0  0  0  0  0  0  0
    1.3640   13.2660   -5.5980 C   0  0  0  0  0  0  0  0  0  0  0  0
    0.7330   14.4550   -6.3150 C   0  0  0  0  0  0  0  0  0  0  0  0
    1.0240   15.7570   -5.5740 C   0  0  2  0  0  0  0  0  0  0  0  0
    2.4270   16.0260   -5.6500 O   0  0  0  0  0  0  0  0  0  0  0  0
    0.5770   15.7280   -4.0850 C   0  0  0  0  0  0  0  0  0  0  0  0
   -0.9690   15.7390   -4.0060 C   0  0  0  0  0  0  0  0  0  0  0  0
    1.0560   17.0450   -3.4170 C   0  0  0  0  0  0  0  0  0  0  0  0
    1.4360   11.8200   -3.4230 C   0  0  1  0  0  0  0  0  0  0  0  0
    2.9310   11.6090   -3.8140 C   0  0  0  0  0  0  0  0  0  0  0  0
    0.6560   10.5610   -3.9570 C   0  0  0  0  0  0  0  0  0  0  0  0
   -0.6430   10.1840   -3.2180 C   0  0  0  0  0  0  0  0  0  0  0  0
   -0.4180   10.1360   -1.7040 C   0  0  2  0  0  0  0  0  0  0  0  0
    0.6280    9.0060   -1.4110 C   0  0  0  0  0  0  0  0  0  0  0  0
   -2.3650    6.7524   -2.0840 H   0  0  0  0  0  0  0  0  0  0  0  0
   -3.1099    8.2665   -2.7000 H   0  0  0  0  0  0  0  0  0  0  0  0
   -1.3233    8.0799   -2.7000 H   0  0  0  0  0  0  0  0  0  0  0  0
   -1.4994    7.8288   -0.1573 H   0  0  0  0  0  0  0  0  0  0  0  0
   -3.6420    7.4797    0.5160 H   0  0  0  0  0  0  0  0  0  0  0  0
   -3.6016    9.3057    0.6053 H   0  0  0  0  0  0  0  0  0  0  0  0
   -5.3959    9.3456   -0.6898 H   0  0  0  0  0  0  0  0  0  0  0  0
   -4.3553    8.6865   -2.0206 H   0  0  0  0  0  0  0  0  0  0  0  0
   -5.2365    7.0115    0.0028 H   0  0  0  0  0  0  0  0  0  0  0  0
   -7.8763    8.9983   -1.7731 H   0  0  0  0  0  0  0  0  0  0  0  0
   -6.7190    8.7299   -3.1204 H   0  0  0  0  0  0  0  0  0  0  0  0
   -8.3075    7.8913   -3.1204 H   0  0  0  0  0  0  0  0  0  0  0  0
   -7.8498    5.9911   -0.2071 H   0  0  0  0  0  0  0  0  0  0  0  0
   -8.8244    6.2366   -1.6959 H   0  0  0  0  0  0  0  0  0  0  0  0
   -7.4648    5.0626   -1.6959 H   0  0  0  0  0  0  0  0  0  0  0  0
   -2.5448   10.3726   -1.2613 H   0  0  0  0  0  0  0  0  0  0  0  0
   -2.0517   10.9929    1.0213 H   0  0  0  0  0  0  0  0  0  0  0  0
   -0.9699    9.6019    1.2472 H   0  0  0  0  0  0  0  0  0  0  0  0
   -0.1367   12.3060    0.8426 H   0  0  0  0  0  0  0  0  0  0  0  0
    0.9276   10.9109    0.6853 H   0  0  0  0  0  0  0  0  0  0  0  0
   -1.4189   13.0716   -0.5118 H   0  0  0  0  0  0  0  0  0  0  0  0
   -0.5905   13.5034   -2.0460 H   0  0  0  0  0  0  0  0  0  0  0  0
   -1.8934   12.2669   -2.0460 H   0  0  0  0  0  0  0  0  0  0  0  0
    2.0458   11.1369   -1.4515 H   0  0  0  0  0  0  0  0  0  0  0  0
    1.6718   13.4223   -0.3221 H   0  0  0  0  0  0  0  0  0  0  0  0
    3.0946   13.1414   -1.4566 H   0  0  0  0  0  0  0  0  0  0  0  0
    1.8397   15.4438   -1.7087 H   0  0  0  0  0  0  0  0  0  0  0  0
   -0.2167   12.9462   -4.1249 H   0  0  0  0  0  0  0  0  0  0  0  0
    2.4560   13.3983   -5.5895 H   0  0  0  0  0  0  0  0  0  0  0  0
    1.0709   12.3550   -6.1403 H   0  0  0  0  0  0  0  0  0  0  0  0
    1.1442   14.5208   -7.3331 H   0  0  0  0  0  0  0  0  0  0  0  0
   -0.3564   14.3065   -6.3485 H   0  0  0  0  0  0  0  0  0  0  0  0
    0.4398   16.5518   -6.0609 H   0  0  0  0  0  0  0  0  0  0  0  0
    2.7420   15.7070   -6.5130 H   0  0  0  0  0  0  0  0  0  0  0  0
   -1.2823   15.7412   -2.9515 H   0  0  0  0  0  0  0  0  0  0  0  0
   -1.3553   16.6399   -4.5052 H   0  0  0  0  0  0  0  0  0  0  0  0
   -1.3680   14.8437   -4.5052 H   0  0  0  0  0  0  0  0  0  0  0  0
    1.0166   16.9367   -2.3231 H   0  0  0  0  0  0  0  0  0  0  0  0
    2.0894   17.2588   -3.7273 H   0  0  0  0  0  0  0  0  0  0  0  0
    0.4013   17.8727   -3.7273 H   0  0  0  0  0  0  0  0  0  0  0  0
    3.5399   11.5231   -2.9020 H   0  0  0  0  0  0  0  0  0  0  0  0
    3.0282   10.6882   -4.4079 H   0  0  0  0  0  0  0  0  0  0  0  0
    3.2793   12.4669   -4.4079 H   0  0  0  0  0  0  0  0  0  0  0  0
    0.3972   10.7513   -5.0091 H   0  0  0  0  0  0  0  0  0  0  0  0
    1.3359    9.7113   -3.7962 H   0  0  0  0  0  0  0  0  0  0  0  0
   -1.4158   10.9337   -3.4434 H   0  0  0  0  0  0  0  0  0  0  0  0
   -0.9628    9.1876   -3.5569 H   0  0  0  0  0  0  0  0  0  0  0  0
    0.7410    8.8839   -0.3236 H   0  0  0  0  0  0  0  0  0  0  0  0
    0.2794    8.0604   -1.8519 H   0  0  0  0  0  0  0  0  0  0  0  0
    1.5976    9.2806   -1.8519 H   0  0  0  0  0  0  0  0  0  0  0  0
  1  2  1  0
  2  3  1  0
  3  4  1  0
  4  5  1  0
  5  6  1  0
  6  7  1  0
  7  8  1  0
  7  9  1  0
  2 10  1  0
 10 11  1  0
 11 12  1  0
 12 13  1  0
 13 14  1  1
 13 15  1  0
 15 16  1  0
 16 17  1  0
 17 18  2  0
 18 19  1  0
 19 20  1  0
 20 21  1  0
 21 22  1  0
 22 23  1  0
 22 24  1  0
 24 25  1  0
 24 26  1  0
 19 27  1  0
 27 28  1  6
 27 29  1  0
 29 30  1  0
 30 31  1  0
 31 32  1  6
  7  5  1  0
 31 10  1  0
 31 13  1  0
 27 15  1  0
 24 18  1  0
  1 33  1  0
  1 34  1  0
  1 35  1  0
  2 36  1  1
  3 37  1  0
  3 38  1  0
  4 39  1  0
  4 40  1  0
  5 41  1  1
  8 42  1  0
  8 43  1  0
  8 44  1  0
  9 45  1  0
  9 46  1  0
  9 47  1  0
 10 48  1  6
 11 49  1  0
 11 50  1  0
 12 51  1  0
 12 52  1  0
 14 53  1  0
 14 54  1  0
 14 55  1  0
 15 56  1  1
 16 57  1  0
 16 58  1  0
 17 59  1  0
 19 60  1  6
 20 61  1  0
 20 62  1  0
 21 63  1  0
 21 64  1  0
 22 65  1  6
 23 66  1  0
 25 67  1  0
 25 68  1  0
 25 69  1  0
 26 70  1  0
 26 71  1  0
 26 72  1  0
 28 73  1  0
 28 74  1  0
 28 75  1  0
 29 76  1  0
 29 77  1  0
 30 78  1  0
 30 79  1  0
 32 80  1  0
 32 81  1  0
 32 82  1  0
M  END
>  <meeko>  (9) 
{"is_sidechain": [false], "intermolecular_energy": 2.731, "internal_energy": -0.839}

$$$$
EPH_relaxed_0001_pdb2pqr_Repair_418_r2_0001_out
     RDKit          3D

 82 86  0  0  0  0  0  0  0  0999 V2000
   -4.2700    6.9930   -3.1080 C   0  0  0  0  0  0  0  0  0  0  0  0
   -4.2990    7.2690   -1.6030 C   0  0  2  0  0  0  0  0  0  0  0  0
   -5.7350    7.2920   -1.0440 C   0  0  0  0  0  0  0  0  0  0  0  0
   -6.7660    7.8700   -2.0170 C   0  0  0  0  0  0  0  0  0  0  0  0
   -8.1520    7.8230   -1.4500 C   0  0  2  0  0  0  0  0  0  0  0  0
   -8.5620    6.5340   -0.9770 O   0  0  0  0  0  0  0  0  0  0  0  0
   -9.2950    7.0610   -2.0950 C   0  0  0  0  0  0  0  0  0  0  0  0
   -9.1020    6.2940   -3.3650 C   0  0  0  0  0  0  0  0  0  0  0  0
  -10.6990    7.4600   -1.7620 C   0  0  0  0  0  0  0  0  0  0  0  0
   -3.6020    8.5910   -1.3030 C   0  0  1  0  0  0  0  0  0  0  0  0
   -4.0760    9.2270    0.0310 C   0  0  0  0  0  0  0  0  0  0  0  0
   -2.8430    9.9330    0.6520 C   0  0  0  0  0  0  0  0  0  0  0  0
   -1.7970    9.9660   -0.4870 C   0  0  1  0  0  0  0  0  0  0  0  0
   -2.2070   11.1850   -1.3720 C   0  0  0  0  0  0  0  0  0  0  0  0
   -0.2990   10.0500   -0.0480 C   0  0  2  0  0  0  0  0  0  0  0  0
    0.0830   11.3210    0.7310 C   0  0  0  0  0  0  0  0  0  0  0  0
    0.5560   12.4630   -0.1050 C   0  0  0  0  0  0  0  0  0  0  0  0
    0.9410   12.3830   -1.3920 C   0  0  0  0  0  0  0  0  0  0  0  0
    1.0170   11.0290   -2.1090 C   0  0  1  0  0  0  0  0  0  0  0  0
    2.3570   10.9270   -2.8840 C   0  0  0  0  0  0  0  0  0  0  0  0
    2.5750   12.1020   -3.8330 C   0  0  0  0  0  0  0  0  0  0  0  0
    2.5510   13.4270   -3.0740 C   0  0  2  0  0  0  0  0  0  0  0  0
    3.6870   13.4810   -2.2060 O   0  0  0  0  0  0  0  0  0  0  0  0
    1.2520   13.6360   -2.2470 C   0  0  0  0  0  0  0  0  0  0  0  0
    0.0590   13.8790   -3.2050 C   0  0  0  0  0  0  0  0  0  0  0  0
    1.4170   14.9400   -1.4210 C   0  0  0  0  0  0  0  0  0  0  0  0
    0.7340    9.7510   -1.2080 C   0  0  1  0  0  0  0  0  0  0  0  0
    2.0530    9.2830   -0.5200 C   0  0  0  0  0  0  0  0  0  0  0  0
    0.2700    8.5630   -2.1310 C   0  0  0  0  0  0  0  0  0  0  0  0
   -1.2380    8.4650   -2.4320 C   0  0  0  0  0  0  0  0  0  0  0  0
   -2.0610    8.5630   -1.1440 C   0  0  2  0  0  0  0  0  0  0  0  0
   -1.6870    7.3370   -0.2430 C   0  0  0  0  0  0  0  0  0  0  0  0
   -4.1565    5.9126   -3.2805 H   0  0  0  0  0  0  0  0  0  0  0  0
   -5.2096    7.3402   -3.5626 H   0  0  0  0  0  0  0  0  0  0  0  0
   -3.4231    7.5279   -3.5626 H   0  0  0  0  0  0  0  0  0  0  0  0
   -3.7647    6.4459   -1.1059 H   0  0  0  0  0  0  0  0  0  0  0  0
   -6.0288    6.2606   -0.7993 H   0  0  0  0  0  0  0  0  0  0  0  0
   -5.7251    7.9470   -0.1603 H   0  0  0  0  0  0  0  0  0  0  0  0
   -6.5047    8.9165   -2.2328 H   0  0  0  0  0  0  0  0  0  0  0  0
   -6.7502    7.2620   -2.9336 H   0  0  0  0  0  0  0  0  0  0  0  0
   -8.0656    8.8595   -1.0919 H   0  0  0  0  0  0  0  0  0  0  0  0
   -8.8399    5.2523   -3.1280 H   0  0  0  0  0  0  0  0  0  0  0  0
  -10.0331    6.3137   -3.9504 H   0  0  0  0  0  0  0  0  0  0  0  0
   -8.2911    6.7521   -3.9504 H   0  0  0  0  0  0  0  0  0  0  0  0
  -10.8210    7.4947   -0.6693 H   0  0  0  0  0  0  0  0  0  0  0  0
  -10.9083    8.4532   -2.1860 H   0  0  0  0  0  0  0  0  0  0  0  0
  -11.3993    6.7253   -2.1860 H   0  0  0  0  0  0  0  0  0  0  0  0
   -3.8762    9.1532   -2.2078 H   0  0  0  0  0  0  0  0  0  0  0  0
   -4.8748    9.9585   -0.1607 H   0  0  0  0  0  0  0  0  0  0  0  0
   -4.4786    8.4628    0.7121 H   0  0  0  0  0  0  0  0  0  0  0  0
   -3.1004   10.9533    0.9725 H   0  0  0  0  0  0  0  0  0  0  0  0
   -2.4700    9.4113    1.5457 H   0  0  0  0  0  0  0  0  0  0  0  0
   -2.4907   12.0285   -0.7255 H   0  0  0  0  0  0  0  0  0  0  0  0
   -1.3583   11.4790   -2.0070 H   0  0  0  0  0  0  0  0  0  0  0  0
   -3.0609   10.9064   -2.0070 H   0  0  0  0  0  0  0  0  0  0  0  0
   -0.2182    9.2228    0.6725 H   0  0  0  0  0  0  0  0  0  0  0  0
   -0.8022   11.6545    1.2924 H   0  0  0  0  0  0  0  0  0  0  0  0
    0.9318   11.0413    1.3723 H   0  0  0  0  0  0  0  0  0  0  0  0
    0.5931   13.4540    0.3710 H   0  0  0  0  0  0  0  0  0  0  0  0
    0.1751   11.0122   -2.8168 H   0  0  0  0  0  0  0  0  0  0  0  0
    3.1831   10.9020   -2.1581 H   0  0  0  0  0  0  0  0  0  0  0  0
    2.3230   10.0099   -3.4904 H   0  0  0  0  0  0  0  0  0  0  0  0
    3.5504   11.9885   -4.3287 H   0  0  0  0  0  0  0  0  0  0  0  0
    1.7646   12.1082   -4.5768 H   0  0  0  0  0  0  0  0  0  0  0  0
    2.5814   14.2350   -3.8198 H   0  0  0  0  0  0  0  0  0  0  0  0
    4.4340   13.8310   -2.7210 H   0  0  0  0  0  0  0  0  0  0  0  0
   -0.8518   14.0645   -2.6167 H   0  0  0  0  0  0  0  0  0  0  0  0
    0.2701   14.7526   -3.8393 H   0  0  0  0  0  0  0  0  0  0  0  0
   -0.0884   12.9924   -3.8393 H   0  0  0  0  0  0  0  0  0  0  0  0
    1.3867   14.7005   -0.3478 H   0  0  0  0  0  0  0  0  0  0  0  0
    2.3816   15.4090   -1.6650 H   0  0  0  0  0  0  0  0  0  0  0  0
    0.5996   15.6345   -1.6650 H   0  0  0  0  0  0  0  0  0  0  0  0
    1.9319    9.3260    0.5725 H   0  0  0  0  0  0  0  0  0  0  0  0
    2.2784    8.2500   -0.8236 H   0  0  0  0  0  0  0  0  0  0  0  0
    2.8790    9.9429   -0.8236 H   0  0  0  0  0  0  0  0  0  0  0  0
    0.7953    8.6636   -3.0922 H   0  0  0  0  0  0  0  0  0  0  0  0
    0.5109    7.6496   -1.5673 H   0  0  0  0  0  0  0  0  0  0  0  0
   -1.5247    9.2860   -3.1057 H   0  0  0  0  0  0  0  0  0  0  0  0
   -1.4392    7.4920   -2.9039 H   0  0  0  0  0  0  0  0  0  0  0  0
   -1.7735    7.6205    0.8163 H   0  0  0  0  0  0  0  0  0  0  0  0
   -2.3715    6.5028   -0.4564 H   0  0  0  0  0  0  0  0  0  0  0  0
   -0.6534    7.0269   -0.4564 H   0  0  0  0  0  0  0  0  0  0  0  0
  1  2  1  0
  2  3  1  0
  3  4  1  0
  4  5  1  0
  5  6  1  0
  6  7  1  0
  7  8  1  0
  7  9  1  0
  2 10  1  0
 10 11  1  0
 11 12  1  0
 12 13  1  0
 13 14  1  6
 13 15  1  0
 15 16  1  0
 16 17  1  0
 17 18  2  0
 18 19  1  0
 19 20  1  0
 20 21  1  0
 21 22  1  0
 22 23  1  0
 22 24  1  0
 24 25  1  0
 24 26  1  0
 19 27  1  0
 27 28  1  1
 27 29  1  0
 29 30  1  0
 30 31  1  0
 31 32  1  1
  7  5  1  0
 31 10  1  0
 31 13  1  0
 27 15  1  0
 24 18  1  0
  1 33  1  0
  1 34  1  0
  1 35  1  0
  2 36  1  1
  3 37  1  0
  3 38  1  0
  4 39  1  0
  4 40  1  0
  5 41  1  1
  8 42  1  0
  8 43  1  0
  8 44  1  0
  9 45  1  0
  9 46  1  0
  9 47  1  0
 10 48  1  6
 11 49  1  0
 11 50  1  0
 12 51  1  0
 12 52  1  0
 14 53  1  0
 14 54  1  0
 14 55  1  0
 15 56  1  1
 16 57  1  0
 16 58  1  0
 17 59  1  0
 19 60  1  6
 20 61  1  0
 20 62  1  0
 21 63  1  0
 21 64  1  0
 22 65  1  6
 23 66  1  0
 25 67  1  0
 25 68  1  0
 25 69  1  0
 26 70  1  0
 26 71  1  0
 26 72  1  0
 28 73  1  0
 28 74  1  0
 28 75  1  0
 29 76  1  0
 29 77  1  0
 30 78  1  0
 30 79  1  0
 32 80  1  0
 32 81  1  0
 32 82  1  0
M  END
>  <meeko>  (10) 
{"is_sidechain": [false], "intermolecular_energy": 2.731, "internal_energy": -0.839}

$$$$
EPH_relaxed_0001_pdb2pqr_Repair_418_r2_0001_out
     RDKit          3D

 82 86  0  0  0  0  0  0  0  0999 V2000
    0.1280    8.6090   -2.4240 C   0  0  0  0  0  0  0  0  0  0  0  0
    0.8730    9.7370   -3.1440 C   0  0  2  0  0  0  0  0  0  0  0  0
    2.3860    9.7150   -2.8470 C   0  0  0  0  0  0  0  0  0  0  0  0
    3.2310   10.4320   -3.9040 C   0  0  0  0  0  0  0  0  0  0  0  0
    4.6060   10.7450   -3.3960 C   0  0  2  0  0  0  0  0  0  0  0  0
    5.1710   11.9590   -3.9080 O   0  0  0  0  0  0  0  0  0  0  0  0
    5.8430   10.7440   -4.2740 C   0  0  0  0  0  0  0  0  0  0  0  0
    5.7630   10.4210   -5.7330 C   0  0  0  0  0  0  0  0  0  0  0  0
    7.1810   10.5750   -3.6250 C   0  0  0  0  0  0  0  0  0  0  0  0
    0.2840   11.0860   -2.7460 C   0  0  1  0  0  0  0  0  0  0  0  0
   -1.0690   10.9490   -1.9990 C   0  0  0  0  0  0  0  0  0  0  0  0
   -1.1150   12.0850   -0.9450 C   0  0  0  0  0  0  0  0  0  0  0  0
    0.0450   13.0290   -1.3380 C   0  0  1  0  0  0  0  0  0  0  0  0
   -0.5260   13.9070   -2.4950 C   0  0  0  0  0  0  0  0  0  0  0  0
    0.6430   13.9050   -0.1900 C   0  0  2  0  0  0  0  0  0  0  0  0
   -0.3380   14.9050    0.4470 C   0  0  0  0  0  0  0  0  0  0  0  0
   -0.3710   16.2570   -0.1860 C   0  0  0  0  0  0  0  0  0  0  0  0
    0.5520   16.7450   -1.0350 C   0  0  0  0  0  0  0  0  0  0  0  0
    1.8220   15.9480   -1.3630 C   0  0  1  0  0  0  0  0  0  0  0  0
    3.0570   16.8830   -1.2750 C   0  0  0  0  0  0  0  0  0  0  0  0
    2.9110   18.1290   -2.1420 C   0  0  0  0  0  0  0  0  0  0  0  0
    1.6700   18.9260   -1.7480 C   0  0  2  0  0  0  0  0  0  0  0  0
    1.8600   19.4540   -0.4310 O   0  0  0  0  0  0  0  0  0  0  0  0
    0.3630   18.0850   -1.7900 C   0  0  0  0  0  0  0  0  0  0  0  0
   -0.0040   17.7660   -3.2600 C   0  0  0  0  0  0  0  0  0  0  0  0
   -0.7890   18.9650   -1.2350 C   0  0  0  0  0  0  0  0  0  0  0  0
    2.0200   14.5960   -0.5510 C   0  0  1  0  0  0  0  0  0  0  0  0
    2.7400   14.8880    0.8010 C   0  0  0  0  0  0  0  0  0  0  0  0
    2.9730   13.6430   -1.3650 C   0  0  0  0  0  0  0  0  0  0  0  0
    2.3080   12.7160   -2.4010 C   0  0  0  0  0  0  0  0  0  0  0  0
    1.1190   11.9720   -1.7880 C   0  0  2  0  0  0  0  0  0  0  0  0
    1.6660   11.0630   -0.6350 C   0  0  0  0  0  0  0  0  0  0  0  0
    0.2183    8.7458   -1.3363 H   0  0  0  0  0  0  0  0  0  0  0  0
   -0.9341    8.6305   -2.7093 H   0  0  0  0  0  0  0  0  0  0  0  0
    0.5647    7.6406   -2.7093 H   0  0  0  0  0  0  0  0  0  0  0  0
    0.7460    9.5802   -4.2253 H   0  0  0  0  0  0  0  0  0  0  0  0
    2.5565   10.2033   -1.8762 H   0  0  0  0  0  0  0  0  0  0  0  0
    2.6984    8.6603   -2.8467 H   0  0  0  0  0  0  0  0  0  0  0  0
    3.3169    9.7859   -4.7901 H   0  0  0  0  0  0  0  0  0  0  0  0
    2.7339   11.3807   -4.1545 H   0  0  0  0  0  0  0  0  0  0  0  0
    4.3851   10.2631   -2.4322 H   0  0  0  0  0  0  0  0  0  0  0  0
    5.5003    9.3604   -5.8599 H   0  0  0  0  0  0  0  0  0  0  0  0
    4.9931   11.0485   -6.2058 H   0  0  0  0  0  0  0  0  0  0  0  0
    6.7367   10.6167   -6.2058 H   0  0  0  0  0  0  0  0  0  0  0  0
    7.0626   10.5900   -2.5315 H   0  0  0  0  0  0  0  0  0  0  0  0
    7.6193    9.6144   -3.9333 H   0  0  0  0  0  0  0  0  0  0  0  0
    7.8444   11.3965   -3.9333 H   0  0  0  0  0  0  0  0  0  0  0  0
    0.2211   11.5597   -3.7368 H   0  0  0  0  0  0  0  0  0  0  0  0
   -1.9047   11.0546   -2.7065 H   0  0  0  0  0  0  0  0  0  0  0  0
   -1.1579    9.9625   -1.5206 H   0  0  0  0  0  0  0  0  0  0  0  0
   -2.0781   12.6149   -0.9869 H   0  0  0  0  0  0  0  0  0  0  0  0
   -1.0139   11.7052    0.0824 H   0  0  0  0  0  0  0  0  0  0  0  0
   -1.0793   14.7578   -2.0708 H   0  0  0  0  0  0  0  0  0  0  0  0
    0.3024   14.2807   -3.1148 H   0  0  0  0  0  0  0  0  0  0  0  0
   -1.2035   13.3014   -3.1148 H   0  0  0  0  0  0  0  0  0  0  0  0
    0.8558   13.1581    0.5890 H   0  0  0  0  0  0  0  0  0  0  0  0
   -1.3489   14.4759    0.3850 H   0  0  0  0  0  0  0  0  0  0  0  0
    0.0122   15.0601    1.4782 H   0  0  0  0  0  0  0  0  0  0  0  0
   -1.2214   16.9090    0.0626 H   0  0  0  0  0  0  0  0  0  0  0  0
    1.6989   15.5894   -2.3956 H   0  0  0  0  0  0  0  0  0  0  0  0
    3.1889   17.1952   -0.2285 H   0  0  0  0  0  0  0  0  0  0  0  0
    3.9279   16.3208   -1.6429 H   0  0  0  0  0  0  0  0  0  0  0  0
    3.8011   18.7626   -2.0144 H   0  0  0  0  0  0  0  0  0  0  0  0
    2.8085   17.8161   -3.1916 H   0  0  0  0  0  0  0  0  0  0  0  0
    1.5480   19.7327   -2.4858 H   0  0  0  0  0  0  0  0  0  0  0  0
    1.0090   19.8210   -0.1360 H   0  0  0  0  0  0  0  0  0  0  0  0
   -0.8340   17.0445   -3.2824 H   0  0  0  0  0  0  0  0  0  0  0  0
   -0.3085   18.6913   -3.7710 H   0  0  0  0  0  0  0  0  0  0  0  0
    0.8699   17.3356   -3.7710 H   0  0  0  0  0  0  0  0  0  0  0  0
   -0.7664   18.9478   -0.1354 H   0  0  0  0  0  0  0  0  0  0  0  0
   -0.6632   19.9991   -1.5882 H   0  0  0  0  0  0  0  0  0  0  0  0
   -1.7537   18.5717   -1.5882 H   0  0  0  0  0  0  0  0  0  0  0  0
    2.0760   14.6187    1.6356 H   0  0  0  0  0  0  0  0  0  0  0  0
    3.6635   14.2933    0.8605 H   0  0  0  0  0  0  0  0  0  0  0  0
    2.9884   15.9579    0.8605 H   0  0  0  0  0  0  0  0  0  0  0  0
    3.6976   14.2745   -1.9000 H   0  0  0  0  0  0  0  0  0  0  0  0
    3.4142   12.9687   -0.6163 H   0  0  0  0  0  0  0  0  0  0  0  0
    1.9554   13.3199   -3.2501 H   0  0  0  0  0  0  0  0  0  0  0  0
    3.0496   11.9759   -2.7361 H   0  0  0  0  0  0  0  0  0  0  0  0
    1.4005   11.5042    0.3370 H   0  0  0  0  0  0  0  0  0  0  0  0
    1.2212   10.0602   -0.7163 H   0  0  0  0  0  0  0  0  0  0  0  0
    2.7603   10.9864   -0.7163 H   0  0  0  0  0  0  0  0  0  0  0  0
  1  2  1  0
  2  3  1  0
  3  4  1  0
  4  5  1  0
  5  6  1  0
  6  7  1  0
  7  8  1  0
  7  9  1  0
  2 10  1  0
 10 11  1  0
 11 12  1  0
 12 13  1  0
 13 14  1  6
 13 15  1  0
 15 16  1  0
 16 17  1  0
 17 18  2  0
 18 19  1  0
 19 20  1  0
 20 21  1  0
 21 22  1  0
 22 23  1  0
 22 24  1  0
 24 25  1  0
 24 26  1  0
 19 27  1  0
 27 28  1  1
 27 29  1  0
 29 30  1  0
 30 31  1  0
 31 32  1  1
  7  5  1  0
 31 10  1  0
 31 13  1  0
 27 15  1  0
 24 18  1  0
  1 33  1  0
  1 34  1  0
  1 35  1  0
  2 36  1  6
  3 37  1  0
  3 38  1  0
  4 39  1  0
  4 40  1  0
  5 41  1  1
  8 42  1  0
  8 43  1  0
  8 44  1  0
  9 45  1  0
  9 46  1  0
  9 47  1  0
 10 48  1  6
 11 49  1  0
 11 50  1  0
 12 51  1  0
 12 52  1  0
 14 53  1  0
 14 54  1  0
 14 55  1  0
 15 56  1  1
 16 57  1  0
 16 58  1  0
 17 59  1  0
 19 60  1  6
 20 61  1  0
 20 62  1  0
 21 63  1  0
 21 64  1  0
 22 65  1  6
 23 66  1  0
 25 67  1  0
 25 68  1  0
 25 69  1  0
 26 70  1  0
 26 71  1  0
 26 72  1  0
 28 73  1  0
 28 74  1  0
 28 75  1  0
 29 76  1  0
 29 77  1  0
 30 78  1  0
 30 79  1  0
 32 80  1  0
 32 81  1  0
 32 82  1  0
M  END
>  <meeko>  (11) 
{"is_sidechain": [false], "intermolecular_energy": 2.731, "internal_energy": -0.839}

$$$$
EPH_relaxed_0001_pdb2pqr_Repair_418_r2_0001_out
     RDKit          3D

 82 86  0  0  0  0  0  0  0  0999 V2000
   -1.1410   14.2750    3.0440 C   0  0  0  0  0  0  0  0  0  0  0  0
   -0.4080   14.9600    1.8880 C   0  0  2  0  0  0  0  0  0  0  0  0
   -1.3820   15.5040    0.8230 C   0  0  0  0  0  0  0  0  0  0  0  0
   -1.6940   16.9950    0.9790 C   0  0  0  0  0  0  0  0  0  0  0  0
   -0.8790   17.8330    0.0410 C   0  0  2  0  0  0  0  0  0  0  0  0
   -0.3640   19.0420    0.6130 O   0  0  0  0  0  0  0  0  0  0  0  0
   -1.3150   19.1990   -0.4530 C   0  0  0  0  0  0  0  0  0  0  0  0
   -2.6140   19.8060   -0.0250 C   0  0  0  0  0  0  0  0  0  0  0  0
   -0.7180   19.7260   -1.7210 C   0  0  0  0  0  0  0  0  0  0  0  0
    0.5750   13.9880    1.2460 C   0  0  1  0  0  0  0  0  0  0  0  0
    0.8990   12.7760    2.1600 C   0  0  0  0  0  0  0  0  0  0  0  0
    1.0920   11.5520    1.2280 C   0  0  0  0  0  0  0  0  0  0  0  0
    1.2020   12.1560   -0.1920 C   0  0  1  0  0  0  0  0  0  0  0  0
    2.6830   12.6380   -0.3090 C   0  0  0  0  0  0  0  0  0  0  0  0
    0.8060   11.2150   -1.3760 C   0  0  2  0  0  0  0  0  0  0  0  0
    1.6790    9.9570   -1.5300 C   0  0  0  0  0  0  0  0  0  0  0  0
    2.8680   10.1110   -2.4190 C   0  0  0  0  0  0  0  0  0  0  0  0
    3.0680   11.1170   -3.2900 C   0  0  0  0  0  0  0  0  0  0  0  0
    1.9940   12.1890   -3.5160 C   0  0  1  0  0  0  0  0  0  0  0  0
    1.8070   12.4210   -5.0380 C   0  0  0  0  0  0  0  0  0  0  0  0
    3.1180   12.7500   -5.7460 C   0  0  0  0  0  0  0  0  0  0  0  0
    4.1410   11.6350   -5.5460 C   0  0  2  0  0  0  0  0  0  0  0  0
    3.6800   10.4610   -6.2230 O   0  0  0  0  0  0  0  0  0  0  0  0
    4.4040   11.3060   -4.0500 C   0  0  0  0  0  0  0  0  0  0  0  0
    5.1790   12.4720   -3.3890 C   0  0  0  0  0  0  0  0  0  0  0  0
    5.3450   10.0720   -3.9920 C   0  0  0  0  0  0  0  0  0  0  0  0
    0.6160   11.9590   -2.7590 C   0  0  1  0  0  0  0  0  0  0  0  0
   -0.3220   11.0610   -3.6230 C   0  0  0  0  0  0  0  0  0  0  0  0
   -0.1190   13.3420   -2.5990 C   0  0  0  0  0  0  0  0  0  0  0  0
    0.2270   14.1720   -1.3470 C   0  0  0  0  0  0  0  0  0  0  0  0
    0.1440   13.3130   -0.0810 C   0  0  2  0  0  0  0  0  0  0  0  0
   -1.3390   12.8330    0.0750 C   0  0  0  0  0  0  0  0  0  0  0  0
   -0.7443   14.6457    4.0007 H   0  0  0  0  0  0  0  0  0  0  0  0
   -2.2160   14.4997    2.9810 H   0  0  0  0  0  0  0  0  0  0  0  0
   -0.9895   13.1873    2.9810 H   0  0  0  0  0  0  0  0  0  0  0  0
    0.1377   15.8188    2.3059 H   0  0  0  0  0  0  0  0  0  0  0  0
   -0.9357   15.3445   -0.1697 H   0  0  0  0  0  0  0  0  0  0  0  0
   -2.3310   14.9620    0.9483 H   0  0  0  0  0  0  0  0  0  0  0  0
   -2.7611   17.1598    0.7687 H   0  0  0  0  0  0  0  0  0  0  0  0
   -1.4447   17.2916    2.0085 H   0  0  0  0  0  0  0  0  0  0  0  0
   -0.5221   16.9368   -0.4877 H   0  0  0  0  0  0  0  0  0  0  0  0
   -2.6636   19.8292    1.0736 H   0  0  0  0  0  0  0  0  0  0  0  0
   -2.6865   20.8312   -0.4170 H   0  0  0  0  0  0  0  0  0  0  0  0
   -3.4469   19.2038   -0.4170 H   0  0  0  0  0  0  0  0  0  0  0  0
    0.0866   20.4363   -1.4799 H   0  0  0  0  0  0  0  0  0  0  0  0
   -0.3066   18.8911   -2.3073 H   0  0  0  0  0  0  0  0  0  0  0  0
   -1.4954   20.2378   -2.3073 H   0  0  0  0  0  0  0  0  0  0  0  0
    1.4180   14.6709    1.0644 H   0  0  0  0  0  0  0  0  0  0  0  0
    1.8201   12.9670    2.7301 H   0  0  0  0  0  0  0  0  0  0  0  0
    0.0888   12.5984    2.8825 H   0  0  0  0  0  0  0  0  0  0  0  0
    2.0101   11.0056    1.4897 H   0  0  0  0  0  0  0  0  0  0  0  0
    0.2663   10.8300    1.3113 H   0  0  0  0  0  0  0  0  0  0  0  0
    3.1046   12.7752    0.6977 H   0  0  0  0  0  0  0  0  0  0  0  0
    3.2717   11.8851   -0.8536 H   0  0  0  0  0  0  0  0  0  0  0  0
    2.7158   13.5932   -0.8536 H   0  0  0  0  0  0  0  0  0  0  0  0
   -0.1865   10.8540   -1.0685 H   0  0  0  0  0  0  0  0  0  0  0  0
    2.0368    9.6672   -0.5310 H   0  0  0  0  0  0  0  0  0  0  0  0
    1.0394    9.1991   -2.0059 H   0  0  0  0  0  0  0  0  0  0  0  0
    3.6467    9.3366   -2.3569 H   0  0  0  0  0  0  0  0  0  0  0  0
    2.3745   13.1064   -3.0431 H   0  0  0  0  0  0  0  0  0  0  0  0
    1.3847   11.5086   -5.4843 H   0  0  0  0  0  0  0  0  0  0  0  0
    1.1346   13.2824   -5.1639 H   0  0  0  0  0  0  0  0  0  0  0  0
    2.9251   12.8727   -6.8220 H   0  0  0  0  0  0  0  0  0  0  0  0
    3.5237   13.6792   -5.3194 H   0  0  0  0  0  0  0  0  0  0  0  0
    5.0970   11.9850   -5.9625 H   0  0  0  0  0  0  0  0  0  0  0  0
    4.4630    9.9700   -6.5260 H   0  0  0  0  0  0  0  0  0  0  0  0
    5.1174   12.3794   -2.2946 H   0  0  0  0  0  0  0  0  0  0  0  0
    6.2331   12.4353   -3.7014 H   0  0  0  0  0  0  0  0  0  0  0  0
    4.7371   13.4297   -3.7014 H   0  0  0  0  0  0  0  0  0  0  0  0
    5.5437    9.8114   -2.9419 H   0  0  0  0  0  0  0  0  0  0  0  0
    4.8647    9.2206   -4.4965 H   0  0  0  0  0  0  0  0  0  0  0  0
    6.2931   10.3098   -4.4965 H   0  0  0  0  0  0  0  0  0  0  0  0
   -0.9575   10.4526   -2.9627 H   0  0  0  0  0  0  0  0  0  0  0  0
   -0.9561   11.6973   -4.2578 H   0  0  0  0  0  0  0  0  0  0  0  0
    0.2861   10.3998   -4.2578 H   0  0  0  0  0  0  0  0  0  0  0  0
    0.1249   13.9525   -3.4809 H   0  0  0  0  0  0  0  0  0  0  0  0
   -1.1847   13.0911   -2.4926 H   0  0  0  0  0  0  0  0  0  0  0  0
    1.2487   14.5669   -1.4478 H   0  0  0  0  0  0  0  0  0  0  0  0
   -0.4968   14.9958   -1.2606 H   0  0  0  0  0  0  0  0  0  0  0  0
   -1.5879   12.7525    1.1434 H   0  0  0  0  0  0  0  0  0  0  0  0
   -2.0118   13.5592   -0.4045 H   0  0  0  0  0  0  0  0  0  0  0  0
   -1.4587   11.8502   -0.4045 H   0  0  0  0  0  0  0  0  0  0  0  0
  1  2  1  0
  2  3  1  0
  3  4  1  0
  4  5  1  0
  5  6  1  0
  6  7  1  0
  7  8  1  0
  7  9  1  0
  2 10  1  0
 10 11  1  0
 11 12  1  0
 12 13  1  0
 13 14  1  6
 13 15  1  0
 15 16  1  0
 16 17  1  0
 17 18  2  0
 18 19  1  0
 19 20  1  0
 20 21  1  0
 21 22  1  0
 22 23  1  0
 22 24  1  0
 24 25  1  0
 24 26  1  0
 19 27  1  0
 27 28  1  6
 27 29  1  0
 29 30  1  0
 30 31  1  0
 31 32  1  1
  7  5  1  0
 31 10  1  0
 31 13  1  0
 27 15  1  0
 24 18  1  0
  1 33  1  0
  1 34  1  0
  1 35  1  0
  2 36  1  1
  3 37  1  0
  3 38  1  0
  4 39  1  0
  4 40  1  0
  5 41  1  6
  8 42  1  0
  8 43  1  0
  8 44  1  0
  9 45  1  0
  9 46  1  0
  9 47  1  0
 10 48  1  6
 11 49  1  0
 11 50  1  0
 12 51  1  0
 12 52  1  0
 14 53  1  0
 14 54  1  0
 14 55  1  0
 15 56  1  1
 16 57  1  0
 16 58  1  0
 17 59  1  0
 19 60  1  1
 20 61  1  0
 20 62  1  0
 21 63  1  0
 21 64  1  0
 22 65  1  6
 23 66  1  0
 25 67  1  0
 25 68  1  0
 25 69  1  0
 26 70  1  0
 26 71  1  0
 26 72  1  0
 28 73  1  0
 28 74  1  0
 28 75  1  0
 29 76  1  0
 29 77  1  0
 30 78  1  0
 30 79  1  0
 32 80  1  0
 32 81  1  0
 32 82  1  0
M  END
>  <meeko>  (12) 
{"is_sidechain": [false], "intermolecular_energy": 2.731, "internal_energy": -0.839}

$$$$
EPH_relaxed_0001_pdb2pqr_Repair_418_r2_0001_out
     RDKit          3D

 82 86  0  0  0  0  0  0  0  0999 V2000
   -0.5300   16.7430   -0.3020 C   0  0  0  0  0  0  0  0  0  0  0  0
   -0.8240   15.3800    0.3310 C   0  0  2  0  0  0  0  0  0  0  0  0
   -1.0930   15.4900    1.8460 C   0  0  0  0  0  0  0  0  0  0  0  0
   -1.0080   14.1520    2.5850 C   0  0  0  0  0  0  0  0  0  0  0  0
   -0.6630   14.3380    4.0310 C   0  0  2  0  0  0  0  0  0  0  0  0
    0.0650   13.2510    4.6180 O   0  0  0  0  0  0  0  0  0  0  0  0
   -1.2490   13.4940    5.1470 C   0  0  0  0  0  0  0  0  0  0  0  0
   -2.2300   12.3990    4.8640 C   0  0  0  0  0  0  0  0  0  0  0  0
   -1.2470   14.0450    6.5380 C   0  0  0  0  0  0  0  0  0  0  0  0
    0.3390   14.4280    0.0770 C   0  0  1  0  0  0  0  0  0  0  0  0
    0.5800   13.4510    1.2580 C   0  0  0  0  0  0  0  0  0  0  0  0
    1.0460   12.1080    0.6400 C   0  0  0  0  0  0  0  0  0  0  0  0
    1.3760   12.4500   -0.8320 C   0  0  1  0  0  0  0  0  0  0  0  0
    2.8070   13.0710   -0.7890 C   0  0  0  0  0  0  0  0  0  0  0  0
    1.2900   11.2680   -1.8520 C   0  0  2  0  0  0  0  0  0  0  0  0
    2.2750   10.1130   -1.5970 C   0  0  0  0  0  0  0  0  0  0  0  0
    3.5950   10.2390   -2.2820 C   0  0  0  0  0  0  0  0  0  0  0  0
    3.8760   11.0850   -3.2910 C   0  0  0  0  0  0  0  0  0  0  0  0
    2.7810   11.9640   -3.9090 C   0  0  1  0  0  0  0  0  0  0  0  0
    2.8690   11.8890   -5.4560 C   0  0  0  0  0  0  0  0  0  0  0  0
    4.2600   12.2340   -5.9800 C   0  0  0  0  0  0  0  0  0  0  0  0
    5.3130   11.3010   -5.3870 C   0  0  2  0  0  0  0  0  0  0  0  0
    5.0870    9.9770   -5.8820 O   0  0  0  0  0  0  0  0  0  0  0  0
    5.3130   11.2850   -3.8330 C   0  0  0  0  0  0  0  0  0  0  0  0
    5.8500   12.6350   -3.2990 C   0  0  0  0  0  0  0  0  0  0  0  0
    6.3210   10.2010   -3.3670 C   0  0  0  0  0  0  0  0  0  0  0  0
    1.3070   11.7180   -3.3690 C   0  0  1  0  0  0  0  0  0  0  0  0
    0.6270   10.5730   -4.1800 C   0  0  0  0  0  0  0  0  0  0  0  0
    0.4450   13.0120   -3.6190 C   0  0  0  0  0  0  0  0  0  0  0  0
    0.4780   14.0910   -2.5200 C   0  0  0  0  0  0  0  0  0  0  0  0
    0.2250   13.4760   -1.1400 C   0  0  2  0  0  0  0  0  0  0  0  0
   -1.2160   12.8630   -1.1460 C   0  0  0  0  0  0  0  0  0  0  0  0
   -0.3692   17.4884    0.4908 H   0  0  0  0  0  0  0  0  0  0  0  0
    0.3732   16.6705   -0.9257 H   0  0  0  0  0  0  0  0  0  0  0  0
   -1.3828   17.0492   -0.9257 H   0  0  0  0  0  0  0  0  0  0  0  0
   -1.7370   14.9860   -0.1393 H   0  0  0  0  0  0  0  0  0  0  0  0
   -0.3508   16.1751    2.2816 H   0  0  0  0  0  0  0  0  0  0  0  0
   -2.1232   15.8573    1.9637 H   0  0  0  0  0  0  0  0  0  0  0  0
   -1.9804   13.6428    2.5133 H   0  0  0  0  0  0  0  0  0  0  0  0
   -0.2132   13.5522    2.1175 H   0  0  0  0  0  0  0  0  0  0  0  0
   -0.5806   15.4264    3.8949 H   0  0  0  0  0  0  0  0  0  0  0  0
   -2.6011   11.9848    5.8131 H   0  0  0  0  0  0  0  0  0  0  0  0
   -3.0738   12.8031    4.2855 H   0  0  0  0  0  0  0  0  0  0  0  0
   -1.7359   11.6045    4.2855 H   0  0  0  0  0  0  0  0  0  0  0  0
   -1.2500   13.2158    7.2608 H   0  0  0  0  0  0  0  0  0  0  0  0
   -0.3466   14.6589    6.6879 H   0  0  0  0  0  0  0  0  0  0  0  0
   -2.1429   14.6654    6.6879 H   0  0  0  0  0  0  0  0  0  0  0  0
    1.1432   15.1594   -0.0910 H   0  0  0  0  0  0  0  0  0  0  0  0
    1.3568   13.8498    1.9270 H   0  0  0  0  0  0  0  0  0  0  0  0
   -0.3361   13.3156    1.8516 H   0  0  0  0  0  0  0  0  0  0  0  0
    1.9383   11.7299    1.1603 H   0  0  0  0  0  0  0  0  0  0  0  0
    0.2810   11.3221    0.7244 H   0  0  0  0  0  0  0  0  0  0  0  0
    3.1170   13.2055    0.2578 H   0  0  0  0  0  0  0  0  0  0  0  0
    3.5139   12.3987   -1.2972 H   0  0  0  0  0  0  0  0  0  0  0  0
    2.7988   14.0465   -1.2972 H   0  0  0  0  0  0  0  0  0  0  0  0
    0.2894   10.8569   -1.6526 H   0  0  0  0  0  0  0  0  0  0  0  0
    2.4581   10.0551   -0.5139 H   0  0  0  0  0  0  0  0  0  0  0  0
    1.8012    9.2112   -2.0121 H   0  0  0  0  0  0  0  0  0  0  0  0
    4.4075    9.5849   -1.9327 H   0  0  0  0  0  0  0  0  0  0  0  0
    2.9889   12.9904   -3.5724 H   0  0  0  0  0  0  0  0  0  0  0  0
    2.6156   10.8671   -5.7745 H   0  0  0  0  0  0  0  0  0  0  0  0
    2.1647   12.6273   -5.8668 H   0  0  0  0  0  0  0  0  0  0  0  0
    4.2669   12.1347   -7.0755 H   0  0  0  0  0  0  0  0  0  0  0  0
    4.5000   13.2665   -5.6860 H   0  0  0  0  0  0  0  0  0  0  0  0
    6.2990   11.6781   -5.6961 H   0  0  0  0  0  0  0  0  0  0  0  0
    5.8850    9.4540   -5.6980 H   0  0  0  0  0  0  0  0  0  0  0  0
    5.8450   12.6223   -2.1991 H   0  0  0  0  0  0  0  0  0  0  0  0
    6.8779   12.7890   -3.6592 H   0  0  0  0  0  0  0  0  0  0  0  0
    5.2088   13.4530   -3.6592 H   0  0  0  0  0  0  0  0  0  0  0  0
    6.3471   10.1729   -2.2677 H   0  0  0  0  0  0  0  0  0  0  0  0
    6.0075    9.2192   -3.7515 H   0  0  0  0  0  0  0  0  0  0  0  0
    7.3229   10.4425   -3.7515 H   0  0  0  0  0  0  0  0  0  0  0  0
    0.1916    9.8399   -3.4849 H   0  0  0  0  0  0  0  0  0  0  0  0
   -0.1674   10.9943   -4.8136 H   0  0  0  0  0  0  0  0  0  0  0  0
    1.3770   10.0770   -4.8136 H   0  0  0  0  0  0  0  0  0  0  0  0
    0.8020   13.4749   -4.5508 H   0  0  0  0  0  0  0  0  0  0  0  0
   -0.5976   12.6624   -3.6482 H   0  0  0  0  0  0  0  0  0  0  0  0
    1.4650   14.5767   -2.5221 H   0  0  0  0  0  0  0  0  0  0  0  0
   -0.3135   14.8264   -2.7267 H   0  0  0  0  0  0  0  0  0  0  0  0
   -1.5571   12.7179   -0.1103 H   0  0  0  0  0  0  0  0  0  0  0  0
   -1.9032   13.5467   -1.6659 H   0  0  0  0  0  0  0  0  0  0  0  0
   -1.2000   11.8938   -1.6659 H   0  0  0  0  0  0  0  0  0  0  0  0
  1  2  1  0
  2  3  1  0
  3  4  1  0
  4  5  1  0
  5  6  1  0
  6  7  1  0
  7  8  1  0
  7  9  1  0
  2 10  1  0
 10 11  1  0
 11 12  1  0
 12 13  1  0
 13 14  1  1
 13 15  1  0
 15 16  1  0
 16 17  1  0
 17 18  2  0
 18 19  1  0
 19 20  1  0
 20 21  1  0
 21 22  1  0
 22 23  1  0
 22 24  1  0
 24 25  1  0
 24 26  1  0
 19 27  1  0
 27 28  1  6
 27 29  1  0
 29 30  1  0
 30 31  1  0
 31 32  1  6
  7  5  1  0
 31 10  1  0
 31 13  1  0
 27 15  1  0
 24 18  1  0
  1 33  1  0
  1 34  1  0
  1 35  1  0
  2 36  1  6
  3 37  1  0
  3 38  1  0
  4 39  1  0
  4 40  1  0
  5 41  1  1
  8 42  1  0
  8 43  1  0
  8 44  1  0
  9 45  1  0
  9 46  1  0
  9 47  1  0
 10 48  1  6
 11 49  1  0
 11 50  1  0
 12 51  1  0
 12 52  1  0
 14 53  1  0
 14 54  1  0
 14 55  1  0
 15 56  1  1
 16 57  1  0
 16 58  1  0
 17 59  1  0
 19 60  1  6
 20 61  1  0
 20 62  1  0
 21 63  1  0
 21 64  1  0
 22 65  1  6
 23 66  1  0
 25 67  1  0
 25 68  1  0
 25 69  1  0
 26 70  1  0
 26 71  1  0
 26 72  1  0
 28 73  1  0
 28 74  1  0
 28 75  1  0
 29 76  1  0
 29 77  1  0
 30 78  1  0
 30 79  1  0
 32 80  1  0
 32 81  1  0
 32 82  1  0
M  END
>  <meeko>  (13) 
{"is_sidechain": [false], "intermolecular_energy": 2.731, "internal_energy": -0.839}

$$$$
EPH_relaxed_0001_pdb2pqr_Repair_418_r2_0001_out
     RDKit          3D

 82 86  0  0  0  0  0  0  0  0999 V2000
    0.9360   14.8910   -2.6210 C   0  0  0  0  0  0  0  0  0  0  0  0
    1.2000   14.2170   -3.9700 C   0  0  2  0  0  0  0  0  0  0  0  0
    0.5010   14.9500   -5.1320 C   0  0  0  0  0  0  0  0  0  0  0  0
    1.0690   14.6010   -6.5100 C   0  0  0  0  0  0  0  0  0  0  0  0
    0.8380   15.7020   -7.5000 C   0  0  2  0  0  0  0  0  0  0  0  0
    0.3920   15.2630   -8.7900 O   0  0  0  0  0  0  0  0  0  0  0  0
    1.6810   15.8960   -8.7470 C   0  0  0  0  0  0  0  0  0  0  0  0
    2.8190   14.9800   -9.0700 C   0  0  0  0  0  0  0  0  0  0  0  0
    1.7100   17.2490   -9.3870 C   0  0  0  0  0  0  0  0  0  0  0  0
    0.7440   12.7630   -3.9210 C   0  0  1  0  0  0  0  0  0  0  0  0
    1.8730   11.7700   -4.3060 C   0  0  0  0  0  0  0  0  0  0  0  0
    1.6680   10.5020   -3.4380 C   0  0  0  0  0  0  0  0  0  0  0  0
    0.2550   10.6680   -2.8320 C   0  0  1  0  0  0  0  0  0  0  0  0
   -0.7220   10.2070   -3.9590 C   0  0  0  0  0  0  0  0  0  0  0  0
   -0.0140    9.9120   -1.4900 C   0  0  2  0  0  0  0  0  0  0  0  0
    0.0850    8.3790   -1.5730 C   0  0  0  0  0  0  0  0  0  0  0  0
   -1.1890    7.6740   -1.8990 C   0  0  0  0  0  0  0  0  0  0  0  0
   -2.4200    8.2160   -1.8380 C   0  0  0  0  0  0  0  0  0  0  0  0
   -2.6280    9.6420   -1.3120 C   0  0  1  0  0  0  0  0  0  0  0  0
   -3.8090    9.6550   -0.3050 C   0  0  0  0  0  0  0  0  0  0  0  0
   -5.0840    9.0570   -0.8920 C   0  0  0  0  0  0  0  0  0  0  0  0
   -4.8530    7.6200   -1.3500 C   0  0  2  0  0  0  0  0  0  0  0  0
   -4.5980    6.8050   -0.2020 O   0  0  0  0  0  0  0  0  0  0  0  0
   -3.6790    7.4810   -2.3600 C   0  0  0  0  0  0  0  0  0  0  0  0
   -4.0830    8.1110   -3.7160 C   0  0  0  0  0  0  0  0  0  0  0  0
   -3.4610    5.9680   -2.6320 C   0  0  0  0  0  0  0  0  0  0  0  0
   -1.3340   10.3670   -0.7430 C   0  0  1  0  0  0  0  0  0  0  0  0
   -1.1400   10.0080    0.7620 C   0  0  0  0  0  0  0  0  0  0  0  0
   -1.5490   11.9250   -0.8040 C   0  0  0  0  0  0  0  0  0  0  0  0
   -1.1520   12.6310   -2.1150 C   0  0  0  0  0  0  0  0  0  0  0  0
    0.2540   12.2160   -2.5570 C   0  0  2  0  0  0  0  0  0  0  0  0
    1.2610   12.6870   -1.4530 C   0  0  0  0  0  0  0  0  0  0  0  0
    1.2061   14.2015   -1.8076 H   0  0  0  0  0  0  0  0  0  0  0  0
    1.5424   15.8054   -2.5431 H   0  0  0  0  0  0  0  0  0  0  0  0
   -0.1302   15.1503   -2.5431 H   0  0  0  0  0  0  0  0  0  0  0  0
    2.2831   14.2614   -4.1567 H   0  0  0  0  0  0  0  0  0  0  0  0
   -0.5662   14.6838   -5.1187 H   0  0  0  0  0  0  0  0  0  0  0  0
    0.6669   16.0266   -4.9791 H   0  0  0  0  0  0  0  0  0  0  0  0
    2.1511   14.4275   -6.4160 H   0  0  0  0  0  0  0  0  0  0  0  0
    0.5552   13.6991   -6.8742 H   0  0  0  0  0  0  0  0  0  0  0  0
    0.5367   16.3922   -6.6982 H   0  0  0  0  0  0  0  0  0  0  0  0
    3.2723   14.6151   -8.1365 H   0  0  0  0  0  0  0  0  0  0  0  0
    2.4475   14.1261   -9.6555 H   0  0  0  0  0  0  0  0  0  0  0  0
    3.5739   15.5254   -9.6555 H   0  0  0  0  0  0  0  0  0  0  0  0
    1.7266   18.0237   -8.6062 H   0  0  0  0  0  0  0  0  0  0  0  0
    2.6103   17.3395  -10.0125 H   0  0  0  0  0  0  0  0  0  0  0  0
    0.8144   17.3780  -10.0125 H   0  0  0  0  0  0  0  0  0  0  0  0
   -0.0954   12.8093   -4.6305 H   0  0  0  0  0  0  0  0  0  0  0  0
    1.8043   11.5136   -5.3735 H   0  0  0  0  0  0  0  0  0  0  0  0
    2.8649   12.2124   -4.1312 H   0  0  0  0  0  0  0  0  0  0  0  0
    1.7206    9.5946   -4.0576 H   0  0  0  0  0  0  0  0  0  0  0  0
    2.4434   10.3959   -2.6651 H   0  0  0  0  0  0  0  0  0  0  0  0
   -1.6286    9.7792   -3.5060 H   0  0  0  0  0  0  0  0  0  0  0  0
   -0.9962   11.0707   -4.5825 H   0  0  0  0  0  0  0  0  0  0  0  0
   -0.2297    9.4462   -4.5825 H   0  0  0  0  0  0  0  0  0  0  0  0
    0.8330   10.2320   -0.8653 H   0  0  0  0  0  0  0  0  0  0  0  0
    0.8210    8.1277   -2.3509 H   0  0  0  0  0  0  0  0  0  0  0  0
    0.3723    8.0381   -0.5674 H   0  0  0  0  0  0  0  0  0  0  0  0
   -1.1164    6.6231   -2.2158 H   0  0  0  0  0  0  0  0  0  0  0  0
   -2.8780   10.2562   -2.1896 H   0  0  0  0  0  0  0  0  0  0  0  0
   -3.5221    9.0721    0.5826 H   0  0  0  0  0  0  0  0  0  0  0  0
   -4.0188   10.7041   -0.0495 H   0  0  0  0  0  0  0  0  0  0  0  0
   -5.8726    9.0679   -0.1252 H   0  0  0  0  0  0  0  0  0  0  0  0
   -5.3848    9.6584   -1.7625 H   0  0  0  0  0  0  0  0  0  0  0  0
   -5.7614    7.2915   -1.8762 H   0  0  0  0  0  0  0  0  0  0  0  0
   -4.7280    7.3590    0.5870 H   0  0  0  0  0  0  0  0  0  0  0  0
   -4.6688    9.0245   -3.5359 H   0  0  0  0  0  0  0  0  0  0  0  0
   -3.1775    8.3628   -4.2876 H   0  0  0  0  0  0  0  0  0  0  0  0
   -4.6896    7.3932   -4.2876 H   0  0  0  0  0  0  0  0  0  0  0  0
   -3.3836    5.4309   -1.6752 H   0  0  0  0  0  0  0  0  0  0  0  0
   -4.3114    5.5725   -3.2068 H   0  0  0  0  0  0  0  0  0  0  0  0
   -2.5335    5.8287   -3.2068 H   0  0  0  0  0  0  0  0  0  0  0  0
   -1.5703   10.8042    1.3873 H   0  0  0  0  0  0  0  0  0  0  0  0
   -1.6466    9.0563    0.9802 H   0  0  0  0  0  0  0  0  0  0  0  0
   -0.0663    9.9103    0.9802 H   0  0  0  0  0  0  0  0  0  0  0  0
   -2.6177   12.1203   -0.6314 H   0  0  0  0  0  0  0  0  0  0  0  0
   -0.8750   12.3384   -0.0393 H   0  0  0  0  0  0  0  0  0  0  0  0
   -1.8713   12.3598   -2.9018 H   0  0  0  0  0  0  0  0  0  0  0  0
   -1.1595   13.7177   -1.9443 H   0  0  0  0  0  0  0  0  0  0  0  0
    0.8347   12.4876   -0.4588 H   0  0  0  0  0  0  0  0  0  0  0  0
    2.2082   12.1385   -1.5626 H   0  0  0  0  0  0  0  0  0  0  0  0
    1.4471   13.7656   -1.5626 H   0  0  0  0  0  0  0  0  0  0  0  0
  1  2  1  0
  2  3  1  0
  3  4  1  0
  4  5  1  0
  5  6  1  0
  6  7  1  0
  7  8  1  0
  7  9  1  0
  2 10  1  0
 10 11  1  0
 11 12  1  0
 12 13  1  0
 13 14  1  6
 13 15  1  0
 15 16  1  0
 16 17  1  0
 17 18  2  0
 18 19  1  0
 19 20  1  0
 20 21  1  0
 21 22  1  0
 22 23  1  0
 22 24  1  0
 24 25  1  0
 24 26  1  0
 19 27  1  0
 27 28  1  1
 27 29  1  0
 29 30  1  0
 30 31  1  0
 31 32  1  1
  7  5  1  0
 31 10  1  0
 31 13  1  0
 27 15  1  0
 24 18  1  0
  1 33  1  0
  1 34  1  0
  1 35  1  0
  2 36  1  6
  3 37  1  0
  3 38  1  0
  4 39  1  0
  4 40  1  0
  5 41  1  1
  8 42  1  0
  8 43  1  0
  8 44  1  0
  9 45  1  0
  9 46  1  0
  9 47  1  0
 10 48  1  6
 11 49  1  0
 11 50  1  0
 12 51  1  0
 12 52  1  0
 14 53  1  0
 14 54  1  0
 14 55  1  0
 15 56  1  1
 16 57  1  0
 16 58  1  0
 17 59  1  0
 19 60  1  6
 20 61  1  0
 20 62  1  0
 21 63  1  0
 21 64  1  0
 22 65  1  6
 23 66  1  0
 25 67  1  0
 25 68  1  0
 25 69  1  0
 26 70  1  0
 26 71  1  0
 26 72  1  0
 28 73  1  0
 28 74  1  0
 28 75  1  0
 29 76  1  0
 29 77  1  0
 30 78  1  0
 30 79  1  0
 32 80  1  0
 32 81  1  0
 32 82  1  0
M  END
>  <meeko>  (14) 
{"is_sidechain": [false], "intermolecular_energy": 2.731, "internal_energy": -0.839}

$$$$
EPH_relaxed_0001_pdb2pqr_Repair_418_r2_0001_out
     RDKit          3D

 82 86  0  0  0  0  0  0  0  0999 V2000
  -14.7520    6.0050    0.0450 C   0  0  0  0  0  0  0  0  0  0  0  0
  -13.5680    6.8810    0.4630 C   0  0  2  0  0  0  0  0  0  0  0  0
  -14.0090    8.3090    0.8440 C   0  0  0  0  0  0  0  0  0  0  0  0
  -14.9040    8.9770   -0.2030 C   0  0  0  0  0  0  0  0  0  0  0  0
  -14.3210   10.2700   -0.6870 C   0  0  2  0  0  0  0  0  0  0  0  0
  -15.2870   11.2800   -1.0070 O   0  0  0  0  0  0  0  0  0  0  0  0
  -14.4970   10.7890   -2.1020 C   0  0  0  0  0  0  0  0  0  0  0  0
  -15.2800   10.0240   -3.1220 C   0  0  0  0  0  0  0  0  0  0  0  0
  -13.5100   11.7850   -2.6270 C   0  0  0  0  0  0  0  0  0  0  0  0
  -12.5400    6.9360   -0.6610 C   0  0  1  0  0  0  0  0  0  0  0  0
  -12.9310    7.9380   -1.7790 C   0  0  0  0  0  0  0  0  0  0  0  0
  -11.6110    8.5620   -2.3020 C   0  0  0  0  0  0  0  0  0  0  0  0
  -10.4960    7.6680   -1.7100 C   0  0  1  0  0  0  0  0  0  0  0  0
  -10.4320    6.4280   -2.6550 C   0  0  0  0  0  0  0  0  0  0  0  0
   -9.0930    8.3360   -1.5380 C   0  0  2  0  0  0  0  0  0  0  0  0
   -8.4260    8.8000   -2.8440 C   0  0  0  0  0  0  0  0  0  0  0  0
   -7.5520    7.7880   -3.5080 C   0  0  0  0  0  0  0  0  0  0  0  0
   -7.0830    6.6640   -2.9350 C   0  0  0  0  0  0  0  0  0  0  0  0
   -7.3470    6.3650   -1.4540 C   0  0  1  0  0  0  0  0  0  0  0  0
   -6.0300    5.9060   -0.7750 C   0  0  0  0  0  0  0  0  0  0  0  0
   -5.3760    4.7330   -1.5000 C   0  0  0  0  0  0  0  0  0  0  0  0
   -5.0760    5.0890   -2.9540 C   0  0  2  0  0  0  0  0  0  0  0  0
   -4.0670    6.1030   -2.9810 O   0  0  0  0  0  0  0  0  0  0  0  0
   -6.3280    5.5750   -3.7370 C   0  0  0  0  0  0  0  0  0  0  0  0
   -7.2920    4.3850   -3.9670 C   0  0  0  0  0  0  0  0  0  0  0  0
   -5.8620    6.0350   -5.1440 C   0  0  0  0  0  0  0  0  0  0  0  0
   -8.0880    7.5100   -0.6370 C   0  0  1  0  0  0  0  0  0  0  0  0
   -7.0450    8.5290   -0.0840 C   0  0  0  0  0  0  0  0  0  0  0  0
   -8.7930    6.8720    0.6170 C   0  0  0  0  0  0  0  0  0  0  0  0
  -10.2240    6.3370    0.4130 C   0  0  0  0  0  0  0  0  0  0  0  0
  -11.1030    7.3780   -0.2890 C   0  0  2  0  0  0  0  0  0  0  0  0
  -11.2040    8.6280    0.6490 C   0  0  0  0  0  0  0  0  0  0  0  0
  -15.2632    5.6268    0.9426 H   0  0  0  0  0  0  0  0  0  0  0  0
  -15.4559    6.6014   -0.5540 H   0  0  0  0  0  0  0  0  0  0  0  0
  -14.3876    5.1574   -0.5540 H   0  0  0  0  0  0  0  0  0  0  0  0
  -13.1175    6.4247    1.3568 H   0  0  0  0  0  0  0  0  0  0  0  0
  -14.5624    8.2598    1.7934 H   0  0  0  0  0  0  0  0  0  0  0  0
  -13.0958    8.9174    0.9213 H   0  0  0  0  0  0  0  0  0  0  0  0
  -15.0206    8.2960   -1.0590 H   0  0  0  0  0  0  0  0  0  0  0  0
  -15.8761    9.1929    0.2644 H   0  0  0  0  0  0  0  0  0  0  0  0
  -13.4298   10.1311   -0.0574 H   0  0  0  0  0  0  0  0  0  0  0  0
  -15.9776    9.3425   -2.6132 H   0  0  0  0  0  0  0  0  0  0  0  0
  -15.8467   10.7260   -3.7513 H   0  0  0  0  0  0  0  0  0  0  0  0
  -14.5914    9.4411   -3.7513 H   0  0  0  0  0  0  0  0  0  0  0  0
  -13.0123   12.2872   -1.7843 H   0  0  0  0  0  0  0  0  0  0  0  0
  -12.7583   11.2676   -3.2412 H   0  0  0  0  0  0  0  0  0  0  0  0
  -14.0342   12.5320   -3.2412 H   0  0  0  0  0  0  0  0  0  0  0  0
  -12.5416    5.8787   -0.9645 H   0  0  0  0  0  0  0  0  0  0  0  0
  -13.4506    7.4126   -2.5939 H   0  0  0  0  0  0  0  0  0  0  0  0
  -13.6096    8.7138   -1.3946 H   0  0  0  0  0  0  0  0  0  0  0  0
  -11.5813    8.5431   -3.4014 H   0  0  0  0  0  0  0  0  0  0  0  0
  -11.5018    9.6160   -2.0066 H   0  0  0  0  0  0  0  0  0  0  0  0
  -10.3846    5.5094   -2.0518 H   0  0  0  0  0  0  0  0  0  0  0  0
  -11.3301    6.4039   -3.2897 H   0  0  0  0  0  0  0  0  0  0  0  0
   -9.5362    6.4965   -3.2897 H   0  0  0  0  0  0  0  0  0  0  0  0
   -9.3362    9.2552   -0.9848 H   0  0  0  0  0  0  0  0  0  0  0  0
   -9.2210    9.0790   -3.5512 H   0  0  0  0  0  0  0  0  0  0  0  0
   -7.7676    9.6371   -2.5688 H   0  0  0  0  0  0  0  0  0  0  0  0
   -7.2673    7.9769   -4.5536 H   0  0  0  0  0  0  0  0  0  0  0  0
   -8.0811    5.5460   -1.4355 H   0  0  0  0  0  0  0  0  0  0  0  0
   -5.3257    6.7509   -0.7643 H   0  0  0  0  0  0  0  0  0  0  0  0
   -6.2779    5.5728    0.2436 H   0  0  0  0  0  0  0  0  0  0  0  0
   -4.4356    4.4745   -0.9913 H   0  0  0  0  0  0  0  0  0  0  0  0
   -6.0695    3.8793   -1.4835 H   0  0  0  0  0  0  0  0  0  0  0  0
   -4.7309    4.1720   -3.4541 H   0  0  0  0  0  0  0  0  0  0  0  0
   -4.0740    6.5000   -3.8690 H   0  0  0  0  0  0  0  0  0  0  0  0
   -7.6172    3.9836   -2.9959 H   0  0  0  0  0  0  0  0  0  0  0  0
   -8.1697    4.7284   -4.5343 H   0  0  0  0  0  0  0  0  0  0  0  0
   -6.7739    3.5977   -4.5343 H   0  0  0  0  0  0  0  0  0  0  0  0
   -5.0827    6.8042   -5.0388 H   0  0  0  0  0  0  0  0  0  0  0  0
   -5.4555    5.1742   -5.6952 H   0  0  0  0  0  0  0  0  0  0  0  0
   -6.7174    6.4526   -5.6952 H   0  0  0  0  0  0  0  0  0  0  0  0
   -7.0628    8.5116    1.0157 H   0  0  0  0  0  0  0  0  0  0  0  0
   -6.0406    8.2547   -0.4388 H   0  0  0  0  0  0  0  0  0  0  0  0
   -7.2959    9.5395   -0.4388 H   0  0  0  0  0  0  0  0  0  0  0  0
   -8.1694    6.0324    0.9580 H   0  0  0  0  0  0  0  0  0  0  0  0
   -8.8939    7.6949    1.3399 H   0  0  0  0  0  0  0  0  0  0  0  0
  -10.1835    5.4262   -0.2024 H   0  0  0  0  0  0  0  0  0  0  0  0
  -10.6601    6.1163    1.3984 H   0  0  0  0  0  0  0  0  0  0  0  0
  -11.1776    8.3015    1.6991 H   0  0  0  0  0  0  0  0  0  0  0  0
  -10.3574    9.3026    0.4534 H   0  0  0  0  0  0  0  0  0  0  0  0
  -12.1479    9.1579    0.4534 H   0  0  0  0  0  0  0  0  0  0  0  0
  1  2  1  0
  2  3  1  0
  3  4  1  0
  4  5  1  0
  5  6  1  0
  6  7  1  0
  7  8  1  0
  7  9  1  0
  2 10  1  0
 10 11  1  0
 11 12  1  0
 12 13  1  0
 13 14  1  6
 13 15  1  0
 15 16  1  0
 16 17  1  0
 17 18  2  0
 18 19  1  0
 19 20  1  0
 20 21  1  0
 21 22  1  0
 22 23  1  0
 22 24  1  0
 24 25  1  0
 24 26  1  0
 19 27  1  0
 27 28  1  1
 27 29  1  0
 29 30  1  0
 30 31  1  0
 31 32  1  1
  7  5  1  0
 31 10  1  0
 31 13  1  0
 27 15  1  0
 24 18  1  0
  1 33  1  0
  1 34  1  0
  1 35  1  0
  2 36  1  1
  3 37  1  0
  3 38  1  0
  4 39  1  0
  4 40  1  0
  5 41  1  1
  8 42  1  0
  8 43  1  0
  8 44  1  0
  9 45  1  0
  9 46  1  0
  9 47  1  0
 10 48  1  6
 11 49  1  0
 11 50  1  0
 12 51  1  0
 12 52  1  0
 14 53  1  0
 14 54  1  0
 14 55  1  0
 15 56  1  1
 16 57  1  0
 16 58  1  0
 17 59  1  0
 19 60  1  6
 20 61  1  0
 20 62  1  0
 21 63  1  0
 21 64  1  0
 22 65  1  6
 23 66  1  0
 25 67  1  0
 25 68  1  0
 25 69  1  0
 26 70  1  0
 26 71  1  0
 26 72  1  0
 28 73  1  0
 28 74  1  0
 28 75  1  0
 29 76  1  0
 29 77  1  0
 30 78  1  0
 30 79  1  0
 32 80  1  0
 32 81  1  0
 32 82  1  0
M  END
>  <meeko>  (15) 
{"is_sidechain": [false], "intermolecular_energy": 2.731, "internal_energy": -0.839}

$$$$
EPH_relaxed_0001_pdb2pqr_Repair_418_r2_0001_out
     RDKit          3D

 82 86  0  0  0  0  0  0  0  0999 V2000
    3.4300   18.2070   -2.4520 C   0  0  0  0  0  0  0  0  0  0  0  0
    2.1830   17.3670   -2.7430 C   0  0  2  0  0  0  0  0  0  0  0  0
    0.8840   18.1060   -2.3650 C   0  0  0  0  0  0  0  0  0  0  0  0
    1.0050   18.9560   -1.0970 C   0  0  0  0  0  0  0  0  0  0  0  0
   -0.2250   19.7790   -0.8610 C   0  0  2  0  0  0  0  0  0  0  0  0
   -0.4180   20.1910    0.4980 O   0  0  0  0  0  0  0  0  0  0  0  0
   -1.4070   19.2990   -0.0400 C   0  0  0  0  0  0  0  0  0  0  0  0
   -1.4170   17.9450    0.5970 C   0  0  0  0  0  0  0  0  0  0  0  0
   -2.7410   19.9420   -0.2630 C   0  0  0  0  0  0  0  0  0  0  0  0
    2.2640   16.0410   -1.9970 C   0  0  1  0  0  0  0  0  0  0  0  0
    2.7170   16.2120   -0.5220 C   0  0  0  0  0  0  0  0  0  0  0  0
    1.9620   15.1400    0.3050 C   0  0  0  0  0  0  0  0  0  0  0  0
    1.3610   14.1830   -0.7520 C   0  0  1  0  0  0  0  0  0  0  0  0
    2.5350   13.2330   -1.1460 C   0  0  0  0  0  0  0  0  0  0  0  0
    0.0910   13.3820   -0.3160 C   0  0  2  0  0  0  0  0  0  0  0  0
    0.3030   12.4140    0.8620 C   0  0  0  0  0  0  0  0  0  0  0  0
    0.7040   11.0270    0.4830 C   0  0  0  0  0  0  0  0  0  0  0  0
    0.6120   10.4950   -0.7500 C   0  0  0  0  0  0  0  0  0  0  0  0
   -0.0300   11.2810   -1.9010 C   0  0  1  0  0  0  0  0  0  0  0  0
   -1.0190   10.3630   -2.6660 C   0  0  0  0  0  0  0  0  0  0  0  0
   -0.3680    9.0660   -3.1370 C   0  0  0  0  0  0  0  0  0  0  0  0
    0.2070    8.2850   -1.9580 C   0  0  2  0  0  0  0  0  0  0  0  0
   -0.8710    7.8380   -1.1310 O   0  0  0  0  0  0  0  0  0  0  0  0
    1.2110    9.1120   -1.1060 C   0  0  0  0  0  0  0  0  0  0  0  0
    2.5140    9.3390   -1.9120 C   0  0  0  0  0  0  0  0  0  0  0  0
    1.6070    8.2580    0.1280 C   0  0  0  0  0  0  0  0  0  0  0  0
   -0.6740   12.6800   -1.5100 C   0  0  1  0  0  0  0  0  0  0  0  0
   -2.1450   12.4760   -1.0370 C   0  0  0  0  0  0  0  0  0  0  0  0
   -0.7430   13.5910   -2.7930 C   0  0  0  0  0  0  0  0  0  0  0  0
    0.4980   14.4490   -3.1040 C   0  0  0  0  0  0  0  0  0  0  0  0
    0.9570   15.2200   -1.8620 C   0  0  2  0  0  0  0  0  0  0  0  0
   -0.1960   16.2000   -1.4560 C   0  0  0  0  0  0  0  0  0  0  0  0
    3.5651   18.2980   -1.3641 H   0  0  0  0  0  0  0  0  0  0  0  0
    4.3121   17.7183   -2.8914 H   0  0  0  0  0  0  0  0  0  0  0  0
    3.3085   19.2081   -2.8914 H   0  0  0  0  0  0  0  0  0  0  0  0
    2.1540   17.1823   -3.8270 H   0  0  0  0  0  0  0  0  0  0  0  0
    0.6044   18.7656   -3.1997 H   0  0  0  0  0  0  0  0  0  0  0  0
    0.1237   17.3368   -2.1645 H   0  0  0  0  0  0  0  0  0  0  0  0
    1.1591   18.2902   -0.2350 H   0  0  0  0  0  0  0  0  0  0  0  0
    1.8564   19.6409   -1.2237 H   0  0  0  0  0  0  0  0  0  0  0  0
   -0.1547   20.2160   -1.8680 H   0  0  0  0  0  0  0  0  0  0  0  0
   -1.4162   18.0547    1.6915 H   0  0  0  0  0  0  0  0  0  0  0  0
   -2.3192   17.3991    0.2839 H   0  0  0  0  0  0  0  0  0  0  0  0
   -0.5230   17.3859    0.2839 H   0  0  0  0  0  0  0  0  0  0  0  0
   -3.2067   20.1665    0.7079 H   0  0  0  0  0  0  0  0  0  0  0  0
   -2.6081   20.8750   -0.8304 H   0  0  0  0  0  0  0  0  0  0  0  0
   -3.3880   19.2568   -0.8304 H   0  0  0  0  0  0  0  0  0  0  0  0
    2.9779   15.5093   -2.6432 H   0  0  0  0  0  0  0  0  0  0  0  0
    3.8031   16.0587   -0.4391 H   0  0  0  0  0  0  0  0  0  0  0  0
    2.4926   17.2243   -0.1548 H   0  0  0  0  0  0  0  0  0  0  0  0
    2.6555   14.6009    0.9672 H   0  0  0  0  0  0  0  0  0  0  0  0
    1.1914   15.5808    0.9546 H   0  0  0  0  0  0  0  0  0  0  0  0
    3.0143   12.8451   -0.2351 H   0  0  0  0  0  0  0  0  0  0  0  0
    2.1441   12.3940   -1.7403 H   0  0  0  0  0  0  0  0  0  0  0  0
    3.2740   13.7904   -1.7403 H   0  0  0  0  0  0  0  0  0  0  0  0
   -0.5696   14.1753    0.0638 H   0  0  0  0  0  0  0  0  0  0  0  0
    1.0902   12.8311    1.5073 H   0  0  0  0  0  0  0  0  0  0  0  0
   -0.6732   12.3231    1.3608 H   0  0  0  0  0  0  0  0  0  0  0  0
    1.1092   10.3850    1.2791 H   0  0  0  0  0  0  0  0  0  0  0  0
    0.7952   11.5764   -2.5656 H   0  0  0  0  0  0  0  0  0  0  0  0
   -1.8576   10.1147   -1.9989 H   0  0  0  0  0  0  0  0  0  0  0  0
   -1.3595   10.9090   -3.5582 H   0  0  0  0  0  0  0  0  0  0  0  0
   -1.1231    8.4477   -3.6445 H   0  0  0  0  0  0  0  0  0  0  0  0
    0.4519    9.3149   -3.8268 H   0  0  0  0  0  0  0  0  0  0  0  0
    0.7707    7.4348   -2.3696 H   0  0  0  0  0  0  0  0  0  0  0  0
   -1.6690    7.7950   -1.6850 H   0  0  0  0  0  0  0  0  0  0  0  0
    3.3541    9.4854   -1.2172 H   0  0  0  0  0  0  0  0  0  0  0  0
    2.7108    8.4616   -2.5456 H   0  0  0  0  0  0  0  0  0  0  0  0
    2.4025   10.2312   -2.5456 H   0  0  0  0  0  0  0  0  0  0  0  0
    1.3537    8.8043    1.0485 H   0  0  0  0  0  0  0  0  0  0  0  0
    1.0592    7.3044    0.1050 H   0  0  0  0  0  0  0  0  0  0  0  0
    2.6888    8.0600    0.1050 H   0  0  0  0  0  0  0  0  0  0  0  0
   -2.1793   12.4712    0.0625 H   0  0  0  0  0  0  0  0  0  0  0  0
   -2.7703   13.2960   -1.4198 H   0  0  0  0  0  0  0  0  0  0  0  0
   -2.5236   11.5168   -1.4198 H   0  0  0  0  0  0  0  0  0  0  0  0
   -0.9189   12.9346   -3.6580 H   0  0  0  0  0  0  0  0  0  0  0  0
   -1.5480   14.3127   -2.5903 H   0  0  0  0  0  0  0  0  0  0  0  0
    1.3136   13.7928   -3.4420 H   0  0  0  0  0  0  0  0  0  0  0  0
    0.2358   15.1732   -3.8894 H   0  0  0  0  0  0  0  0  0  0  0  0
   -0.2611   16.2553   -0.3593 H   0  0  0  0  0  0  0  0  0  0  0  0
    0.0134   17.2007   -1.8618 H   0  0  0  0  0  0  0  0  0  0  0  0
   -1.1499   15.8320   -1.8618 H   0  0  0  0  0  0  0  0  0  0  0  0
  1  2  1  0
  2  3  1  0
  3  4  1  0
  4  5  1  0
  5  6  1  0
  6  7  1  0
  7  8  1  0
  7  9  1  0
  2 10  1  0
 10 11  1  0
 11 12  1  0
 12 13  1  0
 13 14  1  6
 13 15  1  0
 15 16  1  0
 16 17  1  0
 17 18  2  0
 18 19  1  0
 19 20  1  0
 20 21  1  0
 21 22  1  0
 22 23  1  0
 22 24  1  0
 24 25  1  0
 24 26  1  0
 19 27  1  0
 27 28  1  1
 27 29  1  0
 29 30  1  0
 30 31  1  0
 31 32  1  1
  7  5  1  0
 31 10  1  0
 31 13  1  0
 27 15  1  0
 24 18  1  0
  1 33  1  0
  1 34  1  0
  1 35  1  0
  2 36  1  6
  3 37  1  0
  3 38  1  0
  4 39  1  0
  4 40  1  0
  5 41  1  6
  8 42  1  0
  8 43  1  0
  8 44  1  0
  9 45  1  0
  9 46  1  0
  9 47  1  0
 10 48  1  6
 11 49  1  0
 11 50  1  0
 12 51  1  0
 12 52  1  0
 14 53  1  0
 14 54  1  0
 14 55  1  0
 15 56  1  1
 16 57  1  0
 16 58  1  0
 17 59  1  0
 19 60  1  6
 20 61  1  0
 20 62  1  0
 21 63  1  0
 21 64  1  0
 22 65  1  6
 23 66  1  0
 25 67  1  0
 25 68  1  0
 25 69  1  0
 26 70  1  0
 26 71  1  0
 26 72  1  0
 28 73  1  0
 28 74  1  0
 28 75  1  0
 29 76  1  0
 29 77  1  0
 30 78  1  0
 30 79  1  0
 32 80  1  0
 32 81  1  0
 32 82  1  0
M  END
>  <meeko>  (16) 
{"is_sidechain": [false], "intermolecular_energy": 2.731, "internal_energy": -0.839}

$$$$
EPH_relaxed_0001_pdb2pqr_Repair_418_r2_0001_out
     RDKit          3D

 82 86  0  0  0  0  0  0  0  0999 V2000
    0.7700    8.3630   -2.4450 C   0  0  0  0  0  0  0  0  0  0  0  0
   -0.6240    8.6980   -1.9070 C   0  0  2  0  0  0  0  0  0  0  0  0
   -1.7420    8.0400   -2.7410 C   0  0  0  0  0  0  0  0  0  0  0  0
   -3.0220    7.7670   -1.9470 C   0  0  0  0  0  0  0  0  0  0  0  0
   -3.9130    6.7900   -2.6530 C   0  0  2  0  0  0  0  0  0  0  0  0
   -4.7130    7.3570   -3.6990 O   0  0  0  0  0  0  0  0  0  0  0  0
   -5.4280    6.8290   -2.5700 C   0  0  0  0  0  0  0  0  0  0  0  0
   -6.1390    7.8680   -1.7600 C   0  0  0  0  0  0  0  0  0  0  0  0
   -6.1930    5.5790   -2.8720 C   0  0  0  0  0  0  0  0  0  0  0  0
   -0.8190   10.2090   -1.8740 C   0  0  1  0  0  0  0  0  0  0  0  0
   -2.2690   10.6170   -1.5040 C   0  0  0  0  0  0  0  0  0  0  0  0
   -2.1690   11.9210   -0.6710 C   0  0  0  0  0  0  0  0  0  0  0  0
   -0.7110   12.3980   -0.8690 C   0  0  1  0  0  0  0  0  0  0  0  0
   -0.7130   13.1300   -2.2480 C   0  0  0  0  0  0  0  0  0  0  0  0
   -0.1200   13.3010    0.2630 C   0  0  2  0  0  0  0  0  0  0  0  0
   -0.8390   14.6460    0.4670 C   0  0  0  0  0  0  0  0  0  0  0  0
   -0.3010   15.7840   -0.3350 C   0  0  0  0  0  0  0  0  0  0  0  0
    0.8870   15.8040   -0.9670 C   0  0  0  0  0  0  0  0  0  0  0  0
    1.8720   14.6360   -0.8290 C   0  0  1  0  0  0  0  0  0  0  0  0
    3.2940   15.1880   -0.5460 C   0  0  0  0  0  0  0  0  0  0  0  0
    3.7420   16.2090   -1.5880 C   0  0  0  0  0  0  0  0  0  0  0  0
    2.7690   17.3830   -1.6550 C   0  0  2  0  0  0  0  0  0  0  0  0
    2.8360   18.1090   -0.4230 O   0  0  0  0  0  0  0  0  0  0  0  0
    1.3010   16.9480   -1.9250 C   0  0  0  0  0  0  0  0  0  0  0  0
    1.1700   16.4350   -3.3800 C   0  0  0  0  0  0  0  0  0  0  0  0
    0.4030   18.2110   -1.8270 C   0  0  0  0  0  0  0  0  0  0  0  0
    1.4490   13.4900    0.1880 C   0  0  1  0  0  0  0  0  0  0  0  0
    1.9230   13.8550    1.6280 C   0  0  0  0  0  0  0  0  0  0  0  0
    2.1940   12.1580   -0.2000 C   0  0  0  0  0  0  0  0  0  0  0  0
    1.5020   11.2510   -1.2350 C   0  0  0  0  0  0  0  0  0  0  0  0
    0.0350   11.0150   -0.8630 C   0  0  2  0  0  0  0  0  0  0  0  0
    0.0050   10.2600    0.5100 C   0  0  0  0  0  0  0  0  0  0  0  0
    1.4581    8.1976   -1.6028 H   0  0  0  0  0  0  0  0  0  0  0  0
    0.7168    7.4521   -3.0593 H   0  0  0  0  0  0  0  0  0  0  0  0
    1.1365    9.1986   -3.0593 H   0  0  0  0  0  0  0  0  0  0  0  0
   -0.6913    8.2923   -0.8868 H   0  0  0  0  0  0  0  0  0  0  0  0
   -1.9891    8.7081   -3.5792 H   0  0  0  0  0  0  0  0  0  0  0  0
   -1.3596    7.0658   -3.0796 H   0  0  0  0  0  0  0  0  0  0  0  0
   -2.7508    7.3562   -0.9633 H   0  0  0  0  0  0  0  0  0  0  0  0
   -3.5688    8.7155   -1.8402 H   0  0  0  0  0  0  0  0  0  0  0  0
   -3.1860    5.9790   -2.4989 H   0  0  0  0  0  0  0  0  0  0  0  0
   -5.9962    7.6594   -0.6894 H   0  0  0  0  0  0  0  0  0  0  0  0
   -5.7304    8.8612   -1.9977 H   0  0  0  0  0  0  0  0  0  0  0  0
   -7.2128    7.8468   -1.9977 H   0  0  0  0  0  0  0  0  0  0  0  0
   -6.4897    5.0942   -1.9303 H   0  0  0  0  0  0  0  0  0  0  0  0
   -7.0919    5.8308   -3.4539 H   0  0  0  0  0  0  0  0  0  0  0  0
   -5.5598    4.8931   -3.4539 H   0  0  0  0  0  0  0  0  0  0  0  0
   -0.5165   10.4555   -2.9025 H   0  0  0  0  0  0  0  0  0  0  0  0
   -2.8569   10.7948   -2.4166 H   0  0  0  0  0  0  0  0  0  0  0  0
   -2.7693    9.8212   -0.9327 H   0  0  0  0  0  0  0  0  0  0  0  0
   -2.8784   12.6750   -1.0429 H   0  0  0  0  0  0  0  0  0  0  0  0
   -2.4154   11.7595    0.3888 H   0  0  0  0  0  0  0  0  0  0  0  0
   -0.7160   14.2179   -2.0856 H   0  0  0  0  0  0  0  0  0  0  0  0
    0.1859   12.8464   -2.8150 H   0  0  0  0  0  0  0  0  0  0  0  0
   -1.6104   12.8414   -2.8150 H   0  0  0  0  0  0  0  0  0  0  0  0
   -0.3277   12.7112    1.1680 H   0  0  0  0  0  0  0  0  0  0  0  0
   -1.8968   14.5103    0.1976 H   0  0  0  0  0  0  0  0  0  0  0  0
   -0.6846   14.9170    1.5219 H   0  0  0  0  0  0  0  0  0  0  0  0
   -0.9292   16.6833   -0.4165 H   0  0  0  0  0  0  0  0  0  0  0  0
    1.8609   14.1126   -1.7964 H   0  0  0  0  0  0  0  0  0  0  0  0
    3.2953   15.6694    0.4431 H   0  0  0  0  0  0  0  0  0  0  0  0
    3.9952   14.3413   -0.5843 H   0  0  0  0  0  0  0  0  0  0  0  0
    4.7404   16.5839   -1.3186 H   0  0  0  0  0  0  0  0  0  0  0  0
    3.7680   15.7180   -2.5720 H   0  0  0  0  0  0  0  0  0  0  0  0
    3.0712   18.0129   -2.5046 H   0  0  0  0  0  0  0  0  0  0  0  0
    3.5000   17.6740    0.1390 H   0  0  0  0  0  0  0  0  0  0  0  0
    0.8978   15.3692   -3.3699 H   0  0  0  0  0  0  0  0  0  0  0  0
    0.3893   17.0079   -3.9019 H   0  0  0  0  0  0  0  0  0  0  0  0
    2.1298   16.5634   -3.9019 H   0  0  0  0  0  0  0  0  0  0  0  0
    0.2289   18.4559   -0.7688 H   0  0  0  0  0  0  0  0  0  0  0  0
    0.9040   19.0564   -2.3214 H   0  0  0  0  0  0  0  0  0  0  0  0
   -0.5600   18.0155   -2.3214 H   0  0  0  0  0  0  0  0  0  0  0  0
    1.2756   13.3565    2.3645 H   0  0  0  0  0  0  0  0  0  0  0  0
    2.9618   13.5214    1.7677 H   0  0  0  0  0  0  0  0  0  0  0  0
    1.8659   14.9446    1.7677 H   0  0  0  0  0  0  0  0  0  0  0  0
    3.1790   12.4335   -0.6048 H   0  0  0  0  0  0  0  0  0  0  0  0
    2.2254   11.5656    0.7263 H   0  0  0  0  0  0  0  0  0  0  0  0
    1.5498   11.7313   -2.2235 H   0  0  0  0  0  0  0  0  0  0  0  0
    2.0198   10.2807   -1.2530 H   0  0  0  0  0  0  0  0  0  0  0  0
    0.0341   10.9912    1.3313 H   0  0  0  0  0  0  0  0  0  0  0  0
   -0.9175    9.6651    0.5812 H   0  0  0  0  0  0  0  0  0  0  0  0
    0.8774    9.5938    0.5812 H   0  0  0  0  0  0  0  0  0  0  0  0
  1  2  1  0
  2  3  1  0
  3  4  1  0
  4  5  1  0
  5  6  1  0
  6  7  1  0
  7  8  1  0
  7  9  1  0
  2 10  1  0
 10 11  1  0
 11 12  1  0
 12 13  1  0
 13 14  1  6
 13 15  1  0
 15 16  1  0
 16 17  1  0
 17 18  2  0
 18 19  1  0
 19 20  1  0
 20 21  1  0
 21 22  1  0
 22 23  1  0
 22 24  1  0
 24 25  1  0
 24 26  1  0
 19 27  1  0
 27 28  1  1
 27 29  1  0
 29 30  1  0
 30 31  1  0
 31 32  1  1
  7  5  1  0
 31 10  1  0
 31 13  1  0
 27 15  1  0
 24 18  1  0
  1 33  1  0
  1 34  1  0
  1 35  1  0
  2 36  1  1
  3 37  1  0
  3 38  1  0
  4 39  1  0
  4 40  1  0
  5 41  1  6
  8 42  1  0
  8 43  1  0
  8 44  1  0
  9 45  1  0
  9 46  1  0
  9 47  1  0
 10 48  1  6
 11 49  1  0
 11 50  1  0
 12 51  1  0
 12 52  1  0
 14 53  1  0
 14 54  1  0
 14 55  1  0
 15 56  1  1
 16 57  1  0
 16 58  1  0
 17 59  1  0
 19 60  1  6
 20 61  1  0
 20 62  1  0
 21 63  1  0
 21 64  1  0
 22 65  1  6
 23 66  1  0
 25 67  1  0
 25 68  1  0
 25 69  1  0
 26 70  1  0
 26 71  1  0
 26 72  1  0
 28 73  1  0
 28 74  1  0
 28 75  1  0
 29 76  1  0
 29 77  1  0
 30 78  1  0
 30 79  1  0
 32 80  1  0
 32 81  1  0
 32 82  1  0
M  END
>  <meeko>  (17) 
{"is_sidechain": [false], "intermolecular_energy": 2.731, "internal_energy": -0.839}

$$$$
EPH_relaxed_0001_pdb2pqr_Repair_418_r2_0001_out
     RDKit          3D

 82 86  0  0  0  0  0  0  0  0999 V2000
    0.7910   14.7020   -4.9660 C   0  0  0  0  0  0  0  0  0  0  0  0
    0.6020   14.1670   -3.5430 C   0  0  2  0  0  0  0  0  0  0  0  0
    1.8600   14.3690   -2.6750 C   0  0  0  0  0  0  0  0  0  0  0  0
    1.6750   15.3910   -1.5500 C   0  0  0  0  0  0  0  0  0  0  0  0
    1.1960   16.7110   -2.0740 C   0  0  2  0  0  0  0  0  0  0  0  0
    2.0090   17.2740   -3.1120 O   0  0  0  0  0  0  0  0  0  0  0  0
    1.9520   18.0120   -1.8810 C   0  0  0  0  0  0  0  0  0  0  0  0
    3.2500   18.0570   -1.1380 C   0  0  0  0  0  0  0  0  0  0  0  0
    1.1970   19.3000   -1.9840 C   0  0  0  0  0  0  0  0  0  0  0  0
    0.2320   12.6890   -3.5890 C   0  0  1  0  0  0  0  0  0  0  0  0
    1.4460   11.7800   -3.9180 C   0  0  0  0  0  0  0  0  0  0  0  0
    1.2490   10.4660   -3.1180 C   0  0  0  0  0  0  0  0  0  0  0  0
   -0.2160   10.5250   -2.6250 C   0  0  1  0  0  0  0  0  0  0  0  0
   -1.0700   10.0580   -3.8460 C   0  0  0  0  0  0  0  0  0  0  0  0
   -0.5460    9.6980   -1.3400 C   0  0  2  0  0  0  0  0  0  0  0  0
   -0.3480    8.1780   -1.4730 C   0  0  0  0  0  0  0  0  0  0  0  0
   -1.5480    7.4170   -1.9310 C   0  0  0  0  0  0  0  0  0  0  0  0
   -2.8100    7.8840   -1.9510 C   0  0  0  0  0  0  0  0  0  0  0  0
   -3.1450    9.2720   -1.3890 C   0  0  1  0  0  0  0  0  0  0  0  0
   -4.4010    9.1750   -0.4840 C   0  0  0  0  0  0  0  0  0  0  0  0
   -5.5880    8.5320   -1.1960 C   0  0  0  0  0  0  0  0  0  0  0  0
   -5.2340    7.1310   -1.6890 C   0  0  2  0  0  0  0  0  0  0  0  0
   -5.0240    6.2830   -0.5560 O   0  0  0  0  0  0  0  0  0  0  0  0
   -3.9770    7.1020   -2.6030 C   0  0  0  0  0  0  0  0  0  0  0  0
   -4.3070    7.7660   -3.9630 C   0  0  0  0  0  0  0  0  0  0  0  0
   -3.6470    5.6170   -2.9140 C   0  0  0  0  0  0  0  0  0  0  0  0
   -1.9460   10.0440   -0.6880 C   0  0  1  0  0  0  0  0  0  0  0  0
   -1.8530    9.6310    0.8130 C   0  0  0  0  0  0  0  0  0  0  0  0
   -2.2490   11.5890   -0.7060 C   0  0  0  0  0  0  0  0  0  0  0  0
   -1.7920   12.3720   -1.9510 C   0  0  0  0  0  0  0  0  0  0  0  0
   -0.3320   12.0570   -2.2920 C   0  0  2  0  0  0  0  0  0  0  0  0
    0.5540   12.5360   -1.0910 C   0  0  0  0  0  0  0  0  0  0  0  0
    1.1571   15.7384   -4.9225 H   0  0  0  0  0  0  0  0  0  0  0  0
    1.5226   14.0767   -5.4986 H   0  0  0  0  0  0  0  0  0  0  0  0
   -0.1711   14.6751   -5.4986 H   0  0  0  0  0  0  0  0  0  0  0  0
   -0.2141   14.7403   -3.0790 H   0  0  0  0  0  0  0  0  0  0  0  0
    2.1300   13.4023   -2.2248 H   0  0  0  0  0  0  0  0  0  0  0  0
    2.6475   14.7589   -3.3367 H   0  0  0  0  0  0  0  0  0  0  0  0
    0.9364   15.0026   -0.8334 H   0  0  0  0  0  0  0  0  0  0  0  0
    2.6498   15.5477   -1.0651 H   0  0  0  0  0  0  0  0  0  0  0  0
    0.1486   16.4315   -1.8871 H   0  0  0  0  0  0  0  0  0  0  0  0
    3.0534   18.0502   -0.0557 H   0  0  0  0  0  0  0  0  0  0  0  0
    3.8565   17.1793   -1.4060 H   0  0  0  0  0  0  0  0  0  0  0  0
    3.7943   18.9746   -1.4060 H   0  0  0  0  0  0  0  0  0  0  0  0
    0.9759   19.6772   -0.9746 H   0  0  0  0  0  0  0  0  0  0  0  0
    1.8049   20.0390   -2.5266 H   0  0  0  0  0  0  0  0  0  0  0  0
    0.2552   19.1306   -2.5266 H   0  0  0  0  0  0  0  0  0  0  0  0
   -0.5488   12.7175   -4.3633 H   0  0  0  0  0  0  0  0  0  0  0  0
    1.4780   11.5660   -4.9965 H   0  0  0  0  0  0  0  0  0  0  0  0
    2.3924   12.2704   -3.6463 H   0  0  0  0  0  0  0  0  0  0  0  0
    1.4060    9.5903   -3.7649 H   0  0  0  0  0  0  0  0  0  0  0  0
    1.9648   10.3716   -2.2881 H   0  0  0  0  0  0  0  0  0  0  0  0
   -1.9820    9.5593   -3.4862 H   0  0  0  0  0  0  0  0  0  0  0  0
   -1.3457   10.9309   -4.4559 H   0  0  0  0  0  0  0  0  0  0  0  0
   -0.4839    9.3549   -4.4559 H   0  0  0  0  0  0  0  0  0  0  0  0
    0.2270   10.0390   -0.6356 H   0  0  0  0  0  0  0  0  0  0  0  0
    0.4622    8.0026   -2.1960 H   0  0  0  0  0  0  0  0  0  0  0  0
   -0.1221    7.8105   -0.4611 H   0  0  0  0  0  0  0  0  0  0  0  0
   -1.3869    6.3870   -2.2819 H   0  0  0  0  0  0  0  0  0  0  0  0
   -3.3608    9.9085   -2.2598 H   0  0  0  0  0  0  0  0  0  0  0  0
   -4.1518    8.5715    0.4012 H   0  0  0  0  0  0  0  0  0  0  0  0
   -4.6927   10.1989   -0.2073 H   0  0  0  0  0  0  0  0  0  0  0  0
   -6.4341    8.4645   -0.4964 H   0  0  0  0  0  0  0  0  0  0  0  0
   -5.8556    9.1527   -2.0638 H   0  0  0  0  0  0  0  0  0  0  0  0
   -6.0754    6.7749   -2.3016 H   0  0  0  0  0  0  0  0  0  0  0  0
   -4.2010    6.5680   -0.1230 H   0  0  0  0  0  0  0  0  0  0  0  0
   -4.7904    8.7386   -3.7885 H   0  0  0  0  0  0  0  0  0  0  0  0
   -3.3782    7.9152   -4.5332 H   0  0  0  0  0  0  0  0  0  0  0  0
   -4.9868    7.1158   -4.5332 H   0  0  0  0  0  0  0  0  0  0  0  0
   -3.5240    5.0635   -1.9714 H   0  0  0  0  0  0  0  0  0  0  0  0
   -4.4684    5.1729   -3.4955 H   0  0  0  0  0  0  0  0  0  0  0  0
   -2.7148    5.5625   -3.4955 H   0  0  0  0  0  0  0  0  0  0  0  0
   -2.0504   10.5077    1.4474 H   0  0  0  0  0  0  0  0  0  0  0  0
   -2.5977    8.8497    1.0251 H   0  0  0  0  0  0  0  0  0  0  0  0
   -0.8453    9.2443    1.0251 H   0  0  0  0  0  0  0  0  0  0  0  0
   -3.3378   11.7156   -0.6144 H   0  0  0  0  0  0  0  0  0  0  0  0
   -1.6646   12.0066    0.1271 H   0  0  0  0  0  0  0  0  0  0  0  0
   -2.4286   12.0947   -2.8041 H   0  0  0  0  0  0  0  0  0  0  0  0
   -1.8783   13.4480   -1.7396 H   0  0  0  0  0  0  0  0  0  0  0  0
    0.0622   12.2701   -0.1436 H   0  0  0  0  0  0  0  0  0  0  0  0
    1.5379   12.0469   -1.1433 H   0  0  0  0  0  0  0  0  0  0  0  0
    0.6836   13.6271   -1.1433 H   0  0  0  0  0  0  0  0  0  0  0  0
  1  2  1  0
  2  3  1  0
  3  4  1  0
  4  5  1  0
  5  6  1  0
  6  7  1  0
  7  8  1  0
  7  9  1  0
  2 10  1  0
 10 11  1  0
 11 12  1  0
 12 13  1  0
 13 14  1  6
 13 15  1  0
 15 16  1  0
 16 17  1  0
 17 18  2  0
 18 19  1  0
 19 20  1  0
 20 21  1  0
 21 22  1  0
 22 23  1  0
 22 24  1  0
 24 25  1  0
 24 26  1  0
 19 27  1  0
 27 28  1  1
 27 29  1  0
 29 30  1  0
 30 31  1  0
 31 32  1  1
  7  5  1  0
 31 10  1  0
 31 13  1  0
 27 15  1  0
 24 18  1  0
  1 33  1  0
  1 34  1  0
  1 35  1  0
  2 36  1  1
  3 37  1  0
  3 38  1  0
  4 39  1  0
  4 40  1  0
  5 41  1  6
  8 42  1  0
  8 43  1  0
  8 44  1  0
  9 45  1  0
  9 46  1  0
  9 47  1  0
 10 48  1  6
 11 49  1  0
 11 50  1  0
 12 51  1  0
 12 52  1  0
 14 53  1  0
 14 54  1  0
 14 55  1  0
 15 56  1  1
 16 57  1  0
 16 58  1  0
 17 59  1  0
 19 60  1  6
 20 61  1  0
 20 62  1  0
 21 63  1  0
 21 64  1  0
 22 65  1  6
 23 66  1  0
 25 67  1  0
 25 68  1  0
 25 69  1  0
 26 70  1  0
 26 71  1  0
 26 72  1  0
 28 73  1  0
 28 74  1  0
 28 75  1  0
 29 76  1  0
 29 77  1  0
 30 78  1  0
 30 79  1  0
 32 80  1  0
 32 81  1  0
 32 82  1  0
M  END
>  <meeko>  (18) 
{"is_sidechain": [false], "intermolecular_energy": 2.731, "internal_energy": -0.839}

$$$$
EPH_relaxed_0001_pdb2pqr_Repair_418_r2_0001_out
     RDKit          3D

 82 86  0  0  0  0  0  0  0  0999 V2000
   -2.2790    7.8270   -0.0190 C   0  0  0  0  0  0  0  0  0  0  0  0
   -2.9470    9.2050   -0.0580 C   0  0  2  0  0  0  0  0  0  0  0  0
   -4.4400    9.1160   -0.4310 C   0  0  0  0  0  0  0  0  0  0  0  0
   -4.9730    7.6820   -0.4990 C   0  0  0  0  0  0  0  0  0  0  0  0
   -5.7130    7.4260   -1.7770 C   0  0  2  0  0  0  0  0  0  0  0  0
   -6.6740    8.4320   -2.1240 O   0  0  0  0  0  0  0  0  0  0  0  0
   -7.1990    7.1250   -1.8370 C   0  0  0  0  0  0  0  0  0  0  0  0
   -8.0340    7.0640   -0.5970 C   0  0  0  0  0  0  0  0  0  0  0  0
   -7.7370    6.4140   -3.0400 C   0  0  0  0  0  0  0  0  0  0  0  0
   -2.2170   10.1090   -1.0450 C   0  0  1  0  0  0  0  0  0  0  0  0
   -2.8980   11.4940   -1.2030 C   0  0  0  0  0  0  0  0  0  0  0  0
   -1.7640   12.5280   -1.4210 C   0  0  0  0  0  0  0  0  0  0  0  0
   -0.5080   11.6740   -1.7120 C   0  0  1  0  0  0  0  0  0  0  0  0
   -0.6220   11.2930   -3.2210 C   0  0  0  0  0  0  0  0  0  0  0  0
    0.8700   12.3380   -1.3870 C   0  0  2  0  0  0  0  0  0  0  0  0
    1.1910   13.6060   -2.1970 C   0  0  0  0  0  0  0  0  0  0  0  0
    1.9210   13.3760   -3.4790 C   0  0  0  0  0  0  0  0  0  0  0  0
    2.5540   12.2400   -3.8260 C   0  0  0  0  0  0  0  0  0  0  0  0
    2.6590   11.0660   -2.8440 C   0  0  1  0  0  0  0  0  0  0  0  0
    4.1160   10.5330   -2.8290 C   0  0  0  0  0  0  0  0  0  0  0  0
    4.6230   10.1750   -4.2230 C   0  0  0  0  0  0  0  0  0  0  0  0
    4.5560   11.3830   -5.1540 C   0  0  2  0  0  0  0  0  0  0  0  0
    5.4910   12.3670   -4.6990 O   0  0  0  0  0  0  0  0  0  0  0  0
    3.1380   12.0120   -5.2420 C   0  0  0  0  0  0  0  0  0  0  0  0
    2.1920   11.0560   -6.0100 C   0  0  0  0  0  0  0  0  0  0  0  0
    3.2400   13.3020   -6.0990 C   0  0  0  0  0  0  0  0  0  0  0  0
    2.0900   11.3300   -1.3840 C   0  0  1  0  0  0  0  0  0  0  0  0
    3.1960   11.9720   -0.4910 C   0  0  0  0  0  0  0  0  0  0  0  0
    1.7260    9.9510   -0.7170 C   0  0  0  0  0  0  0  0  0  0  0  0
    0.3090    9.4060   -0.9780 C   0  0  0  0  0  0  0  0  0  0  0  0
   -0.7490   10.4820   -0.7160 C   0  0  2  0  0  0  0  0  0  0  0  0
   -0.6730   10.8690    0.8010 C   0  0  0  0  0  0  0  0  0  0  0  0
   -2.1306    7.5209    1.0271 H   0  0  0  0  0  0  0  0  0  0  0  0
   -2.9215    7.0935   -0.5280 H   0  0  0  0  0  0  0  0  0  0  0  0
   -1.3052    7.8771   -0.5280 H   0  0  0  0  0  0  0  0  0  0  0  0
   -2.8841    9.6317    0.9539 H   0  0  0  0  0  0  0  0  0  0  0  0
   -5.0201    9.6667    0.3242 H   0  0  0  0  0  0  0  0  0  0  0  0
   -4.5461    9.5465   -1.4377 H   0  0  0  0  0  0  0  0  0  0  0  0
   -4.1261    6.9833   -0.4313 H   0  0  0  0  0  0  0  0  0  0  0  0
   -5.6723    7.5359    0.3375 H   0  0  0  0  0  0  0  0  0  0  0  0
   -4.8391    6.9164   -2.2088 H   0  0  0  0  0  0  0  0  0  0  0  0
   -7.3814    7.1117    0.2872 H   0  0  0  0  0  0  0  0  0  0  0  0
   -8.7327    7.9135   -0.5833 H   0  0  0  0  0  0  0  0  0  0  0  0
   -8.6018    6.1220   -0.5833 H   0  0  0  0  0  0  0  0  0  0  0  0
   -8.3715    5.5755   -2.7170 H   0  0  0  0  0  0  0  0  0  0  0  0
   -8.3336    7.1141   -3.6433 H   0  0  0  0  0  0  0  0  0  0  0  0
   -6.9012    6.0302   -3.6433 H   0  0  0  0  0  0  0  0  0  0  0  0
   -2.2517    9.4706   -1.9402 H   0  0  0  0  0  0  0  0  0  0  0  0
   -3.5753   11.4863   -2.0697 H   0  0  0  0  0  0  0  0  0  0  0  0
   -3.4949   11.7443   -0.3136 H   0  0  0  0  0  0  0  0  0  0  0  0
   -1.9944   13.1830   -2.2742 H   0  0  0  0  0  0  0  0  0  0  0  0
   -1.6278   13.1873   -0.5511 H   0  0  0  0  0  0  0  0  0  0  0  0
   -0.9363   10.2427   -3.3113 H   0  0  0  0  0  0  0  0  0  0  0  0
   -1.3655   11.9413   -3.7077 H   0  0  0  0  0  0  0  0  0  0  0  0
    0.3554   11.4264   -3.7077 H   0  0  0  0  0  0  0  0  0  0  0  0
    0.7306   12.6744   -0.3490 H   0  0  0  0  0  0  0  0  0  0  0  0
    0.2412   14.1087   -2.4321 H   0  0  0  0  0  0  0  0  0  0  0  0
    1.8635   14.2072   -1.5675 H   0  0  0  0  0  0  0  0  0  0  0  0
    1.9434   14.2054   -4.2012 H   0  0  0  0  0  0  0  0  0  0  0  0
    1.9809   10.2884   -3.2255 H   0  0  0  0  0  0  0  0  0  0  0  0
    4.7706   11.3082   -2.4041 H   0  0  0  0  0  0  0  0  0  0  0  0
    4.1292    9.6150   -2.2232 H   0  0  0  0  0  0  0  0  0  0  0  0
    5.6662    9.8339   -4.1502 H   0  0  0  0  0  0  0  0  0  0  0  0
    3.9860    9.3783   -4.6347 H   0  0  0  0  0  0  0  0  0  0  0  0
    4.8066   11.0333   -6.1664 H   0  0  0  0  0  0  0  0  0  0  0  0
    6.0060   11.9720   -3.9750 H   0  0  0  0  0  0  0  0  0  0  0  0
    1.6063   10.4641   -5.2912 H   0  0  0  0  0  0  0  0  0  0  0  0
    1.5105   11.6442   -6.6421 H   0  0  0  0  0  0  0  0  0  0  0  0
    2.7873   10.3807   -6.6421 H   0  0  0  0  0  0  0  0  0  0  0  0
    3.3092   14.1776   -5.4368 H   0  0  0  0  0  0  0  0  0  0  0  0
    4.1369   13.2505   -6.7338 H   0  0  0  0  0  0  0  0  0  0  0  0
    2.3462   13.3921   -6.7338 H   0  0  0  0  0  0  0  0  0  0  0  0
    2.9425   11.8248    0.5692 H   0  0  0  0  0  0  0  0  0  0  0  0
    4.1636   11.4952   -0.7062 H   0  0  0  0  0  0  0  0  0  0  0  0
    3.2619   13.0487   -0.7062 H   0  0  0  0  0  0  0  0  0  0  0  0
    2.4434    9.2032   -1.0859 H   0  0  0  0  0  0  0  0  0  0  0  0
    1.7686   10.1352    0.3666 H   0  0  0  0  0  0  0  0  0  0  0  0
    0.2369    9.0779   -2.0255 H   0  0  0  0  0  0  0  0  0  0  0  0
    0.1269    8.5618   -0.2967 H   0  0  0  0  0  0  0  0  0  0  0  0
   -0.8486    9.9746    1.4168 H   0  0  0  0  0  0  0  0  0  0  0  0
    0.3228   11.2789    1.0254 H   0  0  0  0  0  0  0  0  0  0  0  0
   -1.4398   11.6251    1.0254 H   0  0  0  0  0  0  0  0  0  0  0  0
  1  2  1  0
  2  3  1  0
  3  4  1  0
  4  5  1  0
  5  6  1  0
  6  7  1  0
  7  8  1  0
  7  9  1  0
  2 10  1  0
 10 11  1  0
 11 12  1  0
 12 13  1  0
 13 14  1  6
 13 15  1  0
 15 16  1  0
 16 17  1  0
 17 18  2  0
 18 19  1  0
 19 20  1  0
 20 21  1  0
 21 22  1  0
 22 23  1  0
 22 24  1  0
 24 25  1  0
 24 26  1  0
 19 27  1  0
 27 28  1  1
 27 29  1  0
 29 30  1  0
 30 31  1  0
 31 32  1  1
  7  5  1  0
 31 10  1  0
 31 13  1  0
 27 15  1  0
 24 18  1  0
  1 33  1  0
  1 34  1  0
  1 35  1  0
  2 36  1  1
  3 37  1  0
  3 38  1  0
  4 39  1  0
  4 40  1  0
  5 41  1  6
  8 42  1  0
  8 43  1  0
  8 44  1  0
  9 45  1  0
  9 46  1  0
  9 47  1  0
 10 48  1  6
 11 49  1  0
 11 50  1  0
 12 51  1  0
 12 52  1  0
 14 53  1  0
 14 54  1  0
 14 55  1  0
 15 56  1  1
 16 57  1  0
 16 58  1  0
 17 59  1  0
 19 60  1  6
 20 61  1  0
 20 62  1  0
 21 63  1  0
 21 64  1  0
 22 65  1  6
 23 66  1  0
 25 67  1  0
 25 68  1  0
 25 69  1  0
 26 70  1  0
 26 71  1  0
 26 72  1  0
 28 73  1  0
 28 74  1  0
 28 75  1  0
 29 76  1  0
 29 77  1  0
 30 78  1  0
 30 79  1  0
 32 80  1  0
 32 81  1  0
 32 82  1  0
M  END
>  <meeko>  (19) 
{"is_sidechain": [false], "intermolecular_energy": 2.731, "internal_energy": -0.839}

$$$$
