EPH_relaxed_0001_pdb2pqr_Repair_95_r2_0001_out
     RDKit          3D

 82 86  0  0  0  0  0  0  0  0999 V2000
    4.1960   17.5630   -0.5790 C   0  0  0  0  0  0  0  0  0  0  0  0
    2.8350   18.1290   -0.1620 C   0  0  2  0  0  0  0  0  0  0  0  0
    2.8890   18.8130    1.2190 C   0  0  0  0  0  0  0  0  0  0  0  0
    4.2610   18.7270    1.8950 C   0  0  0  0  0  0  0  0  0  0  0  0
    4.2210   19.2560    3.2970 C   0  0  2  0  0  0  0  0  0  0  0  0
    5.2580   20.1940    3.6120 O   0  0  0  0  0  0  0  0  0  0  0  0
    5.2860   18.9530    4.3350 C   0  0  0  0  0  0  0  0  0  0  0  0
    6.4650   18.0890    4.0150 C   0  0  0  0  0  0  0  0  0  0  0  0
    4.9330   19.0910    5.7830 C   0  0  0  0  0  0  0  0  0  0  0  0
    1.7910   17.0190   -0.1530 C   0  0  1  0  0  0  0  0  0  0  0  0
    0.3640   17.5380   -0.4700 C   0  0  0  0  0  0  0  0  0  0  0  0
   -0.3510   16.4220   -1.2740 C   0  0  0  0  0  0  0  0  0  0  0  0
    0.5570   15.1800   -1.1080 C   0  0  1  0  0  0  0  0  0  0  0  0
    0.1800   14.5910    0.2870 C   0  0  0  0  0  0  0  0  0  0  0  0
    0.4640   14.1010   -2.2350 C   0  0  2  0  0  0  0  0  0  0  0  0
   -0.9140   13.4320   -2.3860 C   0  0  0  0  0  0  0  0  0  0  0  0
   -1.1150   12.1960   -1.5730 C   0  0  0  0  0  0  0  0  0  0  0  0
   -0.1400   11.4850   -0.9770 C   0  0  0  0  0  0  0  0  0  0  0  0
    1.3360   11.8540   -1.1730 C   0  0  1  0  0  0  0  0  0  0  0  0
    2.1530   10.5720   -1.4840 C   0  0  0  0  0  0  0  0  0  0  0  0
    1.9580    9.4840   -0.4330 C   0  0  0  0  0  0  0  0  0  0  0  0
    0.4840    9.1030   -0.3090 C   0  0  2  0  0  0  0  0  0  0  0  0
    0.0670    8.4740   -1.5240 O   0  0  0  0  0  0  0  0  0  0  0  0
   -0.4380   10.3170   -0.0050 C   0  0  0  0  0  0  0  0  0  0  0  0
   -0.1880   10.8120    1.4410 C   0  0  0  0  0  0  0  0  0  0  0  0
   -1.9090    9.8200   -0.0460 C   0  0  0  0  0  0  0  0  0  0  0  0
    1.6270   13.0280   -2.2030 C   0  0  1  0  0  0  0  0  0  0  0  0
    1.7410   12.4520   -3.6480 C   0  0  0  0  0  0  0  0  0  0  0  0
    3.0250   13.6710   -1.8690 C   0  0  0  0  0  0  0  0  0  0  0  0
    3.0350   14.8140   -0.8360 C   0  0  0  0  0  0  0  0  0  0  0  0
    1.9710   15.8640   -1.1700 C   0  0  2  0  0  0  0  0  0  0  0  0
    2.3370   16.4910   -2.5590 C   0  0  0  0  0  0  0  0  0  0  0  0
    4.7824   17.3191    0.3191 H   0  0  0  0  0  0  0  0  0  0  0  0
    4.0466   16.6524   -1.1778 H   0  0  0  0  0  0  0  0  0  0  0  0
    4.7363   18.3110   -1.1778 H   0  0  0  0  0  0  0  0  0  0  0  0
    2.5556   18.8959   -0.8995 H   0  0  0  0  0  0  0  0  0  0  0  0
    2.6307   19.8746    1.0912 H   0  0  0  0  0  0  0  0  0  0  0  0
    2.1766   18.2832    1.8685 H   0  0  0  0  0  0  0  0  0  0  0  0
    4.5812   17.6749    1.9197 H   0  0  0  0  0  0  0  0  0  0  0  0
    4.9679   19.3400    1.3166 H   0  0  0  0  0  0  0  0  0  0  0  0
    3.1240   19.1790    3.3209 H   0  0  0  0  0  0  0  0  0  0  0  0
    6.9328   17.7462    4.9497 H   0  0  0  0  0  0  0  0  0  0  0  0
    6.1336   17.2184    3.4300 H   0  0  0  0  0  0  0  0  0  0  0  0
    7.1954   18.6673    3.4300 H   0  0  0  0  0  0  0  0  0  0  0  0
    5.7810   18.7595    6.4003 H   0  0  0  0  0  0  0  0  0  0  0  0
    4.7063   20.1440    6.0064 H   0  0  0  0  0  0  0  0  0  0  0  0
    4.0523   18.4710    6.0064 H   0  0  0  0  0  0  0  0  0  0  0  0
    1.9313   16.6436    0.8714 H   0  0  0  0  0  0  0  0  0  0  0  0
   -0.1812   17.7405    0.4636 H   0  0  0  0  0  0  0  0  0  0  0  0
    0.4038   18.4748   -1.0452 H   0  0  0  0  0  0  0  0  0  0  0  0
   -1.3530   16.2284   -0.8634 H   0  0  0  0  0  0  0  0  0  0  0  0
   -0.4959   16.6953   -2.3296 H   0  0  0  0  0  0  0  0  0  0  0  0
    0.5912   15.2335    1.0796 H   0  0  0  0  0  0  0  0  0  0  0  0
   -0.9149   14.5464    0.3824 H   0  0  0  0  0  0  0  0  0  0  0  0
    0.5980   13.5780    0.3824 H   0  0  0  0  0  0  0  0  0  0  0  0
    0.6071   14.6996   -3.1467 H   0  0  0  0  0  0  0  0  0  0  0  0
   -1.6809   14.1626   -2.0892 H   0  0  0  0  0  0  0  0  0  0  0  0
   -0.9871   13.1196   -3.4382 H   0  0  0  0  0  0  0  0  0  0  0  0
   -2.1472   11.8360   -1.4508 H   0  0  0  0  0  0  0  0  0  0  0  0
    1.6701   12.2877   -0.2189 H   0  0  0  0  0  0  0  0  0  0  0  0
    1.8346   10.1794   -2.4610 H   0  0  0  0  0  0  0  0  0  0  0  0
    3.2180   10.8473   -1.4855 H   0  0  0  0  0  0  0  0  0  0  0  0
    2.5365    8.5947   -0.7238 H   0  0  0  0  0  0  0  0  0  0  0  0
    2.3045    9.8676    0.5380 H   0  0  0  0  0  0  0  0  0  0  0  0
    0.3907    8.4165    0.5454 H   0  0  0  0  0  0  0  0  0  0  0  0
    0.3940    9.0150   -2.2630 H   0  0  0  0  0  0  0  0  0  0  0  0
   -0.5653   10.0649    2.1547 H   0  0  0  0  0  0  0  0  0  0  0  0
    0.8912   10.9565    1.5977 H   0  0  0  0  0  0  0  0  0  0  0  0
   -0.7122   11.7663    1.5977 H   0  0  0  0  0  0  0  0  0  0  0  0
   -2.2822    9.6939    0.9811 H   0  0  0  0  0  0  0  0  0  0  0  0
   -2.5308   10.5579   -0.5740 H   0  0  0  0  0  0  0  0  0  0  0  0
   -1.9558    8.8562   -0.5740 H   0  0  0  0  0  0  0  0  0  0  0  0
    1.9543   11.3741   -3.5973 H   0  0  0  0  0  0  0  0  0  0  0  0
    0.7935   12.6135   -4.1829 H   0  0  0  0  0  0  0  0  0  0  0  0
    2.5556   12.9622   -4.1829 H   0  0  0  0  0  0  0  0  0  0  0  0
    3.6763   12.8712   -1.4867 H   0  0  0  0  0  0  0  0  0  0  0  0
    3.3626   14.1303   -2.8097 H   0  0  0  0  0  0  0  0  0  0  0  0
    2.8302   14.3990    0.1619 H   0  0  0  0  0  0  0  0  0  0  0  0
    4.0231   15.2969   -0.8568 H   0  0  0  0  0  0  0  0  0  0  0  0
    2.8860   17.4315   -2.4035 H   0  0  0  0  0  0  0  0  0  0  0  0
    2.9666   15.7880   -3.1242 H   0  0  0  0  0  0  0  0  0  0  0  0
    1.4153   16.6936   -3.1242 H   0  0  0  0  0  0  0  0  0  0  0  0
  1  2  1  0
  2  3  1  0
  3  4  1  0
  4  5  1  0
  5  6  1  0
  6  7  1  0
  7  8  1  0
  7  9  1  0
  2 10  1  0
 10 11  1  0
 11 12  1  0
 12 13  1  0
 13 14  1  1
 13 15  1  0
 15 16  1  0
 16 17  1  0
 17 18  2  0
 18 19  1  0
 19 20  1  0
 20 21  1  0
 21 22  1  0
 22 23  1  0
 22 24  1  0
 24 25  1  0
 24 26  1  0
 19 27  1  0
 27 28  1  6
 27 29  1  0
 29 30  1  0
 30 31  1  0
 31 32  1  6
  7  5  1  0
 31 10  1  0
 31 13  1  0
 27 15  1  0
 24 18  1  0
  1 33  1  0
  1 34  1  0
  1 35  1  0
  2 36  1  6
  3 37  1  0
  3 38  1  0
  4 39  1  0
  4 40  1  0
  5 41  1  1
  8 42  1  0
  8 43  1  0
  8 44  1  0
  9 45  1  0
  9 46  1  0
  9 47  1  0
 10 48  1  1
 11 49  1  0
 11 50  1  0
 12 51  1  0
 12 52  1  0
 14 53  1  0
 14 54  1  0
 14 55  1  0
 15 56  1  6
 16 57  1  0
 16 58  1  0
 17 59  1  0
 19 60  1  1
 20 61  1  0
 20 62  1  0
 21 63  1  0
 21 64  1  0
 22 65  1  1
 23 66  1  0
 25 67  1  0
 25 68  1  0
 25 69  1  0
 26 70  1  0
 26 71  1  0
 26 72  1  0
 28 73  1  0
 28 74  1  0
 28 75  1  0
 29 76  1  0
 29 77  1  0
 30 78  1  0
 30 79  1  0
 32 80  1  0
 32 81  1  0
 32 82  1  0
M  END
>  <meeko>  (1) 
{"is_sidechain": [false], "intermolecular_energy": 2.731, "internal_energy": -0.839}

$$$$
EPH_relaxed_0001_pdb2pqr_Repair_95_r2_0001_out
     RDKit          3D

 82 86  0  0  0  0  0  0  0  0999 V2000
    2.3210   18.0640   -2.7590 C   0  0  0  0  0  0  0  0  0  0  0  0
    1.0510   17.6690   -2.0000 C   0  0  2  0  0  0  0  0  0  0  0  0
    1.2460   17.7270   -0.4720 C   0  0  0  0  0  0  0  0  0  0  0  0
    0.8810   19.0810    0.1440 C   0  0  0  0  0  0  0  0  0  0  0  0
   -0.5770   19.1620    0.4820 C   0  0  2  0  0  0  0  0  0  0  0  0
   -1.4170   18.2860   -0.2810 O   0  0  0  0  0  0  0  0  0  0  0  0
   -1.6290   19.6940   -0.4740 C   0  0  0  0  0  0  0  0  0  0  0  0
   -1.2650   20.1830   -1.8410 C   0  0  0  0  0  0  0  0  0  0  0  0
   -2.9220   20.1920    0.0920 C   0  0  0  0  0  0  0  0  0  0  0  0
    0.6110   16.2700   -2.4160 C   0  0  1  0  0  0  0  0  0  0  0  0
    0.7030   16.0460   -3.9490 C   0  0  0  0  0  0  0  0  0  0  0  0
    1.1130   14.5660   -4.1600 C   0  0  0  0  0  0  0  0  0  0  0  0
    0.9200   13.9060   -2.7750 C   0  0  1  0  0  0  0  0  0  0  0  0
   -0.6080   13.6010   -2.6850 C   0  0  0  0  0  0  0  0  0  0  0  0
    1.7800   12.6310   -2.4910 C   0  0  2  0  0  0  0  0  0  0  0  0
    1.5030   11.4370   -3.4200 C   0  0  0  0  0  0  0  0  0  0  0  0
    0.4520   10.4890   -2.9450 C   0  0  0  0  0  0  0  0  0  0  0  0
   -0.0410   10.4320   -1.6940 C   0  0  0  0  0  0  0  0  0  0  0  0
    0.5340   11.3160   -0.5790 C   0  0  1  0  0  0  0  0  0  0  0  0
    0.7710   10.4580    0.6910 C   0  0  0  0  0  0  0  0  0  0  0  0
   -0.4800    9.7040    1.1310 C   0  0  0  0  0  0  0  0  0  0  0  0
   -0.9880    8.7930    0.0170 C   0  0  2  0  0  0  0  0  0  0  0  0
   -0.0300    7.7530   -0.2000 O   0  0  0  0  0  0  0  0  0  0  0  0
   -1.2540    9.5450   -1.3170 C   0  0  0  0  0  0  0  0  0  0  0  0
   -2.4940   10.4590   -1.1610 C   0  0  0  0  0  0  0  0  0  0  0  0
   -1.6240    8.4910   -2.3940 C   0  0  0  0  0  0  0  0  0  0  0  0
    1.8020   12.1890   -0.9720 C   0  0  1  0  0  0  0  0  0  0  0  0
    3.1050   11.3570   -0.7690 C   0  0  0  0  0  0  0  0  0  0  0  0
    1.9030   13.4180    0.0080 C   0  0  0  0  0  0  0  0  0  0  0  0
    1.1260   14.6880   -0.3890 C   0  0  0  0  0  0  0  0  0  0  0  0
    1.4110   15.0730   -1.8440 C   0  0  2  0  0  0  0  0  0  0  0  0
    2.9370   15.4070   -1.9600 C   0  0  0  0  0  0  0  0  0  0  0  0
    3.1159   18.3112   -2.0400 H   0  0  0  0  0  0  0  0  0  0  0  0
    2.6464   17.2246   -3.3911 H   0  0  0  0  0  0  0  0  0  0  0  0
    2.1129   18.9399   -3.3911 H   0  0  0  0  0  0  0  0  0  0  0  0
    0.2695   18.3978   -2.2609 H   0  0  0  0  0  0  0  0  0  0  0  0
    0.6132   16.9540   -0.0115 H   0  0  0  0  0  0  0  0  0  0  0  0
    2.3163   17.5634   -0.2779 H   0  0  0  0  0  0  0  0  0  0  0  0
    1.4684   19.2244    1.0629 H   0  0  0  0  0  0  0  0  0  0  0  0
    1.1057   19.8650   -0.5942 H   0  0  0  0  0  0  0  0  0  0  0  0
   -0.3455   19.3998    1.5307 H   0  0  0  0  0  0  0  0  0  0  0  0
   -0.6103   21.0626   -1.7535 H   0  0  0  0  0  0  0  0  0  0  0  0
   -0.7382   19.3866   -2.3871 H   0  0  0  0  0  0  0  0  0  0  0  0
   -2.1791   20.4592   -2.3871 H   0  0  0  0  0  0  0  0  0  0  0  0
   -2.8728   20.1730    1.1907 H   0  0  0  0  0  0  0  0  0  0  0  0
   -3.0989   21.2226   -0.2494 H   0  0  0  0  0  0  0  0  0  0  0  0
   -3.7446   19.5463   -0.2494 H   0  0  0  0  0  0  0  0  0  0  0  0
   -0.4104   16.2691   -2.0076 H   0  0  0  0  0  0  0  0  0  0  0  0
   -0.2722   16.2398   -4.4195 H   0  0  0  0  0  0  0  0  0  0  0  0
    1.4358   16.7281   -4.4049 H   0  0  0  0  0  0  0  0  0  0  0  0
    0.4675   14.0877   -4.9114 H   0  0  0  0  0  0  0  0  0  0  0  0
    2.1447   14.4676   -4.5286 H   0  0  0  0  0  0  0  0  0  0  0  0
   -0.9083   13.5411   -1.6285 H   0  0  0  0  0  0  0  0  0  0  0  0
   -1.1721   14.4043   -3.1815 H   0  0  0  0  0  0  0  0  0  0  0  0
   -0.8205   12.6427   -3.1815 H   0  0  0  0  0  0  0  0  0  0  0  0
    2.7960   12.9722   -2.7385 H   0  0  0  0  0  0  0  0  0  0  0  0
    1.1875   11.8325   -4.3967 H   0  0  0  0  0  0  0  0  0  0  0  0
    2.4382   10.8592   -3.4595 H   0  0  0  0  0  0  0  0  0  0  0  0
    0.0465    9.7773   -3.6792 H   0  0  0  0  0  0  0  0  0  0  0  0
   -0.2278   12.0826   -0.3741 H   0  0  0  0  0  0  0  0  0  0  0  0
    1.5663    9.7281    0.4797 H   0  0  0  0  0  0  0  0  0  0  0  0
    1.0530   11.1404    1.5064 H   0  0  0  0  0  0  0  0  0  0  0  0
   -0.2404    9.0935    2.0141 H   0  0  0  0  0  0  0  0  0  0  0  0
   -1.2650   10.4363    1.3710 H   0  0  0  0  0  0  0  0  0  0  0  0
   -1.9548    8.3816    0.3426 H   0  0  0  0  0  0  0  0  0  0  0  0
    0.7790    8.1650   -0.5480 H   0  0  0  0  0  0  0  0  0  0  0  0
   -2.7035   10.6134   -0.0922 H   0  0  0  0  0  0  0  0  0  0  0  0
   -2.2968   11.4294   -1.6400 H   0  0  0  0  0  0  0  0  0  0  0  0
   -3.3626    9.9835   -1.6400 H   0  0  0  0  0  0  0  0  0  0  0  0
   -1.9499    7.5627   -1.9019 H   0  0  0  0  0  0  0  0  0  0  0  0
   -2.4397    8.8790   -3.0218 H   0  0  0  0  0  0  0  0  0  0  0  0
   -0.7448    8.2840   -3.0218 H   0  0  0  0  0  0  0  0  0  0  0  0
    3.2976   11.2340    0.3070 H   0  0  0  0  0  0  0  0  0  0  0  0
    2.9850   10.3680   -1.2354 H   0  0  0  0  0  0  0  0  0  0  0  0
    3.9517   11.8820   -1.2354 H   0  0  0  0  0  0  0  0  0  0  0  0
    1.5292   13.0924    0.9900 H   0  0  0  0  0  0  0  0  0  0  0  0
    2.9628   13.7122   -0.0070 H   0  0  0  0  0  0  0  0  0  0  0  0
    0.0483   14.5022   -0.2704 H   0  0  0  0  0  0  0  0  0  0  0  0
    1.4483   15.5141    0.2619 H   0  0  0  0  0  0  0  0  0  0  0  0
    3.3692   15.5016   -0.9529 H   0  0  0  0  0  0  0  0  0  0  0  0
    3.4487   14.5996   -2.5043 H   0  0  0  0  0  0  0  0  0  0  0  0
    3.0647   16.3543   -2.5043 H   0  0  0  0  0  0  0  0  0  0  0  0
  1  2  1  0
  2  3  1  0
  3  4  1  0
  4  5  1  0
  5  6  1  0
  6  7  1  0
  7  8  1  0
  7  9  1  0
  2 10  1  0
 10 11  1  0
 11 12  1  0
 12 13  1  0
 13 14  1  1
 13 15  1  0
 15 16  1  0
 16 17  1  0
 17 18  2  0
 18 19  1  0
 19 20  1  0
 20 21  1  0
 21 22  1  0
 22 23  1  0
 22 24  1  0
 24 25  1  0
 24 26  1  0
 19 27  1  0
 27 28  1  6
 27 29  1  0
 29 30  1  0
 30 31  1  0
 31 32  1  1
  7  5  1  0
 31 10  1  0
 31 13  1  0
 27 15  1  0
 24 18  1  0
  1 33  1  0
  1 34  1  0
  1 35  1  0
  2 36  1  1
  3 37  1  0
  3 38  1  0
  4 39  1  0
  4 40  1  0
  5 41  1  1
  8 42  1  0
  8 43  1  0
  8 44  1  0
  9 45  1  0
  9 46  1  0
  9 47  1  0
 10 48  1  1
 11 49  1  0
 11 50  1  0
 12 51  1  0
 12 52  1  0
 14 53  1  0
 14 54  1  0
 14 55  1  0
 15 56  1  6
 16 57  1  0
 16 58  1  0
 17 59  1  0
 19 60  1  1
 20 61  1  0
 20 62  1  0
 21 63  1  0
 21 64  1  0
 22 65  1  1
 23 66  1  0
 25 67  1  0
 25 68  1  0
 25 69  1  0
 26 70  1  0
 26 71  1  0
 26 72  1  0
 28 73  1  0
 28 74  1  0
 28 75  1  0
 29 76  1  0
 29 77  1  0
 30 78  1  0
 30 79  1  0
 32 80  1  0
 32 81  1  0
 32 82  1  0
M  END
>  <meeko>  (2) 
{"is_sidechain": [false], "intermolecular_energy": 2.731, "internal_energy": -0.839}

$$$$
EPH_relaxed_0001_pdb2pqr_Repair_95_r2_0001_out
     RDKit          3D

 82 86  0  0  0  0  0  0  0  0999 V2000
    2.0990   18.0710   -2.5820 C   0  0  0  0  0  0  0  0  0  0  0  0
    0.5790   17.8920   -2.6380 C   0  0  2  0  0  0  0  0  0  0  0  0
   -0.1080   18.3500   -1.3360 C   0  0  0  0  0  0  0  0  0  0  0  0
    0.6400   17.9350   -0.0660 C   0  0  0  0  0  0  0  0  0  0  0  0
    1.1890   19.1210    0.6670 C   0  0  2  0  0  0  0  0  0  0  0  0
    2.0850   19.9360   -0.1000 O   0  0  0  0  0  0  0  0  0  0  0  0
    2.6520   19.2700    1.0400 C   0  0  0  0  0  0  0  0  0  0  0  0
    3.6570   18.2170    0.6920 C   0  0  0  0  0  0  0  0  0  0  0  0
    3.0140   20.1940    2.1600 C   0  0  0  0  0  0  0  0  0  0  0  0
    0.2370   16.4350   -2.9230 C   0  0  1  0  0  0  0  0  0  0  0  0
    0.3200   16.0860   -4.4330 C   0  0  0  0  0  0  0  0  0  0  0  0
    0.8350   14.6260   -4.5270 C   0  0  0  0  0  0  0  0  0  0  0  0
    0.7150   14.0770   -3.0860 C   0  0  1  0  0  0  0  0  0  0  0  0
   -0.7850   13.6710   -2.9350 C   0  0  0  0  0  0  0  0  0  0  0  0
    1.6720   12.8970   -2.7150 C   0  0  2  0  0  0  0  0  0  0  0  0
    1.4690   11.6100   -3.5320 C   0  0  0  0  0  0  0  0  0  0  0  0
    0.4990   10.6340   -2.9540 C   0  0  0  0  0  0  0  0  0  0  0  0
    0.0330   10.6490   -1.6910 C   0  0  0  0  0  0  0  0  0  0  0  0
    0.5590   11.6660   -0.6690 C   0  0  1  0  0  0  0  0  0  0  0  0
    0.8810   10.9410    0.6640 C   0  0  0  0  0  0  0  0  0  0  0  0
   -0.3040   10.1390    1.1950 C   0  0  0  0  0  0  0  0  0  0  0  0
   -0.7610    9.1000    0.1740 C   0  0  2  0  0  0  0  0  0  0  0  0
    0.2680    8.1170    0.0250 O   0  0  0  0  0  0  0  0  0  0  0  0
   -1.1040    9.7130   -1.2120 C   0  0  0  0  0  0  0  0  0  0  0  0
   -2.4060   10.5450   -1.1060 C   0  0  0  0  0  0  0  0  0  0  0  0
   -1.4140    8.5450   -2.1870 C   0  0  0  0  0  0  0  0  0  0  0  0
    1.7520   12.5910   -1.1640 C   0  0  1  0  0  0  0  0  0  0  0  0
    3.1160   11.8770   -0.9210 C   0  0  0  0  0  0  0  0  0  0  0  0
    1.7780   13.9050   -0.2960 C   0  0  0  0  0  0  0  0  0  0  0  0
    0.9030   15.0760   -0.7810 C   0  0  0  0  0  0  0  0  0  0  0  0
    1.1340   15.3530   -2.2700 C   0  0  2  0  0  0  0  0  0  0  0  0
    2.6290   15.7850   -2.4490 C   0  0  0  0  0  0  0  0  0  0  0  0
    2.4252   18.1094   -1.5322 H   0  0  0  0  0  0  0  0  0  0  0  0
    2.5868   17.2241   -3.0868 H   0  0  0  0  0  0  0  0  0  0  0  0
    2.3767   19.0081   -3.0868 H   0  0  0  0  0  0  0  0  0  0  0  0
    0.2009   18.5281   -3.4519 H   0  0  0  0  0  0  0  0  0  0  0  0
   -0.1843   19.4472   -1.3511 H   0  0  0  0  0  0  0  0  0  0  0  0
   -1.0928   17.8610   -1.3032 H   0  0  0  0  0  0  0  0  0  0  0  0
   -0.0538   17.3965    0.5964 H   0  0  0  0  0  0  0  0  0  0  0  0
    1.4836   17.2929   -0.3595 H   0  0  0  0  0  0  0  0  0  0  0  0
    0.2644   19.2154    1.2554 H   0  0  0  0  0  0  0  0  0  0  0  0
    4.0697   17.7846    1.6154 H   0  0  0  0  0  0  0  0  0  0  0  0
    3.1703   17.4261    0.1024 H   0  0  0  0  0  0  0  0  0  0  0  0
    4.4697   18.6663    0.1024 H   0  0  0  0  0  0  0  0  0  0  0  0
    2.8196   19.6977    3.1222 H   0  0  0  0  0  0  0  0  0  0  0  0
    4.0805   20.4542    2.0905 H   0  0  0  0  0  0  0  0  0  0  0  0
    2.4080   21.1094    2.0905 H   0  0  0  0  0  0  0  0  0  0  0  0
   -0.7746   16.3957   -2.4927 H   0  0  0  0  0  0  0  0  0  0  0  0
   -0.6746   16.1674   -4.8959 H   0  0  0  0  0  0  0  0  0  0  0  0
    0.9929   16.7771   -4.9618 H   0  0  0  0  0  0  0  0  0  0  0  0
    0.2138   14.0388   -5.2193 H   0  0  0  0  0  0  0  0  0  0  0  0
    1.8645   14.5705   -4.9104 H   0  0  0  0  0  0  0  0  0  0  0  0
   -1.0405   13.6019   -1.8673 H   0  0  0  0  0  0  0  0  0  0  0  0
   -1.4203   14.4295   -3.4157 H   0  0  0  0  0  0  0  0  0  0  0  0
   -0.9510   12.6956   -3.4157 H   0  0  0  0  0  0  0  0  0  0  0  0
    2.6555   13.2880   -3.0148 H   0  0  0  0  0  0  0  0  0  0  0  0
    1.1093   11.8952   -4.5316 H   0  0  0  0  0  0  0  0  0  0  0  0
    2.4435   11.1000   -3.5433 H   0  0  0  0  0  0  0  0  0  0  0  0
    0.1340    9.8348   -3.6159 H   0  0  0  0  0  0  0  0  0  0  0  0
   -0.2546   12.3897   -0.5129 H   0  0  0  0  0  0  0  0  0  0  0  0
    1.7247   10.2552    0.4975 H   0  0  0  0  0  0  0  0  0  0  0  0
    1.1257   11.7099    1.4116 H   0  0  0  0  0  0  0  0  0  0  0  0
   -0.0056    9.6264    2.1214 H   0  0  0  0  0  0  0  0  0  0  0  0
   -1.1371   10.8305    1.3893 H   0  0  0  0  0  0  0  0  0  0  0  0
   -1.6890    8.6486    0.5548 H   0  0  0  0  0  0  0  0  0  0  0  0
    0.1300    7.6750   -0.8300 H   0  0  0  0  0  0  0  0  0  0  0  0
   -2.6544   10.7038   -0.0462 H   0  0  0  0  0  0  0  0  0  0  0  0
   -2.2605   11.5179   -1.5982 H   0  0  0  0  0  0  0  0  0  0  0  0
   -3.2278   10.0043   -1.5982 H   0  0  0  0  0  0  0  0  0  0  0  0
   -1.6543    7.6398   -1.6101 H   0  0  0  0  0  0  0  0  0  0  0  0
   -2.2718    8.8143   -2.8208 H   0  0  0  0  0  0  0  0  0  0  0  0
   -0.5356    8.3535   -2.8208 H   0  0  0  0  0  0  0  0  0  0  0  0
    3.2936   11.7840    0.1606 H   0  0  0  0  0  0  0  0  0  0  0  0
    3.0920   10.8758   -1.3760 H   0  0  0  0  0  0  0  0  0  0  0  0
    3.9250   12.4673   -1.3760 H   0  0  0  0  0  0  0  0  0  0  0  0
    1.4463   13.6399    0.7187 H   0  0  0  0  0  0  0  0  0  0  0  0
    2.8126   14.2727   -0.3620 H   0  0  0  0  0  0  0  0  0  0  0  0
   -0.1559   14.8240   -0.6219 H   0  0  0  0  0  0  0  0  0  0  0  0
    1.1744   15.9765   -0.2105 H   0  0  0  0  0  0  0  0  0  0  0  0
    3.0928   15.9190   -1.4606 H   0  0  0  0  0  0  0  0  0  0  0  0
    3.1714   15.0068   -3.0060 H   0  0  0  0  0  0  0  0  0  0  0  0
    2.6727   16.7325   -3.0060 H   0  0  0  0  0  0  0  0  0  0  0  0
  1  2  1  0
  2  3  1  0
  3  4  1  0
  4  5  1  0
  5  6  1  0
  6  7  1  0
  7  8  1  0
  7  9  1  0
  2 10  1  0
 10 11  1  0
 11 12  1  0
 12 13  1  0
 13 14  1  1
 13 15  1  0
 15 16  1  0
 16 17  1  0
 17 18  2  0
 18 19  1  0
 19 20  1  0
 20 21  1  0
 21 22  1  0
 22 23  1  0
 22 24  1  0
 24 25  1  0
 24 26  1  0
 19 27  1  0
 27 28  1  6
 27 29  1  0
 29 30  1  0
 30 31  1  0
 31 32  1  1
  7  5  1  0
 31 10  1  0
 31 13  1  0
 27 15  1  0
 24 18  1  0
  1 33  1  0
  1 34  1  0
  1 35  1  0
  2 36  1  6
  3 37  1  0
  3 38  1  0
  4 39  1  0
  4 40  1  0
  5 41  1  1
  8 42  1  0
  8 43  1  0
  8 44  1  0
  9 45  1  0
  9 46  1  0
  9 47  1  0
 10 48  1  1
 11 49  1  0
 11 50  1  0
 12 51  1  0
 12 52  1  0
 14 53  1  0
 14 54  1  0
 14 55  1  0
 15 56  1  6
 16 57  1  0
 16 58  1  0
 17 59  1  0
 19 60  1  1
 20 61  1  0
 20 62  1  0
 21 63  1  0
 21 64  1  0
 22 65  1  1
 23 66  1  0
 25 67  1  0
 25 68  1  0
 25 69  1  0
 26 70  1  0
 26 71  1  0
 26 72  1  0
 28 73  1  0
 28 74  1  0
 28 75  1  0
 29 76  1  0
 29 77  1  0
 30 78  1  0
 30 79  1  0
 32 80  1  0
 32 81  1  0
 32 82  1  0
M  END
>  <meeko>  (3) 
{"is_sidechain": [false], "intermolecular_energy": 2.731, "internal_energy": -0.839}

$$$$
EPH_relaxed_0001_pdb2pqr_Repair_95_r2_0001_out
     RDKit          3D

 82 86  0  0  0  0  0  0  0  0999 V2000
    0.4050   18.4390   -0.0710 C   0  0  0  0  0  0  0  0  0  0  0  0
    1.4860   17.3700   -0.2570 C   0  0  2  0  0  0  0  0  0  0  0  0
    2.7160   17.9140   -1.0110 C   0  0  0  0  0  0  0  0  0  0  0  0
    3.9480   18.1050   -0.1220 C   0  0  0  0  0  0  0  0  0  0  0  0
    3.5740   18.5820    1.2490 C   0  0  2  0  0  0  0  0  0  0  0  0
    3.8070   19.9770    1.4810 O   0  0  0  0  0  0  0  0  0  0  0  0
    4.5860   19.0650    2.2710 C   0  0  0  0  0  0  0  0  0  0  0  0
    6.0510   19.0930    1.9670 C   0  0  0  0  0  0  0  0  0  0  0  0
    4.2050   19.0450    3.7190 C   0  0  0  0  0  0  0  0  0  0  0  0
    0.9090   16.1710   -0.9990 C   0  0  1  0  0  0  0  0  0  0  0  0
    0.7710   16.4220   -2.5250 C   0  0  0  0  0  0  0  0  0  0  0  0
    1.0570   15.0700   -3.2280 C   0  0  0  0  0  0  0  0  0  0  0  0
    1.0210   14.0230   -2.0910 C   0  0  1  0  0  0  0  0  0  0  0  0
   -0.4940   13.7280   -1.8640 C   0  0  0  0  0  0  0  0  0  0  0  0
    1.8350   12.7110   -2.3340 C   0  0  2  0  0  0  0  0  0  0  0  0
    1.3590   11.8590   -3.5240 C   0  0  0  0  0  0  0  0  0  0  0  0
    0.3290   10.8280   -3.1990 C   0  0  0  0  0  0  0  0  0  0  0  0
    0.0150   10.4000   -1.9620 C   0  0  0  0  0  0  0  0  0  0  0  0
    0.7930   10.8940   -0.7360 C   0  0  1  0  0  0  0  0  0  0  0  0
    1.1540    9.6870    0.1690 C   0  0  0  0  0  0  0  0  0  0  0  0
   -0.0660    8.8550    0.5490 C   0  0  0  0  0  0  0  0  0  0  0  0
   -0.7790    8.3320   -0.6950 C   0  0  2  0  0  0  0  0  0  0  0  0
    0.0750    7.3930   -1.3560 O   0  0  0  0  0  0  0  0  0  0  0  0
   -1.1840    9.4590   -1.6870 C   0  0  0  0  0  0  0  0  0  0  0  0
   -2.3330   10.3000   -1.0790 C   0  0  0  0  0  0  0  0  0  0  0  0
   -1.7650    8.7870   -2.9610 C   0  0  0  0  0  0  0  0  0  0  0  0
    2.0430   11.8270   -1.0380 C   0  0  1  0  0  0  0  0  0  0  0  0
    3.3090   10.9530   -1.2930 C   0  0  0  0  0  0  0  0  0  0  0  0
    2.3550   12.6980    0.2360 C   0  0  0  0  0  0  0  0  0  0  0  0
    1.6080   14.0400    0.3600 C   0  0  0  0  0  0  0  0  0  0  0  0
    1.7080   14.8450   -0.9390 C   0  0  2  0  0  0  0  0  0  0  0  0
    3.2200   15.1760   -1.1820 C   0  0  0  0  0  0  0  0  0  0  0  0
    0.2358   18.6064    1.0029 H   0  0  0  0  0  0  0  0  0  0  0  0
    0.7330   19.3778   -0.5412 H   0  0  0  0  0  0  0  0  0  0  0  0
   -0.5301   18.1006   -0.5412 H   0  0  0  0  0  0  0  0  0  0  0  0
    1.8219   17.0611    0.7439 H   0  0  0  0  0  0  0  0  0  0  0  0
    2.9728   17.2062   -1.8129 H   0  0  0  0  0  0  0  0  0  0  0  0
    2.4424   18.9064   -1.3988 H   0  0  0  0  0  0  0  0  0  0  0  0
    4.4760   17.1441   -0.0334 H   0  0  0  0  0  0  0  0  0  0  0  0
    4.5912   18.8670   -0.5865 H   0  0  0  0  0  0  0  0  0  0  0  0
    2.7584   17.8463    1.3088 H   0  0  0  0  0  0  0  0  0  0  0  0
    6.6206   19.1039    2.9080 H   0  0  0  0  0  0  0  0  0  0  0  0
    6.3218   18.1999    1.3848 H   0  0  0  0  0  0  0  0  0  0  0  0
    6.2875   19.9958    1.3848 H   0  0  0  0  0  0  0  0  0  0  0  0
    5.1132   19.0927    4.3378 H   0  0  0  0  0  0  0  0  0  0  0  0
    3.5639   19.9107    3.9414 H   0  0  0  0  0  0  0  0  0  0  0  0
    3.6580   18.1169    3.9414 H   0  0  0  0  0  0  0  0  0  0  0  0
   -0.0430   16.0614   -0.4589 H   0  0  0  0  0  0  0  0  0  0  0  0
   -0.2471   16.7644   -2.7621 H   0  0  0  0  0  0  0  0  0  0  0  0
    1.4726   17.1991   -2.8626 H   0  0  0  0  0  0  0  0  0  0  0  0
    0.2846   14.8527   -3.9804 H   0  0  0  0  0  0  0  0  0  0  0  0
    2.0189   15.0729   -3.7616 H   0  0  0  0  0  0  0  0  0  0  0  0
   -0.7020   13.6875   -0.7846 H   0  0  0  0  0  0  0  0  0  0  0  0
   -1.0958   14.5258   -2.3237 H   0  0  0  0  0  0  0  0  0  0  0  0
   -0.7525   12.7627   -2.3237 H   0  0  0  0  0  0  0  0  0  0  0  0
    2.8247   13.0974   -2.6190 H   0  0  0  0  0  0  0  0  0  0  0  0
    0.9347   12.5370   -4.2792 H   0  0  0  0  0  0  0  0  0  0  0  0
    2.2427   11.3060   -3.8750 H   0  0  0  0  0  0  0  0  0  0  0  0
   -0.2193   10.3806   -4.0412 H   0  0  0  0  0  0  0  0  0  0  0  0
    0.1148   11.5731   -0.1985 H   0  0  0  0  0  0  0  0  0  0  0  0
    1.8659    9.0436   -0.3688 H   0  0  0  0  0  0  0  0  0  0  0  0
    1.5891   10.0847    1.0977 H   0  0  0  0  0  0  0  0  0  0  0  0
    0.2573    8.0021    1.1639 H   0  0  0  0  0  0  0  0  0  0  0  0
   -0.7640    9.4923    1.1117 H   0  0  0  0  0  0  0  0  0  0  0  0
   -1.7128    7.8540   -0.3641 H   0  0  0  0  0  0  0  0  0  0  0  0
   -0.4930    6.7660   -1.8350 H   0  0  0  0  0  0  0  0  0  0  0  0
   -2.2765   10.2586    0.0188 H   0  0  0  0  0  0  0  0  0  0  0  0
   -2.2390   11.3442   -1.4119 H   0  0  0  0  0  0  0  0  0  0  0  0
   -3.2999    9.8947   -1.4119 H   0  0  0  0  0  0  0  0  0  0  0  0
   -2.4585    7.9848   -2.6686 H   0  0  0  0  0  0  0  0  0  0  0  0
   -2.3034    9.5375   -3.5584 H   0  0  0  0  0  0  0  0  0  0  0  0
   -0.9446    8.3627   -3.5584 H   0  0  0  0  0  0  0  0  0  0  0  0
    3.7462   10.6511   -0.3298 H   0  0  0  0  0  0  0  0  0  0  0  0
    3.0266   10.0565   -1.8645 H   0  0  0  0  0  0  0  0  0  0  0  0
    4.0472   11.5348   -1.8645 H   0  0  0  0  0  0  0  0  0  0  0  0
    2.1046   12.0947    1.1211 H   0  0  0  0  0  0  0  0  0  0  0  0
    3.4178   12.9673    0.1474 H   0  0  0  0  0  0  0  0  0  0  0  0
    0.5485   13.8431    0.5806 H   0  0  0  0  0  0  0  0  0  0  0  0
    2.0680   14.6239    1.1708 H   0  0  0  0  0  0  0  0  0  0  0  0
    3.7310   15.2879   -0.2143 H   0  0  0  0  0  0  0  0  0  0  0  0
    3.6874   14.3589   -1.7511 H   0  0  0  0  0  0  0  0  0  0  0  0
    3.3032   16.1136   -1.7511 H   0  0  0  0  0  0  0  0  0  0  0  0
  1  2  1  0
  2  3  1  0
  3  4  1  0
  4  5  1  0
  5  6  1  0
  6  7  1  0
  7  8  1  0
  7  9  1  0
  2 10  1  0
 10 11  1  0
 11 12  1  0
 12 13  1  0
 13 14  1  1
 13 15  1  0
 15 16  1  0
 16 17  1  0
 17 18  2  0
 18 19  1  0
 19 20  1  0
 20 21  1  0
 21 22  1  0
 22 23  1  0
 22 24  1  0
 24 25  1  0
 24 26  1  0
 19 27  1  0
 27 28  1  6
 27 29  1  0
 29 30  1  0
 30 31  1  0
 31 32  1  6
  7  5  1  0
 31 10  1  0
 31 13  1  0
 27 15  1  0
 24 18  1  0
  1 33  1  0
  1 34  1  0
  1 35  1  0
  2 36  1  1
  3 37  1  0
  3 38  1  0
  4 39  1  0
  4 40  1  0
  5 41  1  1
  8 42  1  0
  8 43  1  0
  8 44  1  0
  9 45  1  0
  9 46  1  0
  9 47  1  0
 10 48  1  1
 11 49  1  0
 11 50  1  0
 12 51  1  0
 12 52  1  0
 14 53  1  0
 14 54  1  0
 14 55  1  0
 15 56  1  6
 16 57  1  0
 16 58  1  0
 17 59  1  0
 19 60  1  1
 20 61  1  0
 20 62  1  0
 21 63  1  0
 21 64  1  0
 22 65  1  1
 23 66  1  0
 25 67  1  0
 25 68  1  0
 25 69  1  0
 26 70  1  0
 26 71  1  0
 26 72  1  0
 28 73  1  0
 28 74  1  0
 28 75  1  0
 29 76  1  0
 29 77  1  0
 30 78  1  0
 30 79  1  0
 32 80  1  0
 32 81  1  0
 32 82  1  0
M  END
>  <meeko>  (4) 
{"is_sidechain": [false], "intermolecular_energy": 2.731, "internal_energy": -0.839}

$$$$
EPH_relaxed_0001_pdb2pqr_Repair_95_r2_0001_out
     RDKit          3D

 82 86  0  0  0  0  0  0  0  0999 V2000
   -3.3620    9.3090    0.6140 C   0  0  0  0  0  0  0  0  0  0  0  0
   -2.6110    9.7610   -0.6420 C   0  0  2  0  0  0  0  0  0  0  0  0
   -1.9570    8.5790   -1.3850 C   0  0  0  0  0  0  0  0  0  0  0  0
   -2.7830    8.0610   -2.5650 C   0  0  0  0  0  0  0  0  0  0  0  0
   -3.2300    6.6470   -2.3510 C   0  0  2  0  0  0  0  0  0  0  0  0
   -3.0100    5.7740   -3.4660 O   0  0  0  0  0  0  0  0  0  0  0  0
   -4.3810    6.0090   -3.1070 C   0  0  0  0  0  0  0  0  0  0  0  0
   -5.1570    6.7710   -4.1340 C   0  0  0  0  0  0  0  0  0  0  0  0
   -5.0590    4.8180   -2.5050 C   0  0  0  0  0  0  0  0  0  0  0  0
   -1.5530   10.7940   -0.2710 C   0  0  1  0  0  0  0  0  0  0  0  0
   -0.4660   10.2210    0.6770 C   0  0  0  0  0  0  0  0  0  0  0  0
    0.8710   10.9050    0.2910 C   0  0  0  0  0  0  0  0  0  0  0  0
    0.4570   12.0780   -0.6280 C   0  0  1  0  0  0  0  0  0  0  0  0
    0.0110   13.2130    0.3460 C   0  0  0  0  0  0  0  0  0  0  0  0
    1.5390   12.5780   -1.6400 C   0  0  2  0  0  0  0  0  0  0  0  0
    2.8160   13.1500   -1.0010 C   0  0  0  0  0  0  0  0  0  0  0  0
    2.7920   14.6180   -0.7330 C   0  0  0  0  0  0  0  0  0  0  0  0
    1.9100   15.4930   -1.2500 C   0  0  0  0  0  0  0  0  0  0  0  0
    0.8640   15.0430   -2.2780 C   0  0  1  0  0  0  0  0  0  0  0  0
    0.8290   16.0520   -3.4560 C   0  0  0  0  0  0  0  0  0  0  0  0
    0.6090   17.4880   -2.9910 C   0  0  0  0  0  0  0  0  0  0  0  0
    1.7010   17.9180   -2.0150 C   0  0  2  0  0  0  0  0  0  0  0  0
    2.9470   17.9800   -2.7150 O   0  0  0  0  0  0  0  0  0  0  0  0
    1.8360   16.9700   -0.7900 C   0  0  0  0  0  0  0  0  0  0  0  0
    0.6030   17.1320    0.1320 C   0  0  0  0  0  0  0  0  0  0  0  0
    3.0630   17.4360    0.0400 C   0  0  0  0  0  0  0  0  0  0  0  0
    0.9780   13.5360   -2.7680 C   0  0  1  0  0  0  0  0  0  0  0  0
    1.9700   13.4400   -3.9680 C   0  0  0  0  0  0  0  0  0  0  0  0
   -0.4230   13.0640   -3.3120 C   0  0  0  0  0  0  0  0  0  0  0  0
   -1.4030   12.4700   -2.2820 C   0  0  0  0  0  0  0  0  0  0  0  0
   -0.7170   11.4010   -1.4260 C   0  0  2  0  0  0  0  0  0  0  0  0
   -0.2770   10.2360   -2.3760 C   0  0  0  0  0  0  0  0  0  0  0  0
   -2.8131    9.6394    1.5082 H   0  0  0  0  0  0  0  0  0  0  0  0
   -4.3693    9.7510    0.6179 H   0  0  0  0  0  0  0  0  0  0  0  0
   -3.4430    8.2120    0.6179 H   0  0  0  0  0  0  0  0  0  0  0  0
   -3.3473   10.2115   -1.3239 H   0  0  0  0  0  0  0  0  0  0  0  0
   -0.9775    8.9062   -1.7638 H   0  0  0  0  0  0  0  0  0  0  0  0
   -1.8735    7.7526   -0.6638 H   0  0  0  0  0  0  0  0  0  0  0  0
   -3.6697    8.7004   -2.6873 H   0  0  0  0  0  0  0  0  0  0  0  0
   -2.1501    8.0879   -3.4643 H   0  0  0  0  0  0  0  0  0  0  0  0
   -2.9981    6.7119   -1.2777 H   0  0  0  0  0  0  0  0  0  0  0  0
   -5.8553    7.4567   -3.6317 H   0  0  0  0  0  0  0  0  0  0  0  0
   -4.4639    7.3492   -4.7628 H   0  0  0  0  0  0  0  0  0  0  0  0
   -5.7225    6.0675   -4.7628 H   0  0  0  0  0  0  0  0  0  0  0  0
   -5.0187    4.8887   -1.4080 H   0  0  0  0  0  0  0  0  0  0  0  0
   -6.1088    4.7893   -2.8323 H   0  0  0  0  0  0  0  0  0  0  0  0
   -4.5477    3.9007   -2.8323 H   0  0  0  0  0  0  0  0  0  0  0  0
   -2.1968   11.5666    0.1746 H   0  0  0  0  0  0  0  0  0  0  0  0
   -0.7188   10.4471    1.7234 H   0  0  0  0  0  0  0  0  0  0  0  0
   -0.3929    9.1279    0.5785 H   0  0  0  0  0  0  0  0  0  0  0  0
    1.3895   11.2776    1.1867 H   0  0  0  0  0  0  0  0  0  0  0  0
    1.5667   10.2119   -0.2045 H   0  0  0  0  0  0  0  0  0  0  0  0
    0.1429   12.8773    1.3852 H   0  0  0  0  0  0  0  0  0  0  0  0
    0.6238   14.1093    0.1697 H   0  0  0  0  0  0  0  0  0  0  0  0
   -1.0481   13.4524    0.1697 H   0  0  0  0  0  0  0  0  0  0  0  0
    1.8458   11.6455   -2.1363 H   0  0  0  0  0  0  0  0  0  0  0  0
    2.9785   12.6324   -0.0441 H   0  0  0  0  0  0  0  0  0  0  0  0
    3.6215   12.9872   -1.7322 H   0  0  0  0  0  0  0  0  0  0  0  0
    3.5604   15.0187   -0.0555 H   0  0  0  0  0  0  0  0  0  0  0  0
   -0.1023   15.0494   -1.7524 H   0  0  0  0  0  0  0  0  0  0  0  0
    1.7868   15.9987   -3.9943 H   0  0  0  0  0  0  0  0  0  0  0  0
   -0.0162   15.7783   -4.1046 H   0  0  0  0  0  0  0  0  0  0  0  0
    0.6238   18.1558   -3.8650 H   0  0  0  0  0  0  0  0  0  0  0  0
   -0.3628   17.5466   -2.4790 H   0  0  0  0  0  0  0  0  0  0  0  0
    1.4190   18.9045   -1.6185 H   0  0  0  0  0  0  0  0  0  0  0  0
    3.1020   17.1090   -3.1170 H   0  0  0  0  0  0  0  0  0  0  0  0
    0.9234   17.0899    1.1835 H   0  0  0  0  0  0  0  0  0  0  0  0
    0.1218   18.1011   -0.0662 H   0  0  0  0  0  0  0  0  0  0  0  0
   -0.1122   16.3201   -0.0662 H   0  0  0  0  0  0  0  0  0  0  0  0
    2.8345   17.3492    1.1125 H   0  0  0  0  0  0  0  0  0  0  0  0
    3.9307   16.8048   -0.2023 H   0  0  0  0  0  0  0  0  0  0  0  0
    3.2929   18.4841   -0.2023 H   0  0  0  0  0  0  0  0  0  0  0  0
    2.9973   13.3406   -3.5875 H   0  0  0  0  0  0  0  0  0  0  0  0
    1.7196   12.5619   -4.5814 H   0  0  0  0  0  0  0  0  0  0  0  0
    1.8926   14.3498   -4.5814 H   0  0  0  0  0  0  0  0  0  0  0  0
   -0.9118   13.9350   -3.7729 H   0  0  0  0  0  0  0  0  0  0  0  0
   -0.2001   12.2403   -4.0061 H   0  0  0  0  0  0  0  0  0  0  0  0
   -1.7689   13.2749   -1.6276 H   0  0  0  0  0  0  0  0  0  0  0  0
   -2.2396   12.0031   -2.8224 H   0  0  0  0  0  0  0  0  0  0  0  0
    0.0482    9.3748   -1.7738 H   0  0  0  0  0  0  0  0  0  0  0  0
   -1.1253    9.9402   -3.0107 H   0  0  0  0  0  0  0  0  0  0  0  0
    0.5551   10.5748   -3.0107 H   0  0  0  0  0  0  0  0  0  0  0  0
  1  2  1  0
  2  3  1  0
  3  4  1  0
  4  5  1  0
  5  6  1  0
  6  7  1  0
  7  8  1  0
  7  9  1  0
  2 10  1  0
 10 11  1  0
 11 12  1  0
 12 13  1  0
 13 14  1  1
 13 15  1  0
 15 16  1  0
 16 17  1  0
 17 18  2  0
 18 19  1  0
 19 20  1  0
 20 21  1  0
 21 22  1  0
 22 23  1  0
 22 24  1  0
 24 25  1  0
 24 26  1  0
 19 27  1  0
 27 28  1  6
 27 29  1  0
 29 30  1  0
 30 31  1  0
 31 32  1  6
  7  5  1  0
 31 10  1  0
 31 13  1  0
 27 15  1  0
 24 18  1  0
  1 33  1  0
  1 34  1  0
  1 35  1  0
  2 36  1  6
  3 37  1  0
  3 38  1  0
  4 39  1  0
  4 40  1  0
  5 41  1  1
  8 42  1  0
  8 43  1  0
  8 44  1  0
  9 45  1  0
  9 46  1  0
  9 47  1  0
 10 48  1  1
 11 49  1  0
 11 50  1  0
 12 51  1  0
 12 52  1  0
 14 53  1  0
 14 54  1  0
 14 55  1  0
 15 56  1  6
 16 57  1  0
 16 58  1  0
 17 59  1  0
 19 60  1  1
 20 61  1  0
 20 62  1  0
 21 63  1  0
 21 64  1  0
 22 65  1  1
 23 66  1  0
 25 67  1  0
 25 68  1  0
 25 69  1  0
 26 70  1  0
 26 71  1  0
 26 72  1  0
 28 73  1  0
 28 74  1  0
 28 75  1  0
 29 76  1  0
 29 77  1  0
 30 78  1  0
 30 79  1  0
 32 80  1  0
 32 81  1  0
 32 82  1  0
M  END
>  <meeko>  (5) 
{"is_sidechain": [false], "intermolecular_energy": 2.731, "internal_energy": -0.839}

$$$$
EPH_relaxed_0001_pdb2pqr_Repair_95_r2_0001_out
     RDKit          3D

 82 86  0  0  0  0  0  0  0  0999 V2000
    3.8350   17.3330    0.4940 C   0  0  0  0  0  0  0  0  0  0  0  0
    2.8160   17.6910   -0.5920 C   0  0  2  0  0  0  0  0  0  0  0  0
    2.1950   19.0840   -0.3700 C   0  0  0  0  0  0  0  0  0  0  0  0
    1.1740   19.1280    0.7710 C   0  0  0  0  0  0  0  0  0  0  0  0
   -0.0170   19.9660    0.4170 C   0  0  2  0  0  0  0  0  0  0  0  0
   -0.9310   20.1940    1.4970 O   0  0  0  0  0  0  0  0  0  0  0  0
   -1.4370   19.4320    0.3890 C   0  0  0  0  0  0  0  0  0  0  0  0
   -1.7400   18.0040    0.7210 C   0  0  0  0  0  0  0  0  0  0  0  0
   -2.4600   20.1600   -0.4260 C   0  0  0  0  0  0  0  0  0  0  0  0
    1.7200   16.6330   -0.6450 C   0  0  1  0  0  0  0  0  0  0  0  0
    0.4160   17.1570   -1.3030 C   0  0  0  0  0  0  0  0  0  0  0  0
   -0.2030   15.9670   -2.0800 C   0  0  0  0  0  0  0  0  0  0  0  0
    0.5740   14.7270   -1.5770 C   0  0  1  0  0  0  0  0  0  0  0  0
   -0.1000   14.3550   -0.2190 C   0  0  0  0  0  0  0  0  0  0  0  0
    0.6270   13.5040   -2.5490 C   0  0  2  0  0  0  0  0  0  0  0  0
   -0.7370   12.8740   -2.8810 C   0  0  0  0  0  0  0  0  0  0  0  0
   -1.1690   11.7730   -1.9700 C   0  0  0  0  0  0  0  0  0  0  0  0
   -0.3740   11.1170   -1.1050 C   0  0  0  0  0  0  0  0  0  0  0  0
    1.1330   11.3970   -1.0510 C   0  0  1  0  0  0  0  0  0  0  0  0
    1.9100   10.0550   -1.0250 C   0  0  0  0  0  0  0  0  0  0  0  0
    1.4470    9.1330    0.1000 C   0  0  0  0  0  0  0  0  0  0  0  0
   -0.0440    8.8310   -0.0210 C   0  0  2  0  0  0  0  0  0  0  0  0
   -0.2620    8.0530   -1.2020 O   0  0  0  0  0  0  0  0  0  0  0  0
   -0.9270   10.1090   -0.0670 C   0  0  0  0  0  0  0  0  0  0  0  0
   -0.9250   10.7930    1.3230 C   0  0  0  0  0  0  0  0  0  0  0  0
   -2.3920    9.6680   -0.3320 C   0  0  0  0  0  0  0  0  0  0  0  0
    1.6910   12.4030   -2.1480 C   0  0  1  0  0  0  0  0  0  0  0  0
    2.0410   11.6260   -3.4540 C   0  0  0  0  0  0  0  0  0  0  0  0
    3.0380   13.0330   -1.6310 C   0  0  0  0  0  0  0  0  0  0  0  0
    2.9250   14.3080   -0.7750 C   0  0  0  0  0  0  0  0  0  0  0  0
    2.0150   15.3410   -1.4460 C   0  0  2  0  0  0  0  0  0  0  0  0
    2.6790   15.7510   -2.8050 C   0  0  0  0  0  0  0  0  0  0  0  0
    3.3852   17.4910    1.4853 H   0  0  0  0  0  0  0  0  0  0  0  0
    4.1281   16.2781    0.3883 H   0  0  0  0  0  0  0  0  0  0  0  0
    4.7235   17.9728    0.3883 H   0  0  0  0  0  0  0  0  0  0  0  0
    3.3519   17.7192   -1.5522 H   0  0  0  0  0  0  0  0  0  0  0  0
    3.0044   19.7923   -0.1393 H   0  0  0  0  0  0  0  0  0  0  0  0
    1.6574   19.3472   -1.2929 H   0  0  0  0  0  0  0  0  0  0  0  0
    0.8373   18.1035    0.9878 H   0  0  0  0  0  0  0  0  0  0  0  0
    1.6605   19.5772    1.6494 H   0  0  0  0  0  0  0  0  0  0  0  0
    0.5721   20.5347   -0.3176 H   0  0  0  0  0  0  0  0  0  0  0  0
   -1.7665   17.8792    1.8136 H   0  0  0  0  0  0  0  0  0  0  0  0
   -2.7167   17.7282    0.2967 H   0  0  0  0  0  0  0  0  0  0  0  0
   -0.9595   17.3553    0.2967 H   0  0  0  0  0  0  0  0  0  0  0  0
   -3.1706   20.6657    0.2443 H   0  0  0  0  0  0  0  0  0  0  0  0
   -1.9598   20.9064   -1.0606 H   0  0  0  0  0  0  0  0  0  0  0  0
   -3.0013   19.4429   -1.0606 H   0  0  0  0  0  0  0  0  0  0  0  0
    1.6382   16.3996    0.4268 H   0  0  0  0  0  0  0  0  0  0  0  0
   -0.2830   17.5093   -0.5302 H   0  0  0  0  0  0  0  0  0  0  0  0
    0.6252   18.0017   -1.9759 H   0  0  0  0  0  0  0  0  0  0  0  0
   -1.2753   15.8714   -1.8543 H   0  0  0  0  0  0  0  0  0  0  0  0
   -0.1255   16.0944   -3.1698 H   0  0  0  0  0  0  0  0  0  0  0  0
    0.5316   14.7036    0.6114 H   0  0  0  0  0  0  0  0  0  0  0  0
   -1.0873   14.8360   -0.1557 H   0  0  0  0  0  0  0  0  0  0  0  0
   -0.2193   13.2633   -0.1557 H   0  0  0  0  0  0  0  0  0  0  0  0
    0.9792   13.9620   -3.4851 H   0  0  0  0  0  0  0  0  0  0  0  0
   -1.4973   13.6678   -2.8393 H   0  0  0  0  0  0  0  0  0  0  0  0
   -0.6285   12.4201   -3.8771 H   0  0  0  0  0  0  0  0  0  0  0  0
   -2.2265   11.4727   -2.0092 H   0  0  0  0  0  0  0  0  0  0  0  0
    1.3057   11.9460   -0.1136 H   0  0  0  0  0  0  0  0  0  0  0  0
    1.7596    9.5417   -1.9862 H   0  0  0  0  0  0  0  0  0  0  0  0
    2.9713   10.2866   -0.8518 H   0  0  0  0  0  0  0  0  0  0  0  0
    2.0107    8.1899    0.0475 H   0  0  0  0  0  0  0  0  0  0  0  0
    1.6265    9.6354    1.0620 H   0  0  0  0  0  0  0  0  0  0  0  0
   -0.3423    8.2767    0.8811 H   0  0  0  0  0  0  0  0  0  0  0  0
   -1.1810    7.7360   -1.1800 H   0  0  0  0  0  0  0  0  0  0  0  0
   -0.9272   10.0244    2.1099 H   0  0  0  0  0  0  0  0  0  0  0  0
   -0.0250   11.4175    1.4230 H   0  0  0  0  0  0  0  0  0  0  0  0
   -1.8213   11.4228    1.4230 H   0  0  0  0  0  0  0  0  0  0  0  0
   -2.9074    9.5128    0.6273 H   0  0  0  0  0  0  0  0  0  0  0  0
   -2.9121   10.4494   -0.9055 H   0  0  0  0  0  0  0  0  0  0  0  0
   -2.3943    8.7293   -0.9055 H   0  0  0  0  0  0  0  0  0  0  0  0
    2.4800   10.6514   -3.1943 H   0  0  0  0  0  0  0  0  0  0  0  0
    1.1260   11.4704   -4.0444 H   0  0  0  0  0  0  0  0  0  0  0  0
    2.7638   12.2081   -4.0444 H   0  0  0  0  0  0  0  0  0  0  0  0
    3.5513   12.2708   -1.0264 H   0  0  0  0  0  0  0  0  0  0  0  0
    3.5777   13.3425   -2.5382 H   0  0  0  0  0  0  0  0  0  0  0  0
    2.5072   14.0453    0.2081 H   0  0  0  0  0  0  0  0  0  0  0  0
    3.9283   14.7450   -0.6632 H   0  0  0  0  0  0  0  0  0  0  0  0
    3.5996   16.3194   -2.6065 H   0  0  0  0  0  0  0  0  0  0  0  0
    2.9236   14.8465   -3.3812 H   0  0  0  0  0  0  0  0  0  0  0  0
    1.9799   16.3749   -3.3812 H   0  0  0  0  0  0  0  0  0  0  0  0
  1  2  1  0
  2  3  1  0
  3  4  1  0
  4  5  1  0
  5  6  1  0
  6  7  1  0
  7  8  1  0
  7  9  1  0
  2 10  1  0
 10 11  1  0
 11 12  1  0
 12 13  1  0
 13 14  1  1
 13 15  1  0
 15 16  1  0
 16 17  1  0
 17 18  2  0
 18 19  1  0
 19 20  1  0
 20 21  1  0
 21 22  1  0
 22 23  1  0
 22 24  1  0
 24 25  1  0
 24 26  1  0
 19 27  1  0
 27 28  1  6
 27 29  1  0
 29 30  1  0
 30 31  1  0
 31 32  1  6
  7  5  1  0
 31 10  1  0
 31 13  1  0
 27 15  1  0
 24 18  1  0
  1 33  1  0
  1 34  1  0
  1 35  1  0
  2 36  1  6
  3 37  1  0
  3 38  1  0
  4 39  1  0
  4 40  1  0
  5 41  1  6
  8 42  1  0
  8 43  1  0
  8 44  1  0
  9 45  1  0
  9 46  1  0
  9 47  1  0
 10 48  1  1
 11 49  1  0
 11 50  1  0
 12 51  1  0
 12 52  1  0
 14 53  1  0
 14 54  1  0
 14 55  1  0
 15 56  1  6
 16 57  1  0
 16 58  1  0
 17 59  1  0
 19 60  1  1
 20 61  1  0
 20 62  1  0
 21 63  1  0
 21 64  1  0
 22 65  1  1
 23 66  1  0
 25 67  1  0
 25 68  1  0
 25 69  1  0
 26 70  1  0
 26 71  1  0
 26 72  1  0
 28 73  1  0
 28 74  1  0
 28 75  1  0
 29 76  1  0
 29 77  1  0
 30 78  1  0
 30 79  1  0
 32 80  1  0
 32 81  1  0
 32 82  1  0
M  END
>  <meeko>  (6) 
{"is_sidechain": [false], "intermolecular_energy": 2.731, "internal_energy": -0.839}

$$$$
EPH_relaxed_0001_pdb2pqr_Repair_95_r2_0001_out
     RDKit          3D

 82 86  0  0  0  0  0  0  0  0999 V2000
   -0.1380   10.4490   -3.7550 C   0  0  0  0  0  0  0  0  0  0  0  0
    0.9880   10.2600   -2.7350 C   0  0  2  0  0  0  0  0  0  0  0  0
    0.8080    8.9750   -1.9030 C   0  0  0  0  0  0  0  0  0  0  0  0
    0.2500    9.2240   -0.4990 C   0  0  0  0  0  0  0  0  0  0  0  0
   -1.1790    8.7880   -0.3840 C   0  0  2  0  0  0  0  0  0  0  0  0
   -1.9290    8.8690   -1.6030 O   0  0  0  0  0  0  0  0  0  0  0  0
   -2.3570    9.7320   -0.5370 C   0  0  0  0  0  0  0  0  0  0  0  0
   -2.1580   11.1890   -0.8160 C   0  0  0  0  0  0  0  0  0  0  0  0
   -3.6700    9.3410    0.0650 C   0  0  0  0  0  0  0  0  0  0  0  0
    1.0640   11.4710   -1.8140 C   0  0  1  0  0  0  0  0  0  0  0  0
    2.1390   11.3130   -0.7060 C   0  0  0  0  0  0  0  0  0  0  0  0
    2.7390   12.7210   -0.4600 C   0  0  0  0  0  0  0  0  0  0  0  0
    1.7730   13.6880   -1.1840 C   0  0  1  0  0  0  0  0  0  0  0  0
    0.5840   13.8840   -0.1920 C   0  0  0  0  0  0  0  0  0  0  0  0
    2.3780   15.0570   -1.6380 C   0  0  2  0  0  0  0  0  0  0  0  0
    2.8850   15.9570   -0.4970 C   0  0  0  0  0  0  0  0  0  0  0  0
    1.8780   16.9060    0.0620 C   0  0  0  0  0  0  0  0  0  0  0  0
    0.7080   17.2350   -0.5160 C   0  0  0  0  0  0  0  0  0  0  0  0
    0.3400   16.7050   -1.9080 C   0  0  1  0  0  0  0  0  0  0  0  0
   -0.2040   17.8690   -2.7780 C   0  0  0  0  0  0  0  0  0  0  0  0
   -1.3600   18.6070   -2.1110 C   0  0  0  0  0  0  0  0  0  0  0  0
   -0.9390   19.1690   -0.7560 C   0  0  2  0  0  0  0  0  0  0  0  0
    0.0370   20.1940   -0.9650 O   0  0  0  0  0  0  0  0  0  0  0  0
   -0.3650   18.0890    0.2040 C   0  0  0  0  0  0  0  0  0  0  0  0
   -1.5030   17.1480    0.6690 C   0  0  0  0  0  0  0  0  0  0  0  0
    0.1520   18.8090    1.4780 C   0  0  0  0  0  0  0  0  0  0  0  0
    1.4670   15.8640   -2.6490 C   0  0  1  0  0  0  0  0  0  0  0  0
    2.4150   16.8210   -3.4360 C   0  0  0  0  0  0  0  0  0  0  0  0
    0.7900   14.9300   -3.7210 C   0  0  0  0  0  0  0  0  0  0  0  0
    0.3220   13.5440   -3.2380 C   0  0  0  0  0  0  0  0  0  0  0  0
    1.4300   12.8320   -2.4570 C   0  0  2  0  0  0  0  0  0  0  0  0
    2.6320   12.6020   -3.4350 C   0  0  0  0  0  0  0  0  0  0  0  0
   -1.0891   10.6086   -3.2259 H   0  0  0  0  0  0  0  0  0  0  0  0
    0.0817   11.3228   -4.3860 H   0  0  0  0  0  0  0  0  0  0  0  0
   -0.2156    9.5513   -4.3860 H   0  0  0  0  0  0  0  0  0  0  0  0
    1.9291   10.1606   -3.2958 H   0  0  0  0  0  0  0  0  0  0  0  0
    0.1159    8.3086   -2.4386 H   0  0  0  0  0  0  0  0  0  0  0  0
    1.8064    8.5304   -1.7780 H   0  0  0  0  0  0  0  0  0  0  0  0
    0.8536    8.6622    0.2291 H   0  0  0  0  0  0  0  0  0  0  0  0
    0.2954   10.3047   -0.2992 H   0  0  0  0  0  0  0  0  0  0  0  0
   -0.9175    8.0549    0.3932 H   0  0  0  0  0  0  0  0  0  0  0  0
   -2.0831   11.7375    0.1346 H   0  0  0  0  0  0  0  0  0  0  0  0
   -1.2324   11.3286   -1.3938 H   0  0  0  0  0  0  0  0  0  0  0  0
   -3.0122   11.5717   -1.3938 H   0  0  0  0  0  0  0  0  0  0  0  0
   -3.5919    9.3643    1.1620 H   0  0  0  0  0  0  0  0  0  0  0  0
   -4.4480   10.0464   -0.2622 H   0  0  0  0  0  0  0  0  0  0  0  0
   -3.9353    8.3249   -0.2622 H   0  0  0  0  0  0  0  0  0  0  0  0
    0.0252   11.4925   -1.4528 H   0  0  0  0  0  0  0  0  0  0  0  0
    1.6782   10.9312    0.2170 H   0  0  0  0  0  0  0  0  0  0  0  0
    2.9186   10.5996   -1.0114 H   0  0  0  0  0  0  0  0  0  0  0  0
    2.7776   12.9441    0.6164 H   0  0  0  0  0  0  0  0  0  0  0  0
    3.7708   12.8058   -0.8317 H   0  0  0  0  0  0  0  0  0  0  0  0
    0.9550   13.8228    0.8417 H   0  0  0  0  0  0  0  0  0  0  0  0
    0.1256   14.8698   -0.3593 H   0  0  0  0  0  0  0  0  0  0  0  0
   -0.1666   13.0975   -0.3593 H   0  0  0  0  0  0  0  0  0  0  0  0
    3.2748   14.7461   -2.1940 H   0  0  0  0  0  0  0  0  0  0  0  0
    3.2302   15.3072    0.3207 H   0  0  0  0  0  0  0  0  0  0  0  0
    3.6813   16.5793   -0.9313 H   0  0  0  0  0  0  0  0  0  0  0  0
    2.1119   17.3765    1.0284 H   0  0  0  0  0  0  0  0  0  0  0  0
   -0.4505   15.9565   -1.7500 H   0  0  0  0  0  0  0  0  0  0  0  0
    0.6119   18.5837   -2.9608 H   0  0  0  0  0  0  0  0  0  0  0  0
   -0.5812   17.4364   -3.7164 H   0  0  0  0  0  0  0  0  0  0  0  0
   -1.6809   19.4350   -2.7602 H   0  0  0  0  0  0  0  0  0  0  0  0
   -2.1863   17.8977   -1.9555 H   0  0  0  0  0  0  0  0  0  0  0  0
   -1.8408   19.5718   -0.2717 H   0  0  0  0  0  0  0  0  0  0  0  0
   -0.3370   21.0280   -0.6320 H   0  0  0  0  0  0  0  0  0  0  0  0
   -1.5325   17.1236    1.7683 H   0  0  0  0  0  0  0  0  0  0  0  0
   -2.4649   17.5180    0.2845 H   0  0  0  0  0  0  0  0  0  0  0  0
   -1.3202   16.1337    0.2845 H   0  0  0  0  0  0  0  0  0  0  0  0
   -0.2224   18.2876    2.3713 H   0  0  0  0  0  0  0  0  0  0  0  0
    1.2520   18.8010    1.4828 H   0  0  0  0  0  0  0  0  0  0  0  0
   -0.2071   19.8487    1.4828 H   0  0  0  0  0  0  0  0  0  0  0  0
    3.0060   17.4176   -2.7255 H   0  0  0  0  0  0  0  0  0  0  0  0
    3.0918   16.2280   -4.0687 H   0  0  0  0  0  0  0  0  0  0  0  0
    1.8156   17.4922   -4.0687 H   0  0  0  0  0  0  0  0  0  0  0  0
   -0.0897   15.4595   -4.1156 H   0  0  0  0  0  0  0  0  0  0  0  0
    1.5763   14.7260   -4.4628 H   0  0  0  0  0  0  0  0  0  0  0  0
   -0.5552   13.6676   -2.5860 H   0  0  0  0  0  0  0  0  0  0  0  0
    0.0659   12.9346   -4.1172 H   0  0  0  0  0  0  0  0  0  0  0  0
    3.5492   12.4265   -2.8537 H   0  0  0  0  0  0  0  0  0  0  0  0
    2.4266   11.7269   -4.0690 H   0  0  0  0  0  0  0  0  0  0  0  0
    2.7642   13.4911   -4.0690 H   0  0  0  0  0  0  0  0  0  0  0  0
  1  2  1  0
  2  3  1  0
  3  4  1  0
  4  5  1  0
  5  6  1  0
  6  7  1  0
  7  8  1  0
  7  9  1  0
  2 10  1  0
 10 11  1  0
 11 12  1  0
 12 13  1  0
 13 14  1  1
 13 15  1  0
 15 16  1  0
 16 17  1  0
 17 18  2  0
 18 19  1  0
 19 20  1  0
 20 21  1  0
 21 22  1  0
 22 23  1  0
 22 24  1  0
 24 25  1  0
 24 26  1  0
 19 27  1  0
 27 28  1  6
 27 29  1  0
 29 30  1  0
 30 31  1  0
 31 32  1  6
  7  5  1  0
 31 10  1  0
 31 13  1  0
 27 15  1  0
 24 18  1  0
  1 33  1  0
  1 34  1  0
  1 35  1  0
  2 36  1  6
  3 37  1  0
  3 38  1  0
  4 39  1  0
  4 40  1  0
  5 41  1  1
  8 42  1  0
  8 43  1  0
  8 44  1  0
  9 45  1  0
  9 46  1  0
  9 47  1  0
 10 48  1  1
 11 49  1  0
 11 50  1  0
 12 51  1  0
 12 52  1  0
 14 53  1  0
 14 54  1  0
 14 55  1  0
 15 56  1  6
 16 57  1  0
 16 58  1  0
 17 59  1  0
 19 60  1  1
 20 61  1  0
 20 62  1  0
 21 63  1  0
 21 64  1  0
 22 65  1  1
 23 66  1  0
 25 67  1  0
 25 68  1  0
 25 69  1  0
 26 70  1  0
 26 71  1  0
 26 72  1  0
 28 73  1  0
 28 74  1  0
 28 75  1  0
 29 76  1  0
 29 77  1  0
 30 78  1  0
 30 79  1  0
 32 80  1  0
 32 81  1  0
 32 82  1  0
M  END
>  <meeko>  (7) 
{"is_sidechain": [false], "intermolecular_energy": 2.731, "internal_energy": -0.839}

$$$$
EPH_relaxed_0001_pdb2pqr_Repair_95_r2_0001_out
     RDKit          3D

 82 86  0  0  0  0  0  0  0  0999 V2000
   -2.9790    9.2180    0.0640 C   0  0  0  0  0  0  0  0  0  0  0  0
   -1.8600    9.4620   -0.9510 C   0  0  2  0  0  0  0  0  0  0  0  0
   -0.9770    8.2140   -1.1540 C   0  0  0  0  0  0  0  0  0  0  0  0
   -1.6440    7.1160   -1.9860 C   0  0  0  0  0  0  0  0  0  0  0  0
   -2.8680    7.6200   -2.6890 C   0  0  2  0  0  0  0  0  0  0  0  0
   -4.0660    7.5890   -1.9030 O   0  0  0  0  0  0  0  0  0  0  0  0
   -4.0440    6.7360   -3.0590 C   0  0  0  0  0  0  0  0  0  0  0  0
   -4.0530    5.2740   -2.7370 C   0  0  0  0  0  0  0  0  0  0  0  0
   -4.9600    7.1840   -4.1550 C   0  0  0  0  0  0  0  0  0  0  0  0
   -1.0020   10.6400   -0.5060 C   0  0  1  0  0  0  0  0  0  0  0  0
    0.1070   10.2270    0.4970 C   0  0  0  0  0  0  0  0  0  0  0  0
    1.3370   11.1230    0.1990 C   0  0  0  0  0  0  0  0  0  0  0  0
    0.7930   12.2350   -0.7280 C   0  0  1  0  0  0  0  0  0  0  0  0
    0.1190   13.2640    0.2320 C   0  0  0  0  0  0  0  0  0  0  0  0
    1.8370   12.9210   -1.6690 C   0  0  2  0  0  0  0  0  0  0  0  0
    2.9680   13.6750   -0.9480 C   0  0  0  0  0  0  0  0  0  0  0  0
    2.6960   15.1150   -0.6640 C   0  0  0  0  0  0  0  0  0  0  0  0
    1.7150   15.8500   -1.2210 C   0  0  0  0  0  0  0  0  0  0  0  0
    0.8140   15.2620   -2.3140 C   0  0  1  0  0  0  0  0  0  0  0  0
    0.6850   16.2770   -3.4800 C   0  0  0  0  0  0  0  0  0  0  0  0
    0.2120   17.6500   -3.0100 C   0  0  0  0  0  0  0  0  0  0  0  0
    1.1650   18.2270   -1.9660 C   0  0  2  0  0  0  0  0  0  0  0  0
    2.4230   18.5010   -2.5920 O   0  0  0  0  0  0  0  0  0  0  0  0
    1.3810   17.2860   -0.7480 C   0  0  0  0  0  0  0  0  0  0  0  0
    0.0880   17.2300    0.1020 C   0  0  0  0  0  0  0  0  0  0  0  0
    2.4700   17.9220    0.1590 C   0  0  0  0  0  0  0  0  0  0  0  0
    1.1950   13.8030   -2.8160 C   0  0  1  0  0  0  0  0  0  0  0  0
    2.2550   13.8910   -3.9560 C   0  0  0  0  0  0  0  0  0  0  0  0
   -0.0800   13.1270   -3.4460 C   0  0  0  0  0  0  0  0  0  0  0  0
   -1.0090   12.3620   -2.4840 C   0  0  0  0  0  0  0  0  0  0  0  0
   -0.2110   11.3980   -1.6020 C   0  0  2  0  0  0  0  0  0  0  0  0
    0.4620   10.3380   -2.5390 C   0  0  0  0  0  0  0  0  0  0  0  0
   -2.5750    9.3061    1.0833 H   0  0  0  0  0  0  0  0  0  0  0  0
   -3.7745    9.9638   -0.0809 H   0  0  0  0  0  0  0  0  0  0  0  0
   -3.3918    8.2087   -0.0809 H   0  0  0  0  0  0  0  0  0  0  0  0
   -2.3342    9.6913   -1.9167 H   0  0  0  0  0  0  0  0  0  0  0  0
   -0.0522    8.5223   -1.6637 H   0  0  0  0  0  0  0  0  0  0  0  0
   -0.7861    7.7902   -0.1571 H   0  0  0  0  0  0  0  0  0  0  0  0
   -0.9267    6.7516   -2.7361 H   0  0  0  0  0  0  0  0  0  0  0  0
   -1.9479    6.3068   -1.3056 H   0  0  0  0  0  0  0  0  0  0  0  0
   -2.2670    8.3316   -3.2742 H   0  0  0  0  0  0  0  0  0  0  0  0
   -4.0538    5.1390   -1.6453 H   0  0  0  0  0  0  0  0  0  0  0  0
   -4.9540    4.8099   -3.1645 H   0  0  0  0  0  0  0  0  0  0  0  0
   -3.1578    4.7989   -3.1645 H   0  0  0  0  0  0  0  0  0  0  0  0
   -5.8664    7.6273   -3.7170 H   0  0  0  0  0  0  0  0  0  0  0  0
   -4.4487    7.9338   -4.7767 H   0  0  0  0  0  0  0  0  0  0  0  0
   -5.2379    6.3201   -4.7767 H   0  0  0  0  0  0  0  0  0  0  0  0
   -1.7850   11.2905   -0.0890 H   0  0  0  0  0  0  0  0  0  0  0  0
   -0.2372   10.3875    1.5294 H   0  0  0  0  0  0  0  0  0  0  0  0
    0.3594    9.1618    0.3897 H   0  0  0  0  0  0  0  0  0  0  0  0
    1.7382   11.5537    1.1283 H   0  0  0  0  0  0  0  0  0  0  0  0
    2.1613   10.5602   -0.2633 H   0  0  0  0  0  0  0  0  0  0  0  0
    0.3102   12.9720    1.2752 H   0  0  0  0  0  0  0  0  0  0  0  0
    0.5371   14.2648    0.0488 H   0  0  0  0  0  0  0  0  0  0  0  0
   -0.9655   13.2806    0.0488 H   0  0  0  0  0  0  0  0  0  0  0  0
    2.3154   12.0597   -2.1582 H   0  0  0  0  0  0  0  0  0  0  0  0
    3.1561   13.1694    0.0106 H   0  0  0  0  0  0  0  0  0  0  0  0
    3.8290   13.6577   -1.6323 H   0  0  0  0  0  0  0  0  0  0  0  0
    3.3523   15.6180    0.0614 H   0  0  0  0  0  0  0  0  0  0  0  0
   -0.1686   15.1040   -1.8454 H   0  0  0  0  0  0  0  0  0  0  0  0
    1.6678   16.3882   -3.9613 H   0  0  0  0  0  0  0  0  0  0  0  0
   -0.0669   15.8865   -4.1815 H   0  0  0  0  0  0  0  0  0  0  0  0
    0.1684   18.3307   -3.8730 H   0  0  0  0  0  0  0  0  0  0  0  0
   -0.7837   17.5418   -2.5551 H   0  0  0  0  0  0  0  0  0  0  0  0
    0.7077   19.1474   -1.5739 H   0  0  0  0  0  0  0  0  0  0  0  0
    3.1230   18.2560   -1.9640 H   0  0  0  0  0  0  0  0  0  0  0  0
    0.3506   17.2414    1.1701 H   0  0  0  0  0  0  0  0  0  0  0  0
   -0.5414   18.1017   -0.1301 H   0  0  0  0  0  0  0  0  0  0  0  0
   -0.4637   16.3071   -0.1301 H   0  0  0  0  0  0  0  0  0  0  0  0
    2.2042   17.7667    1.2150 H   0  0  0  0  0  0  0  0  0  0  0  0
    3.4414   17.4492   -0.0479 H   0  0  0  0  0  0  0  0  0  0  0  0
    2.5355   19.0004   -0.0479 H   0  0  0  0  0  0  0  0  0  0  0  0
    3.2600   13.9744   -3.5166 H   0  0  0  0  0  0  0  0  0  0  0  0
    2.2007   12.9853   -4.5778 H   0  0  0  0  0  0  0  0  0  0  0  0
    2.0521   14.7754   -4.5778 H   0  0  0  0  0  0  0  0  0  0  0  0
   -0.6752   13.9195   -3.9231 H   0  0  0  0  0  0  0  0  0  0  0  0
    0.3104   12.3642   -4.1358 H   0  0  0  0  0  0  0  0  0  0  0  0
   -1.5361   13.0838   -1.8428 H   0  0  0  0  0  0  0  0  0  0  0  0
   -1.7274   11.7794   -3.0794 H   0  0  0  0  0  0  0  0  0  0  0  0
    0.9520    9.5663   -1.9271 H   0  0  0  0  0  0  0  0  0  0  0  0
   -0.3050    9.8703   -3.1739 H   0  0  0  0  0  0  0  0  0  0  0  0
    1.2115   10.8331   -3.1739 H   0  0  0  0  0  0  0  0  0  0  0  0
  1  2  1  0
  2  3  1  0
  3  4  1  0
  4  5  1  0
  5  6  1  0
  6  7  1  0
  7  8  1  0
  7  9  1  0
  2 10  1  0
 10 11  1  0
 11 12  1  0
 12 13  1  0
 13 14  1  1
 13 15  1  0
 15 16  1  0
 16 17  1  0
 17 18  2  0
 18 19  1  0
 19 20  1  0
 20 21  1  0
 21 22  1  0
 22 23  1  0
 22 24  1  0
 24 25  1  0
 24 26  1  0
 19 27  1  0
 27 28  1  6
 27 29  1  0
 29 30  1  0
 30 31  1  0
 31 32  1  6
  7  5  1  0
 31 10  1  0
 31 13  1  0
 27 15  1  0
 24 18  1  0
  1 33  1  0
  1 34  1  0
  1 35  1  0
  2 36  1  6
  3 37  1  0
  3 38  1  0
  4 39  1  0
  4 40  1  0
  5 41  1  6
  8 42  1  0
  8 43  1  0
  8 44  1  0
  9 45  1  0
  9 46  1  0
  9 47  1  0
 10 48  1  1
 11 49  1  0
 11 50  1  0
 12 51  1  0
 12 52  1  0
 14 53  1  0
 14 54  1  0
 14 55  1  0
 15 56  1  6
 16 57  1  0
 16 58  1  0
 17 59  1  0
 19 60  1  1
 20 61  1  0
 20 62  1  0
 21 63  1  0
 21 64  1  0
 22 65  1  1
 23 66  1  0
 25 67  1  0
 25 68  1  0
 25 69  1  0
 26 70  1  0
 26 71  1  0
 26 72  1  0
 28 73  1  0
 28 74  1  0
 28 75  1  0
 29 76  1  0
 29 77  1  0
 30 78  1  0
 30 79  1  0
 32 80  1  0
 32 81  1  0
 32 82  1  0
M  END
>  <meeko>  (8) 
{"is_sidechain": [false], "intermolecular_energy": 2.731, "internal_energy": -0.839}

$$$$
EPH_relaxed_0001_pdb2pqr_Repair_95_r2_0001_out
     RDKit          3D

 82 86  0  0  0  0  0  0  0  0999 V2000
    0.4490    8.8160   -2.3720 C   0  0  0  0  0  0  0  0  0  0  0  0
    1.1910    9.9600   -3.0680 C   0  0  2  0  0  0  0  0  0  0  0  0
    2.6910    9.9820   -2.7110 C   0  0  0  0  0  0  0  0  0  0  0  0
    3.5740   10.5970   -3.8010 C   0  0  0  0  0  0  0  0  0  0  0  0
    4.9720   10.8310   -3.3150 C   0  0  2  0  0  0  0  0  0  0  0  0
    5.5740   12.0450   -3.7850 O   0  0  0  0  0  0  0  0  0  0  0  0
    6.1860   10.8210   -4.2240 C   0  0  0  0  0  0  0  0  0  0  0  0
    6.0590   10.5710   -5.6940 C   0  0  0  0  0  0  0  0  0  0  0  0
    7.5320   10.5700   -3.6180 C   0  0  0  0  0  0  0  0  0  0  0  0
    0.5490   11.2940   -2.7020 C   0  0  1  0  0  0  0  0  0  0  0  0
   -0.8250   11.1230   -2.0010 C   0  0  0  0  0  0  0  0  0  0  0  0
   -0.9400   12.2650   -0.9590 C   0  0  0  0  0  0  0  0  0  0  0  0
    0.2060   13.2390   -1.3200 C   0  0  1  0  0  0  0  0  0  0  0  0
   -0.3500   14.0920   -2.5030 C   0  0  0  0  0  0  0  0  0  0  0  0
    0.7370   14.1410   -0.1580 C   0  0  2  0  0  0  0  0  0  0  0  0
   -0.2940   15.1160    0.4350 C   0  0  0  0  0  0  0  0  0  0  0  0
   -0.3440   16.4620   -0.2100 C   0  0  0  0  0  0  0  0  0  0  0  0
    0.5940   16.9710   -1.0300 C   0  0  0  0  0  0  0  0  0  0  0  0
    1.8960   16.2090   -1.3070 C   0  0  1  0  0  0  0  0  0  0  0  0
    3.1000   17.1800   -1.1830 C   0  0  0  0  0  0  0  0  0  0  0  0
    2.9480   18.4150   -2.0660 C   0  0  0  0  0  0  0  0  0  0  0  0
    1.6720   19.1780   -1.7210 C   0  0  2  0  0  0  0  0  0  0  0  0
    1.8000   19.7210   -0.4040 O   0  0  0  0  0  0  0  0  0  0  0  0
    0.3920   18.2990   -1.8020 C   0  0  0  0  0  0  0  0  0  0  0  0
    0.0860   17.9590   -3.2810 C   0  0  0  0  0  0  0  0  0  0  0  0
   -0.8040   19.1490   -1.2950 C   0  0  0  0  0  0  0  0  0  0  0  0
    2.1050   14.8690   -0.4770 C   0  0  1  0  0  0  0  0  0  0  0  0
    2.7690   15.1920    0.8960 C   0  0  0  0  0  0  0  0  0  0  0  0
    3.1130   13.9390   -1.2500 C   0  0  0  0  0  0  0  0  0  0  0  0
    2.5120   12.9850   -2.3010 C   0  0  0  0  0  0  0  0  0  0  0  0
    1.3240   12.2110   -1.7230 C   0  0  2  0  0  0  0  0  0  0  0  0
    1.8570   11.3260   -0.5450 C   0  0  0  0  0  0  0  0  0  0  0  0
    0.5279    8.9376   -1.2816 H   0  0  0  0  0  0  0  0  0  0  0  0
   -0.6105    8.8330   -2.6672 H   0  0  0  0  0  0  0  0  0  0  0  0
    0.8965    7.8555   -2.6672 H   0  0  0  0  0  0  0  0  0  0  0  0
    1.1125    9.7940   -4.1526 H   0  0  0  0  0  0  0  0  0  0  0  0
    2.8199   10.5670   -1.7884 H   0  0  0  0  0  0  0  0  0  0  0  0
    3.0087    8.9356   -2.5921 H   0  0  0  0  0  0  0  0  0  0  0  0
    3.6057    9.9133   -4.6621 H   0  0  0  0  0  0  0  0  0  0  0  0
    3.1424   11.5682   -4.0846 H   0  0  0  0  0  0  0  0  0  0  0  0
    4.7548   10.3140   -2.3687 H   0  0  0  0  0  0  0  0  0  0  0  0
    5.5665    9.6015   -5.8598 H   0  0  0  0  0  0  0  0  0  0  0  0
    5.4578   11.3706   -6.1513 H   0  0  0  0  0  0  0  0  0  0  0  0
    7.0593   10.5571   -6.1513 H   0  0  0  0  0  0  0  0  0  0  0  0
    7.4490   10.5855   -2.5212 H   0  0  0  0  0  0  0  0  0  0  0  0
    7.9033    9.5871   -3.9438 H   0  0  0  0  0  0  0  0  0  0  0  0
    8.2326   11.3530   -3.9438 H   0  0  0  0  0  0  0  0  0  0  0  0
    0.5066   11.7582   -3.6984 H   0  0  0  0  0  0  0  0  0  0  0  0
   -1.6383   11.1990   -2.7377 H   0  0  0  0  0  0  0  0  0  0  0  0
   -0.9022   10.1378   -1.5178 H   0  0  0  0  0  0  0  0  0  0  0  0
   -1.9157   12.7667   -1.0387 H   0  0  0  0  0  0  0  0  0  0  0  0
   -0.8641   11.8961    0.0745 H   0  0  0  0  0  0  0  0  0  0  0  0
   -0.9098   14.9509   -2.1044 H   0  0  0  0  0  0  0  0  0  0  0  0
    0.4864   14.4536   -3.1192 H   0  0  0  0  0  0  0  0  0  0  0  0
   -1.0184   13.4727   -3.1192 H   0  0  0  0  0  0  0  0  0  0  0  0
    0.9431   13.4071    0.6351 H   0  0  0  0  0  0  0  0  0  0  0  0
   -1.2892   14.6569    0.3410 H   0  0  0  0  0  0  0  0  0  0  0  0
    0.0149   15.2890    1.4765 H   0  0  0  0  0  0  0  0  0  0  0  0
   -1.2214   17.0903    0.0031 H   0  0  0  0  0  0  0  0  0  0  0  0
    1.8188   15.8395   -2.3402 H   0  0  0  0  0  0  0  0  0  0  0  0
    3.1856   17.5038   -0.1352 H   0  0  0  0  0  0  0  0  0  0  0  0
    3.9997   16.6408   -1.5144 H   0  0  0  0  0  0  0  0  0  0  0  0
    3.8146   19.0752   -1.9139 H   0  0  0  0  0  0  0  0  0  0  0  0
    2.8908   18.0914   -3.1158 H   0  0  0  0  0  0  0  0  0  0  0  0
    1.5529   19.9758   -2.4689 H   0  0  0  0  0  0  0  0  0  0  0  0
    2.2100   20.5990   -0.4860 H   0  0  0  0  0  0  0  0  0  0  0  0
   -0.6493   17.1420   -3.3249 H   0  0  0  0  0  0  0  0  0  0  0  0
   -0.3227   18.8475   -3.7845 H   0  0  0  0  0  0  0  0  0  0  0  0
    1.0125   17.6459   -3.7845 H   0  0  0  0  0  0  0  0  0  0  0  0
   -0.8104   19.1535   -0.1950 H   0  0  0  0  0  0  0  0  0  0  0  0
   -0.7042   20.1800   -1.6654 H   0  0  0  0  0  0  0  0  0  0  0  0
   -1.7448   18.7158   -1.6654 H   0  0  0  0  0  0  0  0  0  0  0  0
    2.1038   14.8684    1.7101 H   0  0  0  0  0  0  0  0  0  0  0  0
    3.7287   14.6601    0.9733 H   0  0  0  0  0  0  0  0  0  0  0  0
    2.9430   16.2754    0.9733 H   0  0  0  0  0  0  0  0  0  0  0  0
    3.8367   14.5880   -1.7648 H   0  0  0  0  0  0  0  0  0  0  0  0
    3.5474   13.2833   -0.4810 H   0  0  0  0  0  0  0  0  0  0  0  0
    2.1721   13.5719   -3.1670 H   0  0  0  0  0  0  0  0  0  0  0  0
    3.2860   12.2645   -2.6040 H   0  0  0  0  0  0  0  0  0  0  0  0
    1.5795   11.7868    0.4145 H   0  0  0  0  0  0  0  0  0  0  0  0
    1.4135   10.3216   -0.6112 H   0  0  0  0  0  0  0  0  0  0  0  0
    2.9523   11.2483   -0.6112 H   0  0  0  0  0  0  0  0  0  0  0  0
  1  2  1  0
  2  3  1  0
  3  4  1  0
  4  5  1  0
  5  6  1  0
  6  7  1  0
  7  8  1  0
  7  9  1  0
  2 10  1  0
 10 11  1  0
 11 12  1  0
 12 13  1  0
 13 14  1  6
 13 15  1  0
 15 16  1  0
 16 17  1  0
 17 18  2  0
 18 19  1  0
 19 20  1  0
 20 21  1  0
 21 22  1  0
 22 23  1  0
 22 24  1  0
 24 25  1  0
 24 26  1  0
 19 27  1  0
 27 28  1  1
 27 29  1  0
 29 30  1  0
 30 31  1  0
 31 32  1  1
  7  5  1  0
 31 10  1  0
 31 13  1  0
 27 15  1  0
 24 18  1  0
  1 33  1  0
  1 34  1  0
  1 35  1  0
  2 36  1  6
  3 37  1  0
  3 38  1  0
  4 39  1  0
  4 40  1  0
  5 41  1  1
  8 42  1  0
  8 43  1  0
  8 44  1  0
  9 45  1  0
  9 46  1  0
  9 47  1  0
 10 48  1  6
 11 49  1  0
 11 50  1  0
 12 51  1  0
 12 52  1  0
 14 53  1  0
 14 54  1  0
 14 55  1  0
 15 56  1  1
 16 57  1  0
 16 58  1  0
 17 59  1  0
 19 60  1  6
 20 61  1  0
 20 62  1  0
 21 63  1  0
 21 64  1  0
 22 65  1  6
 23 66  1  0
 25 67  1  0
 25 68  1  0
 25 69  1  0
 26 70  1  0
 26 71  1  0
 26 72  1  0
 28 73  1  0
 28 74  1  0
 28 75  1  0
 29 76  1  0
 29 77  1  0
 30 78  1  0
 30 79  1  0
 32 80  1  0
 32 81  1  0
 32 82  1  0
M  END
>  <meeko>  (9) 
{"is_sidechain": [false], "intermolecular_energy": 2.731, "internal_energy": -0.839}

$$$$
EPH_relaxed_0001_pdb2pqr_Repair_95_r2_0001_out
     RDKit          3D

 82 86  0  0  0  0  0  0  0  0999 V2000
    0.0970   17.7610   -2.5340 C   0  0  0  0  0  0  0  0  0  0  0  0
   -0.1480   16.8610   -1.3200 C   0  0  2  0  0  0  0  0  0  0  0  0
   -0.2100   17.6630   -0.0050 C   0  0  0  0  0  0  0  0  0  0  0  0
    0.4060   19.0610   -0.1070 C   0  0  0  0  0  0  0  0  0  0  0  0
    1.5690   19.2240    0.8250 C   0  0  2  0  0  0  0  0  0  0  0  0
    2.5380   20.1940    0.4090 O   0  0  0  0  0  0  0  0  0  0  0  0
    2.9900   18.8310    0.4670 C   0  0  0  0  0  0  0  0  0  0  0  0
    3.3240   18.2440   -0.8690 C   0  0  0  0  0  0  0  0  0  0  0  0
    3.9600   18.5640    1.5750 C   0  0  0  0  0  0  0  0  0  0  0  0
    0.9420   15.7990   -1.2310 C   0  0  1  0  0  0  0  0  0  0  0  0
    1.1520   15.2770    0.2150 C   0  0  0  0  0  0  0  0  0  0  0  0
    1.5120   13.7730    0.0990 C   0  0  0  0  0  0  0  0  0  0  0  0
    1.8220   13.5610   -1.4010 C   0  0  1  0  0  0  0  0  0  0  0  0
    3.2920   14.0560   -1.5800 C   0  0  0  0  0  0  0  0  0  0  0  0
    1.6320   12.1080   -1.9470 C   0  0  2  0  0  0  0  0  0  0  0  0
    2.5460   11.0470   -1.3100 C   0  0  0  0  0  0  0  0  0  0  0  0
    3.8530   10.8330   -2.0000 C   0  0  0  0  0  0  0  0  0  0  0  0
    4.1600   11.2560   -3.2400 C   0  0  0  0  0  0  0  0  0  0  0  0
    3.1090   11.9420   -4.1220 C   0  0  1  0  0  0  0  0  0  0  0  0
    3.1490   11.3310   -5.5470 C   0  0  0  0  0  0  0  0  0  0  0  0
    4.5450   11.3740   -6.1630 C   0  0  0  0  0  0  0  0  0  0  0  0
    5.5500   10.6310   -5.2860 C   0  0  2  0  0  0  0  0  0  0  0  0
    5.2250    9.2380   -5.2900 O   0  0  0  0  0  0  0  0  0  0  0  0
    5.5910   11.1540   -3.8230 C   0  0  0  0  0  0  0  0  0  0  0  0
    6.2300   12.5650   -3.7920 C   0  0  0  0  0  0  0  0  0  0  0  0
    6.5400   10.2300   -3.0120 C   0  0  0  0  0  0  0  0  0  0  0  0
    1.6370   12.0030   -3.5260 C   0  0  1  0  0  0  0  0  0  0  0  0
    0.8620   10.7000   -3.8880 C   0  0  0  0  0  0  0  0  0  0  0  0
    0.8550   13.1880   -4.2060 C   0  0  0  0  0  0  0  0  0  0  0  0
    0.9880   14.5760   -3.5500 C   0  0  0  0  0  0  0  0  0  0  0  0
    0.7330   14.4960   -2.0420 C   0  0  2  0  0  0  0  0  0  0  0  0
   -0.7450   14.0220   -1.8310 C   0  0  0  0  0  0  0  0  0  0  0  0
    0.3717   18.7701   -2.1929 H   0  0  0  0  0  0  0  0  0  0  0  0
    0.9143   17.3439   -3.1407 H   0  0  0  0  0  0  0  0  0  0  0  0
   -0.8189   17.8157   -3.1407 H   0  0  0  0  0  0  0  0  0  0  0  0
   -1.1268   16.3786   -1.4589 H   0  0  0  0  0  0  0  0  0  0  0  0
   -1.2650   17.7689    0.2877 H   0  0  0  0  0  0  0  0  0  0  0  0
    0.3782   17.1061    0.7392 H   0  0  0  0  0  0  0  0  0  0  0  0
    0.7505   19.2243   -1.1388 H   0  0  0  0  0  0  0  0  0  0  0  0
   -0.3632   19.7958    0.1728 H   0  0  0  0  0  0  0  0  0  0  0  0
    0.9357   18.9901    1.6934 H   0  0  0  0  0  0  0  0  0  0  0  0
    3.8635   17.2958   -0.7283 H   0  0  0  0  0  0  0  0  0  0  0  0
    2.3963   18.0583   -1.4302 H   0  0  0  0  0  0  0  0  0  0  0  0
    3.9576   18.9466   -1.4302 H   0  0  0  0  0  0  0  0  0  0  0  0
    3.4574   18.7023    2.5436 H   0  0  0  0  0  0  0  0  0  0  0  0
    4.3294   17.5308    1.4979 H   0  0  0  0  0  0  0  0  0  0  0  0
    4.8061   19.2626    1.4979 H   0  0  0  0  0  0  0  0  0  0  0  0
    1.7874   16.3680   -1.6450 H   0  0  0  0  0  0  0  0  0  0  0  0
    1.9717   15.8265    0.7009 H   0  0  0  0  0  0  0  0  0  0  0  0
    0.2464   15.4210    0.8226 H   0  0  0  0  0  0  0  0  0  0  0  0
    2.3921   13.5357    0.7148 H   0  0  0  0  0  0  0  0  0  0  0  0
    0.7000   13.1210    0.4535 H   0  0  0  0  0  0  0  0  0  0  0  0
    3.7499   14.2102   -0.5918 H   0  0  0  0  0  0  0  0  0  0  0  0
    3.8675   13.3021   -2.1372 H   0  0  0  0  0  0  0  0  0  0  0  0
    3.2942   15.0045   -2.1372 H   0  0  0  0  0  0  0  0  0  0  0  0
    0.6127   11.8624   -1.6143 H   0  0  0  0  0  0  0  0  0  0  0  0
    2.7547   11.3555   -0.2750 H   0  0  0  0  0  0  0  0  0  0  0  0
    2.0029   10.0933   -1.3848 H   0  0  0  0  0  0  0  0  0  0  0  0
    4.6300   10.2835   -1.4483 H   0  0  0  0  0  0  0  0  0  0  0  0
    3.3937   13.0037   -4.1633 H   0  0  0  0  0  0  0  0  0  0  0  0
    2.8205   10.2827   -5.4906 H   0  0  0  0  0  0  0  0  0  0  0  0
    2.4833   11.9298   -6.1860 H   0  0  0  0  0  0  0  0  0  0  0  0
    4.5153   10.9019   -7.1561 H   0  0  0  0  0  0  0  0  0  0  0  0
    4.8603   12.4245   -6.2466 H   0  0  0  0  0  0  0  0  0  0  0  0
    6.5498   10.8064   -5.7098 H   0  0  0  0  0  0  0  0  0  0  0  0
    4.9810    8.9960   -6.2000 H   0  0  0  0  0  0  0  0  0  0  0  0
    6.3727   12.8800   -2.7478 H   0  0  0  0  0  0  0  0  0  0  0  0
    7.2037   12.5379   -4.3031 H   0  0  0  0  0  0  0  0  0  0  0  0
    5.5674   13.2789   -4.3031 H   0  0  0  0  0  0  0  0  0  0  0  0
    6.3760   10.3896   -1.9361 H   0  0  0  0  0  0  0  0  0  0  0  0
    6.3315    9.1795   -3.2628 H   0  0  0  0  0  0  0  0  0  0  0  0
    7.5846   10.4665   -3.2628 H   0  0  0  0  0  0  0  0  0  0  0  0
    0.5566   10.1865   -2.9644 H   0  0  0  0  0  0  0  0  0  0  0  0
   -0.0307   10.9561   -4.4775 H   0  0  0  0  0  0  0  0  0  0  0  0
    1.5132   10.0379   -4.4775 H   0  0  0  0  0  0  0  0  0  0  0  0
    1.2156   13.2736   -5.2417 H   0  0  0  0  0  0  0  0  0  0  0  0
   -0.2085   12.9244   -4.1081 H   0  0  0  0  0  0  0  0  0  0  0  0
    2.0041   14.9601   -3.7233 H   0  0  0  0  0  0  0  0  0  0  0  0
    0.2409   15.2484   -3.9970 H   0  0  0  0  0  0  0  0  0  0  0  0
   -0.9579   13.9537   -0.7540 H   0  0  0  0  0  0  0  0  0  0  0  0
   -1.4318   14.7450   -2.2954 H   0  0  0  0  0  0  0  0  0  0  0  0
   -0.8832   13.0345   -2.2954 H   0  0  0  0  0  0  0  0  0  0  0  0
  1  2  1  0
  2  3  1  0
  3  4  1  0
  4  5  1  0
  5  6  1  0
  6  7  1  0
  7  8  1  0
  7  9  1  0
  2 10  1  0
 10 11  1  0
 11 12  1  0
 12 13  1  0
 13 14  1  1
 13 15  1  0
 15 16  1  0
 16 17  1  0
 17 18  2  0
 18 19  1  0
 19 20  1  0
 20 21  1  0
 21 22  1  0
 22 23  1  0
 22 24  1  0
 24 25  1  0
 24 26  1  0
 19 27  1  0
 27 28  1  1
 27 29  1  0
 29 30  1  0
 30 31  1  0
 31 32  1  6
  7  5  1  0
 31 10  1  0
 31 13  1  0
 27 15  1  0
 24 18  1  0
  1 33  1  0
  1 34  1  0
  1 35  1  0
  2 36  1  6
  3 37  1  0
  3 38  1  0
  4 39  1  0
  4 40  1  0
  5 41  1  1
  8 42  1  0
  8 43  1  0
  8 44  1  0
  9 45  1  0
  9 46  1  0
  9 47  1  0
 10 48  1  6
 11 49  1  0
 11 50  1  0
 12 51  1  0
 12 52  1  0
 14 53  1  0
 14 54  1  0
 14 55  1  0
 15 56  1  1
 16 57  1  0
 16 58  1  0
 17 59  1  0
 19 60  1  6
 20 61  1  0
 20 62  1  0
 21 63  1  0
 21 64  1  0
 22 65  1  6
 23 66  1  0
 25 67  1  0
 25 68  1  0
 25 69  1  0
 26 70  1  0
 26 71  1  0
 26 72  1  0
 28 73  1  0
 28 74  1  0
 28 75  1  0
 29 76  1  0
 29 77  1  0
 30 78  1  0
 30 79  1  0
 32 80  1  0
 32 81  1  0
 32 82  1  0
M  END
>  <meeko>  (10) 
{"is_sidechain": [false], "intermolecular_energy": 2.731, "internal_energy": -0.839}

$$$$
EPH_relaxed_0001_pdb2pqr_Repair_95_r2_0001_out
     RDKit          3D

 82 86  0  0  0  0  0  0  0  0999 V2000
   -0.8770   16.3490   -5.8500 C   0  0  0  0  0  0  0  0  0  0  0  0
    0.2200   15.6540   -6.6610 C   0  0  2  0  0  0  0  0  0  0  0  0
   -0.1780   15.4740   -8.1400 C   0  0  0  0  0  0  0  0  0  0  0  0
    0.4680   16.4960   -9.0800 C   0  0  0  0  0  0  0  0  0  0  0  0
    1.8670   16.1050   -9.4470 C   0  0  2  0  0  0  0  0  0  0  0  0
    2.3450   16.6710  -10.6740 O   0  0  0  0  0  0  0  0  0  0  0  0
    2.2070   15.2410  -10.6470 C   0  0  0  0  0  0  0  0  0  0  0  0
    1.1420   14.7150  -11.5560 C   0  0  0  0  0  0  0  0  0  0  0  0
    3.5130   14.5100  -10.6550 C   0  0  0  0  0  0  0  0  0  0  0  0
    0.5460   14.3010   -6.0410 C   0  0  1  0  0  0  0  0  0  0  0  0
    1.8170   13.6530   -6.6550 C   0  0  0  0  0  0  0  0  0  0  0  0
    2.5270   12.8890   -5.5080 C   0  0  0  0  0  0  0  0  0  0  0  0
    1.4850   12.8410   -4.3670 C   0  0  1  0  0  0  0  0  0  0  0  0
    0.5370   11.6580   -4.7390 C   0  0  0  0  0  0  0  0  0  0  0  0
    2.0530   12.6920   -2.9180 C   0  0  2  0  0  0  0  0  0  0  0  0
    2.8300   11.3910   -2.6520 C   0  0  0  0  0  0  0  0  0  0  0  0
    2.0110   10.2500   -2.1470 C   0  0  0  0  0  0  0  0  0  0  0  0
    0.7650   10.3440   -1.6450 C   0  0  0  0  0  0  0  0  0  0  0  0
    0.0920   11.7090   -1.4580 C   0  0  1  0  0  0  0  0  0  0  0  0
   -0.5590   11.7780   -0.0520 C   0  0  0  0  0  0  0  0  0  0  0  0
   -1.5130   10.6160    0.2090 C   0  0  0  0  0  0  0  0  0  0  0  0
   -0.7930    9.2770    0.0710 C   0  0  2  0  0  0  0  0  0  0  0  0
    0.1700    9.1610    1.1220 O   0  0  0  0  0  0  0  0  0  0  0  0
   -0.0900    9.0980   -1.3040 C   0  0  0  0  0  0  0  0  0  0  0  0
   -1.1560    8.9220   -2.4140 C   0  0  0  0  0  0  0  0  0  0  0  0
    0.7150    7.7710   -1.2600 C   0  0  0  0  0  0  0  0  0  0  0  0
    0.9960   12.9770   -1.7750 C   0  0  1  0  0  0  0  0  0  0  0  0
    1.8100   13.3800   -0.5070 C   0  0  0  0  0  0  0  0  0  0  0  0
    0.0650   14.2010   -2.1130 C   0  0  0  0  0  0  0  0  0  0  0  0
   -0.3650   14.3620   -3.5830 C   0  0  0  0  0  0  0  0  0  0  0  0
    0.8430   14.2670   -4.5210 C   0  0  2  0  0  0  0  0  0  0  0  0
    1.8040   15.4590   -4.1850 C   0  0  0  0  0  0  0  0  0  0  0  0
   -0.6757   16.2214   -4.7761 H   0  0  0  0  0  0  0  0  0  0  0  0
   -0.8911   17.4211   -6.0956 H   0  0  0  0  0  0  0  0  0  0  0  0
   -1.8524   15.9037   -6.0956 H   0  0  0  0  0  0  0  0  0  0  0  0
    1.1107   16.2990   -6.6348 H   0  0  0  0  0  0  0  0  0  0  0  0
    0.1252   14.4666   -8.4611 H   0  0  0  0  0  0  0  0  0  0  0  0
   -1.2660   15.6241   -8.2007 H   0  0  0  0  0  0  0  0  0  0  0  0
   -0.1346   16.5670   -9.9975 H   0  0  0  0  0  0  0  0  0  0  0  0
    0.5082   17.4638   -8.5587 H   0  0  0  0  0  0  0  0  0  0  0  0
    2.1516   16.0396   -8.3865 H   0  0  0  0  0  0  0  0  0  0  0  0
    0.3158   14.3070  -10.9552 H   0  0  0  0  0  0  0  0  0  0  0  0
    0.7657   15.5309  -12.1906 H   0  0  0  0  0  0  0  0  0  0  0  0
    1.5612   13.9203  -12.1906 H   0  0  0  0  0  0  0  0  0  0  0  0
    3.8378   14.3282   -9.6199 H   0  0  0  0  0  0  0  0  0  0  0  0
    3.3919   13.5485  -11.1755 H   0  0  0  0  0  0  0  0  0  0  0  0
    4.2692   15.1160  -11.1755 H   0  0  0  0  0  0  0  0  0  0  0  0
   -0.3943   13.7708   -6.2524 H   0  0  0  0  0  0  0  0  0  0  0  0
    1.5366   12.9556   -7.4581 H   0  0  0  0  0  0  0  0  0  0  0  0
    2.4787   14.4161   -7.0906 H   0  0  0  0  0  0  0  0  0  0  0  0
    2.7987   11.8724   -5.8286 H   0  0  0  0  0  0  0  0  0  0  0  0
    3.4624   13.3777   -5.1980 H   0  0  0  0  0  0  0  0  0  0  0  0
    0.1598   11.1872   -3.8192 H   0  0  0  0  0  0  0  0  0  0  0  0
   -0.3093   12.0382   -5.3300 H   0  0  0  0  0  0  0  0  0  0  0  0
    1.0925   10.9149   -5.3300 H   0  0  0  0  0  0  0  0  0  0  0  0
    2.7983   13.4998   -2.8731 H   0  0  0  0  0  0  0  0  0  0  0  0
    3.3026   11.0788   -3.5949 H   0  0  0  0  0  0  0  0  0  0  0  0
    3.5500   11.6249   -1.8539 H   0  0  0  0  0  0  0  0  0  0  0  0
    2.4632    9.2481   -2.1884 H   0  0  0  0  0  0  0  0  0  0  0  0
   -0.6864   11.7723   -2.2326 H   0  0  0  0  0  0  0  0  0  0  0  0
    0.2373   11.7576    0.7066 H   0  0  0  0  0  0  0  0  0  0  0  0
   -1.1439   12.7082   -0.0003 H   0  0  0  0  0  0  0  0  0  0  0  0
   -1.9171   10.7040    1.2283 H   0  0  0  0  0  0  0  0  0  0  0  0
   -2.3253   10.6557   -0.5317 H   0  0  0  0  0  0  0  0  0  0  0  0
   -1.5534    8.4852    0.1398 H   0  0  0  0  0  0  0  0  0  0  0  0
    0.6930    8.3590    0.9550 H   0  0  0  0  0  0  0  0  0  0  0  0
   -2.1416    8.7593   -1.9534 H   0  0  0  0  0  0  0  0  0  0  0  0
   -1.1880    9.8270   -3.0384 H   0  0  0  0  0  0  0  0  0  0  0  0
   -0.8954    8.0547   -3.0384 H   0  0  0  0  0  0  0  0  0  0  0  0
    0.8899    7.4828   -0.2129 H   0  0  0  0  0  0  0  0  0  0  0  0
    0.1448    6.9792   -1.7679 H   0  0  0  0  0  0  0  0  0  0  0  0
    1.6806    7.9109   -1.7679 H   0  0  0  0  0  0  0  0  0  0  0  0
    1.2458   13.1007    0.3950 H   0  0  0  0  0  0  0  0  0  0  0  0
    2.7776   12.8569   -0.5109 H   0  0  0  0  0  0  0  0  0  0  0  0
    1.9806   14.4667   -0.5109 H   0  0  0  0  0  0  0  0  0  0  0  0
   -0.8484   14.1012   -1.5082 H   0  0  0  0  0  0  0  0  0  0  0  0
    0.6701   15.0924   -1.8911 H   0  0  0  0  0  0  0  0  0  0  0  0
   -1.0816   13.5672   -3.8375 H   0  0  0  0  0  0  0  0  0  0  0  0
   -0.8283   15.3520   -3.7067 H   0  0  0  0  0  0  0  0  0  0  0  0
    1.8893   15.5648   -3.0934 H   0  0  0  0  0  0  0  0  0  0  0  0
    2.7978   15.2606   -4.6129 H   0  0  0  0  0  0  0  0  0  0  0  0
    1.3993   16.3881   -4.6129 H   0  0  0  0  0  0  0  0  0  0  0  0
  1  2  1  0
  2  3  1  0
  3  4  1  0
  4  5  1  0
  5  6  1  0
  6  7  1  0
  7  8  1  0
  7  9  1  0
  2 10  1  0
 10 11  1  0
 11 12  1  0
 12 13  1  0
 13 14  1  6
 13 15  1  0
 15 16  1  0
 16 17  1  0
 17 18  2  0
 18 19  1  0
 19 20  1  0
 20 21  1  0
 21 22  1  0
 22 23  1  0
 22 24  1  0
 24 25  1  0
 24 26  1  0
 19 27  1  0
 27 28  1  1
 27 29  1  0
 29 30  1  0
 30 31  1  0
 31 32  1  1
  7  5  1  0
 31 10  1  0
 31 13  1  0
 27 15  1  0
 24 18  1  0
  1 33  1  0
  1 34  1  0
  1 35  1  0
  2 36  1  6
  3 37  1  0
  3 38  1  0
  4 39  1  0
  4 40  1  0
  5 41  1  1
  8 42  1  0
  8 43  1  0
  8 44  1  0
  9 45  1  0
  9 46  1  0
  9 47  1  0
 10 48  1  1
 11 49  1  0
 11 50  1  0
 12 51  1  0
 12 52  1  0
 14 53  1  0
 14 54  1  0
 14 55  1  0
 15 56  1  6
 16 57  1  0
 16 58  1  0
 17 59  1  0
 19 60  1  6
 20 61  1  0
 20 62  1  0
 21 63  1  0
 21 64  1  0
 22 65  1  1
 23 66  1  0
 25 67  1  0
 25 68  1  0
 25 69  1  0
 26 70  1  0
 26 71  1  0
 26 72  1  0
 28 73  1  0
 28 74  1  0
 28 75  1  0
 29 76  1  0
 29 77  1  0
 30 78  1  0
 30 79  1  0
 32 80  1  0
 32 81  1  0
 32 82  1  0
M  END
>  <meeko>  (11) 
{"is_sidechain": [false], "intermolecular_energy": 2.731, "internal_energy": -0.839}

$$$$
EPH_relaxed_0001_pdb2pqr_Repair_95_r2_0001_out
     RDKit          3D

 82 86  0  0  0  0  0  0  0  0999 V2000
   -0.2850   15.0670   -7.6380 C   0  0  0  0  0  0  0  0  0  0  0  0
    1.0830   15.0600   -6.9520 C   0  0  2  0  0  0  0  0  0  0  0  0
    2.2420   15.1560   -7.9640 C   0  0  0  0  0  0  0  0  0  0  0  0
    2.2780   16.4800   -8.7330 C   0  0  0  0  0  0  0  0  0  0  0  0
    1.8830   16.2990  -10.1680 C   0  0  2  0  0  0  0  0  0  0  0  0
    1.2060   15.0670  -10.4510 O   0  0  0  0  0  0  0  0  0  0  0  0
    2.4880   15.2440  -11.0750 C   0  0  0  0  0  0  0  0  0  0  0  0
    3.5400   14.3010  -10.5820 C   0  0  0  0  0  0  0  0  0  0  0  0
    2.4140   15.4470  -12.5570 C   0  0  0  0  0  0  0  0  0  0  0  0
    1.2340   13.8000   -6.1070 C   0  0  1  0  0  0  0  0  0  0  0  0
    2.6680   13.2090   -6.1650 C   0  0  0  0  0  0  0  0  0  0  0  0
    2.9640   12.6140   -4.7650 C   0  0  0  0  0  0  0  0  0  0  0  0
    1.5900   12.5820   -4.0560 C   0  0  1  0  0  0  0  0  0  0  0  0
    0.8900   11.2950   -4.5940 C   0  0  0  0  0  0  0  0  0  0  0  0
    1.6180   12.6130   -2.4930 C   0  0  2  0  0  0  0  0  0  0  0  0
    2.3120   11.4120   -1.8290 C   0  0  0  0  0  0  0  0  0  0  0  0
    1.4210   10.2560   -1.5100 C   0  0  0  0  0  0  0  0  0  0  0  0
    0.0760   10.2900   -1.4840 C   0  0  0  0  0  0  0  0  0  0  0  0
   -0.6830   11.6060   -1.6980 C   0  0  1  0  0  0  0  0  0  0  0  0
   -1.7900   11.7460   -0.6200 C   0  0  0  0  0  0  0  0  0  0  0  0
   -2.7190   10.5370   -0.5740 C   0  0  0  0  0  0  0  0  0  0  0  0
   -1.9340    9.2560   -0.3020 C   0  0  2  0  0  0  0  0  0  0  0  0
   -1.3990    9.3180    1.0240 O   0  0  0  0  0  0  0  0  0  0  0  0
   -0.7850    9.0140   -1.3190 C   0  0  0  0  0  0  0  0  0  0  0  0
   -1.3820    8.6480   -2.7010 C   0  0  0  0  0  0  0  0  0  0  0  0
    0.0140    7.7680   -0.8490 C   0  0  0  0  0  0  0  0  0  0  0  0
    0.2140   12.9110   -1.8260 C   0  0  1  0  0  0  0  0  0  0  0  0
    0.5090   13.4940   -0.4100 C   0  0  0  0  0  0  0  0  0  0  0  0
   -0.5950   14.0170   -2.6020 C   0  0  0  0  0  0  0  0  0  0  0  0
   -0.4860   14.0070   -4.1380 C   0  0  0  0  0  0  0  0  0  0  0  0
    0.9770   13.9300   -4.5840 C   0  0  2  0  0  0  0  0  0  0  0  0
    1.7010   15.2230   -4.0760 C   0  0  0  0  0  0  0  0  0  0  0  0
   -1.0776   15.0711   -6.8753 H   0  0  0  0  0  0  0  0  0  0  0  0
   -0.3757   15.9656   -8.2659 H   0  0  0  0  0  0  0  0  0  0  0  0
   -0.3849   14.1694   -8.2659 H   0  0  0  0  0  0  0  0  0  0  0  0
    1.1334   15.9498   -6.3072 H   0  0  0  0  0  0  0  0  0  0  0  0
    3.1904   15.0455   -7.4178 H   0  0  0  0  0  0  0  0  0  0  0  0
    2.0896   14.3573   -8.7049 H   0  0  0  0  0  0  0  0  0  0  0  0
    1.5819   17.1870   -8.2581 H   0  0  0  0  0  0  0  0  0  0  0  0
    3.3086   16.8637   -8.7069 H   0  0  0  0  0  0  0  0  0  0  0  0
    1.7393   17.3827  -10.2904 H   0  0  0  0  0  0  0  0  0  0  0  0
    3.5433   14.2980   -9.4820 H   0  0  0  0  0  0  0  0  0  0  0  0
    3.3255   13.2871  -10.9508 H   0  0  0  0  0  0  0  0  0  0  0  0
    4.5245   14.6247  -10.9508 H   0  0  0  0  0  0  0  0  0  0  0  0
    2.0444   16.4609  -12.7702 H   0  0  0  0  0  0  0  0  0  0  0  0
    3.4154   15.3222  -12.9946 H   0  0  0  0  0  0  0  0  0  0  0  0
    1.7278   14.7070  -12.9946 H   0  0  0  0  0  0  0  0  0  0  0  0
    0.4557   13.1747   -6.5687 H   0  0  0  0  0  0  0  0  0  0  0  0
    2.7221   12.4210   -6.9305 H   0  0  0  0  0  0  0  0  0  0  0  0
    3.4036   13.9832   -6.4284 H   0  0  0  0  0  0  0  0  0  0  0  0
    3.3786   11.5990   -4.8542 H   0  0  0  0  0  0  0  0  0  0  0  0
    3.7065   13.2053   -4.2090 H   0  0  0  0  0  0  0  0  0  0  0  0
    0.5547   10.6786   -3.7469 H   0  0  0  0  0  0  0  0  0  0  0  0
    0.0220   11.5788   -5.2072 H   0  0  0  0  0  0  0  0  0  0  0  0
    1.5999   10.7205   -5.2072 H   0  0  0  0  0  0  0  0  0  0  0  0
    2.2610   13.4810   -2.2855 H   0  0  0  0  0  0  0  0  0  0  0  0
    3.1000   11.0562   -2.5091 H   0  0  0  0  0  0  0  0  0  0  0  0
    2.6942   11.7768   -0.8642 H   0  0  0  0  0  0  0  0  0  0  0  0
    1.9052    9.2962   -1.2767 H   0  0  0  0  0  0  0  0  0  0  0  0
   -1.1408   11.5347   -2.6957 H   0  0  0  0  0  0  0  0  0  0  0  0
   -1.3115   11.8604    0.3638 H   0  0  0  0  0  0  0  0  0  0  0  0
   -2.3988   12.6248   -0.8792 H   0  0  0  0  0  0  0  0  0  0  0  0
   -3.4596   10.6822    0.2263 H   0  0  0  0  0  0  0  0  0  0  0  0
   -3.2199   10.4417   -1.5487 H   0  0  0  0  0  0  0  0  0  0  0  0
   -2.6305    8.4116   -0.4108 H   0  0  0  0  0  0  0  0  0  0  0  0
   -0.6890    8.6570    1.0850 H   0  0  0  0  0  0  0  0  0  0  0  0
   -2.3120    8.0779   -2.5593 H   0  0  0  0  0  0  0  0  0  0  0  0
   -1.5984    9.5688   -3.2625 H   0  0  0  0  0  0  0  0  0  0  0  0
   -0.6595    8.0374   -3.2625 H   0  0  0  0  0  0  0  0  0  0  0  0
    0.0332    7.7380    0.2504 H   0  0  0  0  0  0  0  0  0  0  0  0
   -0.4687    6.8569   -1.2323 H   0  0  0  0  0  0  0  0  0  0  0  0
    1.0434    7.8265   -1.2323 H   0  0  0  0  0  0  0  0  0  0  0  0
    0.1532   12.7908    0.3574 H   0  0  0  0  0  0  0  0  0  0  0  0
    1.5923   13.6457   -0.2943 H   0  0  0  0  0  0  0  0  0  0  0  0
   -0.0105   14.4567   -0.2943 H   0  0  0  0  0  0  0  0  0  0  0  0
   -1.6572   13.8958   -2.3429 H   0  0  0  0  0  0  0  0  0  0  0  0
   -0.1503   14.9728   -2.2879 H   0  0  0  0  0  0  0  0  0  0  0  0
   -1.0284   13.1346   -4.5314 H   0  0  0  0  0  0  0  0  0  0  0  0
   -0.9221   14.9392   -4.5263 H   0  0  0  0  0  0  0  0  0  0  0  0
    1.7062   15.2322   -2.9761 H   0  0  0  0  0  0  0  0  0  0  0  0
    2.7363   15.2336   -4.4476 H   0  0  0  0  0  0  0  0  0  0  0  0
    1.1690   16.1112   -4.4476 H   0  0  0  0  0  0  0  0  0  0  0  0
  1  2  1  0
  2  3  1  0
  3  4  1  0
  4  5  1  0
  5  6  1  0
  6  7  1  0
  7  8  1  0
  7  9  1  0
  2 10  1  0
 10 11  1  0
 11 12  1  0
 12 13  1  0
 13 14  1  1
 13 15  1  0
 15 16  1  0
 16 17  1  0
 17 18  2  0
 18 19  1  0
 19 20  1  0
 20 21  1  0
 21 22  1  0
 22 23  1  0
 22 24  1  0
 24 25  1  0
 24 26  1  0
 19 27  1  0
 27 28  1  1
 27 29  1  0
 29 30  1  0
 30 31  1  0
 31 32  1  1
  7  5  1  0
 31 10  1  0
 31 13  1  0
 27 15  1  0
 24 18  1  0
  1 33  1  0
  1 34  1  0
  1 35  1  0
  2 36  1  1
  3 37  1  0
  3 38  1  0
  4 39  1  0
  4 40  1  0
  5 41  1  6
  8 42  1  0
  8 43  1  0
  8 44  1  0
  9 45  1  0
  9 46  1  0
  9 47  1  0
 10 48  1  6
 11 49  1  0
 11 50  1  0
 12 51  1  0
 12 52  1  0
 14 53  1  0
 14 54  1  0
 14 55  1  0
 15 56  1  6
 16 57  1  0
 16 58  1  0
 17 59  1  0
 19 60  1  6
 20 61  1  0
 20 62  1  0
 21 63  1  0
 21 64  1  0
 22 65  1  1
 23 66  1  0
 25 67  1  0
 25 68  1  0
 25 69  1  0
 26 70  1  0
 26 71  1  0
 26 72  1  0
 28 73  1  0
 28 74  1  0
 28 75  1  0
 29 76  1  0
 29 77  1  0
 30 78  1  0
 30 79  1  0
 32 80  1  0
 32 81  1  0
 32 82  1  0
M  END
>  <meeko>  (12) 
{"is_sidechain": [false], "intermolecular_energy": 2.731, "internal_energy": -0.839}

$$$$
EPH_relaxed_0001_pdb2pqr_Repair_95_r2_0001_out
     RDKit          3D

 82 86  0  0  0  0  0  0  0  0999 V2000
    0.0890    9.3240   -2.3160 C   0  0  0  0  0  0  0  0  0  0  0  0
    1.1200   10.3510   -2.7920 C   0  0  2  0  0  0  0  0  0  0  0  0
    2.5320    9.7430   -2.9140 C   0  0  0  0  0  0  0  0  0  0  0  0
    3.4360   10.4790   -3.9070 C   0  0  0  0  0  0  0  0  0  0  0  0
    4.8150   10.6830   -3.3550 C   0  0  2  0  0  0  0  0  0  0  0  0
    5.4290   11.9250   -3.7240 O   0  0  0  0  0  0  0  0  0  0  0  0
    6.0620   10.7340   -4.2180 C   0  0  0  0  0  0  0  0  0  0  0  0
    5.9880   10.5790   -5.7050 C   0  0  0  0  0  0  0  0  0  0  0  0
    7.3850   10.4450   -3.5810 C   0  0  0  0  0  0  0  0  0  0  0  0
    1.1460   11.5410   -1.8410 C   0  0  1  0  0  0  0  0  0  0  0  0
    2.2210   11.3960   -0.7310 C   0  0  0  0  0  0  0  0  0  0  0  0
    2.7660   12.8200   -0.4480 C   0  0  0  0  0  0  0  0  0  0  0  0
    1.7670   13.7670   -1.1520 C   0  0  1  0  0  0  0  0  0  0  0  0
    0.5670   13.8930   -0.1620 C   0  0  0  0  0  0  0  0  0  0  0  0
    2.3200   15.1690   -1.5690 C   0  0  2  0  0  0  0  0  0  0  0  0
    2.7880   16.0590   -0.4040 C   0  0  0  0  0  0  0  0  0  0  0  0
    1.7430   16.9550    0.1730 C   0  0  0  0  0  0  0  0  0  0  0  0
    0.5630   17.2530   -0.4020 C   0  0  0  0  0  0  0  0  0  0  0  0
    0.2220   16.7440   -1.8090 C   0  0  1  0  0  0  0  0  0  0  0  0
   -0.3630   17.9070   -2.6520 C   0  0  0  0  0  0  0  0  0  0  0  0
   -1.5500   18.5840   -1.9730 C   0  0  0  0  0  0  0  0  0  0  0  0
   -1.1560   19.1270   -0.6020 C   0  0  2  0  0  0  0  0  0  0  0  0
   -0.2200   20.1940   -0.7810 O   0  0  0  0  0  0  0  0  0  0  0  0
   -0.5450   18.0470    0.3330 C   0  0  0  0  0  0  0  0  0  0  0  0
   -1.6480   17.0520    0.7700 C   0  0  0  0  0  0  0  0  0  0  0  0
   -0.0610   18.7540    1.6280 C   0  0  0  0  0  0  0  0  0  0  0  0
    1.3830   15.9660   -2.5650 C   0  0  1  0  0  0  0  0  0  0  0  0
    2.2960   16.9770   -3.3230 C   0  0  0  0  0  0  0  0  0  0  0  0
    0.7460   15.0340   -3.6630 C   0  0  0  0  0  0  0  0  0  0  0  0
    0.3300   13.6190   -3.2170 C   0  0  0  0  0  0  0  0  0  0  0  0
    1.4620   12.9310   -2.4480 C   0  0  2  0  0  0  0  0  0  0  0  0
    2.6760   12.7710   -3.4260 C   0  0  0  0  0  0  0  0  0  0  0  0
    0.0705    9.3056   -1.2163 H   0  0  0  0  0  0  0  0  0  0  0  0
   -0.9060    9.6006   -2.6949 H   0  0  0  0  0  0  0  0  0  0  0  0
    0.3617    8.3280   -2.6949 H   0  0  0  0  0  0  0  0  0  0  0  0
    0.8161   10.6838   -3.7954 H   0  0  0  0  0  0  0  0  0  0  0  0
    3.0090    9.7715   -1.9232 H   0  0  0  0  0  0  0  0  0  0  0  0
    2.4085    8.7172   -3.2914 H   0  0  0  0  0  0  0  0  0  0  0  0
    3.5060    9.8873   -4.8317 H   0  0  0  0  0  0  0  0  0  0  0  0
    2.9957   11.4676   -4.1042 H   0  0  0  0  0  0  0  0  0  0  0  0
    4.5654   10.1058   -2.4525 H   0  0  0  0  0  0  0  0  0  0  0  0
    5.5260    9.6113   -5.9502 H   0  0  0  0  0  0  0  0  0  0  0  0
    5.3813   11.3928   -6.1287 H   0  0  0  0  0  0  0  0  0  0  0  0
    7.0023   10.6189   -6.1287 H   0  0  0  0  0  0  0  0  0  0  0  0
    7.2779   10.4684   -2.4865 H   0  0  0  0  0  0  0  0  0  0  0  0
    7.7331    9.4496   -3.8942 H   0  0  0  0  0  0  0  0  0  0  0  0
    8.1165   11.2045   -3.8942 H   0  0  0  0  0  0  0  0  0  0  0  0
    0.1055   11.5142   -1.4852 H   0  0  0  0  0  0  0  0  0  0  0  0
    1.7707   10.9747    0.1799 H   0  0  0  0  0  0  0  0  0  0  0  0
    3.0283   10.7198   -1.0487 H   0  0  0  0  0  0  0  0  0  0  0  0
    2.7922   13.0179    0.6337 H   0  0  0  0  0  0  0  0  0  0  0  0
    3.7950   12.9530   -0.8132 H   0  0  0  0  0  0  0  0  0  0  0  0
    0.9393   13.8539    0.8723 H   0  0  0  0  0  0  0  0  0  0  0  0
    0.0518   14.8502   -0.3303 H   0  0  0  0  0  0  0  0  0  0  0  0
   -0.1358   13.0637   -0.3303 H   0  0  0  0  0  0  0  0  0  0  0  0
    3.2299   14.9062   -2.1284 H   0  0  0  0  0  0  0  0  0  0  0  0
    3.1544   15.4028    0.3992 H   0  0  0  0  0  0  0  0  0  0  0  0
    3.5619   16.7216   -0.8188 H   0  0  0  0  0  0  0  0  0  0  0  0
    1.9552   17.4106    1.1515 H   0  0  0  0  0  0  0  0  0  0  0  0
   -0.5391   15.9615   -1.6735 H   0  0  0  0  0  0  0  0  0  0  0  0
    0.4255   18.6568   -2.8130 H   0  0  0  0  0  0  0  0  0  0  0  0
   -0.7198   17.4833   -3.6023 H   0  0  0  0  0  0  0  0  0  0  0  0
   -1.8992   19.4154   -2.6029 H   0  0  0  0  0  0  0  0  0  0  0  0
   -2.3498   17.8406   -1.8401 H   0  0  0  0  0  0  0  0  0  0  0  0
   -2.0744   19.4819   -0.1115 H   0  0  0  0  0  0  0  0  0  0  0  0
   -0.6310   20.8510   -1.3680 H   0  0  0  0  0  0  0  0  0  0  0  0
   -1.6919   17.0124    1.8684 H   0  0  0  0  0  0  0  0  0  0  0  0
   -2.6195   17.3853    0.3760 H   0  0  0  0  0  0  0  0  0  0  0  0
   -1.4163   16.0515    0.3760 H   0  0  0  0  0  0  0  0  0  0  0  0
   -0.4353   18.2072    2.5060 H   0  0  0  0  0  0  0  0  0  0  0  0
    1.0387   18.7704    1.6477 H   0  0  0  0  0  0  0  0  0  0  0  0
   -0.4435   19.7852    1.6477 H   0  0  0  0  0  0  0  0  0  0  0  0
    2.8487   17.5890   -2.5950 H   0  0  0  0  0  0  0  0  0  0  0  0
    3.0083   16.4257   -3.9544 H   0  0  0  0  0  0  0  0  0  0  0  0
    1.6752   17.6296   -3.9544 H   0  0  0  0  0  0  0  0  0  0  0  0
   -0.1522   15.5391   -4.0479 H   0  0  0  0  0  0  0  0  0  0  0  0
    1.5420   14.8791   -4.4062 H   0  0  0  0  0  0  0  0  0  0  0  0
   -0.5541   13.6922   -2.5666 H   0  0  0  0  0  0  0  0  0  0  0  0
    0.1013   13.0223   -4.1124 H   0  0  0  0  0  0  0  0  0  0  0  0
    3.6017   12.6490   -2.8445 H   0  0  0  0  0  0  0  0  0  0  0  0
    2.5219   11.8854   -4.0600 H   0  0  0  0  0  0  0  0  0  0  0  0
    2.7566   13.6663   -4.0600 H   0  0  0  0  0  0  0  0  0  0  0  0
  1  2  1  0
  2  3  1  0
  3  4  1  0
  4  5  1  0
  5  6  1  0
  6  7  1  0
  7  8  1  0
  7  9  1  0
  2 10  1  0
 10 11  1  0
 11 12  1  0
 12 13  1  0
 13 14  1  1
 13 15  1  0
 15 16  1  0
 16 17  1  0
 17 18  2  0
 18 19  1  0
 19 20  1  0
 20 21  1  0
 21 22  1  0
 22 23  1  0
 22 24  1  0
 24 25  1  0
 24 26  1  0
 19 27  1  0
 27 28  1  6
 27 29  1  0
 29 30  1  0
 30 31  1  0
 31 32  1  6
  7  5  1  0
 31 10  1  0
 31 13  1  0
 27 15  1  0
 24 18  1  0
  1 33  1  0
  1 34  1  0
  1 35  1  0
  2 36  1  6
  3 37  1  0
  3 38  1  0
  4 39  1  0
  4 40  1  0
  5 41  1  1
  8 42  1  0
  8 43  1  0
  8 44  1  0
  9 45  1  0
  9 46  1  0
  9 47  1  0
 10 48  1  1
 11 49  1  0
 11 50  1  0
 12 51  1  0
 12 52  1  0
 14 53  1  0
 14 54  1  0
 14 55  1  0
 15 56  1  6
 16 57  1  0
 16 58  1  0
 17 59  1  0
 19 60  1  1
 20 61  1  0
 20 62  1  0
 21 63  1  0
 21 64  1  0
 22 65  1  1
 23 66  1  0
 25 67  1  0
 25 68  1  0
 25 69  1  0
 26 70  1  0
 26 71  1  0
 26 72  1  0
 28 73  1  0
 28 74  1  0
 28 75  1  0
 29 76  1  0
 29 77  1  0
 30 78  1  0
 30 79  1  0
 32 80  1  0
 32 81  1  0
 32 82  1  0
M  END
>  <meeko>  (13) 
{"is_sidechain": [false], "intermolecular_energy": 2.731, "internal_energy": -0.839}

$$$$
EPH_relaxed_0001_pdb2pqr_Repair_95_r2_0001_out
     RDKit          3D

 82 86  0  0  0  0  0  0  0  0999 V2000
    3.0250   18.7140   -1.6700 C   0  0  0  0  0  0  0  0  0  0  0  0
    2.4160   17.6280   -2.5610 C   0  0  2  0  0  0  0  0  0  0  0  0
    0.9560   17.9420   -2.9450 C   0  0  0  0  0  0  0  0  0  0  0  0
    0.4340   19.2550   -2.3560 C   0  0  0  0  0  0  0  0  0  0  0  0
   -0.7410   19.0290   -1.4530 C   0  0  2  0  0  0  0  0  0  0  0  0
   -1.1850   20.1930   -0.7450 O   0  0  0  0  0  0  0  0  0  0  0  0
   -0.6640   19.1220    0.0590 C   0  0  0  0  0  0  0  0  0  0  0  0
    0.6180   19.4530    0.7560 C   0  0  0  0  0  0  0  0  0  0  0  0
   -1.7050   18.4190    0.8730 C   0  0  0  0  0  0  0  0  0  0  0  0
    2.4900   16.2770   -1.8570 C   0  0  1  0  0  0  0  0  0  0  0  0
    2.9340   16.3990   -0.3750 C   0  0  0  0  0  0  0  0  0  0  0  0
    2.1710   15.3020    0.4120 C   0  0  0  0  0  0  0  0  0  0  0  0
    1.5760   14.3820   -0.6790 C   0  0  1  0  0  0  0  0  0  0  0  0
    2.7520   13.4430   -1.0960 C   0  0  0  0  0  0  0  0  0  0  0  0
    0.3030   13.5690   -0.2780 C   0  0  2  0  0  0  0  0  0  0  0  0
    0.5040   12.5630    0.8680 C   0  0  0  0  0  0  0  0  0  0  0  0
    0.9060   11.1880    0.4480 C   0  0  0  0  0  0  0  0  0  0  0  0
    0.8220   10.6970   -0.8030 C   0  0  0  0  0  0  0  0  0  0  0  0
    0.1890   11.5210   -1.9320 C   0  0  1  0  0  0  0  0  0  0  0  0
   -0.7970   10.6300   -2.7330 C   0  0  0  0  0  0  0  0  0  0  0  0
   -0.1450    9.3470   -3.2410 C   0  0  0  0  0  0  0  0  0  0  0  0
    0.4220    8.5280   -2.0850 C   0  0  2  0  0  0  0  0  0  0  0  0
   -0.6630    8.0560   -1.2790 O   0  0  0  0  0  0  0  0  0  0  0  0
    1.4210    9.3250   -1.2000 C   0  0  0  0  0  0  0  0  0  0  0  0
    2.7290    9.5760   -1.9900 C   0  0  0  0  0  0  0  0  0  0  0  0
    1.8070    8.4310    0.0080 C   0  0  0  0  0  0  0  0  0  0  0  0
   -0.4560   12.9080   -1.5000 C   0  0  1  0  0  0  0  0  0  0  0  0
   -1.9310   12.6900   -1.0430 C   0  0  0  0  0  0  0  0  0  0  0  0
   -0.5150   13.8590   -2.7530 C   0  0  0  0  0  0  0  0  0  0  0  0
    0.7300   14.7250   -3.0280 C   0  0  0  0  0  0  0  0  0  0  0  0
    1.1810   15.4540   -1.7580 C   0  0  2  0  0  0  0  0  0  0  0  0
    0.0270   16.4230   -1.3280 C   0  0  0  0  0  0  0  0  0  0  0  0
    2.8756   18.4477   -0.6132 H   0  0  0  0  0  0  0  0  0  0  0  0
    4.1018   18.7980   -1.8783 H   0  0  0  0  0  0  0  0  0  0  0  0
    2.5351   19.6766   -1.8783 H   0  0  0  0  0  0  0  0  0  0  0  0
    3.0021   17.5962   -3.4913 H   0  0  0  0  0  0  0  0  0  0  0  0
    0.8906   18.0028   -4.0414 H   0  0  0  0  0  0  0  0  0  0  0  0
    0.3339   17.1343   -2.5318 H   0  0  0  0  0  0  0  0  0  0  0  0
    1.2400   19.7325   -1.7795 H   0  0  0  0  0  0  0  0  0  0  0  0
    0.1092   19.8985   -3.1869 H   0  0  0  0  0  0  0  0  0  0  0  0
   -1.1380   18.2540   -2.1252 H   0  0  0  0  0  0  0  0  0  0  0  0
    0.4644   19.4133    1.8445 H   0  0  0  0  0  0  0  0  0  0  0  0
    1.3906   18.7249    0.4679 H   0  0  0  0  0  0  0  0  0  0  0  0
    0.9415   20.4641    0.4679 H   0  0  0  0  0  0  0  0  0  0  0  0
   -1.4926   18.5624    1.9427 H   0  0  0  0  0  0  0  0  0  0  0  0
   -2.6964   18.8333    0.6372 H   0  0  0  0  0  0  0  0  0  0  0  0
   -1.6911   17.3447    0.6372 H   0  0  0  0  0  0  0  0  0  0  0  0
    3.2074   15.7652   -2.5154 H   0  0  0  0  0  0  0  0  0  0  0  0
    4.0192   16.2405   -0.2904 H   0  0  0  0  0  0  0  0  0  0  0  0
    2.7098   17.3994    0.0236 H   0  0  0  0  0  0  0  0  0  0  0  0
    2.8589   14.7402    1.0610 H   0  0  0  0  0  0  0  0  0  0  0  0
    1.3969   15.7230    1.0704 H   0  0  0  0  0  0  0  0  0  0  0  0
    3.2445   13.0497   -0.1945 H   0  0  0  0  0  0  0  0  0  0  0  0
    2.3595   12.6071   -1.6936 H   0  0  0  0  0  0  0  0  0  0  0  0
    3.4803   14.0108   -1.6936 H   0  0  0  0  0  0  0  0  0  0  0  0
   -0.3578   14.3511    0.1240 H   0  0  0  0  0  0  0  0  0  0  0  0
    1.2865   12.9575    1.5329 H   0  0  0  0  0  0  0  0  0  0  0  0
   -0.4767   12.4573    1.3549 H   0  0  0  0  0  0  0  0  0  0  0  0
    1.3043   10.5199    1.2258 H   0  0  0  0  0  0  0  0  0  0  0  0
    1.0194   11.8362   -2.5810 H   0  0  0  0  0  0  0  0  0  0  0  0
   -1.6407   10.3623   -2.0799 H   0  0  0  0  0  0  0  0  0  0  0  0
   -1.1305   11.2050   -3.6094 H   0  0  0  0  0  0  0  0  0  0  0  0
   -0.8982    8.7465   -3.7721 H   0  0  0  0  0  0  0  0  0  0  0  0
    0.6794    9.6165   -3.9176 H   0  0  0  0  0  0  0  0  0  0  0  0
    0.9879    7.6913   -2.5206 H   0  0  0  0  0  0  0  0  0  0  0  0
   -0.4610    7.1410   -1.0210 H   0  0  0  0  0  0  0  0  0  0  0  0
    3.5583    9.7351   -1.2851 H   0  0  0  0  0  0  0  0  0  0  0  0
    2.9482    8.7035   -2.6231 H   0  0  0  0  0  0  0  0  0  0  0  0
    2.6097   10.4676   -2.6231 H   0  0  0  0  0  0  0  0  0  0  0  0
    1.5782    8.9610    0.9443 H   0  0  0  0  0  0  0  0  0  0  0  0
    1.2337    7.4931   -0.0320 H   0  0  0  0  0  0  0  0  0  0  0  0
    2.8828    8.2051   -0.0320 H   0  0  0  0  0  0  0  0  0  0  0  0
   -1.9771   12.6832    0.0560 H   0  0  0  0  0  0  0  0  0  0  0  0
   -2.5594   13.5050   -1.4313 H   0  0  0  0  0  0  0  0  0  0  0  0
   -2.2968   11.7280   -1.4313 H   0  0  0  0  0  0  0  0  0  0  0  0
   -0.6858   13.2308   -3.6397 H   0  0  0  0  0  0  0  0  0  0  0  0
   -1.3205   14.5750   -2.5329 H   0  0  0  0  0  0  0  0  0  0  0  0
    1.5470   14.0789   -3.3817 H   0  0  0  0  0  0  0  0  0  0  0  0
    0.4747   15.4747   -3.7914 H   0  0  0  0  0  0  0  0  0  0  0  0
   -0.0251   16.4667   -0.2301 H   0  0  0  0  0  0  0  0  0  0  0  0
    0.2256   17.4291   -1.7260 H   0  0  0  0  0  0  0  0  0  0  0  0
   -0.9295   16.0534   -1.7260 H   0  0  0  0  0  0  0  0  0  0  0  0
  1  2  1  0
  2  3  1  0
  3  4  1  0
  4  5  1  0
  5  6  1  0
  6  7  1  0
  7  8  1  0
  7  9  1  0
  2 10  1  0
 10 11  1  0
 11 12  1  0
 12 13  1  0
 13 14  1  6
 13 15  1  0
 15 16  1  0
 16 17  1  0
 17 18  2  0
 18 19  1  0
 19 20  1  0
 20 21  1  0
 21 22  1  0
 22 23  1  0
 22 24  1  0
 24 25  1  0
 24 26  1  0
 19 27  1  0
 27 28  1  1
 27 29  1  0
 29 30  1  0
 30 31  1  0
 31 32  1  1
  7  5  1  0
 31 10  1  0
 31 13  1  0
 27 15  1  0
 24 18  1  0
  1 33  1  0
  1 34  1  0
  1 35  1  0
  2 36  1  6
  3 37  1  0
  3 38  1  0
  4 39  1  0
  4 40  1  0
  5 41  1  1
  8 42  1  0
  8 43  1  0
  8 44  1  0
  9 45  1  0
  9 46  1  0
  9 47  1  0
 10 48  1  6
 11 49  1  0
 11 50  1  0
 12 51  1  0
 12 52  1  0
 14 53  1  0
 14 54  1  0
 14 55  1  0
 15 56  1  1
 16 57  1  0
 16 58  1  0
 17 59  1  0
 19 60  1  6
 20 61  1  0
 20 62  1  0
 21 63  1  0
 21 64  1  0
 22 65  1  6
 23 66  1  0
 25 67  1  0
 25 68  1  0
 25 69  1  0
 26 70  1  0
 26 71  1  0
 26 72  1  0
 28 73  1  0
 28 74  1  0
 28 75  1  0
 29 76  1  0
 29 77  1  0
 30 78  1  0
 30 79  1  0
 32 80  1  0
 32 81  1  0
 32 82  1  0
M  END
>  <meeko>  (14) 
{"is_sidechain": [false], "intermolecular_energy": 2.731, "internal_energy": -0.839}

$$$$
EPH_relaxed_0001_pdb2pqr_Repair_95_r2_0001_out
     RDKit          3D

 82 86  0  0  0  0  0  0  0  0999 V2000
    0.3030   19.1330   -2.4180 C   0  0  0  0  0  0  0  0  0  0  0  0
   -0.0270   18.1100   -1.3270 C   0  0  2  0  0  0  0  0  0  0  0  0
    0.6390   18.4620    0.0180 C   0  0  0  0  0  0  0  0  0  0  0  0
    1.6670   19.5920   -0.0800 C   0  0  0  0  0  0  0  0  0  0  0  0
    2.6520   19.5450    1.0480 C   0  0  2  0  0  0  0  0  0  0  0  0
    3.9130   20.1660    0.7680 O   0  0  0  0  0  0  0  0  0  0  0  0
    3.9420   18.7480    1.0000 C   0  0  0  0  0  0  0  0  0  0  0  0
    4.3160   17.9410   -0.2030 C   0  0  0  0  0  0  0  0  0  0  0  0
    4.5930   18.3620    2.2920 C   0  0  0  0  0  0  0  0  0  0  0  0
    0.4030   16.7180   -1.7740 C   0  0  1  0  0  0  0  0  0  0  0  0
    1.7270   16.7320   -2.5820 C   0  0  0  0  0  0  0  0  0  0  0  0
    2.4860   15.4290   -2.2200 C   0  0  0  0  0  0  0  0  0  0  0  0
    1.4400   14.5600   -1.4830 C   0  0  1  0  0  0  0  0  0  0  0  0
    0.5950   13.9010   -2.6180 C   0  0  0  0  0  0  0  0  0  0  0  0
    2.0050   13.4930   -0.4900 C   0  0  2  0  0  0  0  0  0  0  0  0
    2.8830   12.4050   -1.1310 C   0  0  0  0  0  0  0  0  0  0  0  0
    2.1540   11.1840   -1.5880 C   0  0  0  0  0  0  0  0  0  0  0  0
    0.9000   10.8450   -1.2360 C   0  0  0  0  0  0  0  0  0  0  0  0
    0.1160   11.6770   -0.2130 C   0  0  1  0  0  0  0  0  0  0  0  0
   -0.5510   10.7330    0.8210 C   0  0  0  0  0  0  0  0  0  0  0  0
   -1.4100    9.6580    0.1620 C   0  0  0  0  0  0  0  0  0  0  0  0
   -0.5820    8.8140   -0.8030 C   0  0  2  0  0  0  0  0  0  0  0  0
    0.3770    8.0630   -0.0530 O   0  0  0  0  0  0  0  0  0  0  0  0
    0.1460    9.6590   -1.8860 C   0  0  0  0  0  0  0  0  0  0  0  0
   -0.8910   10.2310   -2.8840 C   0  0  0  0  0  0  0  0  0  0  0  0
    1.0560    8.7040   -2.7050 C   0  0  0  0  0  0  0  0  0  0  0  0
    0.9180   12.8650    0.4740 C   0  0  1  0  0  0  0  0  0  0  0  0
    1.6840   12.3370    1.7250 C   0  0  0  0  0  0  0  0  0  0  0  0
   -0.1060   13.9390    1.0010 C   0  0  0  0  0  0  0  0  0  0  0  0
   -0.5340   15.0370    0.0080 C   0  0  0  0  0  0  0  0  0  0  0  0
    0.6860   15.6720   -0.6660 C   0  0  2  0  0  0  0  0  0  0  0  0
    1.5440   16.3620    0.4480 C   0  0  0  0  0  0  0  0  0  0  0  0
    0.6088   20.0810   -1.9513 H   0  0  0  0  0  0  0  0  0  0  0  0
    1.1234   18.7506   -3.0431 H   0  0  0  0  0  0  0  0  0  0  0  0
   -0.5862   19.3021   -3.0431 H   0  0  0  0  0  0  0  0  0  0  0  0
   -1.1157   18.1301   -1.1710 H   0  0  0  0  0  0  0  0  0  0  0  0
   -0.1465   18.7678    0.7247 H   0  0  0  0  0  0  0  0  0  0  0  0
    1.1796   17.5645    0.3530 H   0  0  0  0  0  0  0  0  0  0  0  0
    2.2104   19.4979   -1.0318 H   0  0  0  0  0  0  0  0  0  0  0  0
    1.1293   20.5501   -0.0258 H   0  0  0  0  0  0  0  0  0  0  0  0
    1.8405   19.5909    1.7892 H   0  0  0  0  0  0  0  0  0  0  0  0
    4.7583   16.9866    0.1187 H   0  0  0  0  0  0  0  0  0  0  0  0
    3.4175   17.7439   -0.8061 H   0  0  0  0  0  0  0  0  0  0  0  0
    5.0472   18.4992   -0.8061 H   0  0  0  0  0  0  0  0  0  0  0  0
    3.9827   18.7239    3.1326 H   0  0  0  0  0  0  0  0  0  0  0  0
    4.6792   17.2667    2.3463 H   0  0  0  0  0  0  0  0  0  0  0  0
    5.5954   18.8118    2.3463 H   0  0  0  0  0  0  0  0  0  0  0  0
   -0.4876   16.4256   -2.3496 H   0  0  0  0  0  0  0  0  0  0  0  0
    1.5123   16.7581   -3.6605 H   0  0  0  0  0  0  0  0  0  0  0  0
    2.3287   17.6201   -2.3387 H   0  0  0  0  0  0  0  0  0  0  0  0
    2.8415   14.9214   -3.1288 H   0  0  0  0  0  0  0  0  0  0  0  0
    3.3764   15.6224   -1.6037 H   0  0  0  0  0  0  0  0  0  0  0  0
   -0.1981   13.2825   -2.1726 H   0  0  0  0  0  0  0  0  0  0  0  0
    0.1415   14.6863   -3.2406 H   0  0  0  0  0  0  0  0  0  0  0  0
    1.2462   13.2698   -3.2406 H   0  0  0  0  0  0  0  0  0  0  0  0
    2.6818   14.0908    0.1381 H   0  0  0  0  0  0  0  0  0  0  0  0
    3.3879   12.8458   -2.0032 H   0  0  0  0  0  0  0  0  0  0  0  0
    3.5749   12.0697   -0.3443 H   0  0  0  0  0  0  0  0  0  0  0  0
    2.6869   10.5047   -2.2696 H   0  0  0  0  0  0  0  0  0  0  0  0
   -0.6580   12.2106   -0.7842 H   0  0  0  0  0  0  0  0  0  0  0  0
    0.2374   10.2422    1.4106 H   0  0  0  0  0  0  0  0  0  0  0  0
   -1.2094   11.3443    1.4556 H   0  0  0  0  0  0  0  0  0  0  0  0
   -1.8306    9.0054    0.9413 H   0  0  0  0  0  0  0  0  0  0  0  0
   -2.2152   10.1497   -0.4036 H   0  0  0  0  0  0  0  0  0  0  0  0
   -1.2757    8.1489   -1.3383 H   0  0  0  0  0  0  0  0  0  0  0  0
    1.2130    8.5600   -0.0630 H   0  0  0  0  0  0  0  0  0  0  0  0
   -1.7217   10.6892   -2.3272 H   0  0  0  0  0  0  0  0  0  0  0  0
   -0.4101   10.9915   -3.5168 H   0  0  0  0  0  0  0  0  0  0  0  0
   -1.2777    9.4186   -3.5168 H   0  0  0  0  0  0  0  0  0  0  0  0
    1.6483    8.0825   -2.0173 H   0  0  0  0  0  0  0  0  0  0  0  0
    0.4320    8.0569   -3.3389 H   0  0  0  0  0  0  0  0  0  0  0  0
    1.7324    9.2961   -3.3389 H   0  0  0  0  0  0  0  0  0  0  0  0
    1.1790   12.6851    2.6381 H   0  0  0  0  0  0  0  0  0  0  0  0
    1.6970   11.2372    1.7098 H   0  0  0  0  0  0  0  0  0  0  0  0
    2.7165   12.7162    1.7098 H   0  0  0  0  0  0  0  0  0  0  0  0
   -1.0139   13.4054    1.3187 H   0  0  0  0  0  0  0  0  0  0  0  0
    0.4226   14.4697    1.8066 H   0  0  0  0  0  0  0  0  0  0  0  0
   -1.1806   14.5927   -0.7631 H   0  0  0  0  0  0  0  0  0  0  0  0
   -1.0757   15.8185    0.5611 H   0  0  0  0  0  0  0  0  0  0  0  0
    1.1701   16.0613    1.4378 H   0  0  0  0  0  0  0  0  0  0  0  0
    2.5951   16.0548    0.3443 H   0  0  0  0  0  0  0  0  0  0  0  0
    1.4694   17.4546    0.3443 H   0  0  0  0  0  0  0  0  0  0  0  0
  1  2  1  0
  2  3  1  0
  3  4  1  0
  4  5  1  0
  5  6  1  0
  6  7  1  0
  7  8  1  0
  7  9  1  0
  2 10  1  0
 10 11  1  0
 11 12  1  0
 12 13  1  0
 13 14  1  6
 13 15  1  0
 15 16  1  0
 16 17  1  0
 17 18  2  0
 18 19  1  0
 19 20  1  0
 20 21  1  0
 21 22  1  0
 22 23  1  0
 22 24  1  0
 24 25  1  0
 24 26  1  0
 19 27  1  0
 27 28  1  1
 27 29  1  0
 29 30  1  0
 30 31  1  0
 31 32  1  1
  7  5  1  0
 31 10  1  0
 31 13  1  0
 27 15  1  0
 24 18  1  0
  1 33  1  0
  1 34  1  0
  1 35  1  0
  2 36  1  1
  3 37  1  0
  3 38  1  0
  4 39  1  0
  4 40  1  0
  5 41  1  1
  8 42  1  0
  8 43  1  0
  8 44  1  0
  9 45  1  0
  9 46  1  0
  9 47  1  0
 10 48  1  6
 11 49  1  0
 11 50  1  0
 12 51  1  0
 12 52  1  0
 14 53  1  0
 14 54  1  0
 14 55  1  0
 15 56  1  1
 16 57  1  0
 16 58  1  0
 17 59  1  0
 19 60  1  6
 20 61  1  0
 20 62  1  0
 21 63  1  0
 21 64  1  0
 22 65  1  6
 23 66  1  0
 25 67  1  0
 25 68  1  0
 25 69  1  0
 26 70  1  0
 26 71  1  0
 26 72  1  0
 28 73  1  0
 28 74  1  0
 28 75  1  0
 29 76  1  0
 29 77  1  0
 30 78  1  0
 30 79  1  0
 32 80  1  0
 32 81  1  0
 32 82  1  0
M  END
>  <meeko>  (15) 
{"is_sidechain": [false], "intermolecular_energy": 2.731, "internal_energy": -0.839}

$$$$
EPH_relaxed_0001_pdb2pqr_Repair_95_r2_0001_out
     RDKit          3D

 82 86  0  0  0  0  0  0  0  0999 V2000
    1.4930   10.7060   -4.7670 C   0  0  0  0  0  0  0  0  0  0  0  0
    0.7760   10.5290   -3.4250 C   0  0  2  0  0  0  0  0  0  0  0  0
   -0.3680    9.4990   -3.5090 C   0  0  0  0  0  0  0  0  0  0  0  0
   -0.2750    8.3900   -2.4570 C   0  0  0  0  0  0  0  0  0  0  0  0
    0.0160    8.9410   -1.0950 C   0  0  2  0  0  0  0  0  0  0  0  0
   -0.3210    8.0660   -0.0100 O   0  0  0  0  0  0  0  0  0  0  0  0
   -1.0610    9.2950   -0.0870 C   0  0  0  0  0  0  0  0  0  0  0  0
   -2.5130    9.1120   -0.4010 C   0  0  0  0  0  0  0  0  0  0  0  0
   -0.7310   10.2680    1.0020 C   0  0  0  0  0  0  0  0  0  0  0  0
    0.2340   11.8710   -2.9450 C   0  0  1  0  0  0  0  0  0  0  0  0
   -1.1260   11.7370   -2.2090 C   0  0  0  0  0  0  0  0  0  0  0  0
   -1.1340   12.8070   -1.0870 C   0  0  0  0  0  0  0  0  0  0  0  0
    0.0610   13.7300   -1.4200 C   0  0  1  0  0  0  0  0  0  0  0  0
   -0.4760   14.6990   -2.5200 C   0  0  0  0  0  0  0  0  0  0  0  0
    0.6860   14.5120   -0.2190 C   0  0  2  0  0  0  0  0  0  0  0  0
   -0.2610   15.5050    0.4780 C   0  0  0  0  0  0  0  0  0  0  0  0
   -0.2430   16.8930   -0.0700 C   0  0  0  0  0  0  0  0  0  0  0  0
    0.6990   17.4000   -0.8870 C   0  0  0  0  0  0  0  0  0  0  0  0
    1.9400   16.5800   -1.2620 C   0  0  1  0  0  0  0  0  0  0  0  0
    3.2080   17.4620   -1.1150 C   0  0  0  0  0  0  0  0  0  0  0  0
    3.1090   18.7650   -1.9040 C   0  0  0  0  0  0  0  0  0  0  0  0
    1.8960   19.5790   -1.4620 C   0  0  2  0  0  0  0  0  0  0  0  0
    2.1000   20.0180   -0.1150 O   0  0  0  0  0  0  0  0  0  0  0  0
    0.5600   18.7900   -1.5570 C   0  0  0  0  0  0  0  0  0  0  0  0
    0.1860   18.5770   -3.0440 C   0  0  0  0  0  0  0  0  0  0  0  0
   -0.5620   19.6750   -0.9500 C   0  0  0  0  0  0  0  0  0  0  0  0
    2.0880   15.1740   -0.5360 C   0  0  1  0  0  0  0  0  0  0  0  0
    2.8140   15.3560    0.8320 C   0  0  0  0  0  0  0  0  0  0  0  0
    3.0080   14.2400   -1.4060 C   0  0  0  0  0  0  0  0  0  0  0  0
    2.3140   13.4030   -2.4990 C   0  0  0  0  0  0  0  0  0  0  0  0
    1.0970   12.6650   -1.9330 C   0  0  2  0  0  0  0  0  0  0  0  0
    1.6080   11.6680   -0.8390 C   0  0  0  0  0  0  0  0  0  0  0  0
    2.5467   10.9661   -4.5882 H   0  0  0  0  0  0  0  0  0  0  0  0
    1.4388    9.7675   -5.3382 H   0  0  0  0  0  0  0  0  0  0  0  0
    1.0083   11.5115   -5.3382 H   0  0  0  0  0  0  0  0  0  0  0  0
    1.5130   10.1455   -2.7040 H   0  0  0  0  0  0  0  0  0  0  0  0
   -1.3227   10.0281   -3.3726 H   0  0  0  0  0  0  0  0  0  0  0  0
   -0.2939    9.0152   -4.4941 H   0  0  0  0  0  0  0  0  0  0  0  0
   -1.2315    7.8478   -2.4252 H   0  0  0  0  0  0  0  0  0  0  0  0
    0.5497    7.7187   -2.7386 H   0  0  0  0  0  0  0  0  0  0  0  0
    0.8778    9.5044   -1.4821 H   0  0  0  0  0  0  0  0  0  0  0  0
   -3.0845    9.0400    0.5361 H   0  0  0  0  0  0  0  0  0  0  0  0
   -2.8731    9.9719   -0.9849 H   0  0  0  0  0  0  0  0  0  0  0  0
   -2.6485    8.1897   -0.9849 H   0  0  0  0  0  0  0  0  0  0  0  0
   -0.8925    9.7919    1.9804 H   0  0  0  0  0  0  0  0  0  0  0  0
    0.3215   10.5750    0.9129 H   0  0  0  0  0  0  0  0  0  0  0  0
   -1.3796   11.1520    0.9129 H   0  0  0  0  0  0  0  0  0  0  0  0
    0.1910   12.4069   -3.9047 H   0  0  0  0  0  0  0  0  0  0  0  0
   -1.9551   11.9161   -2.9093 H   0  0  0  0  0  0  0  0  0  0  0  0
   -1.2522   10.7267   -1.7926 H   0  0  0  0  0  0  0  0  0  0  0  0
   -2.0769   13.3734   -1.0973 H   0  0  0  0  0  0  0  0  0  0  0  0
   -1.0503   12.3613   -0.0848 H   0  0  0  0  0  0  0  0  0  0  0  0
   -0.9563   15.5657   -2.0424 H   0  0  0  0  0  0  0  0  0  0  0  0
    0.3606   15.0424   -3.1463 H   0  0  0  0  0  0  0  0  0  0  0  0
   -1.2106   14.1717   -3.1463 H   0  0  0  0  0  0  0  0  0  0  0  0
    0.8694   13.7119    0.5132 H   0  0  0  0  0  0  0  0  0  0  0  0
   -1.2864   15.1172    0.3883 H   0  0  0  0  0  0  0  0  0  0  0  0
    0.0904   15.5831    1.5174 H   0  0  0  0  0  0  0  0  0  0  0  0
   -1.0700   17.5585    0.2183 H   0  0  0  0  0  0  0  0  0  0  0  0
    1.8059   16.2912   -2.3149 H   0  0  0  0  0  0  0  0  0  0  0  0
    3.3481   17.7037   -0.0511 H   0  0  0  0  0  0  0  0  0  0  0  0
    4.0594   16.8925   -1.5161 H   0  0  0  0  0  0  0  0  0  0  0  0
    4.0206   19.3574   -1.7366 H   0  0  0  0  0  0  0  0  0  0  0  0
    2.9990   18.5220   -2.9712 H   0  0  0  0  0  0  0  0  0  0  0  0
    1.8054   20.4333   -2.1490 H   0  0  0  0  0  0  0  0  0  0  0  0
    1.6800   20.8890   -0.0220 H   0  0  0  0  0  0  0  0  0  0  0  0
   -0.7682   18.0335   -3.1079 H   0  0  0  0  0  0  0  0  0  0  0  0
    0.0858   19.5535   -3.5404 H   0  0  0  0  0  0  0  0  0  0  0  0
    0.9747   17.9926   -3.5404 H   0  0  0  0  0  0  0  0  0  0  0  0
   -0.5086   19.6329    0.1479 H   0  0  0  0  0  0  0  0  0  0  0  0
   -0.4299   20.7147   -1.2839 H   0  0  0  0  0  0  0  0  0  0  0  0
   -1.5424   19.3044   -1.2839 H   0  0  0  0  0  0  0  0  0  0  0  0
    2.1022   15.1776    1.6514 H   0  0  0  0  0  0  0  0  0  0  0  0
    3.6444   14.6382    0.9048 H   0  0  0  0  0  0  0  0  0  0  0  0
    3.2076   16.3806    0.9048 H   0  0  0  0  0  0  0  0  0  0  0  0
    3.7567   14.8769   -1.8998 H   0  0  0  0  0  0  0  0  0  0  0  0
    3.4215   13.5049   -0.6999 H   0  0  0  0  0  0  0  0  0  0  0  0
    1.9855   14.0704   -3.3093 H   0  0  0  0  0  0  0  0  0  0  0  0
    3.0299   12.6595   -2.8795 H   0  0  0  0  0  0  0  0  0  0  0  0
    1.3972   12.0793    0.1592 H   0  0  0  0  0  0  0  0  0  0  0  0
    1.0936   10.7025   -0.9538 H   0  0  0  0  0  0  0  0  0  0  0  0
    2.6922   11.5218   -0.9538 H   0  0  0  0  0  0  0  0  0  0  0  0
  1  2  1  0
  2  3  1  0
  3  4  1  0
  4  5  1  0
  5  6  1  0
  6  7  1  0
  7  8  1  0
  7  9  1  0
  2 10  1  0
 10 11  1  0
 11 12  1  0
 12 13  1  0
 13 14  1  6
 13 15  1  0
 15 16  1  0
 16 17  1  0
 17 18  2  0
 18 19  1  0
 19 20  1  0
 20 21  1  0
 21 22  1  0
 22 23  1  0
 22 24  1  0
 24 25  1  0
 24 26  1  0
 19 27  1  0
 27 28  1  1
 27 29  1  0
 29 30  1  0
 30 31  1  0
 31 32  1  1
  7  5  1  0
 31 10  1  0
 31 13  1  0
 27 15  1  0
 24 18  1  0
  1 33  1  0
  1 34  1  0
  1 35  1  0
  2 36  1  1
  3 37  1  0
  3 38  1  0
  4 39  1  0
  4 40  1  0
  5 41  1  6
  8 42  1  0
  8 43  1  0
  8 44  1  0
  9 45  1  0
  9 46  1  0
  9 47  1  0
 10 48  1  6
 11 49  1  0
 11 50  1  0
 12 51  1  0
 12 52  1  0
 14 53  1  0
 14 54  1  0
 14 55  1  0
 15 56  1  1
 16 57  1  0
 16 58  1  0
 17 59  1  0
 19 60  1  6
 20 61  1  0
 20 62  1  0
 21 63  1  0
 21 64  1  0
 22 65  1  6
 23 66  1  0
 25 67  1  0
 25 68  1  0
 25 69  1  0
 26 70  1  0
 26 71  1  0
 26 72  1  0
 28 73  1  0
 28 74  1  0
 28 75  1  0
 29 76  1  0
 29 77  1  0
 30 78  1  0
 30 79  1  0
 32 80  1  0
 32 81  1  0
 32 82  1  0
M  END
>  <meeko>  (16) 
{"is_sidechain": [false], "intermolecular_energy": 2.731, "internal_energy": -0.839}

$$$$
EPH_relaxed_0001_pdb2pqr_Repair_95_r2_0001_out
     RDKit          3D

 82 86  0  0  0  0  0  0  0  0999 V2000
   -2.1520    9.6700   -0.3110 C   0  0  0  0  0  0  0  0  0  0  0  0
   -1.5410   10.5350   -1.4170 C   0  0  2  0  0  0  0  0  0  0  0  0
   -0.5540    9.7410   -2.2960 C   0  0  0  0  0  0  0  0  0  0  0  0
    0.8480    9.6200   -1.6930 C   0  0  0  0  0  0  0  0  0  0  0  0
    1.9050   10.0750   -2.6530 C   0  0  2  0  0  0  0  0  0  0  0  0
    3.0280    9.1920   -2.7690 O   0  0  0  0  0  0  0  0  0  0  0  0
    3.2990   10.4930   -2.2240 C   0  0  0  0  0  0  0  0  0  0  0  0
    3.7110   10.4770   -0.7860 C   0  0  0  0  0  0  0  0  0  0  0  0
    4.0940   11.3750   -3.1360 C   0  0  0  0  0  0  0  0  0  0  0  0
   -0.8390   11.7410   -0.8040 C   0  0  1  0  0  0  0  0  0  0  0  0
    0.3200   11.3400    0.1460 C   0  0  0  0  0  0  0  0  0  0  0  0
    1.4220   12.4180   -0.0120 C   0  0  0  0  0  0  0  0  0  0  0  0
    0.7350   13.5680   -0.7850 C   0  0  1  0  0  0  0  0  0  0  0  0
   -0.0610   14.3600    0.2990 C   0  0  0  0  0  0  0  0  0  0  0  0
    1.6760   14.5050   -1.6110 C   0  0  2  0  0  0  0  0  0  0  0  0
    2.7060   15.2910   -0.7810 C   0  0  0  0  0  0  0  0  0  0  0  0
    2.2520   16.6320   -0.3060 C   0  0  0  0  0  0  0  0  0  0  0  0
    1.1820   17.3040   -0.7680 C   0  0  0  0  0  0  0  0  0  0  0  0
    0.3570   16.7610   -1.9420 C   0  0  1  0  0  0  0  0  0  0  0  0
    0.0910   17.9020   -2.9600 C   0  0  0  0  0  0  0  0  0  0  0  0
   -0.5500   19.1250   -2.3120 C   0  0  0  0  0  0  0  0  0  0  0  0
    0.3270   19.6710   -1.1880 C   0  0  2  0  0  0  0  0  0  0  0  0
    1.5350   20.1870   -1.7550 O   0  0  0  0  0  0  0  0  0  0  0  0
    0.6690   18.6080   -0.1070 C   0  0  0  0  0  0  0  0  0  0  0  0
   -0.6010   18.2700    0.7120 C   0  0  0  0  0  0  0  0  0  0  0  0
    1.6720   19.2470    0.8900 C   0  0  0  0  0  0  0  0  0  0  0  0
    0.9190   15.4450   -2.6340 C   0  0  1  0  0  0  0  0  0  0  0  0
    1.9520   15.8240   -3.7390 C   0  0  0  0  0  0  0  0  0  0  0  0
   -0.2620   14.7050   -3.3660 C   0  0  0  0  0  0  0  0  0  0  0  0
   -1.0790   13.7030   -2.5280 C   0  0  0  0  0  0  0  0  0  0  0  0
   -0.1580   12.7370   -1.7770 C   0  0  2  0  0  0  0  0  0  0  0  0
    0.6390   11.9100   -2.8420 C   0  0  0  0  0  0  0  0  0  0  0  0
   -1.8661   10.0747    0.6711 H   0  0  0  0  0  0  0  0  0  0  0  0
   -3.2480    9.6751   -0.4048 H   0  0  0  0  0  0  0  0  0  0  0  0
   -1.7808    8.6388   -0.4048 H   0  0  0  0  0  0  0  0  0  0  0  0
   -2.3624   10.8728   -2.0659 H   0  0  0  0  0  0  0  0  0  0  0  0
   -0.9573    8.7282   -2.4429 H   0  0  0  0  0  0  0  0  0  0  0  0
   -0.4503   10.2931   -3.2417 H   0  0  0  0  0  0  0  0  0  0  0  0
    0.9004   10.2391   -0.7853 H   0  0  0  0  0  0  0  0  0  0  0  0
    1.0304    8.5609   -1.4586 H   0  0  0  0  0  0  0  0  0  0  0  0
    1.1515   10.5618   -3.2896 H   0  0  0  0  0  0  0  0  0  0  0  0
    2.8158   10.5118   -0.1477 H   0  0  0  0  0  0  0  0  0  0  0  0
    4.2752    9.5563   -0.5765 H   0  0  0  0  0  0  0  0  0  0  0  0
    4.3449   11.3512   -0.5765 H   0  0  0  0  0  0  0  0  0  0  0  0
    4.7116   12.0602   -2.5369 H   0  0  0  0  0  0  0  0  0  0  0  0
    4.7444   10.7551   -3.7706 H   0  0  0  0  0  0  0  0  0  0  0  0
    3.4101   11.9577   -3.7706 H   0  0  0  0  0  0  0  0  0  0  0  0
   -1.6965   12.2220   -0.3107 H   0  0  0  0  0  0  0  0  0  0  0  0
   -0.0358   11.3119    1.1865 H   0  0  0  0  0  0  0  0  0  0  0  0
    0.7067   10.3408   -0.1032 H   0  0  0  0  0  0  0  0  0  0  0  0
    1.7697   12.7650    0.9722 H   0  0  0  0  0  0  0  0  0  0  0  0
    2.3090   12.0339   -0.5371 H   0  0  0  0  0  0  0  0  0  0  0  0
    0.2626   14.0380    1.2998 H   0  0  0  0  0  0  0  0  0  0  0  0
    0.1302   15.4368    0.1806 H   0  0  0  0  0  0  0  0  0  0  0  0
   -1.1368   14.1634    0.1806 H   0  0  0  0  0  0  0  0  0  0  0  0
    2.2585   13.7878   -2.2080 H   0  0  0  0  0  0  0  0  0  0  0  0
    2.9637   14.6870    0.1015 H   0  0  0  0  0  0  0  0  0  0  0  0
    3.5583   15.4777   -1.4509 H   0  0  0  0  0  0  0  0  0  0  0  0
    2.8425   17.1109    0.4890 H   0  0  0  0  0  0  0  0  0  0  0  0
   -0.5944   16.4159   -1.5111 H   0  0  0  0  0  0  0  0  0  0  0  0
    1.0482   18.2027   -3.4110 H   0  0  0  0  0  0  0  0  0  0  0  0
   -0.6096   17.5186   -3.7164 H   0  0  0  0  0  0  0  0  0  0  0  0
   -0.6858   19.9064   -3.0742 H   0  0  0  0  0  0  0  0  0  0  0  0
   -1.5203   18.8285   -1.8871 H   0  0  0  0  0  0  0  0  0  0  0  0
   -0.2427   20.4629   -0.6798 H   0  0  0  0  0  0  0  0  0  0  0  0
    2.2700   19.9110   -1.1820 H   0  0  0  0  0  0  0  0  0  0  0  0
   -0.3717   18.3310    1.7861 H   0  0  0  0  0  0  0  0  0  0  0  0
   -1.3977   18.9874    0.4658 H   0  0  0  0  0  0  0  0  0  0  0  0
   -0.9358   17.2515    0.4658 H   0  0  0  0  0  0  0  0  0  0  0  0
    1.3471   19.0400    1.9203 H   0  0  0  0  0  0  0  0  0  0  0  0
    2.6725   18.8195    0.7282 H   0  0  0  0  0  0  0  0  0  0  0  0
    1.7074   20.3345    0.7282 H   0  0  0  0  0  0  0  0  0  0  0  0
    2.8848   16.1662   -3.2670 H   0  0  0  0  0  0  0  0  0  0  0  0
    2.1593   14.9434   -4.3647 H   0  0  0  0  0  0  0  0  0  0  0  0
    1.5406   16.6297   -4.3647 H   0  0  0  0  0  0  0  0  0  0  0  0
   -0.9567   15.4728   -3.7372 H   0  0  0  0  0  0  0  0  0  0  0  0
    0.2184   14.1008   -4.1496 H   0  0  0  0  0  0  0  0  0  0  0  0
   -1.6900   14.2568   -1.8000 H   0  0  0  0  0  0  0  0  0  0  0  0
   -1.7207   13.1205   -3.2054 H   0  0  0  0  0  0  0  0  0  0  0  0
    1.3149   11.2087   -2.3308 H   0  0  0  0  0  0  0  0  0  0  0  0
   -0.0658   11.3470   -3.4715 H   0  0  0  0  0  0  0  0  0  0  0  0
    1.2276   12.5935   -3.4715 H   0  0  0  0  0  0  0  0  0  0  0  0
  1  2  1  0
  2  3  1  0
  3  4  1  0
  4  5  1  0
  5  6  1  0
  6  7  1  0
  7  8  1  0
  7  9  1  0
  2 10  1  0
 10 11  1  0
 11 12  1  0
 12 13  1  0
 13 14  1  1
 13 15  1  0
 15 16  1  0
 16 17  1  0
 17 18  2  0
 18 19  1  0
 19 20  1  0
 20 21  1  0
 21 22  1  0
 22 23  1  0
 22 24  1  0
 24 25  1  0
 24 26  1  0
 19 27  1  0
 27 28  1  6
 27 29  1  0
 29 30  1  0
 30 31  1  0
 31 32  1  6
  7  5  1  0
 31 10  1  0
 31 13  1  0
 27 15  1  0
 24 18  1  0
  1 33  1  0
  1 34  1  0
  1 35  1  0
  2 36  1  6
  3 37  1  0
  3 38  1  0
  4 39  1  0
  4 40  1  0
  5 41  1  6
  8 42  1  0
  8 43  1  0
  8 44  1  0
  9 45  1  0
  9 46  1  0
  9 47  1  0
 10 48  1  1
 11 49  1  0
 11 50  1  0
 12 51  1  0
 12 52  1  0
 14 53  1  0
 14 54  1  0
 14 55  1  0
 15 56  1  6
 16 57  1  0
 16 58  1  0
 17 59  1  0
 19 60  1  1
 20 61  1  0
 20 62  1  0
 21 63  1  0
 21 64  1  0
 22 65  1  1
 23 66  1  0
 25 67  1  0
 25 68  1  0
 25 69  1  0
 26 70  1  0
 26 71  1  0
 26 72  1  0
 28 73  1  0
 28 74  1  0
 28 75  1  0
 29 76  1  0
 29 77  1  0
 30 78  1  0
 30 79  1  0
 32 80  1  0
 32 81  1  0
 32 82  1  0
M  END
>  <meeko>  (17) 
{"is_sidechain": [false], "intermolecular_energy": 2.731, "internal_energy": -0.839}

$$$$
EPH_relaxed_0001_pdb2pqr_Repair_95_r2_0001_out
     RDKit          3D

 82 86  0  0  0  0  0  0  0  0999 V2000
    3.1220   14.8390   -7.5450 C   0  0  0  0  0  0  0  0  0  0  0  0
    1.5980   14.8820   -7.4030 C   0  0  2  0  0  0  0  0  0  0  0  0
    0.9880   16.1300   -8.0730 C   0  0  0  0  0  0  0  0  0  0  0  0
    1.9160   16.7990   -9.0900 C   0  0  0  0  0  0  0  0  0  0  0  0
    1.5850   16.3920  -10.4940 C   0  0  2  0  0  0  0  0  0  0  0  0
    0.9990   15.0900  -10.6180 O   0  0  0  0  0  0  0  0  0  0  0  0
    2.2890   15.2660  -11.2270 C   0  0  0  0  0  0  0  0  0  0  0  0
    3.3810   14.4750  -10.5780 C   0  0  0  0  0  0  0  0  0  0  0  0
    2.2550   15.2550  -12.7240 C   0  0  0  0  0  0  0  0  0  0  0  0
    1.2110   14.8410   -5.9290 C   0  0  1  0  0  0  0  0  0  0  0  0
   -0.0470   15.6930   -5.6170 C   0  0  0  0  0  0  0  0  0  0  0  0
   -0.8250   14.9510   -4.5000 C   0  0  0  0  0  0  0  0  0  0  0  0
    0.1670   13.8850   -3.9770 C   0  0  1  0  0  0  0  0  0  0  0  0
    1.1000   14.6550   -2.9910 C   0  0  0  0  0  0  0  0  0  0  0  0
   -0.4660   12.6230   -3.3060 C   0  0  2  0  0  0  0  0  0  0  0  0
   -1.2860   12.9010   -2.0350 C   0  0  0  0  0  0  0  0  0  0  0  0
   -0.5180   12.8490   -0.7560 C   0  0  0  0  0  0  0  0  0  0  0  0
    0.7070   12.3130   -0.6010 C   0  0  0  0  0  0  0  0  0  0  0  0
    1.4060   11.5960   -1.7630 C   0  0  1  0  0  0  0  0  0  0  0  0
    1.9970   10.2520   -1.2610 C   0  0  0  0  0  0  0  0  0  0  0  0
    2.9100   10.4300   -0.0520 C   0  0  0  0  0  0  0  0  0  0  0  0
    2.1640   11.0940    1.1020 C   0  0  2  0  0  0  0  0  0  0  0  0
    1.1540   10.1970    1.5740 O   0  0  0  0  0  0  0  0  0  0  0  0
    1.5160   12.4520    0.7120 C   0  0  0  0  0  0  0  0  0  0  0  0
    2.6230   13.5130    0.4910 C   0  0  0  0  0  0  0  0  0  0  0  0
    0.6770   12.9460    1.9220 C   0  0  0  0  0  0  0  0  0  0  0  0
    0.5470   11.4270   -3.0900 C   0  0  1  0  0  0  0  0  0  0  0  0
   -0.3090   10.1260   -3.0080 C   0  0  0  0  0  0  0  0  0  0  0  0
    1.5220   11.2400   -4.3120 C   0  0  0  0  0  0  0  0  0  0  0  0
    2.0180   12.5220   -5.0080 C   0  0  0  0  0  0  0  0  0  0  0  0
    0.8500   13.4590   -5.3270 C   0  0  2  0  0  0  0  0  0  0  0  0
   -0.0950   12.7200   -6.3360 C   0  0  0  0  0  0  0  0  0  0  0  0
    3.5831   14.8260   -6.5464 H   0  0  0  0  0  0  0  0  0  0  0  0
    3.4135   13.9323   -8.0953 H   0  0  0  0  0  0  0  0  0  0  0  0
    3.4642   15.7278   -8.0953 H   0  0  0  0  0  0  0  0  0  0  0  0
    1.1928   13.9985   -7.9180 H   0  0  0  0  0  0  0  0  0  0  0  0
    0.0648   15.8300   -8.5903 H   0  0  0  0  0  0  0  0  0  0  0  0
    0.8029   16.8645   -7.2754 H   0  0  0  0  0  0  0  0  0  0  0  0
    1.8137   17.8907   -9.0018 H   0  0  0  0  0  0  0  0  0  0  0  0
    2.9468   16.4810   -8.8747 H   0  0  0  0  0  0  0  0  0  0  0  0
    1.3761   17.4357  -10.7717 H   0  0  0  0  0  0  0  0  0  0  0  0
    3.2843   14.5450   -9.4845 H   0  0  0  0  0  0  0  0  0  0  0  0
    3.3038   13.4219  -10.8862 H   0  0  0  0  0  0  0  0  0  0  0  0
    4.3576   14.8766  -10.8862 H   0  0  0  0  0  0  0  0  0  0  0  0
    1.2602   14.9332  -13.0658 H   0  0  0  0  0  0  0  0  0  0  0  0
    2.4634   16.2664  -13.1029 H   0  0  0  0  0  0  0  0  0  0  0  0
    3.0164   14.5573  -13.1029 H   0  0  0  0  0  0  0  0  0  0  0  0
    2.1449   15.2138   -5.4830 H   0  0  0  0  0  0  0  0  0  0  0  0
    0.2499   16.6940   -5.2708 H   0  0  0  0  0  0  0  0  0  0  0  0
   -0.6702   15.8199   -6.5145 H   0  0  0  0  0  0  0  0  0  0  0  0
   -1.1078   15.6463   -3.6959 H   0  0  0  0  0  0  0  0  0  0  0  0
   -1.7609   14.5055   -4.8682 H   0  0  0  0  0  0  0  0  0  0  0  0
    0.8139   14.4188   -1.9555 H   0  0  0  0  0  0  0  0  0  0  0  0
    2.1436   14.3517   -3.1613 H   0  0  0  0  0  0  0  0  0  0  0  0
    1.0002   15.7371   -3.1613 H   0  0  0  0  0  0  0  0  0  0  0  0
   -1.1925   12.2936   -4.0634 H   0  0  0  0  0  0  0  0  0  0  0  0
   -1.7253   13.9053   -2.1270 H   0  0  0  0  0  0  0  0  0  0  0  0
   -2.0338   12.0966   -1.9736 H   0  0  0  0  0  0  0  0  0  0  0  0
   -0.9932   13.2855    0.1349 H   0  0  0  0  0  0  0  0  0  0  0  0
    2.2181   12.2628   -2.0882 H   0  0  0  0  0  0  0  0  0  0  0  0
    1.1683    9.5847   -0.9819 H   0  0  0  0  0  0  0  0  0  0  0  0
    2.6013    9.8276   -2.0763 H   0  0  0  0  0  0  0  0  0  0  0  0
    3.2724    9.4438    0.2737 H   0  0  0  0  0  0  0  0  0  0  0  0
    3.7538   11.0737   -0.3411 H   0  0  0  0  0  0  0  0  0  0  0  0
    2.9007   11.3128    1.8890 H   0  0  0  0  0  0  0  0  0  0  0  0
    0.4820   10.7270    2.0360 H   0  0  0  0  0  0  0  0  0  0  0  0
    2.9918   13.8665    1.4652 H   0  0  0  0  0  0  0  0  0  0  0  0
    3.4531   13.0645   -0.0745 H   0  0  0  0  0  0  0  0  0  0  0  0
    2.2101   14.3613   -0.0745 H   0  0  0  0  0  0  0  0  0  0  0  0
    1.1752   12.6527    2.8578 H   0  0  0  0  0  0  0  0  0  0  0  0
    0.5865   14.0416    1.8826 H   0  0  0  0  0  0  0  0  0  0  0  0
   -0.3249   12.4937    1.8826 H   0  0  0  0  0  0  0  0  0  0  0  0
   -0.4803    9.8657   -1.9531 H   0  0  0  0  0  0  0  0  0  0  0  0
   -1.2756   10.2910   -3.5065 H   0  0  0  0  0  0  0  0  0  0  0  0
    0.2251    9.3037   -3.5065 H   0  0  0  0  0  0  0  0  0  0  0  0
    2.4061   10.6937   -3.9516 H   0  0  0  0  0  0  0  0  0  0  0  0
    0.9308   10.7098   -5.0732 H   0  0  0  0  0  0  0  0  0  0  0  0
    2.7251   13.0413   -4.3443 H   0  0  0  0  0  0  0  0  0  0  0  0
    2.5102   12.2414   -5.9508 H   0  0  0  0  0  0  0  0  0  0  0  0
   -0.8419   12.1359   -5.7783 H   0  0  0  0  0  0  0  0  0  0  0  0
   -0.6064   13.4603   -6.9689 H   0  0  0  0  0  0  0  0  0  0  0  0
    0.5002   12.0453   -6.9689 H   0  0  0  0  0  0  0  0  0  0  0  0
  1  2  1  0
  2  3  1  0
  3  4  1  0
  4  5  1  0
  5  6  1  0
  6  7  1  0
  7  8  1  0
  7  9  1  0
  2 10  1  0
 10 11  1  0
 11 12  1  0
 12 13  1  0
 13 14  1  1
 13 15  1  0
 15 16  1  0
 16 17  1  0
 17 18  2  0
 18 19  1  0
 19 20  1  0
 20 21  1  0
 21 22  1  0
 22 23  1  0
 22 24  1  0
 24 25  1  0
 24 26  1  0
 19 27  1  0
 27 28  1  1
 27 29  1  0
 29 30  1  0
 30 31  1  0
 31 32  1  6
  7  5  1  0
 31 10  1  0
 31 13  1  0
 27 15  1  0
 24 18  1  0
  1 33  1  0
  1 34  1  0
  1 35  1  0
  2 36  1  6
  3 37  1  0
  3 38  1  0
  4 39  1  0
  4 40  1  0
  5 41  1  6
  8 42  1  0
  8 43  1  0
  8 44  1  0
  9 45  1  0
  9 46  1  0
  9 47  1  0
 10 48  1  1
 11 49  1  0
 11 50  1  0
 12 51  1  0
 12 52  1  0
 14 53  1  0
 14 54  1  0
 14 55  1  0
 15 56  1  6
 16 57  1  0
 16 58  1  0
 17 59  1  0
 19 60  1  6
 20 61  1  0
 20 62  1  0
 21 63  1  0
 21 64  1  0
 22 65  1  1
 23 66  1  0
 25 67  1  0
 25 68  1  0
 25 69  1  0
 26 70  1  0
 26 71  1  0
 26 72  1  0
 28 73  1  0
 28 74  1  0
 28 75  1  0
 29 76  1  0
 29 77  1  0
 30 78  1  0
 30 79  1  0
 32 80  1  0
 32 81  1  0
 32 82  1  0
M  END
>  <meeko>  (18) 
{"is_sidechain": [false], "intermolecular_energy": 2.731, "internal_energy": -0.839}

$$$$
EPH_relaxed_0001_pdb2pqr_Repair_95_r2_0001_out
     RDKit          3D

 82 86  0  0  0  0  0  0  0  0999 V2000
    3.4760   17.5630   -0.4840 C   0  0  0  0  0  0  0  0  0  0  0  0
    2.3190   17.1760   -1.4100 C   0  0  2  0  0  0  0  0  0  0  0  0
    0.9500   17.5860   -0.8310 C   0  0  0  0  0  0  0  0  0  0  0  0
    1.0080   18.8240    0.0680 C   0  0  0  0  0  0  0  0  0  0  0  0
   -0.1720   19.7220   -0.1480 C   0  0  2  0  0  0  0  0  0  0  0  0
   -0.7960   20.1910    1.0540 O   0  0  0  0  0  0  0  0  0  0  0  0
   -1.5940   19.3380    0.2180 C   0  0  0  0  0  0  0  0  0  0  0  0
   -1.9100   18.0100    0.8290 C   0  0  0  0  0  0  0  0  0  0  0  0
   -2.7240   20.0470   -0.4620 C   0  0  0  0  0  0  0  0  0  0  0  0
    2.3450   15.6750   -1.6730 C   0  0  1  0  0  0  0  0  0  0  0  0
    3.7800   15.1340   -1.9110 C   0  0  0  0  0  0  0  0  0  0  0  0
    3.8280   13.7100   -1.3010 C   0  0  0  0  0  0  0  0  0  0  0  0
    2.3480   13.3500   -1.0320 C   0  0  1  0  0  0  0  0  0  0  0  0
    1.7940   12.8760   -2.4120 C   0  0  0  0  0  0  0  0  0  0  0  0
    2.0870   12.2930    0.0890 C   0  0  2  0  0  0  0  0  0  0  0  0
    2.6780   10.8980   -0.1790 C   0  0  0  0  0  0  0  0  0  0  0  0
    1.7750    9.9490   -0.8950 C   0  0  0  0  0  0  0  0  0  0  0  0
    0.4470   10.1030   -1.0540 C   0  0  0  0  0  0  0  0  0  0  0  0
   -0.2940   11.2760   -0.4010 C   0  0  1  0  0  0  0  0  0  0  0  0
   -1.5830   10.7560    0.2870 C   0  0  0  0  0  0  0  0  0  0  0  0
   -2.4730    9.9610   -0.6640 C   0  0  0  0  0  0  0  0  0  0  0  0
   -1.7190    8.7690   -1.2480 C   0  0  2  0  0  0  0  0  0  0  0  0
   -1.4380    7.8410   -0.1960 O   0  0  0  0  0  0  0  0  0  0  0  0
   -0.3960    9.1700   -1.9580 C   0  0  0  0  0  0  0  0  0  0  0  0
   -0.7180    9.9260   -3.2710 C   0  0  0  0  0  0  0  0  0  0  0  0
    0.3350    7.8660   -2.3770 C   0  0  0  0  0  0  0  0  0  0  0  0
    0.5770   12.2010    0.5550 C   0  0  1  0  0  0  0  0  0  0  0  0
    0.5910   11.6100    1.9980 C   0  0  0  0  0  0  0  0  0  0  0  0
   -0.1030   13.6160    0.6610 C   0  0  0  0  0  0  0  0  0  0  0  0
    0.2860   14.6560   -0.4070 C   0  0  0  0  0  0  0  0  0  0  0  0
    1.8080   14.7470   -0.5540 C   0  0  2  0  0  0  0  0  0  0  0  0
    2.3920   15.2430    0.8120 C   0  0  0  0  0  0  0  0  0  0  0  0
    3.1584   17.4568    0.5638 H   0  0  0  0  0  0  0  0  0  0  0  0
    4.3352   16.9033   -0.6754 H   0  0  0  0  0  0  0  0  0  0  0  0
    3.7654   18.6069   -0.6754 H   0  0  0  0  0  0  0  0  0  0  0  0
    2.4541   17.7219   -2.3554 H   0  0  0  0  0  0  0  0  0  0  0  0
    0.2678   17.7962   -1.6679 H   0  0  0  0  0  0  0  0  0  0  0  0
    0.6021   16.7506   -0.2057 H   0  0  0  0  0  0  0  0  0  0  0  0
    1.0221   18.5007    1.1193 H   0  0  0  0  0  0  0  0  0  0  0  0
    1.9184   19.3879   -0.1835 H   0  0  0  0  0  0  0  0  0  0  0  0
    0.2703   20.1191   -1.0736 H   0  0  0  0  0  0  0  0  0  0  0  0
   -1.8894   18.0966    1.9254 H   0  0  0  0  0  0  0  0  0  0  0  0
   -2.9103   17.6862    0.5055 H   0  0  0  0  0  0  0  0  0  0  0  0
   -1.1628   17.2704    0.5055 H   0  0  0  0  0  0  0  0  0  0  0  0
   -3.3997   20.4709    0.2955 H   0  0  0  0  0  0  0  0  0  0  0  0
   -2.3239   20.8563   -1.0905 H   0  0  0  0  0  0  0  0  0  0  0  0
   -3.2786   19.3347   -1.0905 H   0  0  0  0  0  0  0  0  0  0  0  0
    1.6817   15.6307   -2.5494 H   0  0  0  0  0  0  0  0  0  0  0  0
    3.9949   15.0917   -2.9890 H   0  0  0  0  0  0  0  0  0  0  0  0
    4.5312   15.7887   -1.4451 H   0  0  0  0  0  0  0  0  0  0  0  0
    4.2779   12.9991   -2.0097 H   0  0  0  0  0  0  0  0  0  0  0  0
    4.4399   13.6680   -0.3879 H   0  0  0  0  0  0  0  0  0  0  0  0
    0.9671   12.1685   -2.2517 H   0  0  0  0  0  0  0  0  0  0  0  0
    1.4283   13.7452   -2.9784 H   0  0  0  0  0  0  0  0  0  0  0  0
    2.5961   12.3803   -2.9784 H   0  0  0  0  0  0  0  0  0  0  0  0
    2.6580   12.7019    0.9356 H   0  0  0  0  0  0  0  0  0  0  0  0
    3.5871   11.0249   -0.7852 H   0  0  0  0  0  0  0  0  0  0  0  0
    2.8655   10.4523    0.8090 H   0  0  0  0  0  0  0  0  0  0  0  0
    2.2332    9.0482   -1.3292 H   0  0  0  0  0  0  0  0  0  0  0  0
   -0.5583   11.9616   -1.2196 H   0  0  0  0  0  0  0  0  0  0  0  0
   -1.2968   10.1070    1.1278 H   0  0  0  0  0  0  0  0  0  0  0  0
   -2.1560   11.6308    0.6282 H   0  0  0  0  0  0  0  0  0  0  0  0
   -3.3526    9.5960   -0.1135 H   0  0  0  0  0  0  0  0  0  0  0  0
   -2.7820   10.6196   -1.4891 H   0  0  0  0  0  0  0  0  0  0  0  0
   -2.3626    8.3155   -2.0162 H   0  0  0  0  0  0  0  0  0  0  0  0
   -2.2350    7.3010   -0.0590 H   0  0  0  0  0  0  0  0  0  0  0  0
   -1.1387   10.9138   -3.0316 H   0  0  0  0  0  0  0  0  0  0  0  0
    0.2043   10.0525   -3.8569 H   0  0  0  0  0  0  0  0  0  0  0  0
   -1.4483    9.3486   -3.8569 H   0  0  0  0  0  0  0  0  0  0  0  0
    0.6445    7.3139   -1.4773 H   0  0  0  0  0  0  0  0  0  0  0  0
   -0.3442    7.2409   -2.9753 H   0  0  0  0  0  0  0  0  0  0  0  0
    1.2227    8.1193   -2.9753 H   0  0  0  0  0  0  0  0  0  0  0  0
    0.5716   12.4304    2.7305 H   0  0  0  0  0  0  0  0  0  0  0  0
   -0.2922   10.9701    2.1407 H   0  0  0  0  0  0  0  0  0  0  0  0
    1.5035   11.0126    2.1407 H   0  0  0  0  0  0  0  0  0  0  0  0
   -1.1912   13.4675    0.6000 H   0  0  0  0  0  0  0  0  0  0  0  0
    0.2526   14.0353    1.6137 H   0  0  0  0  0  0  0  0  0  0  0  0
   -0.1519   14.3618   -1.3722 H   0  0  0  0  0  0  0  0  0  0  0  0
   -0.0959   15.6393   -0.0950 H   0  0  0  0  0  0  0  0  0  0  0  0
    1.8393   14.7736    1.6391 H   0  0  0  0  0  0  0  0  0  0  0  0
    3.4548   14.9673    0.8781 H   0  0  0  0  0  0  0  0  0  0  0  0
    2.2920   16.3364    0.8781 H   0  0  0  0  0  0  0  0  0  0  0  0
  1  2  1  0
  2  3  1  0
  3  4  1  0
  4  5  1  0
  5  6  1  0
  6  7  1  0
  7  8  1  0
  7  9  1  0
  2 10  1  0
 10 11  1  0
 11 12  1  0
 12 13  1  0
 13 14  1  6
 13 15  1  0
 15 16  1  0
 16 17  1  0
 17 18  2  0
 18 19  1  0
 19 20  1  0
 20 21  1  0
 21 22  1  0
 22 23  1  0
 22 24  1  0
 24 25  1  0
 24 26  1  0
 19 27  1  0
 27 28  1  1
 27 29  1  0
 29 30  1  0
 30 31  1  0
 31 32  1  1
  7  5  1  0
 31 10  1  0
 31 13  1  0
 27 15  1  0
 24 18  1  0
  1 33  1  0
  1 34  1  0
  1 35  1  0
  2 36  1  6
  3 37  1  0
  3 38  1  0
  4 39  1  0
  4 40  1  0
  5 41  1  6
  8 42  1  0
  8 43  1  0
  8 44  1  0
  9 45  1  0
  9 46  1  0
  9 47  1  0
 10 48  1  6
 11 49  1  0
 11 50  1  0
 12 51  1  0
 12 52  1  0
 14 53  1  0
 14 54  1  0
 14 55  1  0
 15 56  1  1
 16 57  1  0
 16 58  1  0
 17 59  1  0
 19 60  1  6
 20 61  1  0
 20 62  1  0
 21 63  1  0
 21 64  1  0
 22 65  1  6
 23 66  1  0
 25 67  1  0
 25 68  1  0
 25 69  1  0
 26 70  1  0
 26 71  1  0
 26 72  1  0
 28 73  1  0
 28 74  1  0
 28 75  1  0
 29 76  1  0
 29 77  1  0
 30 78  1  0
 30 79  1  0
 32 80  1  0
 32 81  1  0
 32 82  1  0
M  END
>  <meeko>  (19) 
{"is_sidechain": [false], "intermolecular_energy": 2.731, "internal_energy": -0.839}

$$$$
EPH_relaxed_0001_pdb2pqr_Repair_95_r2_0001_out
     RDKit          3D

 82 86  0  0  0  0  0  0  0  0999 V2000
    3.6790    9.5490    0.0610 C   0  0  0  0  0  0  0  0  0  0  0  0
    2.2780   10.0280   -0.3280 C   0  0  2  0  0  0  0  0  0  0  0  0
    1.5050    8.9680   -1.1370 C   0  0  0  0  0  0  0  0  0  0  0  0
    0.1630    8.5760   -0.5140 C   0  0  0  0  0  0  0  0  0  0  0  0
   -0.8190    8.1220   -1.5520 C   0  0  2  0  0  0  0  0  0  0  0  0
   -1.3510    9.1700   -2.3710 O   0  0  0  0  0  0  0  0  0  0  0  0
   -2.2910    8.4860   -1.5270 C   0  0  0  0  0  0  0  0  0  0  0  0
   -2.8650    9.3400   -0.4400 C   0  0  0  0  0  0  0  0  0  0  0  0
   -3.2560    7.6200   -2.2750 C   0  0  0  0  0  0  0  0  0  0  0  0
    2.3760   11.3230   -1.1260 C   0  0  1  0  0  0  0  0  0  0  0  0
    2.2000   11.1000   -2.6520 C   0  0  0  0  0  0  0  0  0  0  0  0
    1.4560   12.3430   -3.2040 C   0  0  0  0  0  0  0  0  0  0  0  0
    1.5230   13.3780   -2.0570 C   0  0  1  0  0  0  0  0  0  0  0  0
    2.9420   14.0180   -2.1760 C   0  0  0  0  0  0  0  0  0  0  0  0
    0.3990   14.4650   -2.0410 C   0  0  2  0  0  0  0  0  0  0  0  0
    0.3730   15.3950   -3.2670 C   0  0  0  0  0  0  0  0  0  0  0  0
    1.1890   16.6390   -3.1410 C   0  0  0  0  0  0  0  0  0  0  0  0
    1.6840   17.1370   -1.9930 C   0  0  0  0  0  0  0  0  0  0  0  0
    1.3530   16.4850   -0.6440 C   0  0  1  0  0  0  0  0  0  0  0  0
    0.9530   17.5830    0.3770 C   0  0  0  0  0  0  0  0  0  0  0  0
    2.0080   18.6780    0.5010 C   0  0  0  0  0  0  0  0  0  0  0  0
    2.2670   19.3420   -0.8490 C   0  0  2  0  0  0  0  0  0  0  0  0
    1.0900   20.0530   -1.2460 O   0  0  0  0  0  0  0  0  0  0  0  0
    2.6680   18.3320   -1.9600 C   0  0  0  0  0  0  0  0  0  0  0  0
    4.0890   17.7840   -1.6780 C   0  0  0  0  0  0  0  0  0  0  0  0
    2.7620   19.1110   -3.3010 C   0  0  0  0  0  0  0  0  0  0  0  0
    0.3110   15.2860   -0.6910 C   0  0  1  0  0  0  0  0  0  0  0  0
   -1.1430   15.8410   -0.6020 C   0  0  0  0  0  0  0  0  0  0  0  0
    0.5170   14.3760    0.5770 C   0  0  0  0  0  0  0  0  0  0  0  0
    1.5560   13.2450    0.4590 C   0  0  0  0  0  0  0  0  0  0  0  0
    1.3350   12.4290   -0.8180 C   0  0  2  0  0  0  0  0  0  0  0  0
   -0.0760   11.7550   -0.7170 C   0  0  0  0  0  0  0  0  0  0  0  0
    3.7652    9.5195    1.1572 H   0  0  0  0  0  0  0  0  0  0  0  0
    3.8487    8.5418   -0.3474 H   0  0  0  0  0  0  0  0  0  0  0  0
    4.4298   10.2415   -0.3474 H   0  0  0  0  0  0  0  0  0  0  0  0
    1.7183   10.2049    0.6023 H   0  0  0  0  0  0  0  0  0  0  0  0
    1.3165    9.3690   -2.1438 H   0  0  0  0  0  0  0  0  0  0  0  0
    2.1275    8.0613   -1.1559 H   0  0  0  0  0  0  0  0  0  0  0  0
    0.3281    7.7579    0.2025 H   0  0  0  0  0  0  0  0  0  0  0  0
   -0.2537    9.4617   -0.0121 H   0  0  0  0  0  0  0  0  0  0  0  0
   -0.2993    7.1580   -1.6557 H   0  0  0  0  0  0  0  0  0  0  0  0
   -2.5855    8.9241    0.5392 H   0  0  0  0  0  0  0  0  0  0  0  0
   -2.4703   10.3628   -0.5302 H   0  0  0  0  0  0  0  0  0  0  0  0
   -3.9611    9.3607   -0.5302 H   0  0  0  0  0  0  0  0  0  0  0  0
   -3.8781    7.0617   -1.5599 H   0  0  0  0  0  0  0  0  0  0  0  0
   -3.8994    8.2494   -2.9074 H   0  0  0  0  0  0  0  0  0  0  0  0
   -2.6997    6.9125   -2.9074 H   0  0  0  0  0  0  0  0  0  0  0  0
    3.3790   11.6532   -0.8180 H   0  0  0  0  0  0  0  0  0  0  0  0
    3.1828   11.0012   -3.1360 H   0  0  0  0  0  0  0  0  0  0  0  0
    1.6329   10.1792   -2.8533 H   0  0  0  0  0  0  0  0  0  0  0  0
    1.9574   12.7278   -4.1043 H   0  0  0  0  0  0  0  0  0  0  0  0
    0.4215   12.1134   -3.4992 H   0  0  0  0  0  0  0  0  0  0  0  0
    3.3473   14.2008   -1.1699 H   0  0  0  0  0  0  0  0  0  0  0  0
    3.6085   13.3333   -2.7210 H   0  0  0  0  0  0  0  0  0  0  0  0
    2.8700   14.9708   -2.7210 H   0  0  0  0  0  0  0  0  0  0  0  0
   -0.5165   13.8588   -2.1065 H   0  0  0  0  0  0  0  0  0  0  0  0
    0.7486   14.8282   -4.1317 H   0  0  0  0  0  0  0  0  0  0  0  0
   -0.6705   15.7252   -3.3765 H   0  0  0  0  0  0  0  0  0  0  0  0
    1.4038   17.1957   -4.0651 H   0  0  0  0  0  0  0  0  0  0  0  0
    2.2752   15.9854   -0.3125 H   0  0  0  0  0  0  0  0  0  0  0  0
    0.0070   18.0400    0.0511 H   0  0  0  0  0  0  0  0  0  0  0  0
    0.8523   17.1030    1.3616 H   0  0  0  0  0  0  0  0  0  0  0  0
    1.6560   19.4379    1.2142 H   0  0  0  0  0  0  0  0  0  0  0  0
    2.9455   18.2237    0.8542 H   0  0  0  0  0  0  0  0  0  0  0  0
    3.1199   20.0253   -0.7236 H   0  0  0  0  0  0  0  0  0  0  0  0
    1.3190   20.5860   -2.0260 H   0  0  0  0  0  0  0  0  0  0  0  0
    4.2492   17.7222   -0.5915 H   0  0  0  0  0  0  0  0  0  0  0  0
    4.1903   16.7823   -2.1211 H   0  0  0  0  0  0  0  0  0  0  0  0
    4.8366   18.4583   -2.1211 H   0  0  0  0  0  0  0  0  0  0  0  0
    2.8914   20.1835   -3.0937 H   0  0  0  0  0  0  0  0  0  0  0  0
    3.6222   18.7429   -3.8794 H   0  0  0  0  0  0  0  0  0  0  0  0
    1.8389   18.9581   -3.8794 H   0  0  0  0  0  0  0  0  0  0  0  0
   -1.4297   15.9504    0.4543 H   0  0  0  0  0  0  0  0  0  0  0  0
   -1.1924   16.8212   -1.0988 H   0  0  0  0  0  0  0  0  0  0  0  0
   -1.8329   15.1430   -1.0988 H   0  0  0  0  0  0  0  0  0  0  0  0
    0.8272   15.0275    1.4073 H   0  0  0  0  0  0  0  0  0  0  0  0
   -0.4468   13.8670    0.7255 H   0  0  0  0  0  0  0  0  0  0  0  0
    2.5645   13.6837    0.4357 H   0  0  0  0  0  0  0  0  0  0  0  0
    1.4469   12.5766    1.3258 H   0  0  0  0  0  0  0  0  0  0  0  0
   -0.3458   11.6261    0.3416 H   0  0  0  0  0  0  0  0  0  0  0  0
   -0.8235   12.3933   -1.2108 H   0  0  0  0  0  0  0  0  0  0  0  0
   -0.0492   10.7724   -1.2108 H   0  0  0  0  0  0  0  0  0  0  0  0
  1  2  1  0
  2  3  1  0
  3  4  1  0
  4  5  1  0
  5  6  1  0
  6  7  1  0
  7  8  1  0
  7  9  1  0
  2 10  1  0
 10 11  1  0
 11 12  1  0
 12 13  1  0
 13 14  1  1
 13 15  1  0
 15 16  1  0
 16 17  1  0
 17 18  2  0
 18 19  1  0
 19 20  1  0
 20 21  1  0
 21 22  1  0
 22 23  1  0
 22 24  1  0
 24 25  1  0
 24 26  1  0
 19 27  1  0
 27 28  1  1
 27 29  1  0
 29 30  1  0
 30 31  1  0
 31 32  1  1
  7  5  1  0
 31 10  1  0
 31 13  1  0
 27 15  1  0
 24 18  1  0
  1 33  1  0
  1 34  1  0
  1 35  1  0
  2 36  1  1
  3 37  1  0
  3 38  1  0
  4 39  1  0
  4 40  1  0
  5 41  1  6
  8 42  1  0
  8 43  1  0
  8 44  1  0
  9 45  1  0
  9 46  1  0
  9 47  1  0
 10 48  1  6
 11 49  1  0
 11 50  1  0
 12 51  1  0
 12 52  1  0
 14 53  1  0
 14 54  1  0
 14 55  1  0
 15 56  1  6
 16 57  1  0
 16 58  1  0
 17 59  1  0
 19 60  1  1
 20 61  1  0
 20 62  1  0
 21 63  1  0
 21 64  1  0
 22 65  1  1
 23 66  1  0
 25 67  1  0
 25 68  1  0
 25 69  1  0
 26 70  1  0
 26 71  1  0
 26 72  1  0
 28 73  1  0
 28 74  1  0
 28 75  1  0
 29 76  1  0
 29 77  1  0
 30 78  1  0
 30 79  1  0
 32 80  1  0
 32 81  1  0
 32 82  1  0
M  END
>  <meeko>  (20) 
{"is_sidechain": [false], "intermolecular_energy": 2.731, "internal_energy": -0.839}

$$$$
