EPH_relaxed_0001_pdb2pqr_Repair_298_r2_0001_out
     RDKit          3D

 82 86  0  0  0  0  0  0  0  0999 V2000
    2.0840   19.5470   -0.7380 C   0  0  0  0  0  0  0  0  0  0  0  0
    2.4510   18.3600    0.1570 C   0  0  2  0  0  0  0  0  0  0  0  0
    3.8970   17.8790   -0.0810 C   0  0  0  0  0  0  0  0  0  0  0  0
    4.8820   18.3310    1.0010 C   0  0  0  0  0  0  0  0  0  0  0  0
    4.1890   19.0610    2.1110 C   0  0  2  0  0  0  0  0  0  0  0  0
    4.9070   20.1900    2.6260 O   0  0  0  0  0  0  0  0  0  0  0  0
    4.7050   19.0980    3.5380 C   0  0  0  0  0  0  0  0  0  0  0  0
    5.9650   18.3920    3.9300 C   0  0  0  0  0  0  0  0  0  0  0  0
    3.7400   19.4050    4.6400 C   0  0  0  0  0  0  0  0  0  0  0  0
    1.4760   17.2130   -0.0750 C   0  0  1  0  0  0  0  0  0  0  0  0
    0.1660   17.6730   -0.7690 C   0  0  0  0  0  0  0  0  0  0  0  0
   -0.2780   16.5160   -1.7000 C   0  0  0  0  0  0  0  0  0  0  0  0
    0.5920   15.3120   -1.2680 C   0  0  1  0  0  0  0  0  0  0  0  0
   -0.1200   14.7360   -0.0030 C   0  0  0  0  0  0  0  0  0  0  0  0
    0.8300   14.2080   -2.3490 C   0  0  2  0  0  0  0  0  0  0  0  0
   -0.4390   13.4860   -2.8350 C   0  0  0  0  0  0  0  0  0  0  0  0
   -0.8080   12.2600   -2.0680 C   0  0  0  0  0  0  0  0  0  0  0  0
   -0.0020   11.5970   -1.2180 C   0  0  0  0  0  0  0  0  0  0  0  0
    1.4620   12.0160   -1.0310 C   0  0  1  0  0  0  0  0  0  0  0  0
    2.3700   10.7590   -1.0820 C   0  0  0  0  0  0  0  0  0  0  0  0
    1.9390    9.6850   -0.0870 C   0  0  0  0  0  0  0  0  0  0  0  0
    0.4980    9.2530   -0.3420 C   0  0  2  0  0  0  0  0  0  0  0  0
    0.4330    8.5850   -1.6050 O   0  0  0  0  0  0  0  0  0  0  0  0
   -0.5090   10.4370   -0.3240 C   0  0  0  0  0  0  0  0  0  0  0  0
   -0.6620   10.9690    1.1220 C   0  0  0  0  0  0  0  0  0  0  0  0
   -1.9020    9.8860   -0.7340 C   0  0  0  0  0  0  0  0  0  0  0  0
    1.9760   13.1800   -1.9830 C   0  0  1  0  0  0  0  0  0  0  0  0
    2.4830   12.5800   -3.3300 C   0  0  0  0  0  0  0  0  0  0  0  0
    3.2180   13.8800   -1.3140 C   0  0  0  0  0  0  0  0  0  0  0  0
    2.9220   15.0420   -0.3470 C   0  0  0  0  0  0  0  0  0  0  0  0
    1.9510   16.0460   -0.9770 C   0  0  2  0  0  0  0  0  0  0  0  0
    2.6490   16.6580   -2.2390 C   0  0  0  0  0  0  0  0  0  0  0  0
    1.8171   20.4104   -0.1108 H   0  0  0  0  0  0  0  0  0  0  0  0
    2.9437   19.8070   -1.3731 H   0  0  0  0  0  0  0  0  0  0  0  0
    1.2276   19.2764   -1.3731 H   0  0  0  0  0  0  0  0  0  0  0  0
    2.3834   18.6994    1.2011 H   0  0  0  0  0  0  0  0  0  0  0  0
    3.8965   16.7795   -0.1127 H   0  0  0  0  0  0  0  0  0  0  0  0
    4.2327   18.3260   -1.0284 H   0  0  0  0  0  0  0  0  0  0  0  0
    5.3861   17.4459    1.4165 H   0  0  0  0  0  0  0  0  0  0  0  0
    5.6073   19.0172    0.5395 H   0  0  0  0  0  0  0  0  0  0  0  0
    3.2035   18.8155    1.6886 H   0  0  0  0  0  0  0  0  0  0  0  0
    6.0367   18.3518    5.0269 H   0  0  0  0  0  0  0  0  0  0  0  0
    5.9532   17.3691    3.5256 H   0  0  0  0  0  0  0  0  0  0  0  0
    6.8312   18.9362    3.5256 H   0  0  0  0  0  0  0  0  0  0  0  0
    4.2313   19.2487    5.6117 H   0  0  0  0  0  0  0  0  0  0  0  0
    3.4120   20.4518    4.5591 H   0  0  0  0  0  0  0  0  0  0  0  0
    2.8674   18.7401    4.5591 H   0  0  0  0  0  0  0  0  0  0  0  0
    1.3547   16.8631    0.9608 H   0  0  0  0  0  0  0  0  0  0  0  0
   -0.6111   17.8730   -0.0165 H   0  0  0  0  0  0  0  0  0  0  0  0
    0.3262   18.5995   -1.3399 H   0  0  0  0  0  0  0  0  0  0  0  0
   -1.3461   16.2933   -1.5604 H   0  0  0  0  0  0  0  0  0  0  0  0
   -0.1489   16.7636   -2.7640 H   0  0  0  0  0  0  0  0  0  0  0  0
    0.3659   15.1291    0.9022 H   0  0  0  0  0  0  0  0  0  0  0  0
   -1.1786   15.0348   -0.0101 H   0  0  0  0  0  0  0  0  0  0  0  0
   -0.0488   13.6383   -0.0101 H   0  0  0  0  0  0  0  0  0  0  0  0
    1.1881   14.7928   -3.2091 H   0  0  0  0  0  0  0  0  0  0  0  0
   -1.2788   14.1935   -2.7696 H   0  0  0  0  0  0  0  0  0  0  0  0
   -0.2245   13.1505   -3.8604 H   0  0  0  0  0  0  0  0  0  0  0  0
   -1.8248   11.8648   -2.2093 H   0  0  0  0  0  0  0  0  0  0  0  0
    1.5222   12.4794   -0.0352 H   0  0  0  0  0  0  0  0  0  0  0  0
    2.3301   10.3361   -2.0967 H   0  0  0  0  0  0  0  0  0  0  0  0
    3.3897   11.0726   -0.8140 H   0  0  0  0  0  0  0  0  0  0  0  0
    2.6003    8.8121   -0.1904 H   0  0  0  0  0  0  0  0  0  0  0  0
    2.0067   10.1002    0.9294 H   0  0  0  0  0  0  0  0  0  0  0  0
    0.2057    8.5805    0.4779 H   0  0  0  0  0  0  0  0  0  0  0  0
   -0.2820    7.9280   -1.5550 H   0  0  0  0  0  0  0  0  0  0  0  0
   -0.4305   10.1642    1.8352 H   0  0  0  0  0  0  0  0  0  0  0  0
    0.0311   11.8086    1.2790 H   0  0  0  0  0  0  0  0  0  0  0  0
   -1.6952   11.3122    1.2790 H   0  0  0  0  0  0  0  0  0  0  0  0
   -2.4854    9.6552    0.1695 H   0  0  0  0  0  0  0  0  0  0  0  0
   -2.4339   10.6414   -1.3309 H   0  0  0  0  0  0  0  0  0  0  0  0
   -1.7732    8.9711   -1.3309 H   0  0  0  0  0  0  0  0  0  0  0  0
    3.1804   11.7546   -3.1243 H   0  0  0  0  0  0  0  0  0  0  0  0
    1.6271   12.2014   -3.9080 H   0  0  0  0  0  0  0  0  0  0  0  0
    2.9991   13.3607   -3.9080 H   0  0  0  0  0  0  0  0  0  0  0  0
    3.7705   13.1122   -0.7526 H   0  0  0  0  0  0  0  0  0  0  0  0
    3.7765   14.3330   -2.1464 H   0  0  0  0  0  0  0  0  0  0  0  0
    2.4755   14.6389    0.5739 H   0  0  0  0  0  0  0  0  0  0  0  0
    3.8658   15.5605   -0.1224 H   0  0  0  0  0  0  0  0  0  0  0  0
    3.4405   17.3520   -1.9198 H   0  0  0  0  0  0  0  0  0  0  0  0
    3.0904   15.8505   -2.8416 H   0  0  0  0  0  0  0  0  0  0  0  0
    1.9062   17.2012   -2.8416 H   0  0  0  0  0  0  0  0  0  0  0  0
  1  2  1  0
  2  3  1  0
  3  4  1  0
  4  5  1  0
  5  6  1  0
  6  7  1  0
  7  8  1  0
  7  9  1  0
  2 10  1  0
 10 11  1  0
 11 12  1  0
 12 13  1  0
 13 14  1  1
 13 15  1  0
 15 16  1  0
 16 17  1  0
 17 18  2  0
 18 19  1  0
 19 20  1  0
 20 21  1  0
 21 22  1  0
 22 23  1  0
 22 24  1  0
 24 25  1  0
 24 26  1  0
 19 27  1  0
 27 28  1  6
 27 29  1  0
 29 30  1  0
 30 31  1  0
 31 32  1  6
  7  5  1  0
 31 10  1  0
 31 13  1  0
 27 15  1  0
 24 18  1  0
  1 33  1  0
  1 34  1  0
  1 35  1  0
  2 36  1  1
  3 37  1  0
  3 38  1  0
  4 39  1  0
  4 40  1  0
  5 41  1  1
  8 42  1  0
  8 43  1  0
  8 44  1  0
  9 45  1  0
  9 46  1  0
  9 47  1  0
 10 48  1  1
 11 49  1  0
 11 50  1  0
 12 51  1  0
 12 52  1  0
 14 53  1  0
 14 54  1  0
 14 55  1  0
 15 56  1  6
 16 57  1  0
 16 58  1  0
 17 59  1  0
 19 60  1  1
 20 61  1  0
 20 62  1  0
 21 63  1  0
 21 64  1  0
 22 65  1  1
 23 66  1  0
 25 67  1  0
 25 68  1  0
 25 69  1  0
 26 70  1  0
 26 71  1  0
 26 72  1  0
 28 73  1  0
 28 74  1  0
 28 75  1  0
 29 76  1  0
 29 77  1  0
 30 78  1  0
 30 79  1  0
 32 80  1  0
 32 81  1  0
 32 82  1  0
M  END
>  <meeko>  (1) 
{"is_sidechain": [false], "intermolecular_energy": 2.731, "internal_energy": -0.839}

$$$$
EPH_relaxed_0001_pdb2pqr_Repair_298_r2_0001_out
     RDKit          3D

 82 86  0  0  0  0  0  0  0  0999 V2000
    0.4650   18.3380    0.0960 C   0  0  0  0  0  0  0  0  0  0  0  0
    1.5460   17.2810   -0.1500 C   0  0  2  0  0  0  0  0  0  0  0  0
    2.7500   17.8510   -0.9250 C   0  0  0  0  0  0  0  0  0  0  0  0
    3.9860   18.0900   -0.0530 C   0  0  0  0  0  0  0  0  0  0  0  0
    3.6150   18.5920    1.3090 C   0  0  2  0  0  0  0  0  0  0  0  0
    3.8390   19.9930    1.5130 O   0  0  0  0  0  0  0  0  0  0  0  0
    4.6270   19.1020    2.3180 C   0  0  0  0  0  0  0  0  0  0  0  0
    6.0910   19.1340    2.0060 C   0  0  0  0  0  0  0  0  0  0  0  0
    4.2530   19.1080    3.7670 C   0  0  0  0  0  0  0  0  0  0  0  0
    0.9530   16.0970   -0.9050 C   0  0  1  0  0  0  0  0  0  0  0  0
    0.8030   16.3730   -2.4250 C   0  0  0  0  0  0  0  0  0  0  0  0
    1.0730   15.0300   -3.1520 C   0  0  0  0  0  0  0  0  0  0  0  0
    1.0400   13.9660   -2.0300 C   0  0  1  0  0  0  0  0  0  0  0  0
   -0.4760   13.6790   -1.7950 C   0  0  0  0  0  0  0  0  0  0  0  0
    1.8420   12.6510   -2.3010 C   0  0  2  0  0  0  0  0  0  0  0  0
    1.3490   11.8220   -3.5000 C   0  0  0  0  0  0  0  0  0  0  0  0
    0.3150   10.7930   -3.1810 C   0  0  0  0  0  0  0  0  0  0  0  0
    0.0080   10.3480   -1.9490 C   0  0  0  0  0  0  0  0  0  0  0  0
    0.8000   10.8180   -0.7220 C   0  0  1  0  0  0  0  0  0  0  0  0
    1.1610    9.5950    0.1610 C   0  0  0  0  0  0  0  0  0  0  0  0
   -0.0630    8.7650    0.5390 C   0  0  0  0  0  0  0  0  0  0  0  0
   -0.7900    8.2680   -0.7070 C   0  0  2  0  0  0  0  0  0  0  0  0
    0.0510    7.3330   -1.3900 O   0  0  0  0  0  0  0  0  0  0  0  0
   -1.1960    9.4120   -1.6780 C   0  0  0  0  0  0  0  0  0  0  0  0
   -2.3330   10.2520   -1.0460 C   0  0  0  0  0  0  0  0  0  0  0  0
   -1.7930    8.7640   -2.9560 C   0  0  0  0  0  0  0  0  0  0  0  0
    2.0550   11.7460   -1.0210 C   0  0  1  0  0  0  0  0  0  0  0  0
    3.3120   10.8680   -1.3010 C   0  0  0  0  0  0  0  0  0  0  0  0
    2.3840   12.5950    0.2640 C   0  0  0  0  0  0  0  0  0  0  0  0
    1.6480   13.9410    0.4150 C   0  0  0  0  0  0  0  0  0  0  0  0
    1.7430   14.7650   -0.8730 C   0  0  2  0  0  0  0  0  0  0  0  0
    3.2550   15.0880   -1.1230 C   0  0  0  0  0  0  0  0  0  0  0  0
    0.3253   18.4746    1.1785 H   0  0  0  0  0  0  0  0  0  0  0  0
    0.7746   19.2914   -0.3569 H   0  0  0  0  0  0  0  0  0  0  0  0
   -0.4812   18.0071   -0.3569 H   0  0  0  0  0  0  0  0  0  0  0  0
    1.9136   16.9490    0.8321 H   0  0  0  0  0  0  0  0  0  0  0  0
    3.0185   17.1407   -1.7209 H   0  0  0  0  0  0  0  0  0  0  0  0
    2.4426   18.8297   -1.3221 H   0  0  0  0  0  0  0  0  0  0  0  0
    4.5355   17.1431    0.0536 H   0  0  0  0  0  0  0  0  0  0  0  0
    4.6081   18.8540   -0.5422 H   0  0  0  0  0  0  0  0  0  0  0  0
    2.8049   17.8518    1.3860 H   0  0  0  0  0  0  0  0  0  0  0  0
    6.6656   19.1466    2.9439 H   0  0  0  0  0  0  0  0  0  0  0  0
    6.3611   18.2415    1.4224 H   0  0  0  0  0  0  0  0  0  0  0  0
    6.3219   20.0374    1.4224 H   0  0  0  0  0  0  0  0  0  0  0  0
    5.1654   19.0934    4.3812 H   0  0  0  0  0  0  0  0  0  0  0  0
    3.6737   20.0156    3.9924 H   0  0  0  0  0  0  0  0  0  0  0  0
    3.6449   18.2195    3.9924 H   0  0  0  0  0  0  0  0  0  0  0  0
    0.0053   15.9852   -0.3578 H   0  0  0  0  0  0  0  0  0  0  0  0
   -0.2148   16.7262   -2.6473 H   0  0  0  0  0  0  0  0  0  0  0  0
    1.5070   17.1504   -2.7568 H   0  0  0  0  0  0  0  0  0  0  0  0
    0.2921   14.8296   -3.9004 H   0  0  0  0  0  0  0  0  0  0  0  0
    2.0296   15.0344   -3.6950 H   0  0  0  0  0  0  0  0  0  0  0  0
   -0.6787   13.6406   -0.7145 H   0  0  0  0  0  0  0  0  0  0  0  0
   -1.0759   14.4795   -2.2524 H   0  0  0  0  0  0  0  0  0  0  0  0
   -0.7418   12.7146   -2.2524 H   0  0  0  0  0  0  0  0  0  0  0  0
    2.8322   13.0337   -2.5890 H   0  0  0  0  0  0  0  0  0  0  0  0
    0.9222   12.5150   -4.2400 H   0  0  0  0  0  0  0  0  0  0  0  0
    2.2254   11.2690   -3.8690 H   0  0  0  0  0  0  0  0  0  0  0  0
   -0.2433   10.3621   -4.0252 H   0  0  0  0  0  0  0  0  0  0  0  0
    0.1309   11.4933   -0.1686 H   0  0  0  0  0  0  0  0  0  0  0  0
    1.8637    8.9552   -0.3929 H   0  0  0  0  0  0  0  0  0  0  0  0
    1.6074    9.9750    1.0917 H   0  0  0  0  0  0  0  0  0  0  0  0
    0.2593    7.8998    1.1370 H   0  0  0  0  0  0  0  0  0  0  0  0
   -0.7513    9.3978    1.1185 H   0  0  0  0  0  0  0  0  0  0  0  0
   -1.7248    7.7927   -0.3749 H   0  0  0  0  0  0  0  0  0  0  0  0
    0.2050    6.5830   -0.7900 H   0  0  0  0  0  0  0  0  0  0  0  0
   -2.2618   10.1994    0.0504 H   0  0  0  0  0  0  0  0  0  0  0  0
   -2.2388   11.2991   -1.3697 H   0  0  0  0  0  0  0  0  0  0  0  0
   -3.3061    9.8543   -1.3697 H   0  0  0  0  0  0  0  0  0  0  0  0
   -2.5126    7.9830   -2.6692 H   0  0  0  0  0  0  0  0  0  0  0  0
   -2.3053    9.5335   -3.5522 H   0  0  0  0  0  0  0  0  0  0  0  0
   -0.9842    8.3164   -3.5522 H   0  0  0  0  0  0  0  0  0  0  0  0
    3.7604   10.5548   -0.3466 H   0  0  0  0  0  0  0  0  0  0  0  0
    3.0170    9.9785   -1.8770 H   0  0  0  0  0  0  0  0  0  0  0  0
    4.0456   11.4511   -1.8770 H   0  0  0  0  0  0  0  0  0  0  0  0
    2.1362   11.9799    1.1417 H   0  0  0  0  0  0  0  0  0  0  0  0
    3.4481   12.8577    0.1707 H   0  0  0  0  0  0  0  0  0  0  0  0
    0.5890   13.7487    0.6419 H   0  0  0  0  0  0  0  0  0  0  0  0
    2.1193   14.5091    1.2306 H   0  0  0  0  0  0  0  0  0  0  0  0
    3.7709   15.1982   -0.1577 H   0  0  0  0  0  0  0  0  0  0  0  0
    3.7157   14.2680   -1.6934 H   0  0  0  0  0  0  0  0  0  0  0  0
    3.3404   16.0247   -1.6934 H   0  0  0  0  0  0  0  0  0  0  0  0
  1  2  1  0
  2  3  1  0
  3  4  1  0
  4  5  1  0
  5  6  1  0
  6  7  1  0
  7  8  1  0
  7  9  1  0
  2 10  1  0
 10 11  1  0
 11 12  1  0
 12 13  1  0
 13 14  1  1
 13 15  1  0
 15 16  1  0
 16 17  1  0
 17 18  2  0
 18 19  1  0
 19 20  1  0
 20 21  1  0
 21 22  1  0
 22 23  1  0
 22 24  1  0
 24 25  1  0
 24 26  1  0
 19 27  1  0
 27 28  1  6
 27 29  1  0
 29 30  1  0
 30 31  1  0
 31 32  1  6
  7  5  1  0
 31 10  1  0
 31 13  1  0
 27 15  1  0
 24 18  1  0
  1 33  1  0
  1 34  1  0
  1 35  1  0
  2 36  1  1
  3 37  1  0
  3 38  1  0
  4 39  1  0
  4 40  1  0
  5 41  1  1
  8 42  1  0
  8 43  1  0
  8 44  1  0
  9 45  1  0
  9 46  1  0
  9 47  1  0
 10 48  1  1
 11 49  1  0
 11 50  1  0
 12 51  1  0
 12 52  1  0
 14 53  1  0
 14 54  1  0
 14 55  1  0
 15 56  1  6
 16 57  1  0
 16 58  1  0
 17 59  1  0
 19 60  1  1
 20 61  1  0
 20 62  1  0
 21 63  1  0
 21 64  1  0
 22 65  1  1
 23 66  1  0
 25 67  1  0
 25 68  1  0
 25 69  1  0
 26 70  1  0
 26 71  1  0
 26 72  1  0
 28 73  1  0
 28 74  1  0
 28 75  1  0
 29 76  1  0
 29 77  1  0
 30 78  1  0
 30 79  1  0
 32 80  1  0
 32 81  1  0
 32 82  1  0
M  END
>  <meeko>  (2) 
{"is_sidechain": [false], "intermolecular_energy": 2.731, "internal_energy": -0.839}

$$$$
EPH_relaxed_0001_pdb2pqr_Repair_298_r2_0001_out
     RDKit          3D

 82 86  0  0  0  0  0  0  0  0999 V2000
   -1.5390    8.4590   -1.7290 C   0  0  0  0  0  0  0  0  0  0  0  0
   -1.9190    9.0910   -0.3870 C   0  0  2  0  0  0  0  0  0  0  0  0
   -3.3800    9.5830   -0.3700 C   0  0  0  0  0  0  0  0  0  0  0  0
   -4.4080    8.4560   -0.2420 C   0  0  0  0  0  0  0  0  0  0  0  0
   -5.0190    8.1100   -1.5660 C   0  0  2  0  0  0  0  0  0  0  0  0
   -6.3210    8.6680   -1.7890 O   0  0  0  0  0  0  0  0  0  0  0  0
   -6.2500    7.2350   -1.7160 C   0  0  0  0  0  0  0  0  0  0  0  0
   -6.9430    6.6510   -0.5250 C   0  0  0  0  0  0  0  0  0  0  0  0
   -6.4870    6.5520   -3.0270 C   0  0  0  0  0  0  0  0  0  0  0  0
   -0.9770   10.2460   -0.0710 C   0  0  1  0  0  0  0  0  0  0  0  0
    0.2230    9.8140    0.8130 C   0  0  0  0  0  0  0  0  0  0  0  0
    1.4420   10.6560    0.3570 C   0  0  0  0  0  0  0  0  0  0  0  0
    0.8370   11.7670   -0.5330 C   0  0  1  0  0  0  0  0  0  0  0  0
    0.3100   12.8410    0.4690 C   0  0  0  0  0  0  0  0  0  0  0  0
    1.7920   12.3930   -1.6010 C   0  0  2  0  0  0  0  0  0  0  0  0
    3.0230   13.1190   -1.0300 C   0  0  0  0  0  0  0  0  0  0  0  0
    2.8340   14.5740   -0.7560 C   0  0  0  0  0  0  0  0  0  0  0  0
    1.8230   15.3330   -1.2190 C   0  0  0  0  0  0  0  0  0  0  0  0
    0.7860   14.7550   -2.1900 C   0  0  1  0  0  0  0  0  0  0  0  0
    0.5620   15.7490   -3.3610 C   0  0  0  0  0  0  0  0  0  0  0  0
    0.1940   17.1480   -2.8780 C   0  0  0  0  0  0  0  0  0  0  0  0
    1.2770   17.7120   -1.9610 C   0  0  2  0  0  0  0  0  0  0  0  0
    2.4650   17.9240   -2.7290 O   0  0  0  0  0  0  0  0  0  0  0  0
    1.5950   16.7910   -0.7500 C   0  0  0  0  0  0  0  0  0  0  0  0
    0.4040   16.8020    0.2390 C   0  0  0  0  0  0  0  0  0  0  0  0
    2.7990   17.4050    0.0130 C   0  0  0  0  0  0  0  0  0  0  0  0
    1.0570   13.2720   -2.6920 C   0  0  1  0  0  0  0  0  0  0  0  0
    1.9850   13.2950   -3.9450 C   0  0  0  0  0  0  0  0  0  0  0  0
   -0.3030   12.6310   -3.1600 C   0  0  0  0  0  0  0  0  0  0  0  0
   -1.1450   11.9230   -2.0810 C   0  0  0  0  0  0  0  0  0  0  0  0
   -0.2870   10.9490   -1.2670 C   0  0  2  0  0  0  0  0  0  0  0  0
    0.2390    9.8440   -2.2450 C   0  0  0  0  0  0  0  0  0  0  0  0
   -0.9797    7.5287   -1.5509 H   0  0  0  0  0  0  0  0  0  0  0  0
   -2.4519    8.2343   -2.3001 H   0  0  0  0  0  0  0  0  0  0  0  0
   -0.9125    9.1599   -2.3001 H   0  0  0  0  0  0  0  0  0  0  0  0
   -1.8238    8.3123    0.3841 H   0  0  0  0  0  0  0  0  0  0  0  0
   -3.5062   10.2665    0.4826 H   0  0  0  0  0  0  0  0  0  0  0  0
   -3.5637   10.0772   -1.3354 H   0  0  0  0  0  0  0  0  0  0  0  0
   -3.9098    7.5636    0.1648 H   0  0  0  0  0  0  0  0  0  0  0  0
   -5.2110    8.7987    0.4271 H   0  0  0  0  0  0  0  0  0  0  0  0
   -4.0277    8.0771   -2.0416 H   0  0  0  0  0  0  0  0  0  0  0  0
   -6.4817    7.0398    0.3948 H   0  0  0  0  0  0  0  0  0  0  0  0
   -8.0071    6.9288   -0.5472 H   0  0  0  0  0  0  0  0  0  0  0  0
   -6.8496    5.5552   -0.5472 H   0  0  0  0  0  0  0  0  0  0  0  0
   -6.8428    5.5268   -2.8473 H   0  0  0  0  0  0  0  0  0  0  0  0
   -7.2447    7.1081   -3.5985 H   0  0  0  0  0  0  0  0  0  0  0  0
   -5.5477    6.5193   -3.5985 H   0  0  0  0  0  0  0  0  0  0  0  0
   -1.6859   10.9341    0.4127 H   0  0  0  0  0  0  0  0  0  0  0  0
    0.0025   10.0101    1.8727 H   0  0  0  0  0  0  0  0  0  0  0  0
    0.4246    8.7379    0.7059 H   0  0  0  0  0  0  0  0  0  0  0  0
    1.9594   11.0918    1.2244 H   0  0  0  0  0  0  0  0  0  0  0  0
    2.1892   10.0524   -0.1790 H   0  0  0  0  0  0  0  0  0  0  0  0
    0.4795   12.4955    1.4995 H   0  0  0  0  0  0  0  0  0  0  0  0
    0.8458   13.7879    0.3069 H   0  0  0  0  0  0  0  0  0  0  0  0
   -0.7668   12.9966    0.3069 H   0  0  0  0  0  0  0  0  0  0  0  0
    2.1826   11.5040   -2.1179 H   0  0  0  0  0  0  0  0  0  0  0  0
    3.2993   12.6282   -0.0852 H   0  0  0  0  0  0  0  0  0  0  0  0
    3.8016   13.0534   -1.8042 H   0  0  0  0  0  0  0  0  0  0  0  0
    3.5847   15.0682   -0.1218 H   0  0  0  0  0  0  0  0  0  0  0  0
   -0.1431   14.6440   -1.6117 H   0  0  0  0  0  0  0  0  0  0  0  0
    1.4876   15.8121   -3.9520 H   0  0  0  0  0  0  0  0  0  0  0  0
   -0.2778   15.3719   -3.9632 H   0  0  0  0  0  0  0  0  0  0  0  0
    0.0787   17.8105   -3.7485 H   0  0  0  0  0  0  0  0  0  0  0  0
   -0.7477   17.0875   -2.3128 H   0  0  0  0  0  0  0  0  0  0  0  0
    0.8984   18.6572   -1.5448 H   0  0  0  0  0  0  0  0  0  0  0  0
    3.2040   17.5140   -2.2480 H   0  0  0  0  0  0  0  0  0  0  0  0
    0.7844   16.7985    1.2711 H   0  0  0  0  0  0  0  0  0  0  0  0
   -0.2010   17.7058    0.0743 H   0  0  0  0  0  0  0  0  0  0  0  0
   -0.2176   15.9096    0.0743 H   0  0  0  0  0  0  0  0  0  0  0  0
    2.6292   17.3184    1.0964 H   0  0  0  0  0  0  0  0  0  0  0  0
    3.7186   16.8658   -0.2583 H   0  0  0  0  0  0  0  0  0  0  0  0
    2.9025   18.4660   -0.2583 H   0  0  0  0  0  0  0  0  0  0  0  0
    3.0363   13.3211   -3.6223 H   0  0  0  0  0  0  0  0  0  0  0  0
    1.8089   12.3922   -4.5483 H   0  0  0  0  0  0  0  0  0  0  0  0
    1.7644   14.1880   -4.5483 H   0  0  0  0  0  0  0  0  0  0  0  0
   -0.9195   13.4347   -3.5890 H   0  0  0  0  0  0  0  0  0  0  0  0
   -0.0192   11.8393   -3.8690 H   0  0  0  0  0  0  0  0  0  0  0  0
   -1.5718   12.6783   -1.4047 H   0  0  0  0  0  0  0  0  0  0  0  0
   -1.9452   11.3546   -2.5776 H   0  0  0  0  0  0  0  0  0  0  0  0
    0.6404    9.0008   -1.6637 H   0  0  0  0  0  0  0  0  0  0  0  0
   -0.5880    9.4916   -2.8790 H   0  0  0  0  0  0  0  0  0  0  0  0
    1.0339   10.2637   -2.8790 H   0  0  0  0  0  0  0  0  0  0  0  0
  1  2  1  0
  2  3  1  0
  3  4  1  0
  4  5  1  0
  5  6  1  0
  6  7  1  0
  7  8  1  0
  7  9  1  0
  2 10  1  0
 10 11  1  0
 11 12  1  0
 12 13  1  0
 13 14  1  1
 13 15  1  0
 15 16  1  0
 16 17  1  0
 17 18  2  0
 18 19  1  0
 19 20  1  0
 20 21  1  0
 21 22  1  0
 22 23  1  0
 22 24  1  0
 24 25  1  0
 24 26  1  0
 19 27  1  0
 27 28  1  6
 27 29  1  0
 29 30  1  0
 30 31  1  0
 31 32  1  6
  7  5  1  0
 31 10  1  0
 31 13  1  0
 27 15  1  0
 24 18  1  0
  1 33  1  0
  1 34  1  0
  1 35  1  0
  2 36  1  1
  3 37  1  0
  3 38  1  0
  4 39  1  0
  4 40  1  0
  5 41  1  6
  8 42  1  0
  8 43  1  0
  8 44  1  0
  9 45  1  0
  9 46  1  0
  9 47  1  0
 10 48  1  1
 11 49  1  0
 11 50  1  0
 12 51  1  0
 12 52  1  0
 14 53  1  0
 14 54  1  0
 14 55  1  0
 15 56  1  6
 16 57  1  0
 16 58  1  0
 17 59  1  0
 19 60  1  1
 20 61  1  0
 20 62  1  0
 21 63  1  0
 21 64  1  0
 22 65  1  1
 23 66  1  0
 25 67  1  0
 25 68  1  0
 25 69  1  0
 26 70  1  0
 26 71  1  0
 26 72  1  0
 28 73  1  0
 28 74  1  0
 28 75  1  0
 29 76  1  0
 29 77  1  0
 30 78  1  0
 30 79  1  0
 32 80  1  0
 32 81  1  0
 32 82  1  0
M  END
>  <meeko>  (3) 
{"is_sidechain": [false], "intermolecular_energy": 2.731, "internal_energy": -0.839}

$$$$
EPH_relaxed_0001_pdb2pqr_Repair_298_r2_0001_out
     RDKit          3D

 82 86  0  0  0  0  0  0  0  0999 V2000
    3.6900   17.5750    0.4540 C   0  0  0  0  0  0  0  0  0  0  0  0
    2.7390   17.8260   -0.7200 C   0  0  2  0  0  0  0  0  0  0  0  0
    2.0770   19.2170   -0.6440 C   0  0  0  0  0  0  0  0  0  0  0  0
    1.2640   19.4420    0.6340 C   0  0  0  0  0  0  0  0  0  0  0  0
   -0.0530   20.0960    0.3450 C   0  0  2  0  0  0  0  0  0  0  0  0
   -0.9330   20.1940    1.4730 O   0  0  0  0  0  0  0  0  0  0  0  0
   -1.3800   19.3610    0.3920 C   0  0  0  0  0  0  0  0  0  0  0  0
   -1.4540   17.9060    0.7350 C   0  0  0  0  0  0  0  0  0  0  0  0
   -2.5390   19.9270   -0.3670 C   0  0  0  0  0  0  0  0  0  0  0  0
    1.6690   16.7410   -0.7630 C   0  0  1  0  0  0  0  0  0  0  0  0
    0.3580   17.2220   -1.4390 C   0  0  0  0  0  0  0  0  0  0  0  0
   -0.2250   16.0040   -2.2010 C   0  0  0  0  0  0  0  0  0  0  0  0
    0.5780   14.7930   -1.6720 C   0  0  1  0  0  0  0  0  0  0  0  0
   -0.0970   14.4260   -0.3130 C   0  0  0  0  0  0  0  0  0  0  0  0
    0.6690   13.5550   -2.6240 C   0  0  2  0  0  0  0  0  0  0  0  0
   -0.6760   12.8860   -2.9550 C   0  0  0  0  0  0  0  0  0  0  0  0
   -1.0880   11.7900   -2.0290 C   0  0  0  0  0  0  0  0  0  0  0  0
   -0.2840   11.1670   -1.1470 C   0  0  0  0  0  0  0  0  0  0  0  0
    1.2160   11.4860   -1.0870 C   0  0  1  0  0  0  0  0  0  0  0  0
    2.0250   10.1640   -1.0330 C   0  0  0  0  0  0  0  0  0  0  0  0
    1.5760    9.2500    0.1040 C   0  0  0  0  0  0  0  0  0  0  0  0
    0.0940    8.9090   -0.0230 C   0  0  2  0  0  0  0  0  0  0  0  0
   -0.0950    8.1060   -1.1930 O   0  0  0  0  0  0  0  0  0  0  0  0
   -0.8200   10.1640   -0.0970 C   0  0  0  0  0  0  0  0  0  0  0  0
   -0.8460   10.8700    1.2810 C   0  0  0  0  0  0  0  0  0  0  0  0
   -2.2710    9.6820   -0.3650 C   0  0  0  0  0  0  0  0  0  0  0  0
    1.7560   12.4880   -2.1960 C   0  0  1  0  0  0  0  0  0  0  0  0
    2.1360   11.6980   -3.4860 C   0  0  0  0  0  0  0  0  0  0  0  0
    3.0840   13.1590   -1.6800 C   0  0  0  0  0  0  0  0  0  0  0  0
    2.9330   14.4450   -0.8460 C   0  0  0  0  0  0  0  0  0  0  0  0
    2.0030   15.4440   -1.5410 C   0  0  2  0  0  0  0  0  0  0  0  0
    2.6670   15.8480   -2.9010 C   0  0  0  0  0  0  0  0  0  0  0  0
    3.1490   17.7178    1.4011 H   0  0  0  0  0  0  0  0  0  0  0  0
    4.0728   16.5451    0.4021 H   0  0  0  0  0  0  0  0  0  0  0  0
    4.5312   18.2819    0.4021 H   0  0  0  0  0  0  0  0  0  0  0  0
    3.3368   17.7952   -1.6429 H   0  0  0  0  0  0  0  0  0  0  0  0
    2.8671   19.9809   -0.6921 H   0  0  0  0  0  0  0  0  0  0  0  0
    1.3751   19.2859   -1.4882 H   0  0  0  0  0  0  0  0  0  0  0  0
    1.0813   18.4703    1.1160 H   0  0  0  0  0  0  0  0  0  0  0  0
    1.8398   20.1074    1.2941 H   0  0  0  0  0  0  0  0  0  0  0  0
    0.4074   20.7402   -0.4186 H   0  0  0  0  0  0  0  0  0  0  0  0
   -1.4601   17.7869    1.8285 H   0  0  0  0  0  0  0  0  0  0  0  0
   -2.3752   17.4765    0.3143 H   0  0  0  0  0  0  0  0  0  0  0  0
   -0.5812   17.3852    0.3143 H   0  0  0  0  0  0  0  0  0  0  0  0
   -3.2956   20.2965    0.3409 H   0  0  0  0  0  0  0  0  0  0  0  0
   -2.1925   20.7573   -0.9999 H   0  0  0  0  0  0  0  0  0  0  0  0
   -2.9808   19.1432   -0.9999 H   0  0  0  0  0  0  0  0  0  0  0  0
    1.5833   16.5232    0.3118 H   0  0  0  0  0  0  0  0  0  0  0  0
   -0.3556   17.5694   -0.6774 H   0  0  0  0  0  0  0  0  0  0  0  0
    0.5514   18.0608   -2.1238 H   0  0  0  0  0  0  0  0  0  0  0  0
   -1.2964   15.8853   -1.9819 H   0  0  0  0  0  0  0  0  0  0  0  0
   -0.1418   16.1155   -3.2922 H   0  0  0  0  0  0  0  0  0  0  0  0
    0.5376   14.7710    0.5166 H   0  0  0  0  0  0  0  0  0  0  0  0
   -1.0811   14.9132   -0.2490 H   0  0  0  0  0  0  0  0  0  0  0  0
   -0.2231   13.3351   -0.2490 H   0  0  0  0  0  0  0  0  0  0  0  0
    1.0170   14.0057   -3.5651 H   0  0  0  0  0  0  0  0  0  0  0  0
   -1.4560   13.6613   -2.9323 H   0  0  0  0  0  0  0  0  0  0  0  0
   -0.5484   12.4183   -3.9424 H   0  0  0  0  0  0  0  0  0  0  0  0
   -2.1377   11.4637   -2.0709 H   0  0  0  0  0  0  0  0  0  0  0  0
    1.3694   12.0547   -0.1580 H   0  0  0  0  0  0  0  0  0  0  0  0
    1.8943    9.6312   -1.9865 H   0  0  0  0  0  0  0  0  0  0  0  0
    3.0791   10.4242   -0.8563 H   0  0  0  0  0  0  0  0  0  0  0  0
    2.1633    8.3204    0.0719 H   0  0  0  0  0  0  0  0  0  0  0  0
    1.7353    9.7730    1.0585 H   0  0  0  0  0  0  0  0  0  0  0  0
   -0.1980    8.3625    0.8859 H   0  0  0  0  0  0  0  0  0  0  0  0
    0.7830    7.9160   -1.5650 H   0  0  0  0  0  0  0  0  0  0  0  0
   -0.8182   10.1149    2.0804 H   0  0  0  0  0  0  0  0  0  0  0  0
    0.0284   11.5313    1.3707 H   0  0  0  0  0  0  0  0  0  0  0  0
   -1.7667   11.4652    1.3707 H   0  0  0  0  0  0  0  0  0  0  0  0
   -2.7837    9.5117    0.5932 H   0  0  0  0  0  0  0  0  0  0  0  0
   -2.8119   10.4487   -0.9391 H   0  0  0  0  0  0  0  0  0  0  0  0
   -2.2456    8.7440   -0.9391 H   0  0  0  0  0  0  0  0  0  0  0  0
    2.5972   10.7393   -3.2064 H   0  0  0  0  0  0  0  0  0  0  0  0
    1.2300   11.5095   -4.0807 H   0  0  0  0  0  0  0  0  0  0  0  0
    2.8488   12.2881   -4.0807 H   0  0  0  0  0  0  0  0  0  0  0  0
    3.6111   12.4196   -1.0592 H   0  0  0  0  0  0  0  0  0  0  0  0
    3.6233   13.4663   -2.5882 H   0  0  0  0  0  0  0  0  0  0  0  0
    2.5142   14.1883    0.1382 H   0  0  0  0  0  0  0  0  0  0  0  0
    3.9243   14.9085   -0.7340 H   0  0  0  0  0  0  0  0  0  0  0  0
    3.5917   16.4106   -2.7047 H   0  0  0  0  0  0  0  0  0  0  0  0
    2.9047   14.9413   -3.4766 H   0  0  0  0  0  0  0  0  0  0  0  0
    1.9710   16.4758   -3.4766 H   0  0  0  0  0  0  0  0  0  0  0  0
  1  2  1  0
  2  3  1  0
  3  4  1  0
  4  5  1  0
  5  6  1  0
  6  7  1  0
  7  8  1  0
  7  9  1  0
  2 10  1  0
 10 11  1  0
 11 12  1  0
 12 13  1  0
 13 14  1  1
 13 15  1  0
 15 16  1  0
 16 17  1  0
 17 18  2  0
 18 19  1  0
 19 20  1  0
 20 21  1  0
 21 22  1  0
 22 23  1  0
 22 24  1  0
 24 25  1  0
 24 26  1  0
 19 27  1  0
 27 28  1  6
 27 29  1  0
 29 30  1  0
 30 31  1  0
 31 32  1  6
  7  5  1  0
 31 10  1  0
 31 13  1  0
 27 15  1  0
 24 18  1  0
  1 33  1  0
  1 34  1  0
  1 35  1  0
  2 36  1  6
  3 37  1  0
  3 38  1  0
  4 39  1  0
  4 40  1  0
  5 41  1  6
  8 42  1  0
  8 43  1  0
  8 44  1  0
  9 45  1  0
  9 46  1  0
  9 47  1  0
 10 48  1  1
 11 49  1  0
 11 50  1  0
 12 51  1  0
 12 52  1  0
 14 53  1  0
 14 54  1  0
 14 55  1  0
 15 56  1  6
 16 57  1  0
 16 58  1  0
 17 59  1  0
 19 60  1  1
 20 61  1  0
 20 62  1  0
 21 63  1  0
 21 64  1  0
 22 65  1  1
 23 66  1  0
 25 67  1  0
 25 68  1  0
 25 69  1  0
 26 70  1  0
 26 71  1  0
 26 72  1  0
 28 73  1  0
 28 74  1  0
 28 75  1  0
 29 76  1  0
 29 77  1  0
 30 78  1  0
 30 79  1  0
 32 80  1  0
 32 81  1  0
 32 82  1  0
M  END
>  <meeko>  (4) 
{"is_sidechain": [false], "intermolecular_energy": 2.731, "internal_energy": -0.839}

$$$$
EPH_relaxed_0001_pdb2pqr_Repair_298_r2_0001_out
     RDKit          3D

 82 86  0  0  0  0  0  0  0  0999 V2000
    2.6150   17.7670   -2.3540 C   0  0  0  0  0  0  0  0  0  0  0  0
    1.2320   17.4570   -1.7740 C   0  0  2  0  0  0  0  0  0  0  0  0
    1.2180   17.5290   -0.2340 C   0  0  0  0  0  0  0  0  0  0  0  0
    0.9470   18.9320    0.3140 C   0  0  0  0  0  0  0  0  0  0  0  0
   -0.4940   19.1140    0.6840 C   0  0  2  0  0  0  0  0  0  0  0  0
   -1.3950   18.1940    0.0530 O   0  0  0  0  0  0  0  0  0  0  0  0
   -1.5570   19.5790   -0.2940 C   0  0  0  0  0  0  0  0  0  0  0  0
   -1.2220   19.8930   -1.7180 C   0  0  0  0  0  0  0  0  0  0  0  0
   -2.8090   20.1940    0.2490 C   0  0  0  0  0  0  0  0  0  0  0  0
    0.7710   16.0800   -2.2360 C   0  0  1  0  0  0  0  0  0  0  0  0
    0.9050   15.8880   -3.7700 C   0  0  0  0  0  0  0  0  0  0  0  0
    1.2860   14.4030   -4.0040 C   0  0  0  0  0  0  0  0  0  0  0  0
    1.0340   13.7170   -2.6410 C   0  0  1  0  0  0  0  0  0  0  0  0
   -0.5030   13.4480   -2.6040 C   0  0  0  0  0  0  0  0  0  0  0  0
    1.8540   12.4160   -2.3600 C   0  0  2  0  0  0  0  0  0  0  0  0
    1.5780   11.2490   -3.3250 C   0  0  0  0  0  0  0  0  0  0  0  0
    0.4890   10.3180   -2.9050 C   0  0  0  0  0  0  0  0  0  0  0  0
   -0.0430   10.2440   -1.6710 C   0  0  0  0  0  0  0  0  0  0  0  0
    0.5180   11.0880   -0.5190 C   0  0  1  0  0  0  0  0  0  0  0  0
    0.6950   10.1960    0.7380 C   0  0  0  0  0  0  0  0  0  0  0  0
   -0.5880    9.4640    1.1220 C   0  0  0  0  0  0  0  0  0  0  0  0
   -1.0820    8.5910   -0.0290 C   0  0  2  0  0  0  0  0  0  0  0  0
   -0.1430    7.5330   -0.2400 O   0  0  0  0  0  0  0  0  0  0  0  0
   -1.2880    9.3800   -1.3520 C   0  0  0  0  0  0  0  0  0  0  0  0
   -2.5110   10.3210   -1.2130 C   0  0  0  0  0  0  0  0  0  0  0  0
   -1.6500    8.3590   -2.4650 C   0  0  0  0  0  0  0  0  0  0  0  0
    1.8180   11.9390   -0.8520 C   0  0  1  0  0  0  0  0  0  0  0  0
    3.0940   11.0700   -0.6290 C   0  0  0  0  0  0  0  0  0  0  0  0
    1.9180   13.1420    0.1580 C   0  0  0  0  0  0  0  0  0  0  0  0
    1.1850   14.4400   -0.2320 C   0  0  0  0  0  0  0  0  0  0  0  0
    1.5240   14.8510   -1.6680 C   0  0  2  0  0  0  0  0  0  0  0  0
    3.0610   15.1490   -1.7300 C   0  0  0  0  0  0  0  0  0  0  0  0
    3.3294   17.9271   -1.5330 H   0  0  0  0  0  0  0  0  0  0  0  0
    2.9509   16.9219   -2.9728 H   0  0  0  0  0  0  0  0  0  0  0  0
    2.5581   18.6747   -2.9728 H   0  0  0  0  0  0  0  0  0  0  0  0
    0.5379   18.2250   -2.1459 H   0  0  0  0  0  0  0  0  0  0  0  0
    0.4337   16.8534    0.1381 H   0  0  0  0  0  0  0  0  0  0  0  0
    2.2212   17.2376    0.1105 H   0  0  0  0  0  0  0  0  0  0  0  0
    1.5675   19.0914    1.2082 H   0  0  0  0  0  0  0  0  0  0  0  0
    1.1938   19.6607   -0.4722 H   0  0  0  0  0  0  0  0  0  0  0  0
   -0.2162   19.4592    1.6908 H   0  0  0  0  0  0  0  0  0  0  0  0
   -0.4197   20.6450   -1.7487 H   0  0  0  0  0  0  0  0  0  0  0  0
   -0.8858   18.9772   -2.2261 H   0  0  0  0  0  0  0  0  0  0  0  0
   -2.1142   20.2877   -2.2261 H   0  0  0  0  0  0  0  0  0  0  0  0
   -2.7780   20.1788    1.3485 H   0  0  0  0  0  0  0  0  0  0  0  0
   -2.8885   21.2337   -0.1012 H   0  0  0  0  0  0  0  0  0  0  0  0
   -3.6805   19.6214   -0.1012 H   0  0  0  0  0  0  0  0  0  0  0  0
   -0.2624   16.0958   -1.8595 H   0  0  0  0  0  0  0  0  0  0  0  0
   -0.0503   16.1164   -4.2651 H   0  0  0  0  0  0  0  0  0  0  0  0
    1.6680   16.5617   -4.1870 H   0  0  0  0  0  0  0  0  0  0  0  0
    0.6529   13.9581   -4.7858 H   0  0  0  0  0  0  0  0  0  0  0  0
    2.3258   14.2873   -4.3437 H   0  0  0  0  0  0  0  0  0  0  0  0
   -0.8399   13.3890   -1.5585 H   0  0  0  0  0  0  0  0  0  0  0  0
   -1.0310   14.2674   -3.1137 H   0  0  0  0  0  0  0  0  0  0  0  0
   -0.7213   12.4980   -3.1137 H   0  0  0  0  0  0  0  0  0  0  0  0
    2.8848   12.7387   -2.5679 H   0  0  0  0  0  0  0  0  0  0  0  0
    1.3042   11.6735   -4.3022 H   0  0  0  0  0  0  0  0  0  0  0  0
    2.4995   10.6487   -3.3480 H   0  0  0  0  0  0  0  0  0  0  0  0
    0.0877    9.6351   -3.6683 H   0  0  0  0  0  0  0  0  0  0  0  0
   -0.2317   11.8680   -0.3203 H   0  0  0  0  0  0  0  0  0  0  0  0
    1.4784    9.4511    0.5343 H   0  0  0  0  0  0  0  0  0  0  0  0
    0.9687   10.8524    1.5772 H   0  0  0  0  0  0  0  0  0  0  0  0
   -0.3916    8.8281    1.9978 H   0  0  0  0  0  0  0  0  0  0  0  0
   -1.3622   10.2099    1.3549 H   0  0  0  0  0  0  0  0  0  0  0  0
   -2.0682    8.1957    0.2560 H   0  0  0  0  0  0  0  0  0  0  0  0
    0.1570    7.5860   -1.1640 H   0  0  0  0  0  0  0  0  0  0  0  0
   -2.7267   10.4870   -0.1472 H   0  0  0  0  0  0  0  0  0  0  0  0
   -2.2896   11.2839   -1.6966 H   0  0  0  0  0  0  0  0  0  0  0  0
   -3.3850    9.8602   -1.6966 H   0  0  0  0  0  0  0  0  0  0  0  0
   -1.9838    7.4175   -2.0044 H   0  0  0  0  0  0  0  0  0  0  0  0
   -2.4578    8.7683   -3.0894 H   0  0  0  0  0  0  0  0  0  0  0  0
   -0.7648    8.1681   -3.0894 H   0  0  0  0  0  0  0  0  0  0  0  0
    3.2714   10.9492    0.4499 H   0  0  0  0  0  0  0  0  0  0  0  0
    2.9497   10.0817   -1.0898 H   0  0  0  0  0  0  0  0  0  0  0  0
    3.9608   11.5663   -1.0898 H   0  0  0  0  0  0  0  0  0  0  0  0
    1.5062   12.8036    1.1202 H   0  0  0  0  0  0  0  0  0  0  0  0
    2.9846   13.4100    0.1814 H   0  0  0  0  0  0  0  0  0  0  0  0
    0.0999   14.2788   -0.1505 H   0  0  0  0  0  0  0  0  0  0  0  0
    1.5073   15.2425    0.4478 H   0  0  0  0  0  0  0  0  0  0  0  0
    3.4610   15.2265   -0.7082 H   0  0  0  0  0  0  0  0  0  0  0  0
    3.5715   14.3331   -2.2626 H   0  0  0  0  0  0  0  0  0  0  0  0
    3.2296   16.0966   -2.2626 H   0  0  0  0  0  0  0  0  0  0  0  0
  1  2  1  0
  2  3  1  0
  3  4  1  0
  4  5  1  0
  5  6  1  0
  6  7  1  0
  7  8  1  0
  7  9  1  0
  2 10  1  0
 10 11  1  0
 11 12  1  0
 12 13  1  0
 13 14  1  1
 13 15  1  0
 15 16  1  0
 16 17  1  0
 17 18  2  0
 18 19  1  0
 19 20  1  0
 20 21  1  0
 21 22  1  0
 22 23  1  0
 22 24  1  0
 24 25  1  0
 24 26  1  0
 19 27  1  0
 27 28  1  6
 27 29  1  0
 29 30  1  0
 30 31  1  0
 31 32  1  1
  7  5  1  0
 31 10  1  0
 31 13  1  0
 27 15  1  0
 24 18  1  0
  1 33  1  0
  1 34  1  0
  1 35  1  0
  2 36  1  6
  3 37  1  0
  3 38  1  0
  4 39  1  0
  4 40  1  0
  5 41  1  1
  8 42  1  0
  8 43  1  0
  8 44  1  0
  9 45  1  0
  9 46  1  0
  9 47  1  0
 10 48  1  6
 11 49  1  0
 11 50  1  0
 12 51  1  0
 12 52  1  0
 14 53  1  0
 14 54  1  0
 14 55  1  0
 15 56  1  6
 16 57  1  0
 16 58  1  0
 17 59  1  0
 19 60  1  1
 20 61  1  0
 20 62  1  0
 21 63  1  0
 21 64  1  0
 22 65  1  1
 23 66  1  0
 25 67  1  0
 25 68  1  0
 25 69  1  0
 26 70  1  0
 26 71  1  0
 26 72  1  0
 28 73  1  0
 28 74  1  0
 28 75  1  0
 29 76  1  0
 29 77  1  0
 30 78  1  0
 30 79  1  0
 32 80  1  0
 32 81  1  0
 32 82  1  0
M  END
>  <meeko>  (5) 
{"is_sidechain": [false], "intermolecular_energy": 2.731, "internal_energy": -0.839}

$$$$
EPH_relaxed_0001_pdb2pqr_Repair_298_r2_0001_out
     RDKit          3D

 82 86  0  0  0  0  0  0  0  0999 V2000
   -5.1440    5.8490   -1.7960 C   0  0  0  0  0  0  0  0  0  0  0  0
   -5.4560    7.3480   -1.8180 C   0  0  2  0  0  0  0  0  0  0  0  0
   -5.2370    8.0080   -0.4420 C   0  0  0  0  0  0  0  0  0  0  0  0
   -4.1940    9.1290   -0.4550 C   0  0  0  0  0  0  0  0  0  0  0  0
   -2.8270    8.6100   -0.7850 C   0  0  2  0  0  0  0  0  0  0  0  0
   -1.8160    8.9290    0.1790 O   0  0  0  0  0  0  0  0  0  0  0  0
   -1.6510    9.5060   -1.1260 C   0  0  0  0  0  0  0  0  0  0  0  0
   -1.7890   10.9960   -1.1550 C   0  0  0  0  0  0  0  0  0  0  0  0
   -0.5100    8.9260   -1.9020 C   0  0  0  0  0  0  0  0  0  0  0  0
   -6.8900    7.5740   -2.2810 C   0  0  1  0  0  0  0  0  0  0  0  0
   -7.1970    6.8800   -3.6350 C   0  0  0  0  0  0  0  0  0  0  0  0
   -8.6720    6.4050   -3.5700 C   0  0  0  0  0  0  0  0  0  0  0  0
   -9.2590    7.1250   -2.3340 C   0  0  1  0  0  0  0  0  0  0  0  0
   -9.6110    8.5600   -2.8350 C   0  0  0  0  0  0  0  0  0  0  0  0
  -10.4850    6.4350   -1.6500 C   0  0  2  0  0  0  0  0  0  0  0  0
  -11.7390    6.3090   -2.5330 C   0  0  0  0  0  0  0  0  0  0  0  0
  -12.6940    7.4540   -2.4500 C   0  0  0  0  0  0  0  0  0  0  0  0
  -12.6980    8.4020   -1.4950 C   0  0  0  0  0  0  0  0  0  0  0  0
  -11.7330    8.3240   -0.3040 C   0  0  1  0  0  0  0  0  0  0  0  0
  -12.5100    8.6020    1.0100 C   0  0  0  0  0  0  0  0  0  0  0  0
  -13.2800    9.9180    0.9680 C   0  0  0  0  0  0  0  0  0  0  0  0
  -14.2700    9.9330   -0.1940 C   0  0  2  0  0  0  0  0  0  0  0  0
  -15.2870    8.9570    0.0540 O   0  0  0  0  0  0  0  0  0  0  0  0
  -13.6040    9.6550   -1.5700 C   0  0  0  0  0  0  0  0  0  0  0  0
  -12.7270   10.8650   -1.9770 C   0  0  0  0  0  0  0  0  0  0  0  0
  -14.7300    9.5580   -2.6350 C   0  0  0  0  0  0  0  0  0  0  0  0
  -10.8400    7.0130   -0.2200 C   0  0  1  0  0  0  0  0  0  0  0  0
  -11.6130    5.8890    0.5350 C   0  0  0  0  0  0  0  0  0  0  0  0
   -9.5550    7.3210    0.6360 C   0  0  0  0  0  0  0  0  0  0  0  0
   -8.3370    7.8890   -0.1170 C   0  0  0  0  0  0  0  0  0  0  0  0
   -8.0250    7.0540   -1.3630 C   0  0  2  0  0  0  0  0  0  0  0  0
   -7.6450    5.6100   -0.8880 C   0  0  0  0  0  0  0  0  0  0  0  0
   -5.0723    5.5047   -0.7537 H   0  0  0  0  0  0  0  0  0  0  0  0
   -5.9471    5.2998   -2.3092 H   0  0  0  0  0  0  0  0  0  0  0  0
   -4.1885    5.6658   -2.3092 H   0  0  0  0  0  0  0  0  0  0  0  0
   -4.7580    7.8200   -2.5251 H   0  0  0  0  0  0  0  0  0  0  0  0
   -6.1949    8.4290   -0.1026 H   0  0  0  0  0  0  0  0  0  0  0  0
   -4.8592    7.2258    0.2328 H   0  0  0  0  0  0  0  0  0  0  0  0
   -4.4832    9.8763   -1.2086 H   0  0  0  0  0  0  0  0  0  0  0  0
   -4.1581    9.5759    0.5495 H   0  0  0  0  0  0  0  0  0  0  0  0
   -3.2572    7.7329   -1.2905 H   0  0  0  0  0  0  0  0  0  0  0  0
   -1.8247   11.3810   -0.1252 H   0  0  0  0  0  0  0  0  0  0  0  0
   -0.9276   11.4339   -1.6806 H   0  0  0  0  0  0  0  0  0  0  0  0
   -2.7162   11.2682   -1.6806 H   0  0  0  0  0  0  0  0  0  0  0  0
    0.2488    8.5403   -1.2053 H   0  0  0  0  0  0  0  0  0  0  0  0
   -0.8771    8.1051   -2.5355 H   0  0  0  0  0  0  0  0  0  0  0  0
   -0.0632    9.7064   -2.5355 H   0  0  0  0  0  0  0  0  0  0  0  0
   -6.9028    8.6736   -2.3093 H   0  0  0  0  0  0  0  0  0  0  0  0
   -7.0642    7.5910   -4.4638 H   0  0  0  0  0  0  0  0  0  0  0  0
   -6.5166    6.0332   -3.8080 H   0  0  0  0  0  0  0  0  0  0  0  0
   -9.2140    6.6950   -4.4822 H   0  0  0  0  0  0  0  0  0  0  0  0
   -8.7551    5.3108   -3.4941 H   0  0  0  0  0  0  0  0  0  0  0  0
   -9.7731    9.2207   -1.9706 H   0  0  0  0  0  0  0  0  0  0  0  0
   -8.7818    8.9495   -3.4438 H   0  0  0  0  0  0  0  0  0  0  0  0
  -10.5263    8.5216   -3.4438 H   0  0  0  0  0  0  0  0  0  0  0  0
  -10.1227    5.4076   -1.4975 H   0  0  0  0  0  0  0  0  0  0  0  0
  -11.4106    6.2151   -3.5786 H   0  0  0  0  0  0  0  0  0  0  0  0
  -12.2853    5.4290   -2.1627 H   0  0  0  0  0  0  0  0  0  0  0  0
  -13.4594    7.5289   -3.2365 H   0  0  0  0  0  0  0  0  0  0  0  0
  -10.9826    9.1115   -0.4677 H   0  0  0  0  0  0  0  0  0  0  0  0
  -13.2232    7.7816    1.1780 H   0  0  0  0  0  0  0  0  0  0  0  0
  -11.7738    8.6722    1.8243 H   0  0  0  0  0  0  0  0  0  0  0  0
  -13.8307   10.0434    1.9119 H   0  0  0  0  0  0  0  0  0  0  0  0
  -12.5629   10.7405    0.8294 H   0  0  0  0  0  0  0  0  0  0  0  0
  -14.6962   10.9455   -0.2508 H   0  0  0  0  0  0  0  0  0  0  0  0
  -15.7570    8.8030   -0.7830 H   0  0  0  0  0  0  0  0  0  0  0  0
  -12.3594   11.3721   -1.0727 H   0  0  0  0  0  0  0  0  0  0  0  0
  -11.8721   10.5140   -2.5737 H   0  0  0  0  0  0  0  0  0  0  0  0
  -13.3266   11.5682   -2.5737 H   0  0  0  0  0  0  0  0  0  0  0  0
  -15.7045    9.4741   -2.1317 H   0  0  0  0  0  0  0  0  0  0  0  0
  -14.7186   10.4604   -3.2639 H   0  0  0  0  0  0  0  0  0  0  0  0
  -14.5645    8.6708   -3.2639 H   0  0  0  0  0  0  0  0  0  0  0  0
  -11.5102    6.0385    1.6199 H   0  0  0  0  0  0  0  0  0  0  0  0
  -12.6771    5.9267    0.2589 H   0  0  0  0  0  0  0  0  0  0  0  0
  -11.1970    4.9088    0.2589 H   0  0  0  0  0  0  0  0  0  0  0  0
   -9.8376    8.0504    1.4094 H   0  0  0  0  0  0  0  0  0  0  0  0
   -9.2252    6.3446    1.0206 H   0  0  0  0  0  0  0  0  0  0  0  0
   -8.5527    8.9237   -0.4218 H   0  0  0  0  0  0  0  0  0  0  0  0
   -7.4650    7.8591    0.5529 H   0  0  0  0  0  0  0  0  0  0  0  0
   -7.6361    5.5761    0.2114 H   0  0  0  0  0  0  0  0  0  0  0  0
   -8.3846    4.8915   -1.2710 H   0  0  0  0  0  0  0  0  0  0  0  0
   -6.6475    5.3486   -1.2710 H   0  0  0  0  0  0  0  0  0  0  0  0
  1  2  1  0
  2  3  1  0
  3  4  1  0
  4  5  1  0
  5  6  1  0
  6  7  1  0
  7  8  1  0
  7  9  1  0
  2 10  1  0
 10 11  1  0
 11 12  1  0
 12 13  1  0
 13 14  1  6
 13 15  1  0
 15 16  1  0
 16 17  1  0
 17 18  2  0
 18 19  1  0
 19 20  1  0
 20 21  1  0
 21 22  1  0
 22 23  1  0
 22 24  1  0
 24 25  1  0
 24 26  1  0
 19 27  1  0
 27 28  1  1
 27 29  1  0
 29 30  1  0
 30 31  1  0
 31 32  1  1
  7  5  1  0
 31 10  1  0
 31 13  1  0
 27 15  1  0
 24 18  1  0
  1 33  1  0
  1 34  1  0
  1 35  1  0
  2 36  1  6
  3 37  1  0
  3 38  1  0
  4 39  1  0
  4 40  1  0
  5 41  1  6
  8 42  1  0
  8 43  1  0
  8 44  1  0
  9 45  1  0
  9 46  1  0
  9 47  1  0
 10 48  1  6
 11 49  1  0
 11 50  1  0
 12 51  1  0
 12 52  1  0
 14 53  1  0
 14 54  1  0
 14 55  1  0
 15 56  1  1
 16 57  1  0
 16 58  1  0
 17 59  1  0
 19 60  1  6
 20 61  1  0
 20 62  1  0
 21 63  1  0
 21 64  1  0
 22 65  1  6
 23 66  1  0
 25 67  1  0
 25 68  1  0
 25 69  1  0
 26 70  1  0
 26 71  1  0
 26 72  1  0
 28 73  1  0
 28 74  1  0
 28 75  1  0
 29 76  1  0
 29 77  1  0
 30 78  1  0
 30 79  1  0
 32 80  1  0
 32 81  1  0
 32 82  1  0
M  END
>  <meeko>  (6) 
{"is_sidechain": [false], "intermolecular_energy": 2.731, "internal_energy": -0.839}

$$$$
EPH_relaxed_0001_pdb2pqr_Repair_298_r2_0001_out
     RDKit          3D

 82 86  0  0  0  0  0  0  0  0999 V2000
   -0.0360   10.4230   -3.6010 C   0  0  0  0  0  0  0  0  0  0  0  0
    1.0200   10.2280   -2.5090 C   0  0  2  0  0  0  0  0  0  0  0  0
    0.7660    8.9560   -1.6760 C   0  0  0  0  0  0  0  0  0  0  0  0
    0.0800    9.2260   -0.3340 C   0  0  0  0  0  0  0  0  0  0  0  0
   -1.3370    8.7390   -0.3280 C   0  0  2  0  0  0  0  0  0  0  0  0
   -1.9950    8.7940   -1.6010 O   0  0  0  0  0  0  0  0  0  0  0  0
   -2.5330    9.6410   -0.5720 C   0  0  0  0  0  0  0  0  0  0  0  0
   -2.3650   11.1040   -0.8380 C   0  0  0  0  0  0  0  0  0  0  0  0
   -3.8740    9.2030   -0.0700 C   0  0  0  0  0  0  0  0  0  0  0  0
    1.0560   11.4490   -1.5980 C   0  0  1  0  0  0  0  0  0  0  0  0
    2.0590   11.2880   -0.4240 C   0  0  0  0  0  0  0  0  0  0  0  0
    2.6630   12.6910   -0.1560 C   0  0  0  0  0  0  0  0  0  0  0  0
    1.7580   13.6630   -0.9490 C   0  0  1  0  0  0  0  0  0  0  0  0
    0.5130   13.8870   -0.0340 C   0  0  0  0  0  0  0  0  0  0  0  0
    2.4090   15.0180   -1.3790 C   0  0  2  0  0  0  0  0  0  0  0  0
    2.8580   15.9230   -0.2190 C   0  0  0  0  0  0  0  0  0  0  0  0
    1.8330   16.8930    0.2670 C   0  0  0  0  0  0  0  0  0  0  0  0
    0.7050   17.2320   -0.3850 C   0  0  0  0  0  0  0  0  0  0  0  0
    0.4170   16.6910   -1.7920 C   0  0  1  0  0  0  0  0  0  0  0  0
   -0.0560   17.8520   -2.7060 C   0  0  0  0  0  0  0  0  0  0  0  0
   -1.2410   18.6130   -2.1190 C   0  0  0  0  0  0  0  0  0  0  0  0
   -0.8950   19.1850   -0.7460 C   0  0  2  0  0  0  0  0  0  0  0  0
    0.1060   20.1940   -0.9060 O   0  0  0  0  0  0  0  0  0  0  0  0
   -0.3970   18.1090    0.2580 C   0  0  0  0  0  0  0  0  0  0  0  0
   -1.5760   17.1890    0.6630 C   0  0  0  0  0  0  0  0  0  0  0  0
    0.0510   18.8360    1.5550 C   0  0  0  0  0  0  0  0  0  0  0  0
    1.5740   15.8260   -2.4530 C   0  0  1  0  0  0  0  0  0  0  0  0
    2.5820   16.7600   -3.1900 C   0  0  0  0  0  0  0  0  0  0  0  0
    0.9510   14.8890   -3.5550 C   0  0  0  0  0  0  0  0  0  0  0  0
    0.4330   13.5160   -3.0870 C   0  0  0  0  0  0  0  0  0  0  0  0
    1.4810   12.7970   -2.2320 C   0  0  2  0  0  0  0  0  0  0  0  0
    2.7380   12.5390   -3.1310 C   0  0  0  0  0  0  0  0  0  0  0  0
   -1.0160   10.6040   -3.1353 H   0  0  0  0  0  0  0  0  0  0  0  0
    0.2379   11.2858   -4.2260 H   0  0  0  0  0  0  0  0  0  0  0  0
   -0.0883    9.5193   -4.2260 H   0  0  0  0  0  0  0  0  0  0  0  0
    1.9932   10.1068   -3.0072 H   0  0  0  0  0  0  0  0  0  0  0  0
    0.1277    8.2786   -2.2623 H   0  0  0  0  0  0  0  0  0  0  0  0
    1.7493    8.5168   -1.4518 H   0  0  0  0  0  0  0  0  0  0  0  0
    0.6376    8.7101    0.4616 H   0  0  0  0  0  0  0  0  0  0  0  0
    0.0696   10.3132   -0.1668 H   0  0  0  0  0  0  0  0  0  0  0  0
   -1.1092    8.0147    0.4680 H   0  0  0  0  0  0  0  0  0  0  0  0
   -2.3028   11.6456    0.1174 H   0  0  0  0  0  0  0  0  0  0  0  0
   -1.4421   11.2684   -1.4135 H   0  0  0  0  0  0  0  0  0  0  0  0
   -3.2266   11.4734   -1.4135 H   0  0  0  0  0  0  0  0  0  0  0  0
   -3.8719    9.2037    1.0300 H   0  0  0  0  0  0  0  0  0  0  0  0
   -4.6465    9.8955   -0.4356 H   0  0  0  0  0  0  0  0  0  0  0  0
   -4.0888    8.1880   -0.4356 H   0  0  0  0  0  0  0  0  0  0  0  0
   -0.0026   11.4901   -1.3018 H   0  0  0  0  0  0  0  0  0  0  0  0
    1.5371   10.9227    0.4727 H   0  0  0  0  0  0  0  0  0  0  0  0
    2.8455   10.5605   -0.6734 H   0  0  0  0  0  0  0  0  0  0  0  0
    2.6378   12.9259    0.9183 H   0  0  0  0  0  0  0  0  0  0  0  0
    3.7170   12.7573   -0.4637 H   0  0  0  0  0  0  0  0  0  0  0  0
    0.8188   13.8320    1.0212 H   0  0  0  0  0  0  0  0  0  0  0  0
    0.0805   14.8774   -0.2393 H   0  0  0  0  0  0  0  0  0  0  0  0
   -0.2375   13.1095   -0.2393 H   0  0  0  0  0  0  0  0  0  0  0  0
    3.3336   14.6886   -1.8757 H   0  0  0  0  0  0  0  0  0  0  0  0
    3.1422   15.2775    0.6252 H   0  0  0  0  0  0  0  0  0  0  0  0
    3.6888   16.5288   -0.6099 H   0  0  0  0  0  0  0  0  0  0  0  0
    2.0147   17.3716    1.2406 H   0  0  0  0  0  0  0  0  0  0  0  0
   -0.3918   15.9547   -1.6750 H   0  0  0  0  0  0  0  0  0  0  0  0
    0.7795   18.5537   -2.8456 H   0  0  0  0  0  0  0  0  0  0  0  0
   -0.3806   17.4139   -3.6614 H   0  0  0  0  0  0  0  0  0  0  0  0
   -1.5102   19.4377   -2.7953 H   0  0  0  0  0  0  0  0  0  0  0  0
   -2.0853   17.9168   -2.0072 H   0  0  0  0  0  0  0  0  0  0  0  0
   -1.8185   19.6058   -0.3217 H   0  0  0  0  0  0  0  0  0  0  0  0
    0.9460   19.8310   -0.5770 H   0  0  0  0  0  0  0  0  0  0  0  0
   -1.6413   17.1381    1.7599 H   0  0  0  0  0  0  0  0  0  0  0  0
   -2.5144   17.5960    0.2583 H   0  0  0  0  0  0  0  0  0  0  0  0
   -1.4094   16.1798    0.2583 H   0  0  0  0  0  0  0  0  0  0  0  0
   -0.2976   18.2702    2.4316 H   0  0  0  0  0  0  0  0  0  0  0  0
    1.1486   18.9052    1.5761 H   0  0  0  0  0  0  0  0  0  0  0  0
   -0.3806   19.8476    1.5761 H   0  0  0  0  0  0  0  0  0  0  0  0
    3.1786   17.3128   -2.4493 H   0  0  0  0  0  0  0  0  0  0  0  0
    3.2497   16.1542   -3.8203 H   0  0  0  0  0  0  0  0  0  0  0  0
    2.0288   17.4719   -3.8203 H   0  0  0  0  0  0  0  0  0  0  0  0
    0.1057   15.4263   -4.0096 H   0  0  0  0  0  0  0  0  0  0  0  0
    1.7788   14.6649   -4.2439 H   0  0  0  0  0  0  0  0  0  0  0  0
   -0.4803   13.6600   -2.4911 H   0  0  0  0  0  0  0  0  0  0  0  0
    0.2212   12.9002   -3.9736 H   0  0  0  0  0  0  0  0  0  0  0  0
    3.6151   12.3590   -2.4920 H   0  0  0  0  0  0  0  0  0  0  0  0
    2.5601   11.6586   -3.7661 H   0  0  0  0  0  0  0  0  0  0  0  0
    2.9213   13.4182   -3.7661 H   0  0  0  0  0  0  0  0  0  0  0  0
  1  2  1  0
  2  3  1  0
  3  4  1  0
  4  5  1  0
  5  6  1  0
  6  7  1  0
  7  8  1  0
  7  9  1  0
  2 10  1  0
 10 11  1  0
 11 12  1  0
 12 13  1  0
 13 14  1  1
 13 15  1  0
 15 16  1  0
 16 17  1  0
 17 18  2  0
 18 19  1  0
 19 20  1  0
 20 21  1  0
 21 22  1  0
 22 23  1  0
 22 24  1  0
 24 25  1  0
 24 26  1  0
 19 27  1  0
 27 28  1  6
 27 29  1  0
 29 30  1  0
 30 31  1  0
 31 32  1  6
  7  5  1  0
 31 10  1  0
 31 13  1  0
 27 15  1  0
 24 18  1  0
  1 33  1  0
  1 34  1  0
  1 35  1  0
  2 36  1  6
  3 37  1  0
  3 38  1  0
  4 39  1  0
  4 40  1  0
  5 41  1  1
  8 42  1  0
  8 43  1  0
  8 44  1  0
  9 45  1  0
  9 46  1  0
  9 47  1  0
 10 48  1  1
 11 49  1  0
 11 50  1  0
 12 51  1  0
 12 52  1  0
 14 53  1  0
 14 54  1  0
 14 55  1  0
 15 56  1  6
 16 57  1  0
 16 58  1  0
 17 59  1  0
 19 60  1  1
 20 61  1  0
 20 62  1  0
 21 63  1  0
 21 64  1  0
 22 65  1  1
 23 66  1  0
 25 67  1  0
 25 68  1  0
 25 69  1  0
 26 70  1  0
 26 71  1  0
 26 72  1  0
 28 73  1  0
 28 74  1  0
 28 75  1  0
 29 76  1  0
 29 77  1  0
 30 78  1  0
 30 79  1  0
 32 80  1  0
 32 81  1  0
 32 82  1  0
M  END
>  <meeko>  (7) 
{"is_sidechain": [false], "intermolecular_energy": 2.731, "internal_energy": -0.839}

$$$$
EPH_relaxed_0001_pdb2pqr_Repair_298_r2_0001_out
     RDKit          3D

 82 86  0  0  0  0  0  0  0  0999 V2000
    0.3390    9.0130   -2.6980 C   0  0  0  0  0  0  0  0  0  0  0  0
    1.1140   10.2040   -3.2680 C   0  0  2  0  0  0  0  0  0  0  0  0
    2.6020   10.1770   -2.8620 C   0  0  0  0  0  0  0  0  0  0  0  0
    3.5420   10.7430   -3.9290 C   0  0  0  0  0  0  0  0  0  0  0  0
    4.9310   10.9340   -3.4000 C   0  0  2  0  0  0  0  0  0  0  0  0
    5.5910   12.1180   -3.8670 O   0  0  0  0  0  0  0  0  0  0  0  0
    6.1740   10.8670   -4.2670 C   0  0  0  0  0  0  0  0  0  0  0  0
    6.0860   10.5970   -5.7370 C   0  0  0  0  0  0  0  0  0  0  0  0
    7.4880   10.5770   -3.6130 C   0  0  0  0  0  0  0  0  0  0  0  0
    0.4730   11.5090   -2.8090 C   0  0  1  0  0  0  0  0  0  0  0  0
   -0.8650   11.2840   -2.0550 C   0  0  0  0  0  0  0  0  0  0  0  0
   -0.9460   12.3740   -0.9550 C   0  0  0  0  0  0  0  0  0  0  0  0
    0.1690   13.3810   -1.3200 C   0  0  1  0  0  0  0  0  0  0  0  0
   -0.4520   14.2810   -2.4340 C   0  0  0  0  0  0  0  0  0  0  0  0
    0.7420   14.2340   -0.1420 C   0  0  2  0  0  0  0  0  0  0  0  0
   -0.2730   15.1650    0.5440 C   0  0  0  0  0  0  0  0  0  0  0  0
   -0.3700   16.5390   -0.0320 C   0  0  0  0  0  0  0  0  0  0  0  0
    0.5220   17.1000   -0.8690 C   0  0  0  0  0  0  0  0  0  0  0  0
    1.8200   16.3720   -1.2410 C   0  0  1  0  0  0  0  0  0  0  0  0
    3.0160   17.3540   -1.1260 C   0  0  0  0  0  0  0  0  0  0  0  0
    2.8070   18.6280   -1.9400 C   0  0  0  0  0  0  0  0  0  0  0  0
    1.5380   19.3540   -1.5020 C   0  0  2  0  0  0  0  0  0  0  0  0
    1.7210   19.8350   -0.1670 O   0  0  0  0  0  0  0  0  0  0  0  0
    0.2680   18.4600   -1.5660 C   0  0  0  0  0  0  0  0  0  0  0  0
   -0.1020   18.1870   -3.0450 C   0  0  0  0  0  0  0  0  0  0  0  0
   -0.9140   19.2670   -0.9650 C   0  0  0  0  0  0  0  0  0  0  0  0
    2.0840   14.9980   -0.4880 C   0  0  1  0  0  0  0  0  0  0  0  0
    2.8070   15.2650    0.8680 C   0  0  0  0  0  0  0  0  0  0  0  0
    3.0670   14.1200   -1.3500 C   0  0  0  0  0  0  0  0  0  0  0  0
    2.4310   13.2090   -2.4170 C   0  0  0  0  0  0  0  0  0  0  0  0
    1.2810   12.3900   -1.8230 C   0  0  2  0  0  0  0  0  0  0  0  0
    1.8790   11.4590   -0.7140 C   0  0  0  0  0  0  0  0  0  0  0  0
    0.3640    9.0514   -1.5990 H   0  0  0  0  0  0  0  0  0  0  0  0
   -0.7047    9.0558   -3.0428 H   0  0  0  0  0  0  0  0  0  0  0  0
    0.8009    8.0761   -3.0428 H   0  0  0  0  0  0  0  0  0  0  0  0
    1.0695   10.1331   -4.3648 H   0  0  0  0  0  0  0  0  0  0  0  0
    2.7221   10.7703   -1.9436 H   0  0  0  0  0  0  0  0  0  0  0  0
    2.8768    9.1215   -2.7192 H   0  0  0  0  0  0  0  0  0  0  0  0
    3.5772   10.0457   -4.7790 H   0  0  0  0  0  0  0  0  0  0  0  0
    3.1557   11.7249   -4.2399 H   0  0  0  0  0  0  0  0  0  0  0  0
    4.6642   10.4393   -2.4545 H   0  0  0  0  0  0  0  0  0  0  0  0
    5.7489    9.5627   -5.9003 H   0  0  0  0  0  0  0  0  0  0  0  0
    5.3683   11.2933   -6.1954 H   0  0  0  0  0  0  0  0  0  0  0  0
    7.0762   10.7366   -6.1954 H   0  0  0  0  0  0  0  0  0  0  0  0
    7.3673   10.6036   -2.5200 H   0  0  0  0  0  0  0  0  0  0  0  0
    7.8378    9.5800   -3.9191 H   0  0  0  0  0  0  0  0  0  0  0  0
    8.2249   11.3341   -3.9191 H   0  0  0  0  0  0  0  0  0  0  0  0
    0.3787   12.0197   -3.7787 H   0  0  0  0  0  0  0  0  0  0  0  0
   -1.7125   11.3825   -2.7493 H   0  0  0  0  0  0  0  0  0  0  0  0
   -0.9073   10.2760   -1.6167 H   0  0  0  0  0  0  0  0  0  0  0  0
   -1.9307   12.8642   -0.9660 H   0  0  0  0  0  0  0  0  0  0  0  0
   -0.8173   11.9575    0.0549 H   0  0  0  0  0  0  0  0  0  0  0  0
   -1.0182   15.1016   -1.9692 H   0  0  0  0  0  0  0  0  0  0  0  0
    0.3515   14.6979   -3.0589 H   0  0  0  0  0  0  0  0  0  0  0  0
   -1.1269   13.6777   -3.0589 H   0  0  0  0  0  0  0  0  0  0  0  0
    0.9945   13.4659    0.6038 H   0  0  0  0  0  0  0  0  0  0  0  0
   -1.2656   14.6962    0.4735 H   0  0  0  0  0  0  0  0  0  0  0  0
    0.0820   15.2930    1.5773 H   0  0  0  0  0  0  0  0  0  0  0  0
   -1.2441   17.1436    0.2516 H   0  0  0  0  0  0  0  0  0  0  0  0
    1.7000   16.0511   -2.2863 H   0  0  0  0  0  0  0  0  0  0  0  0
    3.1467   17.6284   -0.0688 H   0  0  0  0  0  0  0  0  0  0  0  0
    3.9058   16.8449   -1.5249 H   0  0  0  0  0  0  0  0  0  0  0  0
    3.6707   19.2936   -1.7948 H   0  0  0  0  0  0  0  0  0  0  0  0
    2.7061   18.3540   -3.0005 H   0  0  0  0  0  0  0  0  0  0  0  0
    1.3726   20.1841   -2.2046 H   0  0  0  0  0  0  0  0  0  0  0  0
    0.8660   19.7650    0.2910 H   0  0  0  0  0  0  0  0  0  0  0  0
   -0.9865   17.5344   -3.0872 H   0  0  0  0  0  0  0  0  0  0  0  0
   -0.3244   19.1391   -3.5491 H   0  0  0  0  0  0  0  0  0  0  0  0
    0.7421   17.6936   -3.5491 H   0  0  0  0  0  0  0  0  0  0  0  0
   -0.8616   19.2312    0.1332 H   0  0  0  0  0  0  0  0  0  0  0  0
   -0.8526   20.3126   -1.3011 H   0  0  0  0  0  0  0  0  0  0  0  0
   -1.8654   18.8291   -1.3011 H   0  0  0  0  0  0  0  0  0  0  0  0
    2.1312   15.0154    1.6992 H   0  0  0  0  0  0  0  0  0  0  0  0
    3.7110   14.6414    0.9305 H   0  0  0  0  0  0  0  0  0  0  0  0
    3.0887   16.3265    0.9305 H   0  0  0  0  0  0  0  0  0  0  0  0
    3.7585   14.8031   -1.8650 H   0  0  0  0  0  0  0  0  0  0  0  0
    3.5438   13.4347   -0.6338 H   0  0  0  0  0  0  0  0  0  0  0  0
    2.0436   13.8314   -3.2371 H   0  0  0  0  0  0  0  0  0  0  0  0
    3.1994   12.5159   -2.7899 H   0  0  0  0  0  0  0  0  0  0  0  0
    1.6222   11.8588    0.2781 H   0  0  0  0  0  0  0  0  0  0  0  0
    1.4617   10.4469   -0.8207 H   0  0  0  0  0  0  0  0  0  0  0  0
    2.9730   11.4176   -0.8207 H   0  0  0  0  0  0  0  0  0  0  0  0
  1  2  1  0
  2  3  1  0
  3  4  1  0
  4  5  1  0
  5  6  1  0
  6  7  1  0
  7  8  1  0
  7  9  1  0
  2 10  1  0
 10 11  1  0
 11 12  1  0
 12 13  1  0
 13 14  1  6
 13 15  1  0
 15 16  1  0
 16 17  1  0
 17 18  2  0
 18 19  1  0
 19 20  1  0
 20 21  1  0
 21 22  1  0
 22 23  1  0
 22 24  1  0
 24 25  1  0
 24 26  1  0
 19 27  1  0
 27 28  1  1
 27 29  1  0
 29 30  1  0
 30 31  1  0
 31 32  1  1
  7  5  1  0
 31 10  1  0
 31 13  1  0
 27 15  1  0
 24 18  1  0
  1 33  1  0
  1 34  1  0
  1 35  1  0
  2 36  1  6
  3 37  1  0
  3 38  1  0
  4 39  1  0
  4 40  1  0
  5 41  1  1
  8 42  1  0
  8 43  1  0
  8 44  1  0
  9 45  1  0
  9 46  1  0
  9 47  1  0
 10 48  1  6
 11 49  1  0
 11 50  1  0
 12 51  1  0
 12 52  1  0
 14 53  1  0
 14 54  1  0
 14 55  1  0
 15 56  1  1
 16 57  1  0
 16 58  1  0
 17 59  1  0
 19 60  1  6
 20 61  1  0
 20 62  1  0
 21 63  1  0
 21 64  1  0
 22 65  1  6
 23 66  1  0
 25 67  1  0
 25 68  1  0
 25 69  1  0
 26 70  1  0
 26 71  1  0
 26 72  1  0
 28 73  1  0
 28 74  1  0
 28 75  1  0
 29 76  1  0
 29 77  1  0
 30 78  1  0
 30 79  1  0
 32 80  1  0
 32 81  1  0
 32 82  1  0
M  END
>  <meeko>  (8) 
{"is_sidechain": [false], "intermolecular_energy": 2.731, "internal_energy": -0.839}

$$$$
EPH_relaxed_0001_pdb2pqr_Repair_298_r2_0001_out
     RDKit          3D

 82 86  0  0  0  0  0  0  0  0999 V2000
    4.2630   16.9930    0.2540 C   0  0  0  0  0  0  0  0  0  0  0  0
    3.3430   16.9420   -0.9700 C   0  0  2  0  0  0  0  0  0  0  0  0
    2.8100   18.3370   -1.3530 C   0  0  0  0  0  0  0  0  0  0  0  0
    2.9650   19.3820   -0.2440 C   0  0  0  0  0  0  0  0  0  0  0  0
    3.1760   18.7420    1.0940 C   0  0  2  0  0  0  0  0  0  0  0  0
    2.9620   19.6110    2.2140 O   0  0  0  0  0  0  0  0  0  0  0  0
    4.3020   19.1240    2.0370 C   0  0  0  0  0  0  0  0  0  0  0  0
    5.2930   20.1860    1.6780 C   0  0  0  0  0  0  0  0  0  0  0  0
    4.7280   18.1380    3.0800 C   0  0  0  0  0  0  0  0  0  0  0  0
    2.1790   15.9950   -0.7060 C   0  0  1  0  0  0  0  0  0  0  0  0
    0.8220   16.7360   -0.5790 C   0  0  0  0  0  0  0  0  0  0  0  0
   -0.2560   15.8040   -1.1890 C   0  0  0  0  0  0  0  0  0  0  0  0
    0.4510   14.4370   -1.3410 C   0  0  1  0  0  0  0  0  0  0  0  0
    0.3870   13.7920    0.0790 C   0  0  0  0  0  0  0  0  0  0  0  0
   -0.1220   13.4800   -2.4360 C   0  0  2  0  0  0  0  0  0  0  0  0
   -1.5760   13.0280   -2.2120 C   0  0  0  0  0  0  0  0  0  0  0  0
   -1.7390   11.7690   -1.4260 C   0  0  0  0  0  0  0  0  0  0  0  0
   -0.7640   10.8800   -1.1640 C   0  0  0  0  0  0  0  0  0  0  0  0
    0.6400   11.0500   -1.7600 C   0  0  1  0  0  0  0  0  0  0  0  0
    1.1220    9.6970   -2.3440 C   0  0  0  0  0  0  0  0  0  0  0  0
    1.0550    8.5630   -1.3250 C   0  0  0  0  0  0  0  0  0  0  0  0
   -0.3670    8.3860   -0.7990 C   0  0  2  0  0  0  0  0  0  0  0  0
   -1.2000    7.9260   -1.8680 O   0  0  0  0  0  0  0  0  0  0  0  0
   -0.9630    9.6880   -0.1950 C   0  0  0  0  0  0  0  0  0  0  0  0
   -0.2460   10.0190    1.1370 C   0  0  0  0  0  0  0  0  0  0  0  0
   -2.4470    9.4100    0.1680 C   0  0  0  0  0  0  0  0  0  0  0  0
    0.8170   12.2540   -2.7820 C   0  0  1  0  0  0  0  0  0  0  0  0
    0.4330   11.7910   -4.2210 C   0  0  0  0  0  0  0  0  0  0  0  0
    2.3370   12.6620   -2.8380 C   0  0  0  0  0  0  0  0  0  0  0  0
    2.8160   13.7010   -1.8060 C   0  0  0  0  0  0  0  0  0  0  0  0
    1.8830   14.9160   -1.7780 C   0  0  2  0  0  0  0  0  0  0  0  0
    1.9450   15.5980   -3.1870 C   0  0  0  0  0  0  0  0  0  0  0  0
    3.6559   16.9593    1.1707 H   0  0  0  0  0  0  0  0  0  0  0  0
    4.9465   16.1314    0.2351 H   0  0  0  0  0  0  0  0  0  0  0  0
    4.8471   17.9249    0.2351 H   0  0  0  0  0  0  0  0  0  0  0  0
    3.9389   16.5715   -1.8171 H   0  0  0  0  0  0  0  0  0  0  0  0
    3.3595   18.6872   -2.2392 H   0  0  0  0  0  0  0  0  0  0  0  0
    1.7320   18.2279   -1.5430 H   0  0  0  0  0  0  0  0  0  0  0  0
    3.8305   20.0207   -0.4743 H   0  0  0  0  0  0  0  0  0  0  0  0
    2.0393   19.9744   -0.1989 H   0  0  0  0  0  0  0  0  0  0  0  0
    2.8342   17.7700    0.7086 H   0  0  0  0  0  0  0  0  0  0  0  0
    5.7056   20.6282    2.5968 H   0  0  0  0  0  0  0  0  0  0  0  0
    6.1076   19.7425    1.0866 H   0  0  0  0  0  0  0  0  0  0  0  0
    4.7943   20.9680    1.0866 H   0  0  0  0  0  0  0  0  0  0  0  0
    4.5458   18.5598    4.0795 H   0  0  0  0  0  0  0  0  0  0  0  0
    4.1511   17.2087    2.9634 H   0  0  0  0  0  0  0  0  0  0  0  0
    5.8001   17.9211    2.9634 H   0  0  0  0  0  0  0  0  0  0  0  0
    2.5355   15.5190    0.2194 H   0  0  0  0  0  0  0  0  0  0  0  0
    0.5964   16.9342    0.4792 H   0  0  0  0  0  0  0  0  0  0  0  0
    0.8498   17.7030   -1.1026 H   0  0  0  0  0  0  0  0  0  0  0  0
   -1.1226   15.7204   -0.5166 H   0  0  0  0  0  0  0  0  0  0  0  0
   -0.6415   16.1831   -2.1470 H   0  0  0  0  0  0  0  0  0  0  0  0
    0.4651   14.5793    0.8432 H   0  0  0  0  0  0  0  0  0  0  0  0
   -0.5684   13.2597    0.1972 H   0  0  0  0  0  0  0  0  0  0  0  0
    1.2191   13.0824    0.1972 H   0  0  0  0  0  0  0  0  0  0  0  0
   -0.1435   14.1267   -3.3256 H   0  0  0  0  0  0  0  0  0  0  0  0
   -2.1036   13.8324   -1.6785 H   0  0  0  0  0  0  0  0  0  0  0  0
   -1.9866   12.8183   -3.2107 H   0  0  0  0  0  0  0  0  0  0  0  0
   -2.7407   11.5500   -1.0277 H   0  0  0  0  0  0  0  0  0  0  0  0
    1.2912   11.3485   -0.9252 H   0  0  0  0  0  0  0  0  0  0  0  0
    0.4861    9.4372   -3.2031 H   0  0  0  0  0  0  0  0  0  0  0  0
    2.1743    9.8173   -2.6411 H   0  0  0  0  0  0  0  0  0  0  0  0
    1.3804    7.6281   -1.8047 H   0  0  0  0  0  0  0  0  0  0  0  0
    1.7138    8.8109   -0.4797 H   0  0  0  0  0  0  0  0  0  0  0  0
   -0.3275    7.6508    0.0183 H   0  0  0  0  0  0  0  0  0  0  0  0
   -1.0370    8.5000   -2.6360 H   0  0  0  0  0  0  0  0  0  0  0  0
   -0.8862    9.7235    1.9813 H   0  0  0  0  0  0  0  0  0  0  0  0
    0.7052    9.4689    1.1880 H   0  0  0  0  0  0  0  0  0  0  0  0
   -0.0477   11.0998    1.1880 H   0  0  0  0  0  0  0  0  0  0  0  0
   -2.5591    9.3890    1.2621 H   0  0  0  0  0  0  0  0  0  0  0  0
   -3.0819   10.2048   -0.2505 H   0  0  0  0  0  0  0  0  0  0  0  0
   -2.7512    8.4392   -0.2505 H   0  0  0  0  0  0  0  0  0  0  0  0
   -0.2681   10.9456   -4.1593 H   0  0  0  0  0  0  0  0  0  0  0  0
   -0.0432   12.6238   -4.7593 H   0  0  0  0  0  0  0  0  0  0  0  0
    1.3395   11.4770   -4.7593 H   0  0  0  0  0  0  0  0  0  0  0  0
    2.9323   11.7487   -2.6916 H   0  0  0  0  0  0  0  0  0  0  0  0
    2.4691   13.1465   -3.8167 H   0  0  0  0  0  0  0  0  0  0  0  0
    2.8324   13.2368   -0.8089 H   0  0  0  0  0  0  0  0  0  0  0  0
    3.8236   14.0388   -2.0899 H   0  0  0  0  0  0  0  0  0  0  0  0
    2.0440   16.6865   -3.0634 H   0  0  0  0  0  0  0  0  0  0  0  0
    2.8117   15.2118   -3.7435 H   0  0  0  0  0  0  0  0  0  0  0  0
    1.0228   15.3745   -3.7435 H   0  0  0  0  0  0  0  0  0  0  0  0
  1  2  1  0
  2  3  1  0
  3  4  1  0
  4  5  1  0
  5  6  1  0
  6  7  1  0
  7  8  1  0
  7  9  1  0
  2 10  1  0
 10 11  1  0
 11 12  1  0
 12 13  1  0
 13 14  1  1
 13 15  1  0
 15 16  1  0
 16 17  1  0
 17 18  2  0
 18 19  1  0
 19 20  1  0
 20 21  1  0
 21 22  1  0
 22 23  1  0
 22 24  1  0
 24 25  1  0
 24 26  1  0
 19 27  1  0
 27 28  1  6
 27 29  1  0
 29 30  1  0
 30 31  1  0
 31 32  1  6
  7  5  1  0
 31 10  1  0
 31 13  1  0
 27 15  1  0
 24 18  1  0
  1 33  1  0
  1 34  1  0
  1 35  1  0
  2 36  1  6
  3 37  1  0
  3 38  1  0
  4 39  1  0
  4 40  1  0
  5 41  1  1
  8 42  1  0
  8 43  1  0
  8 44  1  0
  9 45  1  0
  9 46  1  0
  9 47  1  0
 10 48  1  1
 11 49  1  0
 11 50  1  0
 12 51  1  0
 12 52  1  0
 14 53  1  0
 14 54  1  0
 14 55  1  0
 15 56  1  6
 16 57  1  0
 16 58  1  0
 17 59  1  0
 19 60  1  1
 20 61  1  0
 20 62  1  0
 21 63  1  0
 21 64  1  0
 22 65  1  1
 23 66  1  0
 25 67  1  0
 25 68  1  0
 25 69  1  0
 26 70  1  0
 26 71  1  0
 26 72  1  0
 28 73  1  0
 28 74  1  0
 28 75  1  0
 29 76  1  0
 29 77  1  0
 30 78  1  0
 30 79  1  0
 32 80  1  0
 32 81  1  0
 32 82  1  0
M  END
>  <meeko>  (9) 
{"is_sidechain": [false], "intermolecular_energy": 2.731, "internal_energy": -0.839}

$$$$
EPH_relaxed_0001_pdb2pqr_Repair_298_r2_0001_out
     RDKit          3D

 82 86  0  0  0  0  0  0  0  0999 V2000
   -3.7380    7.2310   -3.3980 C   0  0  0  0  0  0  0  0  0  0  0  0
   -3.7510    7.3030   -1.8680 C   0  0  2  0  0  0  0  0  0  0  0  0
   -5.1630    7.0780   -1.2890 C   0  0  0  0  0  0  0  0  0  0  0  0
   -6.2830    7.2350   -2.3210 C   0  0  0  0  0  0  0  0  0  0  0  0
   -7.6120    7.4580   -1.6650 C   0  0  2  0  0  0  0  0  0  0  0  0
   -8.2160    6.2790   -1.1180 O   0  0  0  0  0  0  0  0  0  0  0  0
   -8.9160    6.9020   -2.2070 C   0  0  0  0  0  0  0  0  0  0  0  0
   -8.9550    6.0800   -3.4570 C   0  0  0  0  0  0  0  0  0  0  0  0
  -10.1980    7.5610   -1.8010 C   0  0  0  0  0  0  0  0  0  0  0  0
   -3.2070    8.6490   -1.4070 C   0  0  1  0  0  0  0  0  0  0  0  0
   -3.8140    9.1070   -0.0540 C   0  0  0  0  0  0  0  0  0  0  0  0
   -2.6930    9.8620    0.7070 C   0  0  0  0  0  0  0  0  0  0  0  0
   -1.5950   10.1020   -0.3550 C   0  0  1  0  0  0  0  0  0  0  0  0
   -2.0740   11.3570   -1.1510 C   0  0  0  0  0  0  0  0  0  0  0  0
   -0.1390   10.2830    0.1860 C   0  0  2  0  0  0  0  0  0  0  0  0
    0.0710   11.5030    1.0990 C   0  0  0  0  0  0  0  0  0  0  0  0
    0.4750   12.7600    0.4020 C   0  0  0  0  0  0  0  0  0  0  0  0
    0.9370   12.8400   -0.8600 C   0  0  0  0  0  0  0  0  0  0  0  0
    1.1860   11.5740   -1.6900 C   0  0  1  0  0  0  0  0  0  0  0  0
    2.5700   11.6730   -2.3840 C   0  0  0  0  0  0  0  0  0  0  0  0
    2.7230   12.9490   -3.2060 C   0  0  0  0  0  0  0  0  0  0  0  0
    2.5260   14.1860   -2.3340 C   0  0  2  0  0  0  0  0  0  0  0  0
    3.6020   14.2630   -1.3930 O   0  0  0  0  0  0  0  0  0  0  0  0
    1.1690   14.1930   -1.5770 C   0  0  0  0  0  0  0  0  0  0  0  0
    0.0130   14.4140   -2.5830 C   0  0  0  0  0  0  0  0  0  0  0  0
    1.1580   15.4210   -0.6270 C   0  0  0  0  0  0  0  0  0  0  0  0
    0.9820   10.1940   -0.9280 C   0  0  1  0  0  0  0  0  0  0  0  0
    2.3000    9.7880   -0.2020 C   0  0  0  0  0  0  0  0  0  0  0  0
    0.6890    9.0630   -1.9830 C   0  0  0  0  0  0  0  0  0  0  0  0
   -0.7830    8.8540   -2.3870 C   0  0  0  0  0  0  0  0  0  0  0  0
   -1.6820    8.7500   -1.1510 C   0  0  2  0  0  0  0  0  0  0  0  0
   -1.2380    7.4830   -0.3430 C   0  0  0  0  0  0  0  0  0  0  0  0
   -3.5508    6.1943   -3.7147 H   0  0  0  0  0  0  0  0  0  0  0  0
   -4.7108    7.5639   -3.7890 H   0  0  0  0  0  0  0  0  0  0  0  0
   -2.9431    7.8831   -3.7890 H   0  0  0  0  0  0  0  0  0  0  0  0
   -3.1073    6.4940   -1.4922 H   0  0  0  0  0  0  0  0  0  0  0  0
   -5.2110    6.0594   -0.8765 H   0  0  0  0  0  0  0  0  0  0  0  0
   -5.3225    7.8494   -0.5212 H   0  0  0  0  0  0  0  0  0  0  0  0
   -6.0550    8.0958   -2.9668 H   0  0  0  0  0  0  0  0  0  0  0  0
   -6.3413    6.3069   -2.9086 H   0  0  0  0  0  0  0  0  0  0  0  0
   -7.3141    8.4697   -1.3525 H   0  0  0  0  0  0  0  0  0  0  0  0
   -9.0056    5.0134   -3.1930 H   0  0  0  0  0  0  0  0  0  0  0  0
   -9.8412    6.3538   -4.0484 H   0  0  0  0  0  0  0  0  0  0  0  0
   -8.0469    6.2687   -4.0484 H   0  0  0  0  0  0  0  0  0  0  0  0
  -10.2618    7.5938   -0.7033 H   0  0  0  0  0  0  0  0  0  0  0  0
  -10.2263    8.5854   -2.2007 H   0  0  0  0  0  0  0  0  0  0  0  0
  -11.0475    6.9878   -2.2007 H   0  0  0  0  0  0  0  0  0  0  0  0
   -3.4854    9.2667   -2.2736 H   0  0  0  0  0  0  0  0  0  0  0  0
   -4.6693    9.7760   -0.2297 H   0  0  0  0  0  0  0  0  0  0  0  0
   -4.1758    8.2465    0.5279 H   0  0  0  0  0  0  0  0  0  0  0  0
   -3.0674   10.8181    1.1016 H   0  0  0  0  0  0  0  0  0  0  0  0
   -2.3201    9.2940    1.5720 H   0  0  0  0  0  0  0  0  0  0  0  0
   -2.3750   12.1456   -0.4457 H   0  0  0  0  0  0  0  0  0  0  0  0
   -1.2531   11.7250   -1.7840 H   0  0  0  0  0  0  0  0  0  0  0  0
   -2.9313   11.0845   -1.7840 H   0  0  0  0  0  0  0  0  0  0  0  0
   -0.0165    9.4019    0.8331 H   0  0  0  0  0  0  0  0  0  0  0  0
   -0.8730   11.6969    1.6294 H   0  0  0  0  0  0  0  0  0  0  0  0
    0.9063   11.2433    1.7660 H   0  0  0  0  0  0  0  0  0  0  0  0
    0.3878   13.6997    0.9671 H   0  0  0  0  0  0  0  0  0  0  0  0
    0.3899   11.5464   -2.4486 H   0  0  0  0  0  0  0  0  0  0  0  0
    3.3535   11.6549   -1.6121 H   0  0  0  0  0  0  0  0  0  0  0  0
    2.6597   10.8198   -3.0725 H   0  0  0  0  0  0  0  0  0  0  0  0
    3.7309   12.9753   -3.6458 H   0  0  0  0  0  0  0  0  0  0  0  0
    1.9583   12.9512   -3.9967 H   0  0  0  0  0  0  0  0  0  0  0  0
    2.5173   15.0609   -3.0007 H   0  0  0  0  0  0  0  0  0  0  0  0
    3.2120   14.3620   -0.5080 H   0  0  0  0  0  0  0  0  0  0  0  0
   -0.9226   14.5929   -2.0329 H   0  0  0  0  0  0  0  0  0  0  0  0
    0.2388   15.2852   -3.2154 H   0  0  0  0  0  0  0  0  0  0  0  0
   -0.0985   13.5209   -3.2154 H   0  0  0  0  0  0  0  0  0  0  0  0
    1.1611   15.0765    0.4176 H   0  0  0  0  0  0  0  0  0  0  0  0
    2.0507   16.0363   -0.8128 H   0  0  0  0  0  0  0  0  0  0  0  0
    0.2545   16.0202   -0.8128 H   0  0  0  0  0  0  0  0  0  0  0  0
    2.1484    9.8347    0.8865 H   0  0  0  0  0  0  0  0  0  0  0  0
    2.5765    8.7630   -0.4900 H   0  0  0  0  0  0  0  0  0  0  0  0
    3.1053   10.4797   -0.4900 H   0  0  0  0  0  0  0  0  0  0  0  0
    1.2534    9.3050   -2.8956 H   0  0  0  0  0  0  0  0  0  0  0  0
    0.9881    8.1259   -1.4907 H   0  0  0  0  0  0  0  0  0  0  0  0
   -1.1120    9.7057   -3.0005 H   0  0  0  0  0  0  0  0  0  0  0  0
   -0.8603    7.9161   -2.9566 H   0  0  0  0  0  0  0  0  0  0  0  0
   -1.3110    7.6912    0.7346 H   0  0  0  0  0  0  0  0  0  0  0  0
   -1.8933    6.6371   -0.5982 H   0  0  0  0  0  0  0  0  0  0  0  0
   -0.1981    7.2312   -0.5982 H   0  0  0  0  0  0  0  0  0  0  0  0
  1  2  1  0
  2  3  1  0
  3  4  1  0
  4  5  1  0
  5  6  1  0
  6  7  1  0
  7  8  1  0
  7  9  1  0
  2 10  1  0
 10 11  1  0
 11 12  1  0
 12 13  1  0
 13 14  1  6
 13 15  1  0
 15 16  1  0
 16 17  1  0
 17 18  2  0
 18 19  1  0
 19 20  1  0
 20 21  1  0
 21 22  1  0
 22 23  1  0
 22 24  1  0
 24 25  1  0
 24 26  1  0
 19 27  1  0
 27 28  1  1
 27 29  1  0
 29 30  1  0
 30 31  1  0
 31 32  1  1
  7  5  1  0
 31 10  1  0
 31 13  1  0
 27 15  1  0
 24 18  1  0
  1 33  1  0
  1 34  1  0
  1 35  1  0
  2 36  1  1
  3 37  1  0
  3 38  1  0
  4 39  1  0
  4 40  1  0
  5 41  1  1
  8 42  1  0
  8 43  1  0
  8 44  1  0
  9 45  1  0
  9 46  1  0
  9 47  1  0
 10 48  1  6
 11 49  1  0
 11 50  1  0
 12 51  1  0
 12 52  1  0
 14 53  1  0
 14 54  1  0
 14 55  1  0
 15 56  1  1
 16 57  1  0
 16 58  1  0
 17 59  1  0
 19 60  1  6
 20 61  1  0
 20 62  1  0
 21 63  1  0
 21 64  1  0
 22 65  1  6
 23 66  1  0
 25 67  1  0
 25 68  1  0
 25 69  1  0
 26 70  1  0
 26 71  1  0
 26 72  1  0
 28 73  1  0
 28 74  1  0
 28 75  1  0
 29 76  1  0
 29 77  1  0
 30 78  1  0
 30 79  1  0
 32 80  1  0
 32 81  1  0
 32 82  1  0
M  END
>  <meeko>  (10) 
{"is_sidechain": [false], "intermolecular_energy": 2.731, "internal_energy": -0.839}

$$$$
EPH_relaxed_0001_pdb2pqr_Repair_298_r2_0001_out
     RDKit          3D

 82 86  0  0  0  0  0  0  0  0999 V2000
   -0.2360   15.0620   -7.5680 C   0  0  0  0  0  0  0  0  0  0  0  0
    1.1440   15.0050   -6.9060 C   0  0  2  0  0  0  0  0  0  0  0  0
    2.2860   15.0820   -7.9390 C   0  0  0  0  0  0  0  0  0  0  0  0
    2.3310   16.4030   -8.7110 C   0  0  0  0  0  0  0  0  0  0  0  0
    1.8860   16.2290  -10.1320 C   0  0  2  0  0  0  0  0  0  0  0  0
    1.2300   14.9850  -10.4070 O   0  0  0  0  0  0  0  0  0  0  0  0
    2.4830   15.2020  -11.0760 C   0  0  0  0  0  0  0  0  0  0  0  0
    3.5760   14.2790  -10.6350 C   0  0  0  0  0  0  0  0  0  0  0  0
    2.3490   15.4210  -12.5500 C   0  0  0  0  0  0  0  0  0  0  0  0
    1.2720   13.7310   -6.0800 C   0  0  1  0  0  0  0  0  0  0  0  0
    2.6940   13.1120   -6.1540 C   0  0  0  0  0  0  0  0  0  0  0  0
    2.9830   12.4900   -4.7640 C   0  0  0  0  0  0  0  0  0  0  0  0
    1.6120   12.4760   -4.0490 C   0  0  1  0  0  0  0  0  0  0  0  0
    0.8840   11.2110   -4.6030 C   0  0  0  0  0  0  0  0  0  0  0  0
    1.6470   12.4840   -2.4860 C   0  0  2  0  0  0  0  0  0  0  0  0
    2.3200   11.2590   -1.8420 C   0  0  0  0  0  0  0  0  0  0  0  0
    1.4070   10.1180   -1.5360 C   0  0  0  0  0  0  0  0  0  0  0  0
    0.0630   10.1780   -1.5030 C   0  0  0  0  0  0  0  0  0  0  0  0
   -0.6700   11.5120   -1.6950 C   0  0  1  0  0  0  0  0  0  0  0  0
   -1.7690   11.6590   -0.6110 C   0  0  0  0  0  0  0  0  0  0  0  0
   -2.7230   10.4690   -0.5780 C   0  0  0  0  0  0  0  0  0  0  0  0
   -1.9630    9.1690   -0.3270 C   0  0  2  0  0  0  0  0  0  0  0  0
   -1.4210    9.2000    0.9970 O   0  0  0  0  0  0  0  0  0  0  0  0
   -0.8230    8.9170   -1.3530 C   0  0  0  0  0  0  0  0  0  0  0  0
   -1.4330    8.5840   -2.7370 C   0  0  0  0  0  0  0  0  0  0  0  0
   -0.0480    7.6490   -0.9040 C   0  0  0  0  0  0  0  0  0  0  0  0
    0.2530   12.8010   -1.8080 C   0  0  1  0  0  0  0  0  0  0  0  0
    0.5660   13.3570   -0.3850 C   0  0  0  0  0  0  0  0  0  0  0  0
   -0.5370   13.9340   -2.5640 C   0  0  0  0  0  0  0  0  0  0  0  0
   -0.4350   13.9440   -4.1020 C   0  0  0  0  0  0  0  0  0  0  0  0
    1.0240   13.8440   -4.5550 C   0  0  2  0  0  0  0  0  0  0  0  0
    1.7770   15.1140   -4.0320 C   0  0  0  0  0  0  0  0  0  0  0  0
   -1.0142   15.0941   -6.7913 H   0  0  0  0  0  0  0  0  0  0  0  0
   -0.3054   15.9638   -8.1941 H   0  0  0  0  0  0  0  0  0  0  0  0
   -0.3795   14.1690   -8.1941 H   0  0  0  0  0  0  0  0  0  0  0  0
    1.2335   15.8830   -6.2494 H   0  0  0  0  0  0  0  0  0  0  0  0
    3.2420   14.9568   -7.4095 H   0  0  0  0  0  0  0  0  0  0  0  0
    2.1063   14.2855   -8.6761 H   0  0  0  0  0  0  0  0  0  0  0  0
    1.6684   17.1282   -8.2160 H   0  0  0  0  0  0  0  0  0  0  0  0
    3.3710   16.7612   -8.7183 H   0  0  0  0  0  0  0  0  0  0  0  0
    1.7101   17.3101  -10.2332 H   0  0  0  0  0  0  0  0  0  0  0  0
    3.6103   14.2500   -9.5359 H   0  0  0  0  0  0  0  0  0  0  0  0
    3.3809   13.2682  -11.0225 H   0  0  0  0  0  0  0  0  0  0  0  0
    4.5399   14.6406  -11.0225 H   0  0  0  0  0  0  0  0  0  0  0  0
    1.7829   16.3462  -12.7333 H   0  0  0  0  0  0  0  0  0  0  0  0
    3.3489   15.5077  -13.0002 H   0  0  0  0  0  0  0  0  0  0  0  0
    1.8167   14.5702  -13.0002 H   0  0  0  0  0  0  0  0  0  0  0  0
    0.4786   13.1282   -6.5461 H   0  0  0  0  0  0  0  0  0  0  0  0
    2.7289   12.3348   -6.9316 H   0  0  0  0  0  0  0  0  0  0  0  0
    3.4443   13.8747   -6.4094 H   0  0  0  0  0  0  0  0  0  0  0  0
    3.3758   11.4680   -4.8702 H   0  0  0  0  0  0  0  0  0  0  0  0
    3.7399   13.0575   -4.2027 H   0  0  0  0  0  0  0  0  0  0  0  0
    0.5294   10.5949   -3.7635 H   0  0  0  0  0  0  0  0  0  0  0  0
    0.0264   11.5214   -5.2179 H   0  0  0  0  0  0  0  0  0  0  0  0
    1.5832   10.6254   -5.2179 H   0  0  0  0  0  0  0  0  0  0  0  0
    2.3081   13.3361   -2.2694 H   0  0  0  0  0  0  0  0  0  0  0  0
    3.0976   10.8970   -2.5307 H   0  0  0  0  0  0  0  0  0  0  0  0
    2.7142   11.6018   -0.8740 H   0  0  0  0  0  0  0  0  0  0  0  0
    1.8726    9.1453   -1.3190 H   0  0  0  0  0  0  0  0  0  0  0  0
   -1.1329   11.4640   -2.6917 H   0  0  0  0  0  0  0  0  0  0  0  0
   -1.2842   11.7493    0.3723 H   0  0  0  0  0  0  0  0  0  0  0  0
   -2.3605   12.5537   -0.8553 H   0  0  0  0  0  0  0  0  0  0  0  0
   -3.4573   10.6182    0.2273 H   0  0  0  0  0  0  0  0  0  0  0  0
   -3.2300   10.3976   -1.5516 H   0  0  0  0  0  0  0  0  0  0  0  0
   -2.6781    8.3414   -0.4442 H   0  0  0  0  0  0  0  0  0  0  0  0
   -0.4650    9.0330    0.9270 H   0  0  0  0  0  0  0  0  0  0  0  0
   -2.3909    8.0611   -2.5993 H   0  0  0  0  0  0  0  0  0  0  0  0
   -1.6010    9.5155   -3.2974 H   0  0  0  0  0  0  0  0  0  0  0  0
   -0.7403    7.9389   -3.2974 H   0  0  0  0  0  0  0  0  0  0  0  0
   -0.0214    7.6054    0.1948 H   0  0  0  0  0  0  0  0  0  0  0  0
   -0.5531    6.7532   -1.2943 H   0  0  0  0  0  0  0  0  0  0  0  0
    0.9796    7.6899   -1.2943 H   0  0  0  0  0  0  0  0  0  0  0  0
    0.1754   12.6631    0.3739 H   0  0  0  0  0  0  0  0  0  0  0  0
    1.6544   13.4594   -0.2626 H   0  0  0  0  0  0  0  0  0  0  0  0
    0.0891   14.3406   -0.2626 H   0  0  0  0  0  0  0  0  0  0  0  0
   -1.6002   13.8304   -2.3016 H   0  0  0  0  0  0  0  0  0  0  0  0
   -0.0718   14.8761   -2.2383 H   0  0  0  0  0  0  0  0  0  0  0  0
   -0.9965   13.0885   -4.5055 H   0  0  0  0  0  0  0  0  0  0  0  0
   -0.8541   14.8901   -4.4752 H   0  0  0  0  0  0  0  0  0  0  0  0
    1.7767   15.1134   -2.9320 H   0  0  0  0  0  0  0  0  0  0  0  0
    2.8141   15.1022   -4.3984 H   0  0  0  0  0  0  0  0  0  0  0  0
    1.2690   16.0183   -4.3984 H   0  0  0  0  0  0  0  0  0  0  0  0
  1  2  1  0
  2  3  1  0
  3  4  1  0
  4  5  1  0
  5  6  1  0
  6  7  1  0
  7  8  1  0
  7  9  1  0
  2 10  1  0
 10 11  1  0
 11 12  1  0
 12 13  1  0
 13 14  1  1
 13 15  1  0
 15 16  1  0
 16 17  1  0
 17 18  2  0
 18 19  1  0
 19 20  1  0
 20 21  1  0
 21 22  1  0
 22 23  1  0
 22 24  1  0
 24 25  1  0
 24 26  1  0
 19 27  1  0
 27 28  1  1
 27 29  1  0
 29 30  1  0
 30 31  1  0
 31 32  1  1
  7  5  1  0
 31 10  1  0
 31 13  1  0
 27 15  1  0
 24 18  1  0
  1 33  1  0
  1 34  1  0
  1 35  1  0
  2 36  1  1
  3 37  1  0
  3 38  1  0
  4 39  1  0
  4 40  1  0
  5 41  1  6
  8 42  1  0
  8 43  1  0
  8 44  1  0
  9 45  1  0
  9 46  1  0
  9 47  1  0
 10 48  1  6
 11 49  1  0
 11 50  1  0
 12 51  1  0
 12 52  1  0
 14 53  1  0
 14 54  1  0
 14 55  1  0
 15 56  1  6
 16 57  1  0
 16 58  1  0
 17 59  1  0
 19 60  1  6
 20 61  1  0
 20 62  1  0
 21 63  1  0
 21 64  1  0
 22 65  1  1
 23 66  1  0
 25 67  1  0
 25 68  1  0
 25 69  1  0
 26 70  1  0
 26 71  1  0
 26 72  1  0
 28 73  1  0
 28 74  1  0
 28 75  1  0
 29 76  1  0
 29 77  1  0
 30 78  1  0
 30 79  1  0
 32 80  1  0
 32 81  1  0
 32 82  1  0
M  END
>  <meeko>  (11) 
{"is_sidechain": [false], "intermolecular_energy": 2.731, "internal_energy": -0.839}

$$$$
EPH_relaxed_0001_pdb2pqr_Repair_298_r2_0001_out
     RDKit          3D

 82 86  0  0  0  0  0  0  0  0999 V2000
    3.5020   18.3500   -2.5640 C   0  0  0  0  0  0  0  0  0  0  0  0
    2.2220   17.5250   -2.7210 C   0  0  2  0  0  0  0  0  0  0  0  0
    0.9820   18.2700   -2.1860 C   0  0  0  0  0  0  0  0  0  0  0  0
    1.2740   19.7010   -1.7260 C   0  0  0  0  0  0  0  0  0  0  0  0
    1.6430   19.7520   -0.2750 C   0  0  2  0  0  0  0  0  0  0  0  0
    1.4300   18.5290    0.4410 O   0  0  0  0  0  0  0  0  0  0  0  0
    0.6300   19.6500    0.8500 C   0  0  0  0  0  0  0  0  0  0  0  0
   -0.8320   19.4890    0.5720 C   0  0  0  0  0  0  0  0  0  0  0  0
    0.9980   20.1930    2.1960 C   0  0  0  0  0  0  0  0  0  0  0  0
    2.3740   16.1880   -2.0060 C   0  0  1  0  0  0  0  0  0  0  0  0
    3.0080   16.3330   -0.5960 C   0  0  0  0  0  0  0  0  0  0  0  0
    2.3450   15.2600    0.3050 C   0  0  0  0  0  0  0  0  0  0  0  0
    1.6050   14.3250   -0.6810 C   0  0  1  0  0  0  0  0  0  0  0  0
    2.7080   13.3650   -1.2280 C   0  0  0  0  0  0  0  0  0  0  0  0
    0.3870   13.5340   -0.1020 C   0  0  2  0  0  0  0  0  0  0  0  0
    0.7280   12.5480    1.0290 C   0  0  0  0  0  0  0  0  0  0  0  0
    1.0590   11.1610    0.5870 C   0  0  0  0  0  0  0  0  0  0  0  0
    0.8100   10.6480   -0.6310 C   0  0  0  0  0  0  0  0  0  0  0  0
    0.0420   11.4570   -1.6850 C   0  0  1  0  0  0  0  0  0  0  0  0
   -1.0460   10.5620   -2.3330 C   0  0  0  0  0  0  0  0  0  0  0  0
   -0.4770    9.2630   -2.8960 C   0  0  0  0  0  0  0  0  0  0  0  0
    0.2280    8.4590   -1.8060 C   0  0  2  0  0  0  0  0  0  0  0  0
   -0.7470    8.0140   -0.8580 O   0  0  0  0  0  0  0  0  0  0  0  0
    1.3400    9.2620   -1.0750 C   0  0  0  0  0  0  0  0  0  0  0  0
    2.5370    9.4830   -2.0320 C   0  0  0  0  0  0  0  0  0  0  0  0
    1.8720    8.3860    0.0910 C   0  0  0  0  0  0  0  0  0  0  0  0
   -0.5290   12.8590   -1.2020 C   0  0  1  0  0  0  0  0  0  0  0  0
   -1.9340   12.6660   -0.5530 C   0  0  0  0  0  0  0  0  0  0  0  0
   -0.7420   13.7870   -2.4550 C   0  0  0  0  0  0  0  0  0  0  0  0
    0.4640   14.6330   -2.9060 C   0  0  0  0  0  0  0  0  0  0  0  0
    1.0820   15.3820   -1.7210 C   0  0  2  0  0  0  0  0  0  0  0  0
    0.0030   16.3710   -1.1640 C   0  0  0  0  0  0  0  0  0  0  0  0
    3.7192   18.4900   -1.4948 H   0  0  0  0  0  0  0  0  0  0  0  0
    4.3398   17.8215   -3.0422 H   0  0  0  0  0  0  0  0  0  0  0  0
    3.3667   19.3313   -3.0422 H   0  0  0  0  0  0  0  0  0  0  0  0
    2.0675   17.3558   -3.7969 H   0  0  0  0  0  0  0  0  0  0  0  0
    0.2286   18.3096   -2.9865 H   0  0  0  0  0  0  0  0  0  0  0  0
    0.6293   17.7148   -1.3043 H   0  0  0  0  0  0  0  0  0  0  0  0
    2.1077   20.1034   -2.3202 H   0  0  0  0  0  0  0  0  0  0  0  0
    0.3626   20.3000   -1.8694 H   0  0  0  0  0  0  0  0  0  0  0  0
    2.4468   20.4741   -0.4811 H   0  0  0  0  0  0  0  0  0  0  0  0
   -1.3816   19.4285    1.5230 H   0  0  0  0  0  0  0  0  0  0  0  0
   -1.1927   20.3529   -0.0056 H   0  0  0  0  0  0  0  0  0  0  0  0
   -0.9961   18.5674   -0.0056 H   0  0  0  0  0  0  0  0  0  0  0  0
    0.5651   19.5542    2.9799 H   0  0  0  0  0  0  0  0  0  0  0  0
    2.0931   20.2080    2.2984 H   0  0  0  0  0  0  0  0  0  0  0  0
    0.6061   21.2157    2.2984 H   0  0  0  0  0  0  0  0  0  0  0  0
    2.9947   15.6557   -2.7418 H   0  0  0  0  0  0  0  0  0  0  0  0
    4.0937   16.1643   -0.6497 H   0  0  0  0  0  0  0  0  0  0  0  0
    2.8456   17.3431   -0.1919 H   0  0  0  0  0  0  0  0  0  0  0  0
    3.1067   14.7033    0.8705 H   0  0  0  0  0  0  0  0  0  0  0  0
    1.6665   15.7020    1.0495 H   0  0  0  0  0  0  0  0  0  0  0  0
    3.2411   12.9010   -0.3851 H   0  0  0  0  0  0  0  0  0  0  0  0
    2.2404   12.5813   -1.8421 H   0  0  0  0  0  0  0  0  0  0  0  0
    3.4197   13.9363   -1.8421 H   0  0  0  0  0  0  0  0  0  0  0  0
   -0.2110   14.3297    0.3663 H   0  0  0  0  0  0  0  0  0  0  0  0
    1.5946   12.9460    1.5772 H   0  0  0  0  0  0  0  0  0  0  0  0
   -0.1806   12.4632    1.6433 H   0  0  0  0  0  0  0  0  0  0  0  0
    1.5482   10.5026    1.3199 H   0  0  0  0  0  0  0  0  0  0  0  0
    0.7834   11.7506   -2.4427 H   0  0  0  0  0  0  0  0  0  0  0  0
   -1.7997   10.3155   -1.5706 H   0  0  0  0  0  0  0  0  0  0  0  0
   -1.4853   11.1242   -3.1702 H   0  0  0  0  0  0  0  0  0  0  0  0
   -1.2979    8.6613   -3.3133 H   0  0  0  0  0  0  0  0  0  0  0  0
    0.2549    9.5103   -3.6791 H   0  0  0  0  0  0  0  0  0  0  0  0
    0.7254    7.6075   -2.2933 H   0  0  0  0  0  0  0  0  0  0  0  0
   -1.4230    8.7100   -0.7820 H   0  0  0  0  0  0  0  0  0  0  0  0
    3.4508    9.6517   -1.4433 H   0  0  0  0  0  0  0  0  0  0  0  0
    2.6684    8.5939   -2.6663 H   0  0  0  0  0  0  0  0  0  0  0  0
    2.3422   10.3604   -2.6663 H   0  0  0  0  0  0  0  0  0  0  0  0
    1.5933    8.8449    1.0511 H   0  0  0  0  0  0  0  0  0  0  0  0
    1.4322    7.3800    0.0241 H   0  0  0  0  0  0  0  0  0  0  0  0
    2.9675    8.3124    0.0241 H   0  0  0  0  0  0  0  0  0  0  0  0
   -1.8368   12.6794    0.5426 H   0  0  0  0  0  0  0  0  0  0  0  0
   -2.6003   13.4811   -0.8719 H   0  0  0  0  0  0  0  0  0  0  0  0
   -2.3559   11.7015   -0.8719 H   0  0  0  0  0  0  0  0  0  0  0  0
   -1.0322   13.1445   -3.2994 H   0  0  0  0  0  0  0  0  0  0  0  0
   -1.5058   14.5161   -2.1466 H   0  0  0  0  0  0  0  0  0  0  0  0
    1.2228   13.9708   -3.3484 H   0  0  0  0  0  0  0  0  0  0  0  0
    0.1183   15.3704   -3.6454 H   0  0  0  0  0  0  0  0  0  0  0  0
    0.0223   16.3533   -0.0643 H   0  0  0  0  0  0  0  0  0  0  0  0
    0.2213   17.3893   -1.5182 H   0  0  0  0  0  0  0  0  0  0  0  0
   -0.9925   16.0651   -1.5182 H   0  0  0  0  0  0  0  0  0  0  0  0
  1  2  1  0
  2  3  1  0
  3  4  1  0
  4  5  1  0
  5  6  1  0
  6  7  1  0
  7  8  1  0
  7  9  1  0
  2 10  1  0
 10 11  1  0
 11 12  1  0
 12 13  1  0
 13 14  1  6
 13 15  1  0
 15 16  1  0
 16 17  1  0
 17 18  2  0
 18 19  1  0
 19 20  1  0
 20 21  1  0
 21 22  1  0
 22 23  1  0
 22 24  1  0
 24 25  1  0
 24 26  1  0
 19 27  1  0
 27 28  1  1
 27 29  1  0
 29 30  1  0
 30 31  1  0
 31 32  1  1
  7  5  1  0
 31 10  1  0
 31 13  1  0
 27 15  1  0
 24 18  1  0
  1 33  1  0
  1 34  1  0
  1 35  1  0
  2 36  1  6
  3 37  1  0
  3 38  1  0
  4 39  1  0
  4 40  1  0
  5 41  1  6
  8 42  1  0
  8 43  1  0
  8 44  1  0
  9 45  1  0
  9 46  1  0
  9 47  1  0
 10 48  1  6
 11 49  1  0
 11 50  1  0
 12 51  1  0
 12 52  1  0
 14 53  1  0
 14 54  1  0
 14 55  1  0
 15 56  1  1
 16 57  1  0
 16 58  1  0
 17 59  1  0
 19 60  1  6
 20 61  1  0
 20 62  1  0
 21 63  1  0
 21 64  1  0
 22 65  1  6
 23 66  1  0
 25 67  1  0
 25 68  1  0
 25 69  1  0
 26 70  1  0
 26 71  1  0
 26 72  1  0
 28 73  1  0
 28 74  1  0
 28 75  1  0
 29 76  1  0
 29 77  1  0
 30 78  1  0
 30 79  1  0
 32 80  1  0
 32 81  1  0
 32 82  1  0
M  END
>  <meeko>  (12) 
{"is_sidechain": [false], "intermolecular_energy": 2.731, "internal_energy": -0.839}

$$$$
EPH_relaxed_0001_pdb2pqr_Repair_298_r2_0001_out
     RDKit          3D

 82 86  0  0  0  0  0  0  0  0999 V2000
    2.8870   11.4300   -5.3770 C   0  0  0  0  0  0  0  0  0  0  0  0
    1.9010   11.1050   -4.2500 C   0  0  2  0  0  0  0  0  0  0  0  0
    0.7960   10.1330   -4.7090 C   0  0  0  0  0  0  0  0  0  0  0  0
   -0.2890    9.8940   -3.6550 C   0  0  0  0  0  0  0  0  0  0  0  0
    0.2210    9.0720   -2.5100 C   0  0  2  0  0  0  0  0  0  0  0  0
   -0.6380    7.9940   -2.1180 O   0  0  0  0  0  0  0  0  0  0  0  0
   -0.4420    9.0350   -1.1460 C   0  0  0  0  0  0  0  0  0  0  0  0
   -1.6730    9.8350   -0.8550 C   0  0  0  0  0  0  0  0  0  0  0  0
    0.3740    8.6110    0.0350 C   0  0  0  0  0  0  0  0  0  0  0  0
    1.2780   12.3900   -3.7180 C   0  0  1  0  0  0  0  0  0  0  0  0
   -0.2590   12.2780   -3.5380 C   0  0  0  0  0  0  0  0  0  0  0  0
   -0.6260   13.1230   -2.2910 C   0  0  0  0  0  0  0  0  0  0  0  0
    0.6450   13.9530   -1.9950 C   0  0  1  0  0  0  0  0  0  0  0  0
    0.5780   15.1570   -2.9860 C   0  0  0  0  0  0  0  0  0  0  0  0
    0.8290   14.4310   -0.5180 C   0  0  2  0  0  0  0  0  0  0  0  0
   -0.2640   15.3820    0.0010 C   0  0  0  0  0  0  0  0  0  0  0  0
    0.0050   16.8360   -0.2070 C   0  0  0  0  0  0  0  0  0  0  0  0
    1.1970   17.3730   -0.5260 C   0  0  0  0  0  0  0  0  0  0  0  0
    2.4560   16.5010   -0.6140 C   0  0  1  0  0  0  0  0  0  0  0  0
    3.6210   17.1960    0.1390 C   0  0  0  0  0  0  0  0  0  0  0  0
    3.8640   18.6220   -0.3480 C   0  0  0  0  0  0  0  0  0  0  0  0
    2.6060   19.4730   -0.1900 C   0  0  2  0  0  0  0  0  0  0  0  0
    2.3320   19.6370    1.2050 O   0  0  0  0  0  0  0  0  0  0  0  0
    1.3630   18.8670   -0.8990 C   0  0  0  0  0  0  0  0  0  0  0  0
    1.5390   18.9680   -2.4350 C   0  0  0  0  0  0  0  0  0  0  0  0
    0.1350   19.7480   -0.5450 C   0  0  0  0  0  0  0  0  0  0  0  0
    2.2760   14.9800   -0.1900 C   0  0  1  0  0  0  0  0  0  0  0  0
    2.4700   14.8310    1.3500 C   0  0  0  0  0  0  0  0  0  0  0  0
    3.4090   14.1210   -0.8650 C   0  0  0  0  0  0  0  0  0  0  0  0
    3.1200   13.5770   -2.2770 C   0  0  0  0  0  0  0  0  0  0  0  0
    1.7520   12.8890   -2.3300 C   0  0  2  0  0  0  0  0  0  0  0  0
    1.7960   11.6600   -1.3590 C   0  0  0  0  0  0  0  0  0  0  0  0
    3.8474   11.7466   -4.9440 H   0  0  0  0  0  0  0  0  0  0  0  0
    3.0419   10.5354   -5.9980 H   0  0  0  0  0  0  0  0  0  0  0  0
    2.4796   12.2414   -5.9980 H   0  0  0  0  0  0  0  0  0  0  0  0
    2.4660   10.6072   -3.4482 H   0  0  0  0  0  0  0  0  0  0  0  0
    0.3201   10.5482   -5.6096 H   0  0  0  0  0  0  0  0  0  0  0  0
    1.2790    9.1632   -4.8994 H   0  0  0  0  0  0  0  0  0  0  0  0
   -0.6328   10.8657   -3.2708 H   0  0  0  0  0  0  0  0  0  0  0  0
   -1.1139    9.3438   -4.1311 H   0  0  0  0  0  0  0  0  0  0  0  0
    1.2624    9.2447   -2.8192 H   0  0  0  0  0  0  0  0  0  0  0  0
   -1.8055    9.9211    0.2336 H   0  0  0  0  0  0  0  0  0  0  0  0
   -1.5697   10.8390   -1.2924 H   0  0  0  0  0  0  0  0  0  0  0  0
   -2.5485    9.3328   -1.2924 H   0  0  0  0  0  0  0  0  0  0  0  0
   -0.1522    8.8844    0.9615 H   0  0  0  0  0  0  0  0  0  0  0  0
    0.5228    7.5215    0.0057 H   0  0  0  0  0  0  0  0  0  0  0  0
    1.3511    9.1155    0.0057 H   0  0  0  0  0  0  0  0  0  0  0  0
    1.6038   13.0907   -4.5008 H   0  0  0  0  0  0  0  0  0  0  0  0
   -0.7741   12.6710   -4.4269 H   0  0  0  0  0  0  0  0  0  0  0  0
   -0.5662   11.2297   -3.4091 H   0  0  0  0  0  0  0  0  0  0  0  0
   -1.4794   13.7828   -2.5064 H   0  0  0  0  0  0  0  0  0  0  0  0
   -0.9247   12.4980   -1.4365 H   0  0  0  0  0  0  0  0  0  0  0  0
    0.5257   16.0973   -2.4176 H   0  0  0  0  0  0  0  0  0  0  0  0
    1.4773   15.1610   -3.6194 H   0  0  0  0  0  0  0  0  0  0  0  0
   -0.3162   15.0612   -3.6194 H   0  0  0  0  0  0  0  0  0  0  0  0
    0.7061   13.4966    0.0493 H   0  0  0  0  0  0  0  0  0  0  0  0
   -1.2037   15.1331   -0.5137 H   0  0  0  0  0  0  0  0  0  0  0  0
   -0.3056   15.2327    1.0900 H   0  0  0  0  0  0  0  0  0  0  0  0
   -0.8430   17.5267   -0.0895 H   0  0  0  0  0  0  0  0  0  0  0  0
    2.6981   16.4226   -1.6842 H   0  0  0  0  0  0  0  0  0  0  0  0
    3.3794   17.2260    1.2117 H   0  0  0  0  0  0  0  0  0  0  0  0
    4.5360   16.6167   -0.0537 H   0  0  0  0  0  0  0  0  0  0  0  0
    4.6782   19.0699    0.2407 H   0  0  0  0  0  0  0  0  0  0  0  0
    4.1343   18.5884   -1.4137 H   0  0  0  0  0  0  0  0  0  0  0  0
    2.8009   20.4419   -0.6730 H   0  0  0  0  0  0  0  0  0  0  0  0
    2.6680   20.5100    1.4700 H   0  0  0  0  0  0  0  0  0  0  0  0
    2.4724   19.5036   -2.6627 H   0  0  0  0  0  0  0  0  0  0  0  0
    1.5818   17.9570   -2.8664 H   0  0  0  0  0  0  0  0  0  0  0  0
    0.6877   19.5150   -2.8664 H   0  0  0  0  0  0  0  0  0  0  0  0
    0.0371   19.8182    0.5484 H   0  0  0  0  0  0  0  0  0  0  0  0
    0.2724   20.7548   -0.9663 H   0  0  0  0  0  0  0  0  0  0  0  0
   -0.7747   19.2953   -0.9663 H   0  0  0  0  0  0  0  0  0  0  0  0
    1.7033   15.4199    1.8748 H   0  0  0  0  0  0  0  0  0  0  0  0
    2.3747   13.7717    1.6308 H   0  0  0  0  0  0  0  0  0  0  0  0
    3.4689   15.1963    1.6308 H   0  0  0  0  0  0  0  0  0  0  0  0
    4.3098   14.7491   -0.9283 H   0  0  0  0  0  0  0  0  0  0  0  0
    3.5123   13.2297   -0.2287 H   0  0  0  0  0  0  0  0  0  0  0  0
    3.1311   14.4116   -2.9935 H   0  0  0  0  0  0  0  0  0  0  0  0
    3.8941   12.8389   -2.5338 H   0  0  0  0  0  0  0  0  0  0  0  0
    1.7833   12.0147   -0.3178 H   0  0  0  0  0  0  0  0  0  0  0  0
    0.9202   11.0191   -1.5388 H   0  0  0  0  0  0  0  0  0  0  0  0
    2.7154   11.0834   -1.5388 H   0  0  0  0  0  0  0  0  0  0  0  0
  1  2  1  0
  2  3  1  0
  3  4  1  0
  4  5  1  0
  5  6  1  0
  6  7  1  0
  7  8  1  0
  7  9  1  0
  2 10  1  0
 10 11  1  0
 11 12  1  0
 12 13  1  0
 13 14  1  6
 13 15  1  0
 15 16  1  0
 16 17  1  0
 17 18  2  0
 18 19  1  0
 19 20  1  0
 20 21  1  0
 21 22  1  0
 22 23  1  0
 22 24  1  0
 24 25  1  0
 24 26  1  0
 19 27  1  0
 27 28  1  1
 27 29  1  0
 29 30  1  0
 30 31  1  0
 31 32  1  1
  7  5  1  0
 31 10  1  0
 31 13  1  0
 27 15  1  0
 24 18  1  0
  1 33  1  0
  1 34  1  0
  1 35  1  0
  2 36  1  1
  3 37  1  0
  3 38  1  0
  4 39  1  0
  4 40  1  0
  5 41  1  1
  8 42  1  0
  8 43  1  0
  8 44  1  0
  9 45  1  0
  9 46  1  0
  9 47  1  0
 10 48  1  6
 11 49  1  0
 11 50  1  0
 12 51  1  0
 12 52  1  0
 14 53  1  0
 14 54  1  0
 14 55  1  0
 15 56  1  1
 16 57  1  0
 16 58  1  0
 17 59  1  0
 19 60  1  6
 20 61  1  0
 20 62  1  0
 21 63  1  0
 21 64  1  0
 22 65  1  6
 23 66  1  0
 25 67  1  0
 25 68  1  0
 25 69  1  0
 26 70  1  0
 26 71  1  0
 26 72  1  0
 28 73  1  0
 28 74  1  0
 28 75  1  0
 29 76  1  0
 29 77  1  0
 30 78  1  0
 30 79  1  0
 32 80  1  0
 32 81  1  0
 32 82  1  0
M  END
>  <meeko>  (13) 
{"is_sidechain": [false], "intermolecular_energy": 2.731, "internal_energy": -0.839}

$$$$
EPH_relaxed_0001_pdb2pqr_Repair_298_r2_0001_out
     RDKit          3D

 82 86  0  0  0  0  0  0  0  0999 V2000
    1.3790   18.7710   -2.5250 C   0  0  0  0  0  0  0  0  0  0  0  0
    0.7310   17.8420   -1.4960 C   0  0  2  0  0  0  0  0  0  0  0  0
    1.1300   18.2050   -0.0510 C   0  0  0  0  0  0  0  0  0  0  0  0
    0.5870   19.5580    0.4160 C   0  0  0  0  0  0  0  0  0  0  0  0
   -0.8840   19.4980    0.6970 C   0  0  2  0  0  0  0  0  0  0  0  0
   -1.5830   18.4540    0.0070 O   0  0  0  0  0  0  0  0  0  0  0  0
   -1.9480   19.7990   -0.3420 C   0  0  0  0  0  0  0  0  0  0  0  0
   -1.5840   20.1840   -1.7420 C   0  0  0  0  0  0  0  0  0  0  0  0
   -3.3140   20.1940    0.1260 C   0  0  0  0  0  0  0  0  0  0  0  0
    1.1070   16.3950   -1.7920 C   0  0  1  0  0  0  0  0  0  0  0  0
    2.6040   16.2320   -2.1670 C   0  0  0  0  0  0  0  0  0  0  0  0
    3.0630   14.8670   -1.5930 C   0  0  0  0  0  0  0  0  0  0  0  0
    1.7510   14.1470   -1.2030 C   0  0  1  0  0  0  0  0  0  0  0  0
    1.2110   13.5460   -2.5380 C   0  0  0  0  0  0  0  0  0  0  0  0
    1.8660   13.0590   -0.0860 C   0  0  2  0  0  0  0  0  0  0  0  0
    2.7610   11.8570   -0.4340 C   0  0  0  0  0  0  0  0  0  0  0  0
    2.0630   10.7110   -1.0870 C   0  0  0  0  0  0  0  0  0  0  0  0
    0.7310   10.5260   -1.1260 C   0  0  0  0  0  0  0  0  0  0  0  0
   -0.2190   11.4760   -0.3860 C   0  0  1  0  0  0  0  0  0  0  0  0
   -1.2690   10.6500    0.4010 C   0  0  0  0  0  0  0  0  0  0  0  0
   -2.0130    9.6550   -0.4840 C   0  0  0  0  0  0  0  0  0  0  0  0
   -1.0400    8.6900   -1.1570 C   0  0  2  0  0  0  0  0  0  0  0  0
   -0.4420    7.8640   -0.1540 O   0  0  0  0  0  0  0  0  0  0  0  0
    0.0700    9.4090   -1.9720 C   0  0  0  0  0  0  0  0  0  0  0  0
   -0.5480   10.0580   -3.2350 C   0  0  0  0  0  0  0  0  0  0  0  0
    1.0640    8.3300   -2.4810 C   0  0  0  0  0  0  0  0  0  0  0  0
    0.4760   12.5910    0.5090 C   0  0  1  0  0  0  0  0  0  0  0  0
    0.7680   12.0260    1.9320 C   0  0  0  0  0  0  0  0  0  0  0  0
   -0.5250   13.7910    0.7040 C   0  0  0  0  0  0  0  0  0  0  0  0
   -0.5070   14.8940   -0.3720 C   0  0  0  0  0  0  0  0  0  0  0  0
    0.9240   15.3640   -0.6500 C   0  0  2  0  0  0  0  0  0  0  0  0
    1.4860   15.9930    0.6700 C   0  0  0  0  0  0  0  0  0  0  0  0
    1.9332   19.5656   -2.0039 H   0  0  0  0  0  0  0  0  0  0  0  0
    2.0714   18.1938   -3.1554 H   0  0  0  0  0  0  0  0  0  0  0  0
    0.5981   19.2214   -3.1554 H   0  0  0  0  0  0  0  0  0  0  0  0
   -0.3587   17.9675   -1.5784 H   0  0  0  0  0  0  0  0  0  0  0  0
    0.7444   17.4250    0.6221 H   0  0  0  0  0  0  0  0  0  0  0  0
    2.2276   18.2740   -0.0283 H   0  0  0  0  0  0  0  0  0  0  0  0
    1.1136   19.8555    1.3348 H   0  0  0  0  0  0  0  0  0  0  0  0
    0.7529   20.2900   -0.3881 H   0  0  0  0  0  0  0  0  0  0  0  0
   -0.7271   19.8685    1.7208 H   0  0  0  0  0  0  0  0  0  0  0  0
   -0.8285   20.9831   -1.7178 H   0  0  0  0  0  0  0  0  0  0  0  0
   -1.1754   19.3089   -2.2685 H   0  0  0  0  0  0  0  0  0  0  0  0
   -2.4807   20.5429   -2.2685 H   0  0  0  0  0  0  0  0  0  0  0  0
   -3.3371   20.2007    1.2257 H   0  0  0  0  0  0  0  0  0  0  0  0
   -3.5548   21.1986   -0.2519 H   0  0  0  0  0  0  0  0  0  0  0  0
   -4.0538   19.4730   -0.2519 H   0  0  0  0  0  0  0  0  0  0  0  0
    0.3985   16.1836   -2.6065 H   0  0  0  0  0  0  0  0  0  0  0  0
    2.7239   16.2427   -3.2604 H   0  0  0  0  0  0  0  0  0  0  0  0
    3.2060   17.0558   -1.7559 H   0  0  0  0  0  0  0  0  0  0  0  0
    3.6112   14.2907   -2.3529 H   0  0  0  0  0  0  0  0  0  0  0  0
    3.7457   14.9821   -0.7382 H   0  0  0  0  0  0  0  0  0  0  0  0
    0.4911   12.7448   -2.3147 H   0  0  0  0  0  0  0  0  0  0  0  0
    0.7125   14.3350   -3.1202 H   0  0  0  0  0  0  0  0  0  0  0  0
    2.0487   13.1345   -3.1202 H   0  0  0  0  0  0  0  0  0  0  0  0
    2.3910   13.5998    0.7152 H   0  0  0  0  0  0  0  0  0  0  0  0
    3.5506   12.2070   -1.1153 H   0  0  0  0  0  0  0  0  0  0  0  0
    3.1435   11.4747    0.5239 H   0  0  0  0  0  0  0  0  0  0  0  0
    2.6909    9.9531   -1.5782 H   0  0  0  0  0  0  0  0  0  0  0  0
   -0.7203   12.0716   -1.1631 H   0  0  0  0  0  0  0  0  0  0  0  0
   -0.7548   10.0956    1.1999 H   0  0  0  0  0  0  0  0  0  0  0  0
   -2.0099   11.3534    0.8087 H   0  0  0  0  0  0  0  0  0  0  0  0
   -2.7193    9.0814    0.1341 H   0  0  0  0  0  0  0  0  0  0  0  0
   -2.5507   10.2130   -1.2647 H   0  0  0  0  0  0  0  0  0  0  0  0
   -1.6161    8.0881   -1.8752 H   0  0  0  0  0  0  0  0  0  0  0  0
   -1.1420    7.3040    0.2220 H   0  0  0  0  0  0  0  0  0  0  0  0
   -1.2776   10.8242   -2.9339 H   0  0  0  0  0  0  0  0  0  0  0  0
    0.2477   10.5248   -3.8341 H   0  0  0  0  0  0  0  0  0  0  0  0
   -1.0531    9.2860   -3.8341 H   0  0  0  0  0  0  0  0  0  0  0  0
    1.5290    7.8252   -1.6214 H   0  0  0  0  0  0  0  0  0  0  0  0
    0.5230    7.5917   -3.0911 H   0  0  0  0  0  0  0  0  0  0  0  0
    1.8441    8.8088   -3.0911 H   0  0  0  0  0  0  0  0  0  0  0  0
    0.4020   12.7342    2.6899 H   0  0  0  0  0  0  0  0  0  0  0  0
    0.2562   11.0602    2.0552 H   0  0  0  0  0  0  0  0  0  0  0  0
    1.8519   11.8849    2.0552 H   0  0  0  0  0  0  0  0  0  0  0  0
   -1.5423   13.3737    0.7356 H   0  0  0  0  0  0  0  0  0  0  0  0
   -0.2010   14.2879    1.6303 H   0  0  0  0  0  0  0  0  0  0  0  0
   -0.9427   14.4978   -1.3011 H   0  0  0  0  0  0  0  0  0  0  0  0
   -1.0932   15.7503   -0.0070 H   0  0  0  0  0  0  0  0  0  0  0  0
    1.0353   15.4886    1.5374 H   0  0  0  0  0  0  0  0  0  0  0  0
    2.5784   15.8677    0.6998 H   0  0  0  0  0  0  0  0  0  0  0  0
    1.2389   17.0645    0.6998 H   0  0  0  0  0  0  0  0  0  0  0  0
  1  2  1  0
  2  3  1  0
  3  4  1  0
  4  5  1  0
  5  6  1  0
  6  7  1  0
  7  8  1  0
  7  9  1  0
  2 10  1  0
 10 11  1  0
 11 12  1  0
 12 13  1  0
 13 14  1  6
 13 15  1  0
 15 16  1  0
 16 17  1  0
 17 18  2  0
 18 19  1  0
 19 20  1  0
 20 21  1  0
 21 22  1  0
 22 23  1  0
 22 24  1  0
 24 25  1  0
 24 26  1  0
 19 27  1  0
 27 28  1  1
 27 29  1  0
 29 30  1  0
 30 31  1  0
 31 32  1  1
  7  5  1  0
 31 10  1  0
 31 13  1  0
 27 15  1  0
 24 18  1  0
  1 33  1  0
  1 34  1  0
  1 35  1  0
  2 36  1  1
  3 37  1  0
  3 38  1  0
  4 39  1  0
  4 40  1  0
  5 41  1  1
  8 42  1  0
  8 43  1  0
  8 44  1  0
  9 45  1  0
  9 46  1  0
  9 47  1  0
 10 48  1  6
 11 49  1  0
 11 50  1  0
 12 51  1  0
 12 52  1  0
 14 53  1  0
 14 54  1  0
 14 55  1  0
 15 56  1  1
 16 57  1  0
 16 58  1  0
 17 59  1  0
 19 60  1  6
 20 61  1  0
 20 62  1  0
 21 63  1  0
 21 64  1  0
 22 65  1  6
 23 66  1  0
 25 67  1  0
 25 68  1  0
 25 69  1  0
 26 70  1  0
 26 71  1  0
 26 72  1  0
 28 73  1  0
 28 74  1  0
 28 75  1  0
 29 76  1  0
 29 77  1  0
 30 78  1  0
 30 79  1  0
 32 80  1  0
 32 81  1  0
 32 82  1  0
M  END
>  <meeko>  (14) 
{"is_sidechain": [false], "intermolecular_energy": 2.731, "internal_energy": -0.839}

$$$$
EPH_relaxed_0001_pdb2pqr_Repair_298_r2_0001_out
     RDKit          3D

 82 86  0  0  0  0  0  0  0  0999 V2000
   -2.4460    7.7880   -0.0250 C   0  0  0  0  0  0  0  0  0  0  0  0
   -3.1110    9.1670   -0.0740 C   0  0  2  0  0  0  0  0  0  0  0  0
   -4.5850    9.0850   -0.5180 C   0  0  0  0  0  0  0  0  0  0  0  0
   -5.1290    7.6550   -0.5850 C   0  0  0  0  0  0  0  0  0  0  0  0
   -5.8900    7.4110   -1.8530 C   0  0  2  0  0  0  0  0  0  0  0  0
   -6.8230    8.4420   -2.2000 O   0  0  0  0  0  0  0  0  0  0  0  0
   -7.3850    7.1550   -1.8960 C   0  0  0  0  0  0  0  0  0  0  0  0
   -8.2080    7.1300   -0.6470 C   0  0  0  0  0  0  0  0  0  0  0  0
   -7.9560    6.4510   -3.0870 C   0  0  0  0  0  0  0  0  0  0  0  0
   -2.3350   10.0850   -1.0110 C   0  0  1  0  0  0  0  0  0  0  0  0
   -2.9700   11.4960   -1.1270 C   0  0  0  0  0  0  0  0  0  0  0  0
   -1.8010   12.5020   -1.2840 C   0  0  0  0  0  0  0  0  0  0  0  0
   -0.5660   11.6200   -1.5860 C   0  0  1  0  0  0  0  0  0  0  0  0
   -0.6640   11.3020   -3.1110 C   0  0  0  0  0  0  0  0  0  0  0  0
    0.8240   12.2280   -1.2110 C   0  0  2  0  0  0  0  0  0  0  0  0
    1.1990   13.5160   -1.9650 C   0  0  0  0  0  0  0  0  0  0  0  0
    1.9460   13.3130   -3.2410 C   0  0  0  0  0  0  0  0  0  0  0  0
    2.5500   12.1720   -3.6210 C   0  0  0  0  0  0  0  0  0  0  0  0
    2.6010   10.9580   -2.6840 C   0  0  1  0  0  0  0  0  0  0  0  0
    4.0410   10.3800   -2.6640 C   0  0  0  0  0  0  0  0  0  0  0  0
    4.5630   10.0610   -4.0620 C   0  0  0  0  0  0  0  0  0  0  0  0
    4.5510   11.3060   -4.9450 C   0  0  2  0  0  0  0  0  0  0  0  0
    5.5060   12.2410   -4.4370 O   0  0  0  0  0  0  0  0  0  0  0  0
    3.1540   11.9810   -5.0340 C   0  0  0  0  0  0  0  0  0  0  0  0
    2.1940   11.0850   -5.8560 C   0  0  0  0  0  0  0  0  0  0  0  0
    3.3120   13.3000   -5.8380 C   0  0  0  0  0  0  0  0  0  0  0  0
    2.0130   11.1840   -1.2250 C   0  0  1  0  0  0  0  0  0  0  0  0
    3.1200   11.7560   -0.2880 C   0  0  0  0  0  0  0  0  0  0  0  0
    1.5940    9.7920   -0.6190 C   0  0  0  0  0  0  0  0  0  0  0  0
    0.1670    9.3020   -0.9270 C   0  0  0  0  0  0  0  0  0  0  0  0
   -0.8630   10.3990   -0.6420 C   0  0  2  0  0  0  0  0  0  0  0  0
   -0.8040   10.7250    0.8900 C   0  0  0  0  0  0  0  0  0  0  0  0
   -2.3012    7.4878    1.0233 H   0  0  0  0  0  0  0  0  0  0  0  0
   -3.0886    7.0528   -0.5316 H   0  0  0  0  0  0  0  0  0  0  0  0
   -1.4706    7.8331   -0.5316 H   0  0  0  0  0  0  0  0  0  0  0  0
   -3.0959    9.5783    0.9461 H   0  0  0  0  0  0  0  0  0  0  0  0
   -5.1954    9.6556    0.1973 H   0  0  0  0  0  0  0  0  0  0  0  0
   -4.6374    9.4970   -1.5366 H   0  0  0  0  0  0  0  0  0  0  0  0
   -4.2862    6.9500   -0.5337 H   0  0  0  0  0  0  0  0  0  0  0  0
   -5.8164    7.5093    0.2613 H   0  0  0  0  0  0  0  0  0  0  0  0
   -5.0362    6.8712   -2.2884 H   0  0  0  0  0  0  0  0  0  0  0  0
   -7.5442    7.1502    0.2299 H   0  0  0  0  0  0  0  0  0  0  0  0
   -8.8697    8.0085   -0.6263 H   0  0  0  0  0  0  0  0  0  0  0  0
   -8.8152    6.2130   -0.6263 H   0  0  0  0  0  0  0  0  0  0  0  0
   -8.6157    5.6376   -2.7507 H   0  0  0  0  0  0  0  0  0  0  0  0
   -8.5335    7.1648   -3.6928 H   0  0  0  0  0  0  0  0  0  0  0  0
   -7.1384    6.0332   -3.6928 H   0  0  0  0  0  0  0  0  0  0  0  0
   -2.3722    9.4827   -1.9307 H   0  0  0  0  0  0  0  0  0  0  0  0
   -3.6305   11.5429   -2.0054 H   0  0  0  0  0  0  0  0  0  0  0  0
   -3.5757   11.7303   -0.2392 H   0  0  0  0  0  0  0  0  0  0  0  0
   -1.9950   13.1964   -2.1148 H   0  0  0  0  0  0  0  0  0  0  0  0
   -1.6612   13.1229   -0.3868 H   0  0  0  0  0  0  0  0  0  0  0  0
   -0.9854   10.2590   -3.2481 H   0  0  0  0  0  0  0  0  0  0  0  0
   -1.3961   11.9760   -3.5798 H   0  0  0  0  0  0  0  0  0  0  0  0
    0.3205   11.4469   -3.5798 H   0  0  0  0  0  0  0  0  0  0  0  0
    0.6742   12.5284   -0.1635 H   0  0  0  0  0  0  0  0  0  0  0  0
    0.2697   14.0566   -2.1975 H   0  0  0  0  0  0  0  0  0  0  0  0
    1.8771   14.0713   -1.3003 H   0  0  0  0  0  0  0  0  0  0  0  0
    2.0082   14.1687   -3.9294 H   0  0  0  0  0  0  0  0  0  0  0  0
    1.9074   10.2166   -3.1074 H   0  0  0  0  0  0  0  0  0  0  0  0
    4.7105   11.1176   -2.1974 H   0  0  0  0  0  0  0  0  0  0  0  0
    4.0153    9.4393   -2.0945 H   0  0  0  0  0  0  0  0  0  0  0  0
    5.5936    9.6844   -3.9844 H   0  0  0  0  0  0  0  0  0  0  0  0
    3.9097    9.3015   -4.5163 H   0  0  0  0  0  0  0  0  0  0  0  0
    4.8108   10.9885   -5.9656 H   0  0  0  0  0  0  0  0  0  0  0  0
    5.1470   13.1340   -4.5750 H   0  0  0  0  0  0  0  0  0  0  0  0
    1.5645   10.4975   -5.1715 H   0  0  0  0  0  0  0  0  0  0  0  0
    1.5551   11.7173   -6.4901 H   0  0  0  0  0  0  0  0  0  0  0  0
    2.7807   10.4041   -6.4901 H   0  0  0  0  0  0  0  0  0  0  0  0
    3.4132   14.1446   -5.1406 H   0  0  0  0  0  0  0  0  0  0  0  0
    4.2091   13.2381   -6.4715 H   0  0  0  0  0  0  0  0  0  0  0  0
    2.4256   13.4517   -6.4715 H   0  0  0  0  0  0  0  0  0  0  0  0
    2.8266   11.6044    0.7613 H   0  0  0  0  0  0  0  0  0  0  0  0
    4.0695   11.2357   -0.4821 H   0  0  0  0  0  0  0  0  0  0  0  0
    3.2449   12.8315   -0.4821 H   0  0  0  0  0  0  0  0  0  0  0  0
    2.2954    9.0369   -1.0036 H   0  0  0  0  0  0  0  0  0  0  0  0
    1.6208    9.9330    0.4716 H   0  0  0  0  0  0  0  0  0  0  0  0
    0.1054    9.0174   -1.9878 H   0  0  0  0  0  0  0  0  0  0  0  0
   -0.0537    8.4380   -0.2830 H   0  0  0  0  0  0  0  0  0  0  0  0
   -0.9707    9.8038    1.4676 H   0  0  0  0  0  0  0  0  0  0  0  0
    0.1839   11.1400    1.1388 H   0  0  0  0  0  0  0  0  0  0  0  0
   -1.5837   11.4599    1.1388 H   0  0  0  0  0  0  0  0  0  0  0  0
  1  2  1  0
  2  3  1  0
  3  4  1  0
  4  5  1  0
  5  6  1  0
  6  7  1  0
  7  8  1  0
  7  9  1  0
  2 10  1  0
 10 11  1  0
 11 12  1  0
 12 13  1  0
 13 14  1  6
 13 15  1  0
 15 16  1  0
 16 17  1  0
 17 18  2  0
 18 19  1  0
 19 20  1  0
 20 21  1  0
 21 22  1  0
 22 23  1  0
 22 24  1  0
 24 25  1  0
 24 26  1  0
 19 27  1  0
 27 28  1  1
 27 29  1  0
 29 30  1  0
 30 31  1  0
 31 32  1  1
  7  5  1  0
 31 10  1  0
 31 13  1  0
 27 15  1  0
 24 18  1  0
  1 33  1  0
  1 34  1  0
  1 35  1  0
  2 36  1  1
  3 37  1  0
  3 38  1  0
  4 39  1  0
  4 40  1  0
  5 41  1  6
  8 42  1  0
  8 43  1  0
  8 44  1  0
  9 45  1  0
  9 46  1  0
  9 47  1  0
 10 48  1  6
 11 49  1  0
 11 50  1  0
 12 51  1  0
 12 52  1  0
 14 53  1  0
 14 54  1  0
 14 55  1  0
 15 56  1  1
 16 57  1  0
 16 58  1  0
 17 59  1  0
 19 60  1  6
 20 61  1  0
 20 62  1  0
 21 63  1  0
 21 64  1  0
 22 65  1  6
 23 66  1  0
 25 67  1  0
 25 68  1  0
 25 69  1  0
 26 70  1  0
 26 71  1  0
 26 72  1  0
 28 73  1  0
 28 74  1  0
 28 75  1  0
 29 76  1  0
 29 77  1  0
 30 78  1  0
 30 79  1  0
 32 80  1  0
 32 81  1  0
 32 82  1  0
M  END
>  <meeko>  (15) 
{"is_sidechain": [false], "intermolecular_energy": 2.731, "internal_energy": -0.839}

$$$$
EPH_relaxed_0001_pdb2pqr_Repair_298_r2_0001_out
     RDKit          3D

 82 86  0  0  0  0  0  0  0  0999 V2000
    2.1930   17.7030   -2.3440 C   0  0  0  0  0  0  0  0  0  0  0  0
    2.2290   16.8280   -1.0880 C   0  0  2  0  0  0  0  0  0  0  0  0
    3.4780   17.1020   -0.2260 C   0  0  0  0  0  0  0  0  0  0  0  0
    3.6710   18.5790    0.1270 C   0  0  0  0  0  0  0  0  0  0  0  0
    3.4550   18.8330    1.5880 C   0  0  2  0  0  0  0  0  0  0  0  0
    3.6480   20.1940    1.9940 O   0  0  0  0  0  0  0  0  0  0  0  0
    4.5660   19.2340    2.5410 C   0  0  0  0  0  0  0  0  0  0  0  0
    5.9760   19.4020    2.0690 C   0  0  0  0  0  0  0  0  0  0  0  0
    4.3770   18.9850    4.0050 C   0  0  0  0  0  0  0  0  0  0  0  0
    2.1780   15.3560   -1.4780 C   0  0  1  0  0  0  0  0  0  0  0  0
    3.5560   14.8130   -1.9420 C   0  0  0  0  0  0  0  0  0  0  0  0
    3.6400   13.3400   -1.4650 C   0  0  0  0  0  0  0  0  0  0  0  0
    2.1950   12.9840   -1.0420 C   0  0  1  0  0  0  0  0  0  0  0  0
    1.4590   12.6430   -2.3750 C   0  0  0  0  0  0  0  0  0  0  0  0
    2.0460   11.8370    0.0100 C   0  0  2  0  0  0  0  0  0  0  0  0
    2.5590   10.4610   -0.4480 C   0  0  0  0  0  0  0  0  0  0  0  0
    1.5460    9.5950   -1.1200 C   0  0  0  0  0  0  0  0  0  0  0  0
    0.2140    9.7860   -1.0960 C   0  0  0  0  0  0  0  0  0  0  0  0
   -0.4060   10.9110   -0.2570 C   0  0  1  0  0  0  0  0  0  0  0  0
   -1.6140   10.3560    0.5430 C   0  0  0  0  0  0  0  0  0  0  0  0
   -2.6380    9.6630   -0.3510 C   0  0  0  0  0  0  0  0  0  0  0  0
   -1.9970    8.5130   -1.1250 C   0  0  2  0  0  0  0  0  0  0  0  0
   -1.6140    7.4910   -0.1990 O   0  0  0  0  0  0  0  0  0  0  0  0
   -0.7630    8.9510   -1.9610 C   0  0  0  0  0  0  0  0  0  0  0  0
   -1.2250    9.8240   -3.1530 C   0  0  0  0  0  0  0  0  0  0  0  0
   -0.1280    7.6750   -2.5780 C   0  0  0  0  0  0  0  0  0  0  0  0
    0.6040   11.7320    0.6550 C   0  0  1  0  0  0  0  0  0  0  0  0
    0.7820   11.0180    2.0290 C   0  0  0  0  0  0  0  0  0  0  0  0
   -0.0170   13.1450    0.9660 C   0  0  0  0  0  0  0  0  0  0  0  0
    0.2660   14.2680   -0.0510 C   0  0  0  0  0  0  0  0  0  0  0  0
    1.7600   14.3440   -0.3830 C   0  0  2  0  0  0  0  0  0  0  0  0
    2.5240   14.7080    0.9350 C   0  0  0  0  0  0  0  0  0  0  0  0
    2.1494   18.7625   -2.0516 H   0  0  0  0  0  0  0  0  0  0  0  0
    3.0993   17.5245   -2.9414 H   0  0  0  0  0  0  0  0  0  0  0  0
    1.3045   17.4506   -2.9414 H   0  0  0  0  0  0  0  0  0  0  0  0
    1.3469   17.0822   -0.4820 H   0  0  0  0  0  0  0  0  0  0  0  0
    3.3863   16.5306    0.7095 H   0  0  0  0  0  0  0  0  0  0  0  0
    4.3518   16.7971   -0.8206 H   0  0  0  0  0  0  0  0  0  0  0  0
    4.6956   18.8781   -0.1391 H   0  0  0  0  0  0  0  0  0  0  0  0
    2.9301   19.1656   -0.4360 H   0  0  0  0  0  0  0  0  0  0  0  0
    2.6907   18.0434    1.6362 H   0  0  0  0  0  0  0  0  0  0  0  0
    6.6463   19.4819    2.9375 H   0  0  0  0  0  0  0  0  0  0  0  0
    6.2654   18.5320    1.4613 H   0  0  0  0  0  0  0  0  0  0  0  0
    6.0528   20.3157    1.4613 H   0  0  0  0  0  0  0  0  0  0  0  0
    4.9439   19.7319    4.5801 H   0  0  0  0  0  0  0  0  0  0  0  0
    3.3087   19.0631    4.2553 H   0  0  0  0  0  0  0  0  0  0  0  0
    4.7395   17.9771    4.2553 H   0  0  0  0  0  0  0  0  0  0  0  0
    1.4084   15.4000   -2.2627 H   0  0  0  0  0  0  0  0  0  0  0  0
    3.6325   14.8611   -3.0383 H   0  0  0  0  0  0  0  0  0  0  0  0
    4.3780   15.4115   -1.5224 H   0  0  0  0  0  0  0  0  0  0  0  0
    3.9778   12.6858   -2.2823 H   0  0  0  0  0  0  0  0  0  0  0  0
    4.3597   13.2078   -0.6437 H   0  0  0  0  0  0  0  0  0  0  0  0
    0.4822   12.1904   -2.1491 H   0  0  0  0  0  0  0  0  0  0  0  0
    1.3104   13.5640   -2.9578 H   0  0  0  0  0  0  0  0  0  0  0  0
    2.0656   11.9342   -2.9578 H   0  0  0  0  0  0  0  0  0  0  0  0
    2.7299   12.1594    0.8090 H   0  0  0  0  0  0  0  0  0  0  0  0
    3.3877   10.6244   -1.1526 H   0  0  0  0  0  0  0  0  0  0  0  0
    2.8574    9.9274    0.4664 H   0  0  0  0  0  0  0  0  0  0  0  0
    1.9199    8.7269   -1.6827 H   0  0  0  0  0  0  0  0  0  0  0  0
   -0.7510   11.6703   -0.9743 H   0  0  0  0  0  0  0  0  0  0  0  0
   -1.2440    9.6312    1.2831 H   0  0  0  0  0  0  0  0  0  0  0  0
   -2.1145   11.2079    1.0265 H   0  0  0  0  0  0  0  0  0  0  0  0
   -3.4519    9.2668    0.2739 H   0  0  0  0  0  0  0  0  0  0  0  0
   -3.0286   10.3966   -1.0716 H   0  0  0  0  0  0  0  0  0  0  0  0
   -2.7440    8.1398   -1.8411 H   0  0  0  0  0  0  0  0  0  0  0  0
   -0.7110    7.2130   -0.4260 H   0  0  0  0  0  0  0  0  0  0  0  0
   -1.7080   10.7366   -2.7736 H   0  0  0  0  0  0  0  0  0  0  0  0
   -0.3538   10.0980   -3.7662 H   0  0  0  0  0  0  0  0  0  0  0  0
   -1.9415    9.2578   -3.7662 H   0  0  0  0  0  0  0  0  0  0  0  0
    0.2055    7.0049   -1.7719 H   0  0  0  0  0  0  0  0  0  0  0  0
   -0.8739    7.1580   -3.1995 H   0  0  0  0  0  0  0  0  0  0  0  0
    0.7342    7.9583   -3.1995 H   0  0  0  0  0  0  0  0  0  0  0  0
    0.6027   11.7371    2.8419 H   0  0  0  0  0  0  0  0  0  0  0  0
    0.0630   10.1892    2.1074 H   0  0  0  0  0  0  0  0  0  0  0  0
    1.8059   10.6237    2.1074 H   0  0  0  0  0  0  0  0  0  0  0  0
   -1.1082   13.0219    1.0307 H   0  0  0  0  0  0  0  0  0  0  0  0
    0.4662   13.4727    1.8983 H   0  0  0  0  0  0  0  0  0  0  0  0
   -0.2980   14.0680   -0.9740 H   0  0  0  0  0  0  0  0  0  0  0  0
   -0.0444   15.2268    0.3900 H   0  0  0  0  0  0  0  0  0  0  0  0
    1.9150   14.4179    1.8039 H   0  0  0  0  0  0  0  0  0  0  0  0
    3.4831   14.1701    0.9634 H   0  0  0  0  0  0  0  0  0  0  0  0
    2.7105   15.7917    0.9634 H   0  0  0  0  0  0  0  0  0  0  0  0
  1  2  1  0
  2  3  1  0
  3  4  1  0
  4  5  1  0
  5  6  1  0
  6  7  1  0
  7  8  1  0
  7  9  1  0
  2 10  1  0
 10 11  1  0
 11 12  1  0
 12 13  1  0
 13 14  1  6
 13 15  1  0
 15 16  1  0
 16 17  1  0
 17 18  2  0
 18 19  1  0
 19 20  1  0
 20 21  1  0
 21 22  1  0
 22 23  1  0
 22 24  1  0
 24 25  1  0
 24 26  1  0
 19 27  1  0
 27 28  1  1
 27 29  1  0
 29 30  1  0
 30 31  1  0
 31 32  1  1
  7  5  1  0
 31 10  1  0
 31 13  1  0
 27 15  1  0
 24 18  1  0
  1 33  1  0
  1 34  1  0
  1 35  1  0
  2 36  1  1
  3 37  1  0
  3 38  1  0
  4 39  1  0
  4 40  1  0
  5 41  1  1
  8 42  1  0
  8 43  1  0
  8 44  1  0
  9 45  1  0
  9 46  1  0
  9 47  1  0
 10 48  1  6
 11 49  1  0
 11 50  1  0
 12 51  1  0
 12 52  1  0
 14 53  1  0
 14 54  1  0
 14 55  1  0
 15 56  1  1
 16 57  1  0
 16 58  1  0
 17 59  1  0
 19 60  1  6
 20 61  1  0
 20 62  1  0
 21 63  1  0
 21 64  1  0
 22 65  1  6
 23 66  1  0
 25 67  1  0
 25 68  1  0
 25 69  1  0
 26 70  1  0
 26 71  1  0
 26 72  1  0
 28 73  1  0
 28 74  1  0
 28 75  1  0
 29 76  1  0
 29 77  1  0
 30 78  1  0
 30 79  1  0
 32 80  1  0
 32 81  1  0
 32 82  1  0
M  END
>  <meeko>  (16) 
{"is_sidechain": [false], "intermolecular_energy": 2.731, "internal_energy": -0.839}

$$$$
EPH_relaxed_0001_pdb2pqr_Repair_298_r2_0001_out
     RDKit          3D

 82 86  0  0  0  0  0  0  0  0999 V2000
    3.1510   11.2940   -4.2040 C   0  0  0  0  0  0  0  0  0  0  0  0
    2.0210   11.8740   -5.0590 C   0  0  2  0  0  0  0  0  0  0  0  0
    2.5540   12.6200   -6.2990 C   0  0  0  0  0  0  0  0  0  0  0  0
    1.8320   13.9400   -6.5800 C   0  0  0  0  0  0  0  0  0  0  0  0
    2.3100   14.5730   -7.8520 C   0  0  2  0  0  0  0  0  0  0  0  0
    2.4160   16.0020   -7.8070 O   0  0  0  0  0  0  0  0  0  0  0  0
    1.4430   15.4670   -8.7190 C   0  0  0  0  0  0  0  0  0  0  0  0
    0.0270   15.7770   -8.3490 C   0  0  0  0  0  0  0  0  0  0  0  0
    1.8090   15.6380  -10.1610 C   0  0  0  0  0  0  0  0  0  0  0  0
    1.1620   12.8110   -4.2170 C   0  0  1  0  0  0  0  0  0  0  0  0
   -0.1910   12.1720   -3.8050 C   0  0  0  0  0  0  0  0  0  0  0  0
   -0.5240   12.7050   -2.3880 C   0  0  0  0  0  0  0  0  0  0  0  0
    0.4630   13.8750   -2.1690 C   0  0  1  0  0  0  0  0  0  0  0  0
   -0.1800   15.0870   -2.9140 C   0  0  0  0  0  0  0  0  0  0  0  0
    0.8030   14.2250   -0.6840 C   0  0  2  0  0  0  0  0  0  0  0  0
   -0.3920   14.6930    0.1660 C   0  0  0  0  0  0  0  0  0  0  0  0
   -0.6330   16.1660    0.1690 C   0  0  0  0  0  0  0  0  0  0  0  0
    0.2390   17.1030   -0.2480 C   0  0  0  0  0  0  0  0  0  0  0  0
    1.6560   16.7170   -0.6930 C   0  0  1  0  0  0  0  0  0  0  0  0
    2.6840   17.6760   -0.0370 C   0  0  0  0  0  0  0  0  0  0  0  0
    2.3680   19.1450   -0.3050 C   0  0  0  0  0  0  0  0  0  0  0  0
    0.9740   19.5040    0.2040 C   0  0  2  0  0  0  0  0  0  0  0  0
    0.9680   19.4150    1.6320 O   0  0  0  0  0  0  0  0  0  0  0  0
   -0.1450   18.5970   -0.3810 C   0  0  0  0  0  0  0  0  0  0  0  0
   -0.3410   18.9170   -1.8840 C   0  0  0  0  0  0  0  0  0  0  0  0
   -1.4780   18.9720    0.3200 C   0  0  0  0  0  0  0  0  0  0  0  0
    2.0470   15.1880   -0.5130 C   0  0  1  0  0  0  0  0  0  0  0  0
    2.6020   14.9460    0.9250 C   0  0  0  0  0  0  0  0  0  0  0  0
    3.2170   14.8360   -1.5050 C   0  0  0  0  0  0  0  0  0  0  0  0
    2.8140   14.3820   -2.9220 C   0  0  0  0  0  0  0  0  0  0  0  0
    1.7450   13.2860   -2.8630 C   0  0  2  0  0  0  0  0  0  0  0  0
    2.3710   12.0460   -2.1390 C   0  0  0  0  0  0  0  0  0  0  0  0
    2.9064   11.4196   -3.1389 H   0  0  0  0  0  0  0  0  0  0  0  0
    3.2691   10.2238   -4.4294 H   0  0  0  0  0  0  0  0  0  0  0  0
    4.0893   11.8219   -4.4294 H   0  0  0  0  0  0  0  0  0  0  0  0
    1.4117   11.0314   -5.4180 H   0  0  0  0  0  0  0  0  0  0  0  0
    3.6216   12.8344   -6.1431 H   0  0  0  0  0  0  0  0  0  0  0  0
    2.3796   11.9670   -7.1668 H   0  0  0  0  0  0  0  0  0  0  0  0
    0.7525   13.7455   -6.6623 H   0  0  0  0  0  0  0  0  0  0  0  0
    2.0457   14.6312   -5.7514 H   0  0  0  0  0  0  0  0  0  0  0  0
    2.9273   13.6930   -8.0854 H   0  0  0  0  0  0  0  0  0  0  0  0
   -0.0695   15.7981   -7.2534 H   0  0  0  0  0  0  0  0  0  0  0  0
   -0.2533   16.7578   -8.7607 H   0  0  0  0  0  0  0  0  0  0  0  0
   -0.6374   15.0030   -8.7607 H   0  0  0  0  0  0  0  0  0  0  0  0
    2.8034   16.1026  -10.2343 H   0  0  0  0  0  0  0  0  0  0  0  0
    1.8264   14.6548  -10.6540 H   0  0  0  0  0  0  0  0  0  0  0  0
    1.0661   16.2822  -10.6540 H   0  0  0  0  0  0  0  0  0  0  0  0
    1.0817   13.6608   -4.9108 H   0  0  0  0  0  0  0  0  0  0  0  0
   -0.9794   12.4638   -4.5144 H   0  0  0  0  0  0  0  0  0  0  0  0
   -0.1267   11.0739   -3.8090 H   0  0  0  0  0  0  0  0  0  0  0  0
   -1.5639   13.0604   -2.3414 H   0  0  0  0  0  0  0  0  0  0  0  0
   -0.4265   11.9272   -1.6163 H   0  0  0  0  0  0  0  0  0  0  0  0
   -0.5629   15.8088   -2.1776 H   0  0  0  0  0  0  0  0  0  0  0  0
    0.5784   15.5740   -3.5447 H   0  0  0  0  0  0  0  0  0  0  0  0
   -1.0085   14.7321   -3.5447 H   0  0  0  0  0  0  0  0  0  0  0  0
    1.0976   13.2481   -0.2730 H   0  0  0  0  0  0  0  0  0  0  0  0
   -1.2971   14.2011   -0.2198 H   0  0  0  0  0  0  0  0  0  0  0  0
   -0.1522   14.4213    1.2046 H   0  0  0  0  0  0  0  0  0  0  0  0
   -1.6062   16.5158    0.5439 H   0  0  0  0  0  0  0  0  0  0  0  0
    1.6753   16.8399   -1.7859 H   0  0  0  0  0  0  0  0  0  0  0  0
    2.6801   17.5071    1.0499 H   0  0  0  0  0  0  0  0  0  0  0  0
    3.6691   17.4608   -0.4766 H   0  0  0  0  0  0  0  0  0  0  0  0
    3.1115   19.7727    0.2080 H   0  0  0  0  0  0  0  0  0  0  0  0
    2.4015   19.3194   -1.3906 H   0  0  0  0  0  0  0  0  0  0  0  0
    0.7541   20.5283   -0.1314 H   0  0  0  0  0  0  0  0  0  0  0  0
    1.1140   18.4830    1.8700 H   0  0  0  0  0  0  0  0  0  0  0  0
   -0.9129   19.8508   -1.9885 H   0  0  0  0  0  0  0  0  0  0  0  0
    0.6413   19.0328   -2.3654 H   0  0  0  0  0  0  0  0  0  0  0  0
   -0.8905   18.0946   -2.3654 H   0  0  0  0  0  0  0  0  0  0  0  0
   -1.3420   18.9337    1.4109 H   0  0  0  0  0  0  0  0  0  0  0  0
   -1.7751   19.9886    0.0230 H   0  0  0  0  0  0  0  0  0  0  0  0
   -2.2616   18.2594    0.0230 H   0  0  0  0  0  0  0  0  0  0  0  0
    1.8563   15.2712    1.6654 H   0  0  0  0  0  0  0  0  0  0  0  0
    2.8115   13.8748    1.0617 H   0  0  0  0  0  0  0  0  0  0  0  0
    3.5295   15.5214    1.0617 H   0  0  0  0  0  0  0  0  0  0  0  0
    3.8460   15.7324   -1.6091 H   0  0  0  0  0  0  0  0  0  0  0  0
    3.7224   13.9675   -1.0574 H   0  0  0  0  0  0  0  0  0  0  0  0
    2.4152   15.2443   -3.4764 H   0  0  0  0  0  0  0  0  0  0  0  0
    3.7036   13.9777   -3.4272 H   0  0  0  0  0  0  0  0  0  0  0  0
    2.3015   12.1837   -1.0499 H   0  0  0  0  0  0  0  0  0  0  0  0
    1.8238   11.1370   -2.4294 H   0  0  0  0  0  0  0  0  0  0  0  0
    3.4273   11.9465   -2.4294 H   0  0  0  0  0  0  0  0  0  0  0  0
  1  2  1  0
  2  3  1  0
  3  4  1  0
  4  5  1  0
  5  6  1  0
  6  7  1  0
  7  8  1  0
  7  9  1  0
  2 10  1  0
 10 11  1  0
 11 12  1  0
 12 13  1  0
 13 14  1  6
 13 15  1  0
 15 16  1  0
 16 17  1  0
 17 18  2  0
 18 19  1  0
 19 20  1  0
 20 21  1  0
 21 22  1  0
 22 23  1  0
 22 24  1  0
 24 25  1  0
 24 26  1  0
 19 27  1  0
 27 28  1  1
 27 29  1  0
 29 30  1  0
 30 31  1  0
 31 32  1  1
  7  5  1  0
 31 10  1  0
 31 13  1  0
 27 15  1  0
 24 18  1  0
  1 33  1  0
  1 34  1  0
  1 35  1  0
  2 36  1  6
  3 37  1  0
  3 38  1  0
  4 39  1  0
  4 40  1  0
  5 41  1  6
  8 42  1  0
  8 43  1  0
  8 44  1  0
  9 45  1  0
  9 46  1  0
  9 47  1  0
 10 48  1  6
 11 49  1  0
 11 50  1  0
 12 51  1  0
 12 52  1  0
 14 53  1  0
 14 54  1  0
 14 55  1  0
 15 56  1  1
 16 57  1  0
 16 58  1  0
 17 59  1  0
 19 60  1  6
 20 61  1  0
 20 62  1  0
 21 63  1  0
 21 64  1  0
 22 65  1  1
 23 66  1  0
 25 67  1  0
 25 68  1  0
 25 69  1  0
 26 70  1  0
 26 71  1  0
 26 72  1  0
 28 73  1  0
 28 74  1  0
 28 75  1  0
 29 76  1  0
 29 77  1  0
 30 78  1  0
 30 79  1  0
 32 80  1  0
 32 81  1  0
 32 82  1  0
M  END
>  <meeko>  (17) 
{"is_sidechain": [false], "intermolecular_energy": 2.731, "internal_energy": -0.839}

$$$$
EPH_relaxed_0001_pdb2pqr_Repair_298_r2_0001_out
     RDKit          3D

 82 86  0  0  0  0  0  0  0  0999 V2000
    0.1330   14.7700   -3.8980 C   0  0  0  0  0  0  0  0  0  0  0  0
    1.2730   13.7850   -4.1700 C   0  0  2  0  0  0  0  0  0  0  0  0
    1.9070   13.9980   -5.5590 C   0  0  0  0  0  0  0  0  0  0  0  0
    0.9920   14.7270   -6.5480 C   0  0  0  0  0  0  0  0  0  0  0  0
    1.6660   14.9470   -7.8680 C   0  0  2  0  0  0  0  0  0  0  0  0
    2.1430   16.2820   -8.0810 O   0  0  0  0  0  0  0  0  0  0  0  0
    1.0980   15.8340   -8.9600 C   0  0  0  0  0  0  0  0  0  0  0  0
   -0.1990   16.5590   -8.7800 C   0  0  0  0  0  0  0  0  0  0  0  0
    1.5490   15.6120  -10.3700 C   0  0  0  0  0  0  0  0  0  0  0  0
    0.7650   12.3540   -4.0430 C   0  0  1  0  0  0  0  0  0  0  0  0
    1.8690   11.3000   -4.3230 C   0  0  0  0  0  0  0  0  0  0  0  0
    1.5920   10.1000   -3.3820 C   0  0  0  0  0  0  0  0  0  0  0  0
    0.1670   10.3530   -2.8370 C   0  0  1  0  0  0  0  0  0  0  0  0
   -0.7890    9.8510   -3.9650 C   0  0  0  0  0  0  0  0  0  0  0  0
   -0.1730    9.6970   -1.4590 C   0  0  2  0  0  0  0  0  0  0  0  0
   -0.1260    8.1600   -1.4390 C   0  0  0  0  0  0  0  0  0  0  0  0
   -1.4140    7.4780   -1.7630 C   0  0  0  0  0  0  0  0  0  0  0  0
   -2.6260    8.0630   -1.7800 C   0  0  0  0  0  0  0  0  0  0  0  0
   -2.8000    9.5260   -1.3550 C   0  0  1  0  0  0  0  0  0  0  0  0
   -4.0110    9.6460   -0.3940 C   0  0  0  0  0  0  0  0  0  0  0  0
   -5.2870    9.0540   -0.9840 C   0  0  0  0  0  0  0  0  0  0  0  0
   -5.0920    7.5820   -1.3400 C   0  0  2  0  0  0  0  0  0  0  0  0
   -4.9040    6.8370   -0.1320 O   0  0  0  0  0  0  0  0  0  0  0  0
   -3.8930    7.3370   -2.2970 C   0  0  0  0  0  0  0  0  0  0  0  0
   -4.2290    7.8890   -3.7040 C   0  0  0  0  0  0  0  0  0  0  0  0
   -3.7190    5.8030   -2.4630 C   0  0  0  0  0  0  0  0  0  0  0  0
   -1.4990   10.2440   -0.7910 C   0  0  1  0  0  0  0  0  0  0  0  0
   -1.3670    9.9790    0.7400 C   0  0  0  0  0  0  0  0  0  0  0  0
   -1.6560   11.8010   -0.9590 C   0  0  0  0  0  0  0  0  0  0  0  0
   -1.1930   12.4050   -2.2990 C   0  0  0  0  0  0  0  0  0  0  0  0
    0.2120   11.9150   -2.6640 C   0  0  2  0  0  0  0  0  0  0  0  0
    1.1990   12.4240   -1.5590 C   0  0  0  0  0  0  0  0  0  0  0  0
   -0.0006   14.8854   -2.8123 H   0  0  0  0  0  0  0  0  0  0  0  0
    0.3775   15.7457   -4.3432 H   0  0  0  0  0  0  0  0  0  0  0  0
   -0.7969   14.3865   -4.3432 H   0  0  0  0  0  0  0  0  0  0  0  0
    2.0553   13.9698   -3.4191 H   0  0  0  0  0  0  0  0  0  0  0  0
    2.8256   14.5901   -5.4344 H   0  0  0  0  0  0  0  0  0  0  0  0
    2.1045   13.0006   -5.9788 H   0  0  0  0  0  0  0  0  0  0  0  0
    0.0859   14.1237   -6.7066 H   0  0  0  0  0  0  0  0  0  0  0  0
    0.7417   15.7101   -6.1228 H   0  0  0  0  0  0  0  0  0  0  0  0
    2.0376   13.9117   -7.8776 H   0  0  0  0  0  0  0  0  0  0  0  0
   -0.4079   16.6758   -7.7063 H   0  0  0  0  0  0  0  0  0  0  0  0
   -0.1329   17.5510   -9.2507 H   0  0  0  0  0  0  0  0  0  0  0  0
   -1.0094   15.9831   -9.2507 H   0  0  0  0  0  0  0  0  0  0  0  0
    2.5359   15.1262  -10.3671 H   0  0  0  0  0  0  0  0  0  0  0  0
    0.8246   14.9675  -10.8895 H   0  0  0  0  0  0  0  0  0  0  0  0
    1.6179   16.5791  -10.8895 H   0  0  0  0  0  0  0  0  0  0  0  0
   -0.0481   12.3817   -4.7834 H   0  0  0  0  0  0  0  0  0  0  0  0
    1.8252   10.9756   -5.3732 H   0  0  0  0  0  0  0  0  0  0  0  0
    2.8698   11.7196   -4.1431 H   0  0  0  0  0  0  0  0  0  0  0  0
    1.6322    9.1523   -3.9390 H   0  0  0  0  0  0  0  0  0  0  0  0
    2.3382   10.0194   -2.5778 H   0  0  0  0  0  0  0  0  0  0  0  0
   -1.6768    9.3848   -3.5127 H   0  0  0  0  0  0  0  0  0  0  0  0
   -1.0994   10.7025   -4.5884 H   0  0  0  0  0  0  0  0  0  0  0  0
   -0.2643    9.1121   -4.5884 H   0  0  0  0  0  0  0  0  0  0  0  0
    0.6635   10.0290   -0.8265 H   0  0  0  0  0  0  0  0  0  0  0  0
    0.6255    7.8334   -2.1729 H   0  0  0  0  0  0  0  0  0  0  0  0
    0.1163    7.8765   -0.4041 H   0  0  0  0  0  0  0  0  0  0  0  0
   -1.3686    6.4067   -2.0086 H   0  0  0  0  0  0  0  0  0  0  0  0
   -3.0000   10.0888   -2.2787 H   0  0  0  0  0  0  0  0  0  0  0  0
   -3.7744    9.1143    0.5394 H   0  0  0  0  0  0  0  0  0  0  0  0
   -4.1910   10.7164   -0.2158 H   0  0  0  0  0  0  0  0  0  0  0  0
   -6.0988    9.1416   -0.2469 H   0  0  0  0  0  0  0  0  0  0  0  0
   -5.5389    9.6066   -1.9012 H   0  0  0  0  0  0  0  0  0  0  0  0
   -5.9934    7.2496   -1.8758 H   0  0  0  0  0  0  0  0  0  0  0  0
   -4.7070    7.4720    0.5770 H   0  0  0  0  0  0  0  0  0  0  0  0
   -4.7986    8.8248   -3.6043 H   0  0  0  0  0  0  0  0  0  0  0  0
   -3.2964    8.0842   -4.2536 H   0  0  0  0  0  0  0  0  0  0  0  0
   -4.8308    7.1502   -4.2536 H   0  0  0  0  0  0  0  0  0  0  0  0
   -3.6654    5.3306   -1.4711 H   0  0  0  0  0  0  0  0  0  0  0  0
   -4.5766    5.3946   -3.0178 H   0  0  0  0  0  0  0  0  0  0  0  0
   -2.7917    5.5971   -3.0178 H   0  0  0  0  0  0  0  0  0  0  0  0
   -1.7900   10.8281    1.2969 H   0  0  0  0  0  0  0  0  0  0  0  0
   -1.9129    9.0605    1.0016 H   0  0  0  0  0  0  0  0  0  0  0  0
   -0.3050    9.8614    1.0016 H   0  0  0  0  0  0  0  0  0  0  0  0
   -2.7218   12.0434   -0.8352 H   0  0  0  0  0  0  0  0  0  0  0  0
   -0.9923   12.2410   -0.2001 H   0  0  0  0  0  0  0  0  0  0  0  0
   -1.8956   12.1057   -3.0907 H   0  0  0  0  0  0  0  0  0  0  0  0
   -1.1683   13.5003   -2.2006 H   0  0  0  0  0  0  0  0  0  0  0  0
    0.7799   12.2078   -0.5652 H   0  0  0  0  0  0  0  0  0  0  0  0
    2.1667   11.9125   -1.6680 H   0  0  0  0  0  0  0  0  0  0  0  0
    1.3434   13.5090   -1.6680 H   0  0  0  0  0  0  0  0  0  0  0  0
  1  2  1  0
  2  3  1  0
  3  4  1  0
  4  5  1  0
  5  6  1  0
  6  7  1  0
  7  8  1  0
  7  9  1  0
  2 10  1  0
 10 11  1  0
 11 12  1  0
 12 13  1  0
 13 14  1  6
 13 15  1  0
 15 16  1  0
 16 17  1  0
 17 18  2  0
 18 19  1  0
 19 20  1  0
 20 21  1  0
 21 22  1  0
 22 23  1  0
 22 24  1  0
 24 25  1  0
 24 26  1  0
 19 27  1  0
 27 28  1  1
 27 29  1  0
 29 30  1  0
 30 31  1  0
 31 32  1  1
  7  5  1  0
 31 10  1  0
 31 13  1  0
 27 15  1  0
 24 18  1  0
  1 33  1  0
  1 34  1  0
  1 35  1  0
  2 36  1  1
  3 37  1  0
  3 38  1  0
  4 39  1  0
  4 40  1  0
  5 41  1  6
  8 42  1  0
  8 43  1  0
  8 44  1  0
  9 45  1  0
  9 46  1  0
  9 47  1  0
 10 48  1  6
 11 49  1  0
 11 50  1  0
 12 51  1  0
 12 52  1  0
 14 53  1  0
 14 54  1  0
 14 55  1  0
 15 56  1  1
 16 57  1  0
 16 58  1  0
 17 59  1  0
 19 60  1  6
 20 61  1  0
 20 62  1  0
 21 63  1  0
 21 64  1  0
 22 65  1  6
 23 66  1  0
 25 67  1  0
 25 68  1  0
 25 69  1  0
 26 70  1  0
 26 71  1  0
 26 72  1  0
 28 73  1  0
 28 74  1  0
 28 75  1  0
 29 76  1  0
 29 77  1  0
 30 78  1  0
 30 79  1  0
 32 80  1  0
 32 81  1  0
 32 82  1  0
M  END
>  <meeko>  (18) 
{"is_sidechain": [false], "intermolecular_energy": 2.731, "internal_energy": -0.839}

$$$$
EPH_relaxed_0001_pdb2pqr_Repair_298_r2_0001_out
     RDKit          3D

 82 86  0  0  0  0  0  0  0  0999 V2000
   -4.8930    6.8570   -0.0480 C   0  0  0  0  0  0  0  0  0  0  0  0
   -4.8460    7.7470   -1.2930 C   0  0  2  0  0  0  0  0  0  0  0  0
   -4.3260    6.9880   -2.5300 C   0  0  0  0  0  0  0  0  0  0  0  0
   -5.4180    6.6530   -3.5510 C   0  0  0  0  0  0  0  0  0  0  0  0
   -6.6060    6.0100   -2.9010 C   0  0  2  0  0  0  0  0  0  0  0  0
   -7.7830    5.9630   -3.7180 O   0  0  0  0  0  0  0  0  0  0  0  0
   -7.8680    6.7660   -2.5300 C   0  0  0  0  0  0  0  0  0  0  0  0
   -8.0050    8.2330   -2.7950 C   0  0  0  0  0  0  0  0  0  0  0  0
   -8.7630    6.1910   -1.4760 C   0  0  0  0  0  0  0  0  0  0  0  0
   -3.9730    8.9680   -1.0260 C   0  0  1  0  0  0  0  0  0  0  0  0
   -4.2930    9.6460    0.3320 C   0  0  0  0  0  0  0  0  0  0  0  0
   -2.9510   10.1840    0.8910 C   0  0  0  0  0  0  0  0  0  0  0  0
   -1.9690   10.0970   -0.3010 C   0  0  1  0  0  0  0  0  0  0  0  0
   -2.2670   11.3660   -1.1600 C   0  0  0  0  0  0  0  0  0  0  0  0
   -0.4520    9.9860    0.0590 C   0  0  2  0  0  0  0  0  0  0  0  0
    0.1270   11.1910    0.8210 C   0  0  0  0  0  0  0  0  0  0  0  0
    0.6980   12.2720   -0.0350 C   0  0  0  0  0  0  0  0  0  0  0  0
    1.0030   12.1570   -1.3410 C   0  0  0  0  0  0  0  0  0  0  0  0
    0.8690   10.8110   -2.0650 C   0  0  1  0  0  0  0  0  0  0  0  0
    2.1440   10.5490   -2.9100 C   0  0  0  0  0  0  0  0  0  0  0  0
    2.4600   11.6960   -3.8640 C   0  0  0  0  0  0  0  0  0  0  0  0
    2.6430   13.0060   -3.1010 C   0  0  2  0  0  0  0  0  0  0  0  0
    3.8200   12.9080   -2.2940 O   0  0  0  0  0  0  0  0  0  0  0  0
    1.4250   13.3690   -2.2070 C   0  0  0  0  0  0  0  0  0  0  0  0
    0.2250   13.7700   -3.1010 C   0  0  0  0  0  0  0  0  0  0  0  0
    1.7960   14.6340   -1.3870 C   0  0  0  0  0  0  0  0  0  0  0  0
    0.4740    9.5700   -1.1540 C   0  0  1  0  0  0  0  0  0  0  0  0
    1.7570    8.9330   -0.5380 C   0  0  0  0  0  0  0  0  0  0  0  0
   -0.1840    8.4600   -2.0560 C   0  0  0  0  0  0  0  0  0  0  0  0
   -1.7050    8.5560   -2.2770 C   0  0  0  0  0  0  0  0  0  0  0  0
   -2.4420    8.7440   -0.9480 C   0  0  2  0  0  0  0  0  0  0  0  0
   -2.1800    7.4720   -0.0710 C   0  0  0  0  0  0  0  0  0  0  0  0
   -4.8598    7.4860    0.8538 H   0  0  0  0  0  0  0  0  0  0  0  0
   -5.8234    6.2702   -0.0517 H   0  0  0  0  0  0  0  0  0  0  0  0
   -4.0296    6.1754   -0.0517 H   0  0  0  0  0  0  0  0  0  0  0  0
   -5.8758    8.0664   -1.5107 H   0  0  0  0  0  0  0  0  0  0  0  0
   -3.5665    7.6106   -3.0255 H   0  0  0  0  0  0  0  0  0  0  0  0
   -3.9165    6.0319   -2.1719 H   0  0  0  0  0  0  0  0  0  0  0  0
   -5.7409    7.5812   -4.0452 H   0  0  0  0  0  0  0  0  0  0  0  0
   -4.9999    5.9433   -4.2800 H   0  0  0  0  0  0  0  0  0  0  0  0
   -5.9554    5.3337   -2.3271 H   0  0  0  0  0  0  0  0  0  0  0  0
   -8.0556    8.7751   -1.8392 H   0  0  0  0  0  0  0  0  0  0  0  0
   -7.1358    8.5844   -3.3703 H   0  0  0  0  0  0  0  0  0  0  0  0
   -8.9243    8.4174   -3.3703 H   0  0  0  0  0  0  0  0  0  0  0  0
   -8.3680    6.4448   -0.4812 H   0  0  0  0  0  0  0  0  0  0  0  0
   -9.7747    6.6086   -1.5863 H   0  0  0  0  0  0  0  0  0  0  0  0
   -8.8037    5.0973   -1.5863 H   0  0  0  0  0  0  0  0  0  0  0  0
   -4.2204    9.5690   -1.9134 H   0  0  0  0  0  0  0  0  0  0  0  0
   -5.0010   10.4747    0.1840 H   0  0  0  0  0  0  0  0  0  0  0  0
   -4.7539    8.9323    1.0307 H   0  0  0  0  0  0  0  0  0  0  0  0
   -3.0605   11.2251    1.2288 H   0  0  0  0  0  0  0  0  0  0  0  0
   -2.6018    9.6100    1.7620 H   0  0  0  0  0  0  0  0  0  0  0  0
   -2.4675   12.2196   -0.4958 H   0  0  0  0  0  0  0  0  0  0  0  0
   -1.3974   11.5916   -1.7947 H   0  0  0  0  0  0  0  0  0  0  0  0
   -3.1461   11.1810   -1.7947 H   0  0  0  0  0  0  0  0  0  0  0  0
   -0.4395    9.1476    0.7710 H   0  0  0  0  0  0  0  0  0  0  0  0
   -0.6792   11.6284    1.4282 H   0  0  0  0  0  0  0  0  0  0  0  0
    0.9649   10.8002    1.4169 H   0  0  0  0  0  0  0  0  0  0  0  0
    0.8855   13.2454    0.4418 H   0  0  0  0  0  0  0  0  0  0  0  0
   -0.0043   10.9067   -2.7270 H   0  0  0  0  0  0  0  0  0  0  0  0
    2.9966   10.4123   -2.2285 H   0  0  0  0  0  0  0  0  0  0  0  0
    1.9627    9.6501   -3.5175 H   0  0  0  0  0  0  0  0  0  0  0  0
    3.3865   11.4651   -4.4101 H   0  0  0  0  0  0  0  0  0  0  0  0
    1.6195   11.8120   -4.5641 H   0  0  0  0  0  0  0  0  0  0  0  0
    2.7370   13.8111   -3.8446 H   0  0  0  0  0  0  0  0  0  0  0  0
    4.5150   12.4950   -2.8350 H   0  0  0  0  0  0  0  0  0  0  0  0
   -0.6266   14.0546   -2.4656 H   0  0  0  0  0  0  0  0  0  0  0  0
    0.5094   14.6219   -3.7361 H   0  0  0  0  0  0  0  0  0  0  0  0
   -0.0599   12.9182   -3.7361 H   0  0  0  0  0  0  0  0  0  0  0  0
    1.7295   14.4071   -0.3127 H   0  0  0  0  0  0  0  0  0  0  0  0
    2.8225   14.9428   -1.6336 H   0  0  0  0  0  0  0  0  0  0  0  0
    1.0989   15.4483   -1.6336 H   0  0  0  0  0  0  0  0  0  0  0  0
    1.6917    8.9654    0.5596 H   0  0  0  0  0  0  0  0  0  0  0  0
    1.8428    7.8877   -0.8695 H   0  0  0  0  0  0  0  0  0  0  0  0
    2.6416    9.4966   -0.8695 H   0  0  0  0  0  0  0  0  0  0  0  0
    0.2991    8.5040   -3.0433 H   0  0  0  0  0  0  0  0  0  0  0  0
   -0.0316    7.5176   -1.5096 H   0  0  0  0  0  0  0  0  0  0  0  0
   -1.9199    9.4133   -2.9319 H   0  0  0  0  0  0  0  0  0  0  0  0
   -2.0514    7.6205   -2.7405 H   0  0  0  0  0  0  0  0  0  0  0  0
   -2.2358    7.7428    0.9937 H   0  0  0  0  0  0  0  0  0  0  0  0
   -2.9398    6.7090   -0.2955 H   0  0  0  0  0  0  0  0  0  0  0  0
   -1.1805    7.0713   -0.2955 H   0  0  0  0  0  0  0  0  0  0  0  0
  1  2  1  0
  2  3  1  0
  3  4  1  0
  4  5  1  0
  5  6  1  0
  6  7  1  0
  7  8  1  0
  7  9  1  0
  2 10  1  0
 10 11  1  0
 11 12  1  0
 12 13  1  0
 13 14  1  6
 13 15  1  0
 15 16  1  0
 16 17  1  0
 17 18  2  0
 18 19  1  0
 19 20  1  0
 20 21  1  0
 21 22  1  0
 22 23  1  0
 22 24  1  0
 24 25  1  0
 24 26  1  0
 19 27  1  0
 27 28  1  1
 27 29  1  0
 29 30  1  0
 30 31  1  0
 31 32  1  1
  7  5  1  0
 31 10  1  0
 31 13  1  0
 27 15  1  0
 24 18  1  0
  1 33  1  0
  1 34  1  0
  1 35  1  0
  2 36  1  6
  3 37  1  0
  3 38  1  0
  4 39  1  0
  4 40  1  0
  5 41  1  1
  8 42  1  0
  8 43  1  0
  8 44  1  0
  9 45  1  0
  9 46  1  0
  9 47  1  0
 10 48  1  6
 11 49  1  0
 11 50  1  0
 12 51  1  0
 12 52  1  0
 14 53  1  0
 14 54  1  0
 14 55  1  0
 15 56  1  1
 16 57  1  0
 16 58  1  0
 17 59  1  0
 19 60  1  6
 20 61  1  0
 20 62  1  0
 21 63  1  0
 21 64  1  0
 22 65  1  6
 23 66  1  0
 25 67  1  0
 25 68  1  0
 25 69  1  0
 26 70  1  0
 26 71  1  0
 26 72  1  0
 28 73  1  0
 28 74  1  0
 28 75  1  0
 29 76  1  0
 29 77  1  0
 30 78  1  0
 30 79  1  0
 32 80  1  0
 32 81  1  0
 32 82  1  0
M  END
>  <meeko>  (19) 
{"is_sidechain": [false], "intermolecular_energy": 2.731, "internal_energy": -0.839}

$$$$
