EPH_relaxed_0001_pdb2pqr_Repair_370_r2_0001_out
     RDKit          3D

 82 86  0  0  0  0  0  0  0  0999 V2000
    4.2770   17.5830   -0.6980 C   0  0  0  0  0  0  0  0  0  0  0  0
    2.9220   18.1580   -0.2750 C   0  0  2  0  0  0  0  0  0  0  0  0
    2.9980   18.8850    1.0820 C   0  0  0  0  0  0  0  0  0  0  0  0
    4.3230   18.6760    1.8190 C   0  0  0  0  0  0  0  0  0  0  0  0
    4.3080   19.3100    3.1780 C   0  0  2  0  0  0  0  0  0  0  0  0
    5.4060   20.1940    3.4380 O   0  0  0  0  0  0  0  0  0  0  0  0
    5.3380   19.0120    4.2510 C   0  0  0  0  0  0  0  0  0  0  0  0
    6.4550   18.0450    4.0140 C   0  0  0  0  0  0  0  0  0  0  0  0
    4.9810   19.2830    5.6800 C   0  0  0  0  0  0  0  0  0  0  0  0
    1.8830   17.0450   -0.2130 C   0  0  1  0  0  0  0  0  0  0  0  0
    0.4400   17.5600   -0.4630 C   0  0  0  0  0  0  0  0  0  0  0  0
   -0.3090   16.4390   -1.2280 C   0  0  0  0  0  0  0  0  0  0  0  0
    0.6090   15.2000   -1.1030 C   0  0  1  0  0  0  0  0  0  0  0  0
    0.3010   14.6140    0.3110 C   0  0  0  0  0  0  0  0  0  0  0  0
    0.4650   14.1170   -2.2210 C   0  0  2  0  0  0  0  0  0  0  0  0
   -0.9160   13.4440   -2.3030 C   0  0  0  0  0  0  0  0  0  0  0  0
   -1.0750   12.2100   -1.4780 C   0  0  0  0  0  0  0  0  0  0  0  0
   -0.0710   11.5040   -0.9270 C   0  0  0  0  0  0  0  0  0  0  0  0
    1.3940   11.8750   -1.1940 C   0  0  1  0  0  0  0  0  0  0  0  0
    2.1980   10.5950   -1.5410 C   0  0  0  0  0  0  0  0  0  0  0  0
    2.0570    9.5100   -0.4780 C   0  0  0  0  0  0  0  0  0  0  0  0
    0.5920    9.1260   -0.2820 C   0  0  2  0  0  0  0  0  0  0  0  0
    0.1190    8.4910   -1.4740 O   0  0  0  0  0  0  0  0  0  0  0  0
   -0.3180   10.3380    0.0620 C   0  0  0  0  0  0  0  0  0  0  0  0
   -0.0010   10.8380    1.4930 C   0  0  0  0  0  0  0  0  0  0  0  0
   -1.7880    9.8370    0.0930 C   0  0  0  0  0  0  0  0  0  0  0  0
    1.6310   13.0470   -2.2410 C   0  0  1  0  0  0  0  0  0  0  0  0
    1.6780   12.4670   -3.6880 C   0  0  0  0  0  0  0  0  0  0  0  0
    3.0420   13.6950   -1.9770 C   0  0  0  0  0  0  0  0  0  0  0  0
    3.0980   14.8410   -0.9480 C   0  0  0  0  0  0  0  0  0  0  0  0
    2.0170   15.8880   -1.2340 C   0  0  2  0  0  0  0  0  0  0  0  0
    2.3140   16.5110   -2.6400 C   0  0  0  0  0  0  0  0  0  0  0  0
    4.8651   17.3334    0.1975 H   0  0  0  0  0  0  0  0  0  0  0  0
    4.1187   16.6745   -1.2976 H   0  0  0  0  0  0  0  0  0  0  0  0
    4.8204   18.3281   -1.2976 H   0  0  0  0  0  0  0  0  0  0  0  0
    2.6265   18.9009   -1.0305 H   0  0  0  0  0  0  0  0  0  0  0  0
    2.8645   19.9627    0.9065 H   0  0  0  0  0  0  0  0  0  0  0  0
    2.2064   18.4619    1.7179 H   0  0  0  0  0  0  0  0  0  0  0  0
    4.5020   17.5965    1.9312 H   0  0  0  0  0  0  0  0  0  0  0  0
    5.1218   19.1489    1.2289 H   0  0  0  0  0  0  0  0  0  0  0  0
    3.2081   19.3119    3.1912 H   0  0  0  0  0  0  0  0  0  0  0  0
    6.8529   17.7005    4.9799 H   0  0  0  0  0  0  0  0  0  0  0  0
    6.0788   17.1828    3.4439 H   0  0  0  0  0  0  0  0  0  0  0  0
    7.2545   18.5408    3.4439 H   0  0  0  0  0  0  0  0  0  0  0  0
    5.6818   18.7510    6.3402 H   0  0  0  0  0  0  0  0  0  0  0  0
    5.0426   20.3639    5.8747 H   0  0  0  0  0  0  0  0  0  0  0  0
    3.9565   18.9331    5.8747 H   0  0  0  0  0  0  0  0  0  0  0  0
    2.0735   16.6726    0.8044 H   0  0  0  0  0  0  0  0  0  0  0  0
   -0.0605   17.7644    0.4950 H   0  0  0  0  0  0  0  0  0  0  0  0
    0.4493   18.4951   -1.0423 H   0  0  0  0  0  0  0  0  0  0  0  0
   -1.2893   16.2438   -0.7688 H   0  0  0  0  0  0  0  0  0  0  0  0
   -0.5049   16.7087   -2.2763 H   0  0  0  0  0  0  0  0  0  0  0  0
    0.6657   15.3078    1.0828 H   0  0  0  0  0  0  0  0  0  0  0  0
   -0.7848   14.4785    0.4232 H   0  0  0  0  0  0  0  0  0  0  0  0
    0.8052   13.6428    0.4232 H   0  0  0  0  0  0  0  0  0  0  0  0
    0.5625   14.7128   -3.1405 H   0  0  0  0  0  0  0  0  0  0  0  0
   -1.6697   14.1736   -1.9717 H   0  0  0  0  0  0  0  0  0  0  0  0
   -1.0383   13.1278   -3.3494 H   0  0  0  0  0  0  0  0  0  0  0  0
   -2.0992   11.8475   -1.3062 H   0  0  0  0  0  0  0  0  0  0  0  0
    1.7733   12.3106   -0.2578 H   0  0  0  0  0  0  0  0  0  0  0  0
    1.8333   10.1986   -2.5001 H   0  0  0  0  0  0  0  0  0  0  0  0
    3.2609   10.8728   -1.5959 H   0  0  0  0  0  0  0  0  0  0  0  0
    2.6232    8.6212   -0.7933 H   0  0  0  0  0  0  0  0  0  0  0  0
    2.4490    9.8976    0.4739 H   0  0  0  0  0  0  0  0  0  0  0  0
    0.5417    8.4427    0.5786 H   0  0  0  0  0  0  0  0  0  0  0  0
   -0.5140    7.8030   -1.2090 H   0  0  0  0  0  0  0  0  0  0  0  0
   -0.4391   10.1470    2.2283 H   0  0  0  0  0  0  0  0  0  0  0  0
    1.0892   10.8802    1.6336 H   0  0  0  0  0  0  0  0  0  0  0  0
   -0.4279   11.8420    1.6336 H   0  0  0  0  0  0  0  0  0  0  0  0
   -2.1154    9.7254    1.1372 H   0  0  0  0  0  0  0  0  0  0  0  0
   -2.4345   10.5655   -0.4181 H   0  0  0  0  0  0  0  0  0  0  0  0
   -1.8551    8.8653   -0.4181 H   0  0  0  0  0  0  0  0  0  0  0  0
    1.7668   11.3716   -3.6412 H   0  0  0  0  0  0  0  0  0  0  0  0
    0.7550   12.7376   -4.2217 H   0  0  0  0  0  0  0  0  0  0  0  0
    2.5454   12.8827   -4.2217 H   0  0  0  0  0  0  0  0  0  0  0  0
    3.7136   12.8982   -1.6248 H   0  0  0  0  0  0  0  0  0  0  0  0
    3.3325   14.1527   -2.9341 H   0  0  0  0  0  0  0  0  0  0  0  0
    2.9414   14.4280    0.0594 H   0  0  0  0  0  0  0  0  0  0  0  0
    4.0829   15.3260   -1.0165 H   0  0  0  0  0  0  0  0  0  0  0  0
    2.7842   17.4972   -2.5122 H   0  0  0  0  0  0  0  0  0  0  0  0
    2.9939   15.8502   -3.1976 H   0  0  0  0  0  0  0  0  0  0  0  0
    1.3725   16.6232   -3.1976 H   0  0  0  0  0  0  0  0  0  0  0  0
  1  2  1  0
  2  3  1  0
  3  4  1  0
  4  5  1  0
  5  6  1  0
  6  7  1  0
  7  8  1  0
  7  9  1  0
  2 10  1  0
 10 11  1  0
 11 12  1  0
 12 13  1  0
 13 14  1  1
 13 15  1  0
 15 16  1  0
 16 17  1  0
 17 18  2  0
 18 19  1  0
 19 20  1  0
 20 21  1  0
 21 22  1  0
 22 23  1  0
 22 24  1  0
 24 25  1  0
 24 26  1  0
 19 27  1  0
 27 28  1  6
 27 29  1  0
 29 30  1  0
 30 31  1  0
 31 32  1  6
  7  5  1  0
 31 10  1  0
 31 13  1  0
 27 15  1  0
 24 18  1  0
  1 33  1  0
  1 34  1  0
  1 35  1  0
  2 36  1  6
  3 37  1  0
  3 38  1  0
  4 39  1  0
  4 40  1  0
  5 41  1  1
  8 42  1  0
  8 43  1  0
  8 44  1  0
  9 45  1  0
  9 46  1  0
  9 47  1  0
 10 48  1  1
 11 49  1  0
 11 50  1  0
 12 51  1  0
 12 52  1  0
 14 53  1  0
 14 54  1  0
 14 55  1  0
 15 56  1  6
 16 57  1  0
 16 58  1  0
 17 59  1  0
 19 60  1  1
 20 61  1  0
 20 62  1  0
 21 63  1  0
 21 64  1  0
 22 65  1  1
 23 66  1  0
 25 67  1  0
 25 68  1  0
 25 69  1  0
 26 70  1  0
 26 71  1  0
 26 72  1  0
 28 73  1  0
 28 74  1  0
 28 75  1  0
 29 76  1  0
 29 77  1  0
 30 78  1  0
 30 79  1  0
 32 80  1  0
 32 81  1  0
 32 82  1  0
M  END
>  <meeko>  (1) 
{"is_sidechain": [false], "intermolecular_energy": 2.731, "internal_energy": -0.839}

$$$$
EPH_relaxed_0001_pdb2pqr_Repair_370_r2_0001_out
     RDKit          3D

 82 86  0  0  0  0  0  0  0  0999 V2000
    1.9950   18.2920   -2.5490 C   0  0  0  0  0  0  0  0  0  0  0  0
    0.4820   18.0730   -2.6290 C   0  0  2  0  0  0  0  0  0  0  0  0
   -0.2380   18.5180   -1.3400 C   0  0  0  0  0  0  0  0  0  0  0  0
    0.4550   18.0530   -0.0560 C   0  0  0  0  0  0  0  0  0  0  0  0
    1.0420   19.2040    0.7040 C   0  0  2  0  0  0  0  0  0  0  0  0
    1.9420   20.0240   -0.0520 O   0  0  0  0  0  0  0  0  0  0  0  0
    2.5150   19.3100    1.0550 C   0  0  0  0  0  0  0  0  0  0  0  0
    3.4900   18.2470    0.6560 C   0  0  0  0  0  0  0  0  0  0  0  0
    2.9160   20.1900    2.1970 C   0  0  0  0  0  0  0  0  0  0  0  0
    0.1830   16.6060   -2.9120 C   0  0  1  0  0  0  0  0  0  0  0  0
    0.2650   16.2610   -4.4230 C   0  0  0  0  0  0  0  0  0  0  0  0
    0.8250   14.8180   -4.5230 C   0  0  0  0  0  0  0  0  0  0  0  0
    0.7330   14.2640   -3.0820 C   0  0  1  0  0  0  0  0  0  0  0  0
   -0.7520   13.8120   -2.9200 C   0  0  0  0  0  0  0  0  0  0  0  0
    1.7300   13.1150   -2.7190 C   0  0  2  0  0  0  0  0  0  0  0  0
    1.5610   11.8220   -3.5360 C   0  0  0  0  0  0  0  0  0  0  0  0
    0.6260   10.8160   -2.9510 C   0  0  0  0  0  0  0  0  0  0  0  0
    0.1690   10.8160   -1.6850 C   0  0  0  0  0  0  0  0  0  0  0  0
    0.6710   11.8470   -0.6660 C   0  0  1  0  0  0  0  0  0  0  0  0
    1.0250   11.1320    0.6640 C   0  0  0  0  0  0  0  0  0  0  0  0
   -0.1300   10.2940    1.2030 C   0  0  0  0  0  0  0  0  0  0  0  0
   -0.5620    9.2420    0.1850 C   0  0  2  0  0  0  0  0  0  0  0  0
    0.4960    8.2910    0.0270 O   0  0  0  0  0  0  0  0  0  0  0  0
   -0.9350    9.8440   -1.1980 C   0  0  0  0  0  0  0  0  0  0  0  0
   -2.2610   10.6350   -1.0810 C   0  0  0  0  0  0  0  0  0  0  0  0
   -1.2150    8.6680   -2.1720 C   0  0  0  0  0  0  0  0  0  0  0  0
    1.8310   12.8110   -1.1690 C   0  0  1  0  0  0  0  0  0  0  0  0
    3.2180   12.1380   -0.9370 C   0  0  0  0  0  0  0  0  0  0  0  0
    1.8220   14.1230   -0.3000 C   0  0  0  0  0  0  0  0  0  0  0  0
    0.9070   15.2670   -0.7770 C   0  0  0  0  0  0  0  0  0  0  0  0
    1.1180   15.5520   -2.2670 C   0  0  2  0  0  0  0  0  0  0  0  0
    2.5980   16.0310   -2.4580 C   0  0  0  0  0  0  0  0  0  0  0  0
    2.3037   18.3367   -1.4942 H   0  0  0  0  0  0  0  0  0  0  0  0
    2.5129   17.4595   -3.0477 H   0  0  0  0  0  0  0  0  0  0  0  0
    2.2555   19.2372   -3.0477 H   0  0  0  0  0  0  0  0  0  0  0  0
    0.1010   18.6954   -3.4521 H   0  0  0  0  0  0  0  0  0  0  0  0
   -0.2856   19.6169   -1.3305 H   0  0  0  0  0  0  0  0  0  0  0  0
   -1.2356   18.0548   -1.3527 H   0  0  0  0  0  0  0  0  0  0  0  0
   -0.2815   17.5427    0.5821 H   0  0  0  0  0  0  0  0  0  0  0  0
    1.2731   17.3725   -0.3345 H   0  0  0  0  0  0  0  0  0  0  0  0
    0.1297   19.2991    1.3112 H   0  0  0  0  0  0  0  0  0  0  0  0
    3.9158   17.7828    1.5578 H   0  0  0  0  0  0  0  0  0  0  0  0
    2.9735   17.4813    0.0585 H   0  0  0  0  0  0  0  0  0  0  0  0
    4.2973   18.6955    0.0585 H   0  0  0  0  0  0  0  0  0  0  0  0
    2.6861   19.6854    3.1470 H   0  0  0  0  0  0  0  0  0  0  0  0
    3.9956   20.3933    2.1417 H   0  0  0  0  0  0  0  0  0  0  0  0
    2.3611   21.1381    2.1417 H   0  0  0  0  0  0  0  0  0  0  0  0
   -0.8233   16.5348   -2.4734 H   0  0  0  0  0  0  0  0  0  0  0  0
   -0.7353   16.3115   -4.8779 H   0  0  0  0  0  0  0  0  0  0  0  0
    0.9117   16.9734   -4.9562 H   0  0  0  0  0  0  0  0  0  0  0  0
    0.2175   14.2124   -5.2115 H   0  0  0  0  0  0  0  0  0  0  0  0
    1.8528   14.7952   -4.9142 H   0  0  0  0  0  0  0  0  0  0  0  0
   -0.9979   13.7372   -1.8505 H   0  0  0  0  0  0  0  0  0  0  0  0
   -1.4139   14.5494   -3.3977 H   0  0  0  0  0  0  0  0  0  0  0  0
   -0.8908   12.8309   -3.3977 H   0  0  0  0  0  0  0  0  0  0  0  0
    2.6986   13.5368   -3.0255 H   0  0  0  0  0  0  0  0  0  0  0  0
    1.1850   12.0963   -4.5327 H   0  0  0  0  0  0  0  0  0  0  0  0
    2.5508   11.3425   -3.5553 H   0  0  0  0  0  0  0  0  0  0  0  0
    0.2813   10.0060   -3.6106 H   0  0  0  0  0  0  0  0  0  0  0  0
   -0.1639   12.5444   -0.5031 H   0  0  0  0  0  0  0  0  0  0  0  0
    1.8883   10.4727    0.4909 H   0  0  0  0  0  0  0  0  0  0  0  0
    1.2513   11.9078    1.4102 H   0  0  0  0  0  0  0  0  0  0  0  0
    0.1909    9.7905    2.1269 H   0  0  0  0  0  0  0  0  0  0  0  0
   -0.9827   10.9593    1.4039 H   0  0  0  0  0  0  0  0  0  0  0  0
   -1.4725    8.7621    0.5732 H   0  0  0  0  0  0  0  0  0  0  0  0
    0.6730    8.2040   -0.9250 H   0  0  0  0  0  0  0  0  0  0  0  0
   -2.5077   10.7822   -0.0192 H   0  0  0  0  0  0  0  0  0  0  0  0
   -2.1485   11.6137   -1.5704 H   0  0  0  0  0  0  0  0  0  0  0  0
   -3.0688   10.0711   -1.5704 H   0  0  0  0  0  0  0  0  0  0  0  0
   -1.4318    7.7573   -1.5945 H   0  0  0  0  0  0  0  0  0  0  0  0
   -2.0795    8.9148   -2.8058 H   0  0  0  0  0  0  0  0  0  0  0  0
   -0.3321    8.4987   -2.8058 H   0  0  0  0  0  0  0  0  0  0  0  0
    3.4054   12.0471    0.1431 H   0  0  0  0  0  0  0  0  0  0  0  0
    3.2216   11.1380   -1.3952 H   0  0  0  0  0  0  0  0  0  0  0  0
    4.0057   12.7541   -1.3952 H   0  0  0  0  0  0  0  0  0  0  0  0
    1.5061   13.8464    0.7167 H   0  0  0  0  0  0  0  0  0  0  0  0
    2.8441   14.5230   -0.3729 H   0  0  0  0  0  0  0  0  0  0  0  0
   -0.1423   14.9821   -0.6101 H   0  0  0  0  0  0  0  0  0  0  0  0
    1.1544   16.1750   -0.2075 H   0  0  0  0  0  0  0  0  0  0  0  0
    3.0645   16.1820   -1.4733 H   0  0  0  0  0  0  0  0  0  0  0  0
    3.1607   15.2691   -3.0174 H   0  0  0  0  0  0  0  0  0  0  0  0
    2.6076   16.9781   -3.0174 H   0  0  0  0  0  0  0  0  0  0  0  0
  1  2  1  0
  2  3  1  0
  3  4  1  0
  4  5  1  0
  5  6  1  0
  6  7  1  0
  7  8  1  0
  7  9  1  0
  2 10  1  0
 10 11  1  0
 11 12  1  0
 12 13  1  0
 13 14  1  1
 13 15  1  0
 15 16  1  0
 16 17  1  0
 17 18  2  0
 18 19  1  0
 19 20  1  0
 20 21  1  0
 21 22  1  0
 22 23  1  0
 22 24  1  0
 24 25  1  0
 24 26  1  0
 19 27  1  0
 27 28  1  6
 27 29  1  0
 29 30  1  0
 30 31  1  0
 31 32  1  1
  7  5  1  0
 31 10  1  0
 31 13  1  0
 27 15  1  0
 24 18  1  0
  1 33  1  0
  1 34  1  0
  1 35  1  0
  2 36  1  6
  3 37  1  0
  3 38  1  0
  4 39  1  0
  4 40  1  0
  5 41  1  1
  8 42  1  0
  8 43  1  0
  8 44  1  0
  9 45  1  0
  9 46  1  0
  9 47  1  0
 10 48  1  1
 11 49  1  0
 11 50  1  0
 12 51  1  0
 12 52  1  0
 14 53  1  0
 14 54  1  0
 14 55  1  0
 15 56  1  6
 16 57  1  0
 16 58  1  0
 17 59  1  0
 19 60  1  1
 20 61  1  0
 20 62  1  0
 21 63  1  0
 21 64  1  0
 22 65  1  1
 23 66  1  0
 25 67  1  0
 25 68  1  0
 25 69  1  0
 26 70  1  0
 26 71  1  0
 26 72  1  0
 28 73  1  0
 28 74  1  0
 28 75  1  0
 29 76  1  0
 29 77  1  0
 30 78  1  0
 30 79  1  0
 32 80  1  0
 32 81  1  0
 32 82  1  0
M  END
>  <meeko>  (2) 
{"is_sidechain": [false], "intermolecular_energy": 2.731, "internal_energy": -0.839}

$$$$
EPH_relaxed_0001_pdb2pqr_Repair_370_r2_0001_out
     RDKit          3D

 82 86  0  0  0  0  0  0  0  0999 V2000
    2.2820   18.2430   -2.7040 C   0  0  0  0  0  0  0  0  0  0  0  0
    1.0160   17.7890   -1.9720 C   0  0  2  0  0  0  0  0  0  0  0  0
    1.1810   17.8420   -0.4400 C   0  0  0  0  0  0  0  0  0  0  0  0
    0.8170   19.1970    0.1720 C   0  0  0  0  0  0  0  0  0  0  0  0
   -0.6340   19.2680    0.5400 C   0  0  2  0  0  0  0  0  0  0  0  0
   -1.4660   18.3040   -0.1180 O   0  0  0  0  0  0  0  0  0  0  0  0
   -1.7240   19.6820   -0.4300 C   0  0  0  0  0  0  0  0  0  0  0  0
   -1.4090   20.0550   -1.8450 C   0  0  0  0  0  0  0  0  0  0  0  0
   -3.0180   20.1930    0.1230 C   0  0  0  0  0  0  0  0  0  0  0  0
    0.6420   16.3770   -2.4070 C   0  0  1  0  0  0  0  0  0  0  0  0
    0.8240   16.1540   -3.9320 C   0  0  0  0  0  0  0  0  0  0  0  0
    1.2890   14.6870   -4.1180 C   0  0  0  0  0  0  0  0  0  0  0  0
    1.0410   14.0230   -2.7430 C   0  0  1  0  0  0  0  0  0  0  0  0
   -0.4800   13.6720   -2.7350 C   0  0  0  0  0  0  0  0  0  0  0  0
    1.9230   12.7760   -2.4090 C   0  0  2  0  0  0  0  0  0  0  0  0
    1.7330   11.5720   -3.3490 C   0  0  0  0  0  0  0  0  0  0  0  0
    0.6860   10.5940   -2.9290 C   0  0  0  0  0  0  0  0  0  0  0  0
    0.1280   10.5230   -1.7060 C   0  0  0  0  0  0  0  0  0  0  0  0
    0.6150   11.4250   -0.5640 C   0  0  1  0  0  0  0  0  0  0  0  0
    0.8080   10.5760    0.7190 C   0  0  0  0  0  0  0  0  0  0  0  0
   -0.4420    9.7850    1.0930 C   0  0  0  0  0  0  0  0  0  0  0  0
   -0.8600    8.8580   -0.0450 C   0  0  2  0  0  0  0  0  0  0  0  0
    0.1390    7.8470   -0.2070 O   0  0  0  0  0  0  0  0  0  0  0  0
   -1.0760    9.6000   -1.3940 C   0  0  0  0  0  0  0  0  0  0  0  0
   -2.3500   10.4760   -1.3080 C   0  0  0  0  0  0  0  0  0  0  0  0
   -1.3550    8.5340   -2.4870 C   0  0  0  0  0  0  0  0  0  0  0  0
    1.8750   12.3360   -0.8900 C   0  0  1  0  0  0  0  0  0  0  0  0
    3.1900   11.5440   -0.6140 C   0  0  0  0  0  0  0  0  0  0  0  0
    1.8860   13.5680    0.0900 C   0  0  0  0  0  0  0  0  0  0  0  0
    1.0940   14.8140   -0.3510 C   0  0  0  0  0  0  0  0  0  0  0  0
    1.4460   15.2060   -1.7900 C   0  0  2  0  0  0  0  0  0  0  0  0
    2.9650   15.5860   -1.8240 C   0  0  0  0  0  0  0  0  0  0  0  0
    3.0518   18.5191   -1.9684 H   0  0  0  0  0  0  0  0  0  0  0  0
    2.6550   17.4226   -3.3347 H   0  0  0  0  0  0  0  0  0  0  0  0
    2.0486   19.1135   -3.3347 H   0  0  0  0  0  0  0  0  0  0  0  0
    0.2095   18.4867   -2.2417 H   0  0  0  0  0  0  0  0  0  0  0  0
    0.5319   17.0740    0.0059 H   0  0  0  0  0  0  0  0  0  0  0  0
    2.2457   17.6681   -0.2253 H   0  0  0  0  0  0  0  0  0  0  0  0
    1.4222   19.3533    1.0771 H   0  0  0  0  0  0  0  0  0  0  0  0
    1.0189   19.9767   -0.5772 H   0  0  0  0  0  0  0  0  0  0  0  0
   -0.3838   19.6060    1.5564 H   0  0  0  0  0  0  0  0  0  0  0  0
   -0.6993   20.8954   -1.8534 H   0  0  0  0  0  0  0  0  0  0  0  0
   -0.9619   19.1924   -2.3607 H   0  0  0  0  0  0  0  0  0  0  0  0
   -2.3343   20.3514   -2.3607 H   0  0  0  0  0  0  0  0  0  0  0  0
   -2.9786   20.1774    1.2222 H   0  0  0  0  0  0  0  0  0  0  0  0
   -3.1832   21.2239   -0.2234 H   0  0  0  0  0  0  0  0  0  0  0  0
   -3.8430   19.5531   -0.2234 H   0  0  0  0  0  0  0  0  0  0  0  0
   -0.3994   16.3456   -2.0541 H   0  0  0  0  0  0  0  0  0  0  0  0
   -0.1296   16.3182   -4.4551 H   0  0  0  0  0  0  0  0  0  0  0  0
    1.5603   16.8571   -4.3485 H   0  0  0  0  0  0  0  0  0  0  0  0
    0.6995   14.1890   -4.9019 H   0  0  0  0  0  0  0  0  0  0  0  0
    2.3414   14.6190   -4.4309 H   0  0  0  0  0  0  0  0  0  0  0  0
   -0.8321   13.5907   -1.6960 H   0  0  0  0  0  0  0  0  0  0  0  0
   -1.0418   14.4641   -3.2517 H   0  0  0  0  0  0  0  0  0  0  0  0
   -0.6379   12.7138   -3.2517 H   0  0  0  0  0  0  0  0  0  0  0  0
    2.9401   13.1482   -2.6013 H   0  0  0  0  0  0  0  0  0  0  0  0
    1.4599   11.9564   -4.3428 H   0  0  0  0  0  0  0  0  0  0  0  0
    2.6857   11.0223   -3.3358 H   0  0  0  0  0  0  0  0  0  0  0  0
    0.3415    9.8704   -3.6825 H   0  0  0  0  0  0  0  0  0  0  0  0
   -0.1794   12.1686   -0.4026 H   0  0  0  0  0  0  0  0  0  0  0  0
    1.6351    9.8700    0.5531 H   0  0  0  0  0  0  0  0  0  0  0  0
    1.0245   11.2676    1.5466 H   0  0  0  0  0  0  0  0  0  0  0  0
   -0.2326    9.1830    1.9895 H   0  0  0  0  0  0  0  0  0  0  0  0
   -1.2608   10.4930    1.2886 H   0  0  0  0  0  0  0  0  0  0  0  0
   -1.8302    8.4180    0.2289 H   0  0  0  0  0  0  0  0  0  0  0  0
    0.1780    7.6200   -1.1520 H   0  0  0  0  0  0  0  0  0  0  0  0
   -2.6042   10.6508   -0.2521 H   0  0  0  0  0  0  0  0  0  0  0  0
   -2.1665   11.4398   -1.8054 H   0  0  0  0  0  0  0  0  0  0  0  0
   -3.1843    9.9597   -1.8054 H   0  0  0  0  0  0  0  0  0  0  0  0
   -1.6058    7.5756   -2.0089 H   0  0  0  0  0  0  0  0  0  0  0  0
   -2.1973    8.8628   -3.1134 H   0  0  0  0  0  0  0  0  0  0  0  0
   -0.4596    8.4080   -3.1134 H   0  0  0  0  0  0  0  0  0  0  0  0
    3.3419   11.4525    0.4716 H   0  0  0  0  0  0  0  0  0  0  0  0
    3.1144   10.5411   -1.0595 H   0  0  0  0  0  0  0  0  0  0  0  0
    4.0411   12.0798   -1.0595 H   0  0  0  0  0  0  0  0  0  0  0  0
    1.4698   13.2322    1.0513 H   0  0  0  0  0  0  0  0  0  0  0  0
    2.9358   13.8939    0.1307 H   0  0  0  0  0  0  0  0  0  0  0  0
    0.0175   14.5963   -0.2903 H   0  0  0  0  0  0  0  0  0  0  0  0
    1.3556   15.6499    0.3145 H   0  0  0  0  0  0  0  0  0  0  0  0
    3.3425   15.6804   -0.7951 H   0  0  0  0  0  0  0  0  0  0  0  0
    3.5277   14.8009   -2.3504 H   0  0  0  0  0  0  0  0  0  0  0  0
    3.0917   16.5435   -2.3504 H   0  0  0  0  0  0  0  0  0  0  0  0
  1  2  1  0
  2  3  1  0
  3  4  1  0
  4  5  1  0
  5  6  1  0
  6  7  1  0
  7  8  1  0
  7  9  1  0
  2 10  1  0
 10 11  1  0
 11 12  1  0
 12 13  1  0
 13 14  1  6
 13 15  1  0
 15 16  1  0
 16 17  1  0
 17 18  2  0
 18 19  1  0
 19 20  1  0
 20 21  1  0
 21 22  1  0
 22 23  1  0
 22 24  1  0
 24 25  1  0
 24 26  1  0
 19 27  1  0
 27 28  1  1
 27 29  1  0
 29 30  1  0
 30 31  1  0
 31 32  1  1
  7  5  1  0
 31 10  1  0
 31 13  1  0
 27 15  1  0
 24 18  1  0
  1 33  1  0
  1 34  1  0
  1 35  1  0
  2 36  1  1
  3 37  1  0
  3 38  1  0
  4 39  1  0
  4 40  1  0
  5 41  1  1
  8 42  1  0
  8 43  1  0
  8 44  1  0
  9 45  1  0
  9 46  1  0
  9 47  1  0
 10 48  1  6
 11 49  1  0
 11 50  1  0
 12 51  1  0
 12 52  1  0
 14 53  1  0
 14 54  1  0
 14 55  1  0
 15 56  1  6
 16 57  1  0
 16 58  1  0
 17 59  1  0
 19 60  1  1
 20 61  1  0
 20 62  1  0
 21 63  1  0
 21 64  1  0
 22 65  1  1
 23 66  1  0
 25 67  1  0
 25 68  1  0
 25 69  1  0
 26 70  1  0
 26 71  1  0
 26 72  1  0
 28 73  1  0
 28 74  1  0
 28 75  1  0
 29 76  1  0
 29 77  1  0
 30 78  1  0
 30 79  1  0
 32 80  1  0
 32 81  1  0
 32 82  1  0
M  END
>  <meeko>  (3) 
{"is_sidechain": [false], "intermolecular_energy": 2.731, "internal_energy": -0.839}

$$$$
EPH_relaxed_0001_pdb2pqr_Repair_370_r2_0001_out
     RDKit          3D

 82 86  0  0  0  0  0  0  0  0999 V2000
    2.3790   19.7550   -0.9080 C   0  0  0  0  0  0  0  0  0  0  0  0
    2.1540   18.8530    0.3080 C   0  0  2  0  0  0  0  0  0  0  0  0
    3.4810   18.3700    0.9270 C   0  0  0  0  0  0  0  0  0  0  0  0
    3.7680   18.9640    2.3090 C   0  0  0  0  0  0  0  0  0  0  0  0
    5.2360   18.9790    2.6120 C   0  0  2  0  0  0  0  0  0  0  0  0
    5.6890   17.8940    3.4320 O   0  0  0  0  0  0  0  0  0  0  0  0
    5.8010   19.2080    4.0010 C   0  0  0  0  0  0  0  0  0  0  0  0
    4.9060   19.4400    5.1790 C   0  0  0  0  0  0  0  0  0  0  0  0
    7.2120   19.6910    4.1290 C   0  0  0  0  0  0  0  0  0  0  0  0
    1.2970   17.6550   -0.0850 C   0  0  1  0  0  0  0  0  0  0  0  0
    0.1360   18.0390   -1.0410 C   0  0  0  0  0  0  0  0  0  0  0  0
   -0.0590   16.8450   -2.0100 C   0  0  0  0  0  0  0  0  0  0  0  0
    0.7570   15.6930   -1.3790 C   0  0  1  0  0  0  0  0  0  0  0  0
   -0.1700   15.1060   -0.2690 C   0  0  0  0  0  0  0  0  0  0  0  0
    1.2580   14.5830   -2.3590 C   0  0  2  0  0  0  0  0  0  0  0  0
    0.1470   13.7920   -3.0720 C   0  0  0  0  0  0  0  0  0  0  0  0
   -0.3170   12.5630   -2.3620 C   0  0  0  0  0  0  0  0  0  0  0  0
    0.3280   11.9550   -1.3490 C   0  0  0  0  0  0  0  0  0  0  0  0
    1.7040   12.4470   -0.8830 C   0  0  1  0  0  0  0  0  0  0  0  0
    2.6580   11.2360   -0.7150 C   0  0  0  0  0  0  0  0  0  0  0  0
    2.0820   10.1600    0.2010 C   0  0  0  0  0  0  0  0  0  0  0  0
    0.7420    9.6540   -0.3270 C   0  0  2  0  0  0  0  0  0  0  0  0
    0.9640    8.9610   -1.5590 O   0  0  0  0  0  0  0  0  0  0  0  0
   -0.2980   10.7880   -0.5450 C   0  0  0  0  0  0  0  0  0  0  0  0
   -0.7640   11.3380    0.8250 C   0  0  0  0  0  0  0  0  0  0  0  0
   -1.5530   10.1630   -1.2120 C   0  0  0  0  0  0  0  0  0  0  0  0
    2.3500   13.6180   -1.7430 C   0  0  1  0  0  0  0  0  0  0  0  0
    3.1450   13.0200   -2.9430 C   0  0  0  0  0  0  0  0  0  0  0  0
    3.3980   14.3890   -0.8560 C   0  0  0  0  0  0  0  0  0  0  0  0
    2.8620   15.5530   -0.0000 C   0  0  0  0  0  0  0  0  0  0  0  0
    1.9960   16.4970   -0.8400 C   0  0  2  0  0  0  0  0  0  0  0  0
    2.9070   17.1200   -1.9520 C   0  0  0  0  0  0  0  0  0  0  0  0
    2.6323   20.7705   -0.5694 H   0  0  0  0  0  0  0  0  0  0  0  0
    3.2046   19.3540   -1.5142 H   0  0  0  0  0  0  0  0  0  0  0  0
    1.4618   19.7887   -1.5142 H   0  0  0  0  0  0  0  0  0  0  0  0
    1.6322   19.4502    1.0703 H   0  0  0  0  0  0  0  0  0  0  0  0
    3.4419   17.2747    1.0211 H   0  0  0  0  0  0  0  0  0  0  0  0
    4.2881   18.7054    0.2591 H   0  0  0  0  0  0  0  0  0  0  0  0
    3.3871   19.9955    2.3398 H   0  0  0  0  0  0  0  0  0  0  0  0
    3.2688   18.3368    3.0622 H   0  0  0  0  0  0  0  0  0  0  0  0
    5.4559   19.4447    1.6400 H   0  0  0  0  0  0  0  0  0  0  0  0
    5.4766   19.2921    6.1077 H   0  0  0  0  0  0  0  0  0  0  0  0
    4.5174   20.4686    5.1473 H   0  0  0  0  0  0  0  0  0  0  0  0
    4.0666   18.7298    5.1473 H   0  0  0  0  0  0  0  0  0  0  0  0
    7.4737   19.7806    5.1936 H   0  0  0  0  0  0  0  0  0  0  0  0
    7.8905   18.9739    3.6437 H   0  0  0  0  0  0  0  0  0  0  0  0
    7.3087   20.6734    3.6437 H   0  0  0  0  0  0  0  0  0  0  0  0
    0.9834   17.3175    0.9139 H   0  0  0  0  0  0  0  0  0  0  0  0
   -0.7854   18.2149   -0.4664 H   0  0  0  0  0  0  0  0  0  0  0  0
    0.3678   18.9618   -1.5930 H   0  0  0  0  0  0  0  0  0  0  0  0
   -1.1225   16.5733   -2.0823 H   0  0  0  0  0  0  0  0  0  0  0  0
    0.2721   17.0793   -3.0325 H   0  0  0  0  0  0  0  0  0  0  0  0
    0.2354   15.3627    0.7208 H   0  0  0  0  0  0  0  0  0  0  0  0
   -1.1798   15.5296   -0.3728 H   0  0  0  0  0  0  0  0  0  0  0  0
   -0.2189   14.0120   -0.3728 H   0  0  0  0  0  0  0  0  0  0  0  0
    1.7577   15.1701   -3.1436 H   0  0  0  0  0  0  0  0  0  0  0  0
   -0.7184   14.4593   -3.1974 H   0  0  0  0  0  0  0  0  0  0  0  0
    0.5801   13.4488   -4.0231 H   0  0  0  0  0  0  0  0  0  0  0  0
   -1.2658   12.1170   -2.6948 H   0  0  0  0  0  0  0  0  0  0  0  0
    1.5394   12.9302    0.0914 H   0  0  0  0  0  0  0  0  0  0  0  0
    2.8441   10.7938   -1.7048 H   0  0  0  0  0  0  0  0  0  0  0  0
    3.5869   11.6040   -0.2548 H   0  0  0  0  0  0  0  0  0  0  0  0
    2.7882    9.3184    0.2561 H   0  0  0  0  0  0  0  0  0  0  0  0
    1.9243   10.5958    1.1986 H   0  0  0  0  0  0  0  0  0  0  0  0
    0.3190    8.9831    0.4352 H   0  0  0  0  0  0  0  0  0  0  0  0
    0.2790    8.2770   -1.6400 H   0  0  0  0  0  0  0  0  0  0  0  0
   -0.2811   10.7680    1.6324 H   0  0  0  0  0  0  0  0  0  0  0  0
   -0.4858   12.3990    0.9080 H   0  0  0  0  0  0  0  0  0  0  0  0
   -1.8563   11.2378    0.9080 H   0  0  0  0  0  0  0  0  0  0  0  0
   -2.2482    9.8168   -0.4330 H   0  0  0  0  0  0  0  0  0  0  0  0
   -2.0504   10.9187   -1.8378 H   0  0  0  0  0  0  0  0  0  0  0  0
   -1.2496    9.3107   -1.8378 H   0  0  0  0  0  0  0  0  0  0  0  0
    3.9701   12.3994   -2.5634 H   0  0  0  0  0  0  0  0  0  0  0  0
    2.4731   12.4015   -3.5562 H   0  0  0  0  0  0  0  0  0  0  0  0
    3.5529   13.8371   -3.5562 H   0  0  0  0  0  0  0  0  0  0  0  0
    3.8578   13.6587   -0.1739 H   0  0  0  0  0  0  0  0  0  0  0  0
    4.0930   14.8539   -1.5707 H   0  0  0  0  0  0  0  0  0  0  0  0
    2.2564   15.1455    0.8229 H   0  0  0  0  0  0  0  0  0  0  0  0
    3.7172   16.1203    0.3960 H   0  0  0  0  0  0  0  0  0  0  0  0
    3.7278   17.6813   -1.4817 H   0  0  0  0  0  0  0  0  0  0  0  0
    3.3234   16.3167   -2.5775 H   0  0  0  0  0  0  0  0  0  0  0  0
    2.3094   17.7994   -2.5775 H   0  0  0  0  0  0  0  0  0  0  0  0
  1  2  1  0
  2  3  1  0
  3  4  1  0
  4  5  1  0
  5  6  1  0
  6  7  1  0
  7  8  1  0
  7  9  1  0
  2 10  1  0
 10 11  1  0
 11 12  1  0
 12 13  1  0
 13 14  1  1
 13 15  1  0
 15 16  1  0
 16 17  1  0
 17 18  2  0
 18 19  1  0
 19 20  1  0
 20 21  1  0
 21 22  1  0
 22 23  1  0
 22 24  1  0
 24 25  1  0
 24 26  1  0
 19 27  1  0
 27 28  1  6
 27 29  1  0
 29 30  1  0
 30 31  1  0
 31 32  1  6
  7  5  1  0
 31 10  1  0
 31 13  1  0
 27 15  1  0
 24 18  1  0
  1 33  1  0
  1 34  1  0
  1 35  1  0
  2 36  1  1
  3 37  1  0
  3 38  1  0
  4 39  1  0
  4 40  1  0
  5 41  1  6
  8 42  1  0
  8 43  1  0
  8 44  1  0
  9 45  1  0
  9 46  1  0
  9 47  1  0
 10 48  1  1
 11 49  1  0
 11 50  1  0
 12 51  1  0
 12 52  1  0
 14 53  1  0
 14 54  1  0
 14 55  1  0
 15 56  1  6
 16 57  1  0
 16 58  1  0
 17 59  1  0
 19 60  1  1
 20 61  1  0
 20 62  1  0
 21 63  1  0
 21 64  1  0
 22 65  1  1
 23 66  1  0
 25 67  1  0
 25 68  1  0
 25 69  1  0
 26 70  1  0
 26 71  1  0
 26 72  1  0
 28 73  1  0
 28 74  1  0
 28 75  1  0
 29 76  1  0
 29 77  1  0
 30 78  1  0
 30 79  1  0
 32 80  1  0
 32 81  1  0
 32 82  1  0
M  END
>  <meeko>  (4) 
{"is_sidechain": [false], "intermolecular_energy": 2.731, "internal_energy": -0.839}

$$$$
EPH_relaxed_0001_pdb2pqr_Repair_370_r2_0001_out
     RDKit          3D

 82 86  0  0  0  0  0  0  0  0999 V2000
    3.6940   18.0390    0.8360 C   0  0  0  0  0  0  0  0  0  0  0  0
    2.7120   18.4360   -0.2700 C   0  0  2  0  0  0  0  0  0  0  0  0
    1.9650   19.7440    0.0600 C   0  0  0  0  0  0  0  0  0  0  0  0
    0.8090   19.5610    1.0460 C   0  0  0  0  0  0  0  0  0  0  0  0
   -0.4570   20.1830    0.5380 C   0  0  2  0  0  0  0  0  0  0  0  0
   -1.5380   20.1940    1.4790 O   0  0  0  0  0  0  0  0  0  0  0  0
   -1.7350   19.4010    0.2970 C   0  0  0  0  0  0  0  0  0  0  0  0
   -1.8100   17.9290    0.5580 C   0  0  0  0  0  0  0  0  0  0  0  0
   -2.7520   19.9650   -0.6450 C   0  0  0  0  0  0  0  0  0  0  0  0
    1.7120   17.3100   -0.5050 C   0  0  1  0  0  0  0  0  0  0  0  0
    0.4970   17.7590   -1.3600 C   0  0  0  0  0  0  0  0  0  0  0  0
    0.0930   16.5450   -2.2350 C   0  0  0  0  0  0  0  0  0  0  0  0
    0.8610   15.3500   -1.6230 C   0  0  1  0  0  0  0  0  0  0  0  0
    0.0060   14.9100   -0.3930 C   0  0  0  0  0  0  0  0  0  0  0  0
    1.1520   14.1510   -2.5830 C   0  0  2  0  0  0  0  0  0  0  0  0
   -0.0960   13.4390   -3.1330 C   0  0  0  0  0  0  0  0  0  0  0  0
   -0.5930   12.2960   -2.3110 C   0  0  0  0  0  0  0  0  0  0  0  0
    0.0960   11.6770   -1.3340 C   0  0  0  0  0  0  0  0  0  0  0  0
    1.5530   12.0550   -1.0370 C   0  0  1  0  0  0  0  0  0  0  0  0
    2.4040   10.7660   -0.8960 C   0  0  0  0  0  0  0  0  0  0  0  0
    1.8310    9.7970    0.1330 C   0  0  0  0  0  0  0  0  0  0  0  0
    0.4020    9.3990   -0.2280 C   0  0  2  0  0  0  0  0  0  0  0  0
    0.4290    8.6290   -1.4340 O   0  0  0  0  0  0  0  0  0  0  0  0
   -0.5460   10.6170   -0.4060 C   0  0  0  0  0  0  0  0  0  0  0  0
   -0.8130   11.2750    0.9710 C   0  0  0  0  0  0  0  0  0  0  0  0
   -1.9170   10.0860   -0.9060 C   0  0  0  0  0  0  0  0  0  0  0  0
    2.2090   13.1150   -2.0240 C   0  0  1  0  0  0  0  0  0  0  0  0
    2.8150   12.3850   -3.2610 C   0  0  0  0  0  0  0  0  0  0  0  0
    3.4110   13.8220   -1.2930 C   0  0  0  0  0  0  0  0  0  0  0  0
    3.0770   15.0720   -0.4560 C   0  0  0  0  0  0  0  0  0  0  0  0
    2.2180   16.0550   -1.2580 C   0  0  2  0  0  0  0  0  0  0  0  0
    3.0610   16.5320   -2.4900 C   0  0  0  0  0  0  0  0  0  0  0  0
    3.2347   18.2247    1.8181 H   0  0  0  0  0  0  0  0  0  0  0  0
    3.9397   16.9709    0.7422 H   0  0  0  0  0  0  0  0  0  0  0  0
    4.6130   18.6363    0.7422 H   0  0  0  0  0  0  0  0  0  0  0  0
    3.2964   18.6113   -1.1853 H   0  0  0  0  0  0  0  0  0  0  0  0
    2.6837   20.4538    0.4955 H   0  0  0  0  0  0  0  0  0  0  0  0
    1.5295   20.1113   -0.8810 H   0  0  0  0  0  0  0  0  0  0  0  0
    0.6401   18.4852    1.2016 H   0  0  0  0  0  0  0  0  0  0  0  0
    1.0808   20.0579    1.9890 H   0  0  0  0  0  0  0  0  0  0  0  0
    0.1116   20.8805   -0.0946 H   0  0  0  0  0  0  0  0  0  0  0  0
   -1.8192   17.7490    1.6431 H   0  0  0  0  0  0  0  0  0  0  0  0
   -2.7300   17.5238    0.1113 H   0  0  0  0  0  0  0  0  0  0  0  0
   -0.9360   17.4324    0.1113 H   0  0  0  0  0  0  0  0  0  0  0  0
   -3.5720   20.4198   -0.0699 H   0  0  0  0  0  0  0  0  0  0  0  0
   -2.2801   20.7303   -1.2787 H   0  0  0  0  0  0  0  0  0  0  0  0
   -3.1513   19.1594   -1.2787 H   0  0  0  0  0  0  0  0  0  0  0  0
    1.4757   17.0529    0.5381 H   0  0  0  0  0  0  0  0  0  0  0  0
   -0.3389   18.0501   -0.7069 H   0  0  0  0  0  0  0  0  0  0  0  0
    0.7527   18.6280   -1.9840 H   0  0  0  0  0  0  0  0  0  0  0  0
   -0.9927   16.3751   -2.1858 H   0  0  0  0  0  0  0  0  0  0  0  0
    0.3359   16.6971   -3.2970 H   0  0  0  0  0  0  0  0  0  0  0  0
    0.5317   15.1805    0.5346 H   0  0  0  0  0  0  0  0  0  0  0  0
   -0.9690   15.4183   -0.4235 H   0  0  0  0  0  0  0  0  0  0  0  0
   -0.1471   13.8211   -0.4235 H   0  0  0  0  0  0  0  0  0  0  0  0
    1.6182   14.6476   -3.4467 H   0  0  0  0  0  0  0  0  0  0  0  0
   -0.9049   14.1806   -3.2080 H   0  0  0  0  0  0  0  0  0  0  0  0
    0.2005   13.0105   -4.1018 H   0  0  0  0  0  0  0  0  0  0  0  0
   -1.6082   11.9285   -2.5215 H   0  0  0  0  0  0  0  0  0  0  0  0
    1.5376   12.5981   -0.0805 H   0  0  0  0  0  0  0  0  0  0  0  0
    2.4435   10.2609   -1.8724 H   0  0  0  0  0  0  0  0  0  0  0  0
    3.4061   11.0631   -0.5533 H   0  0  0  0  0  0  0  0  0  0  0  0
    2.4586    8.8942    0.1658 H   0  0  0  0  0  0  0  0  0  0  0  0
    1.8196   10.2937    1.1144 H   0  0  0  0  0  0  0  0  0  0  0  0
    0.0012    8.8100    0.6101 H   0  0  0  0  0  0  0  0  0  0  0  0
    0.0820    9.1900   -2.1480 H   0  0  0  0  0  0  0  0  0  0  0  0
   -0.5296   10.5766    1.7722 H   0  0  0  0  0  0  0  0  0  0  0  0
   -0.2172   12.1955    1.0592 H   0  0  0  0  0  0  0  0  0  0  0  0
   -1.8817   11.5201    1.0592 H   0  0  0  0  0  0  0  0  0  0  0  0
   -2.5521    9.8400   -0.0422 H   0  0  0  0  0  0  0  0  0  0  0  0
   -2.4094   10.8584   -1.5150 H   0  0  0  0  0  0  0  0  0  0  0  0
   -1.7606    9.1834   -1.5150 H   0  0  0  0  0  0  0  0  0  0  0  0
    3.4832   11.5801   -2.9208 H   0  0  0  0  0  0  0  0  0  0  0  0
    2.0037   11.9562   -3.8675 H   0  0  0  0  0  0  0  0  0  0  0  0
    3.3858   13.1036   -3.8675 H   0  0  0  0  0  0  0  0  0  0  0  0
    3.8715   13.0840   -0.6197 H   0  0  0  0  0  0  0  0  0  0  0  0
    4.0665   14.1824   -2.0995 H   0  0  0  0  0  0  0  0  0  0  0  0
    2.5262   14.7650    0.4453 H   0  0  0  0  0  0  0  0  0  0  0  0
    4.0175   15.5716   -0.1807 H   0  0  0  0  0  0  0  0  0  0  0  0
    3.9678   17.0451   -2.1373 H   0  0  0  0  0  0  0  0  0  0  0  0
    3.3458   15.6612   -3.0987 H   0  0  0  0  0  0  0  0  0  0  0  0
    2.4611   17.2245   -3.0987 H   0  0  0  0  0  0  0  0  0  0  0  0
  1  2  1  0
  2  3  1  0
  3  4  1  0
  4  5  1  0
  5  6  1  0
  6  7  1  0
  7  8  1  0
  7  9  1  0
  2 10  1  0
 10 11  1  0
 11 12  1  0
 12 13  1  0
 13 14  1  1
 13 15  1  0
 15 16  1  0
 16 17  1  0
 17 18  2  0
 18 19  1  0
 19 20  1  0
 20 21  1  0
 21 22  1  0
 22 23  1  0
 22 24  1  0
 24 25  1  0
 24 26  1  0
 19 27  1  0
 27 28  1  6
 27 29  1  0
 29 30  1  0
 30 31  1  0
 31 32  1  6
  7  5  1  0
 31 10  1  0
 31 13  1  0
 27 15  1  0
 24 18  1  0
  1 33  1  0
  1 34  1  0
  1 35  1  0
  2 36  1  6
  3 37  1  0
  3 38  1  0
  4 39  1  0
  4 40  1  0
  5 41  1  6
  8 42  1  0
  8 43  1  0
  8 44  1  0
  9 45  1  0
  9 46  1  0
  9 47  1  0
 10 48  1  1
 11 49  1  0
 11 50  1  0
 12 51  1  0
 12 52  1  0
 14 53  1  0
 14 54  1  0
 14 55  1  0
 15 56  1  6
 16 57  1  0
 16 58  1  0
 17 59  1  0
 19 60  1  1
 20 61  1  0
 20 62  1  0
 21 63  1  0
 21 64  1  0
 22 65  1  1
 23 66  1  0
 25 67  1  0
 25 68  1  0
 25 69  1  0
 26 70  1  0
 26 71  1  0
 26 72  1  0
 28 73  1  0
 28 74  1  0
 28 75  1  0
 29 76  1  0
 29 77  1  0
 30 78  1  0
 30 79  1  0
 32 80  1  0
 32 81  1  0
 32 82  1  0
M  END
>  <meeko>  (5) 
{"is_sidechain": [false], "intermolecular_energy": 2.731, "internal_energy": -0.839}

$$$$
EPH_relaxed_0001_pdb2pqr_Repair_370_r2_0001_out
     RDKit          3D

 82 86  0  0  0  0  0  0  0  0999 V2000
   -0.3140   10.4610   -3.9300 C   0  0  0  0  0  0  0  0  0  0  0  0
    0.9580   10.3500   -3.0850 C   0  0  2  0  0  0  0  0  0  0  0  0
    1.0300    9.0160   -2.3160 C   0  0  0  0  0  0  0  0  0  0  0  0
   -0.3070    8.5810   -1.7100 C   0  0  0  0  0  0  0  0  0  0  0  0
   -0.4380    9.0190   -0.2830 C   0  0  2  0  0  0  0  0  0  0  0  0
   -1.7670    8.9400    0.2480 O   0  0  0  0  0  0  0  0  0  0  0  0
   -1.2040   10.2570    0.1450 C   0  0  0  0  0  0  0  0  0  0  0  0
   -1.8890   11.1360   -0.8550 C   0  0  0  0  0  0  0  0  0  0  0  0
   -0.8780   10.8790    1.4670 C   0  0  0  0  0  0  0  0  0  0  0  0
    1.0360   11.5190   -2.1090 C   0  0  1  0  0  0  0  0  0  0  0  0
    2.1140   11.3100   -1.0120 C   0  0  0  0  0  0  0  0  0  0  0  0
    2.7150   12.7050   -0.7040 C   0  0  0  0  0  0  0  0  0  0  0  0
    1.7480   13.7050   -1.3800 C   0  0  1  0  0  0  0  0  0  0  0  0
    0.5610   13.8550   -0.3780 C   0  0  0  0  0  0  0  0  0  0  0  0
    2.3510   15.0920   -1.7730 C   0  0  2  0  0  0  0  0  0  0  0  0
    2.8620   15.9390   -0.5940 C   0  0  0  0  0  0  0  0  0  0  0  0
    1.8570   16.8620    0.0110 C   0  0  0  0  0  0  0  0  0  0  0  0
    0.6850   17.2170   -0.5480 C   0  0  0  0  0  0  0  0  0  0  0  0
    0.3140   16.7520   -1.9620 C   0  0  1  0  0  0  0  0  0  0  0  0
   -0.2320   17.9540   -2.7770 C   0  0  0  0  0  0  0  0  0  0  0  0
   -1.3870   18.6610   -2.0730 C   0  0  0  0  0  0  0  0  0  0  0  0
   -0.9620   19.1600   -0.6950 C   0  0  2  0  0  0  0  0  0  0  0  0
    0.0130   20.1940   -0.8600 O   0  0  0  0  0  0  0  0  0  0  0  0
   -0.3850   18.0380    0.2130 C   0  0  0  0  0  0  0  0  0  0  0  0
   -1.5230   17.0770    0.6380 C   0  0  0  0  0  0  0  0  0  0  0  0
    0.1350   18.6990    1.5180 C   0  0  0  0  0  0  0  0  0  0  0  0
    1.4380   15.9450   -2.7440 C   0  0  1  0  0  0  0  0  0  0  0  0
    2.3840   16.9370   -3.4880 C   0  0  0  0  0  0  0  0  0  0  0  0
    0.7580   15.0610   -3.8560 C   0  0  0  0  0  0  0  0  0  0  0  0
    0.2910   13.6550   -3.4350 C   0  0  0  0  0  0  0  0  0  0  0  0
    1.4010   12.9080   -2.6900 C   0  0  2  0  0  0  0  0  0  0  0  0
    2.6010   12.7220   -3.6810 C   0  0  0  0  0  0  0  0  0  0  0  0
   -1.1888   10.5373   -3.2675 H   0  0  0  0  0  0  0  0  0  0  0  0
   -0.2554   11.3574   -4.5648 H   0  0  0  0  0  0  0  0  0  0  0  0
   -0.4116    9.5680   -4.5648 H   0  0  0  0  0  0  0  0  0  0  0  0
    1.8162   10.3808   -3.7724 H   0  0  0  0  0  0  0  0  0  0  0  0
    1.3675    8.2327   -3.0106 H   0  0  0  0  0  0  0  0  0  0  0  0
    1.7284    9.1650   -1.4793 H   0  0  0  0  0  0  0  0  0  0  0  0
   -1.1252    9.0254   -2.2957 H   0  0  0  0  0  0  0  0  0  0  0  0
   -0.3541    7.4823   -1.7369 H   0  0  0  0  0  0  0  0  0  0  0  0
    0.5785    8.6649   -0.0564 H   0  0  0  0  0  0  0  0  0  0  0  0
   -2.4825   11.8976   -0.3280 H   0  0  0  0  0  0  0  0  0  0  0  0
   -1.1354   11.6302   -1.4858 H   0  0  0  0  0  0  0  0  0  0  0  0
   -2.5523   10.5260   -1.4858 H   0  0  0  0  0  0  0  0  0  0  0  0
   -1.2233   10.2201    2.2773 H   0  0  0  0  0  0  0  0  0  0  0  0
    0.2099   11.0200    1.5476 H   0  0  0  0  0  0  0  0  0  0  0  0
   -1.3811   11.8539    1.5476 H   0  0  0  0  0  0  0  0  0  0  0  0
   -0.0020   11.5246   -1.7449 H   0  0  0  0  0  0  0  0  0  0  0  0
    1.6555   10.8867   -0.1061 H   0  0  0  0  0  0  0  0  0  0  0  0
    2.8924   10.6108   -1.3514 H   0  0  0  0  0  0  0  0  0  0  0  0
    2.7568   12.8787    0.3814 H   0  0  0  0  0  0  0  0  0  0  0  0
    3.7456   12.8061   -1.0749 H   0  0  0  0  0  0  0  0  0  0  0  0
    0.9427   13.8068    0.6525 H   0  0  0  0  0  0  0  0  0  0  0  0
    0.0644   14.8230   -0.5401 H   0  0  0  0  0  0  0  0  0  0  0  0
   -0.1608   13.0409   -0.5401 H   0  0  0  0  0  0  0  0  0  0  0  0
    3.2455   14.8059   -2.3458 H   0  0  0  0  0  0  0  0  0  0  0  0
    3.2096   15.2526    0.1921 H   0  0  0  0  0  0  0  0  0  0  0  0
    3.6571   16.5803   -1.0022 H   0  0  0  0  0  0  0  0  0  0  0  0
    2.0941   17.2881    0.9970 H   0  0  0  0  0  0  0  0  0  0  0  0
   -0.4763   15.9974   -1.8355 H   0  0  0  0  0  0  0  0  0  0  0  0
    0.5834   18.6764   -2.9295 H   0  0  0  0  0  0  0  0  0  0  0  0
   -0.6115   17.5647   -3.7333 H   0  0  0  0  0  0  0  0  0  0  0  0
   -1.7097   19.5180   -2.6825 H   0  0  0  0  0  0  0  0  0  0  0  0
   -2.2129   17.9453   -1.9480 H   0  0  0  0  0  0  0  0  0  0  0  0
   -1.8625   19.5393   -0.1899 H   0  0  0  0  0  0  0  0  0  0  0  0
   -0.2060   20.6790   -1.6740 H   0  0  0  0  0  0  0  0  0  0  0  0
   -1.5750   17.0331    1.7359 H   0  0  0  0  0  0  0  0  0  0  0  0
   -2.4806   17.4439    0.2400 H   0  0  0  0  0  0  0  0  0  0  0  0
   -1.3216   16.0715    0.2400 H   0  0  0  0  0  0  0  0  0  0  0  0
   -0.2812   18.1700    2.3880 H   0  0  0  0  0  0  0  0  0  0  0  0
    1.2332   18.6424    1.5453 H   0  0  0  0  0  0  0  0  0  0  0  0
   -0.1786   19.7530    1.5453 H   0  0  0  0  0  0  0  0  0  0  0  0
    2.9478   17.5282   -2.7514 H   0  0  0  0  0  0  0  0  0  0  0  0
    3.0857   16.3714   -4.1187 H   0  0  0  0  0  0  0  0  0  0  0  0
    1.7857   17.6110   -4.1187 H   0  0  0  0  0  0  0  0  0  0  0  0
   -0.1226   15.6080   -4.2239 H   0  0  0  0  0  0  0  0  0  0  0  0
    1.5421   14.8910   -4.6085 H   0  0  0  0  0  0  0  0  0  0  0  0
   -0.5844   13.7492   -2.7756 H   0  0  0  0  0  0  0  0  0  0  0  0
    0.0323   13.0861   -4.3402 H   0  0  0  0  0  0  0  0  0  0  0  0
    3.5297   12.5781   -3.1093 H   0  0  0  0  0  0  0  0  0  0  0  0
    2.4202   11.8412   -4.3146 H   0  0  0  0  0  0  0  0  0  0  0  0
    2.6953   13.6163   -4.3146 H   0  0  0  0  0  0  0  0  0  0  0  0
  1  2  1  0
  2  3  1  0
  3  4  1  0
  4  5  1  0
  5  6  1  0
  6  7  1  0
  7  8  1  0
  7  9  1  0
  2 10  1  0
 10 11  1  0
 11 12  1  0
 12 13  1  0
 13 14  1  1
 13 15  1  0
 15 16  1  0
 16 17  1  0
 17 18  2  0
 18 19  1  0
 19 20  1  0
 20 21  1  0
 21 22  1  0
 22 23  1  0
 22 24  1  0
 24 25  1  0
 24 26  1  0
 19 27  1  0
 27 28  1  6
 27 29  1  0
 29 30  1  0
 30 31  1  0
 31 32  1  6
  7  5  1  0
 31 10  1  0
 31 13  1  0
 27 15  1  0
 24 18  1  0
  1 33  1  0
  1 34  1  0
  1 35  1  0
  2 36  1  6
  3 37  1  0
  3 38  1  0
  4 39  1  0
  4 40  1  0
  5 41  1  1
  8 42  1  0
  8 43  1  0
  8 44  1  0
  9 45  1  0
  9 46  1  0
  9 47  1  0
 10 48  1  1
 11 49  1  0
 11 50  1  0
 12 51  1  0
 12 52  1  0
 14 53  1  0
 14 54  1  0
 14 55  1  0
 15 56  1  6
 16 57  1  0
 16 58  1  0
 17 59  1  0
 19 60  1  1
 20 61  1  0
 20 62  1  0
 21 63  1  0
 21 64  1  0
 22 65  1  1
 23 66  1  0
 25 67  1  0
 25 68  1  0
 25 69  1  0
 26 70  1  0
 26 71  1  0
 26 72  1  0
 28 73  1  0
 28 74  1  0
 28 75  1  0
 29 76  1  0
 29 77  1  0
 30 78  1  0
 30 79  1  0
 32 80  1  0
 32 81  1  0
 32 82  1  0
M  END
>  <meeko>  (6) 
{"is_sidechain": [false], "intermolecular_energy": 2.731, "internal_energy": -0.839}

$$$$
EPH_relaxed_0001_pdb2pqr_Repair_370_r2_0001_out
     RDKit          3D

 82 86  0  0  0  0  0  0  0  0999 V2000
    0.4010    8.8070   -2.3570 C   0  0  0  0  0  0  0  0  0  0  0  0
    1.1420    9.9460   -3.0630 C   0  0  2  0  0  0  0  0  0  0  0  0
    2.6450    9.9620   -2.7200 C   0  0  0  0  0  0  0  0  0  0  0  0
    3.5180   10.5870   -3.8110 C   0  0  0  0  0  0  0  0  0  0  0  0
    4.9160   10.8350   -3.3280 C   0  0  2  0  0  0  0  0  0  0  0  0
    5.5120   12.0430   -3.8170 O   0  0  0  0  0  0  0  0  0  0  0  0
    6.1300   10.8160   -4.2370 C   0  0  0  0  0  0  0  0  0  0  0  0
    6.0040   10.5430   -5.7030 C   0  0  0  0  0  0  0  0  0  0  0  0
    7.4770   10.5800   -3.6270 C   0  0  0  0  0  0  0  0  0  0  0  0
    0.5090   11.2830   -2.6970 C   0  0  1  0  0  0  0  0  0  0  0  0
   -0.8650   11.1210   -1.9940 C   0  0  0  0  0  0  0  0  0  0  0  0
   -0.9720   12.2640   -0.9520 C   0  0  0  0  0  0  0  0  0  0  0  0
    0.1800   13.2310   -1.3140 C   0  0  1  0  0  0  0  0  0  0  0  0
   -0.3720   14.0880   -2.4960 C   0  0  0  0  0  0  0  0  0  0  0  0
    0.7190   14.1290   -0.1530 C   0  0  2  0  0  0  0  0  0  0  0  0
   -0.3050   15.1110    0.4420 C   0  0  0  0  0  0  0  0  0  0  0  0
   -0.3470   16.4570   -0.2030 C   0  0  0  0  0  0  0  0  0  0  0  0
    0.5930   16.9600   -1.0250 C   0  0  0  0  0  0  0  0  0  0  0  0
    1.8900   16.1900   -1.3030 C   0  0  1  0  0  0  0  0  0  0  0  0
    3.1000   17.1530   -1.1820 C   0  0  0  0  0  0  0  0  0  0  0  0
    2.9550   18.3890   -2.0640 C   0  0  0  0  0  0  0  0  0  0  0  0
    1.6840   19.1600   -1.7180 C   0  0  2  0  0  0  0  0  0  0  0  0
    1.8180   19.7020   -0.4010 O   0  0  0  0  0  0  0  0  0  0  0  0
    0.3990   18.2890   -1.7960 C   0  0  0  0  0  0  0  0  0  0  0  0
    0.0880   17.9520   -3.2760 C   0  0  0  0  0  0  0  0  0  0  0  0
   -0.7910   19.1470   -1.2880 C   0  0  0  0  0  0  0  0  0  0  0  0
    2.0910   14.8490   -0.4750 C   0  0  1  0  0  0  0  0  0  0  0  0
    2.7590   15.1670    0.8980 C   0  0  0  0  0  0  0  0  0  0  0  0
    3.0920   13.9120   -1.2490 C   0  0  0  0  0  0  0  0  0  0  0  0
    2.4840   12.9620   -2.2990 C   0  0  0  0  0  0  0  0  0  0  0  0
    1.2910   12.1950   -1.7190 C   0  0  2  0  0  0  0  0  0  0  0  0
    1.8200   11.3080   -0.5410 C   0  0  0  0  0  0  0  0  0  0  0  0
    0.4843    8.9351   -1.2677 H   0  0  0  0  0  0  0  0  0  0  0  0
   -0.6597    8.8236   -2.6481 H   0  0  0  0  0  0  0  0  0  0  0  0
    0.8460    7.8441   -2.6481 H   0  0  0  0  0  0  0  0  0  0  0  0
    1.0533    9.7772   -4.1464 H   0  0  0  0  0  0  0  0  0  0  0  0
    2.7835   10.5369   -1.7925 H   0  0  0  0  0  0  0  0  0  0  0  0
    2.9622    8.9140   -2.6152 H   0  0  0  0  0  0  0  0  0  0  0  0
    3.5544    9.9047   -4.6730 H   0  0  0  0  0  0  0  0  0  0  0  0
    3.0756   11.5540   -4.0923 H   0  0  0  0  0  0  0  0  0  0  0  0
    4.7012   10.3322   -2.3735 H   0  0  0  0  0  0  0  0  0  0  0  0
    5.5474    9.5537   -5.8538 H   0  0  0  0  0  0  0  0  0  0  0  0
    5.3705   11.3137   -6.1664 H   0  0  0  0  0  0  0  0  0  0  0  0
    7.0015   10.5610   -6.1664 H   0  0  0  0  0  0  0  0  0  0  0  0
    7.3907   10.5951   -2.5305 H   0  0  0  0  0  0  0  0  0  0  0  0
    7.8599    9.6011   -3.9512 H   0  0  0  0  0  0  0  0  0  0  0  0
    8.1699   11.3704   -3.9512 H   0  0  0  0  0  0  0  0  0  0  0  0
    0.4679   11.7470   -3.6935 H   0  0  0  0  0  0  0  0  0  0  0  0
   -1.6788   11.2018   -2.7297 H   0  0  0  0  0  0  0  0  0  0  0  0
   -0.9474   10.1366   -1.5102 H   0  0  0  0  0  0  0  0  0  0  0  0
   -1.9446   12.7718   -1.0311 H   0  0  0  0  0  0  0  0  0  0  0  0
   -0.8975   11.8947    0.0815 H   0  0  0  0  0  0  0  0  0  0  0  0
   -0.9269   14.9496   -2.0963 H   0  0  0  0  0  0  0  0  0  0  0  0
    0.4660   14.4455   -3.1123 H   0  0  0  0  0  0  0  0  0  0  0  0
   -1.0441   13.4728   -3.1123 H   0  0  0  0  0  0  0  0  0  0  0  0
    0.9221   13.3936    0.6395 H   0  0  0  0  0  0  0  0  0  0  0  0
   -1.3033   14.6585    0.3496 H   0  0  0  0  0  0  0  0  0  0  0  0
    0.0065   15.2819    1.4830 H   0  0  0  0  0  0  0  0  0  0  0  0
   -1.2198   17.0912    0.0116 H   0  0  0  0  0  0  0  0  0  0  0  0
    1.8093   15.8209   -2.3361 H   0  0  0  0  0  0  0  0  0  0  0  0
    3.1900   17.4761   -0.1344 H   0  0  0  0  0  0  0  0  0  0  0  0
    3.9951   16.6078   -1.5161 H   0  0  0  0  0  0  0  0  0  0  0  0
    3.8258   19.0437   -1.9122 H   0  0  0  0  0  0  0  0  0  0  0  0
    2.8949   18.0661   -3.1138 H   0  0  0  0  0  0  0  0  0  0  0  0
    1.5681   19.9580   -2.4662 H   0  0  0  0  0  0  0  0  0  0  0  0
    1.5630   20.6400   -0.4410 H   0  0  0  0  0  0  0  0  0  0  0  0
   -0.6574   17.1443   -3.3193 H   0  0  0  0  0  0  0  0  0  0  0  0
   -0.3097   18.8454   -3.7797 H   0  0  0  0  0  0  0  0  0  0  0  0
    1.0104   17.6271   -3.7797 H   0  0  0  0  0  0  0  0  0  0  0  0
   -0.7968   19.1512   -0.1880 H   0  0  0  0  0  0  0  0  0  0  0  0
   -0.6844   20.1774   -1.6580 H   0  0  0  0  0  0  0  0  0  0  0  0
   -1.7350   18.7203   -1.6580 H   0  0  0  0  0  0  0  0  0  0  0  0
    2.0917   14.8493    1.7127 H   0  0  0  0  0  0  0  0  0  0  0  0
    3.7143   14.6270    0.9748 H   0  0  0  0  0  0  0  0  0  0  0  0
    2.9422   16.2489    0.9748 H   0  0  0  0  0  0  0  0  0  0  0  0
    3.8195   14.5560   -1.7647 H   0  0  0  0  0  0  0  0  0  0  0  0
    3.5226   13.2535   -0.4803 H   0  0  0  0  0  0  0  0  0  0  0  0
    2.1467   13.5509   -3.1647 H   0  0  0  0  0  0  0  0  0  0  0  0
    3.2531   12.2367   -2.6029 H   0  0  0  0  0  0  0  0  0  0  0  0
    1.5444   11.7702    0.4184 H   0  0  0  0  0  0  0  0  0  0  0  0
    1.3722   10.3055   -0.6071 H   0  0  0  0  0  0  0  0  0  0  0  0
    2.9149   11.2256   -0.6071 H   0  0  0  0  0  0  0  0  0  0  0  0
  1  2  1  0
  2  3  1  0
  3  4  1  0
  4  5  1  0
  5  6  1  0
  6  7  1  0
  7  8  1  0
  7  9  1  0
  2 10  1  0
 10 11  1  0
 11 12  1  0
 12 13  1  0
 13 14  1  6
 13 15  1  0
 15 16  1  0
 16 17  1  0
 17 18  2  0
 18 19  1  0
 19 20  1  0
 20 21  1  0
 21 22  1  0
 22 23  1  0
 22 24  1  0
 24 25  1  0
 24 26  1  0
 19 27  1  0
 27 28  1  1
 27 29  1  0
 29 30  1  0
 30 31  1  0
 31 32  1  1
  7  5  1  0
 31 10  1  0
 31 13  1  0
 27 15  1  0
 24 18  1  0
  1 33  1  0
  1 34  1  0
  1 35  1  0
  2 36  1  6
  3 37  1  0
  3 38  1  0
  4 39  1  0
  4 40  1  0
  5 41  1  1
  8 42  1  0
  8 43  1  0
  8 44  1  0
  9 45  1  0
  9 46  1  0
  9 47  1  0
 10 48  1  6
 11 49  1  0
 11 50  1  0
 12 51  1  0
 12 52  1  0
 14 53  1  0
 14 54  1  0
 14 55  1  0
 15 56  1  1
 16 57  1  0
 16 58  1  0
 17 59  1  0
 19 60  1  6
 20 61  1  0
 20 62  1  0
 21 63  1  0
 21 64  1  0
 22 65  1  6
 23 66  1  0
 25 67  1  0
 25 68  1  0
 25 69  1  0
 26 70  1  0
 26 71  1  0
 26 72  1  0
 28 73  1  0
 28 74  1  0
 28 75  1  0
 29 76  1  0
 29 77  1  0
 30 78  1  0
 30 79  1  0
 32 80  1  0
 32 81  1  0
 32 82  1  0
M  END
>  <meeko>  (7) 
{"is_sidechain": [false], "intermolecular_energy": 2.731, "internal_energy": -0.839}

$$$$
EPH_relaxed_0001_pdb2pqr_Repair_370_r2_0001_out
     RDKit          3D

 82 86  0  0  0  0  0  0  0  0999 V2000
    2.3260   19.8700   -0.7940 C   0  0  0  0  0  0  0  0  0  0  0  0
    2.2510   18.9370   -2.0050 C   0  0  2  0  0  0  0  0  0  0  0  0
    0.8500   18.9290   -2.6470 C   0  0  0  0  0  0  0  0  0  0  0  0
   -0.1120   19.9540   -2.0380 C   0  0  0  0  0  0  0  0  0  0  0  0
   -1.2860   19.2910   -1.3830 C   0  0  2  0  0  0  0  0  0  0  0  0
   -2.2760   20.1940   -0.8740 O   0  0  0  0  0  0  0  0  0  0  0  0
   -1.5850   19.3950    0.1000 C   0  0  0  0  0  0  0  0  0  0  0  0
   -0.7060   20.1830    1.0200 C   0  0  0  0  0  0  0  0  0  0  0  0
   -2.4420   18.3430    0.7330 C   0  0  0  0  0  0  0  0  0  0  0  0
    2.6440   17.5220   -1.5950 C   0  0  1  0  0  0  0  0  0  0  0  0
    3.4160   17.4820   -0.2500 C   0  0  0  0  0  0  0  0  0  0  0  0
    2.9950   16.1750    0.4700 C   0  0  0  0  0  0  0  0  0  0  0  0
    2.2610   15.3520   -0.6150 C   0  0  1  0  0  0  0  0  0  0  0  0
    3.3980   14.6770   -1.4440 C   0  0  0  0  0  0  0  0  0  0  0  0
    1.2210   14.3040   -0.1010 C   0  0  2  0  0  0  0  0  0  0  0  0
    1.8060   13.1770    0.7690 C   0  0  0  0  0  0  0  0  0  0  0  0
    2.2450   11.9600    0.0250 C   0  0  0  0  0  0  0  0  0  0  0  0
    1.9170   11.6580   -1.2450 C   0  0  0  0  0  0  0  0  0  0  0  0
    0.9410   12.5390   -2.0370 C   0  0  1  0  0  0  0  0  0  0  0  0
   -0.1030   11.6410   -2.7520 C   0  0  0  0  0  0  0  0  0  0  0  0
    0.5460   10.5660   -3.6180 C   0  0  0  0  0  0  0  0  0  0  0  0
    1.4640    9.6750   -2.7840 C   0  0  2  0  0  0  0  0  0  0  0  0
    0.6660    8.9260   -1.8620 O   0  0  0  0  0  0  0  0  0  0  0  0
    2.5510   10.4700   -2.0090 C   0  0  0  0  0  0  0  0  0  0  0  0
    3.5930   11.0340   -3.0060 C   0  0  0  0  0  0  0  0  0  0  0  0
    3.3160    9.4710   -1.1000 C   0  0  0  0  0  0  0  0  0  0  0  0
    0.2690   13.7300   -1.2270 C   0  0  1  0  0  0  0  0  0  0  0  0
   -1.0180   13.2230   -0.5060 C   0  0  0  0  0  0  0  0  0  0  0  0
   -0.1980   14.8410   -2.2400 C   0  0  0  0  0  0  0  0  0  0  0  0
    0.8380   15.9170   -2.6160 C   0  0  0  0  0  0  0  0  0  0  0  0
    1.4980   16.5040   -1.3650 C   0  0  2  0  0  0  0  0  0  0  0  0
    0.3820   17.2100   -0.5210 C   0  0  0  0  0  0  0  0  0  0  0  0
    2.2782   19.2756    0.1303 H   0  0  0  0  0  0  0  0  0  0  0  0
    3.2721   20.4305   -0.8210 H   0  0  0  0  0  0  0  0  0  0  0  0
    1.4816   20.5744   -0.8210 H   0  0  0  0  0  0  0  0  0  0  0  0
    2.9566   19.3162   -2.7589 H   0  0  0  0  0  0  0  0  0  0  0  0
    0.9581   19.1485   -3.7194 H   0  0  0  0  0  0  0  0  0  0  0  0
    0.4180   17.9341   -2.4639 H   0  0  0  0  0  0  0  0  0  0  0  0
    0.4284   20.5469   -1.2853 H   0  0  0  0  0  0  0  0  0  0  0  0
   -0.4884   20.5952   -2.8487 H   0  0  0  0  0  0  0  0  0  0  0  0
   -1.2069   18.4282   -2.0607 H   0  0  0  0  0  0  0  0  0  0  0  0
   -0.9653   19.9505    2.0634 H   0  0  0  0  0  0  0  0  0  0  0  0
    0.3462   19.9201    0.8364 H   0  0  0  0  0  0  0  0  0  0  0  0
   -0.8528   21.2576    0.8364 H   0  0  0  0  0  0  0  0  0  0  0  0
   -2.3749   18.4253    1.8279 H   0  0  0  0  0  0  0  0  0  0  0  0
   -3.4867   18.4827    0.4181 H   0  0  0  0  0  0  0  0  0  0  0  0
   -2.0940   17.3482    0.4181 H   0  0  0  0  0  0  0  0  0  0  0  0
    3.2341   17.2320   -2.4769 H   0  0  0  0  0  0  0  0  0  0  0  0
    4.5002   17.4796   -0.4357 H   0  0  0  0  0  0  0  0  0  0  0  0
    3.1830   18.3638    0.3650 H   0  0  0  0  0  0  0  0  0  0  0  0
    3.8782   15.6324    0.8380 H   0  0  0  0  0  0  0  0  0  0  0  0
    2.3611   16.3676    1.3481 H   0  0  0  0  0  0  0  0  0  0  0  0
    4.1388   14.2372   -0.7601 H   0  0  0  0  0  0  0  0  0  0  0  0
    2.9698   13.8867   -2.0781 H   0  0  0  0  0  0  0  0  0  0  0  0
    3.8868   15.4313   -2.0781 H   0  0  0  0  0  0  0  0  0  0  0  0
    0.5925   14.9055    0.5722 H   0  0  0  0  0  0  0  0  0  0  0  0
    2.6773   13.5797    1.3062 H   0  0  0  0  0  0  0  0  0  0  0  0
    0.9916   12.8508    1.4325 H   0  0  0  0  0  0  0  0  0  0  0  0
    2.8918   11.2492    0.5602 H   0  0  0  0  0  0  0  0  0  0  0  0
    1.5485   13.0720   -2.7833 H   0  0  0  0  0  0  0  0  0  0  0  0
   -0.7273   11.1510   -1.9903 H   0  0  0  0  0  0  0  0  0  0  0  0
   -0.7017   12.2856   -3.4124 H   0  0  0  0  0  0  0  0  0  0  0  0
   -0.2409    9.9466   -4.0731 H   0  0  0  0  0  0  0  0  0  0  0  0
    1.1467   11.0578   -4.3973 H   0  0  0  0  0  0  0  0  0  0  0  0
    1.9982    9.0099   -3.4785 H   0  0  0  0  0  0  0  0  0  0  0  0
    0.4970    9.4940   -1.0910 H   0  0  0  0  0  0  0  0  0  0  0  0
    4.4270   11.4854   -2.4485 H   0  0  0  0  0  0  0  0  0  0  0  0
    3.9736   10.2188   -3.6388 H   0  0  0  0  0  0  0  0  0  0  0  0
    3.1186   11.7985   -3.6388 H   0  0  0  0  0  0  0  0  0  0  0  0
    3.1275    9.7172   -0.0446 H   0  0  0  0  0  0  0  0  0  0  0  0
    2.9682    8.4479   -1.3056 H   0  0  0  0  0  0  0  0  0  0  0  0
    4.3944    9.5400   -1.3056 H   0  0  0  0  0  0  0  0  0  0  0  0
   -0.8745   13.2795    0.5831 H   0  0  0  0  0  0  0  0  0  0  0  0
   -1.8727   13.8516   -0.7964 H   0  0  0  0  0  0  0  0  0  0  0  0
   -1.2143   12.1803   -0.7964 H   0  0  0  0  0  0  0  0  0  0  0  0
   -0.5063   14.3371   -3.1679 H   0  0  0  0  0  0  0  0  0  0  0  0
   -1.0020   15.3839   -1.7216 H   0  0  0  0  0  0  0  0  0  0  0  0
    1.6124   15.4639   -3.2524 H   0  0  0  0  0  0  0  0  0  0  0  0
    0.3230   16.7269   -3.1534 H   0  0  0  0  0  0  0  0  0  0  0  0
    0.5929   17.0766    0.5503 H   0  0  0  0  0  0  0  0  0  0  0  0
    0.3651   18.2835   -0.7605 H   0  0  0  0  0  0  0  0  0  0  0  0
   -0.5953   16.7655   -0.7605 H   0  0  0  0  0  0  0  0  0  0  0  0
  1  2  1  0
  2  3  1  0
  3  4  1  0
  4  5  1  0
  5  6  1  0
  6  7  1  0
  7  8  1  0
  7  9  1  0
  2 10  1  0
 10 11  1  0
 11 12  1  0
 12 13  1  0
 13 14  1  6
 13 15  1  0
 15 16  1  0
 16 17  1  0
 17 18  2  0
 18 19  1  0
 19 20  1  0
 20 21  1  0
 21 22  1  0
 22 23  1  0
 22 24  1  0
 24 25  1  0
 24 26  1  0
 19 27  1  0
 27 28  1  1
 27 29  1  0
 29 30  1  0
 30 31  1  0
 31 32  1  1
  7  5  1  0
 31 10  1  0
 31 13  1  0
 27 15  1  0
 24 18  1  0
  1 33  1  0
  1 34  1  0
  1 35  1  0
  2 36  1  6
  3 37  1  0
  3 38  1  0
  4 39  1  0
  4 40  1  0
  5 41  1  6
  8 42  1  0
  8 43  1  0
  8 44  1  0
  9 45  1  0
  9 46  1  0
  9 47  1  0
 10 48  1  6
 11 49  1  0
 11 50  1  0
 12 51  1  0
 12 52  1  0
 14 53  1  0
 14 54  1  0
 14 55  1  0
 15 56  1  1
 16 57  1  0
 16 58  1  0
 17 59  1  0
 19 60  1  6
 20 61  1  0
 20 62  1  0
 21 63  1  0
 21 64  1  0
 22 65  1  6
 23 66  1  0
 25 67  1  0
 25 68  1  0
 25 69  1  0
 26 70  1  0
 26 71  1  0
 26 72  1  0
 28 73  1  0
 28 74  1  0
 28 75  1  0
 29 76  1  0
 29 77  1  0
 30 78  1  0
 30 79  1  0
 32 80  1  0
 32 81  1  0
 32 82  1  0
M  END
>  <meeko>  (8) 
{"is_sidechain": [false], "intermolecular_energy": 2.731, "internal_energy": -0.839}

$$$$
EPH_relaxed_0001_pdb2pqr_Repair_370_r2_0001_out
     RDKit          3D

 82 86  0  0  0  0  0  0  0  0999 V2000
   -0.8750   16.3570   -5.8460 C   0  0  0  0  0  0  0  0  0  0  0  0
    0.2200   15.6570   -6.6560 C   0  0  2  0  0  0  0  0  0  0  0  0
   -0.1830   15.4640   -8.1320 C   0  0  0  0  0  0  0  0  0  0  0  0
    0.4440   16.4900   -9.0800 C   0  0  0  0  0  0  0  0  0  0  0  0
    1.8490   16.1190   -9.4470 C   0  0  2  0  0  0  0  0  0  0  0  0
    2.3180   16.6900  -10.6760 O   0  0  0  0  0  0  0  0  0  0  0  0
    2.2010   15.2580  -10.6470 C   0  0  0  0  0  0  0  0  0  0  0  0
    1.1420   14.7160  -11.5550 C   0  0  0  0  0  0  0  0  0  0  0  0
    3.5170   14.5460  -10.6550 C   0  0  0  0  0  0  0  0  0  0  0  0
    0.5510   14.3090   -6.0260 C   0  0  1  0  0  0  0  0  0  0  0  0
    1.8150   13.6550   -6.6440 C   0  0  0  0  0  0  0  0  0  0  0  0
    2.5350   12.9000   -5.4960 C   0  0  0  0  0  0  0  0  0  0  0  0
    1.5020   12.8640   -4.3460 C   0  0  1  0  0  0  0  0  0  0  0  0
    0.5500   11.6790   -4.6980 C   0  0  0  0  0  0  0  0  0  0  0  0
    2.0820   12.7290   -2.9000 C   0  0  2  0  0  0  0  0  0  0  0  0
    2.8610   11.4290   -2.6290 C   0  0  0  0  0  0  0  0  0  0  0  0
    2.0450   10.2940   -2.1060 C   0  0  0  0  0  0  0  0  0  0  0  0
    0.8040   10.3940   -1.5940 C   0  0  0  0  0  0  0  0  0  0  0  0
    0.1330   11.7620   -1.4150 C   0  0  1  0  0  0  0  0  0  0  0  0
   -0.5050   11.8440   -0.0030 C   0  0  0  0  0  0  0  0  0  0  0  0
   -1.4580   10.6860    0.2760 C   0  0  0  0  0  0  0  0  0  0  0  0
   -0.7410    9.3450    0.1450 C   0  0  2  0  0  0  0  0  0  0  0  0
    0.2320    9.2390    1.1890 O   0  0  0  0  0  0  0  0  0  0  0  0
   -0.0500    9.1530   -1.2340 C   0  0  0  0  0  0  0  0  0  0  0  0
   -1.1250    8.9670   -2.3330 C   0  0  0  0  0  0  0  0  0  0  0  0
    0.7540    7.8260   -1.1840 C   0  0  0  0  0  0  0  0  0  0  0  0
    1.0360   13.0260   -1.7510 C   0  0  1  0  0  0  0  0  0  0  0  0
    1.8610   13.4400   -0.4940 C   0  0  0  0  0  0  0  0  0  0  0  0
    0.1030   14.2480   -2.0920 C   0  0  0  0  0  0  0  0  0  0  0  0
   -0.3390   14.3950   -3.5610 C   0  0  0  0  0  0  0  0  0  0  0  0
    0.8600   14.2900   -4.5080 C   0  0  2  0  0  0  0  0  0  0  0  0
    1.8250   15.4830   -4.1920 C   0  0  0  0  0  0  0  0  0  0  0  0
   -0.6750   16.2291   -4.7719 H   0  0  0  0  0  0  0  0  0  0  0  0
   -0.8845   17.4291   -6.0921 H   0  0  0  0  0  0  0  0  0  0  0  0
   -1.8520   15.9156   -6.0921 H   0  0  0  0  0  0  0  0  0  0  0  0
    1.1094   16.3041   -6.6386 H   0  0  0  0  0  0  0  0  0  0  0  0
    0.1325   14.4593   -8.4497 H   0  0  0  0  0  0  0  0  0  0  0  0
   -1.2733   15.5986   -8.1880 H   0  0  0  0  0  0  0  0  0  0  0  0
   -0.1613   16.5449   -9.9968 H   0  0  0  0  0  0  0  0  0  0  0  0
    0.4691   17.4620   -8.5656 H   0  0  0  0  0  0  0  0  0  0  0  0
    2.1352   16.0595   -8.3866 H   0  0  0  0  0  0  0  0  0  0  0  0
    0.3224   14.2965  -10.9531 H   0  0  0  0  0  0  0  0  0  0  0  0
    0.7534   15.5261  -12.1897 H   0  0  0  0  0  0  0  0  0  0  0  0
    1.5718   13.9270  -12.1897 H   0  0  0  0  0  0  0  0  0  0  0  0
    3.8444   14.3689   -9.6199 H   0  0  0  0  0  0  0  0  0  0  0  0
    3.4097   13.5829  -11.1755 H   0  0  0  0  0  0  0  0  0  0  0  0
    4.2644   15.1628  -11.1755 H   0  0  0  0  0  0  0  0  0  0  0  0
   -0.3908   13.7766   -6.2248 H   0  0  0  0  0  0  0  0  0  0  0  0
    1.5272   12.9508   -7.4385 H   0  0  0  0  0  0  0  0  0  0  0  0
    2.4736   14.4139   -7.0916 H   0  0  0  0  0  0  0  0  0  0  0  0
    2.8028   11.8803   -5.8097 H   0  0  0  0  0  0  0  0  0  0  0  0
    3.4740   13.3898   -5.1986 H   0  0  0  0  0  0  0  0  0  0  0  0
    0.1797   11.2181   -3.7704 H   0  0  0  0  0  0  0  0  0  0  0  0
   -0.3006   12.0542   -5.2859 H   0  0  0  0  0  0  0  0  0  0  0  0
    1.0997   10.9292   -5.2859 H   0  0  0  0  0  0  0  0  0  0  0  0
    2.8275   13.5372   -2.8684 H   0  0  0  0  0  0  0  0  0  0  0  0
    3.3247   11.1075   -3.5733 H   0  0  0  0  0  0  0  0  0  0  0  0
    3.5890   11.6693   -1.8401 H   0  0  0  0  0  0  0  0  0  0  0  0
    2.4957    9.2912   -2.1419 H   0  0  0  0  0  0  0  0  0  0  0  0
   -0.6519   11.8195   -2.1835 H   0  0  0  0  0  0  0  0  0  0  0  0
    0.2982   11.8286    0.7484 H   0  0  0  0  0  0  0  0  0  0  0  0
   -1.0878   12.7756    0.0467 H   0  0  0  0  0  0  0  0  0  0  0  0
   -1.8541   10.7840    1.2975 H   0  0  0  0  0  0  0  0  0  0  0  0
   -2.2758   10.7198   -0.4589 H   0  0  0  0  0  0  0  0  0  0  0  0
   -1.5012    8.5543    0.2284 H   0  0  0  0  0  0  0  0  0  0  0  0
    0.1660    8.3430    1.5620 H   0  0  0  0  0  0  0  0  0  0  0  0
   -2.1048    8.7975   -1.8626 H   0  0  0  0  0  0  0  0  0  0  0  0
   -1.1700    9.8707   -2.9585 H   0  0  0  0  0  0  0  0  0  0  0  0
   -0.8638    8.1007   -2.9585 H   0  0  0  0  0  0  0  0  0  0  0  0
    0.9266    7.5411   -0.1356 H   0  0  0  0  0  0  0  0  0  0  0  0
    0.1844    7.0329   -1.6905 H   0  0  0  0  0  0  0  0  0  0  0  0
    1.7207    7.9637   -1.6905 H   0  0  0  0  0  0  0  0  0  0  0  0
    1.3078   13.1624    0.4154 H   0  0  0  0  0  0  0  0  0  0  0  0
    2.8314   12.9221   -0.5054 H   0  0  0  0  0  0  0  0  0  0  0  0
    2.0257   14.5275   -0.5054 H   0  0  0  0  0  0  0  0  0  0  0  0
   -0.8054   14.1546   -1.4787 H   0  0  0  0  0  0  0  0  0  0  0  0
    0.7100   15.1412   -1.8829 H   0  0  0  0  0  0  0  0  0  0  0  0
   -1.0583   13.5983   -3.8017 H   0  0  0  0  0  0  0  0  0  0  0  0
   -0.8021   15.3843   -3.6903 H   0  0  0  0  0  0  0  0  0  0  0  0
    1.9193   15.5996   -3.1023 H   0  0  0  0  0  0  0  0  0  0  0  0
    2.8149   15.2787   -4.6259 H   0  0  0  0  0  0  0  0  0  0  0  0
    1.4183   16.4084   -4.6259 H   0  0  0  0  0  0  0  0  0  0  0  0
  1  2  1  0
  2  3  1  0
  3  4  1  0
  4  5  1  0
  5  6  1  0
  6  7  1  0
  7  8  1  0
  7  9  1  0
  2 10  1  0
 10 11  1  0
 11 12  1  0
 12 13  1  0
 13 14  1  6
 13 15  1  0
 15 16  1  0
 16 17  1  0
 17 18  2  0
 18 19  1  0
 19 20  1  0
 20 21  1  0
 21 22  1  0
 22 23  1  0
 22 24  1  0
 24 25  1  0
 24 26  1  0
 19 27  1  0
 27 28  1  1
 27 29  1  0
 29 30  1  0
 30 31  1  0
 31 32  1  6
  7  5  1  0
 31 10  1  0
 31 13  1  0
 27 15  1  0
 24 18  1  0
  1 33  1  0
  1 34  1  0
  1 35  1  0
  2 36  1  6
  3 37  1  0
  3 38  1  0
  4 39  1  0
  4 40  1  0
  5 41  1  1
  8 42  1  0
  8 43  1  0
  8 44  1  0
  9 45  1  0
  9 46  1  0
  9 47  1  0
 10 48  1  1
 11 49  1  0
 11 50  1  0
 12 51  1  0
 12 52  1  0
 14 53  1  0
 14 54  1  0
 14 55  1  0
 15 56  1  6
 16 57  1  0
 16 58  1  0
 17 59  1  0
 19 60  1  6
 20 61  1  0
 20 62  1  0
 21 63  1  0
 21 64  1  0
 22 65  1  1
 23 66  1  0
 25 67  1  0
 25 68  1  0
 25 69  1  0
 26 70  1  0
 26 71  1  0
 26 72  1  0
 28 73  1  0
 28 74  1  0
 28 75  1  0
 29 76  1  0
 29 77  1  0
 30 78  1  0
 30 79  1  0
 32 80  1  0
 32 81  1  0
 32 82  1  0
M  END
>  <meeko>  (9) 
{"is_sidechain": [false], "intermolecular_energy": 2.731, "internal_energy": -0.839}

$$$$
EPH_relaxed_0001_pdb2pqr_Repair_370_r2_0001_out
     RDKit          3D

 82 86  0  0  0  0  0  0  0  0999 V2000
   -0.0530    9.4850   -2.7530 C   0  0  0  0  0  0  0  0  0  0  0  0
    1.1110   10.4320   -3.0620 C   0  0  2  0  0  0  0  0  0  0  0  0
    2.4710    9.7050   -3.0460 C   0  0  0  0  0  0  0  0  0  0  0  0
    3.4860   10.2790   -4.0380 C   0  0  0  0  0  0  0  0  0  0  0  0
    4.8280   10.4810   -3.4020 C   0  0  2  0  0  0  0  0  0  0  0  0
    5.3670   11.8020   -3.5470 O   0  0  0  0  0  0  0  0  0  0  0  0
    6.0970   10.7460   -4.1920 C   0  0  0  0  0  0  0  0  0  0  0  0
    6.0840   10.8210   -5.6870 C   0  0  0  0  0  0  0  0  0  0  0  0
    7.4150   10.4450   -3.5500 C   0  0  0  0  0  0  0  0  0  0  0  0
    1.1230   11.5820   -2.0620 C   0  0  1  0  0  0  0  0  0  0  0  0
    2.1750   11.3860   -0.9380 C   0  0  0  0  0  0  0  0  0  0  0  0
    2.7220   12.7940   -0.5860 C   0  0  0  0  0  0  0  0  0  0  0  0
    1.7420   13.7750   -1.2720 C   0  0  1  0  0  0  0  0  0  0  0  0
    0.5230   13.8680   -0.3020 C   0  0  0  0  0  0  0  0  0  0  0  0
    2.3120   15.1890   -1.6200 C   0  0  2  0  0  0  0  0  0  0  0  0
    2.7600   16.0280   -0.4110 C   0  0  0  0  0  0  0  0  0  0  0  0
    1.7090   16.9060    0.1810 C   0  0  0  0  0  0  0  0  0  0  0  0
    0.5430   17.2350   -0.4050 C   0  0  0  0  0  0  0  0  0  0  0  0
    0.2280   16.7860   -1.8380 C   0  0  1  0  0  0  0  0  0  0  0  0
   -0.3340   17.9860   -2.6450 C   0  0  0  0  0  0  0  0  0  0  0  0
   -1.5300   18.6410   -1.9630 C   0  0  0  0  0  0  0  0  0  0  0  0
   -1.1610   19.1270   -0.5630 C   0  0  2  0  0  0  0  0  0  0  0  0
   -0.2160   20.1940   -0.6800 O   0  0  0  0  0  0  0  0  0  0  0  0
   -0.5750   18.0050    0.3400 C   0  0  0  0  0  0  0  0  0  0  0  0
   -1.6930   17.0000    0.7130 C   0  0  0  0  0  0  0  0  0  0  0  0
   -0.1140   18.6570    1.6710 C   0  0  0  0  0  0  0  0  0  0  0  0
    1.3990   16.0310   -2.6010 C   0  0  1  0  0  0  0  0  0  0  0  0
    2.3330   17.0670   -3.2990 C   0  0  0  0  0  0  0  0  0  0  0  0
    0.7800   15.1480   -3.7490 C   0  0  0  0  0  0  0  0  0  0  0  0
    0.3470   13.7190   -3.3690 C   0  0  0  0  0  0  0  0  0  0  0  0
    1.4590   12.9930   -2.6060 C   0  0  2  0  0  0  0  0  0  0  0  0
    2.6920   12.8650   -3.5650 C   0  0  0  0  0  0  0  0  0  0  0  0
   -0.1693    9.3904   -1.6633 H   0  0  0  0  0  0  0  0  0  0  0  0
   -0.9795    9.8890   -3.1869 H   0  0  0  0  0  0  0  0  0  0  0  0
    0.1541    8.4957   -3.1869 H   0  0  0  0  0  0  0  0  0  0  0  0
    0.9589   10.8241   -4.0784 H   0  0  0  0  0  0  0  0  0  0  0  0
    2.8937    9.7809   -2.0333 H   0  0  0  0  0  0  0  0  0  0  0  0
    2.2827    8.6632   -3.3446 H   0  0  0  0  0  0  0  0  0  0  0  0
    3.5927    9.5822   -4.8824 H   0  0  0  0  0  0  0  0  0  0  0  0
    3.1170   11.2575   -4.3792 H   0  0  0  0  0  0  0  0  0  0  0  0
    4.5889    9.7546   -2.6114 H   0  0  0  0  0  0  0  0  0  0  0  0
    5.9039   11.8599   -6.0005 H   0  0  0  0  0  0  0  0  0  0  0  0
    7.0542   10.4825   -6.0796 H   0  0  0  0  0  0  0  0  0  0  0  0
    5.2843   10.1757   -6.0796 H   0  0  0  0  0  0  0  0  0  0  0  0
    7.3042   10.4703   -2.4559 H   0  0  0  0  0  0  0  0  0  0  0  0
    7.7548    9.4461   -3.8611 H   0  0  0  0  0  0  0  0  0  0  0  0
    8.1547   11.1973   -3.8611 H   0  0  0  0  0  0  0  0  0  0  0  0
    0.0756   11.5466   -1.7277 H   0  0  0  0  0  0  0  0  0  0  0  0
    1.7045   10.9306   -0.0541 H   0  0  0  0  0  0  0  0  0  0  0  0
    2.9851   10.7188   -1.2675 H   0  0  0  0  0  0  0  0  0  0  0  0
    2.7268   12.9478    0.5032 H   0  0  0  0  0  0  0  0  0  0  0  0
    3.7592   12.9354   -0.9239 H   0  0  0  0  0  0  0  0  0  0  0  0
    0.8793   13.8408    0.7383 H   0  0  0  0  0  0  0  0  0  0  0  0
   -0.0165   14.8099   -0.4803 H   0  0  0  0  0  0  0  0  0  0  0  0
   -0.1531   13.0188   -0.4803 H   0  0  0  0  0  0  0  0  0  0  0  0
    3.2324   14.9438   -2.1702 H   0  0  0  0  0  0  0  0  0  0  0  0
    3.1065   15.3375    0.3720 H   0  0  0  0  0  0  0  0  0  0  0  0
    3.5452   16.7024   -0.7833 H   0  0  0  0  0  0  0  0  0  0  0  0
    1.9037   17.3196    1.1815 H   0  0  0  0  0  0  0  0  0  0  0  0
   -0.5403   16.0037   -1.7499 H   0  0  0  0  0  0  0  0  0  0  0  0
    0.4614   18.7372   -2.7597 H   0  0  0  0  0  0  0  0  0  0  0  0
   -0.6734   17.6035   -3.6189 H   0  0  0  0  0  0  0  0  0  0  0  0
   -1.8629   19.4988   -2.5658 H   0  0  0  0  0  0  0  0  0  0  0  0
   -2.3353   17.8968   -1.8755 H   0  0  0  0  0  0  0  0  0  0  0  0
   -2.0869   19.4686   -0.0771 H   0  0  0  0  0  0  0  0  0  0  0  0
   -0.6910   21.0270   -0.5210 H   0  0  0  0  0  0  0  0  0  0  0  0
   -1.7719   16.9291    1.8079 H   0  0  0  0  0  0  0  0  0  0  0  0
   -2.6510   17.3465    0.2980 H   0  0  0  0  0  0  0  0  0  0  0  0
   -1.4501   16.0107    0.2980 H   0  0  0  0  0  0  0  0  0  0  0  0
   -0.5185   18.0849    2.5190 H   0  0  0  0  0  0  0  0  0  0  0  0
    0.9850   18.6556    1.7187 H   0  0  0  0  0  0  0  0  0  0  0  0
   -0.4817   19.6926    1.7187 H   0  0  0  0  0  0  0  0  0  0  0  0
    2.8633   17.6552   -2.5356 H   0  0  0  0  0  0  0  0  0  0  0  0
    3.0643   16.5368   -3.9268 H   0  0  0  0  0  0  0  0  0  0  0  0
    1.7301   17.7396   -3.9268 H   0  0  0  0  0  0  0  0  0  0  0  0
   -0.1071   15.6739   -4.1318 H   0  0  0  0  0  0  0  0  0  0  0  0
    1.5905   15.0182   -4.4813 H   0  0  0  0  0  0  0  0  0  0  0  0
   -0.5497   13.7717   -2.7340 H   0  0  0  0  0  0  0  0  0  0  0  0
    0.1332   13.1605   -4.2922 H   0  0  0  0  0  0  0  0  0  0  0  0
    3.6117   12.7695   -2.9691 H   0  0  0  0  0  0  0  0  0  0  0  0
    2.5721   11.9745   -4.1995 H   0  0  0  0  0  0  0  0  0  0  0  0
    2.7576   13.7612   -4.1995 H   0  0  0  0  0  0  0  0  0  0  0  0
  1  2  1  0
  2  3  1  0
  3  4  1  0
  4  5  1  0
  5  6  1  0
  6  7  1  0
  7  8  1  0
  7  9  1  0
  2 10  1  0
 10 11  1  0
 11 12  1  0
 12 13  1  0
 13 14  1  1
 13 15  1  0
 15 16  1  0
 16 17  1  0
 17 18  2  0
 18 19  1  0
 19 20  1  0
 20 21  1  0
 21 22  1  0
 22 23  1  0
 22 24  1  0
 24 25  1  0
 24 26  1  0
 19 27  1  0
 27 28  1  6
 27 29  1  0
 29 30  1  0
 30 31  1  0
 31 32  1  6
  7  5  1  0
 31 10  1  0
 31 13  1  0
 27 15  1  0
 24 18  1  0
  1 33  1  0
  1 34  1  0
  1 35  1  0
  2 36  1  6
  3 37  1  0
  3 38  1  0
  4 39  1  0
  4 40  1  0
  5 41  1  1
  8 42  1  0
  8 43  1  0
  8 44  1  0
  9 45  1  0
  9 46  1  0
  9 47  1  0
 10 48  1  1
 11 49  1  0
 11 50  1  0
 12 51  1  0
 12 52  1  0
 14 53  1  0
 14 54  1  0
 14 55  1  0
 15 56  1  6
 16 57  1  0
 16 58  1  0
 17 59  1  0
 19 60  1  1
 20 61  1  0
 20 62  1  0
 21 63  1  0
 21 64  1  0
 22 65  1  1
 23 66  1  0
 25 67  1  0
 25 68  1  0
 25 69  1  0
 26 70  1  0
 26 71  1  0
 26 72  1  0
 28 73  1  0
 28 74  1  0
 28 75  1  0
 29 76  1  0
 29 77  1  0
 30 78  1  0
 30 79  1  0
 32 80  1  0
 32 81  1  0
 32 82  1  0
M  END
>  <meeko>  (10) 
{"is_sidechain": [false], "intermolecular_energy": 2.731, "internal_energy": -0.839}

$$$$
EPH_relaxed_0001_pdb2pqr_Repair_370_r2_0001_out
     RDKit          3D

 82 86  0  0  0  0  0  0  0  0999 V2000
   -0.3570    7.4660   -0.3780 C   0  0  0  0  0  0  0  0  0  0  0  0
   -1.2950    8.6490   -0.6320 C   0  0  2  0  0  0  0  0  0  0  0  0
   -1.8030    8.6850   -2.0870 C   0  0  0  0  0  0  0  0  0  0  0  0
   -2.1730    7.3080   -2.6440 C   0  0  0  0  0  0  0  0  0  0  0  0
   -3.4810    7.3390   -3.3760 C   0  0  2  0  0  0  0  0  0  0  0  0
   -4.6380    7.4050   -2.5320 O   0  0  0  0  0  0  0  0  0  0  0  0
   -4.4960    6.2130   -3.3210 C   0  0  0  0  0  0  0  0  0  0  0  0
   -4.2480    4.9760   -2.5170 C   0  0  0  0  0  0  0  0  0  0  0  0
   -5.4990    6.1000   -4.4270 C   0  0  0  0  0  0  0  0  0  0  0  0
   -0.5860    9.9560   -0.2960 C   0  0  1  0  0  0  0  0  0  0  0  0
    0.4930    9.7840    0.8060 C   0  0  0  0  0  0  0  0  0  0  0  0
    1.6460   10.7610    0.4610 C   0  0  0  0  0  0  0  0  0  0  0  0
    1.0560   11.6910   -0.6250 C   0  0  1  0  0  0  0  0  0  0  0  0
    0.2250   12.7510    0.1640 C   0  0  0  0  0  0  0  0  0  0  0  0
    2.0840   12.3660   -1.5900 C   0  0  2  0  0  0  0  0  0  0  0  0
    3.0890   13.3140   -0.9140 C   0  0  0  0  0  0  0  0  0  0  0  0
    2.6600   14.7420   -0.8260 C   0  0  0  0  0  0  0  0  0  0  0  0
    1.6490   15.2980   -1.5190 C   0  0  0  0  0  0  0  0  0  0  0  0
    0.8800   14.4930   -2.5750 C   0  0  1  0  0  0  0  0  0  0  0  0
    0.7260   15.3420   -3.8630 C   0  0  0  0  0  0  0  0  0  0  0  0
    0.0930   16.7040   -3.5940 C   0  0  0  0  0  0  0  0  0  0  0  0
    0.9180   17.4980   -2.5840 C   0  0  2  0  0  0  0  0  0  0  0  0
    2.1790   17.8260   -3.1740 O   0  0  0  0  0  0  0  0  0  0  0  0
    1.1480   16.7380   -1.2480 C   0  0  0  0  0  0  0  0  0  0  0  0
   -0.1850   16.6490   -0.4640 C   0  0  0  0  0  0  0  0  0  0  0  0
    2.1090   17.5880   -0.3740 C   0  0  0  0  0  0  0  0  0  0  0  0
    1.4320   13.0320   -2.8690 C   0  0  1  0  0  0  0  0  0  0  0  0
    2.5480   13.0940   -3.9570 C   0  0  0  0  0  0  0  0  0  0  0  0
    0.2720   12.1560   -3.4740 C   0  0  0  0  0  0  0  0  0  0  0  0
   -0.6370   11.4190   -2.4710 C   0  0  0  0  0  0  0  0  0  0  0  0
    0.1950   10.6560   -1.4360 C   0  0  2  0  0  0  0  0  0  0  0  0
    1.0250    9.5670   -2.1980 C   0  0  0  0  0  0  0  0  0  0  0  0
   -0.2393    7.3175    0.7056 H   0  0  0  0  0  0  0  0  0  0  0  0
   -0.7827    6.5572   -0.8285 H   0  0  0  0  0  0  0  0  0  0  0  0
    0.6249    7.6733   -0.8285 H   0  0  0  0  0  0  0  0  0  0  0  0
   -2.1712    8.5225    0.0209 H   0  0  0  0  0  0  0  0  0  0  0  0
   -2.6952    9.3271   -2.1275 H   0  0  0  0  0  0  0  0  0  0  0  0
   -0.9794    9.0712   -2.7055 H   0  0  0  0  0  0  0  0  0  0  0  0
   -1.3843    6.9802   -3.3372 H   0  0  0  0  0  0  0  0  0  0  0  0
   -2.2697    6.6109   -1.7986 H   0  0  0  0  0  0  0  0  0  0  0  0
   -3.0247    7.8809   -4.2175 H   0  0  0  0  0  0  0  0  0  0  0  0
   -4.2968    5.2193   -1.4454 H   0  0  0  0  0  0  0  0  0  0  0  0
   -5.0131    4.2230   -2.7572 H   0  0  0  0  0  0  0  0  0  0  0  0
   -3.2518    4.5761   -2.7572 H   0  0  0  0  0  0  0  0  0  0  0  0
   -6.5058    5.9866   -3.9987 H   0  0  0  0  0  0  0  0  0  0  0  0
   -5.4646    7.0077   -5.0474 H   0  0  0  0  0  0  0  0  0  0  0  0
   -5.2635    5.2227   -5.0474 H   0  0  0  0  0  0  0  0  0  0  0  0
   -1.4538   10.5661   -0.0050 H   0  0  0  0  0  0  0  0  0  0  0  0
    0.0704   10.0300    1.7913 H   0  0  0  0  0  0  0  0  0  0  0  0
    0.8543    8.7458    0.8457 H   0  0  0  0  0  0  0  0  0  0  0  0
    1.9436   11.3395    1.3480 H   0  0  0  0  0  0  0  0  0  0  0  0
    2.5489   10.2361    0.1157 H   0  0  0  0  0  0  0  0  0  0  0  0
    0.3532   12.5874    1.2442 H   0  0  0  0  0  0  0  0  0  0  0  0
    0.5749   13.7604   -0.0981 H   0  0  0  0  0  0  0  0  0  0  0  0
   -0.8387   12.6521   -0.0981 H   0  0  0  0  0  0  0  0  0  0  0  0
    2.6743   11.5074   -1.9426 H   0  0  0  0  0  0  0  0  0  0  0  0
    3.2659   12.9487    0.1084 H   0  0  0  0  0  0  0  0  0  0  0  0
    3.9885   13.3052   -1.5471 H   0  0  0  0  0  0  0  0  0  0  0  0
    3.2171   15.3939   -0.1370 H   0  0  0  0  0  0  0  0  0  0  0  0
   -0.1107   14.2908   -2.1418 H   0  0  0  0  0  0  0  0  0  0  0  0
    1.7216   15.4969   -4.3043 H   0  0  0  0  0  0  0  0  0  0  0  0
    0.0609   14.7939   -4.5465 H   0  0  0  0  0  0  0  0  0  0  0  0
    0.0377   17.2680   -4.5368 H   0  0  0  0  0  0  0  0  0  0  0  0
   -0.9142   16.5480   -3.1801 H   0  0  0  0  0  0  0  0  0  0  0  0
    0.3486   18.4055   -2.3345 H   0  0  0  0  0  0  0  0  0  0  0  0
    2.8360   17.1940   -2.8350 H   0  0  0  0  0  0  0  0  0  0  0  0
    0.0232   16.6629    0.6160 H   0  0  0  0  0  0  0  0  0  0  0  0
   -0.8222   17.5066   -0.7256 H   0  0  0  0  0  0  0  0  0  0  0  0
   -0.7026   15.7143   -0.7256 H   0  0  0  0  0  0  0  0  0  0  0  0
    1.8986   17.4019    0.6895 H   0  0  0  0  0  0  0  0  0  0  0  0
    3.1497   17.3094   -0.5961 H   0  0  0  0  0  0  0  0  0  0  0  0
    1.9596   18.6549   -0.5961 H   0  0  0  0  0  0  0  0  0  0  0  0
    3.5326   13.1487   -3.4696 H   0  0  0  0  0  0  0  0  0  0  0  0
    2.4990   12.1917   -4.5843 H   0  0  0  0  0  0  0  0  0  0  0  0
    2.3994   13.9853   -4.5843 H   0  0  0  0  0  0  0  0  0  0  0  0
   -0.3661   12.8190   -4.0767 H   0  0  0  0  0  0  0  0  0  0  0  0
    0.7775   11.3614   -4.0424 H   0  0  0  0  0  0  0  0  0  0  0  0
   -1.2708   12.1535   -1.9526 H   0  0  0  0  0  0  0  0  0  0  0  0
   -1.2570   10.6977   -3.0236 H   0  0  0  0  0  0  0  0  0  0  0  0
    1.5249    8.9111   -1.4701 H   0  0  0  0  0  0  0  0  0  0  0  0
    0.3520    8.9683   -2.8294 H   0  0  0  0  0  0  0  0  0  0  0  0
    1.7807   10.0572   -2.8294 H   0  0  0  0  0  0  0  0  0  0  0  0
  1  2  1  0
  2  3  1  0
  3  4  1  0
  4  5  1  0
  5  6  1  0
  6  7  1  0
  7  8  1  0
  7  9  1  0
  2 10  1  0
 10 11  1  0
 11 12  1  0
 12 13  1  0
 13 14  1  1
 13 15  1  0
 15 16  1  0
 16 17  1  0
 17 18  2  0
 18 19  1  0
 19 20  1  0
 20 21  1  0
 21 22  1  0
 22 23  1  0
 22 24  1  0
 24 25  1  0
 24 26  1  0
 19 27  1  0
 27 28  1  6
 27 29  1  0
 29 30  1  0
 30 31  1  0
 31 32  1  6
  7  5  1  0
 31 10  1  0
 31 13  1  0
 27 15  1  0
 24 18  1  0
  1 33  1  0
  1 34  1  0
  1 35  1  0
  2 36  1  1
  3 37  1  0
  3 38  1  0
  4 39  1  0
  4 40  1  0
  5 41  1  6
  8 42  1  0
  8 43  1  0
  8 44  1  0
  9 45  1  0
  9 46  1  0
  9 47  1  0
 10 48  1  1
 11 49  1  0
 11 50  1  0
 12 51  1  0
 12 52  1  0
 14 53  1  0
 14 54  1  0
 14 55  1  0
 15 56  1  6
 16 57  1  0
 16 58  1  0
 17 59  1  0
 19 60  1  1
 20 61  1  0
 20 62  1  0
 21 63  1  0
 21 64  1  0
 22 65  1  1
 23 66  1  0
 25 67  1  0
 25 68  1  0
 25 69  1  0
 26 70  1  0
 26 71  1  0
 26 72  1  0
 28 73  1  0
 28 74  1  0
 28 75  1  0
 29 76  1  0
 29 77  1  0
 30 78  1  0
 30 79  1  0
 32 80  1  0
 32 81  1  0
 32 82  1  0
M  END
>  <meeko>  (11) 
{"is_sidechain": [false], "intermolecular_energy": 2.731, "internal_energy": -0.839}

$$$$
EPH_relaxed_0001_pdb2pqr_Repair_370_r2_0001_out
     RDKit          3D

 82 86  0  0  0  0  0  0  0  0999 V2000
    2.9170   11.4400   -5.4220 C   0  0  0  0  0  0  0  0  0  0  0  0
    1.9490   11.1260   -4.2780 C   0  0  2  0  0  0  0  0  0  0  0  0
    0.8420   10.1420   -4.7080 C   0  0  0  0  0  0  0  0  0  0  0  0
   -0.2490    9.9450   -3.6520 C   0  0  0  0  0  0  0  0  0  0  0  0
    0.2160    9.0650   -2.5310 C   0  0  2  0  0  0  0  0  0  0  0  0
   -0.7480    8.1030   -2.0860 O   0  0  0  0  0  0  0  0  0  0  0  0
   -0.3710    9.1100   -1.1330 C   0  0  0  0  0  0  0  0  0  0  0  0
   -1.4740   10.0580   -0.7800 C   0  0  0  0  0  0  0  0  0  0  0  0
    0.4490    8.5870    0.0050 C   0  0  0  0  0  0  0  0  0  0  0  0
    1.3260   12.4160   -3.7570 C   0  0  1  0  0  0  0  0  0  0  0  0
   -0.2160   12.3180   -3.6100 C   0  0  0  0  0  0  0  0  0  0  0  0
   -0.6020   13.1630   -2.3690 C   0  0  0  0  0  0  0  0  0  0  0  0
    0.6690   13.9800   -2.0430 C   0  0  1  0  0  0  0  0  0  0  0  0
    0.6350   15.1870   -3.0320 C   0  0  0  0  0  0  0  0  0  0  0  0
    0.8250   14.4530   -0.5610 C   0  0  2  0  0  0  0  0  0  0  0  0
   -0.2690   15.4130   -0.0630 C   0  0  0  0  0  0  0  0  0  0  0  0
    0.0170   16.8650   -0.2610 C   0  0  0  0  0  0  0  0  0  0  0  0
    1.2210   17.3920   -0.5530 C   0  0  0  0  0  0  0  0  0  0  0  0
    2.4730   16.5080   -0.6160 C   0  0  1  0  0  0  0  0  0  0  0  0
    3.6280   17.1900    0.1640 C   0  0  0  0  0  0  0  0  0  0  0  0
    3.8940   18.6140   -0.3130 C   0  0  0  0  0  0  0  0  0  0  0  0
    2.6420   19.4770   -0.1810 C   0  0  2  0  0  0  0  0  0  0  0  0
    2.3390   19.6400    1.2080 O   0  0  0  0  0  0  0  0  0  0  0  0
    1.4090   18.8850   -0.9190 C   0  0  0  0  0  0  0  0  0  0  0  0
    1.6200   18.9880   -2.4490 C   0  0  0  0  0  0  0  0  0  0  0  0
    0.1810   19.7760   -0.5880 C   0  0  0  0  0  0  0  0  0  0  0  0
    2.2700   14.9870   -0.2000 C   0  0  1  0  0  0  0  0  0  0  0  0
    2.4300   14.8320    1.3440 C   0  0  0  0  0  0  0  0  0  0  0  0
    3.4100   14.1190   -0.8530 C   0  0  0  0  0  0  0  0  0  0  0  0
    3.1470   13.5820   -2.2720 C   0  0  0  0  0  0  0  0  0  0  0  0
    1.7740   12.9070   -2.3570 C   0  0  2  0  0  0  0  0  0  0  0  0
    1.7860   11.6750   -1.3890 C   0  0  0  0  0  0  0  0  0  0  0  0
    3.8859   11.7543   -5.0067 H   0  0  0  0  0  0  0  0  0  0  0  0
    3.0574   10.5413   -6.0406 H   0  0  0  0  0  0  0  0  0  0  0  0
    2.5032   12.2500   -6.0406 H   0  0  0  0  0  0  0  0  0  0  0  0
    2.5275   10.6422   -3.4772 H   0  0  0  0  0  0  0  0  0  0  0  0
    0.3723   10.5266   -5.6253 H   0  0  0  0  0  0  0  0  0  0  0  0
    1.3221    9.1642   -4.8612 H   0  0  0  0  0  0  0  0  0  0  0  0
   -0.5293   10.9264   -3.2418 H   0  0  0  0  0  0  0  0  0  0  0  0
   -1.1095    9.4588   -4.1349 H   0  0  0  0  0  0  0  0  0  0  0  0
    1.2523    9.1064   -2.8974 H   0  0  0  0  0  0  0  0  0  0  0  0
   -1.5587   10.1308    0.3143 H   0  0  0  0  0  0  0  0  0  0  0  0
   -1.2516   11.0511   -1.1974 H   0  0  0  0  0  0  0  0  0  0  0  0
   -2.4224    9.6888   -1.1974 H   0  0  0  0  0  0  0  0  0  0  0  0
   -0.0149    8.8828    0.9575 H   0  0  0  0  0  0  0  0  0  0  0  0
    0.4992    7.4897   -0.0532 H   0  0  0  0  0  0  0  0  0  0  0  0
    1.4652    9.0042   -0.0532 H   0  0  0  0  0  0  0  0  0  0  0  0
    1.6749   13.1151   -4.5313 H   0  0  0  0  0  0  0  0  0  0  0  0
   -0.7083   12.7181   -4.5086 H   0  0  0  0  0  0  0  0  0  0  0  0
   -0.5355   11.2722   -3.4905 H   0  0  0  0  0  0  0  0  0  0  0  0
   -1.4444   13.8313   -2.6010 H   0  0  0  0  0  0  0  0  0  0  0  0
   -0.9248   12.5384   -1.5230 H   0  0  0  0  0  0  0  0  0  0  0  0
    0.6085   16.1274   -2.4620 H   0  0  0  0  0  0  0  0  0  0  0  0
    1.5341   15.1674   -3.6655 H   0  0  0  0  0  0  0  0  0  0  0  0
   -0.2615   15.1168   -3.6655 H   0  0  0  0  0  0  0  0  0  0  0  0
    0.6799   13.5184    0.0006 H   0  0  0  0  0  0  0  0  0  0  0  0
   -1.1999   15.1741   -0.5981 H   0  0  0  0  0  0  0  0  0  0  0  0
   -0.3341   15.2616    1.0246 H   0  0  0  0  0  0  0  0  0  0  0  0
   -0.8271   17.5630   -0.1598 H   0  0  0  0  0  0  0  0  0  0  0  0
    2.7368   16.4298   -1.6810 H   0  0  0  0  0  0  0  0  0  0  0  0
    3.3638   17.2191    1.2314 H   0  0  0  0  0  0  0  0  0  0  0  0
    4.5416   16.6029   -0.0107 H   0  0  0  0  0  0  0  0  0  0  0  0
    4.6991   19.0526    0.2947 H   0  0  0  0  0  0  0  0  0  0  0  0
    4.1866   18.5801   -1.3728 H   0  0  0  0  0  0  0  0  0  0  0  0
    2.8570   20.4451   -0.6570 H   0  0  0  0  0  0  0  0  0  0  0  0
    2.4270   20.5850    1.4200 H   0  0  0  0  0  0  0  0  0  0  0  0
    2.5912   19.4621   -2.6541 H   0  0  0  0  0  0  0  0  0  0  0  0
    1.6034   17.9804   -2.8901 H   0  0  0  0  0  0  0  0  0  0  0  0
    0.8154   19.5947   -2.8901 H   0  0  0  0  0  0  0  0  0  0  0  0
    0.0700   19.8566    0.5034 H   0  0  0  0  0  0  0  0  0  0  0  0
    0.3290   20.7782   -1.0165 H   0  0  0  0  0  0  0  0  0  0  0  0
   -0.7259   19.3243   -1.0165 H   0  0  0  0  0  0  0  0  0  0  0  0
    1.7304   15.5098    1.8550 H   0  0  0  0  0  0  0  0  0  0  0  0
    2.2113   13.7934    1.6329 H   0  0  0  0  0  0  0  0  0  0  0  0
    3.4612   15.0835    1.6329 H   0  0  0  0  0  0  0  0  0  0  0  0
    4.3178   14.7388   -0.8947 H   0  0  0  0  0  0  0  0  0  0  0  0
    3.4911   13.2250   -0.2173 H   0  0  0  0  0  0  0  0  0  0  0  0
    3.1816   14.4185   -2.9855 H   0  0  0  0  0  0  0  0  0  0  0  0
    3.9196   12.8374   -2.5141 H   0  0  0  0  0  0  0  0  0  0  0  0
    1.7826   12.0274   -0.3470 H   0  0  0  0  0  0  0  0  0  0  0  0
    0.8938   11.0576   -1.5702 H   0  0  0  0  0  0  0  0  0  0  0  0
    2.6900   11.0751   -1.5702 H   0  0  0  0  0  0  0  0  0  0  0  0
  1  2  1  0
  2  3  1  0
  3  4  1  0
  4  5  1  0
  5  6  1  0
  6  7  1  0
  7  8  1  0
  7  9  1  0
  2 10  1  0
 10 11  1  0
 11 12  1  0
 12 13  1  0
 13 14  1  6
 13 15  1  0
 15 16  1  0
 16 17  1  0
 17 18  2  0
 18 19  1  0
 19 20  1  0
 20 21  1  0
 21 22  1  0
 22 23  1  0
 22 24  1  0
 24 25  1  0
 24 26  1  0
 19 27  1  0
 27 28  1  1
 27 29  1  0
 29 30  1  0
 30 31  1  0
 31 32  1  1
  7  5  1  0
 31 10  1  0
 31 13  1  0
 27 15  1  0
 24 18  1  0
  1 33  1  0
  1 34  1  0
  1 35  1  0
  2 36  1  1
  3 37  1  0
  3 38  1  0
  4 39  1  0
  4 40  1  0
  5 41  1  1
  8 42  1  0
  8 43  1  0
  8 44  1  0
  9 45  1  0
  9 46  1  0
  9 47  1  0
 10 48  1  6
 11 49  1  0
 11 50  1  0
 12 51  1  0
 12 52  1  0
 14 53  1  0
 14 54  1  0
 14 55  1  0
 15 56  1  1
 16 57  1  0
 16 58  1  0
 17 59  1  0
 19 60  1  6
 20 61  1  0
 20 62  1  0
 21 63  1  0
 21 64  1  0
 22 65  1  6
 23 66  1  0
 25 67  1  0
 25 68  1  0
 25 69  1  0
 26 70  1  0
 26 71  1  0
 26 72  1  0
 28 73  1  0
 28 74  1  0
 28 75  1  0
 29 76  1  0
 29 77  1  0
 30 78  1  0
 30 79  1  0
 32 80  1  0
 32 81  1  0
 32 82  1  0
M  END
>  <meeko>  (12) 
{"is_sidechain": [false], "intermolecular_energy": 2.731, "internal_energy": -0.839}

$$$$
EPH_relaxed_0001_pdb2pqr_Repair_370_r2_0001_out
     RDKit          3D

 82 86  0  0  0  0  0  0  0  0999 V2000
    0.7600    9.3900   -0.0610 C   0  0  0  0  0  0  0  0  0  0  0  0
   -0.4310   10.3520   -0.1050 C   0  0  2  0  0  0  0  0  0  0  0  0
   -1.0800   10.4100   -1.5020 C   0  0  0  0  0  0  0  0  0  0  0  0
   -0.2280    9.7720   -2.6030 C   0  0  0  0  0  0  0  0  0  0  0  0
   -0.0810   10.6790   -3.7870 C   0  0  2  0  0  0  0  0  0  0  0  0
    0.5210   10.0710   -4.9370 O   0  0  0  0  0  0  0  0  0  0  0  0
    1.2600   11.1410   -4.3260 C   0  0  0  0  0  0  0  0  0  0  0  0
    2.5460   10.7090   -3.6930 C   0  0  0  0  0  0  0  0  0  0  0  0
    1.3080   12.3880   -5.1520 C   0  0  0  0  0  0  0  0  0  0  0  0
    0.0110   11.7470    0.3220 C   0  0  1  0  0  0  0  0  0  0  0  0
    1.1260   11.7150    1.4010 C   0  0  0  0  0  0  0  0  0  0  0  0
    2.0540   12.9260    1.1210 C   0  0  0  0  0  0  0  0  0  0  0  0
    1.2680   13.7940    0.1110 C   0  0  1  0  0  0  0  0  0  0  0  0
    0.2600   14.6080    0.9820 C   0  0  0  0  0  0  0  0  0  0  0  0
    2.1210   14.7270   -0.8090 C   0  0  2  0  0  0  0  0  0  0  0  0
    2.9320   15.8070   -0.0710 C   0  0  0  0  0  0  0  0  0  0  0  0
    2.2290   17.1100    0.1250 C   0  0  0  0  0  0  0  0  0  0  0  0
    1.1130   17.5010   -0.5190 C   0  0  0  0  0  0  0  0  0  0  0  0
    0.4980   16.6350   -1.6250 C   0  0  1  0  0  0  0  0  0  0  0  0
    0.1500   17.5260   -2.8470 C   0  0  0  0  0  0  0  0  0  0  0  0
   -0.7350   18.7110   -2.4730 C   0  0  0  0  0  0  0  0  0  0  0  0
   -0.0630   19.5800   -1.4130 C   0  0  2  0  0  0  0  0  0  0  0  0
    1.0950   20.1940   -1.9860 O   0  0  0  0  0  0  0  0  0  0  0  0
    0.3420   18.7880   -0.1380 C   0  0  0  0  0  0  0  0  0  0  0  0
   -0.9290   18.3790    0.6460 C   0  0  0  0  0  0  0  0  0  0  0  0
    1.1340   19.7490    0.7890 C   0  0  0  0  0  0  0  0  0  0  0  0
    1.3220   15.3380   -2.0310 C   0  0  1  0  0  0  0  0  0  0  0  0
    2.3800   15.6990   -3.1180 C   0  0  0  0  0  0  0  0  0  0  0  0
    0.3460   14.2940   -2.6900 C   0  0  0  0  0  0  0  0  0  0  0  0
   -0.3760   13.3210   -1.7390 C   0  0  0  0  0  0  0  0  0  0  0  0
    0.6130   12.6670   -0.7690 C   0  0  2  0  0  0  0  0  0  0  0  0
    1.6260   11.8240   -1.6140 C   0  0  0  0  0  0  0  0  0  0  0  0
    1.0219    9.1784    0.9862 H   0  0  0  0  0  0  0  0  0  0  0  0
    0.4924    8.4516   -0.5688 H   0  0  0  0  0  0  0  0  0  0  0  0
    1.6211    9.8490   -0.5688 H   0  0  0  0  0  0  0  0  0  0  0  0
   -1.1890    9.9714    0.5954 H   0  0  0  0  0  0  0  0  0  0  0  0
   -2.0442    9.8824   -1.4593 H   0  0  0  0  0  0  0  0  0  0  0  0
   -1.1948   11.4733   -1.7595 H   0  0  0  0  0  0  0  0  0  0  0  0
    0.7703    9.5505   -2.1977 H   0  0  0  0  0  0  0  0  0  0  0  0
   -0.7315    8.8526   -2.9363 H   0  0  0  0  0  0  0  0  0  0  0  0
   -0.9931   11.2274   -3.5090 H   0  0  0  0  0  0  0  0  0  0  0  0
    2.4453   10.7428   -2.5981 H   0  0  0  0  0  0  0  0  0  0  0  0
    2.7828    9.6820   -4.0079 H   0  0  0  0  0  0  0  0  0  0  0  0
    3.3548   11.3848   -4.0079 H   0  0  0  0  0  0  0  0  0  0  0  0
    1.3418   13.2655   -4.4896 H   0  0  0  0  0  0  0  0  0  0  0  0
    2.2062   12.3730   -5.7868 H   0  0  0  0  0  0  0  0  0  0  0  0
    0.4113   12.4421   -5.7868 H   0  0  0  0  0  0  0  0  0  0  0  0
   -0.9537   12.1505    0.6634 H   0  0  0  0  0  0  0  0  0  0  0  0
    0.6844   11.8002    2.4048 H   0  0  0  0  0  0  0  0  0  0  0  0
    1.6871   10.7697    1.3614 H   0  0  0  0  0  0  0  0  0  0  0  0
    2.2494   13.4877    2.0464 H   0  0  0  0  0  0  0  0  0  0  0  0
    3.0356   12.6182    0.7315 H   0  0  0  0  0  0  0  0  0  0  0  0
    0.4734   14.4357    2.0472 H   0  0  0  0  0  0  0  0  0  0  0  0
    0.3625   15.6797    0.7562 H   0  0  0  0  0  0  0  0  0  0  0  0
   -0.7661   14.2822    0.7562 H   0  0  0  0  0  0  0  0  0  0  0  0
    2.8627   14.0312   -1.2282 H   0  0  0  0  0  0  0  0  0  0  0  0
    3.1998   15.4128    0.9204 H   0  0  0  0  0  0  0  0  0  0  0  0
    3.8017   16.0234   -0.7088 H   0  0  0  0  0  0  0  0  0  0  0  0
    2.6592   17.8092    0.8572 H   0  0  0  0  0  0  0  0  0  0  0  0
   -0.4220   16.2078   -1.1994 H   0  0  0  0  0  0  0  0  0  0  0  0
    1.0850   17.9078   -3.2829 H   0  0  0  0  0  0  0  0  0  0  0  0
   -0.4073   16.9061   -3.5647 H   0  0  0  0  0  0  0  0  0  0  0  0
   -0.9220   19.3183   -3.3709 H   0  0  0  0  0  0  0  0  0  0  0  0
   -1.6815   18.3274   -2.0644 H   0  0  0  0  0  0  0  0  0  0  0  0
   -0.7957   20.3356   -1.0933 H   0  0  0  0  0  0  0  0  0  0  0  0
    1.2920   20.9930   -1.4680 H   0  0  0  0  0  0  0  0  0  0  0  0
   -0.7301   18.4430    1.7260 H   0  0  0  0  0  0  0  0  0  0  0  0
   -1.7551   19.0567    0.3845 H   0  0  0  0  0  0  0  0  0  0  0  0
   -1.2048   17.3467    0.3845 H   0  0  0  0  0  0  0  0  0  0  0  0
    0.9272   19.4981    1.8398 H   0  0  0  0  0  0  0  0  0  0  0  0
    2.2111   19.6437    0.5920 H   0  0  0  0  0  0  0  0  0  0  0  0
    0.8249   20.7861    0.5920 H   0  0  0  0  0  0  0  0  0  0  0  0
    3.3130   16.0174   -2.6301 H   0  0  0  0  0  0  0  0  0  0  0  0
    2.5767   14.8171   -3.7454 H   0  0  0  0  0  0  0  0  0  0  0  0
    1.9966   16.5172   -3.7454 H   0  0  0  0  0  0  0  0  0  0  0  0
   -0.4242   14.8577   -3.2368 H   0  0  0  0  0  0  0  0  0  0  0  0
    0.9867   13.6588   -3.3193 H   0  0  0  0  0  0  0  0  0  0  0  0
   -1.1318   13.8752   -1.1630 H   0  0  0  0  0  0  0  0  0  0  0  0
   -0.8519   12.5319   -2.3397 H   0  0  0  0  0  0  0  0  0  0  0  0
    2.2935   11.2685   -0.9389 H   0  0  0  0  0  0  0  0  0  0  0  0
    1.0736   11.1152   -2.2484 H   0  0  0  0  0  0  0  0  0  0  0  0
    2.2226   12.4960   -2.2484 H   0  0  0  0  0  0  0  0  0  0  0  0
  1  2  1  0
  2  3  1  0
  3  4  1  0
  4  5  1  0
  5  6  1  0
  6  7  1  0
  7  8  1  0
  7  9  1  0
  2 10  1  0
 10 11  1  0
 11 12  1  0
 12 13  1  0
 13 14  1  1
 13 15  1  0
 15 16  1  0
 16 17  1  0
 17 18  2  0
 18 19  1  0
 19 20  1  0
 20 21  1  0
 21 22  1  0
 22 23  1  0
 22 24  1  0
 24 25  1  0
 24 26  1  0
 19 27  1  0
 27 28  1  6
 27 29  1  0
 29 30  1  0
 30 31  1  0
 31 32  1  6
  7  5  1  0
 31 10  1  0
 31 13  1  0
 27 15  1  0
 24 18  1  0
  1 33  1  0
  1 34  1  0
  1 35  1  0
  2 36  1  1
  3 37  1  0
  3 38  1  0
  4 39  1  0
  4 40  1  0
  5 41  1  6
  8 42  1  0
  8 43  1  0
  8 44  1  0
  9 45  1  0
  9 46  1  0
  9 47  1  0
 10 48  1  1
 11 49  1  0
 11 50  1  0
 12 51  1  0
 12 52  1  0
 14 53  1  0
 14 54  1  0
 14 55  1  0
 15 56  1  6
 16 57  1  0
 16 58  1  0
 17 59  1  0
 19 60  1  1
 20 61  1  0
 20 62  1  0
 21 63  1  0
 21 64  1  0
 22 65  1  1
 23 66  1  0
 25 67  1  0
 25 68  1  0
 25 69  1  0
 26 70  1  0
 26 71  1  0
 26 72  1  0
 28 73  1  0
 28 74  1  0
 28 75  1  0
 29 76  1  0
 29 77  1  0
 30 78  1  0
 30 79  1  0
 32 80  1  0
 32 81  1  0
 32 82  1  0
M  END
>  <meeko>  (13) 
{"is_sidechain": [false], "intermolecular_energy": 2.731, "internal_energy": -0.839}

$$$$
EPH_relaxed_0001_pdb2pqr_Repair_370_r2_0001_out
     RDKit          3D

 82 86  0  0  0  0  0  0  0  0999 V2000
   -1.7420   14.8590    0.3680 C   0  0  0  0  0  0  0  0  0  0  0  0
   -0.3820   15.5520    0.2450 C   0  0  2  0  0  0  0  0  0  0  0  0
   -0.3710   16.6150   -0.8720 C   0  0  0  0  0  0  0  0  0  0  0  0
    0.0090   18.0160   -0.3850 C   0  0  0  0  0  0  0  0  0  0  0  0
    1.4540   18.0950    0.0030 C   0  0  2  0  0  0  0  0  0  0  0  0
    2.1140   19.3060   -0.3890 O   0  0  0  0  0  0  0  0  0  0  0  0
    2.5920   18.0970   -1.0010 C   0  0  0  0  0  0  0  0  0  0  0  0
    2.3330   18.0170   -2.4730 C   0  0  0  0  0  0  0  0  0  0  0  0
    3.9550   17.6850   -0.5400 C   0  0  0  0  0  0  0  0  0  0  0  0
    0.7080   14.5180   -0.0090 C   0  0  1  0  0  0  0  0  0  0  0  0
    0.8340   13.4870    1.1450 C   0  0  0  0  0  0  0  0  0  0  0  0
    1.2100   12.1310    0.4940 C   0  0  0  0  0  0  0  0  0  0  0  0
    1.6100   12.4920   -0.9550 C   0  0  1  0  0  0  0  0  0  0  0  0
    3.0850   12.9930   -0.8510 C   0  0  0  0  0  0  0  0  0  0  0  0
    1.4620   11.3530   -2.0170 C   0  0  2  0  0  0  0  0  0  0  0  0
    2.3430   10.1150   -1.7740 C   0  0  0  0  0  0  0  0  0  0  0  0
    3.6900   10.1550   -2.4170 C   0  0  0  0  0  0  0  0  0  0  0  0
    4.0680   11.0070   -3.3880 C   0  0  0  0  0  0  0  0  0  0  0  0
    3.0660   11.9910   -4.0070 C   0  0  1  0  0  0  0  0  0  0  0  0
    3.1950   11.9590   -5.5520 C   0  0  0  0  0  0  0  0  0  0  0  0
    4.6240   12.2060   -6.0250 C   0  0  0  0  0  0  0  0  0  0  0  0
    5.5810   11.1730   -5.4360 C   0  0  2  0  0  0  0  0  0  0  0  0
    5.2650    9.8880   -5.9810 O   0  0  0  0  0  0  0  0  0  0  0  0
    5.5310   11.1080   -3.8840 C   0  0  0  0  0  0  0  0  0  0  0  0
    6.1590   12.3930   -3.2890 C   0  0  0  0  0  0  0  0  0  0  0  0
    6.4360    9.9310   -3.4260 C   0  0  0  0  0  0  0  0  0  0  0  0
    1.5610   11.8480   -3.5170 C   0  0  1  0  0  0  0  0  0  0  0  0
    0.8170   10.7890   -4.3850 C   0  0  0  0  0  0  0  0  0  0  0  0
    0.8140   13.2150   -3.7460 C   0  0  0  0  0  0  0  0  0  0  0  0
    0.8980   14.2530   -2.6110 C   0  0  0  0  0  0  0  0  0  0  0  0
    0.5560   13.6170   -1.2600 C   0  0  2  0  0  0  0  0  0  0  0  0
   -0.9300   13.1230   -1.3270 C   0  0  0  0  0  0  0  0  0  0  0  0
   -1.9934   14.7309    1.4312 H   0  0  0  0  0  0  0  0  0  0  0  0
   -2.5125   15.4744   -0.1194 H   0  0  0  0  0  0  0  0  0  0  0  0
   -1.6970   13.8739   -0.1194 H   0  0  0  0  0  0  0  0  0  0  0  0
   -0.1878   16.0701    1.1957 H   0  0  0  0  0  0  0  0  0  0  0  0
    0.3543   16.3054   -1.6389 H   0  0  0  0  0  0  0  0  0  0  0  0
   -1.3963   16.6786   -1.2652 H   0  0  0  0  0  0  0  0  0  0  0  0
   -0.1834   18.7383   -1.1920 H   0  0  0  0  0  0  0  0  0  0  0  0
   -0.5976   18.2464    0.5032 H   0  0  0  0  0  0  0  0  0  0  0  0
    1.2681   17.4950    0.9061 H   0  0  0  0  0  0  0  0  0  0  0  0
    1.2950   17.6964   -2.6458 H   0  0  0  0  0  0  0  0  0  0  0  0
    2.4917   19.0060   -2.9275 H   0  0  0  0  0  0  0  0  0  0  0  0
    3.0219   17.2898   -2.9275 H   0  0  0  0  0  0  0  0  0  0  0  0
    3.9831   17.6765    0.5596 H   0  0  0  0  0  0  0  0  0  0  0  0
    4.1819   16.6781   -0.9204 H   0  0  0  0  0  0  0  0  0  0  0  0
    4.7017   18.3976   -0.9204 H   0  0  0  0  0  0  0  0  0  0  0  0
    1.5725   15.1874   -0.1299 H   0  0  0  0  0  0  0  0  0  0  0  0
    1.6194   13.8001    1.8487 H   0  0  0  0  0  0  0  0  0  0  0  0
   -0.1076   13.4073    1.7081 H   0  0  0  0  0  0  0  0  0  0  0  0
    2.0534   11.6657    1.0253 H   0  0  0  0  0  0  0  0  0  0  0  0
    0.3826   11.4070    0.5304 H   0  0  0  0  0  0  0  0  0  0  0  0
    3.3660   13.0884    0.2082 H   0  0  0  0  0  0  0  0  0  0  0  0
    3.7530   12.2713   -1.3440 H   0  0  0  0  0  0  0  0  0  0  0  0
    3.1753   13.9722   -1.3440 H   0  0  0  0  0  0  0  0  0  0  0  0
    0.4263   11.0175   -1.8595 H   0  0  0  0  0  0  0  0  0  0  0  0
    2.4874   10.0082   -0.6888 H   0  0  0  0  0  0  0  0  0  0  0  0
    1.8116    9.2683   -2.2330 H   0  0  0  0  0  0  0  0  0  0  0  0
    4.4365    9.4266   -2.0676 H   0  0  0  0  0  0  0  0  0  0  0  0
    3.3452   12.9860   -3.6302 H   0  0  0  0  0  0  0  0  0  0  0  0
    2.8699   10.9719   -5.9126 H   0  0  0  0  0  0  0  0  0  0  0  0
    2.5654   12.7653   -5.9563 H   0  0  0  0  0  0  0  0  0  0  0  0
    4.6559   12.1413   -7.1226 H   0  0  0  0  0  0  0  0  0  0  0  0
    4.9368   13.2056   -5.6888 H   0  0  0  0  0  0  0  0  0  0  0  0
    6.6029   11.4784   -5.7053 H   0  0  0  0  0  0  0  0  0  0  0  0
    5.0460    9.2990   -5.2400 H   0  0  0  0  0  0  0  0  0  0  0  0
    6.1327   12.3393   -2.1906 H   0  0  0  0  0  0  0  0  0  0  0  0
    7.2020   12.4817   -3.6269 H   0  0  0  0  0  0  0  0  0  0  0  0
    5.5882   13.2705   -3.6269 H   0  0  0  0  0  0  0  0  0  0  0  0
    6.4632    9.8956   -2.3269 H   0  0  0  0  0  0  0  0  0  0  0  0
    6.0307    8.9846   -3.8134 H   0  0  0  0  0  0  0  0  0  0  0  0
    7.4547   10.0795   -3.8134 H   0  0  0  0  0  0  0  0  0  0  0  0
    0.3099   10.0672   -3.7279 H   0  0  0  0  0  0  0  0  0  0  0  0
    0.0731   11.2925   -5.0199 H   0  0  0  0  0  0  0  0  0  0  0  0
    1.5429   10.2599   -5.0199 H   0  0  0  0  0  0  0  0  0  0  0  0
    1.2359   13.6769   -4.6508 H   0  0  0  0  0  0  0  0  0  0  0  0
   -0.2517   12.9516   -3.8158 H   0  0  0  0  0  0  0  0  0  0  0  0
    1.9196   14.6588   -2.5694 H   0  0  0  0  0  0  0  0  0  0  0  0
    0.1731   15.0549   -2.8147 H   0  0  0  0  0  0  0  0  0  0  0  0
   -1.3197   12.9935   -0.3065 H   0  0  0  0  0  0  0  0  0  0  0  0
   -1.5399   13.8667   -1.8607 H   0  0  0  0  0  0  0  0  0  0  0  0
   -0.9733   12.1621   -1.8607 H   0  0  0  0  0  0  0  0  0  0  0  0
  1  2  1  0
  2  3  1  0
  3  4  1  0
  4  5  1  0
  5  6  1  0
  6  7  1  0
  7  8  1  0
  7  9  1  0
  2 10  1  0
 10 11  1  0
 11 12  1  0
 12 13  1  0
 13 14  1  1
 13 15  1  0
 15 16  1  0
 16 17  1  0
 17 18  2  0
 18 19  1  0
 19 20  1  0
 20 21  1  0
 21 22  1  0
 22 23  1  0
 22 24  1  0
 24 25  1  0
 24 26  1  0
 19 27  1  0
 27 28  1  6
 27 29  1  0
 29 30  1  0
 30 31  1  0
 31 32  1  6
  7  5  1  0
 31 10  1  0
 31 13  1  0
 27 15  1  0
 24 18  1  0
  1 33  1  0
  1 34  1  0
  1 35  1  0
  2 36  1  1
  3 37  1  0
  3 38  1  0
  4 39  1  0
  4 40  1  0
  5 41  1  1
  8 42  1  0
  8 43  1  0
  8 44  1  0
  9 45  1  0
  9 46  1  0
  9 47  1  0
 10 48  1  6
 11 49  1  0
 11 50  1  0
 12 51  1  0
 12 52  1  0
 14 53  1  0
 14 54  1  0
 14 55  1  0
 15 56  1  6
 16 57  1  0
 16 58  1  0
 17 59  1  0
 19 60  1  1
 20 61  1  0
 20 62  1  0
 21 63  1  0
 21 64  1  0
 22 65  1  1
 23 66  1  0
 25 67  1  0
 25 68  1  0
 25 69  1  0
 26 70  1  0
 26 71  1  0
 26 72  1  0
 28 73  1  0
 28 74  1  0
 28 75  1  0
 29 76  1  0
 29 77  1  0
 30 78  1  0
 30 79  1  0
 32 80  1  0
 32 81  1  0
 32 82  1  0
M  END
>  <meeko>  (14) 
{"is_sidechain": [false], "intermolecular_energy": 2.731, "internal_energy": -0.839}

$$$$
EPH_relaxed_0001_pdb2pqr_Repair_370_r2_0001_out
     RDKit          3D

 82 86  0  0  0  0  0  0  0  0999 V2000
    3.1170   14.8460   -7.5500 C   0  0  0  0  0  0  0  0  0  0  0  0
    1.5930   14.8780   -7.4070 C   0  0  2  0  0  0  0  0  0  0  0  0
    0.9720   16.1200   -8.0790 C   0  0  0  0  0  0  0  0  0  0  0  0
    1.8950   16.7950   -9.0970 C   0  0  0  0  0  0  0  0  0  0  0  0
    1.5680   16.3840  -10.5000 C   0  0  2  0  0  0  0  0  0  0  0  0
    0.9890   15.0780  -10.6230 O   0  0  0  0  0  0  0  0  0  0  0  0
    2.2780   15.2600  -11.2310 C   0  0  0  0  0  0  0  0  0  0  0  0
    3.3740   14.4760  -10.5790 C   0  0  0  0  0  0  0  0  0  0  0  0
    2.2460   15.2460  -12.7270 C   0  0  0  0  0  0  0  0  0  0  0  0
    1.2080   14.8370   -5.9330 C   0  0  1  0  0  0  0  0  0  0  0  0
   -0.0510   15.6890   -5.6200 C   0  0  0  0  0  0  0  0  0  0  0  0
   -0.8260   14.9470   -4.5010 C   0  0  0  0  0  0  0  0  0  0  0  0
    0.1670   13.8820   -3.9790 C   0  0  1  0  0  0  0  0  0  0  0  0
    1.1000   14.6530   -2.9940 C   0  0  0  0  0  0  0  0  0  0  0  0
   -0.4640   12.6190   -3.3060 C   0  0  2  0  0  0  0  0  0  0  0  0
   -1.2830   12.8980   -2.0340 C   0  0  0  0  0  0  0  0  0  0  0  0
   -0.5130   12.8470   -0.7560 C   0  0  0  0  0  0  0  0  0  0  0  0
    0.7130   12.3130   -0.6020 C   0  0  0  0  0  0  0  0  0  0  0  0
    1.4100   11.5950   -1.7650 C   0  0  1  0  0  0  0  0  0  0  0  0
    2.0030   10.2520   -1.2630 C   0  0  0  0  0  0  0  0  0  0  0  0
    2.9180   10.4320   -0.0550 C   0  0  0  0  0  0  0  0  0  0  0  0
    2.1720   11.0960    1.1000 C   0  0  2  0  0  0  0  0  0  0  0  0
    1.1640   10.1980    1.5740 O   0  0  0  0  0  0  0  0  0  0  0  0
    1.5230   12.4530    0.7100 C   0  0  0  0  0  0  0  0  0  0  0  0
    2.6290   13.5140    0.4870 C   0  0  0  0  0  0  0  0  0  0  0  0
    0.6850   12.9470    1.9200 C   0  0  0  0  0  0  0  0  0  0  0  0
    0.5500   11.4250   -3.0900 C   0  0  1  0  0  0  0  0  0  0  0  0
   -0.3050   10.1240   -3.0060 C   0  0  0  0  0  0  0  0  0  0  0  0
    1.5240   11.2380   -4.3140 C   0  0  0  0  0  0  0  0  0  0  0  0
    2.0180   12.5200   -5.0110 C   0  0  0  0  0  0  0  0  0  0  0  0
    0.8490   13.4560   -5.3300 C   0  0  2  0  0  0  0  0  0  0  0  0
   -0.0970   12.7160   -6.3360 C   0  0  0  0  0  0  0  0  0  0  0  0
    3.5788   14.8363   -6.5517 H   0  0  0  0  0  0  0  0  0  0  0  0
    3.4147   13.9414   -8.1005 H   0  0  0  0  0  0  0  0  0  0  0  0
    3.4524   15.7373   -8.1005 H   0  0  0  0  0  0  0  0  0  0  0  0
    1.1943   13.9906   -7.9204 H   0  0  0  0  0  0  0  0  0  0  0  0
    0.0514   15.8113   -8.5960 H   0  0  0  0  0  0  0  0  0  0  0  0
    0.7801   16.8542   -7.2827 H   0  0  0  0  0  0  0  0  0  0  0  0
    1.7841   17.8859   -9.0102 H   0  0  0  0  0  0  0  0  0  0  0  0
    2.9281   16.4851   -8.8811 H   0  0  0  0  0  0  0  0  0  0  0  0
    1.3543   17.4263  -10.7792 H   0  0  0  0  0  0  0  0  0  0  0  0
    3.2751   14.5468   -9.4857 H   0  0  0  0  0  0  0  0  0  0  0  0
    3.3036   13.4221  -10.8861 H   0  0  0  0  0  0  0  0  0  0  0  0
    4.3487   14.8831  -10.8861 H   0  0  0  0  0  0  0  0  0  0  0  0
    1.2883   14.8270  -13.0694 H   0  0  0  0  0  0  0  0  0  0  0  0
    2.3531   16.2732  -13.1057 H   0  0  0  0  0  0  0  0  0  0  0  0
    3.0731   14.6275  -13.1057 H   0  0  0  0  0  0  0  0  0  0  0  0
    2.1423   15.2102   -5.4882 H   0  0  0  0  0  0  0  0  0  0  0  0
    0.2455   16.6906   -5.2753 H   0  0  0  0  0  0  0  0  0  0  0  0
   -0.6758   15.8148   -6.5166 H   0  0  0  0  0  0  0  0  0  0  0  0
   -1.1076   15.6426   -3.6968 H   0  0  0  0  0  0  0  0  0  0  0  0
   -1.7621   14.5005   -4.8675 H   0  0  0  0  0  0  0  0  0  0  0  0
    0.8146   14.4172   -1.9582 H   0  0  0  0  0  0  0  0  0  0  0  0
    2.1437   14.3503   -3.1647 H   0  0  0  0  0  0  0  0  0  0  0  0
    0.9994   15.7350   -3.1647 H   0  0  0  0  0  0  0  0  0  0  0  0
   -1.1907   12.2874   -4.0623 H   0  0  0  0  0  0  0  0  0  0  0  0
   -1.7226   13.9021   -2.1262 H   0  0  0  0  0  0  0  0  0  0  0  0
   -2.0309   12.0938   -1.9710 H   0  0  0  0  0  0  0  0  0  0  0  0
   -0.9878   13.2828    0.1354 H   0  0  0  0  0  0  0  0  0  0  0  0
    2.2210   12.2622   -2.0923 H   0  0  0  0  0  0  0  0  0  0  0  0
    1.1754    9.5841   -0.9821 H   0  0  0  0  0  0  0  0  0  0  0  0
    2.6065    9.8275   -2.0789 H   0  0  0  0  0  0  0  0  0  0  0  0
    3.2823    9.4465    0.2708 H   0  0  0  0  0  0  0  0  0  0  0  0
    3.7607   11.0765   -0.3456 H   0  0  0  0  0  0  0  0  0  0  0  0
    2.9089   11.3161    1.8864 H   0  0  0  0  0  0  0  0  0  0  0  0
    0.3040   10.6410    1.4700 H   0  0  0  0  0  0  0  0  0  0  0  0
    2.9986   13.8686    1.4605 H   0  0  0  0  0  0  0  0  0  0  0  0
    3.4587   13.0654   -0.0789 H   0  0  0  0  0  0  0  0  0  0  0  0
    2.2152   14.3616   -0.0789 H   0  0  0  0  0  0  0  0  0  0  0  0
    1.1834   12.6532    2.8556 H   0  0  0  0  0  0  0  0  0  0  0  0
    0.5950   14.0426    1.8809 H   0  0  0  0  0  0  0  0  0  0  0  0
   -0.3172   12.4952    1.8809 H   0  0  0  0  0  0  0  0  0  0  0  0
   -0.4754    9.8647   -1.9507 H   0  0  0  0  0  0  0  0  0  0  0  0
   -1.2720   10.2879   -3.5040 H   0  0  0  0  0  0  0  0  0  0  0  0
    0.2291    9.3014   -3.5040 H   0  0  0  0  0  0  0  0  0  0  0  0
    2.4090   10.6925   -3.9547 H   0  0  0  0  0  0  0  0  0  0  0  0
    0.9322   10.7070   -5.0741 H   0  0  0  0  0  0  0  0  0  0  0  0
    2.7250   13.0403   -4.3481 H   0  0  0  0  0  0  0  0  0  0  0  0
    2.5097   12.2391   -5.9541 H   0  0  0  0  0  0  0  0  0  0  0  0
   -0.8429   12.1325   -5.7764 H   0  0  0  0  0  0  0  0  0  0  0  0
   -0.6095   13.4554   -6.9690 H   0  0  0  0  0  0  0  0  0  0  0  0
    0.4972   12.0405   -6.9690 H   0  0  0  0  0  0  0  0  0  0  0  0
  1  2  1  0
  2  3  1  0
  3  4  1  0
  4  5  1  0
  5  6  1  0
  6  7  1  0
  7  8  1  0
  7  9  1  0
  2 10  1  0
 10 11  1  0
 11 12  1  0
 12 13  1  0
 13 14  1  1
 13 15  1  0
 15 16  1  0
 16 17  1  0
 17 18  2  0
 18 19  1  0
 19 20  1  0
 20 21  1  0
 21 22  1  0
 22 23  1  0
 22 24  1  0
 24 25  1  0
 24 26  1  0
 19 27  1  0
 27 28  1  1
 27 29  1  0
 29 30  1  0
 30 31  1  0
 31 32  1  6
  7  5  1  0
 31 10  1  0
 31 13  1  0
 27 15  1  0
 24 18  1  0
  1 33  1  0
  1 34  1  0
  1 35  1  0
  2 36  1  6
  3 37  1  0
  3 38  1  0
  4 39  1  0
  4 40  1  0
  5 41  1  6
  8 42  1  0
  8 43  1  0
  8 44  1  0
  9 45  1  0
  9 46  1  0
  9 47  1  0
 10 48  1  1
 11 49  1  0
 11 50  1  0
 12 51  1  0
 12 52  1  0
 14 53  1  0
 14 54  1  0
 14 55  1  0
 15 56  1  6
 16 57  1  0
 16 58  1  0
 17 59  1  0
 19 60  1  6
 20 61  1  0
 20 62  1  0
 21 63  1  0
 21 64  1  0
 22 65  1  1
 23 66  1  0
 25 67  1  0
 25 68  1  0
 25 69  1  0
 26 70  1  0
 26 71  1  0
 26 72  1  0
 28 73  1  0
 28 74  1  0
 28 75  1  0
 29 76  1  0
 29 77  1  0
 30 78  1  0
 30 79  1  0
 32 80  1  0
 32 81  1  0
 32 82  1  0
M  END
>  <meeko>  (15) 
{"is_sidechain": [false], "intermolecular_energy": 2.731, "internal_energy": -0.839}

$$$$
EPH_relaxed_0001_pdb2pqr_Repair_370_r2_0001_out
     RDKit          3D

 82 86  0  0  0  0  0  0  0  0999 V2000
    1.8350   18.4550   -2.1250 C   0  0  0  0  0  0  0  0  0  0  0  0
    2.2230   17.2780   -3.0240 C   0  0  2  0  0  0  0  0  0  0  0  0
    1.2200   17.0730   -4.1770 C   0  0  0  0  0  0  0  0  0  0  0  0
    1.6280   15.9720   -5.1600 C   0  0  0  0  0  0  0  0  0  0  0  0
    0.5970   15.7740   -6.2290 C   0  0  2  0  0  0  0  0  0  0  0  0
    0.5850   14.4640   -6.8140 O   0  0  0  0  0  0  0  0  0  0  0  0
    0.9400   15.5460   -7.6900 C   0  0  0  0  0  0  0  0  0  0  0  0
    2.3600   15.5060   -8.1610 C   0  0  0  0  0  0  0  0  0  0  0  0
   -0.0980   15.8500   -8.7240 C   0  0  0  0  0  0  0  0  0  0  0  0
    2.3300   16.0030   -2.1950 C   0  0  1  0  0  0  0  0  0  0  0  0
    2.8870   16.2630   -0.7690 C   0  0  0  0  0  0  0  0  0  0  0  0
    2.1700   15.2680    0.1790 C   0  0  0  0  0  0  0  0  0  0  0  0
    1.4800   14.2560   -0.7660 C   0  0  1  0  0  0  0  0  0  0  0  0
    2.6060   13.2540   -1.1710 C   0  0  0  0  0  0  0  0  0  0  0  0
    0.2290   13.5170   -0.1910 C   0  0  2  0  0  0  0  0  0  0  0  0
    0.5020   12.6270    1.0340 C   0  0  0  0  0  0  0  0  0  0  0  0
    0.8500   11.2080    0.7270 C   0  0  0  0  0  0  0  0  0  0  0  0
    0.6640   10.5960   -0.4580 C   0  0  0  0  0  0  0  0  0  0  0  0
   -0.0410   11.3160   -1.6140 C   0  0  1  0  0  0  0  0  0  0  0  0
   -1.0970   10.3720   -2.2460 C   0  0  0  0  0  0  0  0  0  0  0  0
   -0.5050    9.0310   -2.6680 C   0  0  0  0  0  0  0  0  0  0  0  0
    0.1350    8.3190   -1.4790 C   0  0  2  0  0  0  0  0  0  0  0  0
   -0.8920    7.9540   -0.5520 O   0  0  0  0  0  0  0  0  0  0  0  0
    1.2100    9.1780   -0.7570 C   0  0  0  0  0  0  0  0  0  0  0  0
    2.4590    9.3190   -1.6620 C   0  0  0  0  0  0  0  0  0  0  0  0
    1.6740    8.4010    0.5050 C   0  0  0  0  0  0  0  0  0  0  0  0
   -0.6300   12.7540   -1.2790 C   0  0  1  0  0  0  0  0  0  0  0  0
   -2.0690   12.6160   -0.6950 C   0  0  0  0  0  0  0  0  0  0  0  0
   -0.7700   13.5760   -2.6150 C   0  0  0  0  0  0  0  0  0  0  0  0
    0.4630   14.3820   -3.0670 C   0  0  0  0  0  0  0  0  0  0  0  0
    1.0200   15.2240   -1.9160 C   0  0  2  0  0  0  0  0  0  0  0  0
   -0.0830   16.2570   -1.5010 C   0  0  0  0  0  0  0  0  0  0  0  0
    1.9327   18.1585   -1.0702 H   0  0  0  0  0  0  0  0  0  0  0  0
    2.4997   19.3072   -2.3294 H   0  0  0  0  0  0  0  0  0  0  0  0
    0.7938   18.7449   -2.3294 H   0  0  0  0  0  0  0  0  0  0  0  0
    3.1995   17.5128   -3.4728 H   0  0  0  0  0  0  0  0  0  0  0  0
    0.2437   16.8083   -3.7449 H   0  0  0  0  0  0  0  0  0  0  0  0
    1.1866   18.0145   -4.7449 H   0  0  0  0  0  0  0  0  0  0  0  0
    2.5818   16.2508   -5.6318 H   0  0  0  0  0  0  0  0  0  0  0  0
    1.7260   15.0307   -4.5994 H   0  0  0  0  0  0  0  0  0  0  0  0
   -0.0875   16.4777   -5.7327 H   0  0  0  0  0  0  0  0  0  0  0  0
    3.0341   15.4870   -7.2920 H   0  0  0  0  0  0  0  0  0  0  0  0
    2.5195   14.6030   -8.7686 H   0  0  0  0  0  0  0  0  0  0  0  0
    2.5701   16.3986   -8.7686 H   0  0  0  0  0  0  0  0  0  0  0  0
   -1.0401   16.1259   -8.2277 H   0  0  0  0  0  0  0  0  0  0  0  0
    0.2440   16.6857   -9.3522 H   0  0  0  0  0  0  0  0  0  0  0  0
   -0.2609   14.9618   -9.3522 H   0  0  0  0  0  0  0  0  0  0  0  0
    2.9873   15.4118   -2.8495 H   0  0  0  0  0  0  0  0  0  0  0  0
    3.9731   16.0896   -0.7490 H   0  0  0  0  0  0  0  0  0  0  0  0
    2.7084   17.3031   -0.4586 H   0  0  0  0  0  0  0  0  0  0  0  0
    2.8967   14.7589    0.8291 H   0  0  0  0  0  0  0  0  0  0  0  0
    1.4542   15.7702    0.8464 H   0  0  0  0  0  0  0  0  0  0  0  0
    3.0716   12.8397   -0.2646 H   0  0  0  0  0  0  0  0  0  0  0  0
    2.1729   12.4371   -1.7669 H   0  0  0  0  0  0  0  0  0  0  0  0
    3.3671   13.7790   -1.7669 H   0  0  0  0  0  0  0  0  0  0  0  0
   -0.3879   14.3502    0.1767 H   0  0  0  0  0  0  0  0  0  0  0  0
    1.3389   13.0684    1.5950 H   0  0  0  0  0  0  0  0  0  0  0  0
   -0.4398   12.5932    1.6013 H   0  0  0  0  0  0  0  0  0  0  0  0
    1.2959   10.6122    1.5371 H   0  0  0  0  0  0  0  0  0  0  0  0
    0.7422   11.5457   -2.3514 H   0  0  0  0  0  0  0  0  0  0  0  0
   -1.8930   10.1897   -1.5090 H   0  0  0  0  0  0  0  0  0  0  0  0
   -1.4865   10.8641   -3.1494 H   0  0  0  0  0  0  0  0  0  0  0  0
   -1.3050    8.3976   -3.0789 H   0  0  0  0  0  0  0  0  0  0  0  0
    0.2700    9.2126   -3.4273 H   0  0  0  0  0  0  0  0  0  0  0  0
    0.6532    7.4297   -1.8672 H   0  0  0  0  0  0  0  0  0  0  0  0
   -0.5190    7.2930    0.0550 H   0  0  0  0  0  0  0  0  0  0  0  0
    3.3568    9.4204   -1.0346 H   0  0  0  0  0  0  0  0  0  0  0  0
    2.5544    8.4259   -2.2971 H   0  0  0  0  0  0  0  0  0  0  0  0
    2.3529   10.2109   -2.2971 H   0  0  0  0  0  0  0  0  0  0  0  0
    1.3515    8.9411    1.4073 H   0  0  0  0  0  0  0  0  0  0  0  0
    1.2285    7.3953    0.5008 H   0  0  0  0  0  0  0  0  0  0  0  0
    2.7707    8.3162    0.5008 H   0  0  0  0  0  0  0  0  0  0  0  0
   -2.0207   12.6206    0.4039 H   0  0  0  0  0  0  0  0  0  0  0  0
   -2.6865   13.4590   -1.0385 H   0  0  0  0  0  0  0  0  0  0  0  0
   -2.5150   11.6710   -1.0385 H   0  0  0  0  0  0  0  0  0  0  0  0
   -1.0163   12.8661   -3.4183 H   0  0  0  0  0  0  0  0  0  0  0  0
   -1.5464   14.3279   -2.4104 H   0  0  0  0  0  0  0  0  0  0  0  0
    1.2411   13.6855   -3.4126 H   0  0  0  0  0  0  0  0  0  0  0  0
    0.1611   15.0573   -3.8812 H   0  0  0  0  0  0  0  0  0  0  0  0
   -0.1406   16.3110   -0.4038 H   0  0  0  0  0  0  0  0  0  0  0  0
    0.1726   17.2481   -1.9039 H   0  0  0  0  0  0  0  0  0  0  0  0
   -1.0552   15.9370   -1.9039 H   0  0  0  0  0  0  0  0  0  0  0  0
  1  2  1  0
  2  3  1  0
  3  4  1  0
  4  5  1  0
  5  6  1  0
  6  7  1  0
  7  8  1  0
  7  9  1  0
  2 10  1  0
 10 11  1  0
 11 12  1  0
 12 13  1  0
 13 14  1  6
 13 15  1  0
 15 16  1  0
 16 17  1  0
 17 18  2  0
 18 19  1  0
 19 20  1  0
 20 21  1  0
 21 22  1  0
 22 23  1  0
 22 24  1  0
 24 25  1  0
 24 26  1  0
 19 27  1  0
 27 28  1  1
 27 29  1  0
 29 30  1  0
 30 31  1  0
 31 32  1  1
  7  5  1  0
 31 10  1  0
 31 13  1  0
 27 15  1  0
 24 18  1  0
  1 33  1  0
  1 34  1  0
  1 35  1  0
  2 36  1  6
  3 37  1  0
  3 38  1  0
  4 39  1  0
  4 40  1  0
  5 41  1  6
  8 42  1  0
  8 43  1  0
  8 44  1  0
  9 45  1  0
  9 46  1  0
  9 47  1  0
 10 48  1  6
 11 49  1  0
 11 50  1  0
 12 51  1  0
 12 52  1  0
 14 53  1  0
 14 54  1  0
 14 55  1  0
 15 56  1  1
 16 57  1  0
 16 58  1  0
 17 59  1  0
 19 60  1  6
 20 61  1  0
 20 62  1  0
 21 63  1  0
 21 64  1  0
 22 65  1  6
 23 66  1  0
 25 67  1  0
 25 68  1  0
 25 69  1  0
 26 70  1  0
 26 71  1  0
 26 72  1  0
 28 73  1  0
 28 74  1  0
 28 75  1  0
 29 76  1  0
 29 77  1  0
 30 78  1  0
 30 79  1  0
 32 80  1  0
 32 81  1  0
 32 82  1  0
M  END
>  <meeko>  (16) 
{"is_sidechain": [false], "intermolecular_energy": 2.731, "internal_energy": -0.839}

$$$$
EPH_relaxed_0001_pdb2pqr_Repair_370_r2_0001_out
     RDKit          3D

 82 86  0  0  0  0  0  0  0  0999 V2000
    3.2400   11.3240   -4.2640 C   0  0  0  0  0  0  0  0  0  0  0  0
    2.1060   11.8760   -5.1320 C   0  0  2  0  0  0  0  0  0  0  0  0
    2.6330   12.5830   -6.3960 C   0  0  0  0  0  0  0  0  0  0  0  0
    1.9490   13.9230   -6.6830 C   0  0  0  0  0  0  0  0  0  0  0  0
    2.4050   14.5110   -7.9840 C   0  0  2  0  0  0  0  0  0  0  0  0
    2.5100   15.9410   -7.9910 O   0  0  0  0  0  0  0  0  0  0  0  0
    1.5220   15.3730   -8.8670 C   0  0  0  0  0  0  0  0  0  0  0  0
    0.1120   15.6950   -8.4840 C   0  0  0  0  0  0  0  0  0  0  0  0
    1.8640   15.4950  -10.3190 C   0  0  0  0  0  0  0  0  0  0  0  0
    1.2490   12.8380   -4.3160 C   0  0  1  0  0  0  0  0  0  0  0  0
   -0.1490   12.2530   -3.9790 C   0  0  0  0  0  0  0  0  0  0  0  0
   -0.5260   12.7800   -2.5710 C   0  0  0  0  0  0  0  0  0  0  0  0
    0.4990   13.9020   -2.2870 C   0  0  1  0  0  0  0  0  0  0  0  0
   -0.0550   15.1520   -3.0410 C   0  0  0  0  0  0  0  0  0  0  0  0
    0.7820   14.2150   -0.7810 C   0  0  2  0  0  0  0  0  0  0  0  0
   -0.4310   14.7230    0.0190 C   0  0  0  0  0  0  0  0  0  0  0  0
   -0.6080   16.2050    0.0350 C   0  0  0  0  0  0  0  0  0  0  0  0
    0.3230   17.1080   -0.3250 C   0  0  0  0  0  0  0  0  0  0  0  0
    1.7410   16.6670   -0.7090 C   0  0  1  0  0  0  0  0  0  0  0  0
    2.7770   17.5710    0.0110 C   0  0  0  0  0  0  0  0  0  0  0  0
    2.5380   19.0550   -0.2470 C   0  0  0  0  0  0  0  0  0  0  0  0
    1.1380   19.4680    0.2010 C   0  0  2  0  0  0  0  0  0  0  0  0
    1.0600   19.3590    1.6260 O   0  0  0  0  0  0  0  0  0  0  0  0
    0.0110   18.6200   -0.4510 C   0  0  0  0  0  0  0  0  0  0  0  0
   -0.0990   18.9690   -1.9560 C   0  0  0  0  0  0  0  0  0  0  0  0
   -1.3380   19.0430    0.1920 C   0  0  0  0  0  0  0  0  0  0  0  0
    2.0570   15.1190   -0.5350 C   0  0  1  0  0  0  0  0  0  0  0  0
    2.5310   14.8330    0.9220 C   0  0  0  0  0  0  0  0  0  0  0  0
    3.2570   14.7310   -1.4770 C   0  0  0  0  0  0  0  0  0  0  0  0
    2.9030   14.3160   -2.9180 C   0  0  0  0  0  0  0  0  0  0  0  0
    1.7860   13.2680   -2.9280 C   0  0  2  0  0  0  0  0  0  0  0  0
    2.3220   11.9900   -2.1960 C   0  0  0  0  0  0  0  0  0  0  0  0
    2.9829   11.4491   -3.2018 H   0  0  0  0  0  0  0  0  0  0  0  0
    3.3828   10.2556   -4.4833 H   0  0  0  0  0  0  0  0  0  0  0  0
    4.1690   11.8707   -4.4833 H   0  0  0  0  0  0  0  0  0  0  0  0
    1.4962   11.0221   -5.4621 H   0  0  0  0  0  0  0  0  0  0  0  0
    3.7107   12.7634   -6.2691 H   0  0  0  0  0  0  0  0  0  0  0  0
    2.4153   11.9222   -7.2480 H   0  0  0  0  0  0  0  0  0  0  0  0
    0.8610   13.7661   -6.7246 H   0  0  0  0  0  0  0  0  0  0  0  0
    2.2159   14.6235   -5.8780 H   0  0  0  0  0  0  0  0  0  0  0  0
    3.0197   13.6239   -8.1967 H   0  0  0  0  0  0  0  0  0  0  0  0
    0.0253   15.7148   -7.3876 H   0  0  0  0  0  0  0  0  0  0  0  0
   -0.1630   16.6791   -8.8914 H   0  0  0  0  0  0  0  0  0  0  0  0
   -0.5629   14.9279   -8.8914 H   0  0  0  0  0  0  0  0  0  0  0  0
    2.8954   15.8629  -10.4231 H   0  0  0  0  0  0  0  0  0  0  0  0
    1.7757   14.5099  -10.8005 H   0  0  0  0  0  0  0  0  0  0  0  0
    1.1722   16.2018  -10.8005 H   0  0  0  0  0  0  0  0  0  0  0  0
    1.2394   13.7004   -4.9988 H   0  0  0  0  0  0  0  0  0  0  0  0
   -0.8891   12.5892   -4.7201 H   0  0  0  0  0  0  0  0  0  0  0  0
   -0.1323   11.1533   -3.9980 H   0  0  0  0  0  0  0  0  0  0  0  0
   -1.5506   13.1802   -2.5677 H   0  0  0  0  0  0  0  0  0  0  0  0
   -0.4993   11.9879   -1.8082 H   0  0  0  0  0  0  0  0  0  0  0  0
   -0.3880   15.9034   -2.3099 H   0  0  0  0  0  0  0  0  0  0  0  0
    0.7375   15.5805   -3.6721 H   0  0  0  0  0  0  0  0  0  0  0  0
   -0.9048   14.8527   -3.6721 H   0  0  0  0  0  0  0  0  0  0  0  0
    1.0134   13.2201   -0.3728 H   0  0  0  0  0  0  0  0  0  0  0  0
   -1.3370   14.2770   -0.4173 H   0  0  0  0  0  0  0  0  0  0  0  0
   -0.2532   14.4262    1.0632 H   0  0  0  0  0  0  0  0  0  0  0  0
   -1.5819   16.5920    0.3693 H   0  0  0  0  0  0  0  0  0  0  0  0
    1.8179   16.8044   -1.7977 H   0  0  0  0  0  0  0  0  0  0  0  0
    2.7136   17.3867    1.0936 H   0  0  0  0  0  0  0  0  0  0  0  0
    3.7719   17.3194   -0.3851 H   0  0  0  0  0  0  0  0  0  0  0  0
    3.2824   19.6419    0.3111 H   0  0  0  0  0  0  0  0  0  0  0  0
    2.6310   19.2432   -1.3268 H   0  0  0  0  0  0  0  0  0  0  0  0
    0.9786   20.5056   -0.1276 H   0  0  0  0  0  0  0  0  0  0  0  0
    0.3400   19.9390    1.9260 H   0  0  0  0  0  0  0  0  0  0  0  0
   -0.4280   20.0127   -2.0673 H   0  0  0  0  0  0  0  0  0  0  0  0
    0.8830   18.8411   -2.4348 H   0  0  0  0  0  0  0  0  0  0  0  0
   -0.8302   18.3011   -2.4348 H   0  0  0  0  0  0  0  0  0  0  0  0
   -1.2468   19.0144    1.2878 H   0  0  0  0  0  0  0  0  0  0  0  0
   -1.5926   20.0641   -0.1282 H   0  0  0  0  0  0  0  0  0  0  0  0
   -2.1301   18.3501   -0.1282 H   0  0  0  0  0  0  0  0  0  0  0  0
    1.8124   15.2666    1.6331 H   0  0  0  0  0  0  0  0  0  0  0  0
    2.5935   13.7463    1.0806 H   0  0  0  0  0  0  0  0  0  0  0  0
    3.5215   15.2843    1.0806 H   0  0  0  0  0  0  0  0  0  0  0  0
    3.9280   15.6006   -1.5365 H   0  0  0  0  0  0  0  0  0  0  0  0
    3.7030   13.8349   -1.0208 H   0  0  0  0  0  0  0  0  0  0  0  0
    2.5691   15.2031   -3.4762 H   0  0  0  0  0  0  0  0  0  0  0  0
    3.7973   13.8799   -3.3871 H   0  0  0  0  0  0  0  0  0  0  0  0
    2.2601   12.1377   -1.1077 H   0  0  0  0  0  0  0  0  0  0  0  0
    1.7128   11.1203   -2.4833 H   0  0  0  0  0  0  0  0  0  0  0  0
    3.3693   11.8150   -2.4833 H   0  0  0  0  0  0  0  0  0  0  0  0
  1  2  1  0
  2  3  1  0
  3  4  1  0
  4  5  1  0
  5  6  1  0
  6  7  1  0
  7  8  1  0
  7  9  1  0
  2 10  1  0
 10 11  1  0
 11 12  1  0
 12 13  1  0
 13 14  1  6
 13 15  1  0
 15 16  1  0
 16 17  1  0
 17 18  2  0
 18 19  1  0
 19 20  1  0
 20 21  1  0
 21 22  1  0
 22 23  1  0
 22 24  1  0
 24 25  1  0
 24 26  1  0
 19 27  1  0
 27 28  1  1
 27 29  1  0
 29 30  1  0
 30 31  1  0
 31 32  1  1
  7  5  1  0
 31 10  1  0
 31 13  1  0
 27 15  1  0
 24 18  1  0
  1 33  1  0
  1 34  1  0
  1 35  1  0
  2 36  1  6
  3 37  1  0
  3 38  1  0
  4 39  1  0
  4 40  1  0
  5 41  1  6
  8 42  1  0
  8 43  1  0
  8 44  1  0
  9 45  1  0
  9 46  1  0
  9 47  1  0
 10 48  1  6
 11 49  1  0
 11 50  1  0
 12 51  1  0
 12 52  1  0
 14 53  1  0
 14 54  1  0
 14 55  1  0
 15 56  1  1
 16 57  1  0
 16 58  1  0
 17 59  1  0
 19 60  1  6
 20 61  1  0
 20 62  1  0
 21 63  1  0
 21 64  1  0
 22 65  1  1
 23 66  1  0
 25 67  1  0
 25 68  1  0
 25 69  1  0
 26 70  1  0
 26 71  1  0
 26 72  1  0
 28 73  1  0
 28 74  1  0
 28 75  1  0
 29 76  1  0
 29 77  1  0
 30 78  1  0
 30 79  1  0
 32 80  1  0
 32 81  1  0
 32 82  1  0
M  END
>  <meeko>  (17) 
{"is_sidechain": [false], "intermolecular_energy": 2.731, "internal_energy": -0.839}

$$$$
EPH_relaxed_0001_pdb2pqr_Repair_370_r2_0001_out
     RDKit          3D

 82 86  0  0  0  0  0  0  0  0999 V2000
    1.5150   18.6210   -2.5090 C   0  0  0  0  0  0  0  0  0  0  0  0
    1.2410   17.7550   -1.2760 C   0  0  2  0  0  0  0  0  0  0  0  0
    2.0380   18.2300   -0.0440 C   0  0  0  0  0  0  0  0  0  0  0  0
    3.3580   18.9220   -0.3950 C   0  0  0  0  0  0  0  0  0  0  0  0
    4.3930   18.7150    0.6700 C   0  0  2  0  0  0  0  0  0  0  0  0
    3.9440   17.9580    1.8020 O   0  0  0  0  0  0  0  0  0  0  0  0
    4.3020   19.3270    2.0550 C   0  0  0  0  0  0  0  0  0  0  0  0
    3.1480   20.1940    2.4510 C   0  0  0  0  0  0  0  0  0  0  0  0
    5.5590   19.4830    2.8520 C   0  0  0  0  0  0  0  0  0  0  0  0
    1.5720   16.2980   -1.5800 C   0  0  1  0  0  0  0  0  0  0  0  0
    3.0910   16.0610   -1.7880 C   0  0  0  0  0  0  0  0  0  0  0  0
    3.4070   14.6560   -1.2160 C   0  0  0  0  0  0  0  0  0  0  0  0
    2.0220   14.0000   -1.0040 C   0  0  1  0  0  0  0  0  0  0  0  0
    1.6090   13.4720   -2.4140 C   0  0  0  0  0  0  0  0  0  0  0  0
    1.9490   12.8750    0.0780 C   0  0  2  0  0  0  0  0  0  0  0  0
    2.8130   11.6350   -0.2100 C   0  0  0  0  0  0  0  0  0  0  0  0
    2.1350   10.5500   -0.9800 C   0  0  0  0  0  0  0  0  0  0  0  0
    0.8080   10.4430   -1.1770 C   0  0  0  0  0  0  0  0  0  0  0  0
   -0.1690   11.4240   -0.5150 C   0  0  1  0  0  0  0  0  0  0  0  0
   -1.3460   10.6350    0.1170 C   0  0  0  0  0  0  0  0  0  0  0  0
   -2.0350    9.7120   -0.8830 C   0  0  0  0  0  0  0  0  0  0  0  0
   -1.0440    8.7140   -1.4760 C   0  0  2  0  0  0  0  0  0  0  0  0
   -0.6100    7.8240   -0.4420 O   0  0  0  0  0  0  0  0  0  0  0  0
    0.1910    9.3920   -2.1330 C   0  0  0  0  0  0  0  0  0  0  0  0
   -0.2420   10.1130   -3.4340 C   0  0  0  0  0  0  0  0  0  0  0  0
    1.1770    8.2740   -2.5650 C   0  0  0  0  0  0  0  0  0  0  0  0
    0.4760   12.4700    0.4930 C   0  0  1  0  0  0  0  0  0  0  0  0
    0.5710   11.8450    1.9190 C   0  0  0  0  0  0  0  0  0  0  0  0
   -0.4750   13.7180    0.6170 C   0  0  0  0  0  0  0  0  0  0  0  0
   -0.2740   14.8500   -0.4080 C   0  0  0  0  0  0  0  0  0  0  0  0
    1.2030   15.2460   -0.5050 C   0  0  2  0  0  0  0  0  0  0  0  0
    1.6420   15.8020    0.8930 C   0  0  0  0  0  0  0  0  0  0  0  0
    1.8325   19.6244   -2.1891 H   0  0  0  0  0  0  0  0  0  0  0  0
    2.3110   18.1594   -3.1118 H   0  0  0  0  0  0  0  0  0  0  0  0
    0.5984   18.7012   -3.1118 H   0  0  0  0  0  0  0  0  0  0  0  0
    0.1720   17.8512   -1.0351 H   0  0  0  0  0  0  0  0  0  0  0  0
    1.4142   18.9380    0.5215 H   0  0  0  0  0  0  0  0  0  0  0  0
    2.2904   17.3334    0.5412 H   0  0  0  0  0  0  0  0  0  0  0  0
    3.7349   18.5109   -1.3431 H   0  0  0  0  0  0  0  0  0  0  0  0
    3.1666   20.0017   -0.4819 H   0  0  0  0  0  0  0  0  0  0  0  0
    5.1972   18.7047   -0.0804 H   0  0  0  0  0  0  0  0  0  0  0  0
    3.0847   20.2416    3.5481 H   0  0  0  0  0  0  0  0  0  0  0  0
    3.2951   21.2069    2.0479 H   0  0  0  0  0  0  0  0  0  0  0  0
    2.2161   19.7707    2.0479 H   0  0  0  0  0  0  0  0  0  0  0  0
    5.3189   19.4532    3.9251 H   0  0  0  0  0  0  0  0  0  0  0  0
    6.2517   18.6639    2.6084 H   0  0  0  0  0  0  0  0  0  0  0  0
    6.0304   20.4465    2.6084 H   0  0  0  0  0  0  0  0  0  0  0  0
    0.9530   16.1520   -2.4775 H   0  0  0  0  0  0  0  0  0  0  0  0
    3.3368   16.0977   -2.8596 H   0  0  0  0  0  0  0  0  0  0  0  0
    3.6846   16.8362   -1.2813 H   0  0  0  0  0  0  0  0  0  0  0  0
    4.0079   14.0726   -1.9292 H   0  0  0  0  0  0  0  0  0  0  0  0
    3.9914   14.7064   -0.2854 H   0  0  0  0  0  0  0  0  0  0  0  0
    0.9349   12.6102   -2.2999 H   0  0  0  0  0  0  0  0  0  0  0  0
    1.0931   14.2702   -2.9678 H   0  0  0  0  0  0  0  0  0  0  0  0
    2.5080   13.1635   -2.9678 H   0  0  0  0  0  0  0  0  0  0  0  0
    2.4058   13.3597    0.9535 H   0  0  0  0  0  0  0  0  0  0  0  0
    3.6933   11.9600   -0.7839 H   0  0  0  0  0  0  0  0  0  0  0  0
    3.0613   11.2027    0.7706 H   0  0  0  0  0  0  0  0  0  0  0  0
    2.7742    9.7725   -1.4237 H   0  0  0  0  0  0  0  0  0  0  0  0
   -0.5442   12.0712   -1.3215 H   0  0  0  0  0  0  0  0  0  0  0  0
   -0.9576   10.0277    0.9479 H   0  0  0  0  0  0  0  0  0  0  0  0
   -2.0904   11.3667    0.4640 H   0  0  0  0  0  0  0  0  0  0  0  0
   -2.8377    9.1613   -0.3708 H   0  0  0  0  0  0  0  0  0  0  0  0
   -2.4482   10.3236   -1.6986 H   0  0  0  0  0  0  0  0  0  0  0  0
   -1.5656    8.1691   -2.2766 H   0  0  0  0  0  0  0  0  0  0  0  0
   -0.1880    8.3610    0.2500 H   0  0  0  0  0  0  0  0  0  0  0  0
   -0.7929   11.0303   -3.1789 H   0  0  0  0  0  0  0  0  0  0  0  0
    0.6497   10.3727   -4.0234 H   0  0  0  0  0  0  0  0  0  0  0  0
   -0.8902    9.4479   -4.0234 H   0  0  0  0  0  0  0  0  0  0  0  0
    1.6009    7.7934   -1.6710 H   0  0  0  0  0  0  0  0  0  0  0  0
    0.6409    7.5240   -3.1651 H   0  0  0  0  0  0  0  0  0  0  0  0
    1.9881    8.7122   -3.1651 H   0  0  0  0  0  0  0  0  0  0  0  0
    0.4509   12.6354    2.6745 H   0  0  0  0  0  0  0  0  0  0  0  0
   -0.2234   11.0944    2.0440 H   0  0  0  0  0  0  0  0  0  0  0  0
    1.5525   11.3644    2.0440 H   0  0  0  0  0  0  0  0  0  0  0  0
   -1.5099   13.3588    0.5171 H   0  0  0  0  0  0  0  0  0  0  0  0
   -0.2344   14.1670    1.5919 H   0  0  0  0  0  0  0  0  0  0  0  0
   -0.6204   14.5080   -1.3944 H   0  0  0  0  0  0  0  0  0  0  0  0
   -0.8515   15.7269   -0.0799 H   0  0  0  0  0  0  0  0  0  0  0  0
    1.1714   15.2060    1.6888 H   0  0  0  0  0  0  0  0  0  0  0  0
    2.7362   15.7385    0.9857 H   0  0  0  0  0  0  0  0  0  0  0  0
    1.3264   16.8517    0.9857 H   0  0  0  0  0  0  0  0  0  0  0  0
  1  2  1  0
  2  3  1  0
  3  4  1  0
  4  5  1  0
  5  6  1  0
  6  7  1  0
  7  8  1  0
  7  9  1  0
  2 10  1  0
 10 11  1  0
 11 12  1  0
 12 13  1  0
 13 14  1  6
 13 15  1  0
 15 16  1  0
 16 17  1  0
 17 18  2  0
 18 19  1  0
 19 20  1  0
 20 21  1  0
 21 22  1  0
 22 23  1  0
 22 24  1  0
 24 25  1  0
 24 26  1  0
 19 27  1  0
 27 28  1  1
 27 29  1  0
 29 30  1  0
 30 31  1  0
 31 32  1  1
  7  5  1  0
 31 10  1  0
 31 13  1  0
 27 15  1  0
 24 18  1  0
  1 33  1  0
  1 34  1  0
  1 35  1  0
  2 36  1  1
  3 37  1  0
  3 38  1  0
  4 39  1  0
  4 40  1  0
  5 41  1  6
  8 42  1  0
  8 43  1  0
  8 44  1  0
  9 45  1  0
  9 46  1  0
  9 47  1  0
 10 48  1  6
 11 49  1  0
 11 50  1  0
 12 51  1  0
 12 52  1  0
 14 53  1  0
 14 54  1  0
 14 55  1  0
 15 56  1  1
 16 57  1  0
 16 58  1  0
 17 59  1  0
 19 60  1  6
 20 61  1  0
 20 62  1  0
 21 63  1  0
 21 64  1  0
 22 65  1  6
 23 66  1  0
 25 67  1  0
 25 68  1  0
 25 69  1  0
 26 70  1  0
 26 71  1  0
 26 72  1  0
 28 73  1  0
 28 74  1  0
 28 75  1  0
 29 76  1  0
 29 77  1  0
 30 78  1  0
 30 79  1  0
 32 80  1  0
 32 81  1  0
 32 82  1  0
M  END
>  <meeko>  (18) 
{"is_sidechain": [false], "intermolecular_energy": 2.731, "internal_energy": -0.839}

$$$$
EPH_relaxed_0001_pdb2pqr_Repair_370_r2_0001_out
     RDKit          3D

 82 86  0  0  0  0  0  0  0  0999 V2000
    0.2870   10.2000   -4.0160 C   0  0  0  0  0  0  0  0  0  0  0  0
    1.6960   10.7790   -3.8630 C   0  0  2  0  0  0  0  0  0  0  0  0
    2.3660   10.3370   -2.5460 C   0  0  0  0  0  0  0  0  0  0  0  0
    1.4780    9.4480   -1.6720 C   0  0  0  0  0  0  0  0  0  0  0  0
    1.4780    9.8970   -0.2430 C   0  0  2  0  0  0  0  0  0  0  0  0
    0.8590    8.9830    0.6720 O   0  0  0  0  0  0  0  0  0  0  0  0
    0.2190   10.2610    0.5210 C   0  0  0  0  0  0  0  0  0  0  0  0
   -1.1310   10.1920   -0.1230 C   0  0  0  0  0  0  0  0  0  0  0  0
    0.3410   11.1430    1.7240 C   0  0  0  0  0  0  0  0  0  0  0  0
    1.6430   12.3010   -3.9350 C   0  0  1  0  0  0  0  0  0  0  0  0
    0.8190   12.8130   -5.1460 C   0  0  0  0  0  0  0  0  0  0  0  0
    0.1060   14.1100   -4.6850 C   0  0  0  0  0  0  0  0  0  0  0  0
    0.7950   14.4820   -3.3520 C   0  0  1  0  0  0  0  0  0  0  0  0
    2.1130   15.2050   -3.7690 C   0  0  0  0  0  0  0  0  0  0  0  0
   -0.0460   15.3450   -2.3560 C   0  0  2  0  0  0  0  0  0  0  0  0
   -0.4420   16.7390   -2.8730 C   0  0  0  0  0  0  0  0  0  0  0  0
    0.5270   17.8320   -2.5640 C   0  0  0  0  0  0  0  0  0  0  0  0
    1.5210   17.7630   -1.6590 C   0  0  0  0  0  0  0  0  0  0  0  0
    1.6880   16.5280   -0.7650 C   0  0  1  0  0  0  0  0  0  0  0  0
    1.9150   16.9790    0.7020 C   0  0  0  0  0  0  0  0  0  0  0  0
    3.0750   17.9600    0.8400 C   0  0  0  0  0  0  0  0  0  0  0  0
    2.8450   19.2000   -0.0190 C   0  0  2  0  0  0  0  0  0  0  0  0
    1.7290   19.9250    0.5070 O   0  0  0  0  0  0  0  0  0  0  0  0
    2.5950   18.8700   -1.5170 C   0  0  0  0  0  0  0  0  0  0  0  0
    3.9060   18.3610   -2.1640 C   0  0  0  0  0  0  0  0  0  0  0  0
    2.2370   20.1940   -2.2450 C   0  0  0  0  0  0  0  0  0  0  0  0
    0.5560   15.4200   -0.8940 C   0  0  1  0  0  0  0  0  0  0  0  0
   -0.6310   15.7570    0.0600 C   0  0  0  0  0  0  0  0  0  0  0  0
    1.1340   14.0370   -0.4130 C   0  0  0  0  0  0  0  0  0  0  0  0
    1.8500   13.1770   -1.4720 C   0  0  0  0  0  0  0  0  0  0  0  0
    1.0000   13.0480   -2.7400 C   0  0  2  0  0  0  0  0  0  0  0  0
   -0.3240   12.3040   -2.3550 C   0  0  0  0  0  0  0  0  0  0  0  0
   -0.1463   10.0219   -3.0207 H   0  0  0  0  0  0  0  0  0  0  0  0
   -0.3439   10.9118   -4.5686 H   0  0  0  0  0  0  0  0  0  0  0  0
    0.3389    9.2503   -4.5686 H   0  0  0  0  0  0  0  0  0  0  0  0
    2.3059   10.3883   -4.6909 H   0  0  0  0  0  0  0  0  0  0  0  0
    3.2812    9.7786   -2.7923 H   0  0  0  0  0  0  0  0  0  0  0  0
    2.5739   11.2501   -1.9689 H   0  0  0  0  0  0  0  0  0  0  0  0
    0.4482    9.4848   -2.0570 H   0  0  0  0  0  0  0  0  0  0  0  0
    1.8770    8.4236   -1.7090 H   0  0  0  0  0  0  0  0  0  0  0  0
    2.4327   10.4246   -0.3851 H   0  0  0  0  0  0  0  0  0  0  0  0
   -1.9071   10.1523    0.6556 H   0  0  0  0  0  0  0  0  0  0  0  0
   -1.2847   11.0835   -0.7488 H   0  0  0  0  0  0  0  0  0  0  0  0
   -1.1930    9.2895   -0.7488 H   0  0  0  0  0  0  0  0  0  0  0  0
    0.2567   10.5333    2.6357 H   0  0  0  0  0  0  0  0  0  0  0  0
    1.3177   11.6489    1.7102 H   0  0  0  0  0  0  0  0  0  0  0  0
   -0.4617   11.8950    1.7102 H   0  0  0  0  0  0  0  0  0  0  0  0
    2.7199   12.5209   -3.9802 H   0  0  0  0  0  0  0  0  0  0  0  0
    1.4857   13.0281   -5.9941 H   0  0  0  0  0  0  0  0  0  0  0  0
    0.0906   12.0576   -5.4760 H   0  0  0  0  0  0  0  0  0  0  0  0
    0.2388   14.9108   -5.4273 H   0  0  0  0  0  0  0  0  0  0  0  0
   -0.9789   13.9705   -4.5687 H   0  0  0  0  0  0  0  0  0  0  0  0
    2.6658   15.5083   -2.8677 H   0  0  0  0  0  0  0  0  0  0  0  0
    2.7332   14.5208   -4.3667 H   0  0  0  0  0  0  0  0  0  0  0  0
    1.8693   16.0957   -4.3667 H   0  0  0  0  0  0  0  0  0  0  0  0
   -0.9843   14.7752   -2.2858 H   0  0  0  0  0  0  0  0  0  0  0  0
   -0.5491   16.6785   -3.9661 H   0  0  0  0  0  0  0  0  0  0  0  0
   -1.3748   17.0030   -2.3533 H   0  0  0  0  0  0  0  0  0  0  0  0
    0.4195   18.7732   -3.1231 H   0  0  0  0  0  0  0  0  0  0  0  0
    2.5793   16.0014   -1.1368 H   0  0  0  0  0  0  0  0  0  0  0  0
    0.9978   17.4639    1.0677 H   0  0  0  0  0  0  0  0  0  0  0  0
    2.1628   16.0841    1.2917 H   0  0  0  0  0  0  0  0  0  0  0  0
    3.1665   18.2635    1.8933 H   0  0  0  0  0  0  0  0  0  0  0  0
    3.9967   17.4641    0.5014 H   0  0  0  0  0  0  0  0  0  0  0  0
    3.7641   19.8031    0.0198 H   0  0  0  0  0  0  0  0  0  0  0  0
    0.9550   19.3370    0.4760 H   0  0  0  0  0  0  0  0  0  0  0  0
    4.6206   18.0836   -1.3751 H   0  0  0  0  0  0  0  0  0  0  0  0
    3.6894   17.4816   -2.7883 H   0  0  0  0  0  0  0  0  0  0  0  0
    4.3396   19.1561   -2.7883 H   0  0  0  0  0  0  0  0  0  0  0  0
    2.0255   20.9760   -1.5009 H   0  0  0  0  0  0  0  0  0  0  0  0
    3.0829   20.5064   -2.8749 H   0  0  0  0  0  0  0  0  0  0  0  0
    1.3489   20.0375   -2.8749 H   0  0  0  0  0  0  0  0  0  0  0  0
   -0.2998   15.6630    1.1047 H   0  0  0  0  0  0  0  0  0  0  0  0
   -0.9699   16.7868   -0.1260 H   0  0  0  0  0  0  0  0  0  0  0  0
   -1.4605   15.0589   -0.1260 H   0  0  0  0  0  0  0  0  0  0  0  0
    1.8542   14.2397    0.3934 H   0  0  0  0  0  0  0  0  0  0  0  0
    0.2559   13.4480   -0.1097 H   0  0  0  0  0  0  0  0  0  0  0  0
    2.8102   13.6482   -1.7289 H   0  0  0  0  0  0  0  0  0  0  0  0
    2.0133   12.1720   -1.0556 H   0  0  0  0  0  0  0  0  0  0  0  0
   -0.4117   12.2547   -1.2596 H   0  0  0  0  0  0  0  0  0  0  0  0
   -1.1849   12.8504   -2.7675 H   0  0  0  0  0  0  0  0  0  0  0  0
   -0.3050   11.2845   -2.7675 H   0  0  0  0  0  0  0  0  0  0  0  0
  1  2  1  0
  2  3  1  0
  3  4  1  0
  4  5  1  0
  5  6  1  0
  6  7  1  0
  7  8  1  0
  7  9  1  0
  2 10  1  0
 10 11  1  0
 11 12  1  0
 12 13  1  0
 13 14  1  6
 13 15  1  0
 15 16  1  0
 16 17  1  0
 17 18  2  0
 18 19  1  0
 19 20  1  0
 20 21  1  0
 21 22  1  0
 22 23  1  0
 22 24  1  0
 24 25  1  0
 24 26  1  0
 19 27  1  0
 27 28  1  1
 27 29  1  0
 29 30  1  0
 30 31  1  0
 31 32  1  1
  7  5  1  0
 31 10  1  0
 31 13  1  0
 27 15  1  0
 24 18  1  0
  1 33  1  0
  1 34  1  0
  1 35  1  0
  2 36  1  6
  3 37  1  0
  3 38  1  0
  4 39  1  0
  4 40  1  0
  5 41  1  1
  8 42  1  0
  8 43  1  0
  8 44  1  0
  9 45  1  0
  9 46  1  0
  9 47  1  0
 10 48  1  6
 11 49  1  0
 11 50  1  0
 12 51  1  0
 12 52  1  0
 14 53  1  0
 14 54  1  0
 14 55  1  0
 15 56  1  1
 16 57  1  0
 16 58  1  0
 17 59  1  0
 19 60  1  6
 20 61  1  0
 20 62  1  0
 21 63  1  0
 21 64  1  0
 22 65  1  6
 23 66  1  0
 25 67  1  0
 25 68  1  0
 25 69  1  0
 26 70  1  0
 26 71  1  0
 26 72  1  0
 28 73  1  0
 28 74  1  0
 28 75  1  0
 29 76  1  0
 29 77  1  0
 30 78  1  0
 30 79  1  0
 32 80  1  0
 32 81  1  0
 32 82  1  0
M  END
>  <meeko>  (19) 
{"is_sidechain": [false], "intermolecular_energy": 2.731, "internal_energy": -0.839}

$$$$
EPH_relaxed_0001_pdb2pqr_Repair_370_r2_0001_out
     RDKit          3D

 82 86  0  0  0  0  0  0  0  0999 V2000
    0.2780    8.7860   -1.7560 C   0  0  0  0  0  0  0  0  0  0  0  0
    1.2040    9.3540   -0.6770 C   0  0  2  0  0  0  0  0  0  0  0  0
    0.4810    9.5370    0.6720 C   0  0  0  0  0  0  0  0  0  0  0  0
    1.1810   10.5160    1.6180 C   0  0  0  0  0  0  0  0  0  0  0  0
    0.2230   11.5200    2.1850 C   0  0  2  0  0  0  0  0  0  0  0  0
    0.6700   12.8800    2.1130 O   0  0  0  0  0  0  0  0  0  0  0  0
    0.5080   12.3360    3.4330 C   0  0  0  0  0  0  0  0  0  0  0  0
    1.7900   12.1830    4.1890 C   0  0  0  0  0  0  0  0  0  0  0  0
   -0.6480   12.9160    4.1870 C   0  0  0  0  0  0  0  0  0  0  0  0
    1.7860   10.6850   -1.1400 C   0  0  1  0  0  0  0  0  0  0  0  0
    2.7500   10.5280   -2.3470 C   0  0  0  0  0  0  0  0  0  0  0  0
    2.5660   11.7860   -3.2330 C   0  0  0  0  0  0  0  0  0  0  0  0
    1.7620   12.7700   -2.3510 C   0  0  1  0  0  0  0  0  0  0  0  0
    2.8220   13.4290   -1.4150 C   0  0  0  0  0  0  0  0  0  0  0  0
    0.9140   13.8430   -3.1100 C   0  0  2  0  0  0  0  0  0  0  0  0
    1.7260   14.8260   -3.9710 C   0  0  0  0  0  0  0  0  0  0  0  0
    2.1650   16.0720   -3.2750 C   0  0  0  0  0  0  0  0  0  0  0  0
    1.6820   16.5240   -2.1020 C   0  0  0  0  0  0  0  0  0  0  0  0
    0.5200   15.8090   -1.4010 C   0  0  1  0  0  0  0  0  0  0  0  0
   -0.5270   16.8550   -0.9370 C   0  0  0  0  0  0  0  0  0  0  0  0
    0.0860   17.9550   -0.0760 C   0  0  0  0  0  0  0  0  0  0  0  0
    1.1980   18.6810   -0.8290 C   0  0  2  0  0  0  0  0  0  0  0  0
    0.6200   19.3960   -1.9260 O   0  0  0  0  0  0  0  0  0  0  0  0
    2.3070   17.7270   -1.3540 C   0  0  0  0  0  0  0  0  0  0  0  0
    3.1310   17.1820   -0.1610 C   0  0  0  0  0  0  0  0  0  0  0  0
    3.2900   18.5650   -2.2140 C   0  0  0  0  0  0  0  0  0  0  0  0
   -0.1350   14.6020   -2.2000 C   0  0  1  0  0  0  0  0  0  0  0  0
   -1.2460   15.1370   -3.1540 C   0  0  0  0  0  0  0  0  0  0  0  0
   -0.8500   13.6380   -1.1810 C   0  0  0  0  0  0  0  0  0  0  0  0
    0.0110   12.5240   -0.5560 C   0  0  0  0  0  0  0  0  0  0  0  0
    0.7900   11.7640   -1.6340 C   0  0  2  0  0  0  0  0  0  0  0  0
   -0.2510   11.0710   -2.5780 C   0  0  0  0  0  0  0  0  0  0  0  0
   -0.5667    8.2678   -1.2786 H   0  0  0  0  0  0  0  0  0  0  0  0
   -0.1019    9.6066   -2.3823 H   0  0  0  0  0  0  0  0  0  0  0  0
    0.8373    8.0755   -2.3823 H   0  0  0  0  0  0  0  0  0  0  0  0
    2.0146    8.6270   -0.5210 H   0  0  0  0  0  0  0  0  0  0  0  0
   -0.5342    9.9114    0.4739 H   0  0  0  0  0  0  0  0  0  0  0  0
    0.4771    8.5562    1.1700 H   0  0  0  0  0  0  0  0  0  0  0  0
    1.6349    9.9500    2.4448 H   0  0  0  0  0  0  0  0  0  0  0  0
    1.9469   11.0587    1.0445 H   0  0  0  0  0  0  0  0  0  0  0  0
   -0.6376   10.9028    1.8875 H   0  0  0  0  0  0  0  0  0  0  0  0
    1.5838   12.2076    5.2692 H   0  0  0  0  0  0  0  0  0  0  0  0
    2.2579   11.2226    3.9268 H   0  0  0  0  0  0  0  0  0  0  0  0
    2.4708   13.0063    3.9268 H   0  0  0  0  0  0  0  0  0  0  0  0
   -0.4643   12.8238    5.2676 H   0  0  0  0  0  0  0  0  0  0  0  0
   -0.7618   13.9779    3.9237 H   0  0  0  0  0  0  0  0  0  0  0  0
   -1.5673   12.3724    3.9237 H   0  0  0  0  0  0  0  0  0  0  0  0
    2.2626   11.0128   -0.2044 H   0  0  0  0  0  0  0  0  0  0  0  0
    3.7900   10.4615   -1.9949 H   0  0  0  0  0  0  0  0  0  0  0  0
    2.5285    9.6109   -2.9125 H   0  0  0  0  0  0  0  0  0  0  0  0
    3.5415   12.2159   -3.5045 H   0  0  0  0  0  0  0  0  0  0  0  0
    2.0527   11.5586   -4.1790 H   0  0  0  0  0  0  0  0  0  0  0  0
    2.5427   13.2554   -0.3653 H   0  0  0  0  0  0  0  0  0  0  0  0
    3.8095   12.9854   -1.6099 H   0  0  0  0  0  0  0  0  0  0  0  0
    2.8611   14.5109   -1.6099 H   0  0  0  0  0  0  0  0  0  0  0  0
    0.3375   13.2305   -3.8189 H   0  0  0  0  0  0  0  0  0  0  0  0
    2.6246   14.3021   -4.3289 H   0  0  0  0  0  0  0  0  0  0  0  0
    1.0534   15.1499   -4.7789 H   0  0  0  0  0  0  0  0  0  0  0  0
    2.9489   16.6711   -3.7614 H   0  0  0  0  0  0  0  0  0  0  0  0
    0.9566   15.3048   -0.5262 H   0  0  0  0  0  0  0  0  0  0  0  0
   -0.9827   17.3158   -1.8258 H   0  0  0  0  0  0  0  0  0  0  0  0
   -1.2746   16.3297   -0.3246 H   0  0  0  0  0  0  0  0  0  0  0  0
   -0.6970   18.6784    0.1951 H   0  0  0  0  0  0  0  0  0  0  0  0
    0.5149   17.4962    0.8271 H   0  0  0  0  0  0  0  0  0  0  0  0
    1.6844   19.3663   -0.1192 H   0  0  0  0  0  0  0  0  0  0  0  0
    0.8390   20.3370   -1.8120 H   0  0  0  0  0  0  0  0  0  0  0  0
    2.6598   17.4936    0.7829 H   0  0  0  0  0  0  0  0  0  0  0  0
    3.1637   16.0835   -0.2093 H   0  0  0  0  0  0  0  0  0  0  0  0
    4.1546   17.5818   -0.2093 H   0  0  0  0  0  0  0  0  0  0  0  0
    3.9596   19.1359   -1.5539 H   0  0  0  0  0  0  0  0  0  0  0  0
    3.8862   17.8931   -2.8488 H   0  0  0  0  0  0  0  0  0  0  0  0
    2.7209   19.2601   -2.8488 H   0  0  0  0  0  0  0  0  0  0  0  0
   -2.0791   15.5382   -2.5581 H   0  0  0  0  0  0  0  0  0  0  0  0
   -0.8317   15.9344   -3.7885 H   0  0  0  0  0  0  0  0  0  0  0  0
   -1.6111   14.3159   -3.7885 H   0  0  0  0  0  0  0  0  0  0  0  0
   -1.2432   14.2549   -0.3595 H   0  0  0  0  0  0  0  0  0  0  0  0
   -1.6155   13.1127   -1.7710 H   0  0  0  0  0  0  0  0  0  0  0  0
    0.7222   12.9735    0.1526 H   0  0  0  0  0  0  0  0  0  0  0  0
   -0.6528   11.8162   -0.0379 H   0  0  0  0  0  0  0  0  0  0  0  0
   -1.0147   10.5626   -1.9712 H   0  0  0  0  0  0  0  0  0  0  0  0
   -0.7323   11.8296   -3.2128 H   0  0  0  0  0  0  0  0  0  0  0  0
    0.2632   10.3343   -3.2128 H   0  0  0  0  0  0  0  0  0  0  0  0
  1  2  1  0
  2  3  1  0
  3  4  1  0
  4  5  1  0
  5  6  1  0
  6  7  1  0
  7  8  1  0
  7  9  1  0
  2 10  1  0
 10 11  1  0
 11 12  1  0
 12 13  1  0
 13 14  1  1
 13 15  1  0
 15 16  1  0
 16 17  1  0
 17 18  2  0
 18 19  1  0
 19 20  1  0
 20 21  1  0
 21 22  1  0
 22 23  1  0
 22 24  1  0
 24 25  1  0
 24 26  1  0
 19 27  1  0
 27 28  1  6
 27 29  1  0
 29 30  1  0
 30 31  1  0
 31 32  1  6
  7  5  1  0
 31 10  1  0
 31 13  1  0
 27 15  1  0
 24 18  1  0
  1 33  1  0
  1 34  1  0
  1 35  1  0
  2 36  1  1
  3 37  1  0
  3 38  1  0
  4 39  1  0
  4 40  1  0
  5 41  1  1
  8 42  1  0
  8 43  1  0
  8 44  1  0
  9 45  1  0
  9 46  1  0
  9 47  1  0
 10 48  1  1
 11 49  1  0
 11 50  1  0
 12 51  1  0
 12 52  1  0
 14 53  1  0
 14 54  1  0
 14 55  1  0
 15 56  1  6
 16 57  1  0
 16 58  1  0
 17 59  1  0
 19 60  1  1
 20 61  1  0
 20 62  1  0
 21 63  1  0
 21 64  1  0
 22 65  1  1
 23 66  1  0
 25 67  1  0
 25 68  1  0
 25 69  1  0
 26 70  1  0
 26 71  1  0
 26 72  1  0
 28 73  1  0
 28 74  1  0
 28 75  1  0
 29 76  1  0
 29 77  1  0
 30 78  1  0
 30 79  1  0
 32 80  1  0
 32 81  1  0
 32 82  1  0
M  END
>  <meeko>  (20) 
{"is_sidechain": [false], "intermolecular_energy": 2.731, "internal_energy": -0.839}

$$$$
