EPH_relaxed_0001_pdb2pqr_Repair_340_r2_0001_out
     RDKit          3D

 82 86  0  0  0  0  0  0  0  0999 V2000
    4.4860   17.7520   -0.7200 C   0  0  0  0  0  0  0  0  0  0  0  0
    3.1070   18.3180   -0.3670 C   0  0  2  0  0  0  0  0  0  0  0  0
    3.0760   18.9290    1.0480 C   0  0  0  0  0  0  0  0  0  0  0  0
    4.3520   18.6770    1.8560 C   0  0  0  0  0  0  0  0  0  0  0  0
    4.2370   19.2070    3.2540 C   0  0  2  0  0  0  0  0  0  0  0  0
    5.2180   20.1920    3.6030 O   0  0  0  0  0  0  0  0  0  0  0  0
    5.2750   18.9550    4.3320 C   0  0  0  0  0  0  0  0  0  0  0  0
    6.5020   18.1430    4.0590 C   0  0  0  0  0  0  0  0  0  0  0  0
    4.8620   19.0800    5.7650 C   0  0  0  0  0  0  0  0  0  0  0  0
    2.0510   17.2250   -0.4850 C   0  0  1  0  0  0  0  0  0  0  0  0
    0.7000   17.7570   -1.0330 C   0  0  0  0  0  0  0  0  0  0  0  0
    0.0950   16.6270   -1.9050 C   0  0  0  0  0  0  0  0  0  0  0  0
    0.9400   15.3770   -1.5650 C   0  0  1  0  0  0  0  0  0  0  0  0
    0.3420   14.8390   -0.2280 C   0  0  0  0  0  0  0  0  0  0  0  0
    0.9980   14.2630   -2.6610 C   0  0  2  0  0  0  0  0  0  0  0  0
   -0.3530   13.6120   -3.0020 C   0  0  0  0  0  0  0  0  0  0  0  0
   -0.7020   12.4060   -2.1940 C   0  0  0  0  0  0  0  0  0  0  0  0
    0.1550   11.6990   -1.4340 C   0  0  0  0  0  0  0  0  0  0  0  0
    1.6510   12.0380   -1.4110 C   0  0  1  0  0  0  0  0  0  0  0  0
    2.4790   10.7340   -1.5560 C   0  0  0  0  0  0  0  0  0  0  0  0
    2.1030    9.6830   -0.5150 C   0  0  0  0  0  0  0  0  0  0  0  0
    0.6200    9.3310   -0.6080 C   0  0  2  0  0  0  0  0  0  0  0  0
    0.3810    8.6690   -1.8540 O   0  0  0  0  0  0  0  0  0  0  0  0
   -0.3130   10.5680   -0.4860 C   0  0  0  0  0  0  0  0  0  0  0  0
   -0.2770   11.1050    0.9670 C   0  0  0  0  0  0  0  0  0  0  0  0
   -1.7690   10.0940   -0.7370 C   0  0  0  0  0  0  0  0  0  0  0  0
    2.1200   13.1740   -2.4190 C   0  0  1  0  0  0  0  0  0  0  0  0
    2.4430   12.5500   -3.8110 C   0  0  0  0  0  0  0  0  0  0  0  0
    3.4640   13.8040   -1.8930 C   0  0  0  0  0  0  0  0  0  0  0  0
    3.3390   14.9790   -0.9050 C   0  0  0  0  0  0  0  0  0  0  0  0
    2.3610   16.0360   -1.4290 C   0  0  2  0  0  0  0  0  0  0  0  0
    2.9480   16.6110   -2.7620 C   0  0  0  0  0  0  0  0  0  0  0  0
    5.0372   17.5258    0.2047 H   0  0  0  0  0  0  0  0  0  0  0  0
    4.3645   16.8310   -1.3091 H   0  0  0  0  0  0  0  0  0  0  0  0
    5.0466   18.4928   -1.3091 H   0  0  0  0  0  0  0  0  0  0  0  0
    2.8877   19.1256   -1.0809 H   0  0  0  0  0  0  0  0  0  0  0  0
    2.9336   20.0157    0.9539 H   0  0  0  0  0  0  0  0  0  0  0  0
    2.2514   18.4427    1.5898 H   0  0  0  0  0  0  0  0  0  0  0  0
    4.5382   17.5938    1.8996 H   0  0  0  0  0  0  0  0  0  0  0  0
    5.1819   19.1999    1.3582 H   0  0  0  0  0  0  0  0  0  0  0  0
    3.1445   19.0802    3.2377 H   0  0  0  0  0  0  0  0  0  0  0  0
    6.9604   17.8396    5.0118 H   0  0  0  0  0  0  0  0  0  0  0  0
    6.2281   17.2473    3.4823 H   0  0  0  0  0  0  0  0  0  0  0  0
    7.2194   18.7452    3.4823 H   0  0  0  0  0  0  0  0  0  0  0  0
    5.7113   18.8230    6.4151 H   0  0  0  0  0  0  0  0  0  0  0  0
    4.5458   20.1141    5.9666 H   0  0  0  0  0  0  0  0  0  0  0  0
    4.0254   18.3948    5.9666 H   0  0  0  0  0  0  0  0  0  0  0  0
    2.0247   16.8799    0.5591 H   0  0  0  0  0  0  0  0  0  0  0  0
    0.0220   17.9975   -0.2008 H   0  0  0  0  0  0  0  0  0  0  0  0
    0.8464   18.6747   -1.6216 H   0  0  0  0  0  0  0  0  0  0  0  0
   -0.9621   16.4626   -1.6489 H   0  0  0  0  0  0  0  0  0  0  0  0
    0.1207   16.8688   -2.9778 H   0  0  0  0  0  0  0  0  0  0  0  0
    0.8621   15.3069    0.6208 H   0  0  0  0  0  0  0  0  0  0  0  0
   -0.7296   15.0831   -0.1811 H   0  0  0  0  0  0  0  0  0  0  0  0
    0.4719   13.7477   -0.1811 H   0  0  0  0  0  0  0  0  0  0  0  0
    1.2907   14.8292   -3.5575 H   0  0  0  0  0  0  0  0  0  0  0  0
   -1.1410   14.3639   -2.8481 H   0  0  0  0  0  0  0  0  0  0  0  0
   -0.2703   13.2671   -4.0432 H   0  0  0  0  0  0  0  0  0  0  0  0
   -1.7479   12.0665   -2.2221 H   0  0  0  0  0  0  0  0  0  0  0  0
    1.8444   12.4962   -0.4299 H   0  0  0  0  0  0  0  0  0  0  0  0
    2.3051   10.3155   -2.5583 H   0  0  0  0  0  0  0  0  0  0  0  0
    3.5373   10.9918   -1.4029 H   0  0  0  0  0  0  0  0  0  0  0  0
    2.7002    8.7754   -0.6874 H   0  0  0  0  0  0  0  0  0  0  0  0
    2.3054   10.0914    0.4861 H   0  0  0  0  0  0  0  0  0  0  0  0
    0.3829    8.6751    0.2427 H   0  0  0  0  0  0  0  0  0  0  0  0
    0.0580    7.7740   -1.6550 H   0  0  0  0  0  0  0  0  0  0  0  0
   -0.3335   10.2617    1.6711 H   0  0  0  0  0  0  0  0  0  0  0  0
    0.6602   11.6572    1.1307 H   0  0  0  0  0  0  0  0  0  0  0  0
   -1.1321   11.7773    1.1307 H   0  0  0  0  0  0  0  0  0  0  0  0
   -2.2726    9.9301    0.2271 H   0  0  0  0  0  0  0  0  0  0  0  0
   -2.3113   10.8620   -1.3080 H   0  0  0  0  0  0  0  0  0  0  0  0
   -1.7553    9.1539   -1.3080 H   0  0  0  0  0  0  0  0  0  0  0  0
    2.9446   11.5811   -3.6710 H   0  0  0  0  0  0  0  0  0  0  0  0
    1.5085   12.4015   -4.3720 H   0  0  0  0  0  0  0  0  0  0  0  0
    3.1038   13.2272   -4.3720 H   0  0  0  0  0  0  0  0  0  0  0  0
    4.0319   13.0064   -1.3917 H   0  0  0  0  0  0  0  0  0  0  0  0
    3.9522   14.2268   -2.7835 H   0  0  0  0  0  0  0  0  0  0  0  0
    2.9747   14.5994    0.0610 H   0  0  0  0  0  0  0  0  0  0  0  0
    4.3286   15.4449   -0.7878 H   0  0  0  0  0  0  0  0  0  0  0  0
    3.7161   17.3634   -2.5299 H   0  0  0  0  0  0  0  0  0  0  0  0
    3.3986   15.7951   -3.3462 H   0  0  0  0  0  0  0  0  0  0  0  0
    2.1416   17.0784   -3.3462 H   0  0  0  0  0  0  0  0  0  0  0  0
  1  2  1  0
  2  3  1  0
  3  4  1  0
  4  5  1  0
  5  6  1  0
  6  7  1  0
  7  8  1  0
  7  9  1  0
  2 10  1  0
 10 11  1  0
 11 12  1  0
 12 13  1  0
 13 14  1  1
 13 15  1  0
 15 16  1  0
 16 17  1  0
 17 18  2  0
 18 19  1  0
 19 20  1  0
 20 21  1  0
 21 22  1  0
 22 23  1  0
 22 24  1  0
 24 25  1  0
 24 26  1  0
 19 27  1  0
 27 28  1  6
 27 29  1  0
 29 30  1  0
 30 31  1  0
 31 32  1  6
  7  5  1  0
 31 10  1  0
 31 13  1  0
 27 15  1  0
 24 18  1  0
  1 33  1  0
  1 34  1  0
  1 35  1  0
  2 36  1  6
  3 37  1  0
  3 38  1  0
  4 39  1  0
  4 40  1  0
  5 41  1  1
  8 42  1  0
  8 43  1  0
  8 44  1  0
  9 45  1  0
  9 46  1  0
  9 47  1  0
 10 48  1  1
 11 49  1  0
 11 50  1  0
 12 51  1  0
 12 52  1  0
 14 53  1  0
 14 54  1  0
 14 55  1  0
 15 56  1  6
 16 57  1  0
 16 58  1  0
 17 59  1  0
 19 60  1  1
 20 61  1  0
 20 62  1  0
 21 63  1  0
 21 64  1  0
 22 65  1  1
 23 66  1  0
 25 67  1  0
 25 68  1  0
 25 69  1  0
 26 70  1  0
 26 71  1  0
 26 72  1  0
 28 73  1  0
 28 74  1  0
 28 75  1  0
 29 76  1  0
 29 77  1  0
 30 78  1  0
 30 79  1  0
 32 80  1  0
 32 81  1  0
 32 82  1  0
M  END
>  <meeko>  (1) 
{"is_sidechain": [false], "intermolecular_energy": 2.731, "internal_energy": -0.839}

$$$$
EPH_relaxed_0001_pdb2pqr_Repair_340_r2_0001_out
     RDKit          3D

 82 86  0  0  0  0  0  0  0  0999 V2000
    3.8040   17.9510    0.6930 C   0  0  0  0  0  0  0  0  0  0  0  0
    2.9470   18.3310   -0.5180 C   0  0  2  0  0  0  0  0  0  0  0  0
    2.2020   19.6650   -0.3070 C   0  0  0  0  0  0  0  0  0  0  0  0
    1.1670   19.6200    0.8200 C   0  0  0  0  0  0  0  0  0  0  0  0
   -0.1540   20.1750    0.3820 C   0  0  2  0  0  0  0  0  0  0  0  0
   -1.1630   20.1940    1.4000 O   0  0  0  0  0  0  0  0  0  0  0  0
   -1.4170   19.3420    0.2720 C   0  0  0  0  0  0  0  0  0  0  0  0
   -1.4200   17.8820    0.6010 C   0  0  0  0  0  0  0  0  0  0  0  0
   -2.5210   19.8280   -0.6150 C   0  0  0  0  0  0  0  0  0  0  0  0
    1.9490   17.2190   -0.8180 C   0  0  1  0  0  0  0  0  0  0  0  0
    0.8200   17.6730   -1.7820 C   0  0  0  0  0  0  0  0  0  0  0  0
    0.4680   16.4490   -2.6660 C   0  0  0  0  0  0  0  0  0  0  0  0
    1.1580   15.2530   -1.9700 C   0  0  1  0  0  0  0  0  0  0  0  0
    0.1930   14.8520   -0.8100 C   0  0  0  0  0  0  0  0  0  0  0  0
    1.5060   14.0310   -2.8800 C   0  0  2  0  0  0  0  0  0  0  0  0
    0.2960   13.3300   -3.5230 C   0  0  0  0  0  0  0  0  0  0  0  0
   -0.2910   12.2130   -2.7260 C   0  0  0  0  0  0  0  0  0  0  0  0
    0.3010   11.6000   -1.6830 C   0  0  0  0  0  0  0  0  0  0  0  0
    1.7340   11.9580   -1.2700 C   0  0  1  0  0  0  0  0  0  0  0  0
    2.5450   10.6570   -1.0340 C   0  0  0  0  0  0  0  0  0  0  0  0
    1.8680    9.7180   -0.0400 C   0  0  0  0  0  0  0  0  0  0  0  0
    0.4680    9.3390   -0.5150 C   0  0  2  0  0  0  0  0  0  0  0  0
    0.5820    8.5460   -1.7010 O   0  0  0  0  0  0  0  0  0  0  0  0
   -0.4390   10.5700   -0.7950 C   0  0  0  0  0  0  0  0  0  0  0  0
   -0.8090   11.2580    0.5430 C   0  0  0  0  0  0  0  0  0  0  0  0
   -1.7720   10.0540   -1.4000 C   0  0  0  0  0  0  0  0  0  0  0  0
    2.4920   12.9870   -2.2150 C   0  0  1  0  0  0  0  0  0  0  0  0
    3.1870   12.2230   -3.3840 C   0  0  0  0  0  0  0  0  0  0  0  0
    3.6410   13.6860   -1.3970 C   0  0  0  0  0  0  0  0  0  0  0  0
    3.2610   14.9580   -0.6140 C   0  0  0  0  0  0  0  0  0  0  0  0
    2.4930   15.9400   -1.5030 C   0  0  2  0  0  0  0  0  0  0  0  0
    3.4460   16.3790   -2.6660 C   0  0  0  0  0  0  0  0  0  0  0  0
    3.2595   18.1924    1.6178 H   0  0  0  0  0  0  0  0  0  0  0  0
    4.0200   16.8728    0.6655 H   0  0  0  0  0  0  0  0  0  0  0  0
    4.7481   18.5149    0.6655 H   0  0  0  0  0  0  0  0  0  0  0  0
    3.6247   18.4633   -1.3743 H   0  0  0  0  0  0  0  0  0  0  0  0
    2.9426   20.4423   -0.0676 H   0  0  0  0  0  0  0  0  0  0  0  0
    1.6553   19.8786   -1.2373 H   0  0  0  0  0  0  0  0  0  0  0  0
    1.0280   18.5752    1.1348 H   0  0  0  0  0  0  0  0  0  0  0  0
    1.5389   20.2362    1.6518 H   0  0  0  0  0  0  0  0  0  0  0  0
    0.3413   20.8605   -0.3214 H   0  0  0  0  0  0  0  0  0  0  0  0
   -1.4203   17.7523    1.6933 H   0  0  0  0  0  0  0  0  0  0  0  0
   -2.3191   17.4122    0.1757 H   0  0  0  0  0  0  0  0  0  0  0  0
   -0.5228   17.4085    0.1757 H   0  0  0  0  0  0  0  0  0  0  0  0
   -3.3537   20.1946    0.0033 H   0  0  0  0  0  0  0  0  0  0  0  0
   -2.1483   20.6453   -1.2500 H   0  0  0  0  0  0  0  0  0  0  0  0
   -2.8721   19.0012   -1.2500 H   0  0  0  0  0  0  0  0  0  0  0  0
    1.6197   16.9866    0.2055 H   0  0  0  0  0  0  0  0  0  0  0  0
   -0.0625   17.9922   -1.2082 H   0  0  0  0  0  0  0  0  0  0  0  0
    1.1449   18.5246   -2.3977 H   0  0  0  0  0  0  0  0  0  0  0  0
   -0.6210   16.2993   -2.7060 H   0  0  0  0  0  0  0  0  0  0  0  0
    0.8028   16.5759   -3.7061 H   0  0  0  0  0  0  0  0  0  0  0  0
    0.6779   15.0535    0.1566 H   0  0  0  0  0  0  0  0  0  0  0  0
   -0.7340   15.4394   -0.8846 H   0  0  0  0  0  0  0  0  0  0  0  0
   -0.0448   13.7806   -0.8846 H   0  0  0  0  0  0  0  0  0  0  0  0
    2.0530   14.5036   -3.7091 H   0  0  0  0  0  0  0  0  0  0  0  0
   -0.4892   14.0840   -3.6812 H   0  0  0  0  0  0  0  0  0  0  0  0
    0.6661   12.8774   -4.4548 H   0  0  0  0  0  0  0  0  0  0  0  0
   -1.2921   11.8604   -3.0149 H   0  0  0  0  0  0  0  0  0  0  0  0
    1.6475   12.5200   -0.3284 H   0  0  0  0  0  0  0  0  0  0  0  0
    2.6574   10.1324   -1.9943 H   0  0  0  0  0  0  0  0  0  0  0  0
    3.5199   10.9430   -0.6125 H   0  0  0  0  0  0  0  0  0  0  0  0
    2.4730    8.8050    0.0623 H   0  0  0  0  0  0  0  0  0  0  0  0
    1.7830   10.2333    0.9281 H   0  0  0  0  0  0  0  0  0  0  0  0
   -0.0131    8.7734    0.2966 H   0  0  0  0  0  0  0  0  0  0  0  0
   -0.0460    8.9000   -2.3530 H   0  0  0  0  0  0  0  0  0  0  0  0
   -0.4724   10.6320    1.3825 H   0  0  0  0  0  0  0  0  0  0  0  0
   -0.3177   12.2406    0.5982 H   0  0  0  0  0  0  0  0  0  0  0  0
   -1.8997   11.3898    0.5982 H   0  0  0  0  0  0  0  0  0  0  0  0
   -2.4639    9.7862   -0.5879 H   0  0  0  0  0  0  0  0  0  0  0  0
   -2.2226   10.8426   -2.0205 H   0  0  0  0  0  0  0  0  0  0  0  0
   -1.5742    9.1675   -2.0205 H   0  0  0  0  0  0  0  0  0  0  0  0
    3.8734   11.4685   -2.9721 H   0  0  0  0  0  0  0  0  0  0  0  0
    2.4245   11.7265   -4.0021 H   0  0  0  0  0  0  0  0  0  0  0  0
    3.7532   12.9352   -4.0021 H   0  0  0  0  0  0  0  0  0  0  0  0
    4.0281   12.9531   -0.6738 H   0  0  0  0  0  0  0  0  0  0  0  0
    4.3699   14.0186   -2.1507 H   0  0  0  0  0  0  0  0  0  0  0  0
    2.6296   14.6783    0.2422 H   0  0  0  0  0  0  0  0  0  0  0  0
    4.1843   15.4461   -0.2685 H   0  0  0  0  0  0  0  0  0  0  0  0
    4.3685   16.8039   -2.2435 H   0  0  0  0  0  0  0  0  0  0  0  0
    3.6952   15.5049   -3.2856 H   0  0  0  0  0  0  0  0  0  0  0  0
    2.9436   17.1364   -3.2856 H   0  0  0  0  0  0  0  0  0  0  0  0
  1  2  1  0
  2  3  1  0
  3  4  1  0
  4  5  1  0
  5  6  1  0
  6  7  1  0
  7  8  1  0
  7  9  1  0
  2 10  1  0
 10 11  1  0
 11 12  1  0
 12 13  1  0
 13 14  1  1
 13 15  1  0
 15 16  1  0
 16 17  1  0
 17 18  2  0
 18 19  1  0
 19 20  1  0
 20 21  1  0
 21 22  1  0
 22 23  1  0
 22 24  1  0
 24 25  1  0
 24 26  1  0
 19 27  1  0
 27 28  1  6
 27 29  1  0
 29 30  1  0
 30 31  1  0
 31 32  1  6
  7  5  1  0
 31 10  1  0
 31 13  1  0
 27 15  1  0
 24 18  1  0
  1 33  1  0
  1 34  1  0
  1 35  1  0
  2 36  1  6
  3 37  1  0
  3 38  1  0
  4 39  1  0
  4 40  1  0
  5 41  1  6
  8 42  1  0
  8 43  1  0
  8 44  1  0
  9 45  1  0
  9 46  1  0
  9 47  1  0
 10 48  1  1
 11 49  1  0
 11 50  1  0
 12 51  1  0
 12 52  1  0
 14 53  1  0
 14 54  1  0
 14 55  1  0
 15 56  1  6
 16 57  1  0
 16 58  1  0
 17 59  1  0
 19 60  1  1
 20 61  1  0
 20 62  1  0
 21 63  1  0
 21 64  1  0
 22 65  1  1
 23 66  1  0
 25 67  1  0
 25 68  1  0
 25 69  1  0
 26 70  1  0
 26 71  1  0
 26 72  1  0
 28 73  1  0
 28 74  1  0
 28 75  1  0
 29 76  1  0
 29 77  1  0
 30 78  1  0
 30 79  1  0
 32 80  1  0
 32 81  1  0
 32 82  1  0
M  END
>  <meeko>  (2) 
{"is_sidechain": [false], "intermolecular_energy": 2.731, "internal_energy": -0.839}

$$$$
EPH_relaxed_0001_pdb2pqr_Repair_340_r2_0001_out
     RDKit          3D

 82 86  0  0  0  0  0  0  0  0999 V2000
   -1.1230    8.8330   -1.9070 C   0  0  0  0  0  0  0  0  0  0  0  0
   -1.5440    9.2200   -0.4860 C   0  0  2  0  0  0  0  0  0  0  0  0
   -3.0730    9.3660   -0.3530 C   0  0  0  0  0  0  0  0  0  0  0  0
   -3.8630    8.4310   -1.2730 C   0  0  0  0  0  0  0  0  0  0  0  0
   -5.2080    8.0980   -0.7020 C   0  0  2  0  0  0  0  0  0  0  0  0
   -5.4320    6.7000   -0.4760 O   0  0  0  0  0  0  0  0  0  0  0  0
   -6.2710    7.3250   -1.4610 C   0  0  0  0  0  0  0  0  0  0  0  0
   -6.0350    6.8400   -2.8570 C   0  0  0  0  0  0  0  0  0  0  0  0
   -7.6990    7.4660   -1.0350 C   0  0  0  0  0  0  0  0  0  0  0  0
   -0.8590   10.5190   -0.0780 C   0  0  1  0  0  0  0  0  0  0  0  0
    0.0850   10.3390    1.1410 C   0  0  0  0  0  0  0  0  0  0  0  0
    1.2840   11.2990    0.9230 C   0  0  0  0  0  0  0  0  0  0  0  0
    0.8340   12.2300   -0.2270 C   0  0  1  0  0  0  0  0  0  0  0  0
   -0.0660   13.3060    0.4580 C   0  0  0  0  0  0  0  0  0  0  0  0
    1.9750   12.8840   -1.0720 C   0  0  2  0  0  0  0  0  0  0  0  0
    2.9100   13.8230   -0.2900 C   0  0  0  0  0  0  0  0  0  0  0  0
    2.4940   15.2570   -0.2590 C   0  0  0  0  0  0  0  0  0  0  0  0
    1.5770   15.8230   -1.0650 C   0  0  0  0  0  0  0  0  0  0  0  0
    0.9210   15.0210   -2.1970 C   0  0  1  0  0  0  0  0  0  0  0  0
    0.9260   15.8650   -3.4990 C   0  0  0  0  0  0  0  0  0  0  0  0
    0.2860   17.2370   -3.3090 C   0  0  0  0  0  0  0  0  0  0  0  0
    1.0020   18.0260   -2.2160 C   0  0  2  0  0  0  0  0  0  0  0  0
    2.3270   18.3320   -2.6610 O   0  0  0  0  0  0  0  0  0  0  0  0
    1.0680   17.2710   -0.8590 C   0  0  0  0  0  0  0  0  0  0  0  0
   -0.3460   17.2050   -0.2310 C   0  0  0  0  0  0  0  0  0  0  0  0
    1.9370   18.1130    0.1140 C   0  0  0  0  0  0  0  0  0  0  0  0
    1.4820   13.5510   -2.4200 C   0  0  1  0  0  0  0  0  0  0  0  0
    2.7150   13.5910   -3.3740 C   0  0  0  0  0  0  0  0  0  0  0  0
    0.3850   12.6870   -3.1480 C   0  0  0  0  0  0  0  0  0  0  0  0
   -0.6420   11.9690   -2.2520 C   0  0  0  0  0  0  0  0  0  0  0  0
    0.0560   11.2010   -1.1250 C   0  0  2  0  0  0  0  0  0  0  0  0
    0.9520   10.0960   -1.7830 C   0  0  0  0  0  0  0  0  0  0  0  0
   -0.3139    8.0893   -1.8600 H   0  0  0  0  0  0  0  0  0  0  0  0
   -1.9842    8.4047   -2.4407 H   0  0  0  0  0  0  0  0  0  0  0  0
   -0.7686    9.7271   -2.4407 H   0  0  0  0  0  0  0  0  0  0  0  0
   -1.2308    8.4071    0.1857 H   0  0  0  0  0  0  0  0  0  0  0  0
   -3.3535    9.1475    0.6879 H   0  0  0  0  0  0  0  0  0  0  0  0
   -3.3245   10.3954   -0.6482 H   0  0  0  0  0  0  0  0  0  0  0  0
   -4.0011    8.9225   -2.2473 H   0  0  0  0  0  0  0  0  0  0  0  0
   -3.2949    7.4952   -1.3806 H   0  0  0  0  0  0  0  0  0  0  0  0
   -5.2389    9.0520   -0.1552 H   0  0  0  0  0  0  0  0  0  0  0  0
   -5.5539    5.8513   -2.8253 H   0  0  0  0  0  0  0  0  0  0  0  0
   -6.9964    6.7631   -3.3859 H   0  0  0  0  0  0  0  0  0  0  0  0
   -5.3812    7.5491   -3.3859 H   0  0  0  0  0  0  0  0  0  0  0  0
   -7.7551    7.4715    0.0636 H   0  0  0  0  0  0  0  0  0  0  0  0
   -8.1074    8.4088   -1.4277 H   0  0  0  0  0  0  0  0  0  0  0  0
   -8.2839    6.6212   -1.4277 H   0  0  0  0  0  0  0  0  0  0  0  0
   -1.7452   11.1431    0.1093 H   0  0  0  0  0  0  0  0  0  0  0  0
   -0.4431   10.5973    2.0707 H   0  0  0  0  0  0  0  0  0  0  0  0
    0.4242    9.2962    1.2277 H   0  0  0  0  0  0  0  0  0  0  0  0
    1.4879   11.8791    1.8351 H   0  0  0  0  0  0  0  0  0  0  0  0
    2.2124   10.7595    0.6841 H   0  0  0  0  0  0  0  0  0  0  0  0
    0.0146   13.2097    1.5508 H   0  0  0  0  0  0  0  0  0  0  0  0
    0.2655   14.3095    0.1529 H   0  0  0  0  0  0  0  0  0  0  0  0
   -1.1123   13.1570    0.1529 H   0  0  0  0  0  0  0  0  0  0  0  0
    2.5893   12.0153   -1.3512 H   0  0  0  0  0  0  0  0  0  0  0  0
    2.9637   13.4622    0.7478 H   0  0  0  0  0  0  0  0  0  0  0  0
    3.8758   13.7977   -0.8159 H   0  0  0  0  0  0  0  0  0  0  0  0
    2.9783   15.9056    0.4859 H   0  0  0  0  0  0  0  0  0  0  0  0
   -0.1148   14.8340   -1.8774 H   0  0  0  0  0  0  0  0  0  0  0  0
    1.9673   16.0037   -3.8254 H   0  0  0  0  0  0  0  0  0  0  0  0
    0.3350   15.3220   -4.2513 H   0  0  0  0  0  0  0  0  0  0  0  0
    0.3456   17.7961   -4.2544 H   0  0  0  0  0  0  0  0  0  0  0  0
   -0.7635   17.0967   -3.0107 H   0  0  0  0  0  0  0  0  0  0  0  0
    0.4214   18.9430   -2.0370 H   0  0  0  0  0  0  0  0  0  0  0  0
    2.3580   19.2830   -2.8600 H   0  0  0  0  0  0  0  0  0  0  0  0
   -0.2607   17.2090    0.8657 H   0  0  0  0  0  0  0  0  0  0  0  0
   -0.9327   18.0767   -0.5563 H   0  0  0  0  0  0  0  0  0  0  0  0
   -0.8490   16.2824   -0.5563 H   0  0  0  0  0  0  0  0  0  0  0  0
    1.6755   17.8596    1.1520 H   0  0  0  0  0  0  0  0  0  0  0  0
    3.0006   17.8929   -0.0603 H   0  0  0  0  0  0  0  0  0  0  0  0
    1.7506   19.1830   -0.0603 H   0  0  0  0  0  0  0  0  0  0  0  0
    3.6390   13.6210   -2.7779 H   0  0  0  0  0  0  0  0  0  0  0  0
    2.7170   12.6924   -4.0085 H   0  0  0  0  0  0  0  0  0  0  0  0
    2.6587   14.4878   -4.0085 H   0  0  0  0  0  0  0  0  0  0  0  0
   -0.1712   13.3549   -3.8222 H   0  0  0  0  0  0  0  0  0  0  0  0
    0.9403   11.8818   -3.6512 H   0  0  0  0  0  0  0  0  0  0  0  0
   -1.3202   12.7153   -1.8126 H   0  0  0  0  0  0  0  0  0  0  0  0
   -1.2051   11.2527   -2.8683 H   0  0  0  0  0  0  0  0  0  0  0  0
    1.4358    9.4993   -0.9956 H   0  0  0  0  0  0  0  0  0  0  0  0
    0.3269    9.4409   -2.4076 H   0  0  0  0  0  0  0  0  0  0  0  0
    1.7221   10.5723   -2.4076 H   0  0  0  0  0  0  0  0  0  0  0  0
  1  2  1  0
  2  3  1  0
  3  4  1  0
  4  5  1  0
  5  6  1  0
  6  7  1  0
  7  8  1  0
  7  9  1  0
  2 10  1  0
 10 11  1  0
 11 12  1  0
 12 13  1  0
 13 14  1  1
 13 15  1  0
 15 16  1  0
 16 17  1  0
 17 18  2  0
 18 19  1  0
 19 20  1  0
 20 21  1  0
 21 22  1  0
 22 23  1  0
 22 24  1  0
 24 25  1  0
 24 26  1  0
 19 27  1  0
 27 28  1  6
 27 29  1  0
 29 30  1  0
 30 31  1  0
 31 32  1  6
  7  5  1  0
 31 10  1  0
 31 13  1  0
 27 15  1  0
 24 18  1  0
  1 33  1  0
  1 34  1  0
  1 35  1  0
  2 36  1  1
  3 37  1  0
  3 38  1  0
  4 39  1  0
  4 40  1  0
  5 41  1  1
  8 42  1  0
  8 43  1  0
  8 44  1  0
  9 45  1  0
  9 46  1  0
  9 47  1  0
 10 48  1  1
 11 49  1  0
 11 50  1  0
 12 51  1  0
 12 52  1  0
 14 53  1  0
 14 54  1  0
 14 55  1  0
 15 56  1  6
 16 57  1  0
 16 58  1  0
 17 59  1  0
 19 60  1  1
 20 61  1  0
 20 62  1  0
 21 63  1  0
 21 64  1  0
 22 65  1  1
 23 66  1  0
 25 67  1  0
 25 68  1  0
 25 69  1  0
 26 70  1  0
 26 71  1  0
 26 72  1  0
 28 73  1  0
 28 74  1  0
 28 75  1  0
 29 76  1  0
 29 77  1  0
 30 78  1  0
 30 79  1  0
 32 80  1  0
 32 81  1  0
 32 82  1  0
M  END
>  <meeko>  (3) 
{"is_sidechain": [false], "intermolecular_energy": 2.731, "internal_energy": -0.839}

$$$$
EPH_relaxed_0001_pdb2pqr_Repair_340_r2_0001_out
     RDKit          3D

 82 86  0  0  0  0  0  0  0  0999 V2000
    2.2880   18.2580   -2.1930 C   0  0  0  0  0  0  0  0  0  0  0  0
    1.7570   17.4390   -1.0130 C   0  0  2  0  0  0  0  0  0  0  0  0
    2.8840   17.0050   -0.0540 C   0  0  0  0  0  0  0  0  0  0  0  0
    3.8710   18.1260    0.2840 C   0  0  0  0  0  0  0  0  0  0  0  0
    3.6130   18.6990    1.6450 C   0  0  2  0  0  0  0  0  0  0  0  0
    3.9520   20.0850    1.7840 O   0  0  0  0  0  0  0  0  0  0  0  0
    4.7150   19.1630    2.5790 C   0  0  0  0  0  0  0  0  0  0  0  0
    6.1570   19.0730    2.1910 C   0  0  0  0  0  0  0  0  0  0  0  0
    4.4220   19.2450    4.0450 C   0  0  0  0  0  0  0  0  0  0  0  0
    1.0080   16.2140   -1.5250 C   0  0  1  0  0  0  0  0  0  0  0  0
    0.4770   16.4010   -2.9710 C   0  0  0  0  0  0  0  0  0  0  0  0
    0.5720   15.0170   -3.6640 C   0  0  0  0  0  0  0  0  0  0  0  0
    0.8360   14.0210   -2.5110 C   0  0  1  0  0  0  0  0  0  0  0  0
   -0.5680   13.7510   -1.8840 C   0  0  0  0  0  0  0  0  0  0  0  0
    1.5600   12.6900   -2.8990 C   0  0  2  0  0  0  0  0  0  0  0  0
    0.7910   11.7930   -3.8850 C   0  0  0  0  0  0  0  0  0  0  0  0
   -0.1170   10.7870   -3.2570 C   0  0  0  0  0  0  0  0  0  0  0  0
   -0.0970   10.4160   -1.9630 C   0  0  0  0  0  0  0  0  0  0  0  0
    0.9730   10.9560   -1.0050 C   0  0  1  0  0  0  0  0  0  0  0  0
    1.5600    9.7860   -0.1730 C   0  0  0  0  0  0  0  0  0  0  0  0
    0.4820    8.9820    0.5490 C   0  0  0  0  0  0  0  0  0  0  0  0
   -0.5310    8.4140   -0.4430 C   0  0  2  0  0  0  0  0  0  0  0  0
    0.1230    7.4390   -1.2600 O   0  0  0  0  0  0  0  0  0  0  0  0
   -1.1820    9.5000   -1.3440 C   0  0  0  0  0  0  0  0  0  0  0  0
   -2.1330   10.3790   -0.4950 C   0  0  0  0  0  0  0  0  0  0  0  0
   -2.0740    8.7800   -2.3910 C   0  0  0  0  0  0  0  0  0  0  0  0
    2.1000   11.8620   -1.6640 C   0  0  1  0  0  0  0  0  0  0  0  0
    3.2570   10.9650   -2.2010 C   0  0  0  0  0  0  0  0  0  0  0  0
    2.7310   12.7840   -0.5550 C   0  0  0  0  0  0  0  0  0  0  0  0
    2.0410   14.1380   -0.3010 C   0  0  0  0  0  0  0  0  0  0  0  0
    1.7970   14.8840   -1.6160 C   0  0  2  0  0  0  0  0  0  0  0  0
    3.1940   15.1890   -2.2580 C   0  0  0  0  0  0  0  0  0  0  0  0
    2.8499   19.1246   -1.8145 H   0  0  0  0  0  0  0  0  0  0  0  0
    2.9514   17.6302   -2.8060 H   0  0  0  0  0  0  0  0  0  0  0  0
    1.4442   18.6074   -2.8060 H   0  0  0  0  0  0  0  0  0  0  0  0
    1.0701   18.0838   -0.4452 H   0  0  0  0  0  0  0  0  0  0  0  0
    2.4266   16.6513    0.8818 H   0  0  0  0  0  0  0  0  0  0  0  0
    3.4558   16.2170   -0.5660 H   0  0  0  0  0  0  0  0  0  0  0  0
    4.8935   17.7215    0.2553 H   0  0  0  0  0  0  0  0  0  0  0  0
    3.7445   18.9296   -0.4564 H   0  0  0  0  0  0  0  0  0  0  0  0
    2.7554   18.0262    1.7926 H   0  0  0  0  0  0  0  0  0  0  0  0
    6.7789   19.0342    3.0975 H   0  0  0  0  0  0  0  0  0  0  0  0
    6.3203   18.1629    1.5951 H   0  0  0  0  0  0  0  0  0  0  0  0
    6.4322   19.9557    1.5951 H   0  0  0  0  0  0  0  0  0  0  0  0
    5.3281   18.9914    4.6148 H   0  0  0  0  0  0  0  0  0  0  0  0
    4.1034   20.2668    4.2986 H   0  0  0  0  0  0  0  0  0  0  0  0
    3.6192   18.5370    4.2986 H   0  0  0  0  0  0  0  0  0  0  0  0
    0.2299   16.1365   -0.7513 H   0  0  0  0  0  0  0  0  0  0  0  0
   -0.5682   16.7431   -2.9496 H   0  0  0  0  0  0  0  0  0  0  0  0
    1.0650   17.1559   -3.5135 H   0  0  0  0  0  0  0  0  0  0  0  0
   -0.3696   14.7748   -4.1785 H   0  0  0  0  0  0  0  0  0  0  0  0
    1.3609   14.9872   -4.4300 H   0  0  0  0  0  0  0  0  0  0  0  0
   -0.4887   13.7662   -0.7870 H   0  0  0  0  0  0  0  0  0  0  0  0
   -1.2719   14.5302   -2.2116 H   0  0  0  0  0  0  0  0  0  0  0  0
   -0.9327   12.7663   -2.2116 H   0  0  0  0  0  0  0  0  0  0  0  0
    2.4410   13.0521   -3.4493 H   0  0  0  0  0  0  0  0  0  0  0  0
    0.1831   12.4423   -4.5322 H   0  0  0  0  0  0  0  0  0  0  0  0
    1.5530   11.2168   -4.4302 H   0  0  0  0  0  0  0  0  0  0  0  0
   -0.8651   10.3090   -3.9065 H   0  0  0  0  0  0  0  0  0  0  0  0
    0.4571   11.6647   -0.3405 H   0  0  0  0  0  0  0  0  0  0  0  0
    2.1083    9.1132   -0.8488 H   0  0  0  0  0  0  0  0  0  0  0  0
    2.2214   10.2193    0.5917 H   0  0  0  0  0  0  0  0  0  0  0  0
    0.9560    8.1526    1.0943 H   0  0  0  0  0  0  0  0  0  0  0  0
   -0.0456    9.6490    1.2467 H   0  0  0  0  0  0  0  0  0  0  0  0
   -1.3467    7.9617    0.1401 H   0  0  0  0  0  0  0  0  0  0  0  0
   -0.2490    7.5080   -2.1560 H   0  0  0  0  0  0  0  0  0  0  0  0
   -1.9406   10.2012    0.5733 H   0  0  0  0  0  0  0  0  0  0  0  0
   -1.9573   11.4397   -0.7276 H   0  0  0  0  0  0  0  0  0  0  0  0
   -3.1766   10.1206   -0.7276 H   0  0  0  0  0  0  0  0  0  0  0  0
   -2.8289    8.1707   -1.8725 H   0  0  0  0  0  0  0  0  0  0  0  0
   -2.5767    9.5285   -3.0212 H   0  0  0  0  0  0  0  0  0  0  0  0
   -1.4484    8.1307   -3.0212 H   0  0  0  0  0  0  0  0  0  0  0  0
    3.8113   10.5353   -1.3536 H   0  0  0  0  0  0  0  0  0  0  0  0
    2.8376   10.1537   -2.8141 H   0  0  0  0  0  0  0  0  0  0  0  0
    3.9382   11.5733   -2.8141 H   0  0  0  0  0  0  0  0  0  0  0  0
    2.7196   12.2223    0.3907 H   0  0  0  0  0  0  0  0  0  0  0  0
    3.7339   13.0380   -0.9287 H   0  0  0  0  0  0  0  0  0  0  0  0
    1.0763   13.9624    0.1974 H   0  0  0  0  0  0  0  0  0  0  0  0
    2.6964   14.7520    0.3342 H   0  0  0  0  0  0  0  0  0  0  0  0
    3.9358   15.3510   -1.4621 H   0  0  0  0  0  0  0  0  0  0  0  0
    3.5049   14.3376   -2.8812 H   0  0  0  0  0  0  0  0  0  0  0  0
    3.1217   16.0925   -2.8812 H   0  0  0  0  0  0  0  0  0  0  0  0
  1  2  1  0
  2  3  1  0
  3  4  1  0
  4  5  1  0
  5  6  1  0
  6  7  1  0
  7  8  1  0
  7  9  1  0
  2 10  1  0
 10 11  1  0
 11 12  1  0
 12 13  1  0
 13 14  1  1
 13 15  1  0
 15 16  1  0
 16 17  1  0
 17 18  2  0
 18 19  1  0
 19 20  1  0
 20 21  1  0
 21 22  1  0
 22 23  1  0
 22 24  1  0
 24 25  1  0
 24 26  1  0
 19 27  1  0
 27 28  1  6
 27 29  1  0
 29 30  1  0
 30 31  1  0
 31 32  1  6
  7  5  1  0
 31 10  1  0
 31 13  1  0
 27 15  1  0
 24 18  1  0
  1 33  1  0
  1 34  1  0
  1 35  1  0
  2 36  1  1
  3 37  1  0
  3 38  1  0
  4 39  1  0
  4 40  1  0
  5 41  1  1
  8 42  1  0
  8 43  1  0
  8 44  1  0
  9 45  1  0
  9 46  1  0
  9 47  1  0
 10 48  1  1
 11 49  1  0
 11 50  1  0
 12 51  1  0
 12 52  1  0
 14 53  1  0
 14 54  1  0
 14 55  1  0
 15 56  1  6
 16 57  1  0
 16 58  1  0
 17 59  1  0
 19 60  1  1
 20 61  1  0
 20 62  1  0
 21 63  1  0
 21 64  1  0
 22 65  1  1
 23 66  1  0
 25 67  1  0
 25 68  1  0
 25 69  1  0
 26 70  1  0
 26 71  1  0
 26 72  1  0
 28 73  1  0
 28 74  1  0
 28 75  1  0
 29 76  1  0
 29 77  1  0
 30 78  1  0
 30 79  1  0
 32 80  1  0
 32 81  1  0
 32 82  1  0
M  END
>  <meeko>  (4) 
{"is_sidechain": [false], "intermolecular_energy": 2.731, "internal_energy": -0.839}

$$$$
EPH_relaxed_0001_pdb2pqr_Repair_340_r2_0001_out
     RDKit          3D

 82 86  0  0  0  0  0  0  0  0999 V2000
   -0.6360    7.8940   -0.6100 C   0  0  0  0  0  0  0  0  0  0  0  0
   -1.0690    9.2460   -0.0370 C   0  0  2  0  0  0  0  0  0  0  0  0
   -2.3340    9.7930   -0.7290 C   0  0  0  0  0  0  0  0  0  0  0  0
   -3.6410    9.3180   -0.0880 C   0  0  0  0  0  0  0  0  0  0  0  0
   -4.0290    7.9520   -0.5660 C   0  0  2  0  0  0  0  0  0  0  0  0
   -4.1430    7.8260   -1.9900 O   0  0  0  0  0  0  0  0  0  0  0  0
   -5.3550    7.6470   -1.2390 C   0  0  0  0  0  0  0  0  0  0  0  0
   -6.3770    8.7150   -1.4690 C   0  0  0  0  0  0  0  0  0  0  0  0
   -5.8540    6.2360   -1.2290 C   0  0  0  0  0  0  0  0  0  0  0  0
    0.0690   10.2530   -0.1620 C   0  0  1  0  0  0  0  0  0  0  0  0
    1.4670    9.5780   -0.1470 C   0  0  0  0  0  0  0  0  0  0  0  0
    2.3720   10.4020   -1.0980 C   0  0  0  0  0  0  0  0  0  0  0  0
    1.5740   11.7000   -1.3690 C   0  0  1  0  0  0  0  0  0  0  0  0
    1.8450   12.6030   -0.1250 C   0  0  0  0  0  0  0  0  0  0  0  0
    1.8980   12.4440   -2.7050 C   0  0  2  0  0  0  0  0  0  0  0  0
    3.3420   12.9620   -2.8300 C   0  0  0  0  0  0  0  0  0  0  0  0
    3.5670   14.3500   -2.3290 C   0  0  0  0  0  0  0  0  0  0  0  0
    2.6030   15.2520   -2.0630 C   0  0  0  0  0  0  0  0  0  0  0  0
    1.1310   14.9410   -2.3580 C   0  0  1  0  0  0  0  0  0  0  0  0
    0.4810   16.1480   -3.0840 C   0  0  0  0  0  0  0  0  0  0  0  0
    0.6590   17.4560   -2.3180 C   0  0  0  0  0  0  0  0  0  0  0  0
    2.1380   17.7600   -2.0950 C   0  0  2  0  0  0  0  0  0  0  0  0
    2.7500   18.0270   -3.3610 O   0  0  0  0  0  0  0  0  0  0  0  0
    2.9000   16.6100   -1.3800 C   0  0  0  0  0  0  0  0  0  0  0  0
    2.4410   16.5210    0.0970 C   0  0  0  0  0  0  0  0  0  0  0  0
    4.4060   16.9840   -1.3440 C   0  0  0  0  0  0  0  0  0  0  0  0
    0.8480   13.5610   -3.0950 C   0  0  1  0  0  0  0  0  0  0  0  0
    0.9540   13.7520   -4.6400 C   0  0  0  0  0  0  0  0  0  0  0  0
   -0.6340   13.1170   -2.8040 C   0  0  0  0  0  0  0  0  0  0  0  0
   -0.8720   12.2820   -1.5310 C   0  0  0  0  0  0  0  0  0  0  0  0
    0.1170   11.1150   -1.4480 C   0  0  2  0  0  0  0  0  0  0  0  0
   -0.1470   10.1770   -2.6750 C   0  0  0  0  0  0  0  0  0  0  0  0
   -0.4139    7.2005    0.2145 H   0  0  0  0  0  0  0  0  0  0  0  0
   -1.4468    7.4811   -1.2281 H   0  0  0  0  0  0  0  0  0  0  0  0
    0.2639    8.0290   -1.2281 H   0  0  0  0  0  0  0  0  0  0  0  0
   -1.3140    9.0912    1.0241 H   0  0  0  0  0  0  0  0  0  0  0  0
   -2.3056   10.8918   -0.6862 H   0  0  0  0  0  0  0  0  0  0  0  0
   -2.3255    9.4126   -1.7611 H   0  0  0  0  0  0  0  0  0  0  0  0
   -3.5128    9.2903    1.0042 H   0  0  0  0  0  0  0  0  0  0  0  0
   -4.4379   10.0202   -0.3740 H   0  0  0  0  0  0  0  0  0  0  0  0
   -3.5044    7.4812    0.2785 H   0  0  0  0  0  0  0  0  0  0  0  0
   -6.7377    9.0920   -0.5006 H   0  0  0  0  0  0  0  0  0  0  0  0
   -5.9235    9.5401   -2.0378 H   0  0  0  0  0  0  0  0  0  0  0  0
   -7.2213    8.2982   -2.0378 H   0  0  0  0  0  0  0  0  0  0  0  0
   -5.9739    5.8969   -0.1895 H   0  0  0  0  0  0  0  0  0  0  0  0
   -6.8242    6.1865   -1.7451 H   0  0  0  0  0  0  0  0  0  0  0  0
   -5.1307    5.5876   -1.7451 H   0  0  0  0  0  0  0  0  0  0  0  0
   -0.1493   10.8883    0.7090 H   0  0  0  0  0  0  0  0  0  0  0  0
    1.8810    9.5870    0.8721 H   0  0  0  0  0  0  0  0  0  0  0  0
    1.4027    8.5295   -0.4732 H   0  0  0  0  0  0  0  0  0  0  0  0
    3.3342   10.6311   -0.6167 H   0  0  0  0  0  0  0  0  0  0  0  0
    2.6095    9.8574   -2.0237 H   0  0  0  0  0  0  0  0  0  0  0  0
    1.6711   12.0235    0.7936 H   0  0  0  0  0  0  0  0  0  0  0  0
    2.8877   12.9528   -0.1460 H   0  0  0  0  0  0  0  0  0  0  0  0
    1.1672   13.4691   -0.1460 H   0  0  0  0  0  0  0  0  0  0  0  0
    1.8030   11.6414   -3.4512 H   0  0  0  0  0  0  0  0  0  0  0  0
    3.9964   12.2851   -2.2612 H   0  0  0  0  0  0  0  0  0  0  0  0
    3.5640   12.9875   -3.9071 H   0  0  0  0  0  0  0  0  0  0  0  0
    4.6085   14.6626   -2.1630 H   0  0  0  0  0  0  0  0  0  0  0  0
    0.6505   14.7916   -1.3798 H   0  0  0  0  0  0  0  0  0  0  0  0
    0.9444   16.2543   -4.0759 H   0  0  0  0  0  0  0  0  0  0  0  0
   -0.5983   15.9500   -3.1609 H   0  0  0  0  0  0  0  0  0  0  0  0
    0.2059   18.2757   -2.8949 H   0  0  0  0  0  0  0  0  0  0  0  0
    0.1687   17.3588   -1.3381 H   0  0  0  0  0  0  0  0  0  0  0  0
    2.1973   18.6354   -1.4316 H   0  0  0  0  0  0  0  0  0  0  0  0
    2.8670   17.1770   -3.8170 H   0  0  0  0  0  0  0  0  0  0  0  0
    3.3030   16.6881    0.7596 H   0  0  0  0  0  0  0  0  0  0  0  0
    1.6761   17.2876    0.2901 H   0  0  0  0  0  0  0  0  0  0  0  0
    2.0180   15.5241    0.2901 H   0  0  0  0  0  0  0  0  0  0  0  0
    4.7384   17.0666   -0.2987 H   0  0  0  0  0  0  0  0  0  0  0  0
    4.9899   16.2036   -1.8539 H   0  0  0  0  0  0  0  0  0  0  0  0
    4.5570   17.9469   -1.8539 H   0  0  0  0  0  0  0  0  0  0  0  0
    1.4772   14.6948   -4.8579 H   0  0  0  0  0  0  0  0  0  0  0  0
    1.5151   12.9121   -5.0757 H   0  0  0  0  0  0  0  0  0  0  0  0
   -0.0556   13.7838   -5.0757 H   0  0  0  0  0  0  0  0  0  0  0  0
   -1.2446   14.0284   -2.7231 H   0  0  0  0  0  0  0  0  0  0  0  0
   -0.9046   12.4532   -3.6383 H   0  0  0  0  0  0  0  0  0  0  0  0
   -0.7433   12.9263   -0.6487 H   0  0  0  0  0  0  0  0  0  0  0  0
   -1.8932   11.8746   -1.5645 H   0  0  0  0  0  0  0  0  0  0  0  0
   -0.4288    9.1757   -2.3172 H   0  0  0  0  0  0  0  0  0  0  0  0
   -0.9633   10.5917   -3.2846 H   0  0  0  0  0  0  0  0  0  0  0  0
    0.7658   10.1050   -3.2846 H   0  0  0  0  0  0  0  0  0  0  0  0
  1  2  1  0
  2  3  1  0
  3  4  1  0
  4  5  1  0
  5  6  1  0
  6  7  1  0
  7  8  1  0
  7  9  1  0
  2 10  1  0
 10 11  1  0
 11 12  1  0
 12 13  1  0
 13 14  1  1
 13 15  1  0
 15 16  1  0
 16 17  1  0
 17 18  2  0
 18 19  1  0
 19 20  1  0
 20 21  1  0
 21 22  1  0
 22 23  1  0
 22 24  1  0
 24 25  1  0
 24 26  1  0
 19 27  1  0
 27 28  1  6
 27 29  1  0
 29 30  1  0
 30 31  1  0
 31 32  1  6
  7  5  1  0
 31 10  1  0
 31 13  1  0
 27 15  1  0
 24 18  1  0
  1 33  1  0
  1 34  1  0
  1 35  1  0
  2 36  1  1
  3 37  1  0
  3 38  1  0
  4 39  1  0
  4 40  1  0
  5 41  1  1
  8 42  1  0
  8 43  1  0
  8 44  1  0
  9 45  1  0
  9 46  1  0
  9 47  1  0
 10 48  1  1
 11 49  1  0
 11 50  1  0
 12 51  1  0
 12 52  1  0
 14 53  1  0
 14 54  1  0
 14 55  1  0
 15 56  1  6
 16 57  1  0
 16 58  1  0
 17 59  1  0
 19 60  1  1
 20 61  1  0
 20 62  1  0
 21 63  1  0
 21 64  1  0
 22 65  1  1
 23 66  1  0
 25 67  1  0
 25 68  1  0
 25 69  1  0
 26 70  1  0
 26 71  1  0
 26 72  1  0
 28 73  1  0
 28 74  1  0
 28 75  1  0
 29 76  1  0
 29 77  1  0
 30 78  1  0
 30 79  1  0
 32 80  1  0
 32 81  1  0
 32 82  1  0
M  END
>  <meeko>  (5) 
{"is_sidechain": [false], "intermolecular_energy": 2.731, "internal_energy": -0.839}

$$$$
EPH_relaxed_0001_pdb2pqr_Repair_340_r2_0001_out
     RDKit          3D

 82 86  0  0  0  0  0  0  0  0999 V2000
    3.2680   17.9720   -1.0440 C   0  0  0  0  0  0  0  0  0  0  0  0
    2.9260   17.5120   -2.4640 C   0  0  2  0  0  0  0  0  0  0  0  0
    1.5790   18.0830   -2.9510 C   0  0  0  0  0  0  0  0  0  0  0  0
    1.0150   19.1840   -2.0490 C   0  0  0  0  0  0  0  0  0  0  0  0
   -0.2560   18.7560   -1.3790 C   0  0  2  0  0  0  0  0  0  0  0  0
   -1.0430   19.8290   -0.8470 O   0  0  0  0  0  0  0  0  0  0  0  0
   -0.5070   18.9010    0.1100 C   0  0  0  0  0  0  0  0  0  0  0  0
    0.5220   19.4940    1.0200 C   0  0  0  0  0  0  0  0  0  0  0  0
   -1.5410   18.0290    0.7500 C   0  0  0  0  0  0  0  0  0  0  0  0
    2.9000   15.9900   -2.5250 C   0  0  1  0  0  0  0  0  0  0  0  0
    4.3200   15.3700   -2.6020 C   0  0  0  0  0  0  0  0  0  0  0  0
    4.2720   14.0400   -1.8070 C   0  0  0  0  0  0  0  0  0  0  0  0
    2.7650   13.7740   -1.5840 C   0  0  1  0  0  0  0  0  0  0  0  0
    2.2670   13.1390   -2.9200 C   0  0  0  0  0  0  0  0  0  0  0  0
    2.3950   12.8870   -0.3500 C   0  0  2  0  0  0  0  0  0  0  0  0
    2.9380   11.4480   -0.3950 C   0  0  0  0  0  0  0  0  0  0  0  0
    2.0340   10.4450   -1.0330 C   0  0  0  0  0  0  0  0  0  0  0  0
    0.7260   10.6240   -1.2930 C   0  0  0  0  0  0  0  0  0  0  0  0
    0.0020   11.9020   -0.8470 C   0  0  1  0  0  0  0  0  0  0  0  0
   -1.3450   11.5260   -0.1760 C   0  0  0  0  0  0  0  0  0  0  0  0
   -2.2150   10.6430   -1.0660 C   0  0  0  0  0  0  0  0  0  0  0  0
   -1.4830    9.3570   -1.4400 C   0  0  2  0  0  0  0  0  0  0  0  0
   -1.3030    8.5690   -0.2600 O   0  0  0  0  0  0  0  0  0  0  0  0
   -0.1060    9.6100   -2.1150 C   0  0  0  0  0  0  0  0  0  0  0  0
   -0.3210   10.1940   -3.5330 C   0  0  0  0  0  0  0  0  0  0  0  0
    0.5880    8.2350   -2.3120 C   0  0  0  0  0  0  0  0  0  0  0  0
    0.8590   12.9130    0.0300 C   0  0  1  0  0  0  0  0  0  0  0  0
    0.7660   12.5220    1.5370 C   0  0  0  0  0  0  0  0  0  0  0  0
    0.2370   14.3540   -0.0940 C   0  0  0  0  0  0  0  0  0  0  0  0
    0.7310   15.2270   -1.2640 C   0  0  0  0  0  0  0  0  0  0  0  0
    2.2610   15.2410   -1.3280 C   0  0  2  0  0  0  0  0  0  0  0  0
    2.7900   15.8950   -0.0060 C   0  0  0  0  0  0  0  0  0  0  0  0
    2.7761   17.3104   -0.3158 H   0  0  0  0  0  0  0  0  0  0  0  0
    4.3576   17.9322   -0.8981 H   0  0  0  0  0  0  0  0  0  0  0  0
    2.9160   19.0039   -0.8981 H   0  0  0  0  0  0  0  0  0  0  0  0
    3.7086   17.8971   -3.1342 H   0  0  0  0  0  0  0  0  0  0  0  0
    1.7224   18.4994   -3.9590 H   0  0  0  0  0  0  0  0  0  0  0  0
    0.8553   17.2547   -2.9381 H   0  0  0  0  0  0  0  0  0  0  0  0
    1.7597   19.4288   -1.2773 H   0  0  0  0  0  0  0  0  0  0  0  0
    0.7936   20.0604   -2.6758 H   0  0  0  0  0  0  0  0  0  0  0  0
   -0.3567   17.9014   -2.0642 H   0  0  0  0  0  0  0  0  0  0  0  0
    0.2277   19.3244    2.0662 H   0  0  0  0  0  0  0  0  0  0  0  0
    1.4959   19.0186    0.8314 H   0  0  0  0  0  0  0  0  0  0  0  0
    0.5990   20.5750    0.8314 H   0  0  0  0  0  0  0  0  0  0  0  0
   -1.4553   18.1013    1.8443 H   0  0  0  0  0  0  0  0  0  0  0  0
   -2.5429   18.3589    0.4381 H   0  0  0  0  0  0  0  0  0  0  0  0
   -1.3849   16.9858    0.4381 H   0  0  0  0  0  0  0  0  0  0  0  0
    2.2851   15.8527   -3.4267 H   0  0  0  0  0  0  0  0  0  0  0  0
    4.5918   15.1751   -3.6499 H   0  0  0  0  0  0  0  0  0  0  0  0
    5.0724   16.0538   -2.1821 H   0  0  0  0  0  0  0  0  0  0  0  0
    4.7289   13.2243   -2.3866 H   0  0  0  0  0  0  0  0  0  0  0  0
    4.8300   14.0988   -0.8609 H   0  0  0  0  0  0  0  0  0  0  0  0
    1.6022   12.2913   -2.6976 H   0  0  0  0  0  0  0  0  0  0  0  0
    1.7172   13.8933   -3.5020 H   0  0  0  0  0  0  0  0  0  0  0  0
    3.1306   12.7848   -3.5020 H   0  0  0  0  0  0  0  0  0  0  0  0
    2.9349   13.3851    0.4688 H   0  0  0  0  0  0  0  0  0  0  0  0
    3.8838   11.4590   -0.9566 H   0  0  0  0  0  0  0  0  0  0  0  0
    3.0515   11.1326    0.6527 H   0  0  0  0  0  0  0  0  0  0  0  0
    2.4751    9.4774   -1.3144 H   0  0  0  0  0  0  0  0  0  0  0  0
   -0.1861   12.4813   -1.7630 H   0  0  0  0  0  0  0  0  0  0  0  0
   -1.1347   10.9860    0.7590 H   0  0  0  0  0  0  0  0  0  0  0  0
   -1.8970   12.4589    0.0110 H   0  0  0  0  0  0  0  0  0  0  0  0
   -3.1391   10.3875   -0.5267 H   0  0  0  0  0  0  0  0  0  0  0  0
   -2.4484   11.1953   -1.9882 H   0  0  0  0  0  0  0  0  0  0  0  0
   -2.1022    8.8283   -2.1797 H   0  0  0  0  0  0  0  0  0  0  0  0
   -0.3500    8.5340   -0.0720 H   0  0  0  0  0  0  0  0  0  0  0  0
   -0.7000   11.2235   -3.4520 H   0  0  0  0  0  0  0  0  0  0  0  0
    0.6350   10.1970   -4.0771 H   0  0  0  0  0  0  0  0  0  0  0  0
   -1.0507    9.5764   -4.0771 H   0  0  0  0  0  0  0  0  0  0  0  0
    0.8112    7.7929   -1.3298 H   0  0  0  0  0  0  0  0  0  0  0  0
   -0.0796    7.5643   -2.8729 H   0  0  0  0  0  0  0  0  0  0  0  0
    1.5240    8.3737   -2.8729 H   0  0  0  0  0  0  0  0  0  0  0  0
    0.9760   13.4050    2.1585 H   0  0  0  0  0  0  0  0  0  0  0  0
   -0.2456   12.1505    1.7577 H   0  0  0  0  0  0  0  0  0  0  0  0
    1.5020   11.7348    1.7577 H   0  0  0  0  0  0  0  0  0  0  0  0
   -0.8515   14.2382   -0.2020 H   0  0  0  0  0  0  0  0  0  0  0  0
    0.5569   14.8842    0.8151 H   0  0  0  0  0  0  0  0  0  0  0  0
    0.3349   14.8227   -2.2072 H   0  0  0  0  0  0  0  0  0  0  0  0
    0.3765   16.2566   -1.1081 H   0  0  0  0  0  0  0  0  0  0  0  0
    2.3635   15.3677    0.8601 H   0  0  0  0  0  0  0  0  0  0  0  0
    3.8872   15.8234    0.0250 H   0  0  0  0  0  0  0  0  0  0  0  0
    2.4906   16.9530    0.0250 H   0  0  0  0  0  0  0  0  0  0  0  0
  1  2  1  0
  2  3  1  0
  3  4  1  0
  4  5  1  0
  5  6  1  0
  6  7  1  0
  7  8  1  0
  7  9  1  0
  2 10  1  0
 10 11  1  0
 11 12  1  0
 12 13  1  0
 13 14  1  6
 13 15  1  0
 15 16  1  0
 16 17  1  0
 17 18  2  0
 18 19  1  0
 19 20  1  0
 20 21  1  0
 21 22  1  0
 22 23  1  0
 22 24  1  0
 24 25  1  0
 24 26  1  0
 19 27  1  0
 27 28  1  1
 27 29  1  0
 29 30  1  0
 30 31  1  0
 31 32  1  1
  7  5  1  0
 31 10  1  0
 31 13  1  0
 27 15  1  0
 24 18  1  0
  1 33  1  0
  1 34  1  0
  1 35  1  0
  2 36  1  6
  3 37  1  0
  3 38  1  0
  4 39  1  0
  4 40  1  0
  5 41  1  6
  8 42  1  0
  8 43  1  0
  8 44  1  0
  9 45  1  0
  9 46  1  0
  9 47  1  0
 10 48  1  6
 11 49  1  0
 11 50  1  0
 12 51  1  0
 12 52  1  0
 14 53  1  0
 14 54  1  0
 14 55  1  0
 15 56  1  1
 16 57  1  0
 16 58  1  0
 17 59  1  0
 19 60  1  6
 20 61  1  0
 20 62  1  0
 21 63  1  0
 21 64  1  0
 22 65  1  6
 23 66  1  0
 25 67  1  0
 25 68  1  0
 25 69  1  0
 26 70  1  0
 26 71  1  0
 26 72  1  0
 28 73  1  0
 28 74  1  0
 28 75  1  0
 29 76  1  0
 29 77  1  0
 30 78  1  0
 30 79  1  0
 32 80  1  0
 32 81  1  0
 32 82  1  0
M  END
>  <meeko>  (6) 
{"is_sidechain": [false], "intermolecular_energy": 2.731, "internal_energy": -0.839}

$$$$
EPH_relaxed_0001_pdb2pqr_Repair_340_r2_0001_out
     RDKit          3D

 82 86  0  0  0  0  0  0  0  0999 V2000
   -2.5520    7.5770   -3.0620 C   0  0  0  0  0  0  0  0  0  0  0  0
   -2.8750    7.8680   -1.5930 C   0  0  2  0  0  0  0  0  0  0  0  0
   -4.3920    7.8470   -1.3170 C   0  0  0  0  0  0  0  0  0  0  0  0
   -5.1110    6.6390   -1.9230 C   0  0  0  0  0  0  0  0  0  0  0  0
   -6.3130    7.0520   -2.7180 C   0  0  2  0  0  0  0  0  0  0  0  0
   -6.8890    8.3050   -2.3270 O   0  0  0  0  0  0  0  0  0  0  0  0
   -7.7110    7.1420   -2.1360 C   0  0  0  0  0  0  0  0  0  0  0  0
   -7.9810    6.8160   -0.7000 C   0  0  0  0  0  0  0  0  0  0  0  0
   -8.8800    7.0710   -3.0680 C   0  0  0  0  0  0  0  0  0  0  0  0
   -2.2910    9.2170   -1.1910 C   0  0  1  0  0  0  0  0  0  0  0  0
   -2.8100    9.7050    0.1880 C   0  0  0  0  0  0  0  0  0  0  0  0
   -1.6380   10.4620    0.8640 C   0  0  0  0  0  0  0  0  0  0  0  0
   -0.6040   10.6720   -0.2670 C   0  0  1  0  0  0  0  0  0  0  0  0
   -1.1200   11.9170   -1.0550 C   0  0  0  0  0  0  0  0  0  0  0  0
    0.8840   10.8480    0.1800 C   0  0  2  0  0  0  0  0  0  0  0  0
    1.1610   12.0820    1.0560 C   0  0  0  0  0  0  0  0  0  0  0  0
    1.5320   13.3220    0.3120 C   0  0  0  0  0  0  0  0  0  0  0  0
    1.9160   13.3750   -0.9770 C   0  0  0  0  0  0  0  0  0  0  0  0
    2.1020   12.0920   -1.7970 C   0  0  1  0  0  0  0  0  0  0  0  0
    3.4420   12.1640   -2.5760 C   0  0  0  0  0  0  0  0  0  0  0  0
    3.5550   13.4230   -3.4290 C   0  0  0  0  0  0  0  0  0  0  0  0
    3.4240   14.6780   -2.5700 C   0  0  2  0  0  0  0  0  0  0  0  0
    4.5560   14.7610   -1.6980 O   0  0  0  0  0  0  0  0  0  0  0  0
    2.1160   14.7120   -1.7310 C   0  0  0  0  0  0  0  0  0  0  0  0
    0.9020   14.9270   -2.6690 C   0  0  0  0  0  0  0  0  0  0  0  0
    2.1740   15.9570   -0.8060 C   0  0  0  0  0  0  0  0  0  0  0  0
    1.9330   10.7280   -0.9990 C   0  0  1  0  0  0  0  0  0  0  0  0
    3.2900   10.3210   -0.3470 C   0  0  0  0  0  0  0  0  0  0  0  0
    1.5650    9.5810   -2.0130 C   0  0  0  0  0  0  0  0  0  0  0  0
    0.0700    9.3790   -2.3220 C   0  0  0  0  0  0  0  0  0  0  0  0
   -0.7520    9.3070   -1.0310 C   0  0  2  0  0  0  0  0  0  0  0  0
   -0.2710    8.0500   -0.2280 C   0  0  0  0  0  0  0  0  0  0  0  0
   -1.7359    6.8417   -3.1193 H   0  0  0  0  0  0  0  0  0  0  0  0
   -3.4453    7.1729   -3.5607 H   0  0  0  0  0  0  0  0  0  0  0  0
   -2.2429    8.5074   -3.5607 H   0  0  0  0  0  0  0  0  0  0  0  0
   -2.4188    7.0700   -0.9888 H   0  0  0  0  0  0  0  0  0  0  0  0
   -4.5467    7.8329   -0.2280 H   0  0  0  0  0  0  0  0  0  0  0  0
   -4.8172    8.7446   -1.7897 H   0  0  0  0  0  0  0  0  0  0  0  0
   -4.4134    6.1031   -2.5835 H   0  0  0  0  0  0  0  0  0  0  0  0
   -5.4493    5.9923   -1.1000 H   0  0  0  0  0  0  0  0  0  0  0  0
   -5.9183    6.5541   -3.6160 H   0  0  0  0  0  0  0  0  0  0  0  0
   -7.4126    7.5023   -0.0551 H   0  0  0  0  0  0  0  0  0  0  0  0
   -9.0561    6.9260   -0.4949 H   0  0  0  0  0  0  0  0  0  0  0  0
   -7.6727    5.7802   -0.4949 H   0  0  0  0  0  0  0  0  0  0  0  0
   -9.8110    7.0145   -2.4848 H   0  0  0  0  0  0  0  0  0  0  0  0
   -8.8985    7.9697   -3.7021 H   0  0  0  0  0  0  0  0  0  0  0  0
   -8.7896    6.1767   -3.7021 H   0  0  0  0  0  0  0  0  0  0  0  0
   -2.6160    9.8222   -2.0501 H   0  0  0  0  0  0  0  0  0  0  0  0
   -3.6686   10.3791    0.0527 H   0  0  0  0  0  0  0  0  0  0  0  0
   -3.1432    8.8588    0.8069 H   0  0  0  0  0  0  0  0  0  0  0  0
   -1.9790   11.4289    1.2627 H   0  0  0  0  0  0  0  0  0  0  0  0
   -1.2179    9.9055    1.7148 H   0  0  0  0  0  0  0  0  0  0  0  0
   -1.4416   12.6930   -0.3448 H   0  0  0  0  0  0  0  0  0  0  0  0
   -0.3113   12.3115   -1.6877 H   0  0  0  0  0  0  0  0  0  0  0  0
   -1.9707   11.6237   -1.6877 H   0  0  0  0  0  0  0  0  0  0  0  0
    1.0383    9.9775    0.8345 H   0  0  0  0  0  0  0  0  0  0  0  0
    0.2535   12.2948    1.6401 H   0  0  0  0  0  0  0  0  0  0  0  0
    2.0335   11.8260    1.6750 H   0  0  0  0  0  0  0  0  0  0  0  0
    1.4878   14.2726    0.8638 H   0  0  0  0  0  0  0  0  0  0  0  0
    1.2603   12.0595   -2.5045 H   0  0  0  0  0  0  0  0  0  0  0  0
    4.2712   12.1520   -1.8533 H   0  0  0  0  0  0  0  0  0  0  0  0
    3.4822   11.2974   -3.2524 H   0  0  0  0  0  0  0  0  0  0  0  0
    4.5337   13.4310   -3.9310 H   0  0  0  0  0  0  0  0  0  0  0  0
    2.7423   13.4187   -4.1703 H   0  0  0  0  0  0  0  0  0  0  0  0
    3.3831   15.5406   -3.2513 H   0  0  0  0  0  0  0  0  0  0  0  0
    4.5150   15.6180   -1.2430 H   0  0  0  0  0  0  0  0  0  0  0  0
   -0.0037   15.0874   -2.0656 H   0  0  0  0  0  0  0  0  0  0  0  0
    1.0804   15.8075   -3.3037 H   0  0  0  0  0  0  0  0  0  0  0  0
    0.7672   14.0388   -3.3037 H   0  0  0  0  0  0  0  0  0  0  0  0
    2.1589   15.6337    0.2453 H   0  0  0  0  0  0  0  0  0  0  0  0
    3.0993   16.5180   -1.0039 H   0  0  0  0  0  0  0  0  0  0  0  0
    1.3049   16.6016   -1.0039 H   0  0  0  0  0  0  0  0  0  0  0  0
    3.1937   10.3499    0.7484 H   0  0  0  0  0  0  0  0  0  0  0  0
    3.5587    9.3027   -0.6648 H   0  0  0  0  0  0  0  0  0  0  0  0
    4.0747   11.0233   -0.6648 H   0  0  0  0  0  0  0  0  0  0  0  0
    2.0741    9.8010   -2.9629 H   0  0  0  0  0  0  0  0  0  0  0  0
    1.8853    8.6501   -1.5223 H   0  0  0  0  0  0  0  0  0  0  0  0
   -0.2888   10.2222   -2.9305 H   0  0  0  0  0  0  0  0  0  0  0  0
   -0.0504    8.4316   -2.8678 H   0  0  0  0  0  0  0  0  0  0  0  0
   -0.3484    8.2522    0.8505 H   0  0  0  0  0  0  0  0  0  0  0  0
   -0.9023    7.1868   -0.4854 H   0  0  0  0  0  0  0  0  0  0  0  0
    0.7753    7.8288   -0.4854 H   0  0  0  0  0  0  0  0  0  0  0  0
  1  2  1  0
  2  3  1  0
  3  4  1  0
  4  5  1  0
  5  6  1  0
  6  7  1  0
  7  8  1  0
  7  9  1  0
  2 10  1  0
 10 11  1  0
 11 12  1  0
 12 13  1  0
 13 14  1  6
 13 15  1  0
 15 16  1  0
 16 17  1  0
 17 18  2  0
 18 19  1  0
 19 20  1  0
 20 21  1  0
 21 22  1  0
 22 23  1  0
 22 24  1  0
 24 25  1  0
 24 26  1  0
 19 27  1  0
 27 28  1  1
 27 29  1  0
 29 30  1  0
 30 31  1  0
 31 32  1  1
  7  5  1  0
 31 10  1  0
 31 13  1  0
 27 15  1  0
 24 18  1  0
  1 33  1  0
  1 34  1  0
  1 35  1  0
  2 36  1  1
  3 37  1  0
  3 38  1  0
  4 39  1  0
  4 40  1  0
  5 41  1  6
  8 42  1  0
  8 43  1  0
  8 44  1  0
  9 45  1  0
  9 46  1  0
  9 47  1  0
 10 48  1  6
 11 49  1  0
 11 50  1  0
 12 51  1  0
 12 52  1  0
 14 53  1  0
 14 54  1  0
 14 55  1  0
 15 56  1  1
 16 57  1  0
 16 58  1  0
 17 59  1  0
 19 60  1  6
 20 61  1  0
 20 62  1  0
 21 63  1  0
 21 64  1  0
 22 65  1  6
 23 66  1  0
 25 67  1  0
 25 68  1  0
 25 69  1  0
 26 70  1  0
 26 71  1  0
 26 72  1  0
 28 73  1  0
 28 74  1  0
 28 75  1  0
 29 76  1  0
 29 77  1  0
 30 78  1  0
 30 79  1  0
 32 80  1  0
 32 81  1  0
 32 82  1  0
M  END
>  <meeko>  (7) 
{"is_sidechain": [false], "intermolecular_energy": 2.731, "internal_energy": -0.839}

$$$$
EPH_relaxed_0001_pdb2pqr_Repair_340_r2_0001_out
     RDKit          3D

 82 86  0  0  0  0  0  0  0  0999 V2000
    0.3400   17.8600   -0.3120 C   0  0  0  0  0  0  0  0  0  0  0  0
    1.2810   17.1220   -1.2680 C   0  0  2  0  0  0  0  0  0  0  0  0
    1.7020   18.0010   -2.4630 C   0  0  0  0  0  0  0  0  0  0  0  0
    3.2060   18.2770   -2.5240 C   0  0  0  0  0  0  0  0  0  0  0  0
    4.0080   17.0500   -2.2120 C   0  0  2  0  0  0  0  0  0  0  0  0
    5.1790   17.2850   -1.4190 O   0  0  0  0  0  0  0  0  0  0  0  0
    5.4040   16.8030   -2.7530 C   0  0  0  0  0  0  0  0  0  0  0  0
    6.0790   17.7910   -3.6520 C   0  0  0  0  0  0  0  0  0  0  0  0
    5.9120   15.3950   -2.8080 C   0  0  0  0  0  0  0  0  0  0  0  0
    0.6150   15.8450   -1.7700 C   0  0  1  0  0  0  0  0  0  0  0  0
    0.1760   15.9440   -3.2550 C   0  0  0  0  0  0  0  0  0  0  0  0
    0.3710   14.5360   -3.8730 C   0  0  0  0  0  0  0  0  0  0  0  0
    0.5940   13.6040   -2.6590 C   0  0  1  0  0  0  0  0  0  0  0  0
   -0.8370   13.3050   -2.1140 C   0  0  0  0  0  0  0  0  0  0  0  0
    1.3930   12.2890   -2.9360 C   0  0  2  0  0  0  0  0  0  0  0  0
    0.7280   11.3170   -3.9260 C   0  0  0  0  0  0  0  0  0  0  0  0
   -0.1810   10.3040   -3.3120 C   0  0  0  0  0  0  0  0  0  0  0  0
   -0.2340    9.9930   -2.0030 C   0  0  0  0  0  0  0  0  0  0  0  0
    0.7470   10.6180   -1.0040 C   0  0  1  0  0  0  0  0  0  0  0  0
    1.3210    9.5120   -0.0800 C   0  0  0  0  0  0  0  0  0  0  0  0
    0.2290    8.6980    0.6070 C   0  0  0  0  0  0  0  0  0  0  0  0
   -0.6920    8.0440   -0.4210 C   0  0  2  0  0  0  0  0  0  0  0  0
    0.0530    7.0610   -1.1470 O   0  0  0  0  0  0  0  0  0  0  0  0
   -1.3220    9.0610   -1.4130 C   0  0  0  0  0  0  0  0  0  0  0  0
   -2.3620    9.9370   -0.6720 C   0  0  0  0  0  0  0  0  0  0  0  0
   -2.1130    8.2580   -2.4810 C   0  0  0  0  0  0  0  0  0  0  0  0
    1.8810   11.5400   -1.6300 C   0  0  1  0  0  0  0  0  0  0  0  0
    3.1050   10.6690   -2.0470 C   0  0  0  0  0  0  0  0  0  0  0  0
    2.4000   12.5370   -0.5270 C   0  0  0  0  0  0  0  0  0  0  0  0
    1.6420   13.8700   -0.3830 C   0  0  0  0  0  0  0  0  0  0  0  0
    1.4600   14.5460   -1.7460 C   0  0  2  0  0  0  0  0  0  0  0  0
    2.8830   14.8800   -2.3090 C   0  0  0  0  0  0  0  0  0  0  0  0
    0.6242   17.6371    0.7270 H   0  0  0  0  0  0  0  0  0  0  0  0
    0.4141   18.9433   -0.4881 H   0  0  0  0  0  0  0  0  0  0  0  0
   -0.6944   17.5298   -0.4881 H   0  0  0  0  0  0  0  0  0  0  0  0
    2.1926   16.8704   -0.7062 H   0  0  0  0  0  0  0  0  0  0  0  0
    1.4046   17.4909   -3.3911 H   0  0  0  0  0  0  0  0  0  0  0  0
    1.2016   18.9728   -2.3393 H   0  0  0  0  0  0  0  0  0  0  0  0
    3.4640   18.6238   -3.5355 H   0  0  0  0  0  0  0  0  0  0  0  0
    3.4448   19.0431   -1.7716 H   0  0  0  0  0  0  0  0  0  0  0  0
    3.0994   16.4301   -2.2032 H   0  0  0  0  0  0  0  0  0  0  0  0
    6.5958   18.5474   -3.0431 H   0  0  0  0  0  0  0  0  0  0  0  0
    6.8103   17.2692   -4.2868 H   0  0  0  0  0  0  0  0  0  0  0  0
    5.3271   18.2825   -4.2868 H   0  0  0  0  0  0  0  0  0  0  0  0
    6.0493   15.0145   -1.7851 H   0  0  0  0  0  0  0  0  0  0  0  0
    5.1851   14.7634   -3.3397 H   0  0  0  0  0  0  0  0  0  0  0  0
    6.8747   15.3731   -3.3397 H   0  0  0  0  0  0  0  0  0  0  0  0
   -0.2105   15.7707   -1.0468 H   0  0  0  0  0  0  0  0  0  0  0  0
   -0.8808   16.2427   -3.3186 H   0  0  0  0  0  0  0  0  0  0  0  0
    0.7696   16.6976   -3.7933 H   0  0  0  0  0  0  0  0  0  0  0  0
   -0.5234   14.2321   -4.4366 H   0  0  0  0  0  0  0  0  0  0  0  0
    1.2110   14.5048   -4.5825 H   0  0  0  0  0  0  0  0  0  0  0  0
   -0.8187   13.3088   -1.0142 H   0  0  0  0  0  0  0  0  0  0  0  0
   -1.5343   14.0768   -2.4718 H   0  0  0  0  0  0  0  0  0  0  0  0
   -1.1669   12.3185   -2.4718 H   0  0  0  0  0  0  0  0  0  0  0  0
    2.2935   12.6633   -3.4450 H   0  0  0  0  0  0  0  0  0  0  0  0
    0.1411   11.9104   -4.6425 H   0  0  0  0  0  0  0  0  0  0  0  0
    1.5470   10.7487   -4.3911 H   0  0  0  0  0  0  0  0  0  0  0  0
   -0.8648    9.7667   -3.9856 H   0  0  0  0  0  0  0  0  0  0  0  0
    0.1603   11.3334   -0.4091 H   0  0  0  0  0  0  0  0  0  0  0  0
    1.9391    8.8326   -0.6853 H   0  0  0  0  0  0  0  0  0  0  0  0
    1.9122   10.0065    0.7048 H   0  0  0  0  0  0  0  0  0  0  0  0
    0.6966    7.9146    1.2215 H   0  0  0  0  0  0  0  0  0  0  0  0
   -0.3698    9.3735    1.2357 H   0  0  0  0  0  0  0  0  0  0  0  0
   -1.5267    7.5840    0.1282 H   0  0  0  0  0  0  0  0  0  0  0  0
    0.9820    7.3460   -1.1590 H   0  0  0  0  0  0  0  0  0  0  0  0
   -2.2287    9.8247    0.4141 H   0  0  0  0  0  0  0  0  0  0  0  0
   -2.2194   10.9912   -0.9519 H   0  0  0  0  0  0  0  0  0  0  0  0
   -3.3766    9.6173   -0.9519 H   0  0  0  0  0  0  0  0  0  0  0  0
   -2.8004    7.5602   -1.9804 H   0  0  0  0  0  0  0  0  0  0  0  0
   -2.6893    8.9528   -3.1096 H   0  0  0  0  0  0  0  0  0  0  0  0
   -1.4096    7.6922   -3.1096 H   0  0  0  0  0  0  0  0  0  0  0  0
    3.6189   10.3033   -1.1458 H   0  0  0  0  0  0  0  0  0  0  0  0
    2.7591    9.8128   -2.6447 H   0  0  0  0  0  0  0  0  0  0  0  0
    3.8006   11.2763   -2.6447 H   0  0  0  0  0  0  0  0  0  0  0  0
    2.3476   12.0182    0.4416 H   0  0  0  0  0  0  0  0  0  0  0  0
    3.4149   12.8163   -0.8464 H   0  0  0  0  0  0  0  0  0  0  0  0
    0.6530   13.6760    0.0576 H   0  0  0  0  0  0  0  0  0  0  0  0
    2.2273   14.5386    0.2654 H   0  0  0  0  0  0  0  0  0  0  0  0
    3.5790   15.0434   -1.4730 H   0  0  0  0  0  0  0  0  0  0  0  0
    3.2399   14.0412   -2.9247 H   0  0  0  0  0  0  0  0  0  0  0  0
    2.8294   15.7900   -2.9247 H   0  0  0  0  0  0  0  0  0  0  0  0
  1  2  1  0
  2  3  1  0
  3  4  1  0
  4  5  1  0
  5  6  1  0
  6  7  1  0
  7  8  1  0
  7  9  1  0
  2 10  1  0
 10 11  1  0
 11 12  1  0
 12 13  1  0
 13 14  1  1
 13 15  1  0
 15 16  1  0
 16 17  1  0
 17 18  2  0
 18 19  1  0
 19 20  1  0
 20 21  1  0
 21 22  1  0
 22 23  1  0
 22 24  1  0
 24 25  1  0
 24 26  1  0
 19 27  1  0
 27 28  1  6
 27 29  1  0
 29 30  1  0
 30 31  1  0
 31 32  1  6
  7  5  1  0
 31 10  1  0
 31 13  1  0
 27 15  1  0
 24 18  1  0
  1 33  1  0
  1 34  1  0
  1 35  1  0
  2 36  1  1
  3 37  1  0
  3 38  1  0
  4 39  1  0
  4 40  1  0
  5 41  1  1
  8 42  1  0
  8 43  1  0
  8 44  1  0
  9 45  1  0
  9 46  1  0
  9 47  1  0
 10 48  1  1
 11 49  1  0
 11 50  1  0
 12 51  1  0
 12 52  1  0
 14 53  1  0
 14 54  1  0
 14 55  1  0
 15 56  1  6
 16 57  1  0
 16 58  1  0
 17 59  1  0
 19 60  1  1
 20 61  1  0
 20 62  1  0
 21 63  1  0
 21 64  1  0
 22 65  1  1
 23 66  1  0
 25 67  1  0
 25 68  1  0
 25 69  1  0
 26 70  1  0
 26 71  1  0
 26 72  1  0
 28 73  1  0
 28 74  1  0
 28 75  1  0
 29 76  1  0
 29 77  1  0
 30 78  1  0
 30 79  1  0
 32 80  1  0
 32 81  1  0
 32 82  1  0
M  END
>  <meeko>  (8) 
{"is_sidechain": [false], "intermolecular_energy": 2.731, "internal_energy": -0.839}

$$$$
EPH_relaxed_0001_pdb2pqr_Repair_340_r2_0001_out
     RDKit          3D

 82 86  0  0  0  0  0  0  0  0999 V2000
   -0.5500   18.9370   -3.0850 C   0  0  0  0  0  0  0  0  0  0  0  0
    0.3730   17.9720   -2.3360 C   0  0  2  0  0  0  0  0  0  0  0  0
    1.8600   18.2240   -2.6570 C   0  0  0  0  0  0  0  0  0  0  0  0
    2.4280   19.4820   -1.9940 C   0  0  0  0  0  0  0  0  0  0  0  0
    3.1810   19.1550   -0.7390 C   0  0  2  0  0  0  0  0  0  0  0  0
    2.5960   18.1150    0.0550 O   0  0  0  0  0  0  0  0  0  0  0  0
    2.6400   19.4200    0.6530 C   0  0  0  0  0  0  0  0  0  0  0  0
    1.2940   20.0390    0.8630 C   0  0  0  0  0  0  0  0  0  0  0  0
    3.6100   19.5320    1.7880 C   0  0  0  0  0  0  0  0  0  0  0  0
    0.0050   16.5320   -2.6740 C   0  0  1  0  0  0  0  0  0  0  0  0
   -0.0920   16.2830   -4.2030 C   0  0  0  0  0  0  0  0  0  0  0  0
    0.4120   14.8390   -4.4530 C   0  0  0  0  0  0  0  0  0  0  0  0
    0.4670   14.1950   -3.0480 C   0  0  1  0  0  0  0  0  0  0  0  0
   -1.0030   13.7640   -2.7470 C   0  0  0  0  0  0  0  0  0  0  0  0
    1.4650   13.0050   -2.8710 C   0  0  2  0  0  0  0  0  0  0  0  0
    1.1700   11.7710   -3.7410 C   0  0  0  0  0  0  0  0  0  0  0  0
    0.2790   10.7490   -3.1170 C   0  0  0  0  0  0  0  0  0  0  0  0
   -0.0340   10.6770   -1.8100 C   0  0  0  0  0  0  0  0  0  0  0  0
    0.6070   11.6310   -0.7930 C   0  0  1  0  0  0  0  0  0  0  0  0
    1.0880   10.8240    0.4420 C   0  0  0  0  0  0  0  0  0  0  0  0
   -0.0220    9.9770    1.0560 C   0  0  0  0  0  0  0  0  0  0  0  0
   -0.5940    9.0020    0.0310 C   0  0  2  0  0  0  0  0  0  0  0  0
    0.4130    8.0420   -0.3040 O   0  0  0  0  0  0  0  0  0  0  0  0
   -1.1020    9.7000   -1.2620 C   0  0  0  0  0  0  0  0  0  0  0  0
   -2.3850   10.5080   -0.9480 C   0  0  0  0  0  0  0  0  0  0  0  0
   -1.5220    8.5940   -2.2680 C   0  0  0  0  0  0  0  0  0  0  0  0
    1.7300   12.6000   -1.3640 C   0  0  1  0  0  0  0  0  0  0  0  0
    3.1160   11.8860   -1.3320 C   0  0  0  0  0  0  0  0  0  0  0  0
    1.8550   13.8540   -0.4200 C   0  0  0  0  0  0  0  0  0  0  0  0
    0.9250   15.0450   -0.7200 C   0  0  0  0  0  0  0  0  0  0  0  0
    0.9760   15.4210   -2.2040 C   0  0  2  0  0  0  0  0  0  0  0  0
    2.4380   15.8800   -2.5310 C   0  0  0  0  0  0  0  0  0  0  0  0
   -1.1217   19.5347   -2.3599 H   0  0  0  0  0  0  0  0  0  0  0  0
    0.0533   19.6056   -3.7166 H   0  0  0  0  0  0  0  0  0  0  0  0
   -1.2448   18.3640   -3.7166 H   0  0  0  0  0  0  0  0  0  0  0  0
    0.2324   18.1489   -1.2595 H   0  0  0  0  0  0  0  0  0  0  0  0
    2.4417   17.3566   -2.3117 H   0  0  0  0  0  0  0  0  0  0  0  0
    1.9335   18.3725   -3.7444 H   0  0  0  0  0  0  0  0  0  0  0  0
    3.1096   19.9800   -2.6993 H   0  0  0  0  0  0  0  0  0  0  0  0
    1.5870   20.1393   -1.7282 H   0  0  0  0  0  0  0  0  0  0  0  0
    4.1384   19.4065   -1.2187 H   0  0  0  0  0  0  0  0  0  0  0  0
    1.0964   20.1299    1.9413 H   0  0  0  0  0  0  0  0  0  0  0  0
    1.2733   21.0371    0.4010 H   0  0  0  0  0  0  0  0  0  0  0  0
    0.5228   19.4051    0.4010 H   0  0  0  0  0  0  0  0  0  0  0  0
    3.0665   19.4693    2.7423 H   0  0  0  0  0  0  0  0  0  0  0  0
    4.3411   18.7123    1.7278 H   0  0  0  0  0  0  0  0  0  0  0  0
    4.1350   20.4967    1.7278 H   0  0  0  0  0  0  0  0  0  0  0  0
   -0.9480   16.4529   -2.1303 H   0  0  0  0  0  0  0  0  0  0  0  0
   -1.1349   16.3836   -4.5379 H   0  0  0  0  0  0  0  0  0  0  0  0
    0.5108   17.0142   -4.7615 H   0  0  0  0  0  0  0  0  0  0  0  0
   -0.2857   14.2916   -5.1038 H   0  0  0  0  0  0  0  0  0  0  0  0
    1.3888   14.8202   -4.9585 H   0  0  0  0  0  0  0  0  0  0  0  0
   -1.1564   13.7190   -1.6587 H   0  0  0  0  0  0  0  0  0  0  0  0
   -1.6969   14.4965   -3.1851 H   0  0  0  0  0  0  0  0  0  0  0  0
   -1.1915   12.7728   -3.1851 H   0  0  0  0  0  0  0  0  0  0  0  0
    2.4046   13.4257   -3.2585 H   0  0  0  0  0  0  0  0  0  0  0  0
    0.6926   12.1163   -4.6699 H   0  0  0  0  0  0  0  0  0  0  0  0
    2.1379   11.2735   -3.9015 H   0  0  0  0  0  0  0  0  0  0  0  0
   -0.1591    9.9901   -3.7819 H   0  0  0  0  0  0  0  0  0  0  0  0
   -0.1845   12.3341   -0.4943 H   0  0  0  0  0  0  0  0  0  0  0  0
    1.9078   10.1595    0.1315 H   0  0  0  0  0  0  0  0  0  0  0  0
    1.4179   11.5453    1.2042 H   0  0  0  0  0  0  0  0  0  0  0  0
    0.3864    9.4087    1.9047 H   0  0  0  0  0  0  0  0  0  0  0  0
   -0.8281   10.6453    1.3930 H   0  0  0  0  0  0  0  0  0  0  0  0
   -1.4684    8.5169    0.4893 H   0  0  0  0  0  0  0  0  0  0  0  0
    0.1630    7.1980    0.1080 H   0  0  0  0  0  0  0  0  0  0  0  0
   -2.5109   10.5873    0.1419 H   0  0  0  0  0  0  0  0  0  0  0  0
   -2.2992   11.5154   -1.3814 H   0  0  0  0  0  0  0  0  0  0  0  0
   -3.2564    9.9954   -1.3814 H   0  0  0  0  0  0  0  0  0  0  0  0
   -1.8597    7.7048   -1.7155 H   0  0  0  0  0  0  0  0  0  0  0  0
   -2.3416    8.9657   -2.9006 H   0  0  0  0  0  0  0  0  0  0  0  0
   -0.6623    8.3280   -2.9006 H   0  0  0  0  0  0  0  0  0  0  0  0
    3.4230   11.7279   -0.2876 H   0  0  0  0  0  0  0  0  0  0  0  0
    3.0400   10.9148   -1.8429 H   0  0  0  0  0  0  0  0  0  0  0  0
    3.8627   12.5117   -1.8429 H   0  0  0  0  0  0  0  0  0  0  0  0
    1.6465   13.5195    0.6070 H   0  0  0  0  0  0  0  0  0  0  0  0
    2.8736   14.2362   -0.5826 H   0  0  0  0  0  0  0  0  0  0  0  0
   -0.1067   14.7719   -0.4533 H   0  0  0  0  0  0  0  0  0  0  0  0
    1.2602   15.9092   -0.1278 H   0  0  0  0  0  0  0  0  0  0  0  0
    2.9866   16.0522   -1.5933 H   0  0  0  0  0  0  0  0  0  0  0  0
    2.9459   15.0981   -3.1147 H   0  0  0  0  0  0  0  0  0  0  0  0
    2.4079   16.8119   -3.1147 H   0  0  0  0  0  0  0  0  0  0  0  0
  1  2  1  0
  2  3  1  0
  3  4  1  0
  4  5  1  0
  5  6  1  0
  6  7  1  0
  7  8  1  0
  7  9  1  0
  2 10  1  0
 10 11  1  0
 11 12  1  0
 12 13  1  0
 13 14  1  1
 13 15  1  0
 15 16  1  0
 16 17  1  0
 17 18  2  0
 18 19  1  0
 19 20  1  0
 20 21  1  0
 21 22  1  0
 22 23  1  0
 22 24  1  0
 24 25  1  0
 24 26  1  0
 19 27  1  0
 27 28  1  6
 27 29  1  0
 29 30  1  0
 30 31  1  0
 31 32  1  6
  7  5  1  0
 31 10  1  0
 31 13  1  0
 27 15  1  0
 24 18  1  0
  1 33  1  0
  1 34  1  0
  1 35  1  0
  2 36  1  1
  3 37  1  0
  3 38  1  0
  4 39  1  0
  4 40  1  0
  5 41  1  6
  8 42  1  0
  8 43  1  0
  8 44  1  0
  9 45  1  0
  9 46  1  0
  9 47  1  0
 10 48  1  1
 11 49  1  0
 11 50  1  0
 12 51  1  0
 12 52  1  0
 14 53  1  0
 14 54  1  0
 14 55  1  0
 15 56  1  6
 16 57  1  0
 16 58  1  0
 17 59  1  0
 19 60  1  1
 20 61  1  0
 20 62  1  0
 21 63  1  0
 21 64  1  0
 22 65  1  1
 23 66  1  0
 25 67  1  0
 25 68  1  0
 25 69  1  0
 26 70  1  0
 26 71  1  0
 26 72  1  0
 28 73  1  0
 28 74  1  0
 28 75  1  0
 29 76  1  0
 29 77  1  0
 30 78  1  0
 30 79  1  0
 32 80  1  0
 32 81  1  0
 32 82  1  0
M  END
>  <meeko>  (9) 
{"is_sidechain": [false], "intermolecular_energy": 2.731, "internal_energy": -0.839}

$$$$
EPH_relaxed_0001_pdb2pqr_Repair_340_r2_0001_out
     RDKit          3D

 82 86  0  0  0  0  0  0  0  0999 V2000
    2.2200   19.2390    0.0710 C   0  0  0  0  0  0  0  0  0  0  0  0
    2.8770   17.8850   -0.2090 C   0  0  2  0  0  0  0  0  0  0  0  0
    3.6870   17.8930   -1.5210 C   0  0  0  0  0  0  0  0  0  0  0  0
    5.1410   17.4450   -1.3490 C   0  0  0  0  0  0  0  0  0  0  0  0
    5.9650   17.7600   -2.5620 C   0  0  2  0  0  0  0  0  0  0  0  0
    5.2690   17.6320   -3.8080 O   0  0  0  0  0  0  0  0  0  0  0  0
    6.3610   16.7230   -3.5960 C   0  0  0  0  0  0  0  0  0  0  0  0
    5.9440   15.2920   -3.4650 C   0  0  0  0  0  0  0  0  0  0  0  0
    7.5490   16.9960   -4.4640 C   0  0  0  0  0  0  0  0  0  0  0  0
    1.8160   16.7930   -0.2590 C   0  0  1  0  0  0  0  0  0  0  0  0
    0.4070   17.3440   -0.6060 C   0  0  0  0  0  0  0  0  0  0  0  0
   -0.3000   16.2590   -1.4590 C   0  0  0  0  0  0  0  0  0  0  0  0
    0.5820   14.9990   -1.2970 C   0  0  1  0  0  0  0  0  0  0  0  0
    0.1530   14.3820    0.0720 C   0  0  0  0  0  0  0  0  0  0  0  0
    0.5060   13.9490   -2.4520 C   0  0  2  0  0  0  0  0  0  0  0  0
   -0.8770   13.3070   -2.6610 C   0  0  0  0  0  0  0  0  0  0  0  0
   -1.1220   12.0550   -1.8850 C   0  0  0  0  0  0  0  0  0  0  0  0
   -0.1780   11.3130   -1.2780 C   0  0  0  0  0  0  0  0  0  0  0  0
    1.3090   11.6620   -1.4200 C   0  0  1  0  0  0  0  0  0  0  0  0
    2.1150   10.3750   -1.7380 C   0  0  0  0  0  0  0  0  0  0  0  0
    1.8700    9.2650   -0.7200 C   0  0  0  0  0  0  0  0  0  0  0  0
    0.3880    8.9060   -0.6500 C   0  0  2  0  0  0  0  0  0  0  0  0
   -0.0020    8.3130   -1.8930 O   0  0  0  0  0  0  0  0  0  0  0  0
   -0.5240   10.1270   -0.3440 C   0  0  0  0  0  0  0  0  0  0  0  0
   -0.3100   10.5830    1.1200 C   0  0  0  0  0  0  0  0  0  0  0  0
   -2.0000    9.6570   -0.4420 C   0  0  0  0  0  0  0  0  0  0  0  0
    1.6500   12.8560   -2.4120 C   0  0  1  0  0  0  0  0  0  0  0  0
    1.7990   12.3140   -3.8660 C   0  0  0  0  0  0  0  0  0  0  0  0
    3.0470   13.4670   -2.0200 C   0  0  0  0  0  0  0  0  0  0  0  0
    3.0440   14.5840   -0.9590 C   0  0  0  0  0  0  0  0  0  0  0  0
    2.0080   15.6600   -1.2980 C   0  0  2  0  0  0  0  0  0  0  0  0
    2.4260   16.3140   -2.6600 C   0  0  0  0  0  0  0  0  0  0  0  0
    2.1454   19.3926    1.1577 H   0  0  0  0  0  0  0  0  0  0  0  0
    2.8293   20.0407   -0.3717 H   0  0  0  0  0  0  0  0  0  0  0  0
    1.2132   19.2566   -0.3717 H   0  0  0  0  0  0  0  0  0  0  0  0
    3.5804   17.6825    0.6121 H   0  0  0  0  0  0  0  0  0  0  0  0
    3.1970   17.2155   -2.2358 H   0  0  0  0  0  0  0  0  0  0  0  0
    3.7110   18.9332   -1.8778 H   0  0  0  0  0  0  0  0  0  0  0  0
    5.5732   17.9627   -0.4800 H   0  0  0  0  0  0  0  0  0  0  0  0
    5.1492   16.3549   -1.2022 H   0  0  0  0  0  0  0  0  0  0  0  0
    6.5503   18.5032   -2.0007 H   0  0  0  0  0  0  0  0  0  0  0  0
    5.8672   15.0285   -2.3998 H   0  0  0  0  0  0  0  0  0  0  0  0
    4.9668   15.1490   -3.9495 H   0  0  0  0  0  0  0  0  0  0  0  0
    6.6914   14.6465   -3.9495 H   0  0  0  0  0  0  0  0  0  0  0  0
    8.4264   17.1976   -3.8319 H   0  0  0  0  0  0  0  0  0  0  0  0
    7.7481   16.1202   -5.0991 H   0  0  0  0  0  0  0  0  0  0  0  0
    7.3458   17.8709   -5.0991 H   0  0  0  0  0  0  0  0  0  0  0  0
    1.9193   16.3904    0.7595 H   0  0  0  0  0  0  0  0  0  0  0  0
   -0.1634   17.5327    0.3154 H   0  0  0  0  0  0  0  0  0  0  0  0
    0.4788   18.2940   -1.1558 H   0  0  0  0  0  0  0  0  0  0  0  0
   -1.3170   16.0719   -1.0839 H   0  0  0  0  0  0  0  0  0  0  0  0
   -0.4075   16.5604   -2.5114 H   0  0  0  0  0  0  0  0  0  0  0  0
    0.5713   14.9836    0.8925 H   0  0  0  0  0  0  0  0  0  0  0  0
   -0.9446   14.3766    0.1439 H   0  0  0  0  0  0  0  0  0  0  0  0
    0.5302   13.3512    0.1439 H   0  0  0  0  0  0  0  0  0  0  0  0
    0.6864   14.5673   -3.3437 H   0  0  0  0  0  0  0  0  0  0  0  0
   -1.6410   14.0427   -2.3695 H   0  0  0  0  0  0  0  0  0  0  0  0
   -0.9231   13.0216   -3.7223 H   0  0  0  0  0  0  0  0  0  0  0  0
   -2.1632   11.7099   -1.8026 H   0  0  0  0  0  0  0  0  0  0  0  0
    1.6203   12.0665   -0.4456 H   0  0  0  0  0  0  0  0  0  0  0  0
    1.8208   10.0116   -2.7337 H   0  0  0  0  0  0  0  0  0  0  0  0
    3.1838   10.6325   -1.7007 H   0  0  0  0  0  0  0  0  0  0  0  0
    2.4428    8.3734   -1.0148 H   0  0  0  0  0  0  0  0  0  0  0  0
    2.1924    9.6194    0.2702 H   0  0  0  0  0  0  0  0  0  0  0  0
    0.2581    8.2009    0.1842 H   0  0  0  0  0  0  0  0  0  0  0  0
    0.7810    8.2940   -2.4680 H   0  0  0  0  0  0  0  0  0  0  0  0
   -0.6759    9.8032    1.8041 H   0  0  0  0  0  0  0  0  0  0  0  0
    0.7621   10.7533    1.2980 H   0  0  0  0  0  0  0  0  0  0  0  0
   -0.8641   11.5164    1.2980 H   0  0  0  0  0  0  0  0  0  0  0  0
   -2.4111    9.5261    0.5699 H   0  0  0  0  0  0  0  0  0  0  0  0
   -2.5900   10.4117   -0.9827 H   0  0  0  0  0  0  0  0  0  0  0  0
   -2.0450    8.7001   -0.9827 H   0  0  0  0  0  0  0  0  0  0  0  0
    2.0905   11.2538   -3.8340 H   0  0  0  0  0  0  0  0  0  0  0  0
    0.8398   12.4148   -4.3950 H   0  0  0  0  0  0  0  0  0  0  0  0
    2.5719   12.8909   -4.3950 H   0  0  0  0  0  0  0  0  0  0  0  0
    3.6734   12.6473   -1.6383 H   0  0  0  0  0  0  0  0  0  0  0  0
    3.4204   13.9436   -2.9384 H   0  0  0  0  0  0  0  0  0  0  0  0
    2.8023   14.1481    0.0216 H   0  0  0  0  0  0  0  0  0  0  0  0
    4.0400   15.0505   -0.9383 H   0  0  0  0  0  0  0  0  0  0  0  0
    3.0090   17.2262   -2.4651 H   0  0  0  0  0  0  0  0  0  0  0  0
    3.0379   15.6037   -3.2353 H   0  0  0  0  0  0  0  0  0  0  0  0
    1.5244   16.5710   -3.2353 H   0  0  0  0  0  0  0  0  0  0  0  0
  1  2  1  0
  2  3  1  0
  3  4  1  0
  4  5  1  0
  5  6  1  0
  6  7  1  0
  7  8  1  0
  7  9  1  0
  2 10  1  0
 10 11  1  0
 11 12  1  0
 12 13  1  0
 13 14  1  1
 13 15  1  0
 15 16  1  0
 16 17  1  0
 17 18  2  0
 18 19  1  0
 19 20  1  0
 20 21  1  0
 21 22  1  0
 22 23  1  0
 22 24  1  0
 24 25  1  0
 24 26  1  0
 19 27  1  0
 27 28  1  6
 27 29  1  0
 29 30  1  0
 30 31  1  0
 31 32  1  6
  7  5  1  0
 31 10  1  0
 31 13  1  0
 27 15  1  0
 24 18  1  0
  1 33  1  0
  1 34  1  0
  1 35  1  0
  2 36  1  1
  3 37  1  0
  3 38  1  0
  4 39  1  0
  4 40  1  0
  5 41  1  1
  8 42  1  0
  8 43  1  0
  8 44  1  0
  9 45  1  0
  9 46  1  0
  9 47  1  0
 10 48  1  1
 11 49  1  0
 11 50  1  0
 12 51  1  0
 12 52  1  0
 14 53  1  0
 14 54  1  0
 14 55  1  0
 15 56  1  6
 16 57  1  0
 16 58  1  0
 17 59  1  0
 19 60  1  1
 20 61  1  0
 20 62  1  0
 21 63  1  0
 21 64  1  0
 22 65  1  1
 23 66  1  0
 25 67  1  0
 25 68  1  0
 25 69  1  0
 26 70  1  0
 26 71  1  0
 26 72  1  0
 28 73  1  0
 28 74  1  0
 28 75  1  0
 29 76  1  0
 29 77  1  0
 30 78  1  0
 30 79  1  0
 32 80  1  0
 32 81  1  0
 32 82  1  0
M  END
>  <meeko>  (10) 
{"is_sidechain": [false], "intermolecular_energy": 2.731, "internal_energy": -0.839}

$$$$
EPH_relaxed_0001_pdb2pqr_Repair_340_r2_0001_out
     RDKit          3D

 82 86  0  0  0  0  0  0  0  0999 V2000
   -5.0350    5.9280   -1.9650 C   0  0  0  0  0  0  0  0  0  0  0  0
   -5.3970    7.4160   -1.9290 C   0  0  2  0  0  0  0  0  0  0  0  0
   -5.1830    8.0320   -0.5320 C   0  0  0  0  0  0  0  0  0  0  0  0
   -4.1180    9.1320   -0.5020 C   0  0  0  0  0  0  0  0  0  0  0  0
   -2.7650    8.6040   -0.8690 C   0  0  2  0  0  0  0  0  0  0  0  0
   -1.7300    8.8960    0.0790 O   0  0  0  0  0  0  0  0  0  0  0  0
   -1.5860    9.4940   -1.2190 C   0  0  0  0  0  0  0  0  0  0  0  0
   -1.7080   10.9860   -1.2190 C   0  0  0  0  0  0  0  0  0  0  0  0
   -0.4680    8.9150   -2.0290 C   0  0  0  0  0  0  0  0  0  0  0  0
   -6.8440    7.6090   -2.3670 C   0  0  1  0  0  0  0  0  0  0  0  0
   -7.1630    6.8950   -3.7070 C   0  0  0  0  0  0  0  0  0  0  0  0
   -8.6270    6.3930   -3.6100 C   0  0  0  0  0  0  0  0  0  0  0  0
   -9.2040    7.1140   -2.3690 C   0  0  1  0  0  0  0  0  0  0  0  0
   -9.5940    8.5380   -2.8780 C   0  0  0  0  0  0  0  0  0  0  0  0
  -10.4030    6.4080   -1.6560 C   0  0  2  0  0  0  0  0  0  0  0  0
  -11.6710    6.2500   -2.5130 C   0  0  0  0  0  0  0  0  0  0  0  0
  -12.6460    7.3770   -2.4240 C   0  0  0  0  0  0  0  0  0  0  0  0
  -12.6510    8.3340   -1.4780 C   0  0  0  0  0  0  0  0  0  0  0  0
  -11.6630    8.2870   -0.3050 C   0  0  1  0  0  0  0  0  0  0  0  0
  -12.4190    8.5630    1.0210 C   0  0  0  0  0  0  0  0  0  0  0  0
  -13.2150    9.8640    0.9810 C   0  0  0  0  0  0  0  0  0  0  0  0
  -14.2270    9.8480   -0.1620 C   0  0  2  0  0  0  0  0  0  0  0  0
  -15.2200    8.8560    0.1140 O   0  0  0  0  0  0  0  0  0  0  0  0
  -13.5820    9.5690   -1.5490 C   0  0  0  0  0  0  0  0  0  0  0  0
  -12.7360   10.7910   -1.9840 C   0  0  0  0  0  0  0  0  0  0  0  0
  -14.7260    9.4400   -2.5900 C   0  0  0  0  0  0  0  0  0  0  0  0
  -10.7420    6.9940   -0.2250 C   0  0  1  0  0  0  0  0  0  0  0  0
  -11.4800    5.8640    0.5550 C   0  0  0  0  0  0  0  0  0  0  0  0
   -9.4480    7.3350    0.6040 C   0  0  0  0  0  0  0  0  0  0  0  0
   -8.2550    7.9180   -0.1780 C   0  0  0  0  0  0  0  0  0  0  0  0
   -7.9510    7.0770   -1.4220 C   0  0  2  0  0  0  0  0  0  0  0  0
   -7.5340    5.6460   -0.9410 C   0  0  0  0  0  0  0  0  0  0  0  0
   -4.9426    5.5481   -0.9368 H   0  0  0  0  0  0  0  0  0  0  0  0
   -5.8239    5.3714   -2.4920 H   0  0  0  0  0  0  0  0  0  0  0  0
   -4.0785    5.7960   -2.4920 H   0  0  0  0  0  0  0  0  0  0  0  0
   -4.7245    7.9374   -2.6261 H   0  0  0  0  0  0  0  0  0  0  0  0
   -6.1366    8.4623   -0.1922 H   0  0  0  0  0  0  0  0  0  0  0  0
   -4.8298    7.2239    0.1255 H   0  0  0  0  0  0  0  0  0  0  0  0
   -4.3990    9.9197   -1.2165 H   0  0  0  0  0  0  0  0  0  0  0  0
   -4.0645    9.5294    0.5223 H   0  0  0  0  0  0  0  0  0  0  0  0
   -3.2152    7.7402   -1.3800 H   0  0  0  0  0  0  0  0  0  0  0  0
   -1.7379   11.3514   -0.1819 H   0  0  0  0  0  0  0  0  0  0  0  0
   -0.8427   11.4246   -1.7375 H   0  0  0  0  0  0  0  0  0  0  0  0
   -2.6330   11.2783   -1.7375 H   0  0  0  0  0  0  0  0  0  0  0  0
    0.3041    8.5151   -1.3552 H   0  0  0  0  0  0  0  0  0  0  0  0
   -0.8563    8.1047   -2.6635 H   0  0  0  0  0  0  0  0  0  0  0  0
   -0.0303    9.6998   -2.6635 H   0  0  0  0  0  0  0  0  0  0  0  0
   -6.8788    8.7077   -2.4066 H   0  0  0  0  0  0  0  0  0  0  0  0
   -7.0590    7.5994   -4.5455 H   0  0  0  0  0  0  0  0  0  0  0  0
   -6.4701    6.0591   -3.8834 H   0  0  0  0  0  0  0  0  0  0  0  0
   -9.1915    6.6642   -4.5143 H   0  0  0  0  0  0  0  0  0  0  0  0
   -8.6882    5.2982   -3.5229 H   0  0  0  0  0  0  0  0  0  0  0  0
   -9.7749    9.1983   -2.0170 H   0  0  0  0  0  0  0  0  0  0  0  0
   -8.7747    8.9466   -3.4877 H   0  0  0  0  0  0  0  0  0  0  0  0
  -10.5072    8.4721   -3.4877 H   0  0  0  0  0  0  0  0  0  0  0  0
  -10.0184    5.3891   -1.5014 H   0  0  0  0  0  0  0  0  0  0  0  0
  -11.3608    6.1512   -3.5637 H   0  0  0  0  0  0  0  0  0  0  0  0
  -12.1935    5.3643   -2.1224 H   0  0  0  0  0  0  0  0  0  0  0  0
  -13.4265    7.4296   -3.1973 H   0  0  0  0  0  0  0  0  0  0  0  0
  -10.9323    9.0879   -0.4913 H   0  0  0  0  0  0  0  0  0  0  0  0
  -13.1128    7.7309    1.2111 H   0  0  0  0  0  0  0  0  0  0  0  0
  -11.6687    8.6552    1.8201 H   0  0  0  0  0  0  0  0  0  0  0  0
  -13.7500    9.9885    1.9341 H   0  0  0  0  0  0  0  0  0  0  0  0
  -12.5167   10.6987    0.8208 H   0  0  0  0  0  0  0  0  0  0  0  0
  -14.6733   10.8517   -0.2197 H   0  0  0  0  0  0  0  0  0  0  0  0
  -15.0950    8.5630    1.0330 H   0  0  0  0  0  0  0  0  0  0  0  0
  -12.3699   11.3198   -1.0917 H   0  0  0  0  0  0  0  0  0  0  0  0
  -11.8802   10.4493   -2.5847 H   0  0  0  0  0  0  0  0  0  0  0  0
  -13.3570   11.4718   -2.5847 H   0  0  0  0  0  0  0  0  0  0  0  0
  -15.6874    9.3316   -2.0667 H   0  0  0  0  0  0  0  0  0  0  0  0
  -14.7513   10.3410   -3.2205 H   0  0  0  0  0  0  0  0  0  0  0  0
  -14.5500    8.5560   -3.2205 H   0  0  0  0  0  0  0  0  0  0  0  0
  -11.3698    6.0327    1.6364 H   0  0  0  0  0  0  0  0  0  0  0  0
  -12.5474    5.8721    0.2895 H   0  0  0  0  0  0  0  0  0  0  0  0
  -11.0435    4.8898    0.2895 H   0  0  0  0  0  0  0  0  0  0  0  0
   -9.7301    8.0671    1.3750 H   0  0  0  0  0  0  0  0  0  0  0  0
   -9.0927    6.3693    0.9929 H   0  0  0  0  0  0  0  0  0  0  0  0
   -8.4957    8.9455   -0.4883 H   0  0  0  0  0  0  0  0  0  0  0  0
   -7.3701    7.9104    0.4753 H   0  0  0  0  0  0  0  0  0  0  0  0
   -7.5255    5.6168    0.1586 H   0  0  0  0  0  0  0  0  0  0  0  0
   -8.2541    4.9068   -1.3219 H   0  0  0  0  0  0  0  0  0  0  0  0
   -6.5295    5.4094   -1.3219 H   0  0  0  0  0  0  0  0  0  0  0  0
  1  2  1  0
  2  3  1  0
  3  4  1  0
  4  5  1  0
  5  6  1  0
  6  7  1  0
  7  8  1  0
  7  9  1  0
  2 10  1  0
 10 11  1  0
 11 12  1  0
 12 13  1  0
 13 14  1  6
 13 15  1  0
 15 16  1  0
 16 17  1  0
 17 18  2  0
 18 19  1  0
 19 20  1  0
 20 21  1  0
 21 22  1  0
 22 23  1  0
 22 24  1  0
 24 25  1  0
 24 26  1  0
 19 27  1  0
 27 28  1  1
 27 29  1  0
 29 30  1  0
 30 31  1  0
 31 32  1  1
  7  5  1  0
 31 10  1  0
 31 13  1  0
 27 15  1  0
 24 18  1  0
  1 33  1  0
  1 34  1  0
  1 35  1  0
  2 36  1  6
  3 37  1  0
  3 38  1  0
  4 39  1  0
  4 40  1  0
  5 41  1  6
  8 42  1  0
  8 43  1  0
  8 44  1  0
  9 45  1  0
  9 46  1  0
  9 47  1  0
 10 48  1  6
 11 49  1  0
 11 50  1  0
 12 51  1  0
 12 52  1  0
 14 53  1  0
 14 54  1  0
 14 55  1  0
 15 56  1  1
 16 57  1  0
 16 58  1  0
 17 59  1  0
 19 60  1  6
 20 61  1  0
 20 62  1  0
 21 63  1  0
 21 64  1  0
 22 65  1  6
 23 66  1  0
 25 67  1  0
 25 68  1  0
 25 69  1  0
 26 70  1  0
 26 71  1  0
 26 72  1  0
 28 73  1  0
 28 74  1  0
 28 75  1  0
 29 76  1  0
 29 77  1  0
 30 78  1  0
 30 79  1  0
 32 80  1  0
 32 81  1  0
 32 82  1  0
M  END
>  <meeko>  (11) 
{"is_sidechain": [false], "intermolecular_energy": 2.731, "internal_energy": -0.839}

$$$$
EPH_relaxed_0001_pdb2pqr_Repair_340_r2_0001_out
     RDKit          3D

 82 86  0  0  0  0  0  0  0  0999 V2000
    1.1050    8.7260   -0.3380 C   0  0  0  0  0  0  0  0  0  0  0  0
    0.0040    9.4860   -1.0830 C   0  0  2  0  0  0  0  0  0  0  0  0
   -0.7310    8.5930   -2.1020 C   0  0  0  0  0  0  0  0  0  0  0  0
   -2.2180    8.4020   -1.7930 C   0  0  0  0  0  0  0  0  0  0  0  0
   -2.8000    7.2530   -2.5600 C   0  0  2  0  0  0  0  0  0  0  0  0
   -3.8220    7.6160   -3.4980 O   0  0  0  0  0  0  0  0  0  0  0  0
   -4.2340    6.7830   -2.4020 C   0  0  0  0  0  0  0  0  0  0  0  0
   -5.1740    7.4520   -1.4490 C   0  0  0  0  0  0  0  0  0  0  0  0
   -4.5770    5.3830   -2.8050 C   0  0  0  0  0  0  0  0  0  0  0  0
    0.5980   10.7010   -1.7870 C   0  0  1  0  0  0  0  0  0  0  0  0
    0.2330   10.7540   -3.2950 C   0  0  0  0  0  0  0  0  0  0  0  0
    0.0660   12.2510   -3.6620 C   0  0  0  0  0  0  0  0  0  0  0  0
    0.6590   13.0170   -2.4560 C   0  0  1  0  0  0  0  0  0  0  0  0
    2.2020   13.0010   -2.6900 C   0  0  0  0  0  0  0  0  0  0  0  0
    0.1250   14.4680   -2.2280 C   0  0  2  0  0  0  0  0  0  0  0  0
    0.4180   15.4580   -3.3700 C   0  0  0  0  0  0  0  0  0  0  0  0
    1.7000   16.2120   -3.2470 C   0  0  0  0  0  0  0  0  0  0  0  0
    2.4430   16.3140   -2.1290 C   0  0  0  0  0  0  0  0  0  0  0  0
    1.9600   15.7110   -0.8040 C   0  0  1  0  0  0  0  0  0  0  0  0
    2.1520   16.7450    0.3360 C   0  0  0  0  0  0  0  0  0  0  0  0
    3.5840   17.2650    0.4200 C   0  0  0  0  0  0  0  0  0  0  0  0
    4.0080   17.9090   -0.8980 C   0  0  2  0  0  0  0  0  0  0  0  0
    3.2330   19.0940   -1.1020 O   0  0  0  0  0  0  0  0  0  0  0  0
    3.8490   16.9640   -2.1210 C   0  0  0  0  0  0  0  0  0  0  0  0
    4.9060   15.8340   -2.0470 C   0  0  0  0  0  0  0  0  0  0  0  0
    4.1750   17.7800   -3.4010 C   0  0  0  0  0  0  0  0  0  0  0  0
    0.5000   15.0840   -0.8190 C   0  0  1  0  0  0  0  0  0  0  0  0
   -0.5580   16.1900   -0.5210 C   0  0  0  0  0  0  0  0  0  0  0  0
    0.3800   14.0300    0.3450 C   0  0  0  0  0  0  0  0  0  0  0  0
    0.8120   12.5870    0.0220 C   0  0  0  0  0  0  0  0  0  0  0  0
    0.1660   12.0990   -1.2790 C   0  0  2  0  0  0  0  0  0  0  0  0
   -1.3860   12.0830   -1.0650 C   0  0  0  0  0  0  0  0  0  0  0  0
    0.9534    8.8307    0.7465 H   0  0  0  0  0  0  0  0  0  0  0  0
    1.0660    7.6616   -0.6126 H   0  0  0  0  0  0  0  0  0  0  0  0
    2.0865    9.1398   -0.6126 H   0  0  0  0  0  0  0  0  0  0  0  0
   -0.7361    9.8126   -0.3376 H   0  0  0  0  0  0  0  0  0  0  0  0
   -0.6394    9.0534   -3.0968 H   0  0  0  0  0  0  0  0  0  0  0  0
   -0.2626    7.5988   -2.0548 H   0  0  0  0  0  0  0  0  0  0  0  0
   -2.3366    8.2088   -0.7166 H   0  0  0  0  0  0  0  0  0  0  0  0
   -2.7505    9.3176   -2.0899 H   0  0  0  0  0  0  0  0  0  0  0  0
   -1.8402    6.7164   -2.5310 H   0  0  0  0  0  0  0  0  0  0  0  0
   -4.8662    7.2330   -0.4159 H   0  0  0  0  0  0  0  0  0  0  0  0
   -5.1526    8.5391   -1.6153 H   0  0  0  0  0  0  0  0  0  0  0  0
   -6.1942    7.0757   -1.6153 H   0  0  0  0  0  0  0  0  0  0  0  0
   -4.7275    4.7688   -1.9049 H   0  0  0  0  0  0  0  0  0  0  0  0
   -5.5002    5.3894   -3.4031 H   0  0  0  0  0  0  0  0  0  0  0  0
   -3.7555    4.9619   -3.4031 H   0  0  0  0  0  0  0  0  0  0  0  0
    1.6642   10.5360   -1.5726 H   0  0  0  0  0  0  0  0  0  0  0  0
    1.0374   10.3041   -3.8955 H   0  0  0  0  0  0  0  0  0  0  0  0
   -0.6906   10.1920   -3.4980 H   0  0  0  0  0  0  0  0  0  0  0  0
    0.6185   12.4890   -4.5829 H   0  0  0  0  0  0  0  0  0  0  0  0
   -0.9838   12.5195   -3.8513 H   0  0  0  0  0  0  0  0  0  0  0  0
    2.7200   12.9956   -1.7196 H   0  0  0  0  0  0  0  0  0  0  0  0
    2.4775   12.1000   -3.2577 H   0  0  0  0  0  0  0  0  0  0  0  0
    2.4961   13.8961   -3.2577 H   0  0  0  0  0  0  0  0  0  0  0  0
   -0.9651   14.3208   -2.2315 H   0  0  0  0  0  0  0  0  0  0  0  0
    0.4461   14.8912   -4.3123 H   0  0  0  0  0  0  0  0  0  0  0  0
   -0.3828   16.2112   -3.3326 H   0  0  0  0  0  0  0  0  0  0  0  0
    2.0690   16.7280   -4.1457 H   0  0  0  0  0  0  0  0  0  0  0  0
    2.5948   14.8315   -0.6211 H   0  0  0  0  0  0  0  0  0  0  0  0
    1.4779   17.5958    0.1575 H   0  0  0  0  0  0  0  0  0  0  0  0
    1.9241   16.2400    1.2863 H   0  0  0  0  0  0  0  0  0  0  0  0
    3.6489   18.0132    1.2237 H   0  0  0  0  0  0  0  0  0  0  0  0
    4.2539   16.4178    0.6287 H   0  0  0  0  0  0  0  0  0  0  0  0
    5.0799   18.1435   -0.8205 H   0  0  0  0  0  0  0  0  0  0  0  0
    3.7570   19.8480   -0.7810 H   0  0  0  0  0  0  0  0  0  0  0  0
    5.1223   15.6027   -0.9936 H   0  0  0  0  0  0  0  0  0  0  0  0
    4.5172   14.9349   -2.5474 H   0  0  0  0  0  0  0  0  0  0  0  0
    5.8290   16.1620   -2.5474 H   0  0  0  0  0  0  0  0  0  0  0  0
    4.5692   18.7667   -3.1163 H   0  0  0  0  0  0  0  0  0  0  0  0
    4.9274   17.2425   -3.9968 H   0  0  0  0  0  0  0  0  0  0  0  0
    3.2593   17.9089   -3.9968 H   0  0  0  0  0  0  0  0  0  0  0  0
   -0.6698   16.3069    0.5670 H   0  0  0  0  0  0  0  0  0  0  0  0
   -0.2263   17.1425   -0.9599 H   0  0  0  0  0  0  0  0  0  0  0  0
   -1.5243   15.9008   -0.9599 H   0  0  0  0  0  0  0  0  0  0  0  0
    1.0016   14.3845    1.1804 H   0  0  0  0  0  0  0  0  0  0  0  0
   -0.6957   13.9660    0.5659 H   0  0  0  0  0  0  0  0  0  0  0  0
    1.9063   12.5545   -0.0854 H   0  0  0  0  0  0  0  0  0  0  0  0
    0.4859   11.9313    0.8428 H   0  0  0  0  0  0  0  0  0  0  0  0
   -1.6076   12.0807    0.0125 H   0  0  0  0  0  0  0  0  0  0  0  0
   -1.8293   12.9766   -1.5286 H   0  0  0  0  0  0  0  0  0  0  0  0
   -1.8108   11.1804   -1.5286 H   0  0  0  0  0  0  0  0  0  0  0  0
  1  2  1  0
  2  3  1  0
  3  4  1  0
  4  5  1  0
  5  6  1  0
  6  7  1  0
  7  8  1  0
  7  9  1  0
  2 10  1  0
 10 11  1  0
 11 12  1  0
 12 13  1  0
 13 14  1  6
 13 15  1  0
 15 16  1  0
 16 17  1  0
 17 18  2  0
 18 19  1  0
 19 20  1  0
 20 21  1  0
 21 22  1  0
 22 23  1  0
 22 24  1  0
 24 25  1  0
 24 26  1  0
 19 27  1  0
 27 28  1  1
 27 29  1  0
 29 30  1  0
 30 31  1  0
 31 32  1  1
  7  5  1  0
 31 10  1  0
 31 13  1  0
 27 15  1  0
 24 18  1  0
  1 33  1  0
  1 34  1  0
  1 35  1  0
  2 36  1  1
  3 37  1  0
  3 38  1  0
  4 39  1  0
  4 40  1  0
  5 41  1  6
  8 42  1  0
  8 43  1  0
  8 44  1  0
  9 45  1  0
  9 46  1  0
  9 47  1  0
 10 48  1  6
 11 49  1  0
 11 50  1  0
 12 51  1  0
 12 52  1  0
 14 53  1  0
 14 54  1  0
 14 55  1  0
 15 56  1  1
 16 57  1  0
 16 58  1  0
 17 59  1  0
 19 60  1  1
 20 61  1  0
 20 62  1  0
 21 63  1  0
 21 64  1  0
 22 65  1  1
 23 66  1  0
 25 67  1  0
 25 68  1  0
 25 69  1  0
 26 70  1  0
 26 71  1  0
 26 72  1  0
 28 73  1  0
 28 74  1  0
 28 75  1  0
 29 76  1  0
 29 77  1  0
 30 78  1  0
 30 79  1  0
 32 80  1  0
 32 81  1  0
 32 82  1  0
M  END
>  <meeko>  (12) 
{"is_sidechain": [false], "intermolecular_energy": 2.731, "internal_energy": -0.839}

$$$$
EPH_relaxed_0001_pdb2pqr_Repair_340_r2_0001_out
     RDKit          3D

 82 86  0  0  0  0  0  0  0  0999 V2000
    4.6640   17.5750   -2.9630 C   0  0  0  0  0  0  0  0  0  0  0  0
    3.1850   17.3190   -2.6610 C   0  0  2  0  0  0  0  0  0  0  0  0
    2.5420   18.4830   -1.8800 C   0  0  0  0  0  0  0  0  0  0  0  0
    1.2810   19.0450   -2.5420 C   0  0  0  0  0  0  0  0  0  0  0  0
    0.5050   19.9200   -1.6040 C   0  0  2  0  0  0  0  0  0  0  0  0
    1.1240   20.1260   -0.3280 O   0  0  0  0  0  0  0  0  0  0  0  0
   -0.1250   19.4160   -0.3190 C   0  0  0  0  0  0  0  0  0  0  0  0
   -0.0080   17.9830    0.0980 C   0  0  0  0  0  0  0  0  0  0  0  0
   -1.2570   20.1940    0.2760 C   0  0  0  0  0  0  0  0  0  0  0  0
    3.0320   16.0200   -1.8780 C   0  0  1  0  0  0  0  0  0  0  0  0
    3.3170   16.1980   -0.3630 C   0  0  0  0  0  0  0  0  0  0  0  0
    2.3570   15.2410    0.3880 C   0  0  0  0  0  0  0  0  0  0  0  0
    1.7920   14.3120   -0.7120 C   0  0  1  0  0  0  0  0  0  0  0  0
    2.8980   13.2330   -0.9320 C   0  0  0  0  0  0  0  0  0  0  0  0
    0.4000   13.6620   -0.4200 C   0  0  2  0  0  0  0  0  0  0  0  0
    0.3620   12.7230    0.7980 C   0  0  0  0  0  0  0  0  0  0  0  0
    0.6560   11.2880    0.5060 C   0  0  0  0  0  0  0  0  0  0  0  0
    0.6610   10.7230   -0.7150 C   0  0  0  0  0  0  0  0  0  0  0  0
    0.2510   11.5270   -1.9560 C   0  0  1  0  0  0  0  0  0  0  0  0
   -0.7280   10.6870   -2.8170 C   0  0  0  0  0  0  0  0  0  0  0  0
   -0.1670    9.3140   -3.1710 C   0  0  0  0  0  0  0  0  0  0  0  0
    0.1740    8.5230   -1.9100 C   0  0  2  0  0  0  0  0  0  0  0  0
   -1.0390    8.2200   -1.2150 O   0  0  0  0  0  0  0  0  0  0  0  0
    1.1470    9.2740   -0.9600 C   0  0  0  0  0  0  0  0  0  0  0  0
    2.5560    9.3360   -1.6010 C   0  0  0  0  0  0  0  0  0  0  0  0
    1.2960    8.4300    0.3350 C   0  0  0  0  0  0  0  0  0  0  0  0
   -0.2830   12.9990   -1.6840 C   0  0  1  0  0  0  0  0  0  0  0  0
   -1.8150   12.9640   -1.3950 C   0  0  0  0  0  0  0  0  0  0  0  0
   -0.0970   13.8630   -2.9870 C   0  0  0  0  0  0  0  0  0  0  0  0
    1.2570   14.5770   -3.1600 C   0  0  0  0  0  0  0  0  0  0  0  0
    1.6390   15.3430   -1.8890 C   0  0  2  0  0  0  0  0  0  0  0  0
    0.5560   16.4510   -1.6550 C   0  0  0  0  0  0  0  0  0  0  0  0
    5.2198   17.6712   -2.0186 H   0  0  0  0  0  0  0  0  0  0  0  0
    5.0706   16.7339   -3.5437 H   0  0  0  0  0  0  0  0  0  0  0  0
    4.7642   18.5039   -3.5437 H   0  0  0  0  0  0  0  0  0  0  0  0
    2.6598   17.2372   -3.6241 H   0  0  0  0  0  0  0  0  0  0  0  0
    2.2757   18.1222   -0.8755 H   0  0  0  0  0  0  0  0  0  0  0  0
    3.2805   19.2977   -1.8508 H   0  0  0  0  0  0  0  0  0  0  0  0
    1.5739   19.6370   -3.4217 H   0  0  0  0  0  0  0  0  0  0  0  0
    0.6398   18.1993   -2.8315 H   0  0  0  0  0  0  0  0  0  0  0  0
    0.1011   20.5037   -2.4444 H   0  0  0  0  0  0  0  0  0  0  0  0
   -0.0029   17.9199    1.1962 H   0  0  0  0  0  0  0  0  0  0  0  0
   -0.8628   17.4150   -0.2979 H   0  0  0  0  0  0  0  0  0  0  0  0
    0.9276   17.5611   -0.2979 H   0  0  0  0  0  0  0  0  0  0  0  0
   -1.1946   20.1511    1.3734 H   0  0  0  0  0  0  0  0  0  0  0  0
   -1.1954   21.2415   -0.0541 H   0  0  0  0  0  0  0  0  0  0  0  0
   -2.2129   19.7611   -0.0541 H   0  0  0  0  0  0  0  0  0  0  0  0
    3.7591   15.3941   -2.4162 H   0  0  0  0  0  0  0  0  0  0  0  0
    4.3623   15.9370   -0.1410 H   0  0  0  0  0  0  0  0  0  0  0  0
    3.1587   17.2410   -0.0512 H   0  0  0  0  0  0  0  0  0  0  0  0
    2.9028   14.6589    1.1451 H   0  0  0  0  0  0  0  0  0  0  0  0
    1.5638   15.7824    0.9244 H   0  0  0  0  0  0  0  0  0  0  0  0
    3.2625   12.8774    0.0431 H   0  0  0  0  0  0  0  0  0  0  0  0
    2.4783   12.3877   -1.4971 H   0  0  0  0  0  0  0  0  0  0  0  0
    3.7327   13.6734   -1.4971 H   0  0  0  0  0  0  0  0  0  0  0  0
   -0.2148   14.5318   -0.1453 H   0  0  0  0  0  0  0  0  0  0  0  0
    1.1045   13.0808    1.5264 H   0  0  0  0  0  0  0  0  0  0  0  0
   -0.6718   12.7520    1.1727 H   0  0  0  0  0  0  0  0  0  0  0  0
    0.8882   10.6377    1.3622 H   0  0  0  0  0  0  0  0  0  0  0  0
    1.1781   11.7116   -2.5185 H   0  0  0  0  0  0  0  0  0  0  0  0
   -1.6638   10.5511   -2.2551 H   0  0  0  0  0  0  0  0  0  0  0  0
   -0.8955   11.2314   -3.7581 H   0  0  0  0  0  0  0  0  0  0  0  0
   -0.9165    8.7579   -3.7533 H   0  0  0  0  0  0  0  0  0  0  0  0
    0.7523    9.4510   -3.7593 H   0  0  0  0  0  0  0  0  0  0  0  0
    0.6913    7.6050   -2.2258 H   0  0  0  0  0  0  0  0  0  0  0  0
   -0.8400    8.2170   -0.2630 H   0  0  0  0  0  0  0  0  0  0  0  0
    3.3182    9.3695   -0.8086 H   0  0  0  0  0  0  0  0  0  0  0  0
    2.7146    8.4440   -2.2248 H   0  0  0  0  0  0  0  0  0  0  0  0
    2.6357   10.2385   -2.2248 H   0  0  0  0  0  0  0  0  0  0  0  0
    1.1808    9.0824    1.2131 H   0  0  0  0  0  0  0  0  0  0  0  0
    0.5219    7.6487    0.3546 H   0  0  0  0  0  0  0  0  0  0  0  0
    2.2908    7.9610    0.3546 H   0  0  0  0  0  0  0  0  0  0  0  0
   -1.9831   12.9602   -0.3079 H   0  0  0  0  0  0  0  0  0  0  0  0
   -2.2918   13.8515   -1.8366 H   0  0  0  0  0  0  0  0  0  0  0  0
   -2.2508   12.0557   -1.8366 H   0  0  0  0  0  0  0  0  0  0  0  0
   -0.2342   13.1960   -3.8509 H   0  0  0  0  0  0  0  0  0  0  0  0
   -0.8396   14.6704   -2.9052 H   0  0  0  0  0  0  0  0  0  0  0  0
    2.0335   13.8285   -3.3762 H   0  0  0  0  0  0  0  0  0  0  0  0
    1.1721   15.2941   -3.9898 H   0  0  0  0  0  0  0  0  0  0  0  0
    0.4108   16.5995   -0.5748 H   0  0  0  0  0  0  0  0  0  0  0  0
    0.8907   17.3934   -2.1130 H   0  0  0  0  0  0  0  0  0  0  0  0
   -0.3938   16.1379   -2.1130 H   0  0  0  0  0  0  0  0  0  0  0  0
  1  2  1  0
  2  3  1  0
  3  4  1  0
  4  5  1  0
  5  6  1  0
  6  7  1  0
  7  8  1  0
  7  9  1  0
  2 10  1  0
 10 11  1  0
 11 12  1  0
 12 13  1  0
 13 14  1  6
 13 15  1  0
 15 16  1  0
 16 17  1  0
 17 18  2  0
 18 19  1  0
 19 20  1  0
 20 21  1  0
 21 22  1  0
 22 23  1  0
 22 24  1  0
 24 25  1  0
 24 26  1  0
 19 27  1  0
 27 28  1  1
 27 29  1  0
 29 30  1  0
 30 31  1  0
 31 32  1  1
  7  5  1  0
 31 10  1  0
 31 13  1  0
 27 15  1  0
 24 18  1  0
  1 33  1  0
  1 34  1  0
  1 35  1  0
  2 36  1  6
  3 37  1  0
  3 38  1  0
  4 39  1  0
  4 40  1  0
  5 41  1  6
  8 42  1  0
  8 43  1  0
  8 44  1  0
  9 45  1  0
  9 46  1  0
  9 47  1  0
 10 48  1  6
 11 49  1  0
 11 50  1  0
 12 51  1  0
 12 52  1  0
 14 53  1  0
 14 54  1  0
 14 55  1  0
 15 56  1  1
 16 57  1  0
 16 58  1  0
 17 59  1  0
 19 60  1  6
 20 61  1  0
 20 62  1  0
 21 63  1  0
 21 64  1  0
 22 65  1  6
 23 66  1  0
 25 67  1  0
 25 68  1  0
 25 69  1  0
 26 70  1  0
 26 71  1  0
 26 72  1  0
 28 73  1  0
 28 74  1  0
 28 75  1  0
 29 76  1  0
 29 77  1  0
 30 78  1  0
 30 79  1  0
 32 80  1  0
 32 81  1  0
 32 82  1  0
M  END
>  <meeko>  (13) 
{"is_sidechain": [false], "intermolecular_energy": 2.731, "internal_energy": -0.839}

$$$$
EPH_relaxed_0001_pdb2pqr_Repair_340_r2_0001_out
     RDKit          3D

 82 86  0  0  0  0  0  0  0  0999 V2000
    4.6100   16.8540   -1.5560 C   0  0  0  0  0  0  0  0  0  0  0  0
    4.6760   15.3250   -1.6200 C   0  0  2  0  0  0  0  0  0  0  0  0
    5.0470   14.8190   -3.0280 C   0  0  0  0  0  0  0  0  0  0  0  0
    5.9980   13.6180   -3.0200 C   0  0  0  0  0  0  0  0  0  0  0  0
    5.5950   12.5860   -4.0290 C   0  0  2  0  0  0  0  0  0  0  0  0
    5.1420   11.3460   -3.4690 O   0  0  0  0  0  0  0  0  0  0  0  0
    6.3510   11.2870   -4.2440 C   0  0  0  0  0  0  0  0  0  0  0  0
    7.5710   10.9530   -3.4440 C   0  0  0  0  0  0  0  0  0  0  0  0
    6.1940   10.5760   -5.5520 C   0  0  0  0  0  0  0  0  0  0  0  0
    3.3430   14.7290   -1.1860 C   0  0  1  0  0  0  0  0  0  0  0  0
    2.3250   15.8080   -0.7320 C   0  0  0  0  0  0  0  0  0  0  0  0
    0.9220   15.3120   -1.1680 C   0  0  0  0  0  0  0  0  0  0  0  0
    1.1350   13.8300   -1.5540 C   0  0  1  0  0  0  0  0  0  0  0  0
    1.1270   13.0570   -0.1980 C   0  0  0  0  0  0  0  0  0  0  0  0
    0.1110   13.2260   -2.5700 C   0  0  2  0  0  0  0  0  0  0  0  0
   -1.3470   13.1890   -2.0810 C   0  0  0  0  0  0  0  0  0  0  0  0
   -1.7490   11.9420   -1.3650 C   0  0  0  0  0  0  0  0  0  0  0  0
   -1.0650   10.7830   -1.3710 C   0  0  0  0  0  0  0  0  0  0  0  0
    0.1940   10.6150   -2.2300 C   0  0  1  0  0  0  0  0  0  0  0  0
    0.1260    9.2650   -2.9910 C   0  0  0  0  0  0  0  0  0  0  0  0
   -0.1070    8.0790   -2.0600 C   0  0  0  0  0  0  0  0  0  0  0  0
   -1.3980    8.2560   -1.2650 C   0  0  2  0  0  0  0  0  0  0  0  0
   -2.5070    8.1950   -2.1670 O   0  0  0  0  0  0  0  0  0  0  0  0
   -1.4480    9.5870   -0.4640 C   0  0  0  0  0  0  0  0  0  0  0  0
   -0.4410    9.5250    0.7110 C   0  0  0  0  0  0  0  0  0  0  0  0
   -2.8570    9.7060    0.1780 C   0  0  0  0  0  0  0  0  0  0  0  0
    0.5510   11.8350   -3.1840 C   0  0  1  0  0  0  0  0  0  0  0  0
   -0.2050   11.6890   -4.5400 C   0  0  0  0  0  0  0  0  0  0  0  0
    2.0870   11.7900   -3.5240 C   0  0  0  0  0  0  0  0  0  0  0  0
    3.0370   12.5070   -2.5460 C   0  0  0  0  0  0  0  0  0  0  0  0
    2.5450   13.9260   -2.2440 C   0  0  2  0  0  0  0  0  0  0  0  0
    2.5640   14.7340   -3.5860 C   0  0  0  0  0  0  0  0  0  0  0  0
    4.5961   17.1767   -0.5045 H   0  0  0  0  0  0  0  0  0  0  0  0
    5.4906   17.2804   -2.0588 H   0  0  0  0  0  0  0  0  0  0  0  0
    3.6960   17.2029   -2.0588 H   0  0  0  0  0  0  0  0  0  0  0  0
    5.4700   14.9984   -0.9324 H   0  0  0  0  0  0  0  0  0  0  0  0
    4.1222   14.5262   -3.5467 H   0  0  0  0  0  0  0  0  0  0  0  0
    5.5715   15.6410   -3.5371 H   0  0  0  0  0  0  0  0  0  0  0  0
    7.0148   13.9668   -3.2532 H   0  0  0  0  0  0  0  0  0  0  0  0
    5.9591   13.1561   -2.0224 H   0  0  0  0  0  0  0  0  0  0  0  0
    5.2541   13.3657   -4.7261 H   0  0  0  0  0  0  0  0  0  0  0  0
    7.3352   11.0176   -2.3715 H   0  0  0  0  0  0  0  0  0  0  0  0
    7.9001    9.9317   -3.6863 H   0  0  0  0  0  0  0  0  0  0  0  0
    8.3744   11.6643   -3.6863 H   0  0  0  0  0  0  0  0  0  0  0  0
    5.9602    9.5170   -5.3679 H   0  0  0  0  0  0  0  0  0  0  0  0
    5.3762   11.0379   -6.1246 H   0  0  0  0  0  0  0  0  0  0  0  0
    7.1303   10.6506   -6.1246 H   0  0  0  0  0  0  0  0  0  0  0  0
    3.6929   14.0572   -0.3884 H   0  0  0  0  0  0  0  0  0  0  0  0
    2.3617   15.9273    0.3609 H   0  0  0  0  0  0  0  0  0  0  0  0
    2.5565   16.7839   -1.1836 H   0  0  0  0  0  0  0  0  0  0  0  0
    0.2046   15.3980   -0.3386 H   0  0  0  0  0  0  0  0  0  0  0  0
    0.5095   15.9042   -1.9981 H   0  0  0  0  0  0  0  0  0  0  0  0
    1.1344   13.7763    0.6342 H   0  0  0  0  0  0  0  0  0  0  0  0
    0.2224   12.4342   -0.1363 H   0  0  0  0  0  0  0  0  0  0  0  0
    2.0186   12.4157   -0.1363 H   0  0  0  0  0  0  0  0  0  0  0  0
    0.1323   13.9577   -3.3910 H   0  0  0  0  0  0  0  0  0  0  0  0
   -1.4975   14.0371   -1.3968 H   0  0  0  0  0  0  0  0  0  0  0  0
   -1.9720   13.2353   -2.9850 H   0  0  0  0  0  0  0  0  0  0  0  0
   -2.6825   11.9732   -0.7839 H   0  0  0  0  0  0  0  0  0  0  0  0
    1.0409   10.6059   -1.5281 H   0  0  0  0  0  0  0  0  0  0  0  0
   -0.6992    9.3107   -3.7169 H   0  0  0  0  0  0  0  0  0  0  0  0
    1.0953    9.1132   -3.4885 H   0  0  0  0  0  0  0  0  0  0  0  0
   -0.1762    7.1590   -2.6591 H   0  0  0  0  0  0  0  0  0  0  0  0
    0.7344    8.0156   -1.3543 H   0  0  0  0  0  0  0  0  0  0  0  0
   -1.4428    7.4436   -0.5247 H   0  0  0  0  0  0  0  0  0  0  0  0
   -2.9650    9.0520   -2.1280 H   0  0  0  0  0  0  0  0  0  0  0  0
   -0.9879    9.5587    1.6648 H   0  0  0  0  0  0  0  0  0  0  0  0
    0.1349    8.5897    0.6514 H   0  0  0  0  0  0  0  0  0  0  0  0
    0.2453   10.3826    0.6514 H   0  0  0  0  0  0  0  0  0  0  0  0
   -2.7625    9.6980    1.2739 H   0  0  0  0  0  0  0  0  0  0  0  0
   -3.3277   10.6471   -0.1426 H   0  0  0  0  0  0  0  0  0  0  0  0
   -3.4789    8.8572   -0.1426 H   0  0  0  0  0  0  0  0  0  0  0  0
   -1.2682   11.4837   -4.3468 H   0  0  0  0  0  0  0  0  0  0  0  0
   -0.1103   12.6220   -5.1149 H   0  0  0  0  0  0  0  0  0  0  0  0
    0.2303   10.8583   -5.1149 H   0  0  0  0  0  0  0  0  0  0  0  0
    2.3878   10.7327   -3.5649 H   0  0  0  0  0  0  0  0  0  0  0  0
    2.1872   12.3354   -4.4740 H   0  0  0  0  0  0  0  0  0  0  0  0
    3.0853   11.9356   -1.6073 H   0  0  0  0  0  0  0  0  0  0  0  0
    4.0327   12.5723   -3.0089 H   0  0  0  0  0  0  0  0  0  0  0  0
    2.5893   15.8113   -3.3650 H   0  0  0  0  0  0  0  0  0  0  0  0
    3.4559   14.4579   -4.1676 H   0  0  0  0  0  0  0  0  0  0  0  0
    1.6601   14.5001   -4.1676 H   0  0  0  0  0  0  0  0  0  0  0  0
  1  2  1  0
  2  3  1  0
  3  4  1  0
  4  5  1  0
  5  6  1  0
  6  7  1  0
  7  8  1  0
  7  9  1  0
  2 10  1  0
 10 11  1  0
 11 12  1  0
 12 13  1  0
 13 14  1  1
 13 15  1  0
 15 16  1  0
 16 17  1  0
 17 18  2  0
 18 19  1  0
 19 20  1  0
 20 21  1  0
 21 22  1  0
 22 23  1  0
 22 24  1  0
 24 25  1  0
 24 26  1  0
 19 27  1  0
 27 28  1  6
 27 29  1  0
 29 30  1  0
 30 31  1  0
 31 32  1  6
  7  5  1  0
 31 10  1  0
 31 13  1  0
 27 15  1  0
 24 18  1  0
  1 33  1  0
  1 34  1  0
  1 35  1  0
  2 36  1  1
  3 37  1  0
  3 38  1  0
  4 39  1  0
  4 40  1  0
  5 41  1  6
  8 42  1  0
  8 43  1  0
  8 44  1  0
  9 45  1  0
  9 46  1  0
  9 47  1  0
 10 48  1  1
 11 49  1  0
 11 50  1  0
 12 51  1  0
 12 52  1  0
 14 53  1  0
 14 54  1  0
 14 55  1  0
 15 56  1  6
 16 57  1  0
 16 58  1  0
 17 59  1  0
 19 60  1  1
 20 61  1  0
 20 62  1  0
 21 63  1  0
 21 64  1  0
 22 65  1  1
 23 66  1  0
 25 67  1  0
 25 68  1  0
 25 69  1  0
 26 70  1  0
 26 71  1  0
 26 72  1  0
 28 73  1  0
 28 74  1  0
 28 75  1  0
 29 76  1  0
 29 77  1  0
 30 78  1  0
 30 79  1  0
 32 80  1  0
 32 81  1  0
 32 82  1  0
M  END
>  <meeko>  (14) 
{"is_sidechain": [false], "intermolecular_energy": 2.731, "internal_energy": -0.839}

$$$$
EPH_relaxed_0001_pdb2pqr_Repair_340_r2_0001_out
     RDKit          3D

 82 86  0  0  0  0  0  0  0  0999 V2000
   -1.3900   10.3190    1.5090 C   0  0  0  0  0  0  0  0  0  0  0  0
   -1.9920   10.0440    0.1280 C   0  0  2  0  0  0  0  0  0  0  0  0
   -2.7740    8.7160    0.0890 C   0  0  0  0  0  0  0  0  0  0  0  0
   -4.2130    8.8640   -0.4130 C   0  0  0  0  0  0  0  0  0  0  0  0
   -4.8030    7.5420   -0.8010 C   0  0  2  0  0  0  0  0  0  0  0  0
   -4.8680    7.3070   -2.2140 O   0  0  0  0  0  0  0  0  0  0  0  0
   -6.1270    7.3980   -1.5270 C   0  0  0  0  0  0  0  0  0  0  0  0
   -6.9430    8.5930   -1.9080 C   0  0  0  0  0  0  0  0  0  0  0  0
   -6.8570    6.0940   -1.4320 C   0  0  0  0  0  0  0  0  0  0  0  0
   -0.8900   10.0310   -0.9260 C   0  0  1  0  0  0  0  0  0  0  0  0
   -1.2640    9.1820   -2.1700 C   0  0  0  0  0  0  0  0  0  0  0  0
   -0.6340    9.8880   -3.3980 C   0  0  0  0  0  0  0  0  0  0  0  0
    0.3480   10.9190   -2.7940 C   0  0  1  0  0  0  0  0  0  0  0  0
    1.6300   10.0980   -2.4510 C   0  0  0  0  0  0  0  0  0  0  0  0
    0.6800   12.1610   -3.6840 C   0  0  2  0  0  0  0  0  0  0  0  0
    1.3810   11.8410   -5.0160 C   0  0  0  0  0  0  0  0  0  0  0  0
    2.8730   11.8320   -4.9650 C   0  0  0  0  0  0  0  0  0  0  0  0
    3.6250   12.3450   -3.9740 C   0  0  0  0  0  0  0  0  0  0  0  0
    2.9790   13.1010   -2.8050 C   0  0  1  0  0  0  0  0  0  0  0  0
    3.7600   14.4150   -2.5430 C   0  0  0  0  0  0  0  0  0  0  0  0
    5.2520   14.1760   -2.3300 C   0  0  0  0  0  0  0  0  0  0  0  0
    5.8700   13.4750   -3.5370 C   0  0  2  0  0  0  0  0  0  0  0  0
    5.8300   14.3650   -4.6570 O   0  0  0  0  0  0  0  0  0  0  0  0
    5.1590   12.1430   -3.9020 C   0  0  0  0  0  0  0  0  0  0  0  0
    5.4590   11.0780   -2.8180 C   0  0  0  0  0  0  0  0  0  0  0  0
    5.7880   11.6110   -5.2180 C   0  0  0  0  0  0  0  0  0  0  0  0
    1.4100   13.3340   -2.9130 C   0  0  1  0  0  0  0  0  0  0  0  0
    1.1210   14.6410   -3.7140 C   0  0  0  0  0  0  0  0  0  0  0  0
    0.8230   13.5580   -1.4700 C   0  0  0  0  0  0  0  0  0  0  0  0
    0.4030   12.3000   -0.6870 C   0  0  0  0  0  0  0  0  0  0  0  0
   -0.4820   11.3910   -1.5460 C   0  0  2  0  0  0  0  0  0  0  0  0
   -1.7900   12.1820   -1.8890 C   0  0  0  0  0  0  0  0  0  0  0  0
   -2.0965    9.9962    2.2879 H   0  0  0  0  0  0  0  0  0  0  0  0
   -0.4473    9.7622    1.6156 H   0  0  0  0  0  0  0  0  0  0  0  0
   -1.1937   11.3961    1.6156 H   0  0  0  0  0  0  0  0  0  0  0  0
   -2.7050   10.8530   -0.0892 H   0  0  0  0  0  0  0  0  0  0  0  0
   -2.2435    8.0200   -0.5774 H   0  0  0  0  0  0  0  0  0  0  0  0
   -2.8306    8.3456    1.1232 H   0  0  0  0  0  0  0  0  0  0  0  0
   -4.8256    9.3071    0.3860 H   0  0  0  0  0  0  0  0  0  0  0  0
   -4.2009    9.5091   -1.3039 H   0  0  0  0  0  0  0  0  0  0  0  0
   -4.4063    7.0707    0.1104 H   0  0  0  0  0  0  0  0  0  0  0  0
   -7.2919    9.1039   -0.9985 H   0  0  0  0  0  0  0  0  0  0  0  0
   -6.3268    9.2833   -2.5028 H   0  0  0  0  0  0  0  0  0  0  0  0
   -7.8102    8.2703   -2.5028 H   0  0  0  0  0  0  0  0  0  0  0  0
   -7.0036    5.8321   -0.3737 H   0  0  0  0  0  0  0  0  0  0  0  0
   -7.8355    6.1847   -1.9262 H   0  0  0  0  0  0  0  0  0  0  0  0
   -6.2681    5.3073   -1.9262 H   0  0  0  0  0  0  0  0  0  0  0  0
   -0.0623    9.6301   -0.3225 H   0  0  0  0  0  0  0  0  0  0  0  0
   -0.8597    8.1639   -2.0695 H   0  0  0  0  0  0  0  0  0  0  0  0
   -2.3555    9.0992   -2.2785 H   0  0  0  0  0  0  0  0  0  0  0  0
   -0.0975    9.1642   -4.0291 H   0  0  0  0  0  0  0  0  0  0  0  0
   -1.3909   10.3602   -4.0415 H   0  0  0  0  0  0  0  0  0  0  0  0
    1.7393   10.0280   -1.3587 H   0  0  0  0  0  0  0  0  0  0  0  0
    1.5428    9.0873   -2.8763 H   0  0  0  0  0  0  0  0  0  0  0  0
    2.5116   10.6000   -2.8763 H   0  0  0  0  0  0  0  0  0  0  0  0
   -0.3198   12.5312   -3.9549 H   0  0  0  0  0  0  0  0  0  0  0  0
    1.0461   10.8466   -5.3461 H   0  0  0  0  0  0  0  0  0  0  0  0
    1.1049   12.6507   -5.7075 H   0  0  0  0  0  0  0  0  0  0  0  0
    3.4026   11.3665   -5.8093 H   0  0  0  0  0  0  0  0  0  0  0  0
    3.0615   12.4380   -1.9311 H   0  0  0  0  0  0  0  0  0  0  0  0
    3.6296   15.0813   -3.4085 H   0  0  0  0  0  0  0  0  0  0  0  0
    3.3589   14.8641   -1.6224 H   0  0  0  0  0  0  0  0  0  0  0  0
    5.7537   15.1433   -2.1797 H   0  0  0  0  0  0  0  0  0  0  0  0
    5.3821   13.5338   -1.4464 H   0  0  0  0  0  0  0  0  0  0  0  0
    6.9057   13.2149   -3.2731 H   0  0  0  0  0  0  0  0  0  0  0  0
    5.2860   15.1300   -4.4060 H   0  0  0  0  0  0  0  0  0  0  0  0
    5.3332   11.5245   -1.8206 H   0  0  0  0  0  0  0  0  0  0  0  0
    4.7639   10.2331   -2.9318 H   0  0  0  0  0  0  0  0  0  0  0  0
    6.4929   10.7201   -2.9318 H   0  0  0  0  0  0  0  0  0  0  0  0
    6.6077   10.9177   -4.9785 H   0  0  0  0  0  0  0  0  0  0  0  0
    5.0210   11.0834   -5.8039 H   0  0  0  0  0  0  0  0  0  0  0  0
    6.1810   12.4550   -5.8039 H   0  0  0  0  0  0  0  0  0  0  0  0
    0.9381   15.4682   -3.0123 H   0  0  0  0  0  0  0  0  0  0  0  0
    1.9875   14.8821   -4.3472 H   0  0  0  0  0  0  0  0  0  0  0  0
    0.2336   14.4943   -4.3472 H   0  0  0  0  0  0  0  0  0  0  0  0
    1.5889   14.0788   -0.8766 H   0  0  0  0  0  0  0  0  0  0  0  0
   -0.1071   14.1251   -1.6230 H   0  0  0  0  0  0  0  0  0  0  0  0
    1.3041   11.7454   -0.3863 H   0  0  0  0  0  0  0  0  0  0  0  0
   -0.1695   12.6124    0.1988 H   0  0  0  0  0  0  0  0  0  0  0  0
   -2.2904   12.4846   -0.9574 H   0  0  0  0  0  0  0  0  0  0  0  0
   -1.5342   13.0769   -2.4752 H   0  0  0  0  0  0  0  0  0  0  0  0
   -2.4638   11.5398   -2.4752 H   0  0  0  0  0  0  0  0  0  0  0  0
  1  2  1  0
  2  3  1  0
  3  4  1  0
  4  5  1  0
  5  6  1  0
  6  7  1  0
  7  8  1  0
  7  9  1  0
  2 10  1  0
 10 11  1  0
 11 12  1  0
 12 13  1  0
 13 14  1  1
 13 15  1  0
 15 16  1  0
 16 17  1  0
 17 18  2  0
 18 19  1  0
 19 20  1  0
 20 21  1  0
 21 22  1  0
 22 23  1  0
 22 24  1  0
 24 25  1  0
 24 26  1  0
 19 27  1  0
 27 28  1  6
 27 29  1  0
 29 30  1  0
 30 31  1  0
 31 32  1  6
  7  5  1  0
 31 10  1  0
 31 13  1  0
 27 15  1  0
 24 18  1  0
  1 33  1  0
  1 34  1  0
  1 35  1  0
  2 36  1  6
  3 37  1  0
  3 38  1  0
  4 39  1  0
  4 40  1  0
  5 41  1  1
  8 42  1  0
  8 43  1  0
  8 44  1  0
  9 45  1  0
  9 46  1  0
  9 47  1  0
 10 48  1  1
 11 49  1  0
 11 50  1  0
 12 51  1  0
 12 52  1  0
 14 53  1  0
 14 54  1  0
 14 55  1  0
 15 56  1  6
 16 57  1  0
 16 58  1  0
 17 59  1  0
 19 60  1  1
 20 61  1  0
 20 62  1  0
 21 63  1  0
 21 64  1  0
 22 65  1  1
 23 66  1  0
 25 67  1  0
 25 68  1  0
 25 69  1  0
 26 70  1  0
 26 71  1  0
 26 72  1  0
 28 73  1  0
 28 74  1  0
 28 75  1  0
 29 76  1  0
 29 77  1  0
 30 78  1  0
 30 79  1  0
 32 80  1  0
 32 81  1  0
 32 82  1  0
M  END
>  <meeko>  (15) 
{"is_sidechain": [false], "intermolecular_energy": 2.731, "internal_energy": -0.839}

$$$$
EPH_relaxed_0001_pdb2pqr_Repair_340_r2_0001_out
     RDKit          3D

 82 86  0  0  0  0  0  0  0  0999 V2000
   -0.0620    9.5710   -4.2630 C   0  0  0  0  0  0  0  0  0  0  0  0
    1.0650   10.4850   -3.7740 C   0  0  2  0  0  0  0  0  0  0  0  0
    1.9120    9.8220   -2.6690 C   0  0  0  0  0  0  0  0  0  0  0  0
    1.0980    8.9540   -1.7060 C   0  0  0  0  0  0  0  0  0  0  0  0
    1.1450    9.4860   -0.3060 C   0  0  2  0  0  0  0  0  0  0  0  0
    0.6090    8.6030    0.6880 O   0  0  0  0  0  0  0  0  0  0  0  0
   -0.0930    9.8420    0.4960 C   0  0  0  0  0  0  0  0  0  0  0  0
   -1.4660    9.6810   -0.0770 C   0  0  0  0  0  0  0  0  0  0  0  0
    0.0460   10.7980    1.6400 C   0  0  0  0  0  0  0  0  0  0  0  0
    0.4850   11.8000   -3.2670 C   0  0  1  0  0  0  0  0  0  0  0  0
   -0.7400   11.5930   -2.3360 C   0  0  0  0  0  0  0  0  0  0  0  0
   -0.6800   12.7090   -1.2630 C   0  0  0  0  0  0  0  0  0  0  0  0
    0.3720   13.7080   -1.7980 C   0  0  1  0  0  0  0  0  0  0  0  0
   -0.3950   14.5790   -2.8410 C   0  0  0  0  0  0  0  0  0  0  0  0
    1.0930   14.5920   -0.7280 C   0  0  2  0  0  0  0  0  0  0  0  0
    0.1740   15.5380    0.0640 C   0  0  0  0  0  0  0  0  0  0  0  0
   -0.0050   16.8970   -0.5280 C   0  0  0  0  0  0  0  0  0  0  0  0
    0.7660   17.4380   -1.4900 C   0  0  0  0  0  0  0  0  0  0  0  0
    2.0060   16.7020   -2.0130 C   0  0  1  0  0  0  0  0  0  0  0  0
    3.2020   17.6880   -2.0820 C   0  0  0  0  0  0  0  0  0  0  0  0
    2.8820   18.9400   -2.8920 C   0  0  0  0  0  0  0  0  0  0  0  0
    1.6790   19.6760   -2.3070 C   0  0  2  0  0  0  0  0  0  0  0  0
    2.0350   20.1910   -1.0210 O   0  0  0  0  0  0  0  0  0  0  0  0
    0.4150   18.7800   -2.1800 C   0  0  0  0  0  0  0  0  0  0  0  0
   -0.1470   18.4690   -3.5890 C   0  0  0  0  0  0  0  0  0  0  0  0
   -0.6800   19.6000   -1.4470 C   0  0  0  0  0  0  0  0  0  0  0  0
    2.3740   15.3480   -1.2680 C   0  0  1  0  0  0  0  0  0  0  0  0
    3.2690   15.6490   -0.0270 C   0  0  0  0  0  0  0  0  0  0  0  0
    3.2380   14.4500   -2.2300 C   0  0  0  0  0  0  0  0  0  0  0  0
    2.4690   13.5110   -3.1800 C   0  0  0  0  0  0  0  0  0  0  0  0
    1.4120   12.7060   -2.4190 C   0  0  2  0  0  0  0  0  0  0  0  0
    2.1560   11.8040   -1.3770 C   0  0  0  0  0  0  0  0  0  0  0  0
   -0.5891    9.1435   -3.3973 H   0  0  0  0  0  0  0  0  0  0  0  0
   -0.7690   10.1540   -4.8715 H   0  0  0  0  0  0  0  0  0  0  0  0
    0.3625    8.7589   -4.8715 H   0  0  0  0  0  0  0  0  0  0  0  0
    1.7297   10.6772   -4.6291 H   0  0  0  0  0  0  0  0  0  0  0  0
    2.6733    9.1888   -3.1480 H   0  0  0  0  0  0  0  0  0  0  0  0
    2.3550   10.6338   -2.0733 H   0  0  0  0  0  0  0  0  0  0  0  0
    0.0514    8.9317   -2.0440 H   0  0  0  0  0  0  0  0  0  0  0  0
    1.5330    7.9437   -1.7038 H   0  0  0  0  0  0  0  0  0  0  0  0
    2.0684   10.0428   -0.5235 H   0  0  0  0  0  0  0  0  0  0  0  0
   -2.1968    9.5953    0.7407 H   0  0  0  0  0  0  0  0  0  0  0  0
   -1.7098   10.5567   -0.6964 H   0  0  0  0  0  0  0  0  0  0  0  0
   -1.5006    8.7726   -0.6964 H   0  0  0  0  0  0  0  0  0  0  0  0
   -0.0340   10.2480    2.5893 H   0  0  0  0  0  0  0  0  0  0  0  0
    1.0258   11.2949    1.5856 H   0  0  0  0  0  0  0  0  0  0  0  0
   -0.7518   11.5534    1.5856 H   0  0  0  0  0  0  0  0  0  0  0  0
    0.2608   12.2854   -4.2283 H   0  0  0  0  0  0  0  0  0  0  0  0
   -1.6726   11.6729   -2.9138 H   0  0  0  0  0  0  0  0  0  0  0  0
   -0.7184   10.5964   -1.8708 H   0  0  0  0  0  0  0  0  0  0  0  0
   -1.6598   13.1973   -1.1553 H   0  0  0  0  0  0  0  0  0  0  0  0
   -0.4168   12.3184   -0.2690 H   0  0  0  0  0  0  0  0  0  0  0  0
   -1.0334   15.3039   -2.3147 H   0  0  0  0  0  0  0  0  0  0  0  0
    0.3279   15.1171   -3.4718 H   0  0  0  0  0  0  0  0  0  0  0  0
   -1.0202   13.9300   -3.4718 H   0  0  0  0  0  0  0  0  0  0  0  0
    1.4461   13.8435   -0.0034 H   0  0  0  0  0  0  0  0  0  0  0  0
   -0.8169   15.0662    0.1379 H   0  0  0  0  0  0  0  0  0  0  0  0
    0.6623   15.6921    1.0376 H   0  0  0  0  0  0  0  0  0  0  0  0
   -0.8366   17.5074   -0.1461 H   0  0  0  0  0  0  0  0  0  0  0  0
    1.7495   16.3544   -3.0246 H   0  0  0  0  0  0  0  0  0  0  0  0
    3.4702   17.9892   -1.0586 H   0  0  0  0  0  0  0  0  0  0  0  0
    4.0333   17.1699   -2.5826 H   0  0  0  0  0  0  0  0  0  0  0  0
    3.7546   19.6096   -2.8794 H   0  0  0  0  0  0  0  0  0  0  0  0
    2.6424   18.6395   -3.9227 H   0  0  0  0  0  0  0  0  0  0  0  0
    1.4189   20.4880   -3.0019 H   0  0  0  0  0  0  0  0  0  0  0  0
    1.9370   19.4690   -0.3770 H   0  0  0  0  0  0  0  0  0  0  0  0
   -1.1057   17.9384   -3.4924 H   0  0  0  0  0  0  0  0  0  0  0  0
   -0.3021   19.4097   -4.1377 H   0  0  0  0  0  0  0  0  0  0  0  0
    0.5676   17.8380   -4.1377 H   0  0  0  0  0  0  0  0  0  0  0  0
   -0.5466   19.5001   -0.3597 H   0  0  0  0  0  0  0  0  0  0  0  0
   -0.5964   20.6594   -1.7309 H   0  0  0  0  0  0  0  0  0  0  0  0
   -1.6731   19.2216   -1.7309 H   0  0  0  0  0  0  0  0  0  0  0  0
    2.6972   15.4567    0.8928 H   0  0  0  0  0  0  0  0  0  0  0  0
    4.1569   15.0000   -0.0492 H   0  0  0  0  0  0  0  0  0  0  0  0
    3.5843   16.7026   -0.0492 H   0  0  0  0  0  0  0  0  0  0  0  0
    3.8518   15.1205   -2.8494 H   0  0  0  0  0  0  0  0  0  0  0  0
    3.8095   13.7840   -1.5667 H   0  0  0  0  0  0  0  0  0  0  0  0
    1.9732   14.1121   -3.9565 H   0  0  0  0  0  0  0  0  0  0  0  0
    3.1842   12.8093   -3.6339 H   0  0  0  0  0  0  0  0  0  0  0  0
    1.8911   12.1251   -0.3588 H   0  0  0  0  0  0  0  0  0  0  0  0
    1.8568   10.7552   -1.5202 H   0  0  0  0  0  0  0  0  0  0  0  0
    3.2426   11.8982   -1.5202 H   0  0  0  0  0  0  0  0  0  0  0  0
  1  2  1  0
  2  3  1  0
  3  4  1  0
  4  5  1  0
  5  6  1  0
  6  7  1  0
  7  8  1  0
  7  9  1  0
  2 10  1  0
 10 11  1  0
 11 12  1  0
 12 13  1  0
 13 14  1  6
 13 15  1  0
 15 16  1  0
 16 17  1  0
 17 18  2  0
 18 19  1  0
 19 20  1  0
 20 21  1  0
 21 22  1  0
 22 23  1  0
 22 24  1  0
 24 25  1  0
 24 26  1  0
 19 27  1  0
 27 28  1  1
 27 29  1  0
 29 30  1  0
 30 31  1  0
 31 32  1  1
  7  5  1  0
 31 10  1  0
 31 13  1  0
 27 15  1  0
 24 18  1  0
  1 33  1  0
  1 34  1  0
  1 35  1  0
  2 36  1  6
  3 37  1  0
  3 38  1  0
  4 39  1  0
  4 40  1  0
  5 41  1  1
  8 42  1  0
  8 43  1  0
  8 44  1  0
  9 45  1  0
  9 46  1  0
  9 47  1  0
 10 48  1  6
 11 49  1  0
 11 50  1  0
 12 51  1  0
 12 52  1  0
 14 53  1  0
 14 54  1  0
 14 55  1  0
 15 56  1  1
 16 57  1  0
 16 58  1  0
 17 59  1  0
 19 60  1  6
 20 61  1  0
 20 62  1  0
 21 63  1  0
 21 64  1  0
 22 65  1  6
 23 66  1  0
 25 67  1  0
 25 68  1  0
 25 69  1  0
 26 70  1  0
 26 71  1  0
 26 72  1  0
 28 73  1  0
 28 74  1  0
 28 75  1  0
 29 76  1  0
 29 77  1  0
 30 78  1  0
 30 79  1  0
 32 80  1  0
 32 81  1  0
 32 82  1  0
M  END
>  <meeko>  (16) 
{"is_sidechain": [false], "intermolecular_energy": 2.731, "internal_energy": -0.839}

$$$$
EPH_relaxed_0001_pdb2pqr_Repair_340_r2_0001_out
     RDKit          3D

 82 86  0  0  0  0  0  0  0  0999 V2000
   -0.1200    8.5930   -3.5030 C   0  0  0  0  0  0  0  0  0  0  0  0
   -0.5450    8.9790   -2.0830 C   0  0  2  0  0  0  0  0  0  0  0  0
   -1.8370    8.2610   -1.6480 C   0  0  0  0  0  0  0  0  0  0  0  0
   -2.4720    7.4120   -2.7530 C   0  0  0  0  0  0  0  0  0  0  0  0
   -3.9580    7.6010   -2.8120 C   0  0  2  0  0  0  0  0  0  0  0  0
   -4.6480    7.3080   -1.5910 O   0  0  0  0  0  0  0  0  0  0  0  0
   -4.9510    6.4590   -2.7090 C   0  0  0  0  0  0  0  0  0  0  0  0
   -4.4970    5.0430   -2.5390 C   0  0  0  0  0  0  0  0  0  0  0  0
   -6.3290    6.6570   -3.2600 C   0  0  0  0  0  0  0  0  0  0  0  0
   -0.7310   10.4890   -1.9890 C   0  0  1  0  0  0  0  0  0  0  0  0
   -2.0500   10.8850   -1.2730 C   0  0  0  0  0  0  0  0  0  0  0  0
   -1.7550   12.1820   -0.4770 C   0  0  0  0  0  0  0  0  0  0  0  0
   -0.3910   12.6700   -1.0180 C   0  0  1  0  0  0  0  0  0  0  0  0
   -0.7290   13.4140   -2.3470 C   0  0  0  0  0  0  0  0  0  0  0  0
    0.4540   13.5660   -0.0540 C   0  0  2  0  0  0  0  0  0  0  0  0
   -0.1980   14.9050    0.3320 C   0  0  0  0  0  0  0  0  0  0  0  0
    0.1240   16.0530   -0.5650 C   0  0  0  0  0  0  0  0  0  0  0  0
    1.1240   16.0850   -1.4670 C   0  0  0  0  0  0  0  0  0  0  0  0
    2.1170   14.9220   -1.5830 C   0  0  1  0  0  0  0  0  0  0  0  0
    3.5630   15.4800   -1.6490 C   0  0  0  0  0  0  0  0  0  0  0  0
    3.7420   16.5130   -2.7570 C   0  0  0  0  0  0  0  0  0  0  0  0
    2.7770   17.6820   -2.5740 C   0  0  2  0  0  0  0  0  0  0  0  0
    3.1390   18.3970   -1.3890 O   0  0  0  0  0  0  0  0  0  0  0  0
    1.2890   17.2400   -2.4850 C   0  0  0  0  0  0  0  0  0  0  0  0
    0.8110   16.7390   -3.8700 C   0  0  0  0  0  0  0  0  0  0  0  0
    0.4370   18.4970   -2.1590 C   0  0  0  0  0  0  0  0  0  0  0  0
    1.9580   13.7640   -0.5060 C   0  0  1  0  0  0  0  0  0  0  0  0
    2.7660   14.1190    0.7800 C   0  0  0  0  0  0  0  0  0  0  0  0
    2.5910   12.4400   -1.0760 C   0  0  0  0  0  0  0  0  0  0  0  0
    1.6710   11.5380   -1.9210 C   0  0  0  0  0  0  0  0  0  0  0  0
    0.3390   11.2900   -1.2070 C   0  0  2  0  0  0  0  0  0  0  0  0
    0.6460   10.5230    0.1250 C   0  0  0  0  0  0  0  0  0  0  0  0
    0.6935    7.8542   -3.4542 H   0  0  0  0  0  0  0  0  0  0  0  0
   -0.9780    8.1590   -4.0373 H   0  0  0  0  0  0  0  0  0  0  0  0
    0.2297    9.4887   -4.0373 H   0  0  0  0  0  0  0  0  0  0  0  0
    0.2556    8.6595   -1.3996 H   0  0  0  0  0  0  0  0  0  0  0  0
   -1.5998    7.6039   -0.7983 H   0  0  0  0  0  0  0  0  0  0  0  0
   -2.5654    9.0420   -1.3844 H   0  0  0  0  0  0  0  0  0  0  0  0
   -2.0369    7.7027   -3.7206 H   0  0  0  0  0  0  0  0  0  0  0  0
   -2.2692    6.3537   -2.5319 H   0  0  0  0  0  0  0  0  0  0  0  0
   -3.8483    8.4204   -3.5376 H   0  0  0  0  0  0  0  0  0  0  0  0
   -4.4217    4.8083   -1.4670 H   0  0  0  0  0  0  0  0  0  0  0  0
   -5.2231    4.3658   -3.0125 H   0  0  0  0  0  0  0  0  0  0  0  0
   -3.5125    4.9142   -3.0125 H   0  0  0  0  0  0  0  0  0  0  0  0
   -7.0442    6.7598   -2.4306 H   0  0  0  0  0  0  0  0  0  0  0  0
   -6.3498    7.5674   -3.8771 H   0  0  0  0  0  0  0  0  0  0  0  0
   -6.6053    5.7893   -3.8771 H   0  0  0  0  0  0  0  0  0  0  0  0
   -0.6875   10.7468   -3.0575 H   0  0  0  0  0  0  0  0  0  0  0  0
   -2.8429   11.0670   -2.0133 H   0  0  0  0  0  0  0  0  0  0  0  0
   -2.3934   10.0813   -0.6051 H   0  0  0  0  0  0  0  0  0  0  0  0
   -2.5363   12.9348   -0.6579 H   0  0  0  0  0  0  0  0  0  0  0  0
   -1.7354   12.0095    0.6092 H   0  0  0  0  0  0  0  0  0  0  0  0
   -1.1738   14.3932   -2.1161 H   0  0  0  0  0  0  0  0  0  0  0  0
    0.1920   13.5582   -2.9310 H   0  0  0  0  0  0  0  0  0  0  0  0
   -1.4434   12.8152   -2.9310 H   0  0  0  0  0  0  0  0  0  0  0  0
    0.4737   12.9672    0.8686 H   0  0  0  0  0  0  0  0  0  0  0  0
   -1.2891   14.7656    0.3271 H   0  0  0  0  0  0  0  0  0  0  0  0
    0.2084   15.1676    1.3199 H   0  0  0  0  0  0  0  0  0  0  0  0
   -0.5087   16.9490   -0.4828 H   0  0  0  0  0  0  0  0  0  0  0  0
    1.8727   14.4066   -2.5236 H   0  0  0  0  0  0  0  0  0  0  0  0
    3.8030   15.9520   -0.6849 H   0  0  0  0  0  0  0  0  0  0  0  0
    4.2361   14.6376   -1.8664 H   0  0  0  0  0  0  0  0  0  0  0  0
    4.7746   16.8914   -2.7330 H   0  0  0  0  0  0  0  0  0  0  0  0
    3.5312   16.0316   -3.7233 H   0  0  0  0  0  0  0  0  0  0  0  0
    2.8607   18.3219   -3.4648 H   0  0  0  0  0  0  0  0  0  0  0  0
    2.9680   19.3400   -1.5500 H   0  0  0  0  0  0  0  0  0  0  0  0
    0.0575   15.9492   -3.7342 H   0  0  0  0  0  0  0  0  0  0  0  0
    0.3682   17.5759   -4.4299 H   0  0  0  0  0  0  0  0  0  0  0  0
    1.6678   16.3359   -4.4299 H   0  0  0  0  0  0  0  0  0  0  0  0
    0.3580   18.6136   -1.0680 H   0  0  0  0  0  0  0  0  0  0  0  0
    0.9182   19.3878   -2.5890 H   0  0  0  0  0  0  0  0  0  0  0  0
   -0.5687   18.3799   -2.5890 H   0  0  0  0  0  0  0  0  0  0  0  0
    2.1731   13.8585    1.6691 H   0  0  0  0  0  0  0  0  0  0  0  0
    3.7087   13.5522    0.7889 H   0  0  0  0  0  0  0  0  0  0  0  0
    2.9861   15.1967    0.7889 H   0  0  0  0  0  0  0  0  0  0  0  0
    3.4473   12.7245   -1.7052 H   0  0  0  0  0  0  0  0  0  0  0  0
    2.8486   11.8398   -0.1909 H   0  0  0  0  0  0  0  0  0  0  0  0
    1.4758   12.0273   -2.8867 H   0  0  0  0  0  0  0  0  0  0  0  0
    2.1723   10.5708   -2.0733 H   0  0  0  0  0  0  0  0  0  0  0  0
    0.3903   11.1618    0.9832 H   0  0  0  0  0  0  0  0  0  0  0  0
    0.0477    9.6007    0.1633 H   0  0  0  0  0  0  0  0  0  0  0  0
    1.7154   10.2682    0.1633 H   0  0  0  0  0  0  0  0  0  0  0  0
  1  2  1  0
  2  3  1  0
  3  4  1  0
  4  5  1  0
  5  6  1  0
  6  7  1  0
  7  8  1  0
  7  9  1  0
  2 10  1  0
 10 11  1  0
 11 12  1  0
 12 13  1  0
 13 14  1  6
 13 15  1  0
 15 16  1  0
 16 17  1  0
 17 18  2  0
 18 19  1  0
 19 20  1  0
 20 21  1  0
 21 22  1  0
 22 23  1  0
 22 24  1  0
 24 25  1  0
 24 26  1  0
 19 27  1  0
 27 28  1  1
 27 29  1  0
 29 30  1  0
 30 31  1  0
 31 32  1  1
  7  5  1  0
 31 10  1  0
 31 13  1  0
 27 15  1  0
 24 18  1  0
  1 33  1  0
  1 34  1  0
  1 35  1  0
  2 36  1  1
  3 37  1  0
  3 38  1  0
  4 39  1  0
  4 40  1  0
  5 41  1  6
  8 42  1  0
  8 43  1  0
  8 44  1  0
  9 45  1  0
  9 46  1  0
  9 47  1  0
 10 48  1  6
 11 49  1  0
 11 50  1  0
 12 51  1  0
 12 52  1  0
 14 53  1  0
 14 54  1  0
 14 55  1  0
 15 56  1  1
 16 57  1  0
 16 58  1  0
 17 59  1  0
 19 60  1  6
 20 61  1  0
 20 62  1  0
 21 63  1  0
 21 64  1  0
 22 65  1  6
 23 66  1  0
 25 67  1  0
 25 68  1  0
 25 69  1  0
 26 70  1  0
 26 71  1  0
 26 72  1  0
 28 73  1  0
 28 74  1  0
 28 75  1  0
 29 76  1  0
 29 77  1  0
 30 78  1  0
 30 79  1  0
 32 80  1  0
 32 81  1  0
 32 82  1  0
M  END
>  <meeko>  (17) 
{"is_sidechain": [false], "intermolecular_energy": 2.731, "internal_energy": -0.839}

$$$$
EPH_relaxed_0001_pdb2pqr_Repair_340_r2_0001_out
     RDKit          3D

 82 86  0  0  0  0  0  0  0  0999 V2000
    0.4970    9.0950   -2.3590 C   0  0  0  0  0  0  0  0  0  0  0  0
    1.2660   10.2240   -3.0510 C   0  0  2  0  0  0  0  0  0  0  0  0
    2.7570   10.2350   -2.6610 C   0  0  0  0  0  0  0  0  0  0  0  0
    3.6900   10.6360   -3.8060 C   0  0  0  0  0  0  0  0  0  0  0  0
    5.0860   10.8880   -3.3220 C   0  0  2  0  0  0  0  0  0  0  0  0
    5.6850   12.0920   -3.8210 O   0  0  0  0  0  0  0  0  0  0  0  0
    6.3040   10.8600   -4.2270 C   0  0  0  0  0  0  0  0  0  0  0  0
    6.1820   10.5720   -5.6900 C   0  0  0  0  0  0  0  0  0  0  0  0
    7.6480   10.6290   -3.6110 C   0  0  0  0  0  0  0  0  0  0  0  0
    0.6290   11.5680   -2.7160 C   0  0  1  0  0  0  0  0  0  0  0  0
   -0.6330   11.4250   -1.8240 C   0  0  0  0  0  0  0  0  0  0  0  0
   -0.6510   12.6520   -0.8760 C   0  0  0  0  0  0  0  0  0  0  0  0
    0.4000   13.6190   -1.4690 C   0  0  1  0  0  0  0  0  0  0  0  0
   -0.3390   14.3500   -2.6340 C   0  0  0  0  0  0  0  0  0  0  0  0
    1.0470   14.6330   -0.4700 C   0  0  2  0  0  0  0  0  0  0  0  0
    0.0680   15.6310    0.1720 C   0  0  0  0  0  0  0  0  0  0  0  0
   -0.1160   16.9120   -0.5710 C   0  0  0  0  0  0  0  0  0  0  0  0
    0.6850   17.3700   -1.5510 C   0  0  0  0  0  0  0  0  0  0  0  0
    1.9670   16.6200   -1.9350 C   0  0  1  0  0  0  0  0  0  0  0  0
    3.1390   17.6280   -2.0580 C   0  0  0  0  0  0  0  0  0  0  0  0
    2.8270   18.7760   -3.0130 C   0  0  0  0  0  0  0  0  0  0  0  0
    1.5790   19.5340   -2.5650 C   0  0  2  0  0  0  0  0  0  0  0  0
    1.8610   20.1950   -1.3270 O   0  0  0  0  0  0  0  0  0  0  0  0
    0.3340   18.6190   -2.3970 C   0  0  0  0  0  0  0  0  0  0  0  0
   -0.1530   18.1420   -3.7880 C   0  0  0  0  0  0  0  0  0  0  0  0
   -0.8150   19.4800   -1.8070 C   0  0  0  0  0  0  0  0  0  0  0  0
    2.3330   15.3650   -1.0320 C   0  0  1  0  0  0  0  0  0  0  0  0
    3.1600   15.8240    0.2070 C   0  0  0  0  0  0  0  0  0  0  0  0
    3.2630   14.3950   -1.8520 C   0  0  0  0  0  0  0  0  0  0  0  0
    2.5640   13.3380   -2.7280 C   0  0  0  0  0  0  0  0  0  0  0  0
    1.4920   12.5870   -1.9320 C   0  0  2  0  0  0  0  0  0  0  0  0
    2.2090   11.8250   -0.7660 C   0  0  0  0  0  0  0  0  0  0  0  0
    0.5767    9.2120   -1.2681 H   0  0  0  0  0  0  0  0  0  0  0  0
   -0.5614    9.1366   -2.6559 H   0  0  0  0  0  0  0  0  0  0  0  0
    0.9233    8.1254   -2.6559 H   0  0  0  0  0  0  0  0  0  0  0  0
    1.2104   10.0465   -4.1352 H   0  0  0  0  0  0  0  0  0  0  0  0
    2.8946   10.9483   -1.8350 H   0  0  0  0  0  0  0  0  0  0  0  0
    3.0221    9.2062   -2.3759 H   0  0  0  0  0  0  0  0  0  0  0  0
    3.7113    9.8251   -4.5489 H   0  0  0  0  0  0  0  0  0  0  0  0
    3.3077   11.5673   -4.2494 H   0  0  0  0  0  0  0  0  0  0  0  0
    4.8676   10.3942   -2.3636 H   0  0  0  0  0  0  0  0  0  0  0  0
    5.7565    9.5676   -5.8317 H   0  0  0  0  0  0  0  0  0  0  0  0
    5.5229   11.3187   -6.1570 H   0  0  0  0  0  0  0  0  0  0  0  0
    7.1769   10.6180   -6.1570 H   0  0  0  0  0  0  0  0  0  0  0  0
    7.5566   10.6447   -2.5149 H   0  0  0  0  0  0  0  0  0  0  0  0
    8.0356    9.6511   -3.9326 H   0  0  0  0  0  0  0  0  0  0  0  0
    8.3398   11.4214   -3.9326 H   0  0  0  0  0  0  0  0  0  0  0  0
    0.4377   11.9407   -3.7331 H   0  0  0  0  0  0  0  0  0  0  0  0
   -1.5389   11.4148   -2.4479 H   0  0  0  0  0  0  0  0  0  0  0  0
   -0.6093   10.4849   -1.2534 H   0  0  0  0  0  0  0  0  0  0  0  0
   -1.6465   13.1197   -0.8652 H   0  0  0  0  0  0  0  0  0  0  0  0
   -0.4250   12.3780    0.1651 H   0  0  0  0  0  0  0  0  0  0  0  0
   -1.0627   15.0659   -2.2171 H   0  0  0  0  0  0  0  0  0  0  0  0
    0.3941   14.8881   -3.2528 H   0  0  0  0  0  0  0  0  0  0  0  0
   -0.8691   13.6110   -3.2528 H   0  0  0  0  0  0  0  0  0  0  0  0
    1.3837   13.9776    0.3468 H   0  0  0  0  0  0  0  0  0  0  0  0
   -0.9134   15.1406    0.2519 H   0  0  0  0  0  0  0  0  0  0  0  0
    0.5053   15.9034    1.1439 H   0  0  0  0  0  0  0  0  0  0  0  0
   -0.9795   17.5348   -0.2943 H   0  0  0  0  0  0  0  0  0  0  0  0
    1.7679   16.1582   -2.9133 H   0  0  0  0  0  0  0  0  0  0  0  0
    3.3508   18.0454   -1.0625 H   0  0  0  0  0  0  0  0  0  0  0  0
    4.0054   17.0841   -2.4623 H   0  0  0  0  0  0  0  0  0  0  0  0
    3.6810   19.4690   -3.0342 H   0  0  0  0  0  0  0  0  0  0  0  0
    2.6447   18.3600   -4.0148 H   0  0  0  0  0  0  0  0  0  0  0  0
    1.3314   20.2584   -3.3549 H   0  0  0  0  0  0  0  0  0  0  0  0
    2.4410   20.9500   -1.5230 H   0  0  0  0  0  0  0  0  0  0  0  0
   -0.9336   17.3775   -3.6609 H   0  0  0  0  0  0  0  0  0  0  0  0
   -0.5641   18.9966   -4.3455 H   0  0  0  0  0  0  0  0  0  0  0  0
    0.6928   17.7133   -4.3455 H   0  0  0  0  0  0  0  0  0  0  0  0
   -0.7710   19.4470   -0.7084 H   0  0  0  0  0  0  0  0  0  0  0  0
   -0.7055   20.5203   -2.1473 H   0  0  0  0  0  0  0  0  0  0  0  0
   -1.7827   19.0828   -2.1473 H   0  0  0  0  0  0  0  0  0  0  0  0
    2.6338   15.5319    1.1277 H   0  0  0  0  0  0  0  0  0  0  0  0
    4.1508   15.3467    0.1838 H   0  0  0  0  0  0  0  0  0  0  0  0
    3.2791   16.9173    0.1838 H   0  0  0  0  0  0  0  0  0  0  0  0
    3.8889   15.0133   -2.5123 H   0  0  0  0  0  0  0  0  0  0  0  0
    3.8180   13.8206   -1.0956 H   0  0  0  0  0  0  0  0  0  0  0  0
    2.0908   13.8378   -3.5860 H   0  0  0  0  0  0  0  0  0  0  0  0
    3.3173   12.6136   -3.0713 H   0  0  0  0  0  0  0  0  0  0  0  0
    1.8479   12.2088    0.1995 H   0  0  0  0  0  0  0  0  0  0  0  0
    1.9872   10.7501   -0.8394 H   0  0  0  0  0  0  0  0  0  0  0  0
    3.2954   11.9811   -0.8394 H   0  0  0  0  0  0  0  0  0  0  0  0
  1  2  1  0
  2  3  1  0
  3  4  1  0
  4  5  1  0
  5  6  1  0
  6  7  1  0
  7  8  1  0
  7  9  1  0
  2 10  1  0
 10 11  1  0
 11 12  1  0
 12 13  1  0
 13 14  1  6
 13 15  1  0
 15 16  1  0
 16 17  1  0
 17 18  2  0
 18 19  1  0
 19 20  1  0
 20 21  1  0
 21 22  1  0
 22 23  1  0
 22 24  1  0
 24 25  1  0
 24 26  1  0
 19 27  1  0
 27 28  1  1
 27 29  1  0
 29 30  1  0
 30 31  1  0
 31 32  1  1
  7  5  1  0
 31 10  1  0
 31 13  1  0
 27 15  1  0
 24 18  1  0
  1 33  1  0
  1 34  1  0
  1 35  1  0
  2 36  1  6
  3 37  1  0
  3 38  1  0
  4 39  1  0
  4 40  1  0
  5 41  1  1
  8 42  1  0
  8 43  1  0
  8 44  1  0
  9 45  1  0
  9 46  1  0
  9 47  1  0
 10 48  1  6
 11 49  1  0
 11 50  1  0
 12 51  1  0
 12 52  1  0
 14 53  1  0
 14 54  1  0
 14 55  1  0
 15 56  1  1
 16 57  1  0
 16 58  1  0
 17 59  1  0
 19 60  1  6
 20 61  1  0
 20 62  1  0
 21 63  1  0
 21 64  1  0
 22 65  1  6
 23 66  1  0
 25 67  1  0
 25 68  1  0
 25 69  1  0
 26 70  1  0
 26 71  1  0
 26 72  1  0
 28 73  1  0
 28 74  1  0
 28 75  1  0
 29 76  1  0
 29 77  1  0
 30 78  1  0
 30 79  1  0
 32 80  1  0
 32 81  1  0
 32 82  1  0
M  END
>  <meeko>  (18) 
{"is_sidechain": [false], "intermolecular_energy": 2.731, "internal_energy": -0.839}

$$$$
