EPH_relaxed_0001_pdb2pqr_Repair_263_r2_0001_out
     RDKit          3D

 82 86  0  0  0  0  0  0  0  0999 V2000
    0.8030   18.3370    0.0940 C   0  0  0  0  0  0  0  0  0  0  0  0
    1.8680   17.2580   -0.1250 C   0  0  2  0  0  0  0  0  0  0  0  0
    3.1150   17.8110   -0.8440 C   0  0  0  0  0  0  0  0  0  0  0  0
    4.3050   18.0550    0.0880 C   0  0  0  0  0  0  0  0  0  0  0  0
    3.8640   18.5630    1.4280 C   0  0  2  0  0  0  0  0  0  0  0  0
    4.0730   19.9660    1.6340 O   0  0  0  0  0  0  0  0  0  0  0  0
    4.8240   19.0820    2.4820 C   0  0  0  0  0  0  0  0  0  0  0  0
    6.3010   19.1180    2.2430 C   0  0  0  0  0  0  0  0  0  0  0  0
    4.3780   19.0950    3.9110 C   0  0  0  0  0  0  0  0  0  0  0  0
    1.2780   16.1000   -0.9220 C   0  0  1  0  0  0  0  0  0  0  0  0
    1.2900   16.3600   -2.4520 C   0  0  0  0  0  0  0  0  0  0  0  0
    1.5450   14.9920   -3.1360 C   0  0  0  0  0  0  0  0  0  0  0  0
    1.3410   13.9500   -2.0110 C   0  0  1  0  0  0  0  0  0  0  0  0
   -0.2060   13.7570   -1.9190 C   0  0  0  0  0  0  0  0  0  0  0  0
    2.0820   12.5850   -2.1910 C   0  0  2  0  0  0  0  0  0  0  0  0
    1.6560   11.7670   -3.4230 C   0  0  0  0  0  0  0  0  0  0  0  0
    0.5350   10.8080   -3.1940 C   0  0  0  0  0  0  0  0  0  0  0  0
    0.0860   10.4020   -1.9920 C   0  0  0  0  0  0  0  0  0  0  0  0
    0.7850   10.8430   -0.7000 C   0  0  1  0  0  0  0  0  0  0  0  0
    0.9850    9.6150    0.2270 C   0  0  0  0  0  0  0  0  0  0  0  0
   -0.3170    8.8660    0.4940 C   0  0  0  0  0  0  0  0  0  0  0  0
   -0.9530    8.3930   -0.8110 C   0  0  2  0  0  0  0  0  0  0  0  0
   -0.1090    7.3990   -1.4000 O   0  0  0  0  0  0  0  0  0  0  0  0
   -1.1930    9.5440   -1.8280 C   0  0  0  0  0  0  0  0  0  0  0  0
   -2.3320   10.4610   -1.3160 C   0  0  0  0  0  0  0  0  0  0  0  0
   -1.7050    8.9130   -3.1510 C   0  0  0  0  0  0  0  0  0  0  0  0
    2.1170   11.6900   -0.8860 C   0  0  1  0  0  0  0  0  0  0  0  0
    3.3390   10.7330   -1.0360 C   0  0  0  0  0  0  0  0  0  0  0  0
    2.3740   12.5380    0.4150 C   0  0  0  0  0  0  0  0  0  0  0  0
    1.7110   13.9270    0.4810 C   0  0  0  0  0  0  0  0  0  0  0  0
    1.9780   14.7230   -0.8000 C   0  0  2  0  0  0  0  0  0  0  0  0
    3.5240   14.9520   -0.9080 C   0  0  0  0  0  0  0  0  0  0  0  0
    0.6522   18.4898    1.1729 H   0  0  0  0  0  0  0  0  0  0  0  0
    1.1352   19.2790   -0.3668 H   0  0  0  0  0  0  0  0  0  0  0  0
   -0.1432   18.0171   -0.3668 H   0  0  0  0  0  0  0  0  0  0  0  0
    2.1883   16.9027    0.8656 H   0  0  0  0  0  0  0  0  0  0  0  0
    3.4203   17.0884   -1.6152 H   0  0  0  0  0  0  0  0  0  0  0  0
    2.8348   18.7858   -1.2698 H   0  0  0  0  0  0  0  0  0  0  0  0
    4.8492   17.1091    0.2266 H   0  0  0  0  0  0  0  0  0  0  0  0
    4.9509   18.8171   -0.3724 H   0  0  0  0  0  0  0  0  0  0  0  0
    3.0533   17.8207    1.4698 H   0  0  0  0  0  0  0  0  0  0  0  0
    6.8284   19.1309    3.2082 H   0  0  0  0  0  0  0  0  0  0  0  0
    6.6020   18.2269    1.6726 H   0  0  0  0  0  0  0  0  0  0  0  0
    6.5582   20.0227    1.6726 H   0  0  0  0  0  0  0  0  0  0  0  0
    5.2583   19.0693    4.5701 H   0  0  0  0  0  0  0  0  0  0  0  0
    3.8002   20.0104    4.1065 H   0  0  0  0  0  0  0  0  0  0  0  0
    3.7478   18.2148    4.1065 H   0  0  0  0  0  0  0  0  0  0  0  0
    0.2773   16.0546   -0.4676 H   0  0  0  0  0  0  0  0  0  0  0  0
    0.3214   16.7700   -2.7742 H   0  0  0  0  0  0  0  0  0  0  0  0
    2.0686   17.0883   -2.7229 H   0  0  0  0  0  0  0  0  0  0  0  0
    0.8276   14.8267   -3.9534 H   0  0  0  0  0  0  0  0  0  0  0  0
    2.5471   14.9303   -3.5854 H   0  0  0  0  0  0  0  0  0  0  0  0
   -0.5086   13.7193   -0.8621 H   0  0  0  0  0  0  0  0  0  0  0  0
   -0.7107   14.5991   -2.4150 H   0  0  0  0  0  0  0  0  0  0  0  0
   -0.4883   12.8167   -2.4150 H   0  0  0  0  0  0  0  0  0  0  0  0
    3.1164   12.9030   -2.3884 H   0  0  0  0  0  0  0  0  0  0  0  0
    1.3455   12.4718   -4.2084 H   0  0  0  0  0  0  0  0  0  0  0  0
    2.5280   11.1561   -3.6996 H   0  0  0  0  0  0  0  0  0  0  0  0
    0.0334   10.3985   -4.0832 H   0  0  0  0  0  0  0  0  0  0  0  0
    0.1083   11.5659   -0.2209 H   0  0  0  0  0  0  0  0  0  0  0  0
    1.6972    8.9254   -0.2498 H   0  0  0  0  0  0  0  0  0  0  0  0
    1.3627    9.9831    1.1923 H   0  0  0  0  0  0  0  0  0  0  0  0
   -0.1061    7.9927    1.1287 H   0  0  0  0  0  0  0  0  0  0  0  0
   -1.0171    9.5484    0.9982 H   0  0  0  0  0  0  0  0  0  0  0  0
   -1.9426    7.9801   -0.5658 H   0  0  0  0  0  0  0  0  0  0  0  0
   -0.6340    6.9270   -2.0690 H   0  0  0  0  0  0  0  0  0  0  0  0
   -2.3346   10.4631   -0.2160 H   0  0  0  0  0  0  0  0  0  0  0  0
   -2.1718   11.4851   -1.6842 H   0  0  0  0  0  0  0  0  0  0  0  0
   -3.2983   10.0859   -1.6842 H   0  0  0  0  0  0  0  0  0  0  0  0
   -2.3827    8.0778   -2.9207 H   0  0  0  0  0  0  0  0  0  0  0  0
   -2.2449    9.6730   -3.7348 H   0  0  0  0  0  0  0  0  0  0  0  0
   -0.8501    8.5412   -3.7348 H   0  0  0  0  0  0  0  0  0  0  0  0
    3.7049   10.4465   -0.0390 H   0  0  0  0  0  0  0  0  0  0  0  0
    3.0333    9.8316   -1.5874 H   0  0  0  0  0  0  0  0  0  0  0  0
    4.1408   11.2458   -1.5874 H   0  0  0  0  0  0  0  0  0  0  0  0
    2.0071   11.9531    1.2713 H   0  0  0  0  0  0  0  0  0  0  0  0
    3.4562   12.7350    0.4210 H   0  0  0  0  0  0  0  0  0  0  0  0
    0.6255   13.8020    0.6074 H   0  0  0  0  0  0  0  0  0  0  0  0
    2.1366   14.4788    1.3321 H   0  0  0  0  0  0  0  0  0  0  0  0
    3.9566   15.0161    0.1013 H   0  0  0  0  0  0  0  0  0  0  0  0
    3.9821   14.1119   -1.4506 H   0  0  0  0  0  0  0  0  0  0  0  0
    3.7189   15.8888   -1.4506 H   0  0  0  0  0  0  0  0  0  0  0  0
  1  2  1  0
  2  3  1  0
  3  4  1  0
  4  5  1  0
  5  6  1  0
  6  7  1  0
  7  8  1  0
  7  9  1  0
  2 10  1  0
 10 11  1  0
 11 12  1  0
 12 13  1  0
 13 14  1  1
 13 15  1  0
 15 16  1  0
 16 17  1  0
 17 18  2  0
 18 19  1  0
 19 20  1  0
 20 21  1  0
 21 22  1  0
 22 23  1  0
 22 24  1  0
 24 25  1  0
 24 26  1  0
 19 27  1  0
 27 28  1  6
 27 29  1  0
 29 30  1  0
 30 31  1  0
 31 32  1  6
  7  5  1  0
 31 10  1  0
 31 13  1  0
 27 15  1  0
 24 18  1  0
  1 33  1  0
  1 34  1  0
  1 35  1  0
  2 36  1  1
  3 37  1  0
  3 38  1  0
  4 39  1  0
  4 40  1  0
  5 41  1  1
  8 42  1  0
  8 43  1  0
  8 44  1  0
  9 45  1  0
  9 46  1  0
  9 47  1  0
 10 48  1  1
 11 49  1  0
 11 50  1  0
 12 51  1  0
 12 52  1  0
 14 53  1  0
 14 54  1  0
 14 55  1  0
 15 56  1  6
 16 57  1  0
 16 58  1  0
 17 59  1  0
 19 60  1  1
 20 61  1  0
 20 62  1  0
 21 63  1  0
 21 64  1  0
 22 65  1  1
 23 66  1  0
 25 67  1  0
 25 68  1  0
 25 69  1  0
 26 70  1  0
 26 71  1  0
 26 72  1  0
 28 73  1  0
 28 74  1  0
 28 75  1  0
 29 76  1  0
 29 77  1  0
 30 78  1  0
 30 79  1  0
 32 80  1  0
 32 81  1  0
 32 82  1  0
M  END
>  <meeko>  (1) 
{"is_sidechain": [false], "intermolecular_energy": 2.731, "internal_energy": -0.839}

$$$$
EPH_relaxed_0001_pdb2pqr_Repair_263_r2_0001_out
     RDKit          3D

 82 86  0  0  0  0  0  0  0  0999 V2000
   -5.1570    5.8250   -1.7720 C   0  0  0  0  0  0  0  0  0  0  0  0
   -5.4570    7.3270   -1.7960 C   0  0  2  0  0  0  0  0  0  0  0  0
   -5.2400    7.9840   -0.4180 C   0  0  0  0  0  0  0  0  0  0  0  0
   -4.1650    9.0740   -0.4190 C   0  0  0  0  0  0  0  0  0  0  0  0
   -2.8490    8.5540   -0.9110 C   0  0  2  0  0  0  0  0  0  0  0  0
   -1.7520    8.7490   -0.0080 O   0  0  0  0  0  0  0  0  0  0  0  0
   -1.6740    9.4480   -1.2610 C   0  0  0  0  0  0  0  0  0  0  0  0
   -1.7610   10.9360   -1.1340 C   0  0  0  0  0  0  0  0  0  0  0  0
   -0.6200    8.9170   -2.1830 C   0  0  0  0  0  0  0  0  0  0  0  0
   -6.8870    7.5630   -2.2670 C   0  0  1  0  0  0  0  0  0  0  0  0
   -7.1910    6.8740   -3.6240 C   0  0  0  0  0  0  0  0  0  0  0  0
   -8.6690    6.4090   -3.5680 C   0  0  0  0  0  0  0  0  0  0  0  0
   -9.2590    7.1300   -2.3340 C   0  0  1  0  0  0  0  0  0  0  0  0
   -9.5980    8.5690   -2.8340 C   0  0  0  0  0  0  0  0  0  0  0  0
  -10.4930    6.4470   -1.6590 C   0  0  2  0  0  0  0  0  0  0  0  0
  -11.7420    6.3320   -2.5490 C   0  0  0  0  0  0  0  0  0  0  0  0
  -12.6900    7.4830   -2.4690 C   0  0  0  0  0  0  0  0  0  0  0  0
  -12.6930    8.4290   -1.5120 C   0  0  0  0  0  0  0  0  0  0  0  0
  -11.7360    8.3420   -0.3160 C   0  0  1  0  0  0  0  0  0  0  0  0
  -12.5180    8.6220    0.9950 C   0  0  0  0  0  0  0  0  0  0  0  0
  -13.2790    9.9430    0.9510 C   0  0  0  0  0  0  0  0  0  0  0  0
  -14.2620    9.9680   -0.2170 C   0  0  2  0  0  0  0  0  0  0  0  0
  -15.2870    8.9990    0.0230 O   0  0  0  0  0  0  0  0  0  0  0  0
  -13.5900    9.6890   -1.5900 C   0  0  0  0  0  0  0  0  0  0  0  0
  -12.7020   10.8930   -1.9890 C   0  0  0  0  0  0  0  0  0  0  0  0
  -14.7110    9.6020   -2.6610 C   0  0  0  0  0  0  0  0  0  0  0  0
  -10.8520    7.0250   -0.2300 C   0  0  1  0  0  0  0  0  0  0  0  0
  -11.6370    5.9050    0.5190 C   0  0  0  0  0  0  0  0  0  0  0  0
   -9.5700    7.3220    0.6350 C   0  0  0  0  0  0  0  0  0  0  0  0
   -8.3440    7.8830   -0.1100 C   0  0  0  0  0  0  0  0  0  0  0  0
   -8.0300    7.0490   -1.3560 C   0  0  2  0  0  0  0  0  0  0  0  0
   -7.6630    5.6010   -0.8830 C   0  0  0  0  0  0  0  0  0  0  0  0
   -5.0884    5.4814   -0.7293 H   0  0  0  0  0  0  0  0  0  0  0  0
   -5.9643    5.2816   -2.2847 H   0  0  0  0  0  0  0  0  0  0  0  0
   -4.2029    5.6334   -2.2847 H   0  0  0  0  0  0  0  0  0  0  0  0
   -4.7522    7.7950   -2.4990 H   0  0  0  0  0  0  0  0  0  0  0  0
   -6.1902    8.4335   -0.0940 H   0  0  0  0  0  0  0  0  0  0  0  0
   -4.8958    7.1933    0.2648 H   0  0  0  0  0  0  0  0  0  0  0  0
   -4.4910    9.8956   -1.0738 H   0  0  0  0  0  0  0  0  0  0  0  0
   -4.0305    9.4238    0.6152 H   0  0  0  0  0  0  0  0  0  0  0  0
   -3.3488    7.7431   -1.4611 H   0  0  0  0  0  0  0  0  0  0  0  0
   -1.7772   11.2128   -0.0695 H   0  0  0  0  0  0  0  0  0  0  0  0
   -0.8883   11.3971   -1.6195 H   0  0  0  0  0  0  0  0  0  0  0  0
   -2.6815   11.2922   -1.6195 H   0  0  0  0  0  0  0  0  0  0  0  0
    0.2082    8.4997   -1.5915 H   0  0  0  0  0  0  0  0  0  0  0  0
   -1.0511    8.1285   -2.8174 H   0  0  0  0  0  0  0  0  0  0  0  0
   -0.2430    9.7327   -2.8174 H   0  0  0  0  0  0  0  0  0  0  0  0
   -6.8926    8.6627   -2.2938 H   0  0  0  0  0  0  0  0  0  0  0  0
   -7.0488    7.5858   -4.4505 H   0  0  0  0  0  0  0  0  0  0  0  0
   -6.5153    6.0230   -3.7951 H   0  0  0  0  0  0  0  0  0  0  0  0
   -9.2038    6.7044   -4.4827 H   0  0  0  0  0  0  0  0  0  0  0  0
   -8.7594    5.3152   -3.4944 H   0  0  0  0  0  0  0  0  0  0  0  0
   -9.7538    9.2305   -1.9690 H   0  0  0  0  0  0  0  0  0  0  0  0
   -8.7653    8.9513   -3.4427 H   0  0  0  0  0  0  0  0  0  0  0  0
  -10.5138    8.5394   -3.4427 H   0  0  0  0  0  0  0  0  0  0  0  0
  -10.1392    5.4167   -1.5067 H   0  0  0  0  0  0  0  0  0  0  0  0
  -11.4081    6.2385   -3.5929 H   0  0  0  0  0  0  0  0  0  0  0  0
  -12.2964    5.4550   -2.1837 H   0  0  0  0  0  0  0  0  0  0  0  0
  -13.4505    7.5645   -3.2596 H   0  0  0  0  0  0  0  0  0  0  0  0
  -10.9801    9.1254   -0.4739 H   0  0  0  0  0  0  0  0  0  0  0  0
  -13.2373    7.8059    1.1577 H   0  0  0  0  0  0  0  0  0  0  0  0
  -11.7859    8.6854    1.8135 H   0  0  0  0  0  0  0  0  0  0  0  0
  -13.8346   10.0699    1.8919 H   0  0  0  0  0  0  0  0  0  0  0  0
  -12.5553   10.7607    0.8183 H   0  0  0  0  0  0  0  0  0  0  0  0
  -14.6806   10.9836   -0.2742 H   0  0  0  0  0  0  0  0  0  0  0  0
  -15.0480    8.1910   -0.4620 H   0  0  0  0  0  0  0  0  0  0  0  0
  -12.3331   11.3932   -1.0814 H   0  0  0  0  0  0  0  0  0  0  0  0
  -11.8482   10.5375   -2.5845 H   0  0  0  0  0  0  0  0  0  0  0  0
  -13.2938   11.6037   -2.5845 H   0  0  0  0  0  0  0  0  0  0  0  0
  -15.6888    9.5261   -2.1630 H   0  0  0  0  0  0  0  0  0  0  0  0
  -14.6886   10.5046   -3.2894 H   0  0  0  0  0  0  0  0  0  0  0  0
  -14.5496    8.7137   -3.2894 H   0  0  0  0  0  0  0  0  0  0  0  0
  -11.5357    6.0496    1.6047 H   0  0  0  0  0  0  0  0  0  0  0  0
  -12.7000    5.9532    0.2403 H   0  0  0  0  0  0  0  0  0  0  0  0
  -11.2291    4.9222    0.2403 H   0  0  0  0  0  0  0  0  0  0  0  0
   -9.8521    8.0517    1.4083 H   0  0  0  0  0  0  0  0  0  0  0  0
   -9.2495    6.3427    1.0201 H   0  0  0  0  0  0  0  0  0  0  0  0
   -8.5510    8.9197   -0.4138 H   0  0  0  0  0  0  0  0  0  0  0  0
   -7.4762    7.8453    0.5649 H   0  0  0  0  0  0  0  0  0  0  0  0
   -7.6540    5.5656    0.2164 H   0  0  0  0  0  0  0  0  0  0  0  0
   -8.4093    4.8898   -1.2667 H   0  0  0  0  0  0  0  0  0  0  0  0
   -6.6680    5.3311   -1.2667 H   0  0  0  0  0  0  0  0  0  0  0  0
  1  2  1  0
  2  3  1  0
  3  4  1  0
  4  5  1  0
  5  6  1  0
  6  7  1  0
  7  8  1  0
  7  9  1  0
  2 10  1  0
 10 11  1  0
 11 12  1  0
 12 13  1  0
 13 14  1  6
 13 15  1  0
 15 16  1  0
 16 17  1  0
 17 18  2  0
 18 19  1  0
 19 20  1  0
 20 21  1  0
 21 22  1  0
 22 23  1  0
 22 24  1  0
 24 25  1  0
 24 26  1  0
 19 27  1  0
 27 28  1  1
 27 29  1  0
 29 30  1  0
 30 31  1  0
 31 32  1  1
  7  5  1  0
 31 10  1  0
 31 13  1  0
 27 15  1  0
 24 18  1  0
  1 33  1  0
  1 34  1  0
  1 35  1  0
  2 36  1  6
  3 37  1  0
  3 38  1  0
  4 39  1  0
  4 40  1  0
  5 41  1  6
  8 42  1  0
  8 43  1  0
  8 44  1  0
  9 45  1  0
  9 46  1  0
  9 47  1  0
 10 48  1  6
 11 49  1  0
 11 50  1  0
 12 51  1  0
 12 52  1  0
 14 53  1  0
 14 54  1  0
 14 55  1  0
 15 56  1  1
 16 57  1  0
 16 58  1  0
 17 59  1  0
 19 60  1  6
 20 61  1  0
 20 62  1  0
 21 63  1  0
 21 64  1  0
 22 65  1  6
 23 66  1  0
 25 67  1  0
 25 68  1  0
 25 69  1  0
 26 70  1  0
 26 71  1  0
 26 72  1  0
 28 73  1  0
 28 74  1  0
 28 75  1  0
 29 76  1  0
 29 77  1  0
 30 78  1  0
 30 79  1  0
 32 80  1  0
 32 81  1  0
 32 82  1  0
M  END
>  <meeko>  (2) 
{"is_sidechain": [false], "intermolecular_energy": 2.731, "internal_energy": -0.839}

$$$$
EPH_relaxed_0001_pdb2pqr_Repair_263_r2_0001_out
     RDKit          3D

 82 86  0  0  0  0  0  0  0  0999 V2000
    3.3030   17.3290   -1.0590 C   0  0  0  0  0  0  0  0  0  0  0  0
    1.7770   17.4230   -1.1460 C   0  0  2  0  0  0  0  0  0  0  0  0
    1.1330   17.6920    0.2290 C   0  0  0  0  0  0  0  0  0  0  0  0
    0.6910   19.1450    0.4270 C   0  0  0  0  0  0  0  0  0  0  0  0
   -0.7920   19.2520    0.6200 C   0  0  2  0  0  0  0  0  0  0  0  0
   -1.5600   18.2690   -0.0870 O   0  0  0  0  0  0  0  0  0  0  0  0
   -1.7540   19.6340   -0.4890 C   0  0  0  0  0  0  0  0  0  0  0  0
   -1.2700   19.9360   -1.8730 C   0  0  0  0  0  0  0  0  0  0  0  0
   -3.0930   20.1880   -0.1150 C   0  0  0  0  0  0  0  0  0  0  0  0
    1.2110   16.1400   -1.7440 C   0  0  1  0  0  0  0  0  0  0  0  0
    1.3080   16.1100   -3.2930 C   0  0  0  0  0  0  0  0  0  0  0  0
    1.5760   14.6370   -3.6950 C   0  0  0  0  0  0  0  0  0  0  0  0
    1.2960   13.8240   -2.4100 C   0  0  1  0  0  0  0  0  0  0  0  0
   -0.2560   13.6620   -2.3680 C   0  0  0  0  0  0  0  0  0  0  0  0
    2.0230   12.4450   -2.2920 C   0  0  2  0  0  0  0  0  0  0  0  0
    1.6480   11.4150   -3.3710 C   0  0  0  0  0  0  0  0  0  0  0  0
    0.5020   10.5220   -3.0300 C   0  0  0  0  0  0  0  0  0  0  0  0
   -0.0170   10.3510   -1.8000 C   0  0  0  0  0  0  0  0  0  0  0  0
    0.6210   11.0210   -0.5760 C   0  0  1  0  0  0  0  0  0  0  0  0
    0.7520    9.9850    0.5720 C   0  0  0  0  0  0  0  0  0  0  0  0
   -0.5750    9.3080    0.9030 C   0  0  0  0  0  0  0  0  0  0  0  0
   -1.1480    8.6040   -0.3240 C   0  0  2  0  0  0  0  0  0  0  0  0
   -0.2920    7.5120   -0.6710 O   0  0  0  0  0  0  0  0  0  0  0  0
   -1.3160    9.5460   -1.5490 C   0  0  0  0  0  0  0  0  0  0  0  0
   -2.4650   10.5500   -1.2800 C   0  0  0  0  0  0  0  0  0  0  0  0
   -1.7680    8.6830   -2.7570 C   0  0  0  0  0  0  0  0  0  0  0  0
    1.9750   11.8090   -0.8440 C   0  0  1  0  0  0  0  0  0  0  0  0
    3.1870   10.8330   -0.7450 C   0  0  0  0  0  0  0  0  0  0  0  0
    2.1770   12.8830    0.2890 C   0  0  0  0  0  0  0  0  0  0  0  0
    1.5340   14.2650    0.0600 C   0  0  0  0  0  0  0  0  0  0  0  0
    1.8810   14.8060   -1.3310 C   0  0  2  0  0  0  0  0  0  0  0  0
    3.4350   15.0000   -1.3950 C   0  0  0  0  0  0  0  0  0  0  0  0
    3.6096   17.3101   -0.0028 H   0  0  0  0  0  0  0  0  0  0  0  0
    3.6426   16.4082   -1.5559 H   0  0  0  0  0  0  0  0  0  0  0  0
    3.7530   18.2011   -1.5559 H   0  0  0  0  0  0  0  0  0  0  0  0
    1.5340   18.2757   -1.7971 H   0  0  0  0  0  0  0  0  0  0  0  0
    0.2507   17.0433    0.3324 H   0  0  0  0  0  0  0  0  0  0  0  0
    1.8991   17.4820    0.9899 H   0  0  0  0  0  0  0  0  0  0  0  0
    1.1964   19.5536    1.3145 H   0  0  0  0  0  0  0  0  0  0  0  0
    0.9611   19.7117   -0.4763 H   0  0  0  0  0  0  0  0  0  0  0  0
   -0.6555   19.6338    1.6425 H   0  0  0  0  0  0  0  0  0  0  0  0
   -0.3380   20.5175   -1.8168 H   0  0  0  0  0  0  0  0  0  0  0  0
   -1.0827   18.9942   -2.4096 H   0  0  0  0  0  0  0  0  0  0  0  0
   -2.0336   20.5182   -2.4096 H   0  0  0  0  0  0  0  0  0  0  0  0
   -3.1816   20.2246    0.9808 H   0  0  0  0  0  0  0  0  0  0  0  0
   -3.1974   21.2032   -0.5255 H   0  0  0  0  0  0  0  0  0  0  0  0
   -3.8842   19.5434   -0.5255 H   0  0  0  0  0  0  0  0  0  0  0  0
    0.1875   16.1861   -1.3436 H   0  0  0  0  0  0  0  0  0  0  0  0
    0.3647   16.4588   -3.7386 H   0  0  0  0  0  0  0  0  0  0  0  0
    2.1115   16.7701   -3.6516 H   0  0  0  0  0  0  0  0  0  0  0  0
    0.9002   14.3267   -4.5056 H   0  0  0  0  0  0  0  0  0  0  0  0
    2.5996   14.4865   -4.0687 H   0  0  0  0  0  0  0  0  0  0  0  0
   -0.5928   13.6268   -1.3214 H   0  0  0  0  0  0  0  0  0  0  0  0
   -0.7277   14.5158   -2.8765 H   0  0  0  0  0  0  0  0  0  0  0  0
   -0.5412   12.7292   -2.8765 H   0  0  0  0  0  0  0  0  0  0  0  0
    3.0715   12.7139   -2.4880 H   0  0  0  0  0  0  0  0  0  0  0  0
    1.3900   11.9633   -4.2890 H   0  0  0  0  0  0  0  0  0  0  0  0
    2.5232   10.7578   -3.4811 H   0  0  0  0  0  0  0  0  0  0  0  0
    0.0426    9.9556   -3.8535 H   0  0  0  0  0  0  0  0  0  0  0  0
   -0.0670   11.8253   -0.2764 H   0  0  0  0  0  0  0  0  0  0  0  0
    1.4758    9.2137    0.2701 H   0  0  0  0  0  0  0  0  0  0  0  0
    1.0858   10.5233    1.4713 H   0  0  0  0  0  0  0  0  0  0  0  0
   -0.4126    8.5675    1.7001 H   0  0  0  0  0  0  0  0  0  0  0  0
   -1.2893   10.0768    1.2327 H   0  0  0  0  0  0  0  0  0  0  0  0
   -2.1557    8.2505   -0.0601 H   0  0  0  0  0  0  0  0  0  0  0  0
    0.4370    7.4940   -0.0280 H   0  0  0  0  0  0  0  0  0  0  0  0
   -2.6013   10.6691   -0.1950 H   0  0  0  0  0  0  0  0  0  0  0  0
   -2.2137   11.5232   -1.7270 H   0  0  0  0  0  0  0  0  0  0  0  0
   -3.3957   10.1705   -1.7270 H   0  0  0  0  0  0  0  0  0  0  0  0
   -2.2493    7.7640   -2.3914 H   0  0  0  0  0  0  0  0  0  0  0  0
   -2.4831    9.2534   -3.3679 H   0  0  0  0  0  0  0  0  0  0  0  0
   -0.8919    8.4200   -3.3679 H   0  0  0  0  0  0  0  0  0  0  0  0
    3.4207   10.6448    0.3133 H   0  0  0  0  0  0  0  0  0  0  0  0
    2.9343    9.8833   -1.2392 H   0  0  0  0  0  0  0  0  0  0  0  0
    4.0610   11.2824   -1.2392 H   0  0  0  0  0  0  0  0  0  0  0  0
    1.7562   12.4701    1.2176 H   0  0  0  0  0  0  0  0  0  0  0  0
    3.2604   13.0710    0.3171 H   0  0  0  0  0  0  0  0  0  0  0  0
    0.4414   14.1729    0.1483 H   0  0  0  0  0  0  0  0  0  0  0  0
    1.9232   14.9632    0.8157 H   0  0  0  0  0  0  0  0  0  0  0  0
    3.8406   15.0506   -0.3737 H   0  0  0  0  0  0  0  0  0  0  0  0
    3.8888   14.1515   -1.9281 H   0  0  0  0  0  0  0  0  0  0  0  0
    3.6663   15.9340   -1.9281 H   0  0  0  0  0  0  0  0  0  0  0  0
  1  2  1  0
  2  3  1  0
  3  4  1  0
  4  5  1  0
  5  6  1  0
  6  7  1  0
  7  8  1  0
  7  9  1  0
  2 10  1  0
 10 11  1  0
 11 12  1  0
 12 13  1  0
 13 14  1  1
 13 15  1  0
 15 16  1  0
 16 17  1  0
 17 18  2  0
 18 19  1  0
 19 20  1  0
 20 21  1  0
 21 22  1  0
 22 23  1  0
 22 24  1  0
 24 25  1  0
 24 26  1  0
 19 27  1  0
 27 28  1  6
 27 29  1  0
 29 30  1  0
 30 31  1  0
 31 32  1  1
  7  5  1  0
 31 10  1  0
 31 13  1  0
 27 15  1  0
 24 18  1  0
  1 33  1  0
  1 34  1  0
  1 35  1  0
  2 36  1  6
  3 37  1  0
  3 38  1  0
  4 39  1  0
  4 40  1  0
  5 41  1  1
  8 42  1  0
  8 43  1  0
  8 44  1  0
  9 45  1  0
  9 46  1  0
  9 47  1  0
 10 48  1  6
 11 49  1  0
 11 50  1  0
 12 51  1  0
 12 52  1  0
 14 53  1  0
 14 54  1  0
 14 55  1  0
 15 56  1  6
 16 57  1  0
 16 58  1  0
 17 59  1  0
 19 60  1  1
 20 61  1  0
 20 62  1  0
 21 63  1  0
 21 64  1  0
 22 65  1  1
 23 66  1  0
 25 67  1  0
 25 68  1  0
 25 69  1  0
 26 70  1  0
 26 71  1  0
 26 72  1  0
 28 73  1  0
 28 74  1  0
 28 75  1  0
 29 76  1  0
 29 77  1  0
 30 78  1  0
 30 79  1  0
 32 80  1  0
 32 81  1  0
 32 82  1  0
M  END
>  <meeko>  (3) 
{"is_sidechain": [false], "intermolecular_energy": 2.731, "internal_energy": -0.839}

$$$$
EPH_relaxed_0001_pdb2pqr_Repair_263_r2_0001_out
     RDKit          3D

 82 86  0  0  0  0  0  0  0  0999 V2000
    4.5820   16.6800   -0.3970 C   0  0  0  0  0  0  0  0  0  0  0  0
    3.2240   17.3880   -0.3910 C   0  0  2  0  0  0  0  0  0  0  0  0
    3.1230   18.4430    0.7290 C   0  0  0  0  0  0  0  0  0  0  0  0
    4.4640   18.7590    1.3980 C   0  0  0  0  0  0  0  0  0  0  0  0
    4.2770   19.3080    2.7800 C   0  0  2  0  0  0  0  0  0  0  0  0
    5.3260   20.1790    3.2250 O   0  0  0  0  0  0  0  0  0  0  0  0
    5.1730   18.9490    3.9510 C   0  0  0  0  0  0  0  0  0  0  0  0
    6.3210   18.0020    3.7930 C   0  0  0  0  0  0  0  0  0  0  0  0
    4.6430   19.1300    5.3390 C   0  0  0  0  0  0  0  0  0  0  0  0
    2.1050   16.3630   -0.2430 C   0  0  1  0  0  0  0  0  0  0  0  0
    0.7040   17.0210   -0.1290 C   0  0  0  0  0  0  0  0  0  0  0  0
   -0.2940   16.0760   -0.8470 C   0  0  0  0  0  0  0  0  0  0  0  0
    0.4950   14.7620   -1.0560 C   0  0  1  0  0  0  0  0  0  0  0  0
    0.4080   14.0190    0.3140 C   0  0  0  0  0  0  0  0  0  0  0  0
    0.0220   13.8530   -2.2370 C   0  0  2  0  0  0  0  0  0  0  0  0
   -1.4120   13.3100   -2.1090 C   0  0  0  0  0  0  0  0  0  0  0  0
   -1.5360   11.9940   -1.4160 C   0  0  0  0  0  0  0  0  0  0  0  0
   -0.5230   11.1410   -1.1690 C   0  0  0  0  0  0  0  0  0  0  0  0
    0.8920   11.4270   -1.6890 C   0  0  1  0  0  0  0  0  0  0  0  0
    1.4740   10.1440   -2.3380 C   0  0  0  0  0  0  0  0  0  0  0  0
    1.4280    8.9420   -1.4010 C   0  0  0  0  0  0  0  0  0  0  0  0
   -0.0020    8.6540   -0.9520 C   0  0  2  0  0  0  0  0  0  0  0  0
   -0.7630    8.2240   -2.0860 O   0  0  0  0  0  0  0  0  0  0  0  0
   -0.6950    9.8780   -0.2910 C   0  0  0  0  0  0  0  0  0  0  0  0
   -0.0540   10.1550    1.0910 C   0  0  0  0  0  0  0  0  0  0  0  0
   -2.1750    9.4970   -0.0140 C   0  0  0  0  0  0  0  0  0  0  0  0
    1.0430   12.7060   -2.6210 C   0  0  1  0  0  0  0  0  0  0  0  0
    0.7450   12.3220   -4.1020 C   0  0  0  0  0  0  0  0  0  0  0  0
    2.5380   13.1970   -2.5810 C   0  0  0  0  0  0  0  0  0  0  0  0
    2.9150   14.1870   -1.4620 C   0  0  0  0  0  0  0  0  0  0  0  0
    1.9150   15.3460   -1.3960 C   0  0  2  0  0  0  0  0  0  0  0  0
    1.9960   16.1250   -2.7520 C   0  0  0  0  0  0  0  0  0  0  0  0
    4.9107   16.5086    0.6386 H   0  0  0  0  0  0  0  0  0  0  0  0
    4.4901   15.7150   -0.9170 H   0  0  0  0  0  0  0  0  0  0  0  0
    5.3205   17.3078   -0.9170 H   0  0  0  0  0  0  0  0  0  0  0  0
    3.1218   17.9155   -1.3508 H   0  0  0  0  0  0  0  0  0  0  0  0
    2.7230   19.3719    0.2964 H   0  0  0  0  0  0  0  0  0  0  0  0
    2.4658   18.0258    1.5062 H   0  0  0  0  0  0  0  0  0  0  0  0
    5.0588   17.8357    1.4584 H   0  0  0  0  0  0  0  0  0  0  0  0
    4.9787   19.5199    0.7930 H   0  0  0  0  0  0  0  0  0  0  0  0
    3.1837   19.3047    2.6592 H   0  0  0  0  0  0  0  0  0  0  0  0
    6.6867   17.7003    4.7856 H   0  0  0  0  0  0  0  0  0  0  0  0
    5.9885   17.1120    3.2386 H   0  0  0  0  0  0  0  0  0  0  0  0
    7.1316   18.4977    3.2386 H   0  0  0  0  0  0  0  0  0  0  0  0
    5.4233   18.8635    6.0671 H   0  0  0  0  0  0  0  0  0  0  0  0
    4.3484   20.1797    5.4850 H   0  0  0  0  0  0  0  0  0  0  0  0
    3.7678   18.4798    5.4850 H   0  0  0  0  0  0  0  0  0  0  0  0
    2.4491   15.8438    0.6637 H   0  0  0  0  0  0  0  0  0  0  0  0
    0.4239   17.1348    0.9286 H   0  0  0  0  0  0  0  0  0  0  0  0
    0.6992   18.0215   -0.5862 H   0  0  0  0  0  0  0  0  0  0  0  0
   -1.1816   15.9007   -0.2214 H   0  0  0  0  0  0  0  0  0  0  0  0
   -0.6604   16.4980   -1.7945 H   0  0  0  0  0  0  0  0  0  0  0  0
    0.4934   14.7485    1.1328 H   0  0  0  0  0  0  0  0  0  0  0  0
   -0.5574   13.4969    0.3873 H   0  0  0  0  0  0  0  0  0  0  0  0
    1.2267   13.2880    0.3873 H   0  0  0  0  0  0  0  0  0  0  0  0
   -0.0001   14.5567   -3.0822 H   0  0  0  0  0  0  0  0  0  0  0  0
   -2.0056   14.0468   -1.5480 H   0  0  0  0  0  0  0  0  0  0  0  0
   -1.7686   13.1474   -3.1368 H   0  0  0  0  0  0  0  0  0  0  0  0
   -2.5394   11.6953   -1.0784 H   0  0  0  0  0  0  0  0  0  0  0  0
    1.4900   11.7035   -0.8081 H   0  0  0  0  0  0  0  0  0  0  0  0
    0.8907    9.9098   -3.2408 H   0  0  0  0  0  0  0  0  0  0  0  0
    2.5295   10.3404   -2.5774 H   0  0  0  0  0  0  0  0  0  0  0  0
    1.8246    8.0607   -1.9264 H   0  0  0  0  0  0  0  0  0  0  0  0
    2.0363    9.1664   -0.5124 H   0  0  0  0  0  0  0  0  0  0  0  0
    0.0451    7.8682   -0.1837 H   0  0  0  0  0  0  0  0  0  0  0  0
   -0.2150    7.5960   -2.5870 H   0  0  0  0  0  0  0  0  0  0  0  0
   -0.7519    9.8534    1.8860 H   0  0  0  0  0  0  0  0  0  0  0  0
    0.8789    9.5797    1.1844 H   0  0  0  0  0  0  0  0  0  0  0  0
    0.1664   11.2286    1.1844 H   0  0  0  0  0  0  0  0  0  0  0  0
   -2.3453    9.4532    1.0719 H   0  0  0  0  0  0  0  0  0  0  0  0
   -2.8379   10.2538   -0.4588 H   0  0  0  0  0  0  0  0  0  0  0  0
   -2.3900    8.5142   -0.4588 H   0  0  0  0  0  0  0  0  0  0  0  0
    0.0708   11.4532   -4.1270 H   0  0  0  0  0  0  0  0  0  0  0  0
    0.2674   13.1715   -4.6121 H   0  0  0  0  0  0  0  0  0  0  0  0
    1.6865   12.0703   -4.6121 H   0  0  0  0  0  0  0  0  0  0  0  0
    3.1770   12.3087   -2.4685 H   0  0  0  0  0  0  0  0  0  0  0  0
    2.6830   13.7538   -3.5185 H   0  0  0  0  0  0  0  0  0  0  0  0
    2.9161   13.6572   -0.4980 H   0  0  0  0  0  0  0  0  0  0  0  0
    3.9130   14.5964   -1.6772 H   0  0  0  0  0  0  0  0  0  0  0  0
    2.1078   17.2006   -2.5508 H   0  0  0  0  0  0  0  0  0  0  0  0
    2.8619   15.7679   -3.3289 H   0  0  0  0  0  0  0  0  0  0  0  0
    1.0752   15.9537   -3.3289 H   0  0  0  0  0  0  0  0  0  0  0  0
  1  2  1  0
  2  3  1  0
  3  4  1  0
  4  5  1  0
  5  6  1  0
  6  7  1  0
  7  8  1  0
  7  9  1  0
  2 10  1  0
 10 11  1  0
 11 12  1  0
 12 13  1  0
 13 14  1  1
 13 15  1  0
 15 16  1  0
 16 17  1  0
 17 18  2  0
 18 19  1  0
 19 20  1  0
 20 21  1  0
 21 22  1  0
 22 23  1  0
 22 24  1  0
 24 25  1  0
 24 26  1  0
 19 27  1  0
 27 28  1  6
 27 29  1  0
 29 30  1  0
 30 31  1  0
 31 32  1  6
  7  5  1  0
 31 10  1  0
 31 13  1  0
 27 15  1  0
 24 18  1  0
  1 33  1  0
  1 34  1  0
  1 35  1  0
  2 36  1  6
  3 37  1  0
  3 38  1  0
  4 39  1  0
  4 40  1  0
  5 41  1  1
  8 42  1  0
  8 43  1  0
  8 44  1  0
  9 45  1  0
  9 46  1  0
  9 47  1  0
 10 48  1  1
 11 49  1  0
 11 50  1  0
 12 51  1  0
 12 52  1  0
 14 53  1  0
 14 54  1  0
 14 55  1  0
 15 56  1  6
 16 57  1  0
 16 58  1  0
 17 59  1  0
 19 60  1  1
 20 61  1  0
 20 62  1  0
 21 63  1  0
 21 64  1  0
 22 65  1  1
 23 66  1  0
 25 67  1  0
 25 68  1  0
 25 69  1  0
 26 70  1  0
 26 71  1  0
 26 72  1  0
 28 73  1  0
 28 74  1  0
 28 75  1  0
 29 76  1  0
 29 77  1  0
 30 78  1  0
 30 79  1  0
 32 80  1  0
 32 81  1  0
 32 82  1  0
M  END
>  <meeko>  (4) 
{"is_sidechain": [false], "intermolecular_energy": 2.731, "internal_energy": -0.839}

$$$$
EPH_relaxed_0001_pdb2pqr_Repair_263_r2_0001_out
     RDKit          3D

 82 86  0  0  0  0  0  0  0  0999 V2000
   -5.0620    8.4470   -0.4500 C   0  0  0  0  0  0  0  0  0  0  0  0
   -5.3600    7.4320   -1.5570 C   0  0  2  0  0  0  0  0  0  0  0  0
   -4.3490    7.5250   -2.7180 C   0  0  0  0  0  0  0  0  0  0  0  0
   -2.8920    7.3460   -2.2820 C   0  0  0  0  0  0  0  0  0  0  0  0
   -2.0580    8.5410   -2.6300 C   0  0  2  0  0  0  0  0  0  0  0  0
   -0.6660    8.4130   -2.3120 O   0  0  0  0  0  0  0  0  0  0  0  0
   -1.3900    9.4260   -1.5930 C   0  0  0  0  0  0  0  0  0  0  0  0
   -1.5280    9.1520   -0.1290 C   0  0  0  0  0  0  0  0  0  0  0  0
   -1.0160   10.8230   -1.9790 C   0  0  0  0  0  0  0  0  0  0  0  0
   -6.7760    7.6360   -2.0820 C   0  0  1  0  0  0  0  0  0  0  0  0
   -7.0120    6.9410   -3.4490 C   0  0  0  0  0  0  0  0  0  0  0  0
   -8.4800    6.4430   -3.4500 C   0  0  0  0  0  0  0  0  0  0  0  0
   -9.1330    7.1490   -2.2380 C   0  0  1  0  0  0  0  0  0  0  0  0
   -9.4860    8.5800   -2.7500 C   0  0  0  0  0  0  0  0  0  0  0  0
  -10.3750    6.4370   -1.6100 C   0  0  2  0  0  0  0  0  0  0  0  0
  -11.5870    6.2940   -2.5470 C   0  0  0  0  0  0  0  0  0  0  0  0
  -12.5640    7.4230   -2.5030 C   0  0  0  0  0  0  0  0  0  0  0  0
  -12.6250    8.3670   -1.5460 C   0  0  0  0  0  0  0  0  0  0  0  0
  -11.7120    8.3020   -0.3150 C   0  0  1  0  0  0  0  0  0  0  0  0
  -12.5490    8.5620    0.9650 C   0  0  0  0  0  0  0  0  0  0  0  0
  -13.3380    9.8660    0.8930 C   0  0  0  0  0  0  0  0  0  0  0  0
  -14.2770    9.8690   -0.3110 C   0  0  2  0  0  0  0  0  0  0  0  0
  -15.2870    8.8760   -0.1100 O   0  0  0  0  0  0  0  0  0  0  0  0
  -13.5470    9.6070   -1.6580 C   0  0  0  0  0  0  0  0  0  0  0  0
  -12.6720   10.8320   -2.0230 C   0  0  0  0  0  0  0  0  0  0  0  0
  -14.6240    9.4950   -2.7710 C   0  0  0  0  0  0  0  0  0  0  0  0
  -10.8010    7.0050   -0.1960 C   0  0  1  0  0  0  0  0  0  0  0  0
  -11.5880    5.8660    0.5220 C   0  0  0  0  0  0  0  0  0  0  0  0
   -9.5600    7.3300    0.7170 C   0  0  0  0  0  0  0  0  0  0  0  0
   -8.3200    7.9200    0.0190 C   0  0  0  0  0  0  0  0  0  0  0  0
   -7.9400    7.0950   -1.2150 C   0  0  2  0  0  0  0  0  0  0  0  0
   -7.5580    5.6560   -0.7280 C   0  0  0  0  0  0  0  0  0  0  0  0
   -5.2019    7.9706    0.5316 H   0  0  0  0  0  0  0  0  0  0  0  0
   -4.0233    8.7968   -0.5432 H   0  0  0  0  0  0  0  0  0  0  0  0
   -5.7468    9.3028   -0.5432 H   0  0  0  0  0  0  0  0  0  0  0  0
   -5.2674    6.4275   -1.1183 H   0  0  0  0  0  0  0  0  0  0  0  0
   -4.5904    6.7422   -3.4521 H   0  0  0  0  0  0  0  0  0  0  0  0
   -4.4361    8.5373   -3.1395 H   0  0  0  0  0  0  0  0  0  0  0  0
   -2.8619    7.1954   -1.1928 H   0  0  0  0  0  0  0  0  0  0  0  0
   -2.4803    6.4746   -2.8123 H   0  0  0  0  0  0  0  0  0  0  0  0
   -2.7041    8.7709   -3.4900 H   0  0  0  0  0  0  0  0  0  0  0  0
   -1.1052    9.9914    0.4426 H   0  0  0  0  0  0  0  0  0  0  0  0
   -2.5923    9.0356    0.1235 H   0  0  0  0  0  0  0  0  0  0  0  0
   -0.9880    8.2276    0.1235 H   0  0  0  0  0  0  0  0  0  0  0  0
   -0.8552   11.4236   -1.0715 H   0  0  0  0  0  0  0  0  0  0  0  0
   -0.0914   10.8038   -2.5746 H   0  0  0  0  0  0  0  0  0  0  0  0
   -1.8266   11.2683   -2.5746 H   0  0  0  0  0  0  0  0  0  0  0  0
   -6.8062    8.7352   -2.1094 H   0  0  0  0  0  0  0  0  0  0  0  0
   -6.8540    7.6561   -4.2698 H   0  0  0  0  0  0  0  0  0  0  0  0
   -6.3114    6.1054   -3.5934 H   0  0  0  0  0  0  0  0  0  0  0  0
   -8.9860    6.7280   -4.3842 H   0  0  0  0  0  0  0  0  0  0  0  0
   -8.5486    5.3473   -3.3810 H   0  0  0  0  0  0  0  0  0  0  0  0
   -9.6505    9.2467   -1.8907 H   0  0  0  0  0  0  0  0  0  0  0  0
   -8.6562    8.9662   -3.3602 H   0  0  0  0  0  0  0  0  0  0  0  0
  -10.4002    8.5360   -3.3602 H   0  0  0  0  0  0  0  0  0  0  0  0
  -10.0032    5.4151   -1.4442 H   0  0  0  0  0  0  0  0  0  0  0  0
  -11.2118    6.2091   -3.5775 H   0  0  0  0  0  0  0  0  0  0  0  0
  -12.1345    5.4041   -2.2029 H   0  0  0  0  0  0  0  0  0  0  0  0
  -13.2954    7.4883   -3.3221 H   0  0  0  0  0  0  0  0  0  0  0  0
  -10.9695    9.1033   -0.4439 H   0  0  0  0  0  0  0  0  0  0  0  0
  -13.2552    7.7295    1.0997 H   0  0  0  0  0  0  0  0  0  0  0  0
  -11.8501    8.6408    1.8108 H   0  0  0  0  0  0  0  0  0  0  0  0
  -13.9310    9.9793    1.8125 H   0  0  0  0  0  0  0  0  0  0  0  0
  -12.6290   10.7004    0.7878 H   0  0  0  0  0  0  0  0  0  0  0  0
  -14.7173   10.8744   -0.3836 H   0  0  0  0  0  0  0  0  0  0  0  0
  -15.8790    9.1960    0.5910 H   0  0  0  0  0  0  0  0  0  0  0  0
  -12.3228   11.3208   -1.1015 H   0  0  0  0  0  0  0  0  0  0  0  0
  -11.8050   10.5005   -2.6133 H   0  0  0  0  0  0  0  0  0  0  0  0
  -13.2667   11.5446   -2.6133 H   0  0  0  0  0  0  0  0  0  0  0  0
  -15.6177    9.3917   -2.3106 H   0  0  0  0  0  0  0  0  0  0  0  0
  -14.6015   10.4003   -3.3954 H   0  0  0  0  0  0  0  0  0  0  0  0
  -14.4157    8.6137   -3.3954 H   0  0  0  0  0  0  0  0  0  0  0  0
  -11.5016    5.9910    1.6115 H   0  0  0  0  0  0  0  0  0  0  0  0
  -12.6477    5.9124    0.2305 H   0  0  0  0  0  0  0  0  0  0  0  0
  -11.1698    4.8912    0.2305 H   0  0  0  0  0  0  0  0  0  0  0  0
   -9.8878    8.0519    1.4795 H   0  0  0  0  0  0  0  0  0  0  0  0
   -9.2319    6.3579    1.1136 H   0  0  0  0  0  0  0  0  0  0  0  0
   -8.5392    8.9521   -0.2919 H   0  0  0  0  0  0  0  0  0  0  0  0
   -7.4776    7.9012    0.7261 H   0  0  0  0  0  0  0  0  0  0  0  0
   -7.5513    5.6308    0.3717 H   0  0  0  0  0  0  0  0  0  0  0  0
   -8.2953    4.9329   -1.1069 H   0  0  0  0  0  0  0  0  0  0  0  0
   -6.5591    5.3938   -1.1069 H   0  0  0  0  0  0  0  0  0  0  0  0
  1  2  1  0
  2  3  1  0
  3  4  1  0
  4  5  1  0
  5  6  1  0
  6  7  1  0
  7  8  1  0
  7  9  1  0
  2 10  1  0
 10 11  1  0
 11 12  1  0
 12 13  1  0
 13 14  1  6
 13 15  1  0
 15 16  1  0
 16 17  1  0
 17 18  2  0
 18 19  1  0
 19 20  1  0
 20 21  1  0
 21 22  1  0
 22 23  1  0
 22 24  1  0
 24 25  1  0
 24 26  1  0
 19 27  1  0
 27 28  1  1
 27 29  1  0
 29 30  1  0
 30 31  1  0
 31 32  1  1
  7  5  1  0
 31 10  1  0
 31 13  1  0
 27 15  1  0
 24 18  1  0
  1 33  1  0
  1 34  1  0
  1 35  1  0
  2 36  1  1
  3 37  1  0
  3 38  1  0
  4 39  1  0
  4 40  1  0
  5 41  1  6
  8 42  1  0
  8 43  1  0
  8 44  1  0
  9 45  1  0
  9 46  1  0
  9 47  1  0
 10 48  1  6
 11 49  1  0
 11 50  1  0
 12 51  1  0
 12 52  1  0
 14 53  1  0
 14 54  1  0
 14 55  1  0
 15 56  1  1
 16 57  1  0
 16 58  1  0
 17 59  1  0
 19 60  1  6
 20 61  1  0
 20 62  1  0
 21 63  1  0
 21 64  1  0
 22 65  1  6
 23 66  1  0
 25 67  1  0
 25 68  1  0
 25 69  1  0
 26 70  1  0
 26 71  1  0
 26 72  1  0
 28 73  1  0
 28 74  1  0
 28 75  1  0
 29 76  1  0
 29 77  1  0
 30 78  1  0
 30 79  1  0
 32 80  1  0
 32 81  1  0
 32 82  1  0
M  END
>  <meeko>  (5) 
{"is_sidechain": [false], "intermolecular_energy": 2.731, "internal_energy": -0.839}

$$$$
EPH_relaxed_0001_pdb2pqr_Repair_263_r2_0001_out
     RDKit          3D

 82 86  0  0  0  0  0  0  0  0999 V2000
   -1.8800    8.6550   -2.1040 C   0  0  0  0  0  0  0  0  0  0  0  0
   -2.1810    9.0320   -0.6510 C   0  0  2  0  0  0  0  0  0  0  0  0
   -3.6670    9.3820   -0.4380 C   0  0  0  0  0  0  0  0  0  0  0  0
   -4.5770    8.1570   -0.3170 C   0  0  0  0  0  0  0  0  0  0  0  0
   -5.2870    7.8640   -1.6040 C   0  0  2  0  0  0  0  0  0  0  0  0
   -6.4810    8.6270   -1.8160 O   0  0  0  0  0  0  0  0  0  0  0  0
   -6.6530    7.2070   -1.6750 C   0  0  0  0  0  0  0  0  0  0  0  0
   -7.3900    6.8030   -0.4370 C   0  0  0  0  0  0  0  0  0  0  0  0
   -7.0500    6.5200   -2.9440 C   0  0  0  0  0  0  0  0  0  0  0  0
   -1.3030   10.2040   -0.2260 C   0  0  1  0  0  0  0  0  0  0  0  0
   -0.4070    9.8660    0.9950 C   0  0  0  0  0  0  0  0  0  0  0  0
    0.9290   10.6280    0.7940 C   0  0  0  0  0  0  0  0  0  0  0  0
    0.6380   11.6290   -0.3490 C   0  0  1  0  0  0  0  0  0  0  0  0
   -0.0870   12.8270    0.3410 C   0  0  0  0  0  0  0  0  0  0  0  0
    1.8730   12.1040   -1.1820 C   0  0  2  0  0  0  0  0  0  0  0  0
    2.9390   12.8770   -0.3860 C   0  0  0  0  0  0  0  0  0  0  0  0
    2.7520   14.3580   -0.3430 C   0  0  0  0  0  0  0  0  0  0  0  0
    1.9400   15.0680   -1.1470 C   0  0  0  0  0  0  0  0  0  0  0  0
    1.1750   14.3900   -2.2910 C   0  0  1  0  0  0  0  0  0  0  0  0
    1.3200   15.2340   -3.5840 C   0  0  0  0  0  0  0  0  0  0  0  0
    0.9020   16.6880   -3.3840 C   0  0  0  0  0  0  0  0  0  0  0  0
    1.7260   17.3440   -2.2790 C   0  0  2  0  0  0  0  0  0  0  0  0
    3.0850   17.4430   -2.7140 O   0  0  0  0  0  0  0  0  0  0  0  0
    1.6640   16.5760   -0.9290 C   0  0  0  0  0  0  0  0  0  0  0  0
    0.2530   16.7270   -0.3090 C   0  0  0  0  0  0  0  0  0  0  0  0
    2.6470   17.2630    0.0570 C   0  0  0  0  0  0  0  0  0  0  0  0
    1.4990   12.8520   -2.5260 C   0  0  1  0  0  0  0  0  0  0  0  0
    2.7290   12.7070   -3.4730 C   0  0  0  0  0  0  0  0  0  0  0  0
    0.2850   12.1780   -3.2680 C   0  0  0  0  0  0  0  0  0  0  0  0
   -0.8470   11.6210   -2.3850 C   0  0  0  0  0  0  0  0  0  0  0  0
   -0.2860   10.7430   -1.2620 C   0  0  2  0  0  0  0  0  0  0  0  0
    0.4300    9.5180   -1.9260 C   0  0  0  0  0  0  0  0  0  0  0  0
   -1.1938    7.7955   -2.1252 H   0  0  0  0  0  0  0  0  0  0  0  0
   -2.8168    8.3889   -2.6154 H   0  0  0  0  0  0  0  0  0  0  0  0
   -1.4131    9.5097   -2.6154 H   0  0  0  0  0  0  0  0  0  0  0  0
   -1.9565    8.1540   -0.0275 H   0  0  0  0  0  0  0  0  0  0  0  0
   -3.7556    9.9729    0.4856 H   0  0  0  0  0  0  0  0  0  0  0  0
   -3.9962    9.9402   -1.3269 H   0  0  0  0  0  0  0  0  0  0  0  0
   -3.9660    7.2851   -0.0405 H   0  0  0  0  0  0  0  0  0  0  0  0
   -5.3347    8.3676    0.4521 H   0  0  0  0  0  0  0  0  0  0  0  0
   -4.3341    7.6408   -2.1062 H   0  0  0  0  0  0  0  0  0  0  0  0
   -6.8182    7.1165    0.4489 H   0  0  0  0  0  0  0  0  0  0  0  0
   -8.3785    7.2854   -0.4249 H   0  0  0  0  0  0  0  0  0  0  0  0
   -7.5151    5.7102   -0.4249 H   0  0  0  0  0  0  0  0  0  0  0  0
   -7.5872    5.5903   -2.7051 H   0  0  0  0  0  0  0  0  0  0  0  0
   -7.7049    7.1817   -3.5298 H   0  0  0  0  0  0  0  0  0  0  0  0
   -6.1496    6.2830   -3.5298 H   0  0  0  0  0  0  0  0  0  0  0  0
   -2.0808   10.9582   -0.0359 H   0  0  0  0  0  0  0  0  0  0  0  0
   -0.8942   10.1944    1.9249 H   0  0  0  0  0  0  0  0  0  0  0  0
   -0.2359    8.7821    1.0714 H   0  0  0  0  0  0  0  0  0  0  0  0
    1.2147   11.1603    1.7132 H   0  0  0  0  0  0  0  0  0  0  0  0
    1.7633    9.9521    0.5548 H   0  0  0  0  0  0  0  0  0  0  0  0
   -0.0200   12.7162    1.4334 H   0  0  0  0  0  0  0  0  0  0  0  0
    0.3924   13.7695    0.0379 H   0  0  0  0  0  0  0  0  0  0  0  0
   -1.1444   12.8395    0.0379 H   0  0  0  0  0  0  0  0  0  0  0  0
    2.3456   11.1525   -1.4670 H   0  0  0  0  0  0  0  0  0  0  0  0
    2.9290   12.5027    0.6483 H   0  0  0  0  0  0  0  0  0  0  0  0
    3.8925   12.7051   -0.9068 H   0  0  0  0  0  0  0  0  0  0  0  0
    3.3273   14.9160    0.4104 H   0  0  0  0  0  0  0  0  0  0  0  0
    0.1206   14.3657   -1.9785 H   0  0  0  0  0  0  0  0  0  0  0  0
    2.3721   15.2105   -3.9042 H   0  0  0  0  0  0  0  0  0  0  0  0
    0.6555   14.7972   -4.3440 H   0  0  0  0  0  0  0  0  0  0  0  0
    1.0553   17.2394   -4.3234 H   0  0  0  0  0  0  0  0  0  0  0  0
   -0.1586   16.7122   -3.0933 H   0  0  0  0  0  0  0  0  0  0  0  0
    1.2948   18.3388   -2.0934 H   0  0  0  0  0  0  0  0  0  0  0  0
    3.6170   16.8480   -2.1580 H   0  0  0  0  0  0  0  0  0  0  0  0
    0.3318   16.7186    0.7881 H   0  0  0  0  0  0  0  0  0  0  0  0
   -0.1920   17.6779   -0.6374 H   0  0  0  0  0  0  0  0  0  0  0  0
   -0.3831   15.8918   -0.6374 H   0  0  0  0  0  0  0  0  0  0  0  0
    2.3393   17.0479    1.0910 H   0  0  0  0  0  0  0  0  0  0  0  0
    3.6636   16.8777   -0.1107 H   0  0  0  0  0  0  0  0  0  0  0  0
    2.6346   18.3501   -0.1107 H   0  0  0  0  0  0  0  0  0  0  0  0
    3.6439   12.5991   -2.8719 H   0  0  0  0  0  0  0  0  0  0  0  0
    2.6003   11.8178   -4.1076 H   0  0  0  0  0  0  0  0  0  0  0  0
    2.8106   13.6017   -4.1076 H   0  0  0  0  0  0  0  0  0  0  0  0
   -0.1555   12.9315   -3.9375 H   0  0  0  0  0  0  0  0  0  0  0  0
    0.7105   11.3007   -3.7772 H   0  0  0  0  0  0  0  0  0  0  0  0
   -1.4034   12.4600   -1.9417 H   0  0  0  0  0  0  0  0  0  0  0  0
   -1.5104   11.0069   -3.0117 H   0  0  0  0  0  0  0  0  0  0  0  0
    0.8194    8.8518   -1.1421 H   0  0  0  0  0  0  0  0  0  0  0  0
   -0.2887    8.9678   -2.5511 H   0  0  0  0  0  0  0  0  0  0  0  0
    1.2621    9.8743   -2.5511 H   0  0  0  0  0  0  0  0  0  0  0  0
  1  2  1  0
  2  3  1  0
  3  4  1  0
  4  5  1  0
  5  6  1  0
  6  7  1  0
  7  8  1  0
  7  9  1  0
  2 10  1  0
 10 11  1  0
 11 12  1  0
 12 13  1  0
 13 14  1  1
 13 15  1  0
 15 16  1  0
 16 17  1  0
 17 18  2  0
 18 19  1  0
 19 20  1  0
 20 21  1  0
 21 22  1  0
 22 23  1  0
 22 24  1  0
 24 25  1  0
 24 26  1  0
 19 27  1  0
 27 28  1  6
 27 29  1  0
 29 30  1  0
 30 31  1  0
 31 32  1  6
  7  5  1  0
 31 10  1  0
 31 13  1  0
 27 15  1  0
 24 18  1  0
  1 33  1  0
  1 34  1  0
  1 35  1  0
  2 36  1  1
  3 37  1  0
  3 38  1  0
  4 39  1  0
  4 40  1  0
  5 41  1  6
  8 42  1  0
  8 43  1  0
  8 44  1  0
  9 45  1  0
  9 46  1  0
  9 47  1  0
 10 48  1  1
 11 49  1  0
 11 50  1  0
 12 51  1  0
 12 52  1  0
 14 53  1  0
 14 54  1  0
 14 55  1  0
 15 56  1  6
 16 57  1  0
 16 58  1  0
 17 59  1  0
 19 60  1  1
 20 61  1  0
 20 62  1  0
 21 63  1  0
 21 64  1  0
 22 65  1  1
 23 66  1  0
 25 67  1  0
 25 68  1  0
 25 69  1  0
 26 70  1  0
 26 71  1  0
 26 72  1  0
 28 73  1  0
 28 74  1  0
 28 75  1  0
 29 76  1  0
 29 77  1  0
 30 78  1  0
 30 79  1  0
 32 80  1  0
 32 81  1  0
 32 82  1  0
M  END
>  <meeko>  (6) 
{"is_sidechain": [false], "intermolecular_energy": 2.731, "internal_energy": -0.839}

$$$$
EPH_relaxed_0001_pdb2pqr_Repair_263_r2_0001_out
     RDKit          3D

 82 86  0  0  0  0  0  0  0  0999 V2000
   -3.9090    7.4590   -3.4330 C   0  0  0  0  0  0  0  0  0  0  0  0
   -3.7230    7.4380   -1.9130 C   0  0  2  0  0  0  0  0  0  0  0  0
   -5.0480    7.1760   -1.1700 C   0  0  0  0  0  0  0  0  0  0  0  0
   -6.1800    6.6920   -2.0810 C   0  0  0  0  0  0  0  0  0  0  0  0
   -7.5260    7.0830   -1.5480 C   0  0  2  0  0  0  0  0  0  0  0  0
   -8.3570    5.9820   -1.1570 O   0  0  0  0  0  0  0  0  0  0  0  0
   -8.8290    6.7730   -2.2600 C   0  0  0  0  0  0  0  0  0  0  0  0
   -8.8500    6.0430   -3.5660 C   0  0  0  0  0  0  0  0  0  0  0  0
  -10.0350    7.5990   -1.9370 C   0  0  0  0  0  0  0  0  0  0  0  0
   -3.1150    8.7550   -1.4460 C   0  0  1  0  0  0  0  0  0  0  0  0
   -3.7320    9.2590   -0.1140 C   0  0  0  0  0  0  0  0  0  0  0  0
   -2.5910    9.9550    0.6720 C   0  0  0  0  0  0  0  0  0  0  0  0
   -1.4530   10.1240   -0.3610 C   0  0  1  0  0  0  0  0  0  0  0  0
   -1.8380   11.3970   -1.1780 C   0  0  0  0  0  0  0  0  0  0  0  0
   -0.0040   10.2260    0.2180 C   0  0  2  0  0  0  0  0  0  0  0  0
    0.2510   11.4400    1.1290 C   0  0  0  0  0  0  0  0  0  0  0  0
    0.7440   12.6650    0.4340 C   0  0  0  0  0  0  0  0  0  0  0  0
    1.2440   12.7090   -0.8150 C   0  0  0  0  0  0  0  0  0  0  0  0
    1.4420   11.4240   -1.6290 C   0  0  1  0  0  0  0  0  0  0  0  0
    2.8480   11.4380   -2.2850 C   0  0  0  0  0  0  0  0  0  0  0  0
    3.0950   12.6960   -3.1120 C   0  0  0  0  0  0  0  0  0  0  0  0
    2.9460   13.9500   -2.2540 C   0  0  2  0  0  0  0  0  0  0  0  0
    3.9990   13.9740   -1.2850 O   0  0  0  0  0  0  0  0  0  0  0  0
    1.5710   14.0410   -1.5350 C   0  0  0  0  0  0  0  0  0  0  0  0
    0.4570   14.3180   -2.5740 C   0  0  0  0  0  0  0  0  0  0  0  0
    1.6050   15.2750   -0.5940 C   0  0  0  0  0  0  0  0  0  0  0  0
    1.1390   10.0640   -0.8640 C   0  0  1  0  0  0  0  0  0  0  0  0
    2.4130    9.5900   -0.0990 C   0  0  0  0  0  0  0  0  0  0  0  0
    0.8110    8.9420   -1.9180 C   0  0  0  0  0  0  0  0  0  0  0  0
   -0.6590    8.8140   -2.3610 C   0  0  0  0  0  0  0  0  0  0  0  0
   -1.5950    8.7710   -1.1500 C   0  0  2  0  0  0  0  0  0  0  0  0
   -1.2460    7.4890   -0.3200 C   0  0  0  0  0  0  0  0  0  0  0  0
   -4.9763    7.5795   -3.6702 H   0  0  0  0  0  0  0  0  0  0  0  0
   -3.3414    8.2988   -3.8603 H   0  0  0  0  0  0  0  0  0  0  0  0
   -3.5429    6.5138   -3.8603 H   0  0  0  0  0  0  0  0  0  0  0  0
   -3.0412    6.6086   -1.6739 H   0  0  0  0  0  0  0  0  0  0  0  0
   -4.8693    6.4098   -0.4013 H   0  0  0  0  0  0  0  0  0  0  0  0
   -5.3701    8.1357   -0.7395 H   0  0  0  0  0  0  0  0  0  0  0  0
   -6.0490    7.1358   -3.0789 H   0  0  0  0  0  0  0  0  0  0  0  0
   -6.1359    5.5939   -2.1292 H   0  0  0  0  0  0  0  0  0  0  0  0
   -7.1171    8.0150   -1.1307 H   0  0  0  0  0  0  0  0  0  0  0  0
   -8.8812    4.9593   -3.3799 H   0  0  0  0  0  0  0  0  0  0  0  0
   -9.7399    6.3423   -4.1391 H   0  0  0  0  0  0  0  0  0  0  0  0
   -7.9444    6.2907   -4.1391 H   0  0  0  0  0  0  0  0  0  0  0  0
  -10.1458    7.6749   -0.8452 H   0  0  0  0  0  0  0  0  0  0  0  0
   -9.9152    8.6055   -2.3642 H   0  0  0  0  0  0  0  0  0  0  0  0
  -10.9302    7.1235   -2.3642 H   0  0  0  0  0  0  0  0  0  0  0  0
   -3.3337    9.3805   -2.3241 H   0  0  0  0  0  0  0  0  0  0  0  0
   -4.5423    9.9743   -0.3185 H   0  0  0  0  0  0  0  0  0  0  0  0
   -4.1588    8.4260    0.4638 H   0  0  0  0  0  0  0  0  0  0  0  0
   -2.9208   10.9339    1.0501 H   0  0  0  0  0  0  0  0  0  0  0  0
   -2.2743    9.3735    1.5504 H   0  0  0  0  0  0  0  0  0  0  0  0
   -2.0856   12.2156   -0.4863 H   0  0  0  0  0  0  0  0  0  0  0  0
   -0.9902   11.6962   -1.8118 H   0  0  0  0  0  0  0  0  0  0  0  0
   -2.7096   11.1762   -1.8118 H   0  0  0  0  0  0  0  0  0  0  0  0
    0.0507    9.3446    0.8738 H   0  0  0  0  0  0  0  0  0  0  0  0
   -0.6940   11.6918    1.6325 H   0  0  0  0  0  0  0  0  0  0  0  0
    1.0516   11.1391    1.8207 H   0  0  0  0  0  0  0  0  0  0  0  0
    0.6946   13.6130    0.9898 H   0  0  0  0  0  0  0  0  0  0  0  0
    0.6660   11.4357   -2.4085 H   0  0  0  0  0  0  0  0  0  0  0  0
    3.6079   11.3827   -1.4916 H   0  0  0  0  0  0  0  0  0  0  0  0
    2.9083   10.5747   -2.9641 H   0  0  0  0  0  0  0  0  0  0  0  0
    4.1139   12.6612   -3.5250 H   0  0  0  0  0  0  0  0  0  0  0  0
    2.3528   12.7348   -3.9230 H   0  0  0  0  0  0  0  0  0  0  0  0
    3.0057   14.8185   -2.9264 H   0  0  0  0  0  0  0  0  0  0  0  0
    3.6800   13.5070   -0.4930 H   0  0  0  0  0  0  0  0  0  0  0  0
   -0.4822   14.5515   -2.0511 H   0  0  0  0  0  0  0  0  0  0  0  0
    0.7476   15.1712   -3.2045 H   0  0  0  0  0  0  0  0  0  0  0  0
    0.3141   13.4280   -3.2045 H   0  0  0  0  0  0  0  0  0  0  0  0
    1.5957   14.9380    0.4531 H   0  0  0  0  0  0  0  0  0  0  0  0
    2.5195   15.8560   -0.7841 H   0  0  0  0  0  0  0  0  0  0  0  0
    0.7239   15.9055   -0.7841 H   0  0  0  0  0  0  0  0  0  0  0  0
    2.2358    9.6559    0.9846 H   0  0  0  0  0  0  0  0  0  0  0  0
    2.6377    8.5481   -0.3711 H   0  0  0  0  0  0  0  0  0  0  0  0
    3.2640   10.2317   -0.3711 H   0  0  0  0  0  0  0  0  0  0  0  0
    1.4131    9.1430   -2.8164 H   0  0  0  0  0  0  0  0  0  0  0  0
    1.0426    7.9938   -1.4108 H   0  0  0  0  0  0  0  0  0  0  0  0
   -0.9222    9.6782   -2.9886 H   0  0  0  0  0  0  0  0  0  0  0  0
   -0.7744    7.8777   -2.9267 H   0  0  0  0  0  0  0  0  0  0  0  0
   -1.3086    7.7191    0.7538 H   0  0  0  0  0  0  0  0  0  0  0  0
   -1.9588    6.6879   -0.5655 H   0  0  0  0  0  0  0  0  0  0  0  0
   -0.2255    7.1598   -0.5655 H   0  0  0  0  0  0  0  0  0  0  0  0
  1  2  1  0
  2  3  1  0
  3  4  1  0
  4  5  1  0
  5  6  1  0
  6  7  1  0
  7  8  1  0
  7  9  1  0
  2 10  1  0
 10 11  1  0
 11 12  1  0
 12 13  1  0
 13 14  1  6
 13 15  1  0
 15 16  1  0
 16 17  1  0
 17 18  2  0
 18 19  1  0
 19 20  1  0
 20 21  1  0
 21 22  1  0
 22 23  1  0
 22 24  1  0
 24 25  1  0
 24 26  1  0
 19 27  1  0
 27 28  1  1
 27 29  1  0
 29 30  1  0
 30 31  1  0
 31 32  1  1
  7  5  1  0
 31 10  1  0
 31 13  1  0
 27 15  1  0
 24 18  1  0
  1 33  1  0
  1 34  1  0
  1 35  1  0
  2 36  1  6
  3 37  1  0
  3 38  1  0
  4 39  1  0
  4 40  1  0
  5 41  1  1
  8 42  1  0
  8 43  1  0
  8 44  1  0
  9 45  1  0
  9 46  1  0
  9 47  1  0
 10 48  1  6
 11 49  1  0
 11 50  1  0
 12 51  1  0
 12 52  1  0
 14 53  1  0
 14 54  1  0
 14 55  1  0
 15 56  1  1
 16 57  1  0
 16 58  1  0
 17 59  1  0
 19 60  1  6
 20 61  1  0
 20 62  1  0
 21 63  1  0
 21 64  1  0
 22 65  1  6
 23 66  1  0
 25 67  1  0
 25 68  1  0
 25 69  1  0
 26 70  1  0
 26 71  1  0
 26 72  1  0
 28 73  1  0
 28 74  1  0
 28 75  1  0
 29 76  1  0
 29 77  1  0
 30 78  1  0
 30 79  1  0
 32 80  1  0
 32 81  1  0
 32 82  1  0
M  END
>  <meeko>  (7) 
{"is_sidechain": [false], "intermolecular_energy": 2.731, "internal_energy": -0.839}

$$$$
EPH_relaxed_0001_pdb2pqr_Repair_263_r2_0001_out
     RDKit          3D

 82 86  0  0  0  0  0  0  0  0999 V2000
    2.5460   19.8890   -0.1290 C   0  0  0  0  0  0  0  0  0  0  0  0
    2.5870   18.6940    0.8280 C   0  0  2  0  0  0  0  0  0  0  0  0
    4.0180   18.1530    1.0210 C   0  0  0  0  0  0  0  0  0  0  0  0
    5.0210   19.2160    1.4810 C   0  0  0  0  0  0  0  0  0  0  0  0
    5.8630   18.7270    2.6200 C   0  0  2  0  0  0  0  0  0  0  0  0
    5.1600   17.9390    3.5900 O   0  0  0  0  0  0  0  0  0  0  0  0
    5.6860   19.1940    4.0520 C   0  0  0  0  0  0  0  0  0  0  0  0
    4.6360   20.1940    4.4230 C   0  0  0  0  0  0  0  0  0  0  0  0
    6.8370   19.0530    4.9990 C   0  0  0  0  0  0  0  0  0  0  0  0
    1.6760   17.5850    0.3140 C   0  0  1  0  0  0  0  0  0  0  0  0
    0.6020   18.1060   -0.6780 C   0  0  0  0  0  0  0  0  0  0  0  0
    0.3850   16.9870   -1.7300 C   0  0  0  0  0  0  0  0  0  0  0  0
    1.0840   15.7450   -1.1280 C   0  0  1  0  0  0  0  0  0  0  0  0
    0.0560   15.1610   -0.1100 C   0  0  0  0  0  0  0  0  0  0  0  0
    1.5660   14.6630   -2.1480 C   0  0  2  0  0  0  0  0  0  0  0  0
    0.4490   13.9950   -2.9680 C   0  0  0  0  0  0  0  0  0  0  0  0
   -0.1360   12.7620   -2.3640 C   0  0  0  0  0  0  0  0  0  0  0  0
    0.4060   12.0510   -1.3580 C   0  0  0  0  0  0  0  0  0  0  0  0
    1.7820   12.4170   -0.7870 C   0  0  1  0  0  0  0  0  0  0  0  0
    2.6410   11.1340   -0.6440 C   0  0  0  0  0  0  0  0  0  0  0  0
    1.9420   10.0490    0.1700 C   0  0  0  0  0  0  0  0  0  0  0  0
    0.6040    9.6710   -0.4620 C   0  0  2  0  0  0  0  0  0  0  0  0
    0.8520    9.0380   -1.7210 O   0  0  0  0  0  0  0  0  0  0  0  0
   -0.3430   10.8860   -0.6650 C   0  0  0  0  0  0  0  0  0  0  0  0
   -0.8510   11.3850    0.7110 C   0  0  0  0  0  0  0  0  0  0  0  0
   -1.5960   10.3920   -1.4370 C   0  0  0  0  0  0  0  0  0  0  0  0
    2.5530   13.5880   -1.5340 C   0  0  1  0  0  0  0  0  0  0  0  0
    3.3760   13.0080   -2.7250 C   0  0  0  0  0  0  0  0  0  0  0  0
    3.5960   14.2300   -0.5450 C   0  0  0  0  0  0  0  0  0  0  0  0
    3.0900   15.3760    0.3520 C   0  0  0  0  0  0  0  0  0  0  0  0
    2.3400   16.4270   -0.4730 C   0  0  2  0  0  0  0  0  0  0  0  0
    3.3550   17.0490   -1.4920 C   0  0  0  0  0  0  0  0  0  0  0  0
    2.5140   20.8228    0.4516 H   0  0  0  0  0  0  0  0  0  0  0  0
    3.4449   19.8821   -0.7630 H   0  0  0  0  0  0  0  0  0  0  0  0
    1.6497   19.8205   -0.7630 H   0  0  0  0  0  0  0  0  0  0  0  0
    2.2312   19.0432    1.8085 H   0  0  0  0  0  0  0  0  0  0  0  0
    3.9883   17.3536    1.7761 H   0  0  0  0  0  0  0  0  0  0  0  0
    4.3601   17.7910    0.0402 H   0  0  0  0  0  0  0  0  0  0  0  0
    5.6779   19.4751    0.6376 H   0  0  0  0  0  0  0  0  0  0  0  0
    4.4559   20.0949    1.8248 H   0  0  0  0  0  0  0  0  0  0  0  0
    6.7473   18.6629    1.9689 H   0  0  0  0  0  0  0  0  0  0  0  0
    4.5649   20.2617    5.5186 H   0  0  0  0  0  0  0  0  0  0  0  0
    4.9051   21.1780    4.0115 H   0  0  0  0  0  0  0  0  0  0  0  0
    3.6663   19.8772    4.0115 H   0  0  0  0  0  0  0  0  0  0  0  0
    6.4678   19.0982    6.0342 H   0  0  0  0  0  0  0  0  0  0  0  0
    7.3352   18.0871    4.8293 H   0  0  0  0  0  0  0  0  0  0  0  0
    7.5537   19.8701    4.8293 H   0  0  0  0  0  0  0  0  0  0  0  0
    1.2813   17.2119    1.2706 H   0  0  0  0  0  0  0  0  0  0  0  0
   -0.3378   18.3123   -0.1449 H   0  0  0  0  0  0  0  0  0  0  0  0
    0.9272   19.0412   -1.1572 H   0  0  0  0  0  0  0  0  0  0  0  0
   -0.6881   16.7954   -1.8775 H   0  0  0  0  0  0  0  0  0  0  0  0
    0.7906   17.2571   -2.7162 H   0  0  0  0  0  0  0  0  0  0  0  0
    0.4028   15.3580    0.9151 H   0  0  0  0  0  0  0  0  0  0  0  0
   -0.9234   15.6376   -0.2637 H   0  0  0  0  0  0  0  0  0  0  0  0
   -0.0361   14.0757   -0.2637 H   0  0  0  0  0  0  0  0  0  0  0  0
    2.1481   15.2591   -2.8662 H   0  0  0  0  0  0  0  0  0  0  0  0
   -0.3616   14.7272   -3.0977 H   0  0  0  0  0  0  0  0  0  0  0  0
    0.9136   13.6792   -3.9138 H   0  0  0  0  0  0  0  0  0  0  0  0
   -1.0911   12.4040   -2.7759 H   0  0  0  0  0  0  0  0  0  0  0  0
    1.5937   12.8521    0.2056 H   0  0  0  0  0  0  0  0  0  0  0  0
    2.8544   10.7389   -1.6482 H   0  0  0  0  0  0  0  0  0  0  0  0
    3.5639   11.4079   -0.1119 H   0  0  0  0  0  0  0  0  0  0  0  0
    2.5858    9.1580    0.2105 H   0  0  0  0  0  0  0  0  0  0  0  0
    1.7558   10.4346    1.1833 H   0  0  0  0  0  0  0  0  0  0  0  0
    0.0923    8.9881    0.2321 H   0  0  0  0  0  0  0  0  0  0  0  0
    1.3020    8.1950   -1.5430 H   0  0  0  0  0  0  0  0  0  0  0  0
   -0.3141   10.8576    1.5133 H   0  0  0  0  0  0  0  0  0  0  0  0
   -0.6704   12.4666    0.7983 H   0  0  0  0  0  0  0  0  0  0  0  0
   -1.9292   11.1851    0.7983 H   0  0  0  0  0  0  0  0  0  0  0  0
   -2.3717   10.0862   -0.7196 H   0  0  0  0  0  0  0  0  0  0  0  0
   -1.9815   11.2055   -2.0692 H   0  0  0  0  0  0  0  0  0  0  0  0
   -1.3226    9.5343   -2.0692 H   0  0  0  0  0  0  0  0  0  0  0  0
    4.2169   12.4154   -2.3355 H   0  0  0  0  0  0  0  0  0  0  0  0
    2.7284   12.3656   -3.3398 H   0  0  0  0  0  0  0  0  0  0  0  0
    3.7632   13.8339   -3.3398 H   0  0  0  0  0  0  0  0  0  0  0  0
    3.9655   13.4303    0.1138 H   0  0  0  0  0  0  0  0  0  0  0  0
    4.3608   14.6865   -1.1905 H   0  0  0  0  0  0  0  0  0  0  0  0
    2.4111   14.9643    1.1133 H   0  0  0  0  0  0  0  0  0  0  0  0
    3.9565   15.8571    0.8291 H   0  0  0  0  0  0  0  0  0  0  0  0
    4.1675   17.5469   -0.9426 H   0  0  0  0  0  0  0  0  0  0  0  0
    3.7743   16.2526   -2.1244 H   0  0  0  0  0  0  0  0  0  0  0  0
    2.8357   17.7841   -2.1244 H   0  0  0  0  0  0  0  0  0  0  0  0
  1  2  1  0
  2  3  1  0
  3  4  1  0
  4  5  1  0
  5  6  1  0
  6  7  1  0
  7  8  1  0
  7  9  1  0
  2 10  1  0
 10 11  1  0
 11 12  1  0
 12 13  1  0
 13 14  1  1
 13 15  1  0
 15 16  1  0
 16 17  1  0
 17 18  2  0
 18 19  1  0
 19 20  1  0
 20 21  1  0
 21 22  1  0
 22 23  1  0
 22 24  1  0
 24 25  1  0
 24 26  1  0
 19 27  1  0
 27 28  1  6
 27 29  1  0
 29 30  1  0
 30 31  1  0
 31 32  1  6
  7  5  1  0
 31 10  1  0
 31 13  1  0
 27 15  1  0
 24 18  1  0
  1 33  1  0
  1 34  1  0
  1 35  1  0
  2 36  1  1
  3 37  1  0
  3 38  1  0
  4 39  1  0
  4 40  1  0
  5 41  1  6
  8 42  1  0
  8 43  1  0
  8 44  1  0
  9 45  1  0
  9 46  1  0
  9 47  1  0
 10 48  1  1
 11 49  1  0
 11 50  1  0
 12 51  1  0
 12 52  1  0
 14 53  1  0
 14 54  1  0
 14 55  1  0
 15 56  1  6
 16 57  1  0
 16 58  1  0
 17 59  1  0
 19 60  1  1
 20 61  1  0
 20 62  1  0
 21 63  1  0
 21 64  1  0
 22 65  1  1
 23 66  1  0
 25 67  1  0
 25 68  1  0
 25 69  1  0
 26 70  1  0
 26 71  1  0
 26 72  1  0
 28 73  1  0
 28 74  1  0
 28 75  1  0
 29 76  1  0
 29 77  1  0
 30 78  1  0
 30 79  1  0
 32 80  1  0
 32 81  1  0
 32 82  1  0
M  END
>  <meeko>  (8) 
{"is_sidechain": [false], "intermolecular_energy": 2.731, "internal_energy": -0.839}

$$$$
EPH_relaxed_0001_pdb2pqr_Repair_263_r2_0001_out
     RDKit          3D

 82 86  0  0  0  0  0  0  0  0999 V2000
   -0.2910   15.4610   -7.0230 C   0  0  0  0  0  0  0  0  0  0  0  0
    1.1440   15.1790   -6.5680 C   0  0  2  0  0  0  0  0  0  0  0  0
    2.1480   15.2490   -7.7360 C   0  0  0  0  0  0  0  0  0  0  0  0
    2.0150   16.5150   -8.5870 C   0  0  0  0  0  0  0  0  0  0  0  0
    1.5460   16.2030   -9.9760 C   0  0  2  0  0  0  0  0  0  0  0  0
    1.0360   14.8750  -10.1510 O   0  0  0  0  0  0  0  0  0  0  0  0
    2.2300   15.1980  -10.8830 C   0  0  0  0  0  0  0  0  0  0  0  0
    3.4410   14.4410  -10.4370 C   0  0  0  0  0  0  0  0  0  0  0  0
    2.0180   15.3080  -12.3610 C   0  0  0  0  0  0  0  0  0  0  0  0
    1.2180   13.8120   -5.8990 C   0  0  1  0  0  0  0  0  0  0  0  0
    2.5990   13.1290   -6.0860 C   0  0  0  0  0  0  0  0  0  0  0  0
    2.8850   12.3340   -4.7870 C   0  0  0  0  0  0  0  0  0  0  0  0
    1.5320   12.3110   -4.0370 C   0  0  1  0  0  0  0  0  0  0  0  0
    0.7190   11.1610   -4.7110 C   0  0  0  0  0  0  0  0  0  0  0  0
    1.6040   12.1340   -2.4860 C   0  0  2  0  0  0  0  0  0  0  0  0
    2.2200   10.8070   -2.0080 C   0  0  0  0  0  0  0  0  0  0  0  0
    1.2500    9.6900   -1.8090 C   0  0  0  0  0  0  0  0  0  0  0  0
   -0.0870    9.8190   -1.7280 C   0  0  0  0  0  0  0  0  0  0  0  0
   -0.7460   11.2050   -1.7430 C   0  0  1  0  0  0  0  0  0  0  0  0
   -1.8090   11.2840   -0.6160 C   0  0  0  0  0  0  0  0  0  0  0  0
   -2.8290   10.1520   -0.6920 C   0  0  0  0  0  0  0  0  0  0  0  0
   -2.1400    8.7910   -0.6160 C   0  0  2  0  0  0  0  0  0  0  0  0
   -1.5660    8.6380    0.6850 O   0  0  0  0  0  0  0  0  0  0  0  0
   -1.0410    8.6000   -1.6980 C   0  0  0  0  0  0  0  0  0  0  0  0
   -1.7010    8.4650   -3.0930 C   0  0  0  0  0  0  0  0  0  0  0  0
   -0.3300    7.2480   -1.4220 C   0  0  0  0  0  0  0  0  0  0  0  0
    0.2470   12.4450   -1.7340 C   0  0  1  0  0  0  0  0  0  0  0  0
    0.6250   12.8130   -0.2660 C   0  0  0  0  0  0  0  0  0  0  0  0
   -0.4930   13.7010   -2.3300 C   0  0  0  0  0  0  0  0  0  0  0  0
   -0.4270   13.8850   -3.8580 C   0  0  0  0  0  0  0  0  0  0  0  0
    1.0130   13.7590   -4.3640 C   0  0  2  0  0  0  0  0  0  0  0  0
    1.8500   14.9160   -3.7200 C   0  0  0  0  0  0  0  0  0  0  0  0
   -0.9369   15.5879   -6.1417 H   0  0  0  0  0  0  0  0  0  0  0  0
   -0.3102   16.3801   -7.6271 H   0  0  0  0  0  0  0  0  0  0  0  0
   -0.6566   14.6175   -7.6271 H   0  0  0  0  0  0  0  0  0  0  0  0
    1.4220   15.9615   -5.8465 H   0  0  0  0  0  0  0  0  0  0  0  0
    3.1662   15.2148   -7.3212 H   0  0  0  0  0  0  0  0  0  0  0  0
    1.9344   14.3947   -8.3952 H   0  0  0  0  0  0  0  0  0  0  0  0
    1.2903   17.1909   -8.1095 H   0  0  0  0  0  0  0  0  0  0  0  0
    3.0065   16.9862   -8.6577 H   0  0  0  0  0  0  0  0  0  0  0  0
    1.2375   17.2472  -10.1322 H   0  0  0  0  0  0  0  0  0  0  0  0
    3.4756   14.4194   -9.3378 H   0  0  0  0  0  0  0  0  0  0  0  0
    3.3928   13.4120  -10.8227 H   0  0  0  0  0  0  0  0  0  0  0  0
    4.3449   14.9351  -10.8227 H   0  0  0  0  0  0  0  0  0  0  0  0
    1.0573   15.8065  -12.5575 H   0  0  0  0  0  0  0  0  0  0  0  0
    2.8341   15.8964  -12.8057 H   0  0  0  0  0  0  0  0  0  0  0  0
    2.0068   14.3020  -12.8057 H   0  0  0  0  0  0  0  0  0  0  0  0
    0.3806   13.3125   -6.4082 H   0  0  0  0  0  0  0  0  0  0  0  0
    2.5705   12.4472   -6.9487 H   0  0  0  0  0  0  0  0  0  0  0  0
    3.3858   13.8745   -6.2738 H   0  0  0  0  0  0  0  0  0  0  0  0
    3.2158   11.3117   -5.0224 H   0  0  0  0  0  0  0  0  0  0  0  0
    3.6865   12.7898   -4.1872 H   0  0  0  0  0  0  0  0  0  0  0  0
    0.2696   10.5254   -3.9338 H   0  0  0  0  0  0  0  0  0  0  0  0
   -0.0761   11.5922   -5.3370 H   0  0  0  0  0  0  0  0  0  0  0  0
    1.3907   10.5552   -5.3370 H   0  0  0  0  0  0  0  0  0  0  0  0
    2.3182   12.9176   -2.1928 H   0  0  0  0  0  0  0  0  0  0  0  0
    2.9593   10.4861   -2.7566 H   0  0  0  0  0  0  0  0  0  0  0  0
    2.6557   11.0121   -1.0190 H   0  0  0  0  0  0  0  0  0  0  0  0
    1.6635    8.6745   -1.7210 H   0  0  0  0  0  0  0  0  0  0  0  0
   -1.2342   11.2997   -2.7242 H   0  0  0  0  0  0  0  0  0  0  0  0
   -1.2966   11.2320    0.3560 H   0  0  0  0  0  0  0  0  0  0  0  0
   -2.3535   12.2321   -0.7371 H   0  0  0  0  0  0  0  0  0  0  0  0
   -3.5343   10.2459    0.1469 H   0  0  0  0  0  0  0  0  0  0  0  0
   -3.3617   10.2230   -1.6518 H   0  0  0  0  0  0  0  0  0  0  0  0
   -2.9039    8.0227   -0.8062 H   0  0  0  0  0  0  0  0  0  0  0  0
   -0.7860    8.0640    0.5970 H   0  0  0  0  0  0  0  0  0  0  0  0
   -2.7722    8.2459   -2.9722 H   0  0  0  0  0  0  0  0  0  0  0  0
   -1.5797    9.4065   -3.6487 H   0  0  0  0  0  0  0  0  0  0  0  0
   -1.2198    7.6467   -3.6487 H   0  0  0  0  0  0  0  0  0  0  0  0
   -0.2479    7.0919   -0.3362 H   0  0  0  0  0  0  0  0  0  0  0  0
   -0.9141    6.4290   -1.8671 H   0  0  0  0  0  0  0  0  0  0  0  0
    0.6758    7.2651   -1.8671 H   0  0  0  0  0  0  0  0  0  0  0  0
    0.0145   12.2187    0.4298 H   0  0  0  0  0  0  0  0  0  0  0  0
    1.6900   12.5964   -0.0963 H   0  0  0  0  0  0  0  0  0  0  0  0
    0.4370   13.8834   -0.0963 H   0  0  0  0  0  0  0  0  0  0  0  0
   -1.5539   13.6266   -2.0492 H   0  0  0  0  0  0  0  0  0  0  0  0
    0.0342   14.5712   -1.9120 H   0  0  0  0  0  0  0  0  0  0  0  0
   -1.0465   13.1145   -4.3402 H   0  0  0  0  0  0  0  0  0  0  0  0
   -0.7993   14.8898   -4.1065 H   0  0  0  0  0  0  0  0  0  0  0  0
    1.7960   14.8414   -2.6239 H   0  0  0  0  0  0  0  0  0  0  0  0
    2.8986   14.8331   -4.0420 H   0  0  0  0  0  0  0  0  0  0  0  0
    1.4432   15.8860   -4.0420 H   0  0  0  0  0  0  0  0  0  0  0  0
  1  2  1  0
  2  3  1  0
  3  4  1  0
  4  5  1  0
  5  6  1  0
  6  7  1  0
  7  8  1  0
  7  9  1  0
  2 10  1  0
 10 11  1  0
 11 12  1  0
 12 13  1  0
 13 14  1  6
 13 15  1  0
 15 16  1  0
 16 17  1  0
 17 18  2  0
 18 19  1  0
 19 20  1  0
 20 21  1  0
 21 22  1  0
 22 23  1  0
 22 24  1  0
 24 25  1  0
 24 26  1  0
 19 27  1  0
 27 28  1  1
 27 29  1  0
 29 30  1  0
 30 31  1  0
 31 32  1  1
  7  5  1  0
 31 10  1  0
 31 13  1  0
 27 15  1  0
 24 18  1  0
  1 33  1  0
  1 34  1  0
  1 35  1  0
  2 36  1  1
  3 37  1  0
  3 38  1  0
  4 39  1  0
  4 40  1  0
  5 41  1  6
  8 42  1  0
  8 43  1  0
  8 44  1  0
  9 45  1  0
  9 46  1  0
  9 47  1  0
 10 48  1  6
 11 49  1  0
 11 50  1  0
 12 51  1  0
 12 52  1  0
 14 53  1  0
 14 54  1  0
 14 55  1  0
 15 56  1  1
 16 57  1  0
 16 58  1  0
 17 59  1  0
 19 60  1  6
 20 61  1  0
 20 62  1  0
 21 63  1  0
 21 64  1  0
 22 65  1  6
 23 66  1  0
 25 67  1  0
 25 68  1  0
 25 69  1  0
 26 70  1  0
 26 71  1  0
 26 72  1  0
 28 73  1  0
 28 74  1  0
 28 75  1  0
 29 76  1  0
 29 77  1  0
 30 78  1  0
 30 79  1  0
 32 80  1  0
 32 81  1  0
 32 82  1  0
M  END
>  <meeko>  (9) 
{"is_sidechain": [false], "intermolecular_energy": 2.731, "internal_energy": -0.839}

$$$$
EPH_relaxed_0001_pdb2pqr_Repair_263_r2_0001_out
     RDKit          3D

 82 86  0  0  0  0  0  0  0  0999 V2000
    1.0670   14.7720   -2.6670 C   0  0  0  0  0  0  0  0  0  0  0  0
    1.2680   14.1090   -4.0320 C   0  0  2  0  0  0  0  0  0  0  0  0
    0.5510   14.8750   -5.1610 C   0  0  0  0  0  0  0  0  0  0  0  0
    1.1310   14.6070   -6.5520 C   0  0  0  0  0  0  0  0  0  0  0  0
    0.8780   15.7500   -7.4880 C   0  0  2  0  0  0  0  0  0  0  0  0
    0.3610   15.3700   -8.7710 O   0  0  0  0  0  0  0  0  0  0  0  0
    1.6650   15.9750   -8.7660 C   0  0  0  0  0  0  0  0  0  0  0  0
    2.7660   15.0490   -9.1770 C   0  0  0  0  0  0  0  0  0  0  0  0
    1.6940   17.3500   -9.3560 C   0  0  0  0  0  0  0  0  0  0  0  0
    0.7760   12.6670   -3.9860 C   0  0  1  0  0  0  0  0  0  0  0  0
    1.8740   11.6480   -4.3940 C   0  0  0  0  0  0  0  0  0  0  0  0
    1.6500   10.3800   -3.5310 C   0  0  0  0  0  0  0  0  0  0  0  0
    0.2500   10.5780   -2.9030 C   0  0  1  0  0  0  0  0  0  0  0  0
   -0.7540   10.1490   -4.0190 C   0  0  0  0  0  0  0  0  0  0  0  0
   -0.0190    9.8200   -1.5620 C   0  0  2  0  0  0  0  0  0  0  0  0
    0.0400    8.2850   -1.6570 C   0  0  0  0  0  0  0  0  0  0  0  0
   -1.2570    7.6150   -1.9690 C   0  0  0  0  0  0  0  0  0  0  0  0
   -2.4720    8.1870   -1.8860 C   0  0  0  0  0  0  0  0  0  0  0  0
   -2.6370    9.6140   -1.3480 C   0  0  1  0  0  0  0  0  0  0  0  0
   -3.8020    9.6510   -0.3250 C   0  0  0  0  0  0  0  0  0  0  0  0
   -5.1000    9.0900   -0.8960 C   0  0  0  0  0  0  0  0  0  0  0  0
   -4.9120    7.6500   -1.3670 C   0  0  2  0  0  0  0  0  0  0  0  0
   -4.6610    6.8210   -0.2280 O   0  0  0  0  0  0  0  0  0  0  0  0
   -3.7570    7.4880   -2.3950 C   0  0  0  0  0  0  0  0  0  0  0  0
   -4.1640    8.1370   -3.7410 C   0  0  0  0  0  0  0  0  0  0  0  0
   -3.5810    5.9720   -2.6800 C   0  0  0  0  0  0  0  0  0  0  0  0
   -1.3150   10.3020   -0.7940 C   0  0  1  0  0  0  0  0  0  0  0  0
   -1.1090    9.9280    0.7060 C   0  0  0  0  0  0  0  0  0  0  0  0
   -1.4920   11.8660   -0.8410 C   0  0  0  0  0  0  0  0  0  0  0  0
   -1.0960   12.5710   -2.1530 C   0  0  0  0  0  0  0  0  0  0  0  0
    0.2920   12.1230   -2.6190 C   0  0  2  0  0  0  0  0  0  0  0  0
    1.3270   12.5610   -1.5270 C   0  0  0  0  0  0  0  0  0  0  0  0
    1.2872   14.0458   -1.8707 H   0  0  0  0  0  0  0  0  0  0  0  0
    1.7442   15.6339   -2.5747 H   0  0  0  0  0  0  0  0  0  0  0  0
    0.0252   15.1127   -2.5747 H   0  0  0  0  0  0  0  0  0  0  0  0
    2.3452   14.1276   -4.2539 H   0  0  0  0  0  0  0  0  0  0  0  0
   -0.5082   14.5784   -5.1635 H   0  0  0  0  0  0  0  0  0  0  0  0
    0.6864   15.9476   -4.9577 H   0  0  0  0  0  0  0  0  0  0  0  0
    2.2165   14.4535   -6.4620 H   0  0  0  0  0  0  0  0  0  0  0  0
    0.6390   13.7127   -6.9621 H   0  0  0  0  0  0  0  0  0  0  0  0
    0.6308   16.4148   -6.6472 H   0  0  0  0  0  0  0  0  0  0  0  0
    3.2538   14.6387   -8.2805 H   0  0  0  0  0  0  0  0  0  0  0  0
    2.3487   14.2264   -9.7763 H   0  0  0  0  0  0  0  0  0  0  0  0
    3.5049   15.6011   -9.7763 H   0  0  0  0  0  0  0  0  0  0  0  0
    1.7097   18.0957   -8.5475 H   0  0  0  0  0  0  0  0  0  0  0  0
    2.5947   17.4636   -9.9771 H   0  0  0  0  0  0  0  0  0  0  0  0
    0.7988   17.5014   -9.9771 H   0  0  0  0  0  0  0  0  0  0  0  0
   -0.0720   12.7398   -4.6829 H   0  0  0  0  0  0  0  0  0  0  0  0
    1.7830   11.4004   -5.4619 H   0  0  0  0  0  0  0  0  0  0  0  0
    2.8792   12.0641   -4.2313 H   0  0  0  0  0  0  0  0  0  0  0  0
    1.6705    9.4756   -4.1569 H   0  0  0  0  0  0  0  0  0  0  0  0
    2.4338   10.2491   -2.7704 H   0  0  0  0  0  0  0  0  0  0  0  0
   -1.6715    9.7570   -3.5558 H   0  0  0  0  0  0  0  0  0  0  0  0
   -1.0018   11.0198   -4.6437 H   0  0  0  0  0  0  0  0  0  0  0  0
   -0.2960    9.3680   -4.6437 H   0  0  0  0  0  0  0  0  0  0  0  0
    0.8442   10.1147   -0.9472 H   0  0  0  0  0  0  0  0  0  0  0  0
    0.7578    8.0207   -2.4475 H   0  0  0  0  0  0  0  0  0  0  0  0
    0.3336    7.9294   -0.6583 H   0  0  0  0  0  0  0  0  0  0  0  0
   -1.2159    6.5650   -2.2942 H   0  0  0  0  0  0  0  0  0  0  0  0
   -2.8854   10.2405   -2.2174 H   0  0  0  0  0  0  0  0  0  0  0  0
   -3.5175    9.0555    0.5550 H   0  0  0  0  0  0  0  0  0  0  0  0
   -3.9810   10.7037   -0.0609 H   0  0  0  0  0  0  0  0  0  0  0  0
   -5.8764    9.1155   -0.1172 H   0  0  0  0  0  0  0  0  0  0  0  0
   -5.3989    9.7049   -1.7577 H   0  0  0  0  0  0  0  0  0  0  0  0
   -5.8360    7.3483   -1.8821 H   0  0  0  0  0  0  0  0  0  0  0  0
   -5.2900    6.0800   -0.2590 H   0  0  0  0  0  0  0  0  0  0  0  0
   -4.7392    9.0543   -3.5467 H   0  0  0  0  0  0  0  0  0  0  0  0
   -3.2600    8.3860   -4.3162 H   0  0  0  0  0  0  0  0  0  0  0  0
   -4.7818    7.4317   -4.3162 H   0  0  0  0  0  0  0  0  0  0  0  0
   -3.5175    5.4249   -1.7278 H   0  0  0  0  0  0  0  0  0  0  0  0
   -4.4426    5.6049   -3.2570 H   0  0  0  0  0  0  0  0  0  0  0  0
   -2.6583    5.8121   -3.2570 H   0  0  0  0  0  0  0  0  0  0  0  0
   -1.5418   10.7138    1.3426 H   0  0  0  0  0  0  0  0  0  0  0  0
   -1.6067    8.9699    0.9167 H   0  0  0  0  0  0  0  0  0  0  0  0
   -0.0332    9.8365    0.9167 H   0  0  0  0  0  0  0  0  0  0  0  0
   -2.5529   12.0867   -0.6517 H   0  0  0  0  0  0  0  0  0  0  0  0
   -0.7974   12.2572   -0.0830 H   0  0  0  0  0  0  0  0  0  0  0  0
   -1.8336   12.3243   -2.9308 H   0  0  0  0  0  0  0  0  0  0  0  0
   -1.0726   13.6562   -1.9746 H   0  0  0  0  0  0  0  0  0  0  0  0
    0.9036   12.3818   -0.5277 H   0  0  0  0  0  0  0  0  0  0  0  0
    2.2520   11.9772   -1.6434 H   0  0  0  0  0  0  0  0  0  0  0  0
    1.5519   13.6314   -1.6434 H   0  0  0  0  0  0  0  0  0  0  0  0
  1  2  1  0
  2  3  1  0
  3  4  1  0
  4  5  1  0
  5  6  1  0
  6  7  1  0
  7  8  1  0
  7  9  1  0
  2 10  1  0
 10 11  1  0
 11 12  1  0
 12 13  1  0
 13 14  1  6
 13 15  1  0
 15 16  1  0
 16 17  1  0
 17 18  2  0
 18 19  1  0
 19 20  1  0
 20 21  1  0
 21 22  1  0
 22 23  1  0
 22 24  1  0
 24 25  1  0
 24 26  1  0
 19 27  1  0
 27 28  1  1
 27 29  1  0
 29 30  1  0
 30 31  1  0
 31 32  1  1
  7  5  1  0
 31 10  1  0
 31 13  1  0
 27 15  1  0
 24 18  1  0
  1 33  1  0
  1 34  1  0
  1 35  1  0
  2 36  1  6
  3 37  1  0
  3 38  1  0
  4 39  1  0
  4 40  1  0
  5 41  1  1
  8 42  1  0
  8 43  1  0
  8 44  1  0
  9 45  1  0
  9 46  1  0
  9 47  1  0
 10 48  1  6
 11 49  1  0
 11 50  1  0
 12 51  1  0
 12 52  1  0
 14 53  1  0
 14 54  1  0
 14 55  1  0
 15 56  1  1
 16 57  1  0
 16 58  1  0
 17 59  1  0
 19 60  1  6
 20 61  1  0
 20 62  1  0
 21 63  1  0
 21 64  1  0
 22 65  1  6
 23 66  1  0
 25 67  1  0
 25 68  1  0
 25 69  1  0
 26 70  1  0
 26 71  1  0
 26 72  1  0
 28 73  1  0
 28 74  1  0
 28 75  1  0
 29 76  1  0
 29 77  1  0
 30 78  1  0
 30 79  1  0
 32 80  1  0
 32 81  1  0
 32 82  1  0
M  END
>  <meeko>  (10) 
{"is_sidechain": [false], "intermolecular_energy": 2.731, "internal_energy": -0.839}

$$$$
EPH_relaxed_0001_pdb2pqr_Repair_263_r2_0001_out
     RDKit          3D

 82 86  0  0  0  0  0  0  0  0999 V2000
    3.8110   17.8050    1.1090 C   0  0  0  0  0  0  0  0  0  0  0  0
    2.9750   18.1650   -0.1230 C   0  0  2  0  0  0  0  0  0  0  0  0
    2.2890   19.5380    0.0210 C   0  0  0  0  0  0  0  0  0  0  0  0
    1.2260   19.5820    1.1220 C   0  0  0  0  0  0  0  0  0  0  0  0
   -0.0720   20.1360    0.6170 C   0  0  2  0  0  0  0  0  0  0  0  0
   -1.1220   20.1860    1.5930 O   0  0  0  0  0  0  0  0  0  0  0  0
   -1.3360   19.3080    0.4760 C   0  0  0  0  0  0  0  0  0  0  0  0
   -1.3630   17.8570    0.8390 C   0  0  0  0  0  0  0  0  0  0  0  0
   -2.3990   19.7800   -0.4670 C   0  0  0  0  0  0  0  0  0  0  0  0
    1.9300   17.0840   -0.3750 C   0  0  1  0  0  0  0  0  0  0  0  0
    0.7510   17.5860   -1.2510 C   0  0  0  0  0  0  0  0  0  0  0  0
    0.3070   16.3900   -2.1320 C   0  0  0  0  0  0  0  0  0  0  0  0
    1.0120   15.1630   -1.5070 C   0  0  1  0  0  0  0  0  0  0  0  0
    0.1180   14.7620   -0.2920 C   0  0  0  0  0  0  0  0  0  0  0  0
    1.2650   13.9510   -2.4620 C   0  0  2  0  0  0  0  0  0  0  0  0
   -0.0040   13.2940   -3.0340 C   0  0  0  0  0  0  0  0  0  0  0  0
   -0.5640   12.1750   -2.2200 C   0  0  0  0  0  0  0  0  0  0  0  0
    0.0810   11.5270   -1.2320 C   0  0  0  0  0  0  0  0  0  0  0  0
    1.5480   11.8410   -0.9110 C   0  0  1  0  0  0  0  0  0  0  0  0
    2.3380   10.5150   -0.7560 C   0  0  0  0  0  0  0  0  0  0  0  0
    1.7060    9.5730    0.2640 C   0  0  0  0  0  0  0  0  0  0  0  0
    0.2670    9.2380   -0.1210 C   0  0  2  0  0  0  0  0  0  0  0  0
    0.2800    8.4680   -1.3270 O   0  0  0  0  0  0  0  0  0  0  0  0
   -0.6230   10.4970   -0.3140 C   0  0  0  0  0  0  0  0  0  0  0  0
   -0.8830   11.1670    1.0580 C   0  0  0  0  0  0  0  0  0  0  0  0
   -2.0070   10.0270   -0.8370 C   0  0  0  0  0  0  0  0  0  0  0  0
    2.2660   12.8700   -1.8860 C   0  0  1  0  0  0  0  0  0  0  0  0
    2.8600   12.1130   -3.1140 C   0  0  0  0  0  0  0  0  0  0  0  0
    3.4860   13.5230   -1.1350 C   0  0  0  0  0  0  0  0  0  0  0  0
    3.1940   14.7870   -0.3040 C   0  0  0  0  0  0  0  0  0  0  0  0
    2.3930   15.8070   -1.1200 C   0  0  2  0  0  0  0  0  0  0  0  0
    3.2760   16.2450   -2.3370 C   0  0  0  0  0  0  0  0  0  0  0  0
    3.2450   18.0487    2.0202 H   0  0  0  0  0  0  0  0  0  0  0  0
    4.0390   16.7290    1.0958 H   0  0  0  0  0  0  0  0  0  0  0  0
    4.7494   18.3788    1.0958 H   0  0  0  0  0  0  0  0  0  0  0  0
    3.6602   18.2277   -0.9813 H   0  0  0  0  0  0  0  0  0  0  0  0
    3.0593   20.2887    0.2517 H   0  0  0  0  0  0  0  0  0  0  0  0
    1.7756   19.7424   -0.9301 H   0  0  0  0  0  0  0  0  0  0  0  0
    1.0568   18.5612    1.4953 H   0  0  0  0  0  0  0  0  0  0  0  0
    1.5906   20.2397    1.9248 H   0  0  0  0  0  0  0  0  0  0  0  0
    0.4563   20.8014   -0.0817 H   0  0  0  0  0  0  0  0  0  0  0  0
   -1.3649   17.7530    1.9341 H   0  0  0  0  0  0  0  0  0  0  0  0
   -2.2699   17.3923    0.4249 H   0  0  0  0  0  0  0  0  0  0  0  0
   -0.4740   17.3588    0.4249 H   0  0  0  0  0  0  0  0  0  0  0  0
   -3.2563   20.1606    0.1077 H   0  0  0  0  0  0  0  0  0  0  0  0
   -1.9964   20.5839   -1.1007 H   0  0  0  0  0  0  0  0  0  0  0  0
   -2.7253   18.9422   -1.1007 H   0  0  0  0  0  0  0  0  0  0  0  0
    1.6646   16.8382    0.6638 H   0  0  0  0  0  0  0  0  0  0  0  0
   -0.0817   17.9157   -0.6124 H   0  0  0  0  0  0  0  0  0  0  0  0
    1.0564   18.4414   -1.8714 H   0  0  0  0  0  0  0  0  0  0  0  0
   -0.7858   16.2683   -2.0997 H   0  0  0  0  0  0  0  0  0  0  0  0
    0.5725   16.5298   -3.1903 H   0  0  0  0  0  0  0  0  0  0  0  0
    0.6446   14.9982    0.6444 H   0  0  0  0  0  0  0  0  0  0  0  0
   -0.8279   15.3221   -0.3321 H   0  0  0  0  0  0  0  0  0  0  0  0
   -0.0927   13.6831   -0.3321 H   0  0  0  0  0  0  0  0  0  0  0  0
    1.7665   14.4264   -3.3179 H   0  0  0  0  0  0  0  0  0  0  0  0
   -0.7782   14.0703   -3.1231 H   0  0  0  0  0  0  0  0  0  0  0  0
    0.2895   12.8525   -3.9978 H   0  0  0  0  0  0  0  0  0  0  0  0
   -1.5909   11.8526   -2.4468 H   0  0  0  0  0  0  0  0  0  0  0  0
    1.5415   12.3856    0.0447 H   0  0  0  0  0  0  0  0  0  0  0  0
    2.3704   10.0078   -1.7316 H   0  0  0  0  0  0  0  0  0  0  0  0
    3.3467   10.7674   -0.3970 H   0  0  0  0  0  0  0  0  0  0  0  0
    2.2927    8.6435    0.3076 H   0  0  0  0  0  0  0  0  0  0  0  0
    1.7003   10.0705    1.2450 H   0  0  0  0  0  0  0  0  0  0  0  0
   -0.1732    8.6668    0.7097 H   0  0  0  0  0  0  0  0  0  0  0  0
   -0.6340    8.4170   -1.6530 H   0  0  0  0  0  0  0  0  0  0  0  0
   -0.6122   10.4692    1.8640 H   0  0  0  0  0  0  0  0  0  0  0  0
   -0.2734   12.0788    1.1422 H   0  0  0  0  0  0  0  0  0  0  0  0
   -1.9480   11.4289    1.1422 H   0  0  0  0  0  0  0  0  0  0  0  0
   -2.6647    9.8036    0.0159 H   0  0  0  0  0  0  0  0  0  0  0  0
   -2.4573   10.8226   -1.4488 H   0  0  0  0  0  0  0  0  0  0  0  0
   -1.8797    9.1217   -1.4488 H   0  0  0  0  0  0  0  0  0  0  0  0
    3.5035   11.2929   -2.7630 H   0  0  0  0  0  0  0  0  0  0  0  0
    2.0411   11.7018   -3.7224 H   0  0  0  0  0  0  0  0  0  0  0  0
    3.4542   12.8106   -3.7224 H   0  0  0  0  0  0  0  0  0  0  0  0
    3.9017   12.7657   -0.4541 H   0  0  0  0  0  0  0  0  0  0  0  0
    4.1705   13.8530   -1.9303 H   0  0  0  0  0  0  0  0  0  0  0  0
    2.6151   14.5054    0.5880 H   0  0  0  0  0  0  0  0  0  0  0  0
    4.1512   15.2444   -0.0133 H   0  0  0  0  0  0  0  0  0  0  0  0
    4.2047   16.7057   -1.9692 H   0  0  0  0  0  0  0  0  0  0  0  0
    3.5209   15.3639   -2.9483 H   0  0  0  0  0  0  0  0  0  0  0  0
    2.7226   16.9731   -2.9483 H   0  0  0  0  0  0  0  0  0  0  0  0
  1  2  1  0
  2  3  1  0
  3  4  1  0
  4  5  1  0
  5  6  1  0
  6  7  1  0
  7  8  1  0
  7  9  1  0
  2 10  1  0
 10 11  1  0
 11 12  1  0
 12 13  1  0
 13 14  1  1
 13 15  1  0
 15 16  1  0
 16 17  1  0
 17 18  2  0
 18 19  1  0
 19 20  1  0
 20 21  1  0
 21 22  1  0
 22 23  1  0
 22 24  1  0
 24 25  1  0
 24 26  1  0
 19 27  1  0
 27 28  1  6
 27 29  1  0
 29 30  1  0
 30 31  1  0
 31 32  1  6
  7  5  1  0
 31 10  1  0
 31 13  1  0
 27 15  1  0
 24 18  1  0
  1 33  1  0
  1 34  1  0
  1 35  1  0
  2 36  1  6
  3 37  1  0
  3 38  1  0
  4 39  1  0
  4 40  1  0
  5 41  1  6
  8 42  1  0
  8 43  1  0
  8 44  1  0
  9 45  1  0
  9 46  1  0
  9 47  1  0
 10 48  1  1
 11 49  1  0
 11 50  1  0
 12 51  1  0
 12 52  1  0
 14 53  1  0
 14 54  1  0
 14 55  1  0
 15 56  1  6
 16 57  1  0
 16 58  1  0
 17 59  1  0
 19 60  1  1
 20 61  1  0
 20 62  1  0
 21 63  1  0
 21 64  1  0
 22 65  1  1
 23 66  1  0
 25 67  1  0
 25 68  1  0
 25 69  1  0
 26 70  1  0
 26 71  1  0
 26 72  1  0
 28 73  1  0
 28 74  1  0
 28 75  1  0
 29 76  1  0
 29 77  1  0
 30 78  1  0
 30 79  1  0
 32 80  1  0
 32 81  1  0
 32 82  1  0
M  END
>  <meeko>  (11) 
{"is_sidechain": [false], "intermolecular_energy": 2.731, "internal_energy": -0.839}

$$$$
EPH_relaxed_0001_pdb2pqr_Repair_263_r2_0001_out
     RDKit          3D

 82 86  0  0  0  0  0  0  0  0999 V2000
   -2.3770    7.7830   -0.0440 C   0  0  0  0  0  0  0  0  0  0  0  0
   -3.0200    9.1720   -0.0520 C   0  0  2  0  0  0  0  0  0  0  0  0
   -4.5110    9.1200   -0.4430 C   0  0  0  0  0  0  0  0  0  0  0  0
   -5.0850    7.7020   -0.4910 C   0  0  0  0  0  0  0  0  0  0  0  0
   -5.8000    7.4370   -1.7820 C   0  0  2  0  0  0  0  0  0  0  0  0
   -6.7710    8.4270   -2.1430 O   0  0  0  0  0  0  0  0  0  0  0  0
   -7.2790    7.1110   -1.8680 C   0  0  0  0  0  0  0  0  0  0  0  0
   -8.1330    7.0330   -0.6410 C   0  0  0  0  0  0  0  0  0  0  0  0
   -7.7850    6.3940   -3.0810 C   0  0  0  0  0  0  0  0  0  0  0  0
   -2.2630   10.0890   -1.0060 C   0  0  1  0  0  0  0  0  0  0  0  0
   -2.9170   11.4920   -1.1310 C   0  0  0  0  0  0  0  0  0  0  0  0
   -1.7610   12.5090   -1.3090 C   0  0  0  0  0  0  0  0  0  0  0  0
   -0.5190   11.6390   -1.6130 C   0  0  1  0  0  0  0  0  0  0  0  0
   -0.6260   11.3040   -3.1330 C   0  0  0  0  0  0  0  0  0  0  0  0
    0.8680   12.2670   -1.2570 C   0  0  2  0  0  0  0  0  0  0  0  0
    1.2210   13.5510   -2.0280 C   0  0  0  0  0  0  0  0  0  0  0  0
    1.9590   13.3440   -3.3080 C   0  0  0  0  0  0  0  0  0  0  0  0
    2.5730   12.2060   -3.6820 C   0  0  0  0  0  0  0  0  0  0  0  0
    2.6470   11.0030   -2.7320 C   0  0  1  0  0  0  0  0  0  0  0  0
    4.0930   10.4420   -2.7190 C   0  0  0  0  0  0  0  0  0  0  0  0
    4.6070   10.1140   -4.1180 C   0  0  0  0  0  0  0  0  0  0  0  0
    4.5730   11.3480   -5.0140 C   0  0  2  0  0  0  0  0  0  0  0  0
    5.5210   12.3010   -4.5240 O   0  0  0  0  0  0  0  0  0  0  0  0
    3.1670   12.0060   -5.0980 C   0  0  0  0  0  0  0  0  0  0  0  0
    2.2100   11.0910   -5.9010 C   0  0  0  0  0  0  0  0  0  0  0  0
    3.3020   13.3180   -5.9170 C   0  0  0  0  0  0  0  0  0  0  0  0
    2.0690   11.2370   -1.2710 C   0  0  1  0  0  0  0  0  0  0  0  0
    3.1780   11.8320   -0.3490 C   0  0  0  0  0  0  0  0  0  0  0  0
    1.6720    9.8470   -0.6460 C   0  0  0  0  0  0  0  0  0  0  0  0
    0.2480    9.3370   -0.9360 C   0  0  0  0  0  0  0  0  0  0  0  0
   -0.7930   10.4250   -0.6530 C   0  0  2  0  0  0  0  0  0  0  0  0
   -0.7240   10.7670    0.8740 C   0  0  0  0  0  0  0  0  0  0  0  0
   -2.2252    7.4552    0.9950 H   0  0  0  0  0  0  0  0  0  0  0  0
   -3.0369    7.0705   -0.5606 H   0  0  0  0  0  0  0  0  0  0  0  0
   -1.4068    7.8251   -0.5606 H   0  0  0  0  0  0  0  0  0  0  0  0
   -2.9613    9.5699    0.9718 H   0  0  0  0  0  0  0  0  0  0  0  0
   -5.0839    9.7019    0.2941 H   0  0  0  0  0  0  0  0  0  0  0  0
   -4.5917    9.5342   -1.4588 H   0  0  0  0  0  0  0  0  0  0  0  0
   -4.2617    6.9803   -0.3847 H   0  0  0  0  0  0  0  0  0  0  0  0
   -5.8094    7.5971    0.3302 H   0  0  0  0  0  0  0  0  0  0  0  0
   -4.9104    6.9431   -2.2000 H   0  0  0  0  0  0  0  0  0  0  0  0
   -7.4956    7.0912    0.2536 H   0  0  0  0  0  0  0  0  0  0  0  0
   -8.8471    7.8697   -0.6375 H   0  0  0  0  0  0  0  0  0  0  0  0
   -8.6838    6.0808   -0.6375 H   0  0  0  0  0  0  0  0  0  0  0  0
   -8.3934    5.5319   -2.7702 H   0  0  0  0  0  0  0  0  0  0  0  0
   -8.4005    7.0795   -3.6820 H   0  0  0  0  0  0  0  0  0  0  0  0
   -6.9329    6.0438   -3.6820 H   0  0  0  0  0  0  0  0  0  0  0  0
   -2.3002    9.4764   -1.9189 H   0  0  0  0  0  0  0  0  0  0  0  0
   -3.5858   11.5219   -2.0038 H   0  0  0  0  0  0  0  0  0  0  0  0
   -3.5181   11.7287   -0.2407 H   0  0  0  0  0  0  0  0  0  0  0  0
   -1.9704   13.1924   -2.1451 H   0  0  0  0  0  0  0  0  0  0  0  0
   -1.6203   13.1404   -0.4193 H   0  0  0  0  0  0  0  0  0  0  0  0
   -0.9586   10.2628   -3.2565 H   0  0  0  0  0  0  0  0  0  0  0  0
   -1.3530   11.9798   -3.6071 H   0  0  0  0  0  0  0  0  0  0  0  0
    0.3581   11.4332   -3.6071 H   0  0  0  0  0  0  0  0  0  0  0  0
    0.7242   12.5763   -0.2112 H   0  0  0  0  0  0  0  0  0  0  0  0
    0.2832   14.0779   -2.2579 H   0  0  0  0  0  0  0  0  0  0  0  0
    1.8985   14.1210   -1.3752 H   0  0  0  0  0  0  0  0  0  0  0  0
    2.0053   14.1935   -4.0053 H   0  0  0  0  0  0  0  0  0  0  0  0
    1.9584   10.2491   -3.1412 H   0  0  0  0  0  0  0  0  0  0  0  0
    4.7580   11.1921   -2.2661 H   0  0  0  0  0  0  0  0  0  0  0  0
    4.0827    9.5069   -2.1397 H   0  0  0  0  0  0  0  0  0  0  0  0
    5.6426    9.7504   -4.0451 H   0  0  0  0  0  0  0  0  0  0  0  0
    3.9587    9.3421   -4.5584 H   0  0  0  0  0  0  0  0  0  0  0  0
    4.8284   11.0218   -6.0330 H   0  0  0  0  0  0  0  0  0  0  0  0
    5.0500   12.9020   -3.9220 H   0  0  0  0  0  0  0  0  0  0  0  0
    1.5947   10.5027   -5.2044 H   0  0  0  0  0  0  0  0  0  0  0  0
    1.5571   11.7093   -6.5345 H   0  0  0  0  0  0  0  0  0  0  0  0
    2.7984   10.4110   -6.5345 H   0  0  0  0  0  0  0  0  0  0  0  0
    3.3899   14.1721   -5.2294 H   0  0  0  0  0  0  0  0  0  0  0  0
    4.1993   13.2638   -6.5510 H   0  0  0  0  0  0  0  0  0  0  0  0
    2.4125   13.4477   -6.5510 H   0  0  0  0  0  0  0  0  0  0  0  0
    2.8986   11.6821    0.7043 H   0  0  0  0  0  0  0  0  0  0  0  0
    4.1333   11.3253   -0.5506 H   0  0  0  0  0  0  0  0  0  0  0  0
    3.2841   12.9082   -0.5506 H   0  0  0  0  0  0  0  0  0  0  0  0
    2.3789    9.0960   -1.0285 H   0  0  0  0  0  0  0  0  0  0  0  0
    1.7069   10.0002    0.4427 H   0  0  0  0  0  0  0  0  0  0  0  0
    0.1804    9.0407   -1.9932 H   0  0  0  0  0  0  0  0  0  0  0  0
    0.0434    8.4773   -0.2810 H   0  0  0  0  0  0  0  0  0  0  0  0
   -0.9078    9.8560    1.4625 H   0  0  0  0  0  0  0  0  0  0  0  0
    0.2725   11.1650    1.1160 H   0  0  0  0  0  0  0  0  0  0  0  0
   -1.4883   11.5202    1.1160 H   0  0  0  0  0  0  0  0  0  0  0  0
  1  2  1  0
  2  3  1  0
  3  4  1  0
  4  5  1  0
  5  6  1  0
  6  7  1  0
  7  8  1  0
  7  9  1  0
  2 10  1  0
 10 11  1  0
 11 12  1  0
 12 13  1  0
 13 14  1  6
 13 15  1  0
 15 16  1  0
 16 17  1  0
 17 18  2  0
 18 19  1  0
 19 20  1  0
 20 21  1  0
 21 22  1  0
 22 23  1  0
 22 24  1  0
 24 25  1  0
 24 26  1  0
 19 27  1  0
 27 28  1  1
 27 29  1  0
 29 30  1  0
 30 31  1  0
 31 32  1  1
  7  5  1  0
 31 10  1  0
 31 13  1  0
 27 15  1  0
 24 18  1  0
  1 33  1  0
  1 34  1  0
  1 35  1  0
  2 36  1  1
  3 37  1  0
  3 38  1  0
  4 39  1  0
  4 40  1  0
  5 41  1  6
  8 42  1  0
  8 43  1  0
  8 44  1  0
  9 45  1  0
  9 46  1  0
  9 47  1  0
 10 48  1  6
 11 49  1  0
 11 50  1  0
 12 51  1  0
 12 52  1  0
 14 53  1  0
 14 54  1  0
 14 55  1  0
 15 56  1  1
 16 57  1  0
 16 58  1  0
 17 59  1  0
 19 60  1  6
 20 61  1  0
 20 62  1  0
 21 63  1  0
 21 64  1  0
 22 65  1  6
 23 66  1  0
 25 67  1  0
 25 68  1  0
 25 69  1  0
 26 70  1  0
 26 71  1  0
 26 72  1  0
 28 73  1  0
 28 74  1  0
 28 75  1  0
 29 76  1  0
 29 77  1  0
 30 78  1  0
 30 79  1  0
 32 80  1  0
 32 81  1  0
 32 82  1  0
M  END
>  <meeko>  (12) 
{"is_sidechain": [false], "intermolecular_energy": 2.731, "internal_energy": -0.839}

$$$$
EPH_relaxed_0001_pdb2pqr_Repair_263_r2_0001_out
     RDKit          3D

 82 86  0  0  0  0  0  0  0  0999 V2000
    0.7710   18.1300   -1.8530 C   0  0  0  0  0  0  0  0  0  0  0  0
    1.7140   17.3270   -0.9530 C   0  0  2  0  0  0  0  0  0  0  0  0
    3.1310   17.9320   -0.9100 C   0  0  0  0  0  0  0  0  0  0  0  0
    3.7910   17.8550    0.4690 C   0  0  0  0  0  0  0  0  0  0  0  0
    3.2740   18.9170    1.3920 C   0  0  2  0  0  0  0  0  0  0  0  0
    3.9090   20.1940    1.2500 O   0  0  0  0  0  0  0  0  0  0  0  0
    4.0980   19.5280    2.5090 C   0  0  0  0  0  0  0  0  0  0  0  0
    5.5080   19.0980    2.7640 C   0  0  0  0  0  0  0  0  0  0  0  0
    3.3830   20.1820    3.6500 C   0  0  0  0  0  0  0  0  0  0  0  0
    1.7790   15.8800   -1.4290 C   0  0  1  0  0  0  0  0  0  0  0  0
    3.1480   15.5230   -2.0670 C   0  0  0  0  0  0  0  0  0  0  0  0
    3.4420   14.0470   -1.6960 C   0  0  0  0  0  0  0  0  0  0  0  0
    2.1000   13.5070   -1.1480 C   0  0  1  0  0  0  0  0  0  0  0  0
    1.2630   13.1530   -2.4160 C   0  0  0  0  0  0  0  0  0  0  0  0
    2.1930   12.2980   -0.1610 C   0  0  2  0  0  0  0  0  0  0  0  0
    2.7980   11.0150   -0.7570 C   0  0  0  0  0  0  0  0  0  0  0  0
    1.8160   10.0740   -1.3740 C   0  0  0  0  0  0  0  0  0  0  0  0
    0.4820   10.1100   -1.1990 C   0  0  0  0  0  0  0  0  0  0  0  0
   -0.1590   11.1120   -0.2310 C   0  0  1  0  0  0  0  0  0  0  0  0
   -1.2040   10.3820    0.6530 C   0  0  0  0  0  0  0  0  0  0  0  0
   -2.2390    9.6240   -0.1710 C   0  0  0  0  0  0  0  0  0  0  0  0
   -1.5680    8.5960   -1.0790 C   0  0  2  0  0  0  0  0  0  0  0  0
   -0.9770    7.5790   -0.2650 O   0  0  0  0  0  0  0  0  0  0  0  0
   -0.4870    9.2150   -2.0100 C   0  0  0  0  0  0  0  0  0  0  0  0
   -1.1700   10.0900   -3.0900 C   0  0  0  0  0  0  0  0  0  0  0  0
    0.2100    8.0540   -2.7690 C   0  0  0  0  0  0  0  0  0  0  0  0
    0.8510   11.9960    0.6210 C   0  0  1  0  0  0  0  0  0  0  0  0
    1.2550   11.2360    1.9220 C   0  0  0  0  0  0  0  0  0  0  0  0
    0.1190   13.3110    1.0840 C   0  0  0  0  0  0  0  0  0  0  0  0
    0.1650   14.5090    0.1170 C   0  0  0  0  0  0  0  0  0  0  0  0
    1.5960   14.7720   -0.3620 C   0  0  2  0  0  0  0  0  0  0  0  0
    2.4570   15.1530    0.8900 C   0  0  0  0  0  0  0  0  0  0  0  0
    0.0810   18.7176   -1.2296 H   0  0  0  0  0  0  0  0  0  0  0  0
    1.3595   18.8085   -2.4880 H   0  0  0  0  0  0  0  0  0  0  0  0
    0.1949   17.4409   -2.4880 H   0  0  0  0  0  0  0  0  0  0  0  0
    1.3086   17.3646    0.0689 H   0  0  0  0  0  0  0  0  0  0  0  0
    3.7626   17.3886   -1.6282 H   0  0  0  0  0  0  0  0  0  0  0  0
    3.0330   18.9986   -1.1606 H   0  0  0  0  0  0  0  0  0  0  0  0
    3.5831   16.8685    0.9089 H   0  0  0  0  0  0  0  0  0  0  0  0
    4.8724   18.0097    0.3403 H   0  0  0  0  0  0  0  0  0  0  0  0
    2.2672   18.4743    1.3756 H   0  0  0  0  0  0  0  0  0  0  0  0
    5.6845   19.0442    3.8484 H   0  0  0  0  0  0  0  0  0  0  0  0
    5.6761   18.1077    2.3155 H   0  0  0  0  0  0  0  0  0  0  0  0
    6.2001   19.8259    2.3155 H   0  0  0  0  0  0  0  0  0  0  0  0
    3.7912   19.8087    4.6008 H   0  0  0  0  0  0  0  0  0  0  0  0
    3.5224   21.2717    3.5938 H   0  0  0  0  0  0  0  0  0  0  0  0
    2.3100   19.9462    3.5938 H   0  0  0  0  0  0  0  0  0  0  0  0
    0.9275   15.8756   -2.1254 H   0  0  0  0  0  0  0  0  0  0  0  0
    3.0977   15.6362   -3.1600 H   0  0  0  0  0  0  0  0  0  0  0  0
    3.9418   16.1890   -1.6979 H   0  0  0  0  0  0  0  0  0  0  0  0
    3.7556   13.4786   -2.5840 H   0  0  0  0  0  0  0  0  0  0  0  0
    4.2581   13.9557   -0.9642 H   0  0  0  0  0  0  0  0  0  0  0  0
    0.2899   12.7414   -2.1099 H   0  0  0  0  0  0  0  0  0  0  0  0
    1.1046   14.0612   -3.0161 H   0  0  0  0  0  0  0  0  0  0  0  0
    1.8043   12.4068   -3.0161 H   0  0  0  0  0  0  0  0  0  0  0  0
    2.9218   12.6542    0.5820 H   0  0  0  0  0  0  0  0  0  0  0  0
    3.5210   11.3084   -1.5323 H   0  0  0  0  0  0  0  0  0  0  0  0
    3.2517   10.4724    0.0855 H   0  0  0  0  0  0  0  0  0  0  0  0
    2.2170    9.2846   -2.0268 H   0  0  0  0  0  0  0  0  0  0  0  0
   -0.6610   11.8630   -0.8586 H   0  0  0  0  0  0  0  0  0  0  0  0
   -0.6783    9.6670    1.3029 H   0  0  0  0  0  0  0  0  0  0  0  0
   -1.7373   11.1451    1.2389 H   0  0  0  0  0  0  0  0  0  0  0  0
   -2.9312    9.1060    0.5091 H   0  0  0  0  0  0  0  0  0  0  0  0
   -2.7835   10.3445   -0.7991 H   0  0  0  0  0  0  0  0  0  0  0  0
   -2.3450    8.1774   -1.7355 H   0  0  0  0  0  0  0  0  0  0  0  0
   -0.6040    6.9060   -0.8600 H   0  0  0  0  0  0  0  0  0  0  0  0
   -1.7767   10.8673   -2.6024 H   0  0  0  0  0  0  0  0  0  0  0  0
   -0.4012   10.5648   -3.7174 H   0  0  0  0  0  0  0  0  0  0  0  0
   -1.8172    9.4595   -3.7174 H   0  0  0  0  0  0  0  0  0  0  0  0
    0.6356    7.3450   -2.0436 H   0  0  0  0  0  0  0  0  0  0  0  0
   -0.5259    7.5349   -3.4006 H   0  0  0  0  0  0  0  0  0  0  0  0
    1.0142    8.4594   -3.4006 H   0  0  0  0  0  0  0  0  0  0  0  0
    0.9440   11.8211    2.8000 H   0  0  0  0  0  0  0  0  0  0  0  0
    0.7599   10.2539    1.9417 H   0  0  0  0  0  0  0  0  0  0  0  0
    2.3460   11.0971    1.9417 H   0  0  0  0  0  0  0  0  0  0  0  0
   -0.9386   13.0609    1.2538 H   0  0  0  0  0  0  0  0  0  0  0  0
    0.6639   13.6434    1.9799 H   0  0  0  0  0  0  0  0  0  0  0  0
   -0.4720   14.2935   -0.7535 H   0  0  0  0  0  0  0  0  0  0  0  0
   -0.1972   15.4021    0.6473 H   0  0  0  0  0  0  0  0  0  0  0  0
    1.9006   14.9068    1.8064 H   0  0  0  0  0  0  0  0  0  0  0  0
    3.4010   14.5886    0.8714 H   0  0  0  0  0  0  0  0  0  0  0  0
    2.6741   16.2312    0.8714 H   0  0  0  0  0  0  0  0  0  0  0  0
  1  2  1  0
  2  3  1  0
  3  4  1  0
  4  5  1  0
  5  6  1  0
  6  7  1  0
  7  8  1  0
  7  9  1  0
  2 10  1  0
 10 11  1  0
 11 12  1  0
 12 13  1  0
 13 14  1  6
 13 15  1  0
 15 16  1  0
 16 17  1  0
 17 18  2  0
 18 19  1  0
 19 20  1  0
 20 21  1  0
 21 22  1  0
 22 23  1  0
 22 24  1  0
 24 25  1  0
 24 26  1  0
 19 27  1  0
 27 28  1  1
 27 29  1  0
 29 30  1  0
 30 31  1  0
 31 32  1  1
  7  5  1  0
 31 10  1  0
 31 13  1  0
 27 15  1  0
 24 18  1  0
  1 33  1  0
  1 34  1  0
  1 35  1  0
  2 36  1  1
  3 37  1  0
  3 38  1  0
  4 39  1  0
  4 40  1  0
  5 41  1  1
  8 42  1  0
  8 43  1  0
  8 44  1  0
  9 45  1  0
  9 46  1  0
  9 47  1  0
 10 48  1  6
 11 49  1  0
 11 50  1  0
 12 51  1  0
 12 52  1  0
 14 53  1  0
 14 54  1  0
 14 55  1  0
 15 56  1  1
 16 57  1  0
 16 58  1  0
 17 59  1  0
 19 60  1  6
 20 61  1  0
 20 62  1  0
 21 63  1  0
 21 64  1  0
 22 65  1  6
 23 66  1  0
 25 67  1  0
 25 68  1  0
 25 69  1  0
 26 70  1  0
 26 71  1  0
 26 72  1  0
 28 73  1  0
 28 74  1  0
 28 75  1  0
 29 76  1  0
 29 77  1  0
 30 78  1  0
 30 79  1  0
 32 80  1  0
 32 81  1  0
 32 82  1  0
M  END
>  <meeko>  (13) 
{"is_sidechain": [false], "intermolecular_energy": 2.731, "internal_energy": -0.839}

$$$$
EPH_relaxed_0001_pdb2pqr_Repair_263_r2_0001_out
     RDKit          3D

 82 86  0  0  0  0  0  0  0  0999 V2000
    0.8490   14.6770   -4.6750 C   0  0  0  0  0  0  0  0  0  0  0  0
    0.7790   14.0190   -3.2940 C   0  0  2  0  0  0  0  0  0  0  0  0
    2.1260   14.0950   -2.5460 C   0  0  0  0  0  0  0  0  0  0  0  0
    2.0390   14.8090   -1.1940 C   0  0  0  0  0  0  0  0  0  0  0  0
    1.3520   16.1360   -1.3110 C   0  0  2  0  0  0  0  0  0  0  0  0
    2.0180   17.0830   -2.1570 O   0  0  0  0  0  0  0  0  0  0  0  0
    1.9300   17.4280   -0.7650 C   0  0  0  0  0  0  0  0  0  0  0  0
    3.2500   17.4560   -0.0610 C   0  0  0  0  0  0  0  0  0  0  0  0
    0.9990   18.5660   -0.4840 C   0  0  0  0  0  0  0  0  0  0  0  0
    0.3420   12.5660   -3.4320 C   0  0  1  0  0  0  0  0  0  0  0  0
    1.5100   11.6250   -3.8310 C   0  0  0  0  0  0  0  0  0  0  0  0
    1.2580   10.2720   -3.1170 C   0  0  0  0  0  0  0  0  0  0  0  0
   -0.1990   10.3660   -2.6070 C   0  0  1  0  0  0  0  0  0  0  0  0
   -1.0810   10.0190   -3.8470 C   0  0  0  0  0  0  0  0  0  0  0  0
   -0.5580    9.4720   -1.3750 C   0  0  2  0  0  0  0  0  0  0  0  0
   -0.4310    7.9570   -1.6090 C   0  0  0  0  0  0  0  0  0  0  0  0
   -1.6680    7.2820   -2.1030 C   0  0  0  0  0  0  0  0  0  0  0  0
   -2.9070    7.8070   -2.0800 C   0  0  0  0  0  0  0  0  0  0  0  0
   -3.1740    9.1690   -1.4260 C   0  0  1  0  0  0  0  0  0  0  0  0
   -4.4270    9.0700   -0.5170 C   0  0  0  0  0  0  0  0  0  0  0  0
   -5.6470    8.5290   -1.2580 C   0  0  0  0  0  0  0  0  0  0  0  0
   -5.3610    7.1490   -1.8440 C   0  0  2  0  0  0  0  0  0  0  0  0
   -5.1830    6.2200   -0.7710 O   0  0  0  0  0  0  0  0  0  0  0  0
   -4.1130    7.1230   -2.7710 C   0  0  0  0  0  0  0  0  0  0  0  0
   -4.4220    7.8890   -4.0810 C   0  0  0  0  0  0  0  0  0  0  0  0
   -3.8540    5.6480   -3.1810 C   0  0  0  0  0  0  0  0  0  0  0  0
   -1.9360    9.8380   -0.6890 C   0  0  1  0  0  0  0  0  0  0  0  0
   -1.8520    9.3250    0.7810 C   0  0  0  0  0  0  0  0  0  0  0  0
   -2.1680   11.3930   -0.6030 C   0  0  0  0  0  0  0  0  0  0  0  0
   -1.6830   12.2350   -1.7990 C   0  0  0  0  0  0  0  0  0  0  0  0
   -0.2420   11.8760   -2.1740 C   0  0  2  0  0  0  0  0  0  0  0  0
    0.6730   12.2350   -0.9530 C   0  0  0  0  0  0  0  0  0  0  0  0
    0.9647   15.7646   -4.5575 H   0  0  0  0  0  0  0  0  0  0  0  0
    1.7094   14.2745   -5.2297 H   0  0  0  0  0  0  0  0  0  0  0  0
   -0.0768   14.4646   -5.2297 H   0  0  0  0  0  0  0  0  0  0  0  0
    0.0389   14.5749   -2.6997 H   0  0  0  0  0  0  0  0  0  0  0  0
    2.4868   13.0700   -2.3750 H   0  0  0  0  0  0  0  0  0  0  0  0
    2.8113   14.6811   -3.1760 H   0  0  0  0  0  0  0  0  0  0  0  0
    1.4754   14.1764   -0.4924 H   0  0  0  0  0  0  0  0  0  0  0  0
    3.0629   14.9837   -0.8320 H   0  0  0  0  0  0  0  0  0  0  0  0
    0.3660   15.6620   -1.1960 H   0  0  0  0  0  0  0  0  0  0  0  0
    3.0856   17.4525    1.0266 H   0  0  0  0  0  0  0  0  0  0  0  0
    3.8364   16.5701   -0.3460 H   0  0  0  0  0  0  0  0  0  0  0  0
    3.7984   18.3660   -0.3460 H   0  0  0  0  0  0  0  0  0  0  0  0
    0.8942   18.6941    0.6035 H   0  0  0  0  0  0  0  0  0  0  0  0
    1.4045   19.4888   -0.9245 H   0  0  0  0  0  0  0  0  0  0  0  0
    0.0142   18.3514   -0.9245 H   0  0  0  0  0  0  0  0  0  0  0  0
   -0.4414   12.6819   -4.1955 H   0  0  0  0  0  0  0  0  0  0  0  0
    1.5248   11.4809   -4.9214 H   0  0  0  0  0  0  0  0  0  0  0  0
    2.4799   12.0524   -3.5366 H   0  0  0  0  0  0  0  0  0  0  0  0
    1.3697    9.4344   -3.8213 H   0  0  0  0  0  0  0  0  0  0  0  0
    1.9744   10.0902   -2.3023 H   0  0  0  0  0  0  0  0  0  0  0  0
   -2.0550    9.6358   -3.5085 H   0  0  0  0  0  0  0  0  0  0  0  0
   -1.2337   10.9241   -4.4532 H   0  0  0  0  0  0  0  0  0  0  0  0
   -0.5760    9.2525   -4.4532 H   0  0  0  0  0  0  0  0  0  0  0  0
    0.2344    9.7300   -0.6570 H   0  0  0  0  0  0  0  0  0  0  0  0
    0.3648    7.7931   -2.3505 H   0  0  0  0  0  0  0  0  0  0  0  0
   -0.2148    7.5142   -0.6255 H   0  0  0  0  0  0  0  0  0  0  0  0
   -1.5572    6.2705   -2.5209 H   0  0  0  0  0  0  0  0  0  0  0  0
   -3.3666    9.8706   -2.2510 H   0  0  0  0  0  0  0  0  0  0  0  0
   -4.1998    8.3993    0.3248 H   0  0  0  0  0  0  0  0  0  0  0  0
   -4.6697   10.0857   -0.1715 H   0  0  0  0  0  0  0  0  0  0  0  0
   -6.4907    8.4544   -0.5562 H   0  0  0  0  0  0  0  0  0  0  0  0
   -5.8914    9.2165   -2.0812 H   0  0  0  0  0  0  0  0  0  0  0  0
   -6.2220    6.8720   -2.4701 H   0  0  0  0  0  0  0  0  0  0  0  0
   -4.3800    6.4800   -0.2880 H   0  0  0  0  0  0  0  0  0  0  0  0
   -4.8233    8.8839   -3.8380 H   0  0  0  0  0  0  0  0  0  0  0  0
   -3.4981    7.9996   -4.6677 H   0  0  0  0  0  0  0  0  0  0  0  0
   -5.1640    7.3276   -4.6677 H   0  0  0  0  0  0  0  0  0  0  0  0
   -3.7455    5.0300   -2.2775 H   0  0  0  0  0  0  0  0  0  0  0  0
   -4.7011    5.2792   -3.7780 H   0  0  0  0  0  0  0  0  0  0  0  0
   -2.9319    5.5899   -3.7780 H   0  0  0  0  0  0  0  0  0  0  0  0
   -1.9902   10.1693    1.4724 H   0  0  0  0  0  0  0  0  0  0  0  0
   -2.6396    8.5768    0.9538 H   0  0  0  0  0  0  0  0  0  0  0  0
   -0.8669    8.8670    0.9538 H   0  0  0  0  0  0  0  0  0  0  0  0
   -3.2493   11.5626   -0.4933 H   0  0  0  0  0  0  0  0  0  0  0  0
   -1.5600   11.7280    0.2503 H   0  0  0  0  0  0  0  0  0  0  0  0
   -2.3376   12.0444   -2.6622 H   0  0  0  0  0  0  0  0  0  0  0  0
   -1.7175   13.2976   -1.5167 H   0  0  0  0  0  0  0  0  0  0  0  0
    0.1350   12.0239   -0.0171 H   0  0  0  0  0  0  0  0  0  0  0  0
    1.5911   11.6304   -0.9925 H   0  0  0  0  0  0  0  0  0  0  0  0
    0.9350   13.3026   -0.9925 H   0  0  0  0  0  0  0  0  0  0  0  0
  1  2  1  0
  2  3  1  0
  3  4  1  0
  4  5  1  0
  5  6  1  0
  6  7  1  0
  7  8  1  0
  7  9  1  0
  2 10  1  0
 10 11  1  0
 11 12  1  0
 12 13  1  0
 13 14  1  6
 13 15  1  0
 15 16  1  0
 16 17  1  0
 17 18  2  0
 18 19  1  0
 19 20  1  0
 20 21  1  0
 21 22  1  0
 22 23  1  0
 22 24  1  0
 24 25  1  0
 24 26  1  0
 19 27  1  0
 27 28  1  1
 27 29  1  0
 29 30  1  0
 30 31  1  0
 31 32  1  1
  7  5  1  0
 31 10  1  0
 31 13  1  0
 27 15  1  0
 24 18  1  0
  1 33  1  0
  1 34  1  0
  1 35  1  0
  2 36  1  1
  3 37  1  0
  3 38  1  0
  4 39  1  0
  4 40  1  0
  5 41  1  6
  8 42  1  0
  8 43  1  0
  8 44  1  0
  9 45  1  0
  9 46  1  0
  9 47  1  0
 10 48  1  6
 11 49  1  0
 11 50  1  0
 12 51  1  0
 12 52  1  0
 14 53  1  0
 14 54  1  0
 14 55  1  0
 15 56  1  1
 16 57  1  0
 16 58  1  0
 17 59  1  0
 19 60  1  6
 20 61  1  0
 20 62  1  0
 21 63  1  0
 21 64  1  0
 22 65  1  6
 23 66  1  0
 25 67  1  0
 25 68  1  0
 25 69  1  0
 26 70  1  0
 26 71  1  0
 26 72  1  0
 28 73  1  0
 28 74  1  0
 28 75  1  0
 29 76  1  0
 29 77  1  0
 30 78  1  0
 30 79  1  0
 32 80  1  0
 32 81  1  0
 32 82  1  0
M  END
>  <meeko>  (14) 
{"is_sidechain": [false], "intermolecular_energy": 2.731, "internal_energy": -0.839}

$$$$
EPH_relaxed_0001_pdb2pqr_Repair_263_r2_0001_out
     RDKit          3D

 82 86  0  0  0  0  0  0  0  0999 V2000
    0.3840    8.9740   -3.0400 C   0  0  0  0  0  0  0  0  0  0  0  0
    1.2540   10.0750   -3.6530 C   0  0  2  0  0  0  0  0  0  0  0  0
    2.7390    9.9240   -3.2700 C   0  0  0  0  0  0  0  0  0  0  0  0
    3.6890   10.7410   -4.1500 C   0  0  0  0  0  0  0  0  0  0  0  0
    5.0420   10.8830   -3.5220 C   0  0  2  0  0  0  0  0  0  0  0  0
    5.7330   12.0940   -3.8570 O   0  0  0  0  0  0  0  0  0  0  0  0
    6.3370   10.8730   -4.3140 C   0  0  0  0  0  0  0  0  0  0  0  0
    6.3400   10.7160   -5.8020 C   0  0  0  0  0  0  0  0  0  0  0  0
    7.6070   10.5250   -3.6030 C   0  0  0  0  0  0  0  0  0  0  0  0
    0.7410   11.4440   -3.2200 C   0  0  1  0  0  0  0  0  0  0  0  0
   -0.7890   11.4530   -2.9600 C   0  0  0  0  0  0  0  0  0  0  0  0
   -1.0370   12.4340   -1.7860 C   0  0  0  0  0  0  0  0  0  0  0  0
    0.2970   13.2000   -1.6290 C   0  0  1  0  0  0  0  0  0  0  0  0
    0.2550   14.3080   -2.7280 C   0  0  0  0  0  0  0  0  0  0  0  0
    0.5870   13.8010   -0.2150 C   0  0  2  0  0  0  0  0  0  0  0  0
   -0.4150   14.8680    0.2590 C   0  0  0  0  0  0  0  0  0  0  0  0
   -0.0670   16.2750   -0.1010 C   0  0  0  0  0  0  0  0  0  0  0  0
    1.1390   16.6980   -0.5240 C   0  0  0  0  0  0  0  0  0  0  0  0
    2.3340   15.7380   -0.5850 C   0  0  1  0  0  0  0  0  0  0  0  0
    3.5780   16.4200    0.0440 C   0  0  0  0  0  0  0  0  0  0  0  0
    3.8850   17.7740   -0.5890 C   0  0  0  0  0  0  0  0  0  0  0  0
    2.6930   18.7190   -0.4570 C   0  0  2  0  0  0  0  0  0  0  0  0
    2.5030   19.0310    0.9260 O   0  0  0  0  0  0  0  0  0  0  0  0
    1.3790   18.1350   -1.0470 C   0  0  0  0  0  0  0  0  0  0  0  0
    1.4820   18.0800   -2.5920 C   0  0  0  0  0  0  0  0  0  0  0  0
    0.2290   19.1260   -0.7240 C   0  0  0  0  0  0  0  0  0  0  0  0
    2.0810   14.2790   -0.0070 C   0  0  1  0  0  0  0  0  0  0  0  0
    2.3450   14.2610    1.5290 C   0  0  0  0  0  0  0  0  0  0  0  0
    3.1210   13.2850   -0.6480 C   0  0  0  0  0  0  0  0  0  0  0  0
    2.7260   12.6320   -1.9860 C   0  0  0  0  0  0  0  0  0  0  0  0
    1.3160   12.0370   -1.9100 C   0  0  2  0  0  0  0  0  0  0  0  0
    1.3330   10.9040   -0.8280 C   0  0  0  0  0  0  0  0  0  0  0  0
    0.4331    9.0361   -1.9429 H   0  0  0  0  0  0  0  0  0  0  0  0
   -0.6577    9.1043   -3.3684 H   0  0  0  0  0  0  0  0  0  0  0  0
    0.7517    7.9907   -3.3684 H   0  0  0  0  0  0  0  0  0  0  0  0
    1.1848    9.9802   -4.7467 H   0  0  0  0  0  0  0  0  0  0  0  0
    2.8636   10.2518   -2.2274 H   0  0  0  0  0  0  0  0  0  0  0  0
    3.0010    8.8651   -3.4119 H   0  0  0  0  0  0  0  0  0  0  0  0
    3.7980   10.2362   -5.1212 H   0  0  0  0  0  0  0  0  0  0  0  0
    3.2614   11.7469   -4.2743 H   0  0  0  0  0  0  0  0  0  0  0  0
    4.7155   10.3213   -2.6343 H   0  0  0  0  0  0  0  0  0  0  0  0
    6.3604    9.6464   -6.0578 H   0  0  0  0  0  0  0  0  0  0  0  0
    5.4329   11.1760   -6.2211 H   0  0  0  0  0  0  0  0  0  0  0  0
    7.2289   11.2103   -6.2211 H   0  0  0  0  0  0  0  0  0  0  0  0
    7.4430   10.5700   -2.5162 H   0  0  0  0  0  0  0  0  0  0  0  0
    7.9184    9.5084   -3.8851 H   0  0  0  0  0  0  0  0  0  0  0  0
    8.3931   11.2408   -3.8851 H   0  0  0  0  0  0  0  0  0  0  0  0
    1.0692   12.0449   -4.0809 H   0  0  0  0  0  0  0  0  0  0  0  0
   -1.3240   11.7944   -3.8585 H   0  0  0  0  0  0  0  0  0  0  0  0
   -1.1542   10.4445   -2.7160 H   0  0  0  0  0  0  0  0  0  0  0  0
   -1.8568   13.1271   -2.0257 H   0  0  0  0  0  0  0  0  0  0  0  0
   -1.3302   11.9135   -0.8624 H   0  0  0  0  0  0  0  0  0  0  0  0
    0.2175   15.2978   -2.2495 H   0  0  0  0  0  0  0  0  0  0  0  0
    1.1565   14.2375   -3.3544 H   0  0  0  0  0  0  0  0  0  0  0  0
   -0.6385   14.1694   -3.3544 H   0  0  0  0  0  0  0  0  0  0  0  0
    0.4346   12.9339    0.4444 H   0  0  0  0  0  0  0  0  0  0  0  0
   -1.3942   14.6358   -0.1852 H   0  0  0  0  0  0  0  0  0  0  0  0
   -0.4082   14.8247    1.3581 H   0  0  0  0  0  0  0  0  0  0  0  0
   -0.8630   17.0291   -0.0131 H   0  0  0  0  0  0  0  0  0  0  0  0
    2.5142   15.5434   -1.6525 H   0  0  0  0  0  0  0  0  0  0  0  0
    3.3943   16.5665    1.1186 H   0  0  0  0  0  0  0  0  0  0  0  0
    4.4435   15.7646   -0.1328 H   0  0  0  0  0  0  0  0  0  0  0  0
    4.7551   18.2188   -0.0840 H   0  0  0  0  0  0  0  0  0  0  0  0
    4.0974   17.6227   -1.6576 H   0  0  0  0  0  0  0  0  0  0  0  0
    2.9230   19.6230   -1.0400 H   0  0  0  0  0  0  0  0  0  0  0  0
    2.6430   19.9870    1.0340 H   0  0  0  0  0  0  0  0  0  0  0  0
    2.4186   17.5799   -2.8795 H   0  0  0  0  0  0  0  0  0  0  0  0
    0.6272   17.5183   -2.9967 H   0  0  0  0  0  0  0  0  0  0  0  0
    1.4733   19.1028   -2.9967 H   0  0  0  0  0  0  0  0  0  0  0  0
    0.1208   19.2192    0.3667 H   0  0  0  0  0  0  0  0  0  0  0  0
    0.4619   20.1109   -1.1549 H   0  0  0  0  0  0  0  0  0  0  0  0
   -0.7107   18.7502   -1.1549 H   0  0  0  0  0  0  0  0  0  0  0  0
    1.3874   14.3263    2.0664 H   0  0  0  0  0  0  0  0  0  0  0  0
    2.8558   13.3259    1.8023 H   0  0  0  0  0  0  0  0  0  0  0  0
    2.9780   15.1181    1.8023 H   0  0  0  0  0  0  0  0  0  0  0  0
    4.0552   13.8418   -0.8128 H   0  0  0  0  0  0  0  0  0  0  0  0
    3.1998   12.4519    0.0660 H   0  0  0  0  0  0  0  0  0  0  0  0
    2.7533   13.3930   -2.7798 H   0  0  0  0  0  0  0  0  0  0  0  0
    3.4374   11.8221   -2.2049 H   0  0  0  0  0  0  0  0  0  0  0  0
    1.3262   11.3550    0.1753 H   0  0  0  0  0  0  0  0  0  0  0  0
    0.4443   10.2673   -0.9498 H   0  0  0  0  0  0  0  0  0  0  0  0
    2.2404   10.2942   -0.9498 H   0  0  0  0  0  0  0  0  0  0  0  0
  1  2  1  0
  2  3  1  0
  3  4  1  0
  4  5  1  0
  5  6  1  0
  6  7  1  0
  7  8  1  0
  7  9  1  0
  2 10  1  0
 10 11  1  0
 11 12  1  0
 12 13  1  0
 13 14  1  6
 13 15  1  0
 15 16  1  0
 16 17  1  0
 17 18  2  0
 18 19  1  0
 19 20  1  0
 20 21  1  0
 21 22  1  0
 22 23  1  0
 22 24  1  0
 24 25  1  0
 24 26  1  0
 19 27  1  0
 27 28  1  1
 27 29  1  0
 29 30  1  0
 30 31  1  0
 31 32  1  1
  7  5  1  0
 31 10  1  0
 31 13  1  0
 27 15  1  0
 24 18  1  0
  1 33  1  0
  1 34  1  0
  1 35  1  0
  2 36  1  6
  3 37  1  0
  3 38  1  0
  4 39  1  0
  4 40  1  0
  5 41  1  1
  8 42  1  0
  8 43  1  0
  8 44  1  0
  9 45  1  0
  9 46  1  0
  9 47  1  0
 10 48  1  6
 11 49  1  0
 11 50  1  0
 12 51  1  0
 12 52  1  0
 14 53  1  0
 14 54  1  0
 14 55  1  0
 15 56  1  1
 16 57  1  0
 16 58  1  0
 17 59  1  0
 19 60  1  6
 20 61  1  0
 20 62  1  0
 21 63  1  0
 21 64  1  0
 22 65  1  6
 23 66  1  0
 25 67  1  0
 25 68  1  0
 25 69  1  0
 26 70  1  0
 26 71  1  0
 26 72  1  0
 28 73  1  0
 28 74  1  0
 28 75  1  0
 29 76  1  0
 29 77  1  0
 30 78  1  0
 30 79  1  0
 32 80  1  0
 32 81  1  0
 32 82  1  0
M  END
>  <meeko>  (15) 
{"is_sidechain": [false], "intermolecular_energy": 2.731, "internal_energy": -0.839}

$$$$
EPH_relaxed_0001_pdb2pqr_Repair_263_r2_0001_out
     RDKit          3D

 82 86  0  0  0  0  0  0  0  0999 V2000
  -14.3180    5.3810    0.4720 C   0  0  0  0  0  0  0  0  0  0  0  0
  -13.8030    6.8130    0.3000 C   0  0  2  0  0  0  0  0  0  0  0  0
  -14.9380    7.8040   -0.0260 C   0  0  0  0  0  0  0  0  0  0  0  0
  -14.5700    9.2680    0.2300 C   0  0  0  0  0  0  0  0  0  0  0  0
  -15.2850   10.1920   -0.7090 C   0  0  2  0  0  0  0  0  0  0  0  0
  -15.1960    9.8250   -2.0920 O   0  0  0  0  0  0  0  0  0  0  0  0
  -14.5730   11.0670   -1.7240 C   0  0  0  0  0  0  0  0  0  0  0  0
  -13.0820   11.0620   -1.8500 C   0  0  0  0  0  0  0  0  0  0  0  0
  -15.2840   12.2760   -2.2490 C   0  0  0  0  0  0  0  0  0  0  0  0
  -12.7430    6.8560   -0.7950 C   0  0  1  0  0  0  0  0  0  0  0  0
  -13.1240    7.8120   -1.9570 C   0  0  0  0  0  0  0  0  0  0  0  0
  -11.8040    8.4500   -2.4610 C   0  0  0  0  0  0  0  0  0  0  0  0
  -10.6870    7.6030   -1.8080 C   0  0  1  0  0  0  0  0  0  0  0  0
  -10.5660    6.3350   -2.7100 C   0  0  0  0  0  0  0  0  0  0  0  0
   -9.3050    8.3110   -1.6180 C   0  0  2  0  0  0  0  0  0  0  0  0
   -8.6120    8.7480   -2.9200 C   0  0  0  0  0  0  0  0  0  0  0  0
   -7.6940    7.7370   -3.5240 C   0  0  0  0  0  0  0  0  0  0  0  0
   -7.2170    6.6430   -2.9020 C   0  0  0  0  0  0  0  0  0  0  0  0
   -7.5170    6.3860   -1.4190 C   0  0  1  0  0  0  0  0  0  0  0  0
   -6.2100    5.9820   -0.6890 C   0  0  0  0  0  0  0  0  0  0  0  0
   -5.5080    4.8020   -1.3550 C   0  0  0  0  0  0  0  0  0  0  0  0
   -5.1740    5.1180   -2.8100 C   0  0  2  0  0  0  0  0  0  0  0  0
   -4.1890    6.1550   -2.8430 O   0  0  0  0  0  0  0  0  0  0  0  0
   -6.4130    5.5470   -3.6440 C   0  0  0  0  0  0  0  0  0  0  0  0
   -7.3420    4.3280   -3.8630 C   0  0  0  0  0  0  0  0  0  0  0  0
   -5.9170    5.9730   -5.0530 C   0  0  0  0  0  0  0  0  0  0  0  0
   -8.3080    7.5390   -0.6630 C   0  0  1  0  0  0  0  0  0  0  0  0
   -7.3060    8.6000   -0.1140 C   0  0  0  0  0  0  0  0  0  0  0  0
   -9.0350    6.9240    0.5920 C   0  0  0  0  0  0  0  0  0  0  0  0
  -10.4460    6.3490    0.3640 C   0  0  0  0  0  0  0  0  0  0  0  0
  -11.3280    7.3440   -0.3960 C   0  0  2  0  0  0  0  0  0  0  0  0
  -11.4860    8.6220    0.4960 C   0  0  0  0  0  0  0  0  0  0  0  0
  -14.4019    5.1478    1.5437 H   0  0  0  0  0  0  0  0  0  0  0  0
  -15.3062    5.2873   -0.0021 H   0  0  0  0  0  0  0  0  0  0  0  0
  -13.6159    4.6794   -0.0021 H   0  0  0  0  0  0  0  0  0  0  0  0
  -13.3607    7.1226    1.2584 H   0  0  0  0  0  0  0  0  0  0  0  0
  -15.2015    7.6929   -1.0882 H   0  0  0  0  0  0  0  0  0  0  0  0
  -15.7774    7.5622    0.6425 H   0  0  0  0  0  0  0  0  0  0  0  0
  -14.8429    9.5287    1.2632 H   0  0  0  0  0  0  0  0  0  0  0  0
  -13.4883    9.3831    0.0668 H   0  0  0  0  0  0  0  0  0  0  0  0
  -16.0470   10.4156    0.0521 H   0  0  0  0  0  0  0  0  0  0  0  0
  -12.6293   11.0605   -0.8475 H   0  0  0  0  0  0  0  0  0  0  0  0
  -12.7633   10.1628   -2.3976 H   0  0  0  0  0  0  0  0  0  0  0  0
  -12.7573   11.9591   -2.3976 H   0  0  0  0  0  0  0  0  0  0  0  0
  -15.6424   12.8854   -1.4063 H   0  0  0  0  0  0  0  0  0  0  0  0
  -14.5917   12.8706   -2.8632 H   0  0  0  0  0  0  0  0  0  0  0  0
  -16.1401   11.9600   -2.8632 H   0  0  0  0  0  0  0  0  0  0  0  0
  -12.7108    5.7897   -1.0633 H   0  0  0  0  0  0  0  0  0  0  0  0
  -13.6066    7.2481   -2.7689 H   0  0  0  0  0  0  0  0  0  0  0  0
  -13.8318    8.5830   -1.6187 H   0  0  0  0  0  0  0  0  0  0  0  0
  -11.7409    8.3965   -3.5579 H   0  0  0  0  0  0  0  0  0  0  0  0
  -11.7281    9.5151   -2.1970 H   0  0  0  0  0  0  0  0  0  0  0  0
  -10.4806    5.4405   -2.0755 H   0  0  0  0  0  0  0  0  0  0  0  0
  -11.4601    6.2501   -3.3451 H   0  0  0  0  0  0  0  0  0  0  0  0
   -9.6720    6.4208   -3.3451 H   0  0  0  0  0  0  0  0  0  0  0  0
   -9.5847    9.2414   -1.1021 H   0  0  0  0  0  0  0  0  0  0  0  0
   -9.3928    8.9824   -3.6586 H   0  0  0  0  0  0  0  0  0  0  0  0
   -7.9829    9.6107   -2.6553 H   0  0  0  0  0  0  0  0  0  0  0  0
   -7.3810    7.9003   -4.5658 H   0  0  0  0  0  0  0  0  0  0  0  0
   -8.2317    5.5503   -1.3927 H   0  0  0  0  0  0  0  0  0  0  0  0
   -5.5263    6.8437   -0.6874 H   0  0  0  0  0  0  0  0  0  0  0  0
   -6.4793    5.6766    0.3329 H   0  0  0  0  0  0  0  0  0  0  0  0
   -4.5773    4.5830   -0.8112 H   0  0  0  0  0  0  0  0  0  0  0  0
   -6.1813    3.9325   -1.3297 H   0  0  0  0  0  0  0  0  0  0  0  0
   -4.7925    4.1937   -3.2684 H   0  0  0  0  0  0  0  0  0  0  0  0
   -4.6490    7.0020   -2.7180 H   0  0  0  0  0  0  0  0  0  0  0  0
   -7.6509    3.9226   -2.8882 H   0  0  0  0  0  0  0  0  0  0  0  0
   -8.2319    4.6420   -4.4282 H   0  0  0  0  0  0  0  0  0  0  0  0
   -6.8032    3.5532   -4.4282 H   0  0  0  0  0  0  0  0  0  0  0  0
   -5.0863    6.6865   -4.9491 H   0  0  0  0  0  0  0  0  0  0  0  0
   -5.5716    5.0858   -5.6039 H   0  0  0  0  0  0  0  0  0  0  0  0
   -6.7419    6.4484   -5.6039 H   0  0  0  0  0  0  0  0  0  0  0  0
   -7.3211    8.5840    0.9858 H   0  0  0  0  0  0  0  0  0  0  0  0
   -6.2920    8.3656   -0.4702 H   0  0  0  0  0  0  0  0  0  0  0  0
   -7.5980    9.5989   -0.4702 H   0  0  0  0  0  0  0  0  0  0  0  0
   -8.4025    6.1109    0.9778 H   0  0  0  0  0  0  0  0  0  0  0  0
   -9.1757    7.7666    1.2850 H   0  0  0  0  0  0  0  0  0  0  0  0
  -10.3659    5.4203   -0.2200 H   0  0  0  0  0  0  0  0  0  0  0  0
  -10.9058    6.1501    1.3433 H   0  0  0  0  0  0  0  0  0  0  0  0
  -11.4505    8.3351    1.5573 H   0  0  0  0  0  0  0  0  0  0  0  0
  -10.6679    9.3244    0.2785 H   0  0  0  0  0  0  0  0  0  0  0  0
  -12.4506    9.1040    0.2785 H   0  0  0  0  0  0  0  0  0  0  0  0
  1  2  1  0
  2  3  1  0
  3  4  1  0
  4  5  1  0
  5  6  1  0
  6  7  1  0
  7  8  1  0
  7  9  1  0
  2 10  1  0
 10 11  1  0
 11 12  1  0
 12 13  1  0
 13 14  1  6
 13 15  1  0
 15 16  1  0
 16 17  1  0
 17 18  2  0
 18 19  1  0
 19 20  1  0
 20 21  1  0
 21 22  1  0
 22 23  1  0
 22 24  1  0
 24 25  1  0
 24 26  1  0
 19 27  1  0
 27 28  1  1
 27 29  1  0
 29 30  1  0
 30 31  1  0
 31 32  1  1
  7  5  1  0
 31 10  1  0
 31 13  1  0
 27 15  1  0
 24 18  1  0
  1 33  1  0
  1 34  1  0
  1 35  1  0
  2 36  1  1
  3 37  1  0
  3 38  1  0
  4 39  1  0
  4 40  1  0
  5 41  1  1
  8 42  1  0
  8 43  1  0
  8 44  1  0
  9 45  1  0
  9 46  1  0
  9 47  1  0
 10 48  1  6
 11 49  1  0
 11 50  1  0
 12 51  1  0
 12 52  1  0
 14 53  1  0
 14 54  1  0
 14 55  1  0
 15 56  1  1
 16 57  1  0
 16 58  1  0
 17 59  1  0
 19 60  1  6
 20 61  1  0
 20 62  1  0
 21 63  1  0
 21 64  1  0
 22 65  1  6
 23 66  1  0
 25 67  1  0
 25 68  1  0
 25 69  1  0
 26 70  1  0
 26 71  1  0
 26 72  1  0
 28 73  1  0
 28 74  1  0
 28 75  1  0
 29 76  1  0
 29 77  1  0
 30 78  1  0
 30 79  1  0
 32 80  1  0
 32 81  1  0
 32 82  1  0
M  END
>  <meeko>  (16) 
{"is_sidechain": [false], "intermolecular_energy": 2.731, "internal_energy": -0.839}

$$$$
EPH_relaxed_0001_pdb2pqr_Repair_263_r2_0001_out
     RDKit          3D

 82 86  0  0  0  0  0  0  0  0999 V2000
   -2.2110   14.3640   -0.2240 C   0  0  0  0  0  0  0  0  0  0  0  0
   -0.9540   14.9230    0.4480 C   0  0  2  0  0  0  0  0  0  0  0  0
   -0.6470   16.3650   -0.0020 C   0  0  0  0  0  0  0  0  0  0  0  0
    0.8290   16.6070   -0.3300 C   0  0  0  0  0  0  0  0  0  0  0  0
    1.2550   17.9990    0.0250 C   0  0  2  0  0  0  0  0  0  0  0  0
    1.8130   18.7500   -1.0610 O   0  0  0  0  0  0  0  0  0  0  0  0
    2.7020   18.4550    0.0280 C   0  0  0  0  0  0  0  0  0  0  0  0
    3.8160   17.5220   -0.3310 C   0  0  0  0  0  0  0  0  0  0  0  0
    3.0730   19.6540    0.8450 C   0  0  0  0  0  0  0  0  0  0  0  0
    0.2380   14.0200    0.1530 C   0  0  1  0  0  0  0  0  0  0  0  0
    0.4920   12.9800    1.2760 C   0  0  0  0  0  0  0  0  0  0  0  0
    1.0040   11.6900    0.5840 C   0  0  0  0  0  0  0  0  0  0  0  0
    1.3410   12.1300   -0.8600 C   0  0  1  0  0  0  0  0  0  0  0  0
    2.7540   12.7870   -0.7590 C   0  0  0  0  0  0  0  0  0  0  0  0
    1.3020   11.0100   -1.9510 C   0  0  2  0  0  0  0  0  0  0  0  0
    2.3160    9.8700   -1.7520 C   0  0  0  0  0  0  0  0  0  0  0  0
    3.6410   10.0740   -2.4100 C   0  0  0  0  0  0  0  0  0  0  0  0
    3.9100   10.9870   -3.3610 C   0  0  0  0  0  0  0  0  0  0  0  0
    2.7980   11.8720   -3.9410 C   0  0  1  0  0  0  0  0  0  0  0  0
    2.9070   11.8940   -5.4880 C   0  0  0  0  0  0  0  0  0  0  0  0
    4.2940   12.3080   -5.9710 C   0  0  0  0  0  0  0  0  0  0  0  0
    5.3660   11.3700   -5.4210 C   0  0  2  0  0  0  0  0  0  0  0  0
    5.1830   10.0730   -5.9980 O   0  0  0  0  0  0  0  0  0  0  0  0
    5.3470   11.2590   -3.8710 C   0  0  0  0  0  0  0  0  0  0  0  0
    5.8390   12.5890   -3.2480 C   0  0  0  0  0  0  0  0  0  0  0  0
    6.3800   10.1770   -3.4570 C   0  0  0  0  0  0  0  0  0  0  0  0
    1.3250   11.5530   -3.4370 C   0  0  1  0  0  0  0  0  0  0  0  0
    0.6880   10.4410   -4.3260 C   0  0  0  0  0  0  0  0  0  0  0  0
    0.4300   12.8350   -3.6200 C   0  0  0  0  0  0  0  0  0  0  0  0
    0.4180   13.8460   -2.4580 C   0  0  0  0  0  0  0  0  0  0  0  0
    0.1660   13.1410   -1.1210 C   0  0  2  0  0  0  0  0  0  0  0  0
   -1.2570   12.4900   -1.1850 C   0  0  0  0  0  0  0  0  0  0  0  0
   -2.9280   14.0452    0.5469 H   0  0  0  0  0  0  0  0  0  0  0  0
   -2.6690   15.1433   -0.8509 H   0  0  0  0  0  0  0  0  0  0  0  0
   -1.9391   13.5020   -0.8509 H   0  0  0  0  0  0  0  0  0  0  0  0
   -1.1418   14.9489    1.5315 H   0  0  0  0  0  0  0  0  0  0  0  0
   -1.2426   16.5824   -0.9009 H   0  0  0  0  0  0  0  0  0  0  0  0
   -0.9014   17.0253    0.8402 H   0  0  0  0  0  0  0  0  0  0  0  0
    1.4421   15.8911    0.2370 H   0  0  0  0  0  0  0  0  0  0  0  0
    0.9659   16.4724   -1.4131 H   0  0  0  0  0  0  0  0  0  0  0  0
    0.4546   18.0780    0.7754 H   0  0  0  0  0  0  0  0  0  0  0  0
    4.2796   17.1337    0.5879 H   0  0  0  0  0  0  0  0  0  0  0  0
    3.4169   16.6847   -0.9224 H   0  0  0  0  0  0  0  0  0  0  0  0
    4.5702   18.0619   -0.9224 H   0  0  0  0  0  0  0  0  0  0  0  0
    2.9966   19.4071    1.9142 H   0  0  0  0  0  0  0  0  0  0  0  0
    4.1055   19.9523    0.6105 H   0  0  0  0  0  0  0  0  0  0  0  0
    2.3894   20.4833    0.6105 H   0  0  0  0  0  0  0  0  0  0  0  0
    1.0233   14.7821    0.0406 H   0  0  0  0  0  0  0  0  0  0  0  0
    1.2487   13.3587    1.9788 H   0  0  0  0  0  0  0  0  0  0  0  0
   -0.4272   12.7834    1.8474 H   0  0  0  0  0  0  0  0  0  0  0  0
    1.9008   11.3062    1.0924 H   0  0  0  0  0  0  0  0  0  0  0  0
    0.2612   10.8791    0.6106 H   0  0  0  0  0  0  0  0  0  0  0  0
    3.0250   12.9130    0.2996 H   0  0  0  0  0  0  0  0  0  0  0  0
    3.4949   12.1410   -1.2527 H   0  0  0  0  0  0  0  0  0  0  0  0
    2.7375   13.7698   -1.2527 H   0  0  0  0  0  0  0  0  0  0  0  0
    0.3116   10.5586   -1.7918 H   0  0  0  0  0  0  0  0  0  0  0  0
    2.4873    9.7519   -0.6719 H   0  0  0  0  0  0  0  0  0  0  0  0
    1.8734    8.9821   -2.2270 H   0  0  0  0  0  0  0  0  0  0  0  0
    4.4674    9.4224   -2.0899 H   0  0  0  0  0  0  0  0  0  0  0  0
    2.9729   12.8816   -3.5409 H   0  0  0  0  0  0  0  0  0  0  0  0
    2.6861   10.8869   -5.8714 H   0  0  0  0  0  0  0  0  0  0  0  0
    2.1874   12.6367   -5.8629 H   0  0  0  0  0  0  0  0  0  0  0  0
    4.3169   12.2756   -7.0703 H   0  0  0  0  0  0  0  0  0  0  0  0
    4.5012   13.3268   -5.6118 H   0  0  0  0  0  0  0  0  0  0  0  0
    6.3447   11.7922   -5.6930 H   0  0  0  0  0  0  0  0  0  0  0  0
    4.2300    9.8830   -5.9980 H   0  0  0  0  0  0  0  0  0  0  0  0
    5.8107   12.5126   -2.1510 H   0  0  0  0  0  0  0  0  0  0  0  0
    6.8702   12.7879   -3.5753 H   0  0  0  0  0  0  0  0  0  0  0  0
    5.1855   13.4111   -3.5753 H   0  0  0  0  0  0  0  0  0  0  0  0
    6.4330   10.1215   -2.3597 H   0  0  0  0  0  0  0  0  0  0  0  0
    6.0699    9.2012   -3.8590 H   0  0  0  0  0  0  0  0  0  0  0  0
    7.3692   10.4416   -3.8590 H   0  0  0  0  0  0  0  0  0  0  0  0
    0.2444    9.6667   -3.6829 H   0  0  0  0  0  0  0  0  0  0  0  0
   -0.0942   10.8825   -4.9611 H   0  0  0  0  0  0  0  0  0  0  0  0
    1.4645    9.9896   -4.9611 H   0  0  0  0  0  0  0  0  0  0  0  0
    0.7852   13.3634   -4.5170 H   0  0  0  0  0  0  0  0  0  0  0  0
   -0.6016   12.4587   -3.6844 H   0  0  0  0  0  0  0  0  0  0  0  0
    1.3903   14.3587   -2.4169 H   0  0  0  0  0  0  0  0  0  0  0  0
   -0.3918   14.5701   -2.6311 H   0  0  0  0  0  0  0  0  0  0  0  0
   -1.6287   12.3200   -0.1638 H   0  0  0  0  0  0  0  0  0  0  0  0
   -1.9445   13.1631   -1.7181 H   0  0  0  0  0  0  0  0  0  0  0  0
   -1.1972   11.5297   -1.7181 H   0  0  0  0  0  0  0  0  0  0  0  0
  1  2  1  0
  2  3  1  0
  3  4  1  0
  4  5  1  0
  5  6  1  0
  6  7  1  0
  7  8  1  0
  7  9  1  0
  2 10  1  0
 10 11  1  0
 11 12  1  0
 12 13  1  0
 13 14  1  1
 13 15  1  0
 15 16  1  0
 16 17  1  0
 17 18  2  0
 18 19  1  0
 19 20  1  0
 20 21  1  0
 21 22  1  0
 22 23  1  0
 22 24  1  0
 24 25  1  0
 24 26  1  0
 19 27  1  0
 27 28  1  6
 27 29  1  0
 29 30  1  0
 30 31  1  0
 31 32  1  6
  7  5  1  0
 31 10  1  0
 31 13  1  0
 27 15  1  0
 24 18  1  0
  1 33  1  0
  1 34  1  0
  1 35  1  0
  2 36  1  1
  3 37  1  0
  3 38  1  0
  4 39  1  0
  4 40  1  0
  5 41  1  1
  8 42  1  0
  8 43  1  0
  8 44  1  0
  9 45  1  0
  9 46  1  0
  9 47  1  0
 10 48  1  6
 11 49  1  0
 11 50  1  0
 12 51  1  0
 12 52  1  0
 14 53  1  0
 14 54  1  0
 14 55  1  0
 15 56  1  6
 16 57  1  0
 16 58  1  0
 17 59  1  0
 19 60  1  1
 20 61  1  0
 20 62  1  0
 21 63  1  0
 21 64  1  0
 22 65  1  1
 23 66  1  0
 25 67  1  0
 25 68  1  0
 25 69  1  0
 26 70  1  0
 26 71  1  0
 26 72  1  0
 28 73  1  0
 28 74  1  0
 28 75  1  0
 29 76  1  0
 29 77  1  0
 30 78  1  0
 30 79  1  0
 32 80  1  0
 32 81  1  0
 32 82  1  0
M  END
>  <meeko>  (17) 
{"is_sidechain": [false], "intermolecular_energy": 2.731, "internal_energy": -0.839}

$$$$
EPH_relaxed_0001_pdb2pqr_Repair_263_r2_0001_out
     RDKit          3D

 82 86  0  0  0  0  0  0  0  0999 V2000
   -7.8930    7.9940   -3.0760 C   0  0  0  0  0  0  0  0  0  0  0  0
   -6.9550    7.2560   -2.1170 C   0  0  2  0  0  0  0  0  0  0  0  0
   -7.7240    6.5460   -0.9840 C   0  0  0  0  0  0  0  0  0  0  0  0
   -9.2450    6.6020   -1.1440 C   0  0  0  0  0  0  0  0  0  0  0  0
   -9.9090    7.1850    0.0670 C   0  0  2  0  0  0  0  0  0  0  0  0
  -10.8970    6.3400    0.6730 O   0  0  0  0  0  0  0  0  0  0  0  0
  -11.3750    7.5730    0.1110 C   0  0  0  0  0  0  0  0  0  0  0  0
  -12.2660    7.3960   -1.0780 C   0  0  0  0  0  0  0  0  0  0  0  0
  -11.8200    8.5700    1.1360 C   0  0  0  0  0  0  0  0  0  0  0  0
   -5.9420    8.2310   -1.5270 C   0  0  1  0  0  0  0  0  0  0  0  0
   -6.0930    8.3930    0.0090 C   0  0  0  0  0  0  0  0  0  0  0  0
   -4.6660    8.5940    0.5790 C   0  0  0  0  0  0  0  0  0  0  0  0
   -3.7850    8.8730   -0.6610 C   0  0  1  0  0  0  0  0  0  0  0  0
   -4.0070   10.3840   -0.9800 C   0  0  0  0  0  0  0  0  0  0  0  0
   -2.2660    8.5290   -0.5220 C   0  0  2  0  0  0  0  0  0  0  0  0
   -1.5120    9.3320    0.5530 C   0  0  0  0  0  0  0  0  0  0  0  0
   -0.8920   10.6050    0.0800 C   0  0  0  0  0  0  0  0  0  0  0  0
   -0.6940   10.9470   -1.2070 C   0  0  0  0  0  0  0  0  0  0  0  0
   -1.0180    9.9680   -2.3420 C   0  0  1  0  0  0  0  0  0  0  0  0
    0.1590    9.9360   -3.3510 C   0  0  0  0  0  0  0  0  0  0  0  0
    0.5260   11.3250   -3.8660 C   0  0  0  0  0  0  0  0  0  0  0  0
    0.8990   12.2530   -2.7130 C   0  0  2  0  0  0  0  0  0  0  0  0
    2.1130   11.7850   -2.1180 O   0  0  0  0  0  0  0  0  0  0  0  0
   -0.2090   12.3570   -1.6270 C   0  0  0  0  0  0  0  0  0  0  0  0
   -1.4200   13.1390   -2.1920 C   0  0  0  0  0  0  0  0  0  0  0  0
    0.3500   13.2090   -0.4550 C   0  0  0  0  0  0  0  0  0  0  0  0
   -1.4760    8.5140   -1.8930 C   0  0  1  0  0  0  0  0  0  0  0  0
   -0.2280    7.6050   -1.6770 C   0  0  0  0  0  0  0  0  0  0  0  0
   -2.3090    7.8550   -3.0560 C   0  0  0  0  0  0  0  0  0  0  0  0
   -3.8240    8.1350   -3.0700 C   0  0  0  0  0  0  0  0  0  0  0  0
   -4.4420    7.8830   -1.6920 C   0  0  2  0  0  0  0  0  0  0  0  0
   -4.2530    6.3650   -1.3540 C   0  0  0  0  0  0  0  0  0  0  0  0
   -8.6282    8.5724   -2.4972 H   0  0  0  0  0  0  0  0  0  0  0  0
   -7.3070    8.6758   -3.7099 H   0  0  0  0  0  0  0  0  0  0  0  0
   -8.4177    7.2640   -3.7099 H   0  0  0  0  0  0  0  0  0  0  0  0
   -6.4316    6.4816   -2.6970 H   0  0  0  0  0  0  0  0  0  0  0  0
   -7.4156    5.4903   -0.9634 H   0  0  0  0  0  0  0  0  0  0  0  0
   -7.4793    7.0730   -0.0500 H   0  0  0  0  0  0  0  0  0  0  0  0
   -9.4888    7.2236   -2.0182 H   0  0  0  0  0  0  0  0  0  0  0  0
   -9.6139    5.5741   -1.2758 H   0  0  0  0  0  0  0  0  0  0  0  0
   -8.9928    7.7309    0.3363 H   0  0  0  0  0  0  0  0  0  0  0  0
  -13.2926    7.1921   -0.7397 H   0  0  0  0  0  0  0  0  0  0  0  0
  -12.2552    8.3138   -1.6842 H   0  0  0  0  0  0  0  0  0  0  0  0
  -11.9052    6.5520   -1.6842 H   0  0  0  0  0  0  0  0  0  0  0  0
  -11.6396    8.1659    2.1431 H   0  0  0  0  0  0  0  0  0  0  0  0
  -11.2535    9.5043    1.0089 H   0  0  0  0  0  0  0  0  0  0  0  0
  -12.8938    8.7721    1.0089 H   0  0  0  0  0  0  0  0  0  0  0  0
   -6.1865    9.1289   -2.1135 H   0  0  0  0  0  0  0  0  0  0  0  0
   -6.7192    9.2679    0.2380 H   0  0  0  0  0  0  0  0  0  0  0  0
   -6.5757    7.5104    0.4540 H   0  0  0  0  0  0  0  0  0  0  0  0
   -4.6417    9.4476    1.2724 H   0  0  0  0  0  0  0  0  0  0  0  0
   -4.3181    7.7200    1.1492 H   0  0  0  0  0  0  0  0  0  0  0  0
   -4.0900   10.9489   -0.0398 H   0  0  0  0  0  0  0  0  0  0  0  0
   -3.1552   10.7648   -1.5626 H   0  0  0  0  0  0  0  0  0  0  0  0
   -4.9324   10.5037   -1.5626 H   0  0  0  0  0  0  0  0  0  0  0  0
   -2.2911    7.4913   -0.1580 H   0  0  0  0  0  0  0  0  0  0  0  0
   -2.2235    9.5779    1.3550 H   0  0  0  0  0  0  0  0  0  0  0  0
   -0.6801    8.6925    0.8830 H   0  0  0  0  0  0  0  0  0  0  0  0
   -0.5698   11.3240    0.8476 H   0  0  0  0  0  0  0  0  0  0  0  0
   -1.9200   10.3610   -2.8339 H   0  0  0  0  0  0  0  0  0  0  0  0
    1.0382    9.5007   -2.8535 H   0  0  0  0  0  0  0  0  0  0  0  0
   -0.1576    9.3325   -4.2145 H   0  0  0  0  0  0  0  0  0  0  0  0
    1.3822   11.2403   -4.5514 H   0  0  0  0  0  0  0  0  0  0  0  0
   -0.3448   11.7471   -4.3889 H   0  0  0  0  0  0  0  0  0  0  0  0
    1.0251   13.2629   -3.1305 H   0  0  0  0  0  0  0  0  0  0  0  0
    2.5210   11.1560   -2.7380 H   0  0  0  0  0  0  0  0  0  0  0  0
   -2.0247   13.5295   -1.3602 H   0  0  0  0  0  0  0  0  0  0  0  0
   -1.0606   13.9760   -2.8086 H   0  0  0  0  0  0  0  0  0  0  0  0
   -2.0350   12.4670   -2.8086 H   0  0  0  0  0  0  0  0  0  0  0  0
    0.0526   12.7558    0.5022 H   0  0  0  0  0  0  0  0  0  0  0  0
    1.4476   13.2446   -0.5185 H   0  0  0  0  0  0  0  0  0  0  0  0
   -0.0543   14.2300   -0.5185 H   0  0  0  0  0  0  0  0  0  0  0  0
   -0.0506    7.4758   -0.5991 H   0  0  0  0  0  0  0  0  0  0  0  0
   -0.4052    6.6229   -2.1397 H   0  0  0  0  0  0  0  0  0  0  0  0
    0.6524    8.0749   -2.1397 H   0  0  0  0  0  0  0  0  0  0  0  0
   -1.8948    8.2171   -4.0086 H   0  0  0  0  0  0  0  0  0  0  0  0
   -2.2181    6.7704   -2.8965 H   0  0  0  0  0  0  0  0  0  0  0  0
   -3.9932    9.1843   -3.3535 H   0  0  0  0  0  0  0  0  0  0  0  0
   -4.2985    7.4581   -3.7957 H   0  0  0  0  0  0  0  0  0  0  0  0
   -4.2364    6.2318   -0.2622 H   0  0  0  0  0  0  0  0  0  0  0  0
   -5.0862    5.7877   -1.7812 H   0  0  0  0  0  0  0  0  0  0  0  0
   -3.3037    6.0097   -1.7812 H   0  0  0  0  0  0  0  0  0  0  0  0
  1  2  1  0
  2  3  1  0
  3  4  1  0
  4  5  1  0
  5  6  1  0
  6  7  1  0
  7  8  1  0
  7  9  1  0
  2 10  1  0
 10 11  1  0
 11 12  1  0
 12 13  1  0
 13 14  1  6
 13 15  1  0
 15 16  1  0
 16 17  1  0
 17 18  2  0
 18 19  1  0
 19 20  1  0
 20 21  1  0
 21 22  1  0
 22 23  1  0
 22 24  1  0
 24 25  1  0
 24 26  1  0
 19 27  1  0
 27 28  1  1
 27 29  1  0
 29 30  1  0
 30 31  1  0
 31 32  1  1
  7  5  1  0
 31 10  1  0
 31 13  1  0
 27 15  1  0
 24 18  1  0
  1 33  1  0
  1 34  1  0
  1 35  1  0
  2 36  1  6
  3 37  1  0
  3 38  1  0
  4 39  1  0
  4 40  1  0
  5 41  1  1
  8 42  1  0
  8 43  1  0
  8 44  1  0
  9 45  1  0
  9 46  1  0
  9 47  1  0
 10 48  1  6
 11 49  1  0
 11 50  1  0
 12 51  1  0
 12 52  1  0
 14 53  1  0
 14 54  1  0
 14 55  1  0
 15 56  1  1
 16 57  1  0
 16 58  1  0
 17 59  1  0
 19 60  1  6
 20 61  1  0
 20 62  1  0
 21 63  1  0
 21 64  1  0
 22 65  1  6
 23 66  1  0
 25 67  1  0
 25 68  1  0
 25 69  1  0
 26 70  1  0
 26 71  1  0
 26 72  1  0
 28 73  1  0
 28 74  1  0
 28 75  1  0
 29 76  1  0
 29 77  1  0
 30 78  1  0
 30 79  1  0
 32 80  1  0
 32 81  1  0
 32 82  1  0
M  END
>  <meeko>  (18) 
{"is_sidechain": [false], "intermolecular_energy": 2.731, "internal_energy": -0.839}

$$$$
EPH_relaxed_0001_pdb2pqr_Repair_263_r2_0001_out
     RDKit          3D

 82 86  0  0  0  0  0  0  0  0999 V2000
    3.3740   17.3250   -0.1020 C   0  0  0  0  0  0  0  0  0  0  0  0
    2.5760   17.0580   -1.3810 C   0  0  2  0  0  0  0  0  0  0  0  0
    1.1450   17.6270   -1.3020 C   0  0  0  0  0  0  0  0  0  0  0  0
    0.8360   18.3320    0.0210 C   0  0  0  0  0  0  0  0  0  0  0  0
   -0.2540   19.3500   -0.1340 C   0  0  2  0  0  0  0  0  0  0  0  0
   -0.7080   19.9330    1.0940 O   0  0  0  0  0  0  0  0  0  0  0  0
   -1.6690   19.1450    0.3740 C   0  0  0  0  0  0  0  0  0  0  0  0
   -2.0710   17.8850    1.0750 C   0  0  0  0  0  0  0  0  0  0  0  0
   -2.7720   19.9500   -0.2380 C   0  0  0  0  0  0  0  0  0  0  0  0
    2.5260   15.5610   -1.6600 C   0  0  1  0  0  0  0  0  0  0  0  0
    3.9310   14.9540   -1.9190 C   0  0  0  0  0  0  0  0  0  0  0  0
    3.9170   13.5230   -1.3230 C   0  0  0  0  0  0  0  0  0  0  0  0
    2.4240   13.2320   -1.0430 C   0  0  1  0  0  0  0  0  0  0  0  0
    1.8340   12.8000   -2.4220 C   0  0  0  0  0  0  0  0  0  0  0  0
    2.1230   12.1760    0.0700 C   0  0  2  0  0  0  0  0  0  0  0  0
    2.6440   10.7570   -0.2180 C   0  0  0  0  0  0  0  0  0  0  0  0
    1.6890    9.8610   -0.9340 C   0  0  0  0  0  0  0  0  0  0  0  0
    0.3690   10.0800   -1.0790 C   0  0  0  0  0  0  0  0  0  0  0  0
   -0.3080   11.2810   -0.4060 C   0  0  1  0  0  0  0  0  0  0  0  0
   -1.6150   10.8160    0.2890 C   0  0  0  0  0  0  0  0  0  0  0  0
   -2.5510   10.0750   -0.6600 C   0  0  0  0  0  0  0  0  0  0  0  0
   -1.8610    8.8540   -1.2640 C   0  0  2  0  0  0  0  0  0  0  0  0
   -1.6150    7.9020   -0.2250 O   0  0  0  0  0  0  0  0  0  0  0  0
   -0.5270    9.1980   -1.9840 C   0  0  0  0  0  0  0  0  0  0  0  0
   -0.8250    9.9830   -3.2850 C   0  0  0  0  0  0  0  0  0  0  0  0
    0.1360    7.8650   -2.4230 C   0  0  0  0  0  0  0  0  0  0  0  0
    0.6150   12.1520    0.5500 C   0  0  1  0  0  0  0  0  0  0  0  0
    0.6150   11.5460    1.9870 C   0  0  0  0  0  0  0  0  0  0  0  0
    0.0050   13.5980    0.6770 C   0  0  0  0  0  0  0  0  0  0  0  0
    0.4340   14.6290   -0.3840 C   0  0  0  0  0  0  0  0  0  0  0  0
    1.9570   14.6480   -0.5460 C   0  0  2  0  0  0  0  0  0  0  0  0
    2.5780   15.1010    0.8200 C   0  0  0  0  0  0  0  0  0  0  0  0
    2.7435   17.1140    0.7743 H   0  0  0  0  0  0  0  0  0  0  0  0
    4.2609   16.6747   -0.0807 H   0  0  0  0  0  0  0  0  0  0  0  0
    3.6910   18.3781   -0.0807 H   0  0  0  0  0  0  0  0  0  0  0  0
    3.0912   17.5726   -2.2055 H   0  0  0  0  0  0  0  0  0  0  0  0
    1.0131   18.3503   -2.1202 H   0  0  0  0  0  0  0  0  0  0  0  0
    0.4548   16.7741   -1.3809 H   0  0  0  0  0  0  0  0  0  0  0  0
    0.5197   17.5809    0.7598 H   0  0  0  0  0  0  0  0  0  0  0  0
    1.7465   18.8525    0.3528 H   0  0  0  0  0  0  0  0  0  0  0  0
    0.1411   19.6580   -1.1133 H   0  0  0  0  0  0  0  0  0  0  0  0
   -2.0218   18.0391    2.1630 H   0  0  0  0  0  0  0  0  0  0  0  0
   -3.0989   17.6180    0.7885 H   0  0  0  0  0  0  0  0  0  0  0  0
   -1.3876   17.0720    0.7885 H   0  0  0  0  0  0  0  0  0  0  0  0
   -3.3849   20.3973    0.5584 H   0  0  0  0  0  0  0  0  0  0  0  0
   -2.3415   20.7477   -0.8612 H   0  0  0  0  0  0  0  0  0  0  0  0
   -3.4004   19.2968   -0.8612 H   0  0  0  0  0  0  0  0  0  0  0  0
    1.8519   15.5587   -2.5292 H   0  0  0  0  0  0  0  0  0  0  0  0
    4.1322   14.9123   -2.9996 H   0  0  0  0  0  0  0  0  0  0  0  0
    4.7177   15.5672   -1.4552 H   0  0  0  0  0  0  0  0  0  0  0  0
    4.3256   12.7985   -2.0428 H   0  0  0  0  0  0  0  0  0  0  0  0
    4.5350   13.4424   -0.4166 H   0  0  0  0  0  0  0  0  0  0  0  0
    0.9561   12.1572   -2.2601 H   0  0  0  0  0  0  0  0  0  0  0  0
    1.5344   13.6938   -2.9889 H   0  0  0  0  0  0  0  0  0  0  0  0
    2.5956   12.2445   -2.9889 H   0  0  0  0  0  0  0  0  0  0  0  0
    2.7212   12.5475    0.9151 H   0  0  0  0  0  0  0  0  0  0  0  0
    3.5521   10.8464   -0.8323 H   0  0  0  0  0  0  0  0  0  0  0  0
    2.8203   10.2923    0.7633 H   0  0  0  0  0  0  0  0  0  0  0  0
    2.0989    8.9435   -1.3813 H   0  0  0  0  0  0  0  0  0  0  0  0
   -0.5460   11.9880   -1.2144 H   0  0  0  0  0  0  0  0  0  0  0  0
   -1.3527   10.1453    1.1205 H   0  0  0  0  0  0  0  0  0  0  0  0
   -2.1420   11.7141    0.6436 H   0  0  0  0  0  0  0  0  0  0  0  0
   -3.4416    9.7469   -0.1040 H   0  0  0  0  0  0  0  0  0  0  0  0
   -2.8360   10.7563   -1.4752 H   0  0  0  0  0  0  0  0  0  0  0  0
   -2.5336    8.4407   -2.0300 H   0  0  0  0  0  0  0  0  0  0  0  0
   -0.8850    7.3300   -0.5160 H   0  0  0  0  0  0  0  0  0  0  0  0
   -1.2048   10.9835   -3.0307 H   0  0  0  0  0  0  0  0  0  0  0  0
    0.0987   10.0803   -3.8743 H   0  0  0  0  0  0  0  0  0  0  0  0
   -1.5806    9.4428   -3.8743 H   0  0  0  0  0  0  0  0  0  0  0  0
    0.4232    7.2875   -1.5320 H   0  0  0  0  0  0  0  0  0  0  0  0
   -0.5769    7.2814   -3.0241 H   0  0  0  0  0  0  0  0  0  0  0  0
    1.0315    8.0814   -3.0241 H   0  0  0  0  0  0  0  0  0  0  0  0
    1.6521   11.4035    2.3248 H   0  0  0  0  0  0  0  0  0  0  0  0
    0.0965   12.2311    2.6739 H   0  0  0  0  0  0  0  0  0  0  0  0
    0.0965   10.5760    1.9759 H   0  0  0  0  0  0  0  0  0  0  0  0
   -1.0897   13.5030    0.6251 H   0  0  0  0  0  0  0  0  0  0  0  0
    0.3893   13.9895    1.6304 H   0  0  0  0  0  0  0  0  0  0  0  0
   -0.0271   14.3667   -1.3476 H   0  0  0  0  0  0  0  0  0  0  0  0
    0.1036   15.6262   -0.0577 H   0  0  0  0  0  0  0  0  0  0  0  0
    1.9931   14.6743    1.6481 H   0  0  0  0  0  0  0  0  0  0  0  0
    3.6177   14.7477    0.8853 H   0  0  0  0  0  0  0  0  0  0  0  0
    2.5591   16.1989    0.8853 H   0  0  0  0  0  0  0  0  0  0  0  0
  1  2  1  0
  2  3  1  0
  3  4  1  0
  4  5  1  0
  5  6  1  0
  6  7  1  0
  7  8  1  0
  7  9  1  0
  2 10  1  0
 10 11  1  0
 11 12  1  0
 12 13  1  0
 13 14  1  6
 13 15  1  0
 15 16  1  0
 16 17  1  0
 17 18  2  0
 18 19  1  0
 19 20  1  0
 20 21  1  0
 21 22  1  0
 22 23  1  0
 22 24  1  0
 24 25  1  0
 24 26  1  0
 19 27  1  0
 27 28  1  1
 27 29  1  0
 29 30  1  0
 30 31  1  0
 31 32  1  1
  7  5  1  0
 31 10  1  0
 31 13  1  0
 27 15  1  0
 24 18  1  0
  1 33  1  0
  1 34  1  0
  1 35  1  0
  2 36  1  6
  3 37  1  0
  3 38  1  0
  4 39  1  0
  4 40  1  0
  5 41  1  6
  8 42  1  0
  8 43  1  0
  8 44  1  0
  9 45  1  0
  9 46  1  0
  9 47  1  0
 10 48  1  6
 11 49  1  0
 11 50  1  0
 12 51  1  0
 12 52  1  0
 14 53  1  0
 14 54  1  0
 14 55  1  0
 15 56  1  1
 16 57  1  0
 16 58  1  0
 17 59  1  0
 19 60  1  6
 20 61  1  0
 20 62  1  0
 21 63  1  0
 21 64  1  0
 22 65  1  6
 23 66  1  0
 25 67  1  0
 25 68  1  0
 25 69  1  0
 26 70  1  0
 26 71  1  0
 26 72  1  0
 28 73  1  0
 28 74  1  0
 28 75  1  0
 29 76  1  0
 29 77  1  0
 30 78  1  0
 30 79  1  0
 32 80  1  0
 32 81  1  0
 32 82  1  0
M  END
>  <meeko>  (19) 
{"is_sidechain": [false], "intermolecular_energy": 2.731, "internal_energy": -0.839}

$$$$
