EPH_relaxed_0001_pdb2pqr_Repair_53_r2_0001_out
     RDKit          3D

 82 86  0  0  0  0  0  0  0  0999 V2000
   -1.7060    8.5860   -1.8680 C   0  0  0  0  0  0  0  0  0  0  0  0
   -2.0910    9.1140   -0.4830 C   0  0  2  0  0  0  0  0  0  0  0  0
   -3.5850    9.4850   -0.3980 C   0  0  0  0  0  0  0  0  0  0  0  0
   -4.5110    8.2770   -0.2380 C   0  0  0  0  0  0  0  0  0  0  0  0
   -5.1990    7.9310   -1.5230 C   0  0  2  0  0  0  0  0  0  0  0  0
   -6.3470    8.7360   -1.8240 O   0  0  0  0  0  0  0  0  0  0  0  0
   -6.5950    7.3400   -1.5930 C   0  0  0  0  0  0  0  0  0  0  0  0
   -7.3860    7.0600   -0.3540 C   0  0  0  0  0  0  0  0  0  0  0  0
   -6.9930    6.5870   -2.8230 C   0  0  0  0  0  0  0  0  0  0  0  0
   -1.2330   10.3240   -0.1310 C   0  0  1  0  0  0  0  0  0  0  0  0
   -0.2080   10.0230    0.9940 C   0  0  0  0  0  0  0  0  0  0  0  0
    1.0640   10.8490    0.6740 C   0  0  0  0  0  0  0  0  0  0  0  0
    0.6170   11.8420   -0.4250 C   0  0  1  0  0  0  0  0  0  0  0  0
   -0.0930   12.9990    0.3450 C   0  0  0  0  0  0  0  0  0  0  0  0
    1.7420   12.3810   -1.3670 C   0  0  2  0  0  0  0  0  0  0  0  0
    2.8420   13.2000   -0.6690 C   0  0  0  0  0  0  0  0  0  0  0  0
    2.5910   14.6690   -0.5910 C   0  0  0  0  0  0  0  0  0  0  0  0
    1.6730   15.3450   -1.3070 C   0  0  0  0  0  0  0  0  0  0  0  0
    0.8330   14.6380   -2.3780 C   0  0  1  0  0  0  0  0  0  0  0  0
    0.8140   15.4960   -3.6700 C   0  0  0  0  0  0  0  0  0  0  0  0
    0.3490   16.9270   -3.4150 C   0  0  0  0  0  0  0  0  0  0  0  0
    1.2430   17.6150   -2.3870 C   0  0  2  0  0  0  0  0  0  0  0  0
    2.5480   17.7820   -2.9500 O   0  0  0  0  0  0  0  0  0  0  0  0
    1.3480   16.8360   -1.0460 C   0  0  0  0  0  0  0  0  0  0  0  0
   -0.0020   16.9150   -0.2920 C   0  0  0  0  0  0  0  0  0  0  0  0
    2.3880   17.5630   -0.1520 C   0  0  0  0  0  0  0  0  0  0  0  0
    1.2060   13.1190   -2.6610 C   0  0  1  0  0  0  0  0  0  0  0  0
    2.3450   13.0390   -3.7230 C   0  0  0  0  0  0  0  0  0  0  0  0
   -0.0400   12.3920   -3.2900 C   0  0  0  0  0  0  0  0  0  0  0  0
   -1.0550   11.7760   -2.3080 C   0  0  0  0  0  0  0  0  0  0  0  0
   -0.3470   10.9180   -1.2550 C   0  0  2  0  0  0  0  0  0  0  0  0
    0.3590    9.7330   -1.9970 C   0  0  0  0  0  0  0  0  0  0  0  0
   -1.0612    7.7017   -1.7571 H   0  0  0  0  0  0  0  0  0  0  0  0
   -2.6158    8.3093   -2.4209 H   0  0  0  0  0  0  0  0  0  0  0  0
   -1.1644    9.3677   -2.4209 H   0  0  0  0  0  0  0  0  0  0  0  0
   -1.9096    8.3063    0.2413 H   0  0  0  0  0  0  0  0  0  0  0  0
   -3.7290   10.1498    0.4664 H   0  0  0  0  0  0  0  0  0  0  0  0
   -3.8504    9.9696   -1.3492 H   0  0  0  0  0  0  0  0  0  0  0  0
   -3.9155    7.4127    0.0913 H   0  0  0  0  0  0  0  0  0  0  0  0
   -5.2811    8.5318    0.5050 H   0  0  0  0  0  0  0  0  0  0  0  0
   -4.2451    7.6263   -1.9781 H   0  0  0  0  0  0  0  0  0  0  0  0
   -6.7703    7.2779    0.5311 H   0  0  0  0  0  0  0  0  0  0  0  0
   -8.2843    7.6948   -0.3412 H   0  0  0  0  0  0  0  0  0  0  0  0
   -7.6849    6.0015   -0.3412 H   0  0  0  0  0  0  0  0  0  0  0  0
   -7.4890    5.6486   -2.5340 H   0  0  0  0  0  0  0  0  0  0  0  0
   -7.6854    7.1991   -3.4197 H   0  0  0  0  0  0  0  0  0  0  0  0
   -6.0973    6.3597   -3.4197 H   0  0  0  0  0  0  0  0  0  0  0  0
   -2.0241   11.0379    0.1420 H   0  0  0  0  0  0  0  0  0  0  0  0
   -0.6181   10.3221    1.9699 H   0  0  0  0  0  0  0  0  0  0  0  0
    0.0211    8.9482    1.0418 H   0  0  0  0  0  0  0  0  0  0  0  0
    1.4116   11.3887    1.5672 H   0  0  0  0  0  0  0  0  0  0  0  0
    1.9023   10.2155    0.3485 H   0  0  0  0  0  0  0  0  0  0  0  0
    0.0078   12.8347    1.4280 H   0  0  0  0  0  0  0  0  0  0  0  0
    0.3719   13.9586    0.0749 H   0  0  0  0  0  0  0  0  0  0  0  0
   -1.1591   13.0191    0.0749 H   0  0  0  0  0  0  0  0  0  0  0  0
    2.2288   11.4545   -1.7056 H   0  0  0  0  0  0  0  0  0  0  0  0
    2.9501   12.8188    0.3571 H   0  0  0  0  0  0  0  0  0  0  0  0
    3.7472   13.0782   -1.2821 H   0  0  0  0  0  0  0  0  0  0  0  0
    3.2084   15.2486    0.1110 H   0  0  0  0  0  0  0  0  0  0  0  0
   -0.1836   14.5608   -1.9651 H   0  0  0  0  0  0  0  0  0  0  0  0
    1.8306   15.5249   -4.0891 H   0  0  0  0  0  0  0  0  0  0  0  0
    0.1014   15.0326   -4.3682 H   0  0  0  0  0  0  0  0  0  0  0  0
    0.3852   17.4910   -4.3587 H   0  0  0  0  0  0  0  0  0  0  0  0
   -0.6787   16.8982   -3.0239 H   0  0  0  0  0  0  0  0  0  0  0  0
    0.7851   18.5865   -2.1494 H   0  0  0  0  0  0  0  0  0  0  0  0
    2.5000   18.5100   -3.5930 H   0  0  0  0  0  0  0  0  0  0  0  0
    0.1825   16.9042    0.7924 H   0  0  0  0  0  0  0  0  0  0  0  0
   -0.5213   17.8451   -0.5663 H   0  0  0  0  0  0  0  0  0  0  0  0
   -0.6263   16.0519   -0.5663 H   0  0  0  0  0  0  0  0  0  0  0  0
    2.1441   17.3925    0.9070 H   0  0  0  0  0  0  0  0  0  0  0  0
    3.3930   17.1697   -0.3647 H   0  0  0  0  0  0  0  0  0  0  0  0
    2.3639   18.6420   -0.3647 H   0  0  0  0  0  0  0  0  0  0  0  0
    3.3174   12.9707   -3.2133 H   0  0  0  0  0  0  0  0  0  0  0  0
    2.1976   12.1490   -4.3524 H   0  0  0  0  0  0  0  0  0  0  0  0
    2.3235   13.9409   -4.3524 H   0  0  0  0  0  0  0  0  0  0  0  0
   -0.5778   13.1273   -3.9065 H   0  0  0  0  0  0  0  0  0  0  0  0
    0.3756   11.5390   -3.8464 H   0  0  0  0  0  0  0  0  0  0  0  0
   -1.6041   12.5847   -1.8035 H   0  0  0  0  0  0  0  0  0  0  0  0
   -1.7474   11.1359   -2.8745 H   0  0  0  0  0  0  0  0  0  0  0  0
    0.7757    9.0335   -1.2574 H   0  0  0  0  0  0  0  0  0  0  0  0
   -0.3730    9.2069   -2.6274 H   0  0  0  0  0  0  0  0  0  0  0  0
    1.1701   10.1263   -2.6274 H   0  0  0  0  0  0  0  0  0  0  0  0
  1  2  1  0
  2  3  1  0
  3  4  1  0
  4  5  1  0
  5  6  1  0
  6  7  1  0
  7  8  1  0
  7  9  1  0
  2 10  1  0
 10 11  1  0
 11 12  1  0
 12 13  1  0
 13 14  1  1
 13 15  1  0
 15 16  1  0
 16 17  1  0
 17 18  2  0
 18 19  1  0
 19 20  1  0
 20 21  1  0
 21 22  1  0
 22 23  1  0
 22 24  1  0
 24 25  1  0
 24 26  1  0
 19 27  1  0
 27 28  1  6
 27 29  1  0
 29 30  1  0
 30 31  1  0
 31 32  1  6
  7  5  1  0
 31 10  1  0
 31 13  1  0
 27 15  1  0
 24 18  1  0
  1 33  1  0
  1 34  1  0
  1 35  1  0
  2 36  1  1
  3 37  1  0
  3 38  1  0
  4 39  1  0
  4 40  1  0
  5 41  1  6
  8 42  1  0
  8 43  1  0
  8 44  1  0
  9 45  1  0
  9 46  1  0
  9 47  1  0
 10 48  1  1
 11 49  1  0
 11 50  1  0
 12 51  1  0
 12 52  1  0
 14 53  1  0
 14 54  1  0
 14 55  1  0
 15 56  1  6
 16 57  1  0
 16 58  1  0
 17 59  1  0
 19 60  1  1
 20 61  1  0
 20 62  1  0
 21 63  1  0
 21 64  1  0
 22 65  1  1
 23 66  1  0
 25 67  1  0
 25 68  1  0
 25 69  1  0
 26 70  1  0
 26 71  1  0
 26 72  1  0
 28 73  1  0
 28 74  1  0
 28 75  1  0
 29 76  1  0
 29 77  1  0
 30 78  1  0
 30 79  1  0
 32 80  1  0
 32 81  1  0
 32 82  1  0
M  END
>  <meeko>  (1) 
{"is_sidechain": [false], "intermolecular_energy": 2.731, "internal_energy": -0.839}

$$$$
EPH_relaxed_0001_pdb2pqr_Repair_53_r2_0001_out
     RDKit          3D

 82 86  0  0  0  0  0  0  0  0999 V2000
    4.2350   17.5570   -0.6850 C   0  0  0  0  0  0  0  0  0  0  0  0
    2.8710   18.1410   -0.3040 C   0  0  2  0  0  0  0  0  0  0  0  0
    2.9140   18.8830    1.0470 C   0  0  0  0  0  0  0  0  0  0  0  0
    4.2190   18.6750    1.8210 C   0  0  0  0  0  0  0  0  0  0  0  0
    4.1230   19.2060    3.2200 C   0  0  2  0  0  0  0  0  0  0  0  0
    5.1070   20.1940    3.5530 O   0  0  0  0  0  0  0  0  0  0  0  0
    5.1770   18.9580    4.2820 C   0  0  0  0  0  0  0  0  0  0  0  0
    6.4030   18.1500    3.9920 C   0  0  0  0  0  0  0  0  0  0  0  0
    4.7860   19.0840    5.7220 C   0  0  0  0  0  0  0  0  0  0  0  0
    1.8260   17.0320   -0.2560 C   0  0  1  0  0  0  0  0  0  0  0  0
    0.3920   17.5510   -0.5420 C   0  0  0  0  0  0  0  0  0  0  0  0
   -0.3450   16.4270   -1.3150 C   0  0  0  0  0  0  0  0  0  0  0  0
    0.5660   15.1860   -1.1610 C   0  0  1  0  0  0  0  0  0  0  0  0
    0.2240   14.6110    0.2500 C   0  0  0  0  0  0  0  0  0  0  0  0
    0.4420   14.0950   -2.2740 C   0  0  2  0  0  0  0  0  0  0  0  0
   -0.9400   13.4270   -2.3820 C   0  0  0  0  0  0  0  0  0  0  0  0
   -1.1220   12.2000   -1.5520 C   0  0  0  0  0  0  0  0  0  0  0  0
   -0.1330   11.4930   -0.9740 C   0  0  0  0  0  0  0  0  0  0  0  0
    1.3380   11.8580   -1.2110 C   0  0  1  0  0  0  0  0  0  0  0  0
    2.1450   10.5720   -1.5310 C   0  0  0  0  0  0  0  0  0  0  0  0
    1.9760    9.4950   -0.4640 C   0  0  0  0  0  0  0  0  0  0  0  0
    0.5060    9.1180   -0.2980 C   0  0  2  0  0  0  0  0  0  0  0  0
    0.0570    8.4760   -1.4950 O   0  0  0  0  0  0  0  0  0  0  0  0
   -0.4070   10.3350    0.0180 C   0  0  0  0  0  0  0  0  0  0  0  0
   -0.1180   10.8450    1.4520 C   0  0  0  0  0  0  0  0  0  0  0  0
   -1.8780    9.8410    0.0200 C   0  0  0  0  0  0  0  0  0  0  0  0
    1.6030   13.0210   -2.2610 C   0  0  1  0  0  0  0  0  0  0  0  0
    1.6800   12.4300   -3.7020 C   0  0  0  0  0  0  0  0  0  0  0  0
    3.0110   13.6650   -1.9700 C   0  0  0  0  0  0  0  0  0  0  0  0
    3.0490   14.8180   -0.9500 C   0  0  0  0  0  0  0  0  0  0  0  0
    1.9790   15.8670   -1.2660 C   0  0  2  0  0  0  0  0  0  0  0  0
    2.3090   16.4790   -2.6700 C   0  0  0  0  0  0  0  0  0  0  0  0
    4.7986   17.3157    0.2283 H   0  0  0  0  0  0  0  0  0  0  0  0
    4.0894   16.6423   -1.2784 H   0  0  0  0  0  0  0  0  0  0  0  0
    4.7964   18.2936   -1.2784 H   0  0  0  0  0  0  0  0  0  0  0  0
    2.5983   18.8759   -1.0757 H   0  0  0  0  0  0  0  0  0  0  0  0
    2.7908   19.9593    0.8564 H   0  0  0  0  0  0  0  0  0  0  0  0
    2.1033   18.4716    1.6663 H   0  0  0  0  0  0  0  0  0  0  0  0
    4.4415   17.5985    1.8625 H   0  0  0  0  0  0  0  0  0  0  0  0
    5.0184   19.2222    1.2999 H   0  0  0  0  0  0  0  0  0  0  0  0
    3.0307   19.0764    3.2204 H   0  0  0  0  0  0  0  0  0  0  0  0
    6.8711   17.8415    4.9384 H   0  0  0  0  0  0  0  0  0  0  0  0
    6.1252   17.2574    3.4122 H   0  0  0  0  0  0  0  0  0  0  0  0
    7.1137   18.7573    3.4122 H   0  0  0  0  0  0  0  0  0  0  0  0
    5.6395   18.8090    6.3591 H   0  0  0  0  0  0  0  0  0  0  0  0
    4.4911   20.1227    5.9323 H   0  0  0  0  0  0  0  0  0  0  0  0
    3.9402   18.4129    5.9323 H   0  0  0  0  0  0  0  0  0  0  0  0
    1.9912   16.6661    0.7681 H   0  0  0  0  0  0  0  0  0  0  0  0
   -0.1288   17.7651    0.4030 H   0  0  0  0  0  0  0  0  0  0  0  0
    0.4184   18.4814   -1.1282 H   0  0  0  0  0  0  0  0  0  0  0  0
   -1.3356   16.2385   -0.8755 H   0  0  0  0  0  0  0  0  0  0  0  0
   -0.5178   16.6896   -2.3691 H   0  0  0  0  0  0  0  0  0  0  0  0
    0.6227   15.2814    1.0256 H   0  0  0  0  0  0  0  0  0  0  0  0
   -0.8677   14.5324    0.3592 H   0  0  0  0  0  0  0  0  0  0  0  0
    0.6761   13.6142    0.3592 H   0  0  0  0  0  0  0  0  0  0  0  0
    0.5622   14.6838   -3.1953 H   0  0  0  0  0  0  0  0  0  0  0  0
   -1.6978   14.1619   -2.0728 H   0  0  0  0  0  0  0  0  0  0  0  0
   -1.0407   13.1039   -3.4286 H   0  0  0  0  0  0  0  0  0  0  0  0
   -2.1513   11.8432   -1.3997 H   0  0  0  0  0  0  0  0  0  0  0  0
    1.6973   12.3003   -0.2701 H   0  0  0  0  0  0  0  0  0  0  0  0
    1.8004   10.1702   -2.4953 H   0  0  0  0  0  0  0  0  0  0  0  0
    3.2100   10.8455   -1.5638 H   0  0  0  0  0  0  0  0  0  0  0  0
    2.5455    8.6018   -0.7605 H   0  0  0  0  0  0  0  0  0  0  0  0
    2.3482    9.8878    0.4937 H   0  0  0  0  0  0  0  0  0  0  0  0
    0.4344    8.4411    0.5661 H   0  0  0  0  0  0  0  0  0  0  0  0
   -0.8900    8.2850   -1.3890 H   0  0  0  0  0  0  0  0  0  0  0  0
   -0.5229   10.1305    2.1838 H   0  0  0  0  0  0  0  0  0  0  0  0
    0.9684   10.9405    1.5952 H   0  0  0  0  0  0  0  0  0  0  0  0
   -0.5944   11.8261    1.5952 H   0  0  0  0  0  0  0  0  0  0  0  0
   -2.2243    9.7247    1.0576 H   0  0  0  0  0  0  0  0  0  0  0  0
   -2.5122   10.5755   -0.4981 H   0  0  0  0  0  0  0  0  0  0  0  0
   -1.9403    8.8726   -0.4981 H   0  0  0  0  0  0  0  0  0  0  0  0
    1.8219   11.3407   -3.6445 H   0  0  0  0  0  0  0  0  0  0  0  0
    0.7456   12.6502   -4.2390 H   0  0  0  0  0  0  0  0  0  0  0  0
    2.5268   12.8822   -4.2390 H   0  0  0  0  0  0  0  0  0  0  0  0
    3.6707   12.8681   -1.5963 H   0  0  0  0  0  0  0  0  0  0  0  0
    3.3253   14.1137   -2.9239 H   0  0  0  0  0  0  0  0  0  0  0  0
    2.8694   14.4133    0.0570 H   0  0  0  0  0  0  0  0  0  0  0  0
    4.0369   15.2990   -1.0020 H   0  0  0  0  0  0  0  0  0  0  0  0
    2.8273   17.4403   -2.5383 H   0  0  0  0  0  0  0  0  0  0  0  0
    2.9562   15.7869   -3.2287 H   0  0  0  0  0  0  0  0  0  0  0  0
    1.3751   16.6395   -3.2287 H   0  0  0  0  0  0  0  0  0  0  0  0
  1  2  1  0
  2  3  1  0
  3  4  1  0
  4  5  1  0
  5  6  1  0
  6  7  1  0
  7  8  1  0
  7  9  1  0
  2 10  1  0
 10 11  1  0
 11 12  1  0
 12 13  1  0
 13 14  1  1
 13 15  1  0
 15 16  1  0
 16 17  1  0
 17 18  2  0
 18 19  1  0
 19 20  1  0
 20 21  1  0
 21 22  1  0
 22 23  1  0
 22 24  1  0
 24 25  1  0
 24 26  1  0
 19 27  1  0
 27 28  1  6
 27 29  1  0
 29 30  1  0
 30 31  1  0
 31 32  1  6
  7  5  1  0
 31 10  1  0
 31 13  1  0
 27 15  1  0
 24 18  1  0
  1 33  1  0
  1 34  1  0
  1 35  1  0
  2 36  1  6
  3 37  1  0
  3 38  1  0
  4 39  1  0
  4 40  1  0
  5 41  1  1
  8 42  1  0
  8 43  1  0
  8 44  1  0
  9 45  1  0
  9 46  1  0
  9 47  1  0
 10 48  1  1
 11 49  1  0
 11 50  1  0
 12 51  1  0
 12 52  1  0
 14 53  1  0
 14 54  1  0
 14 55  1  0
 15 56  1  6
 16 57  1  0
 16 58  1  0
 17 59  1  0
 19 60  1  1
 20 61  1  0
 20 62  1  0
 21 63  1  0
 21 64  1  0
 22 65  1  1
 23 66  1  0
 25 67  1  0
 25 68  1  0
 25 69  1  0
 26 70  1  0
 26 71  1  0
 26 72  1  0
 28 73  1  0
 28 74  1  0
 28 75  1  0
 29 76  1  0
 29 77  1  0
 30 78  1  0
 30 79  1  0
 32 80  1  0
 32 81  1  0
 32 82  1  0
M  END
>  <meeko>  (2) 
{"is_sidechain": [false], "intermolecular_energy": 2.731, "internal_energy": -0.839}

$$$$
EPH_relaxed_0001_pdb2pqr_Repair_53_r2_0001_out
     RDKit          3D

 82 86  0  0  0  0  0  0  0  0999 V2000
    2.3600   17.9750   -2.6410 C   0  0  0  0  0  0  0  0  0  0  0  0
    1.0470   17.6090   -1.9440 C   0  0  2  0  0  0  0  0  0  0  0  0
    1.1670   17.6700   -0.4080 C   0  0  0  0  0  0  0  0  0  0  0  0
    0.8590   19.0500    0.1790 C   0  0  0  0  0  0  0  0  0  0  0  0
   -0.5780   19.1700    0.5880 C   0  0  2  0  0  0  0  0  0  0  0  0
   -1.4640   18.2500   -0.0630 O   0  0  0  0  0  0  0  0  0  0  0  0
   -1.6770   19.6430   -0.3450 C   0  0  0  0  0  0  0  0  0  0  0  0
   -1.3850   20.0290   -1.7610 C   0  0  0  0  0  0  0  0  0  0  0  0
   -2.9340   20.1940    0.2520 C   0  0  0  0  0  0  0  0  0  0  0  0
    0.5990   16.2180   -2.3770 C   0  0  1  0  0  0  0  0  0  0  0  0
    0.6780   16.0160   -3.9140 C   0  0  0  0  0  0  0  0  0  0  0  0
    1.0810   14.5380   -4.1500 C   0  0  0  0  0  0  0  0  0  0  0  0
    0.8970   13.8580   -2.7730 C   0  0  1  0  0  0  0  0  0  0  0  0
   -0.6310   13.5570   -2.6750 C   0  0  0  0  0  0  0  0  0  0  0  0
    1.7560   12.5770   -2.5140 C   0  0  2  0  0  0  0  0  0  0  0  0
    1.4670   11.3970   -3.4590 C   0  0  0  0  0  0  0  0  0  0  0  0
    0.4160   10.4460   -2.9890 C   0  0  0  0  0  0  0  0  0  0  0  0
   -0.0670   10.3720   -1.7350 C   0  0  0  0  0  0  0  0  0  0  0  0
    0.5200   11.2380   -0.6120 C   0  0  1  0  0  0  0  0  0  0  0  0
    0.7640   10.3610    0.6440 C   0  0  0  0  0  0  0  0  0  0  0  0
   -0.4860    9.6050    1.0820 C   0  0  0  0  0  0  0  0  0  0  0  0
   -1.0060    8.7110   -0.0410 C   0  0  2  0  0  0  0  0  0  0  0  0
   -0.0530    7.6710   -0.2810 O   0  0  0  0  0  0  0  0  0  0  0  0
   -1.2790    9.4840   -1.3620 C   0  0  0  0  0  0  0  0  0  0  0  0
   -2.5160   10.3990   -1.1830 C   0  0  0  0  0  0  0  0  0  0  0  0
   -1.6620    8.4460   -2.4510 C   0  0  0  0  0  0  0  0  0  0  0  0
    1.7880   12.1130   -1.0020 C   0  0  1  0  0  0  0  0  0  0  0  0
    3.0890   11.2730   -0.8210 C   0  0  0  0  0  0  0  0  0  0  0  0
    1.9000   13.3270   -0.0060 C   0  0  0  0  0  0  0  0  0  0  0  0
    1.1250   14.6050   -0.3770 C   0  0  0  0  0  0  0  0  0  0  0  0
    1.4000   15.0100   -1.8290 C   0  0  2  0  0  0  0  0  0  0  0  0
    2.9260   15.3410   -1.9520 C   0  0  0  0  0  0  0  0  0  0  0  0
    3.1293   18.1894   -1.8846 H   0  0  0  0  0  0  0  0  0  0  0  0
    2.6882   17.1341   -3.2696 H   0  0  0  0  0  0  0  0  0  0  0  0
    2.2059   18.8644   -3.2696 H   0  0  0  0  0  0  0  0  0  0  0  0
    0.2945   18.3526   -2.2452 H   0  0  0  0  0  0  0  0  0  0  0  0
    0.4631   16.9437    0.0244 H   0  0  0  0  0  0  0  0  0  0  0  0
    2.2133   17.4405   -0.1579 H   0  0  0  0  0  0  0  0  0  0  0  0
    1.4956   19.2123    1.0613 H   0  0  0  0  0  0  0  0  0  0  0  0
    1.0593   19.8048   -0.5957 H   0  0  0  0  0  0  0  0  0  0  0  0
   -0.2879   19.4801    1.6027 H   0  0  0  0  0  0  0  0  0  0  0  0
   -0.7214   20.9062   -1.7725 H   0  0  0  0  0  0  0  0  0  0  0  0
   -0.8932   19.1904   -2.2757 H   0  0  0  0  0  0  0  0  0  0  0  0
   -2.3258   20.2741   -2.2757 H   0  0  0  0  0  0  0  0  0  0  0  0
   -2.8631   20.1629    1.3493 H   0  0  0  0  0  0  0  0  0  0  0  0
   -3.0708   21.2346   -0.0772 H   0  0  0  0  0  0  0  0  0  0  0  0
   -3.7920   19.5894   -0.0772 H   0  0  0  0  0  0  0  0  0  0  0  0
   -0.4191   16.2145   -1.9606 H   0  0  0  0  0  0  0  0  0  0  0  0
   -0.3003   16.2200   -4.3738 H   0  0  0  0  0  0  0  0  0  0  0  0
    1.4096   16.7021   -4.3657 H   0  0  0  0  0  0  0  0  0  0  0  0
    0.4277   14.0730   -4.9030 H   0  0  0  0  0  0  0  0  0  0  0  0
    2.1094   14.4416   -4.5284 H   0  0  0  0  0  0  0  0  0  0  0  0
   -0.9261   13.4989   -1.6169 H   0  0  0  0  0  0  0  0  0  0  0  0
   -1.1956   14.3612   -3.1695 H   0  0  0  0  0  0  0  0  0  0  0  0
   -0.8484   12.5988   -3.1695 H   0  0  0  0  0  0  0  0  0  0  0  0
    2.7715   12.9183   -2.7636 H   0  0  0  0  0  0  0  0  0  0  0  0
    1.1451   11.8079   -4.4273 H   0  0  0  0  0  0  0  0  0  0  0  0
    2.3997   10.8165   -3.5149 H   0  0  0  0  0  0  0  0  0  0  0  0
    0.0016    9.7469   -3.7303 H   0  0  0  0  0  0  0  0  0  0  0  0
   -0.2377   12.0040   -0.3905 H   0  0  0  0  0  0  0  0  0  0  0  0
    1.5554    9.6317    0.4164 H   0  0  0  0  0  0  0  0  0  0  0  0
    1.0545   11.0305    1.4670 H   0  0  0  0  0  0  0  0  0  0  0  0
   -0.2420    8.9813    1.9546 H   0  0  0  0  0  0  0  0  0  0  0  0
   -1.2666   10.3366    1.3376 H   0  0  0  0  0  0  0  0  0  0  0  0
   -1.9713    8.2975    0.2864 H   0  0  0  0  0  0  0  0  0  0  0  0
    0.0280    7.1510    0.5370 H   0  0  0  0  0  0  0  0  0  0  0  0
   -2.7125   10.5443   -0.1105 H   0  0  0  0  0  0  0  0  0  0  0  0
   -2.3229   11.3733   -1.6557 H   0  0  0  0  0  0  0  0  0  0  0  0
   -3.3911    9.9292   -1.6557 H   0  0  0  0  0  0  0  0  0  0  0  0
   -2.0043    7.5183   -1.9691 H   0  0  0  0  0  0  0  0  0  0  0  0
   -2.4692    8.8530   -3.0778 H   0  0  0  0  0  0  0  0  0  0  0  0
   -0.7839    8.2312   -3.0778 H   0  0  0  0  0  0  0  0  0  0  0  0
    3.2938   11.1408    0.2516 H   0  0  0  0  0  0  0  0  0  0  0  0
    2.9584   10.2883   -1.2935 H   0  0  0  0  0  0  0  0  0  0  0  0
    3.9327   11.7973   -1.2935 H   0  0  0  0  0  0  0  0  0  0  0  0
    1.5328   12.9881    0.9739 H   0  0  0  0  0  0  0  0  0  0  0  0
    2.9606   13.6182   -0.0262 H   0  0  0  0  0  0  0  0  0  0  0  0
    0.0476   14.4217   -0.2523 H   0  0  0  0  0  0  0  0  0  0  0  0
    1.4554   15.4202    0.2835 H   0  0  0  0  0  0  0  0  0  0  0  0
    3.3628   15.4357   -0.9469 H   0  0  0  0  0  0  0  0  0  0  0  0
    3.4338   14.5321   -2.4977 H   0  0  0  0  0  0  0  0  0  0  0  0
    3.0530   16.2876   -2.4977 H   0  0  0  0  0  0  0  0  0  0  0  0
  1  2  1  0
  2  3  1  0
  3  4  1  0
  4  5  1  0
  5  6  1  0
  6  7  1  0
  7  8  1  0
  7  9  1  0
  2 10  1  0
 10 11  1  0
 11 12  1  0
 12 13  1  0
 13 14  1  1
 13 15  1  0
 15 16  1  0
 16 17  1  0
 17 18  2  0
 18 19  1  0
 19 20  1  0
 20 21  1  0
 21 22  1  0
 22 23  1  0
 22 24  1  0
 24 25  1  0
 24 26  1  0
 19 27  1  0
 27 28  1  6
 27 29  1  0
 29 30  1  0
 30 31  1  0
 31 32  1  1
  7  5  1  0
 31 10  1  0
 31 13  1  0
 27 15  1  0
 24 18  1  0
  1 33  1  0
  1 34  1  0
  1 35  1  0
  2 36  1  6
  3 37  1  0
  3 38  1  0
  4 39  1  0
  4 40  1  0
  5 41  1  1
  8 42  1  0
  8 43  1  0
  8 44  1  0
  9 45  1  0
  9 46  1  0
  9 47  1  0
 10 48  1  1
 11 49  1  0
 11 50  1  0
 12 51  1  0
 12 52  1  0
 14 53  1  0
 14 54  1  0
 14 55  1  0
 15 56  1  6
 16 57  1  0
 16 58  1  0
 17 59  1  0
 19 60  1  1
 20 61  1  0
 20 62  1  0
 21 63  1  0
 21 64  1  0
 22 65  1  1
 23 66  1  0
 25 67  1  0
 25 68  1  0
 25 69  1  0
 26 70  1  0
 26 71  1  0
 26 72  1  0
 28 73  1  0
 28 74  1  0
 28 75  1  0
 29 76  1  0
 29 77  1  0
 30 78  1  0
 30 79  1  0
 32 80  1  0
 32 81  1  0
 32 82  1  0
M  END
>  <meeko>  (3) 
{"is_sidechain": [false], "intermolecular_energy": 2.731, "internal_energy": -0.839}

$$$$
EPH_relaxed_0001_pdb2pqr_Repair_53_r2_0001_out
     RDKit          3D

 82 86  0  0  0  0  0  0  0  0999 V2000
    2.2460   17.9670   -2.5460 C   0  0  0  0  0  0  0  0  0  0  0  0
    0.7230   17.8300   -2.6310 C   0  0  2  0  0  0  0  0  0  0  0  0
    0.0240   18.3070   -1.3420 C   0  0  0  0  0  0  0  0  0  0  0  0
    0.7520   17.8960   -0.0600 C   0  0  0  0  0  0  0  0  0  0  0  0
    1.2670   19.0870    0.6910 C   0  0  2  0  0  0  0  0  0  0  0  0
    2.1290   19.9460   -0.0660 O   0  0  0  0  0  0  0  0  0  0  0  0
    2.7270   19.2780    1.0570 C   0  0  0  0  0  0  0  0  0  0  0  0
    3.7640   18.2670    0.6830 C   0  0  0  0  0  0  0  0  0  0  0  0
    3.0650   20.1940    2.1920 C   0  0  0  0  0  0  0  0  0  0  0  0
    0.3470   16.3820   -2.9230 C   0  0  1  0  0  0  0  0  0  0  0  0
    0.4250   16.0370   -4.4340 C   0  0  0  0  0  0  0  0  0  0  0  0
    0.9050   14.5660   -4.5330 C   0  0  0  0  0  0  0  0  0  0  0  0
    0.7690   14.0140   -3.0950 C   0  0  1  0  0  0  0  0  0  0  0  0
   -0.7410   13.6440   -2.9490 C   0  0  0  0  0  0  0  0  0  0  0  0
    1.6970   12.8110   -2.7270 C   0  0  2  0  0  0  0  0  0  0  0  0
    1.4650   11.5320   -3.5500 C   0  0  0  0  0  0  0  0  0  0  0  0
    0.4700   10.5770   -2.9770 C   0  0  0  0  0  0  0  0  0  0  0  0
    0.0020   10.5980   -1.7150 C   0  0  0  0  0  0  0  0  0  0  0  0
    0.5500   11.5970   -0.6890 C   0  0  1  0  0  0  0  0  0  0  0  0
    0.8510   10.8600    0.6420 C   0  0  0  0  0  0  0  0  0  0  0  0
   -0.3530   10.0850    1.1680 C   0  0  0  0  0  0  0  0  0  0  0  0
   -0.8330    9.0610    0.1420 C   0  0  2  0  0  0  0  0  0  0  0  0
    0.1730    8.0540   -0.0100 O   0  0  0  0  0  0  0  0  0  0  0  0
   -1.1580    9.6870   -1.2430 C   0  0  0  0  0  0  0  0  0  0  0  0
   -2.4410   10.5490   -1.1360 C   0  0  0  0  0  0  0  0  0  0  0  0
   -1.4940    8.5310   -2.2230 C   0  0  0  0  0  0  0  0  0  0  0  0
    1.7660   12.4970   -1.1770 C   0  0  1  0  0  0  0  0  0  0  0  0
    3.1120   11.7480   -0.9340 C   0  0  0  0  0  0  0  0  0  0  0  0
    1.8210   13.8050   -0.3030 C   0  0  0  0  0  0  0  0  0  0  0  0
    0.9750   14.9990   -0.7850 C   0  0  0  0  0  0  0  0  0  0  0  0
    1.2160   15.2770   -2.2720 C   0  0  2  0  0  0  0  0  0  0  0  0
    2.7210   15.6740   -2.4470 C   0  0  0  0  0  0  0  0  0  0  0  0
    2.5533   17.9946   -1.4902 H   0  0  0  0  0  0  0  0  0  0  0  0
    2.7198   17.1078   -3.0434 H   0  0  0  0  0  0  0  0  0  0  0  0
    2.5588   18.8969   -3.0434 H   0  0  0  0  0  0  0  0  0  0  0  0
    0.3778   18.4762   -3.4515 H   0  0  0  0  0  0  0  0  0  0  0  0
   -0.0410   19.4048   -1.3679 H   0  0  0  0  0  0  0  0  0  0  0  0
   -0.9663   17.8288   -1.3171 H   0  0  0  0  0  0  0  0  0  0  0  0
    0.0535   17.3426    0.5849 H   0  0  0  0  0  0  0  0  0  0  0  0
    1.6114   17.2688   -0.3395 H   0  0  0  0  0  0  0  0  0  0  0  0
    0.3439   19.1393    1.2870 H   0  0  0  0  0  0  0  0  0  0  0  0
    4.2039   17.8382    1.5955 H   0  0  0  0  0  0  0  0  0  0  0  0
    3.2984   17.4666    0.0892 H   0  0  0  0  0  0  0  0  0  0  0  0
    4.5523   18.7528    0.0892 H   0  0  0  0  0  0  0  0  0  0  0  0
    2.8756   19.6807    3.1463 H   0  0  0  0  0  0  0  0  0  0  0  0
    4.1265   20.4762    2.1318 H   0  0  0  0  0  0  0  0  0  0  0  0
    2.4413   21.0981    2.1318 H   0  0  0  0  0  0  0  0  0  0  0  0
   -0.6664   16.3650   -2.4955 H   0  0  0  0  0  0  0  0  0  0  0  0
   -0.5663   16.1440   -4.8986 H   0  0  0  0  0  0  0  0  0  0  0  0
    1.1156   16.7138   -4.9584 H   0  0  0  0  0  0  0  0  0  0  0  0
    0.2714   13.9967   -5.2291 H   0  0  0  0  0  0  0  0  0  0  0  0
    1.9337   14.4876   -4.9145 H   0  0  0  0  0  0  0  0  0  0  0  0
   -1.0014   13.5802   -1.8822 H   0  0  0  0  0  0  0  0  0  0  0  0
   -1.3564   14.4179   -3.4310 H   0  0  0  0  0  0  0  0  0  0  0  0
   -0.9289   12.6732   -3.4310 H   0  0  0  0  0  0  0  0  0  0  0  0
    2.6902   13.1797   -3.0229 H   0  0  0  0  0  0  0  0  0  0  0  0
    1.1142   11.8296   -4.5492 H   0  0  0  0  0  0  0  0  0  0  0  0
    2.4271   10.9988   -3.5618 H   0  0  0  0  0  0  0  0  0  0  0  0
    0.0870    9.7895   -3.6428 H   0  0  0  0  0  0  0  0  0  0  0  0
   -0.2467   12.3393   -0.5328 H   0  0  0  0  0  0  0  0  0  0  0  0
    1.6785   10.1548    0.4750 H   0  0  0  0  0  0  0  0  0  0  0  0
    1.1118   11.6206    1.3927 H   0  0  0  0  0  0  0  0  0  0  0  0
   -0.0684    9.5619    2.0928 H   0  0  0  0  0  0  0  0  0  0  0  0
   -1.1697   10.7954    1.3639 H   0  0  0  0  0  0  0  0  0  0  0  0
   -1.7722    8.6310    0.5202 H   0  0  0  0  0  0  0  0  0  0  0  0
    1.0340    8.5030   -0.0500 H   0  0  0  0  0  0  0  0  0  0  0  0
   -2.6852   10.7131   -0.0761 H   0  0  0  0  0  0  0  0  0  0  0  0
   -2.2735   11.5185   -1.6280 H   0  0  0  0  0  0  0  0  0  0  0  0
   -3.2752   10.0275   -1.6280 H   0  0  0  0  0  0  0  0  0  0  0  0
   -1.7561    7.6292   -1.6502 H   0  0  0  0  0  0  0  0  0  0  0  0
   -2.3444    8.8230   -2.8566 H   0  0  0  0  0  0  0  0  0  0  0  0
   -0.6195    8.3216   -2.8566 H   0  0  0  0  0  0  0  0  0  0  0  0
    3.2873   11.6505    0.1476 H   0  0  0  0  0  0  0  0  0  0  0  0
    3.0624   10.7478   -1.3891 H   0  0  0  0  0  0  0  0  0  0  0  0
    3.9358   12.3174   -1.3891 H   0  0  0  0  0  0  0  0  0  0  0  0
    1.4804   13.5431    0.7096 H   0  0  0  0  0  0  0  0  0  0  0  0
    2.8643   14.1483   -0.3642 H   0  0  0  0  0  0  0  0  0  0  0  0
   -0.0899   14.7716   -0.6294 H   0  0  0  0  0  0  0  0  0  0  0  0
    1.2664   15.8902   -0.2099 H   0  0  0  0  0  0  0  0  0  0  0  0
    3.1854   15.7965   -1.4574 H   0  0  0  0  0  0  0  0  0  0  0  0
    3.2464   14.8837   -3.0033 H   0  0  0  0  0  0  0  0  0  0  0  0
    2.7882   16.6206   -3.0033 H   0  0  0  0  0  0  0  0  0  0  0  0
  1  2  1  0
  2  3  1  0
  3  4  1  0
  4  5  1  0
  5  6  1  0
  6  7  1  0
  7  8  1  0
  7  9  1  0
  2 10  1  0
 10 11  1  0
 11 12  1  0
 12 13  1  0
 13 14  1  1
 13 15  1  0
 15 16  1  0
 16 17  1  0
 17 18  2  0
 18 19  1  0
 19 20  1  0
 20 21  1  0
 21 22  1  0
 22 23  1  0
 22 24  1  0
 24 25  1  0
 24 26  1  0
 19 27  1  0
 27 28  1  6
 27 29  1  0
 29 30  1  0
 30 31  1  0
 31 32  1  1
  7  5  1  0
 31 10  1  0
 31 13  1  0
 27 15  1  0
 24 18  1  0
  1 33  1  0
  1 34  1  0
  1 35  1  0
  2 36  1  6
  3 37  1  0
  3 38  1  0
  4 39  1  0
  4 40  1  0
  5 41  1  1
  8 42  1  0
  8 43  1  0
  8 44  1  0
  9 45  1  0
  9 46  1  0
  9 47  1  0
 10 48  1  1
 11 49  1  0
 11 50  1  0
 12 51  1  0
 12 52  1  0
 14 53  1  0
 14 54  1  0
 14 55  1  0
 15 56  1  6
 16 57  1  0
 16 58  1  0
 17 59  1  0
 19 60  1  1
 20 61  1  0
 20 62  1  0
 21 63  1  0
 21 64  1  0
 22 65  1  1
 23 66  1  0
 25 67  1  0
 25 68  1  0
 25 69  1  0
 26 70  1  0
 26 71  1  0
 26 72  1  0
 28 73  1  0
 28 74  1  0
 28 75  1  0
 29 76  1  0
 29 77  1  0
 30 78  1  0
 30 79  1  0
 32 80  1  0
 32 81  1  0
 32 82  1  0
M  END
>  <meeko>  (4) 
{"is_sidechain": [false], "intermolecular_energy": 2.731, "internal_energy": -0.839}

$$$$
EPH_relaxed_0001_pdb2pqr_Repair_53_r2_0001_out
     RDKit          3D

 82 86  0  0  0  0  0  0  0  0999 V2000
    3.8980   17.9080    0.6260 C   0  0  0  0  0  0  0  0  0  0  0  0
    2.7460   18.4660   -0.2140 C   0  0  2  0  0  0  0  0  0  0  0  0
    2.0430   19.6510    0.4780 C   0  0  0  0  0  0  0  0  0  0  0  0
    0.7290   19.2710    1.1650 C   0  0  0  0  0  0  0  0  0  0  0  0
   -0.4370   20.0090    0.5790 C   0  0  2  0  0  0  0  0  0  0  0  0
   -1.5480   20.1780    1.4690 O   0  0  0  0  0  0  0  0  0  0  0  0
   -1.7840   19.3650    0.3090 C   0  0  0  0  0  0  0  0  0  0  0  0
   -2.0350   17.9220    0.6170 C   0  0  0  0  0  0  0  0  0  0  0  0
   -2.6920   20.0000   -0.6980 C   0  0  0  0  0  0  0  0  0  0  0  0
    1.7360   17.3630   -0.5100 C   0  0  1  0  0  0  0  0  0  0  0  0
    0.5970   17.8320   -1.4540 C   0  0  0  0  0  0  0  0  0  0  0  0
    0.2250   16.6180   -2.3440 C   0  0  0  0  0  0  0  0  0  0  0  0
    0.9180   15.4120   -1.6680 C   0  0  1  0  0  0  0  0  0  0  0  0
   -0.0340   15.0070   -0.4990 C   0  0  0  0  0  0  0  0  0  0  0  0
    1.2450   14.1950   -2.5940 C   0  0  2  0  0  0  0  0  0  0  0  0
    0.0220   13.5080   -3.2250 C   0  0  0  0  0  0  0  0  0  0  0  0
   -0.5610   12.3870   -2.4300 C   0  0  0  0  0  0  0  0  0  0  0  0
    0.0410   11.7620   -1.4010 C   0  0  0  0  0  0  0  0  0  0  0  0
    1.4820   12.1070   -1.0050 C   0  0  1  0  0  0  0  0  0  0  0  0
    2.2880   10.7990   -0.7910 C   0  0  0  0  0  0  0  0  0  0  0  0
    1.6190    9.8560    0.2040 C   0  0  0  0  0  0  0  0  0  0  0  0
    0.2100    9.4890   -0.2550 C   0  0  2  0  0  0  0  0  0  0  0  0
    0.3020    8.7060   -1.4490 O   0  0  0  0  0  0  0  0  0  0  0  0
   -0.6930   10.7290   -0.5110 C   0  0  0  0  0  0  0  0  0  0  0  0
   -1.0400   11.4080    0.8370 C   0  0  0  0  0  0  0  0  0  0  0  0
   -2.0370   10.2260   -1.1030 C   0  0  0  0  0  0  0  0  0  0  0  0
    2.2330   13.1400   -1.9510 C   0  0  1  0  0  0  0  0  0  0  0  0
    2.9070   12.3820   -3.1360 C   0  0  0  0  0  0  0  0  0  0  0  0
    3.3980   13.8250   -1.1430 C   0  0  0  0  0  0  0  0  0  0  0  0
    3.0370   15.0920   -0.3440 C   0  0  0  0  0  0  0  0  0  0  0  0
    2.2630   16.0870   -1.2140 C   0  0  2  0  0  0  0  0  0  0  0  0
    3.2030   16.5290   -2.3860 C   0  0  0  0  0  0  0  0  0  0  0  0
    3.6618   18.0224    1.6942 H   0  0  0  0  0  0  0  0  0  0  0  0
    4.0384   16.8420    0.3936 H   0  0  0  0  0  0  0  0  0  0  0  0
    4.8215   18.4587    0.3936 H   0  0  0  0  0  0  0  0  0  0  0  0
    3.1749   18.8402   -1.1553 H   0  0  0  0  0  0  0  0  0  0  0  0
    2.7244   20.0643    1.2362 H   0  0  0  0  0  0  0  0  0  0  0  0
    1.7959   20.3810   -0.3069 H   0  0  0  0  0  0  0  0  0  0  0  0
    0.5636   18.1902    1.0449 H   0  0  0  0  0  0  0  0  0  0  0  0
    0.8071   19.5422    2.2282 H   0  0  0  0  0  0  0  0  0  0  0  0
    0.2322   20.6130   -0.0514 H   0  0  0  0  0  0  0  0  0  0  0  0
   -2.0599   17.7788    1.7073 H   0  0  0  0  0  0  0  0  0  0  0  0
   -2.9996   17.6173    0.1850 H   0  0  0  0  0  0  0  0  0  0  0  0
   -1.2299   17.3094    0.1850 H   0  0  0  0  0  0  0  0  0  0  0  0
   -3.4860   20.5553   -0.1771 H   0  0  0  0  0  0  0  0  0  0  0  0
   -2.1138   20.6917   -1.3284 H   0  0  0  0  0  0  0  0  0  0  0  0
   -3.1433   19.2196   -1.3284 H   0  0  0  0  0  0  0  0  0  0  0  0
    1.4187   17.1240    0.5158 H   0  0  0  0  0  0  0  0  0  0  0  0
   -0.2755   18.1515   -0.8652 H   0  0  0  0  0  0  0  0  0  0  0  0
    0.9188   18.6870   -2.0667 H   0  0  0  0  0  0  0  0  0  0  0  0
   -0.8654   16.4750   -2.3698 H   0  0  0  0  0  0  0  0  0  0  0  0
    0.5454   16.7521   -3.3877 H   0  0  0  0  0  0  0  0  0  0  0  0
    0.4570   15.2159    0.4629 H   0  0  0  0  0  0  0  0  0  0  0  0
   -0.9665   15.5863   -0.5681 H   0  0  0  0  0  0  0  0  0  0  0  0
   -0.2633   13.9334   -0.5681 H   0  0  0  0  0  0  0  0  0  0  0  0
    1.7830   14.6701   -3.4276 H   0  0  0  0  0  0  0  0  0  0  0  0
   -0.7605   14.2684   -3.3646 H   0  0  0  0  0  0  0  0  0  0  0  0
    0.3758   13.0616   -4.1660 H   0  0  0  0  0  0  0  0  0  0  0  0
   -1.5678   12.0426   -2.7087 H   0  0  0  0  0  0  0  0  0  0  0  0
    1.4124   12.6610   -0.0572 H   0  0  0  0  0  0  0  0  0  0  0  0
    2.3840   10.2819   -1.7571 H   0  0  0  0  0  0  0  0  0  0  0  0
    3.2704   11.0755   -0.3804 H   0  0  0  0  0  0  0  0  0  0  0  0
    2.2198    8.9387    0.2905 H   0  0  0  0  0  0  0  0  0  0  0  0
    1.5501   10.3638    1.1773 H   0  0  0  0  0  0  0  0  0  0  0  0
   -0.2631    8.9183    0.5577 H   0  0  0  0  0  0  0  0  0  0  0  0
    0.8170    7.9090   -1.2390 H   0  0  0  0  0  0  0  0  0  0  0  0
   -0.7114   10.7650    1.6668 H   0  0  0  0  0  0  0  0  0  0  0  0
   -0.5278   12.3794    0.9008 H   0  0  0  0  0  0  0  0  0  0  0  0
   -2.1273   11.5619    0.9008 H   0  0  0  0  0  0  0  0  0  0  0  0
   -2.7249    9.9686   -0.2841 H   0  0  0  0  0  0  0  0  0  0  0  0
   -2.4841   11.0177   -1.7222 H   0  0  0  0  0  0  0  0  0  0  0  0
   -1.8544    9.3353   -1.7222 H   0  0  0  0  0  0  0  0  0  0  0  0
    3.5890   11.6150   -2.7402 H   0  0  0  0  0  0  0  0  0  0  0  0
    2.1325   11.9014   -3.7518 H   0  0  0  0  0  0  0  0  0  0  0  0
    3.4749   13.0950   -3.7518 H   0  0  0  0  0  0  0  0  0  0  0  0
    3.7906   13.0835   -0.4317 H   0  0  0  0  0  0  0  0  0  0  0  0
    4.1183   14.1598   -1.9040 H   0  0  0  0  0  0  0  0  0  0  0  0
    2.4156   14.8087    0.5183 H   0  0  0  0  0  0  0  0  0  0  0  0
    3.9680   15.5711   -0.0069 H   0  0  0  0  0  0  0  0  0  0  0  0
    4.1254   16.9627   -1.9725 H   0  0  0  0  0  0  0  0  0  0  0  0
    3.4541   15.6546   -3.0043 H   0  0  0  0  0  0  0  0  0  0  0  0
    2.6897   17.2801   -3.0043 H   0  0  0  0  0  0  0  0  0  0  0  0
  1  2  1  0
  2  3  1  0
  3  4  1  0
  4  5  1  0
  5  6  1  0
  6  7  1  0
  7  8  1  0
  7  9  1  0
  2 10  1  0
 10 11  1  0
 11 12  1  0
 12 13  1  0
 13 14  1  1
 13 15  1  0
 15 16  1  0
 16 17  1  0
 17 18  2  0
 18 19  1  0
 19 20  1  0
 20 21  1  0
 21 22  1  0
 22 23  1  0
 22 24  1  0
 24 25  1  0
 24 26  1  0
 19 27  1  0
 27 28  1  6
 27 29  1  0
 29 30  1  0
 30 31  1  0
 31 32  1  6
  7  5  1  0
 31 10  1  0
 31 13  1  0
 27 15  1  0
 24 18  1  0
  1 33  1  0
  1 34  1  0
  1 35  1  0
  2 36  1  6
  3 37  1  0
  3 38  1  0
  4 39  1  0
  4 40  1  0
  5 41  1  6
  8 42  1  0
  8 43  1  0
  8 44  1  0
  9 45  1  0
  9 46  1  0
  9 47  1  0
 10 48  1  1
 11 49  1  0
 11 50  1  0
 12 51  1  0
 12 52  1  0
 14 53  1  0
 14 54  1  0
 14 55  1  0
 15 56  1  6
 16 57  1  0
 16 58  1  0
 17 59  1  0
 19 60  1  1
 20 61  1  0
 20 62  1  0
 21 63  1  0
 21 64  1  0
 22 65  1  1
 23 66  1  0
 25 67  1  0
 25 68  1  0
 25 69  1  0
 26 70  1  0
 26 71  1  0
 26 72  1  0
 28 73  1  0
 28 74  1  0
 28 75  1  0
 29 76  1  0
 29 77  1  0
 30 78  1  0
 30 79  1  0
 32 80  1  0
 32 81  1  0
 32 82  1  0
M  END
>  <meeko>  (5) 
{"is_sidechain": [false], "intermolecular_energy": 2.731, "internal_energy": -0.839}

$$$$
EPH_relaxed_0001_pdb2pqr_Repair_53_r2_0001_out
     RDKit          3D

 82 86  0  0  0  0  0  0  0  0999 V2000
  -14.5470    5.5840    0.6440 C   0  0  0  0  0  0  0  0  0  0  0  0
  -13.9460    6.9680    0.3780 C   0  0  2  0  0  0  0  0  0  0  0  0
  -15.0240    8.0100    0.0190 C   0  0  0  0  0  0  0  0  0  0  0  0
  -14.5470    9.4590    0.1490 C   0  0  0  0  0  0  0  0  0  0  0  0
  -15.2700   10.3670   -0.7980 C   0  0  2  0  0  0  0  0  0  0  0  0
  -15.1800    9.9880   -2.1780 O   0  0  0  0  0  0  0  0  0  0  0  0
  -14.5670   11.2380   -1.8230 C   0  0  0  0  0  0  0  0  0  0  0  0
  -13.0760   11.2430   -1.9510 C   0  0  0  0  0  0  0  0  0  0  0  0
  -15.2870   12.4360   -2.3580 C   0  0  0  0  0  0  0  0  0  0  0  0
  -12.9140    6.8800   -0.7400 C   0  0  1  0  0  0  0  0  0  0  0  0
  -13.2670    7.7830   -1.9510 C   0  0  0  0  0  0  0  0  0  0  0  0
  -11.9260    8.3100   -2.5230 C   0  0  0  0  0  0  0  0  0  0  0  0
  -10.8430    7.4400   -1.8420 C   0  0  1  0  0  0  0  0  0  0  0  0
  -10.8180    6.1140   -2.6640 C   0  0  0  0  0  0  0  0  0  0  0  0
   -9.4190    8.0750   -1.7260 C   0  0  2  0  0  0  0  0  0  0  0  0
   -8.7340    8.3890   -3.0670 C   0  0  0  0  0  0  0  0  0  0  0  0
   -7.8920    7.2910   -3.6260 C   0  0  0  0  0  0  0  0  0  0  0  0
   -7.4620    6.2110   -2.9460 C   0  0  0  0  0  0  0  0  0  0  0  0
   -7.7400    6.0650   -1.4440 C   0  0  1  0  0  0  0  0  0  0  0  0
   -6.4410    5.6290   -0.7170 C   0  0  0  0  0  0  0  0  0  0  0  0
   -5.8250    4.3710   -1.3220 C   0  0  0  0  0  0  0  0  0  0  0  0
   -5.5100    4.5760   -2.8020 C   0  0  2  0  0  0  0  0  0  0  0  0
   -4.4670    5.5490   -2.9200 O   0  0  0  0  0  0  0  0  0  0  0  0
   -6.7420    5.0260   -3.6350 C   0  0  0  0  0  0  0  0  0  0  0  0
   -7.7450    3.8520   -3.7560 C   0  0  0  0  0  0  0  0  0  0  0  0
   -6.2570    5.3330   -5.0770 C   0  0  0  0  0  0  0  0  0  0  0  0
   -8.4440    7.3060   -0.7450 C   0  0  1  0  0  0  0  0  0  0  0  0
   -7.3690    8.3380   -0.2860 C   0  0  0  0  0  0  0  0  0  0  0  0
   -9.1740    6.8150    0.5610 C   0  0  0  0  0  0  0  0  0  0  0  0
  -10.6210    6.3110    0.4000 C   0  0  0  0  0  0  0  0  0  0  0  0
  -11.4630    7.3080   -0.4030 C   0  0  2  0  0  0  0  0  0  0  0  0
  -11.5250    8.6450    0.4100 C   0  0  0  0  0  0  0  0  0  0  0  0
  -14.6191    5.4179    1.7290 H   0  0  0  0  0  0  0  0  0  0  0  0
  -15.5505    5.5279    0.1970 H   0  0  0  0  0  0  0  0  0  0  0  0
  -13.9029    4.8125    0.1970 H   0  0  0  0  0  0  0  0  0  0  0  0
  -13.4606    7.3021    1.3068 H   0  0  0  0  0  0  0  0  0  0  0  0
  -15.3385    7.8400   -1.0213 H   0  0  0  0  0  0  0  0  0  0  0  0
  -15.8494    7.8780    0.7340 H   0  0  0  0  0  0  0  0  0  0  0  0
  -14.7259    9.8022    1.1787 H   0  0  0  0  0  0  0  0  0  0  0  0
  -13.4752    9.4906   -0.0963 H   0  0  0  0  0  0  0  0  0  0  0  0
  -16.0326   10.5912   -0.0377 H   0  0  0  0  0  0  0  0  0  0  0  0
  -12.6220   11.2445   -0.9491 H   0  0  0  0  0  0  0  0  0  0  0  0
  -12.7520   10.3459   -2.4990 H   0  0  0  0  0  0  0  0  0  0  0  0
  -12.7580   12.1422   -2.4990 H   0  0  0  0  0  0  0  0  0  0  0  0
  -15.6544   13.0473   -1.5205 H   0  0  0  0  0  0  0  0  0  0  0  0
  -14.5981   13.0333   -2.9734 H   0  0  0  0  0  0  0  0  0  0  0  0
  -16.1377   12.1080   -2.9734 H   0  0  0  0  0  0  0  0  0  0  0  0
  -12.9512    5.7992   -0.9410 H   0  0  0  0  0  0  0  0  0  0  0  0
  -13.8015    7.1996   -2.7152 H   0  0  0  0  0  0  0  0  0  0  0  0
  -13.9199    8.6142   -1.6464 H   0  0  0  0  0  0  0  0  0  0  0  0
  -11.8940    8.1854   -3.6155 H   0  0  0  0  0  0  0  0  0  0  0  0
  -11.7824    9.3831   -2.3286 H   0  0  0  0  0  0  0  0  0  0  0  0
  -10.8018    5.2561   -1.9757 H   0  0  0  0  0  0  0  0  0  0  0  0
  -11.7153    6.0586   -3.2979 H   0  0  0  0  0  0  0  0  0  0  0  0
   -9.9193    6.0925   -3.2979 H   0  0  0  0  0  0  0  0  0  0  0  0
   -9.6325    9.0501   -1.2638 H   0  0  0  0  0  0  0  0  0  0  0  0
   -9.5179    8.6239   -3.8021 H   0  0  0  0  0  0  0  0  0  0  0  0
   -8.0491    9.2269   -2.8697 H   0  0  0  0  0  0  0  0  0  0  0  0
   -7.5977    7.3705   -4.6829 H   0  0  0  0  0  0  0  0  0  0  0  0
   -8.5019    5.2771   -1.3511 H   0  0  0  0  0  0  0  0  0  0  0  0
   -5.7085    6.4470   -0.7832 H   0  0  0  0  0  0  0  0  0  0  0  0
   -6.7030    5.4031    0.3272 H   0  0  0  0  0  0  0  0  0  0  0  0
   -4.8949    4.1317   -0.7856 H   0  0  0  0  0  0  0  0  0  0  0  0
   -6.5464    3.5460   -1.2273 H   0  0  0  0  0  0  0  0  0  0  0  0
   -5.1953    3.6042   -3.2101 H   0  0  0  0  0  0  0  0  0  0  0  0
   -4.6830    6.2860   -2.3240 H   0  0  0  0  0  0  0  0  0  0  0  0
   -8.0351    3.5125   -2.7507 H   0  0  0  0  0  0  0  0  0  0  0  0
   -8.6390    4.1883   -4.3016 H   0  0  0  0  0  0  0  0  0  0  0  0
   -7.2733    3.0215   -4.3016 H   0  0  0  0  0  0  0  0  0  0  0  0
   -5.3283    5.9209   -5.0341 H   0  0  0  0  0  0  0  0  0  0  0  0
   -6.0691    4.3890   -5.6094 H   0  0  0  0  0  0  0  0  0  0  0  0
   -7.0299    5.9067   -5.6094 H   0  0  0  0  0  0  0  0  0  0  0  0
   -7.3364    8.3693    0.8131 H   0  0  0  0  0  0  0  0  0  0  0  0
   -6.3841    8.0385   -0.6736 H   0  0  0  0  0  0  0  0  0  0  0  0
   -7.6281    9.3343   -0.6736 H   0  0  0  0  0  0  0  0  0  0  0  0
   -8.5801    5.9918    0.9848 H   0  0  0  0  0  0  0  0  0  0  0  0
   -9.2491    7.7063    1.2013 H   0  0  0  0  0  0  0  0  0  0  0  0
  -10.6091    5.3448   -0.1256 H   0  0  0  0  0  0  0  0  0  0  0  0
  -11.0670    6.2003    1.3994 H   0  0  0  0  0  0  0  0  0  0  0  0
  -11.5146    8.4202    1.4867 H   0  0  0  0  0  0  0  0  0  0  0  0
  -10.6548    9.2686    0.1572 H   0  0  0  0  0  0  0  0  0  0  0  0
  -12.4492    9.1854    0.1572 H   0  0  0  0  0  0  0  0  0  0  0  0
  1  2  1  0
  2  3  1  0
  3  4  1  0
  4  5  1  0
  5  6  1  0
  6  7  1  0
  7  8  1  0
  7  9  1  0
  2 10  1  0
 10 11  1  0
 11 12  1  0
 12 13  1  0
 13 14  1  6
 13 15  1  0
 15 16  1  0
 16 17  1  0
 17 18  2  0
 18 19  1  0
 19 20  1  0
 20 21  1  0
 21 22  1  0
 22 23  1  0
 22 24  1  0
 24 25  1  0
 24 26  1  0
 19 27  1  0
 27 28  1  1
 27 29  1  0
 29 30  1  0
 30 31  1  0
 31 32  1  1
  7  5  1  0
 31 10  1  0
 31 13  1  0
 27 15  1  0
 24 18  1  0
  1 33  1  0
  1 34  1  0
  1 35  1  0
  2 36  1  1
  3 37  1  0
  3 38  1  0
  4 39  1  0
  4 40  1  0
  5 41  1  1
  8 42  1  0
  8 43  1  0
  8 44  1  0
  9 45  1  0
  9 46  1  0
  9 47  1  0
 10 48  1  6
 11 49  1  0
 11 50  1  0
 12 51  1  0
 12 52  1  0
 14 53  1  0
 14 54  1  0
 14 55  1  0
 15 56  1  1
 16 57  1  0
 16 58  1  0
 17 59  1  0
 19 60  1  6
 20 61  1  0
 20 62  1  0
 21 63  1  0
 21 64  1  0
 22 65  1  6
 23 66  1  0
 25 67  1  0
 25 68  1  0
 25 69  1  0
 26 70  1  0
 26 71  1  0
 26 72  1  0
 28 73  1  0
 28 74  1  0
 28 75  1  0
 29 76  1  0
 29 77  1  0
 30 78  1  0
 30 79  1  0
 32 80  1  0
 32 81  1  0
 32 82  1  0
M  END
>  <meeko>  (6) 
{"is_sidechain": [false], "intermolecular_energy": 2.731, "internal_energy": -0.839}

$$$$
EPH_relaxed_0001_pdb2pqr_Repair_53_r2_0001_out
     RDKit          3D

 82 86  0  0  0  0  0  0  0  0999 V2000
   -0.1730   10.4110   -3.6510 C   0  0  0  0  0  0  0  0  0  0  0  0
    0.9250   10.2140   -2.6020 C   0  0  2  0  0  0  0  0  0  0  0  0
    0.6900    8.9540   -1.7450 C   0  0  0  0  0  0  0  0  0  0  0  0
    0.0340    9.2440   -0.3920 C   0  0  0  0  0  0  0  0  0  0  0  0
   -1.3880    8.7720   -0.3530 C   0  0  2  0  0  0  0  0  0  0  0  0
   -2.0660    8.8090   -1.6160 O   0  0  0  0  0  0  0  0  0  0  0  0
   -2.5790    9.6810   -0.5950 C   0  0  0  0  0  0  0  0  0  0  0  0
   -2.4010   11.1360   -0.8920 C   0  0  0  0  0  0  0  0  0  0  0  0
   -3.9150    9.2660   -0.0630 C   0  0  0  0  0  0  0  0  0  0  0  0
    1.0150   11.4440   -1.7060 C   0  0  1  0  0  0  0  0  0  0  0  0
    2.0880   11.2970   -0.5950 C   0  0  0  0  0  0  0  0  0  0  0  0
    2.7050   12.7030   -0.3800 C   0  0  0  0  0  0  0  0  0  0  0  0
    1.7500   13.6660   -1.1240 C   0  0  1  0  0  0  0  0  0  0  0  0
    0.5630   13.8960   -0.1360 C   0  0  0  0  0  0  0  0  0  0  0  0
    2.3690   15.0180   -1.6070 C   0  0  2  0  0  0  0  0  0  0  0  0
    2.8880   15.9360   -0.4860 C   0  0  0  0  0  0  0  0  0  0  0  0
    1.8920   16.9080    0.0530 C   0  0  0  0  0  0  0  0  0  0  0  0
    0.7250   17.2380   -0.5310 C   0  0  0  0  0  0  0  0  0  0  0  0
    0.3510   16.6830   -1.9120 C   0  0  1  0  0  0  0  0  0  0  0  0
   -0.1810   17.8340   -2.8060 C   0  0  0  0  0  0  0  0  0  0  0  0
   -1.3280   18.5990   -2.1540 C   0  0  0  0  0  0  0  0  0  0  0  0
   -0.9000   19.1850   -0.8110 C   0  0  2  0  0  0  0  0  0  0  0  0
    0.0870   20.1940   -1.0430 O   0  0  0  0  0  0  0  0  0  0  0  0
   -0.3380   18.1190    0.1710 C   0  0  0  0  0  0  0  0  0  0  0  0
   -1.4860   17.2010    0.6570 C   0  0  0  0  0  0  0  0  0  0  0  0
    0.1880   18.8600    1.4300 C   0  0  0  0  0  0  0  0  0  0  0  0
    1.4670   15.8130   -2.6350 C   0  0  1  0  0  0  0  0  0  0  0  0
    2.4250   16.7420   -3.4420 C   0  0  0  0  0  0  0  0  0  0  0  0
    0.7790   14.8650   -3.6870 C   0  0  0  0  0  0  0  0  0  0  0  0
    0.2950   13.4950   -3.1740 C   0  0  0  0  0  0  0  0  0  0  0  0
    1.3960   12.7870   -2.3790 C   0  0  2  0  0  0  0  0  0  0  0  0
    2.5950   12.5220   -3.3520 C   0  0  0  0  0  0  0  0  0  0  0  0
   -1.1352   10.5836   -3.1467 H   0  0  0  0  0  0  0  0  0  0  0  0
    0.0723   11.2795   -4.2799 H   0  0  0  0  0  0  0  0  0  0  0  0
   -0.2449    9.5114   -4.2799 H   0  0  0  0  0  0  0  0  0  0  0  0
    1.8747   10.0753   -3.1394 H   0  0  0  0  0  0  0  0  0  0  0  0
    0.0389    8.2682   -2.3069 H   0  0  0  0  0  0  0  0  0  0  0  0
    1.6781    8.5178   -1.5366 H   0  0  0  0  0  0  0  0  0  0  0  0
    0.6021    8.7297    0.3972 H   0  0  0  0  0  0  0  0  0  0  0  0
    0.0384   10.3327   -0.2351 H   0  0  0  0  0  0  0  0  0  0  0  0
   -1.1544    8.0613    0.4534 H   0  0  0  0  0  0  0  0  0  0  0  0
   -2.3324   11.6971    0.0516 H   0  0  0  0  0  0  0  0  0  0  0  0
   -1.4784   11.2814   -1.4730 H   0  0  0  0  0  0  0  0  0  0  0  0
   -3.2614   11.4996   -1.4730 H   0  0  0  0  0  0  0  0  0  0  0  0
   -3.8903    9.2737    1.0367 H   0  0  0  0  0  0  0  0  0  0  0  0
   -4.6847    9.9674   -0.4174 H   0  0  0  0  0  0  0  0  0  0  0  0
   -4.1519    8.2519   -0.4174 H   0  0  0  0  0  0  0  0  0  0  0  0
   -0.0230   11.4854   -1.3444 H   0  0  0  0  0  0  0  0  0  0  0  0
    1.6229   10.9411    0.3361 H   0  0  0  0  0  0  0  0  0  0  0  0
    2.8588   10.5676   -0.8845 H   0  0  0  0  0  0  0  0  0  0  0  0
    2.7473   12.9488    0.6913 H   0  0  0  0  0  0  0  0  0  0  0  0
    3.7373   12.7673   -0.7544 H   0  0  0  0  0  0  0  0  0  0  0  0
    0.9285   13.8252    0.8991 H   0  0  0  0  0  0  0  0  0  0  0  0
    0.1330   14.8942   -0.3055 H   0  0  0  0  0  0  0  0  0  0  0  0
   -0.2087   13.1307   -0.3055 H   0  0  0  0  0  0  0  0  0  0  0  0
    3.2617   14.6855   -2.1570 H   0  0  0  0  0  0  0  0  0  0  0  0
    3.2266   15.2999    0.3451 H   0  0  0  0  0  0  0  0  0  0  0  0
    3.6913   16.5395   -0.9337 H   0  0  0  0  0  0  0  0  0  0  0  0
    2.1320   17.3964    1.0090 H   0  0  0  0  0  0  0  0  0  0  0  0
   -0.4476   15.9468   -1.7381 H   0  0  0  0  0  0  0  0  0  0  0  0
    0.6426   18.5355   -3.0048 H   0  0  0  0  0  0  0  0  0  0  0  0
   -0.5641   17.3856   -3.7345 H   0  0  0  0  0  0  0  0  0  0  0  0
   -1.6400   19.4167   -2.8204 H   0  0  0  0  0  0  0  0  0  0  0  0
   -2.1619   17.9023   -1.9830 H   0  0  0  0  0  0  0  0  0  0  0  0
   -1.7963   19.6083   -0.3341 H   0  0  0  0  0  0  0  0  0  0  0  0
   -0.3440   20.9240   -1.5190 H   0  0  0  0  0  0  0  0  0  0  0  0
   -1.5036   17.1869    1.7568 H   0  0  0  0  0  0  0  0  0  0  0  0
   -2.4459   17.5834    0.2798 H   0  0  0  0  0  0  0  0  0  0  0  0
   -1.3241   16.1805    0.2798 H   0  0  0  0  0  0  0  0  0  0  0  0
   -0.1745   18.3493    2.3343 H   0  0  0  0  0  0  0  0  0  0  0  0
    1.2880   18.8580    1.4238 H   0  0  0  0  0  0  0  0  0  0  0  0
   -0.1768   19.8977    1.4238 H   0  0  0  0  0  0  0  0  0  0  0  0
    3.0355   17.3340   -2.7443 H   0  0  0  0  0  0  0  0  0  0  0  0
    3.0829   16.1289   -4.0755 H   0  0  0  0  0  0  0  0  0  0  0  0
    1.8324   17.4184   -4.0755 H   0  0  0  0  0  0  0  0  0  0  0  0
   -0.0946   15.3962   -4.0927 H   0  0  0  0  0  0  0  0  0  0  0  0
    1.5623   14.6363   -4.4247 H   0  0  0  0  0  0  0  0  0  0  0  0
   -0.5799   13.6428   -2.5238 H   0  0  0  0  0  0  0  0  0  0  0  0
    0.0303   12.8700   -4.0396 H   0  0  0  0  0  0  0  0  0  0  0  0
    3.5045   12.3210   -2.7669 H   0  0  0  0  0  0  0  0  0  0  0  0
    2.3673   11.6525   -3.9861 H   0  0  0  0  0  0  0  0  0  0  0  0
    2.7550   13.4065   -3.9861 H   0  0  0  0  0  0  0  0  0  0  0  0
  1  2  1  0
  2  3  1  0
  3  4  1  0
  4  5  1  0
  5  6  1  0
  6  7  1  0
  7  8  1  0
  7  9  1  0
  2 10  1  0
 10 11  1  0
 11 12  1  0
 12 13  1  0
 13 14  1  1
 13 15  1  0
 15 16  1  0
 16 17  1  0
 17 18  2  0
 18 19  1  0
 19 20  1  0
 20 21  1  0
 21 22  1  0
 22 23  1  0
 22 24  1  0
 24 25  1  0
 24 26  1  0
 19 27  1  0
 27 28  1  6
 27 29  1  0
 29 30  1  0
 30 31  1  0
 31 32  1  6
  7  5  1  0
 31 10  1  0
 31 13  1  0
 27 15  1  0
 24 18  1  0
  1 33  1  0
  1 34  1  0
  1 35  1  0
  2 36  1  6
  3 37  1  0
  3 38  1  0
  4 39  1  0
  4 40  1  0
  5 41  1  1
  8 42  1  0
  8 43  1  0
  8 44  1  0
  9 45  1  0
  9 46  1  0
  9 47  1  0
 10 48  1  1
 11 49  1  0
 11 50  1  0
 12 51  1  0
 12 52  1  0
 14 53  1  0
 14 54  1  0
 14 55  1  0
 15 56  1  6
 16 57  1  0
 16 58  1  0
 17 59  1  0
 19 60  1  1
 20 61  1  0
 20 62  1  0
 21 63  1  0
 21 64  1  0
 22 65  1  1
 23 66  1  0
 25 67  1  0
 25 68  1  0
 25 69  1  0
 26 70  1  0
 26 71  1  0
 26 72  1  0
 28 73  1  0
 28 74  1  0
 28 75  1  0
 29 76  1  0
 29 77  1  0
 30 78  1  0
 30 79  1  0
 32 80  1  0
 32 81  1  0
 32 82  1  0
M  END
>  <meeko>  (7) 
{"is_sidechain": [false], "intermolecular_energy": 2.731, "internal_energy": -0.839}

$$$$
EPH_relaxed_0001_pdb2pqr_Repair_53_r2_0001_out
     RDKit          3D

 82 86  0  0  0  0  0  0  0  0999 V2000
   -5.1560    5.9320   -1.7710 C   0  0  0  0  0  0  0  0  0  0  0  0
   -5.4630    7.4300   -1.8530 C   0  0  2  0  0  0  0  0  0  0  0  0
   -5.2170    8.1480   -0.5110 C   0  0  0  0  0  0  0  0  0  0  0  0
   -4.2350    9.3180   -0.6090 C   0  0  0  0  0  0  0  0  0  0  0  0
   -2.8300    8.8900   -0.3090 C   0  0  2  0  0  0  0  0  0  0  0  0
   -2.1900    9.6290    0.7390 O   0  0  0  0  0  0  0  0  0  0  0  0
   -1.6160    9.7610   -0.5710 C   0  0  0  0  0  0  0  0  0  0  0  0
   -1.7500   11.1300   -1.1600 C   0  0  0  0  0  0  0  0  0  0  0  0
   -0.2800    9.1010   -0.7130 C   0  0  0  0  0  0  0  0  0  0  0  0
   -6.9040    7.6420   -2.3010 C   0  0  1  0  0  0  0  0  0  0  0  0
   -7.2200    6.9440   -3.6500 C   0  0  0  0  0  0  0  0  0  0  0  0
   -8.6890    6.4550   -3.5690 C   0  0  0  0  0  0  0  0  0  0  0  0
   -9.2690    7.1710   -2.3260 C   0  0  1  0  0  0  0  0  0  0  0  0
   -9.6400    8.6030   -2.8250 C   0  0  0  0  0  0  0  0  0  0  0  0
  -10.4800    6.4700   -1.6290 C   0  0  2  0  0  0  0  0  0  0  0  0
  -11.7430    6.3320   -2.4970 C   0  0  0  0  0  0  0  0  0  0  0  0
  -12.7080    7.4680   -2.4050 C   0  0  0  0  0  0  0  0  0  0  0  0
  -12.7100    8.4170   -1.4510 C   0  0  0  0  0  0  0  0  0  0  0  0
  -11.7320    8.3500   -0.2710 C   0  0  1  0  0  0  0  0  0  0  0  0
  -12.4960    8.6210    1.0520 C   0  0  0  0  0  0  0  0  0  0  0  0
  -13.2790    9.9300    1.0170 C   0  0  0  0  0  0  0  0  0  0  0  0
  -14.2820    9.9340   -0.1340 C   0  0  2  0  0  0  0  0  0  0  0  0
  -15.2870    8.9490    0.1260 O   0  0  0  0  0  0  0  0  0  0  0  0
  -13.6290    9.6620   -1.5180 C   0  0  0  0  0  0  0  0  0  0  0  0
  -12.7670   10.8790   -1.9350 C   0  0  0  0  0  0  0  0  0  0  0  0
  -14.7650    9.5530   -2.5690 C   0  0  0  0  0  0  0  0  0  0  0  0
  -10.8250    7.0470   -0.1960 C   0  0  1  0  0  0  0  0  0  0  0  0
  -11.5800    5.9170    0.5690 C   0  0  0  0  0  0  0  0  0  0  0  0
   -9.5340    7.3670    0.6470 C   0  0  0  0  0  0  0  0  0  0  0  0
   -8.3300    7.9460   -0.1210 C   0  0  0  0  0  0  0  0  0  0  0  0
   -8.0230    7.1130   -1.3690 C   0  0  2  0  0  0  0  0  0  0  0  0
   -7.6250    5.6730   -0.8980 C   0  0  0  0  0  0  0  0  0  0  0  0
   -5.0936    5.6277   -0.7158 H   0  0  0  0  0  0  0  0  0  0  0  0
   -5.9568    5.3658   -2.2692 H   0  0  0  0  0  0  0  0  0  0  0  0
   -4.1971    5.7264   -2.2692 H   0  0  0  0  0  0  0  0  0  0  0  0
   -4.7760    7.8680   -2.5921 H   0  0  0  0  0  0  0  0  0  0  0  0
   -6.1791    8.5324   -0.1415 H   0  0  0  0  0  0  0  0  0  0  0  0
   -4.7697    7.4097    0.1708 H   0  0  0  0  0  0  0  0  0  0  0  0
   -4.2721    9.7300   -1.6283 H   0  0  0  0  0  0  0  0  0  0  0  0
   -4.5285   10.0748    0.1333 H   0  0  0  0  0  0  0  0  0  0  0  0
   -3.0641    7.8499   -0.5800 H   0  0  0  0  0  0  0  0  0  0  0  0
   -1.8226   11.8717   -0.3510 H   0  0  0  0  0  0  0  0  0  0  0  0
   -0.8691   11.3498   -1.7810 H   0  0  0  0  0  0  0  0  0  0  0  0
   -2.6568   11.1748   -1.7810 H   0  0  0  0  0  0  0  0  0  0  0  0
    0.1355    8.8958    0.2846 H   0  0  0  0  0  0  0  0  0  0  0  0
   -0.3946    8.1559   -1.2640 H   0  0  0  0  0  0  0  0  0  0  0  0
    0.4010    9.7664   -1.2640 H   0  0  0  0  0  0  0  0  0  0  0  0
   -6.9273    8.7413   -2.3317 H   0  0  0  0  0  0  0  0  0  0  0  0
   -7.1031    7.6554   -4.4808 H   0  0  0  0  0  0  0  0  0  0  0  0
   -6.5338    6.1032   -3.8292 H   0  0  0  0  0  0  0  0  0  0  0  0
   -9.2437    6.7393   -4.4753 H   0  0  0  0  0  0  0  0  0  0  0  0
   -8.7612    5.3601   -3.4921 H   0  0  0  0  0  0  0  0  0  0  0  0
   -9.8103    9.2602   -1.9595 H   0  0  0  0  0  0  0  0  0  0  0  0
   -8.8161    9.0041   -3.4335 H   0  0  0  0  0  0  0  0  0  0  0  0
  -10.5550    8.5536   -3.4335 H   0  0  0  0  0  0  0  0  0  0  0  0
  -10.1061    5.4461   -1.4809 H   0  0  0  0  0  0  0  0  0  0  0  0
  -11.4258    6.2397   -3.5462 H   0  0  0  0  0  0  0  0  0  0  0  0
  -12.2770    5.4479   -2.1185 H   0  0  0  0  0  0  0  0  0  0  0  0
  -13.4828    7.5346   -3.1830 H   0  0  0  0  0  0  0  0  0  0  0  0
  -10.9923    9.1456   -0.4438 H   0  0  0  0  0  0  0  0  0  0  0  0
  -13.1993    7.7939    1.2290 H   0  0  0  0  0  0  0  0  0  0  0  0
  -11.7515    8.6984    1.8580 H   0  0  0  0  0  0  0  0  0  0  0  0
  -13.8203   10.0514    1.9669 H   0  0  0  0  0  0  0  0  0  0  0  0
  -12.5713   10.7591    0.8695 H   0  0  0  0  0  0  0  0  0  0  0  0
  -14.7184   10.9423   -0.1866 H   0  0  0  0  0  0  0  0  0  0  0  0
  -15.1760    8.2370   -0.5260 H   0  0  0  0  0  0  0  0  0  0  0  0
  -12.4015   11.3951   -1.0350 H   0  0  0  0  0  0  0  0  0  0  0  0
  -11.9107   10.5341   -2.5331 H   0  0  0  0  0  0  0  0  0  0  0  0
  -13.3765   11.5723   -2.5331 H   0  0  0  0  0  0  0  0  0  0  0  0
  -15.7328    9.4601   -2.0545 H   0  0  0  0  0  0  0  0  0  0  0  0
  -14.7696   10.4548   -3.1988 H   0  0  0  0  0  0  0  0  0  0  0  0
  -14.5980    8.6668   -3.1988 H   0  0  0  0  0  0  0  0  0  0  0  0
  -11.4749    6.0743    1.6526 H   0  0  0  0  0  0  0  0  0  0  0  0
  -12.6456    5.9388    0.2970 H   0  0  0  0  0  0  0  0  0  0  0  0
  -11.1520    4.9409    0.2970 H   0  0  0  0  0  0  0  0  0  0  0  0
   -9.8148    8.0942    1.4231 H   0  0  0  0  0  0  0  0  0  0  0  0
   -9.1912    6.3944    1.0299 H   0  0  0  0  0  0  0  0  0  0  0  0
   -8.5597    8.9780   -0.4248 H   0  0  0  0  0  0  0  0  0  0  0  0
   -7.4504    7.9254    0.5392 H   0  0  0  0  0  0  0  0  0  0  0  0
   -7.6149    5.6365    0.2013 H   0  0  0  0  0  0  0  0  0  0  0  0
   -8.3560    4.9464   -1.2823 H   0  0  0  0  0  0  0  0  0  0  0  0
   -6.6246    5.4249   -1.2823 H   0  0  0  0  0  0  0  0  0  0  0  0
  1  2  1  0
  2  3  1  0
  3  4  1  0
  4  5  1  0
  5  6  1  0
  6  7  1  0
  7  8  1  0
  7  9  1  0
  2 10  1  0
 10 11  1  0
 11 12  1  0
 12 13  1  0
 13 14  1  6
 13 15  1  0
 15 16  1  0
 16 17  1  0
 17 18  2  0
 18 19  1  0
 19 20  1  0
 20 21  1  0
 21 22  1  0
 22 23  1  0
 22 24  1  0
 24 25  1  0
 24 26  1  0
 19 27  1  0
 27 28  1  1
 27 29  1  0
 29 30  1  0
 30 31  1  0
 31 32  1  1
  7  5  1  0
 31 10  1  0
 31 13  1  0
 27 15  1  0
 24 18  1  0
  1 33  1  0
  1 34  1  0
  1 35  1  0
  2 36  1  6
  3 37  1  0
  3 38  1  0
  4 39  1  0
  4 40  1  0
  5 41  1  1
  8 42  1  0
  8 43  1  0
  8 44  1  0
  9 45  1  0
  9 46  1  0
  9 47  1  0
 10 48  1  6
 11 49  1  0
 11 50  1  0
 12 51  1  0
 12 52  1  0
 14 53  1  0
 14 54  1  0
 14 55  1  0
 15 56  1  1
 16 57  1  0
 16 58  1  0
 17 59  1  0
 19 60  1  6
 20 61  1  0
 20 62  1  0
 21 63  1  0
 21 64  1  0
 22 65  1  6
 23 66  1  0
 25 67  1  0
 25 68  1  0
 25 69  1  0
 26 70  1  0
 26 71  1  0
 26 72  1  0
 28 73  1  0
 28 74  1  0
 28 75  1  0
 29 76  1  0
 29 77  1  0
 30 78  1  0
 30 79  1  0
 32 80  1  0
 32 81  1  0
 32 82  1  0
M  END
>  <meeko>  (8) 
{"is_sidechain": [false], "intermolecular_energy": 2.731, "internal_energy": -0.839}

$$$$
EPH_relaxed_0001_pdb2pqr_Repair_53_r2_0001_out
     RDKit          3D

 82 86  0  0  0  0  0  0  0  0999 V2000
    0.4350    8.8230   -2.4440 C   0  0  0  0  0  0  0  0  0  0  0  0
    1.1810    9.9680   -3.1360 C   0  0  2  0  0  0  0  0  0  0  0  0
    2.6810    9.9820   -2.7810 C   0  0  0  0  0  0  0  0  0  0  0  0
    3.5600   10.6400   -3.8490 C   0  0  0  0  0  0  0  0  0  0  0  0
    4.9560   10.8680   -3.3540 C   0  0  2  0  0  0  0  0  0  0  0  0
    5.5750   12.0670   -3.8400 O   0  0  0  0  0  0  0  0  0  0  0  0
    6.1790   10.8300   -4.2520 C   0  0  0  0  0  0  0  0  0  0  0  0
    6.0610   10.5540   -5.7180 C   0  0  0  0  0  0  0  0  0  0  0  0
    7.5160   10.5750   -3.6290 C   0  0  0  0  0  0  0  0  0  0  0  0
    0.5450   11.3020   -2.7620 C   0  0  1  0  0  0  0  0  0  0  0  0
   -0.8450   11.1350   -2.0930 C   0  0  0  0  0  0  0  0  0  0  0  0
   -0.9710   12.2620   -1.0360 C   0  0  0  0  0  0  0  0  0  0  0  0
    0.1920   13.2300   -1.3570 C   0  0  1  0  0  0  0  0  0  0  0  0
   -0.3300   14.1070   -2.5370 C   0  0  0  0  0  0  0  0  0  0  0  0
    0.7080   14.1070   -0.1700 C   0  0  2  0  0  0  0  0  0  0  0  0
   -0.3260   15.0840    0.4170 C   0  0  0  0  0  0  0  0  0  0  0  0
   -0.3480   16.4400   -0.2070 C   0  0  0  0  0  0  0  0  0  0  0  0
    0.6120   16.9520   -1.0000 C   0  0  0  0  0  0  0  0  0  0  0  0
    1.9120   16.1810   -1.2610 C   0  0  1  0  0  0  0  0  0  0  0  0
    3.1230   17.1370   -1.0970 C   0  0  0  0  0  0  0  0  0  0  0  0
    3.0020   18.3880   -1.9620 C   0  0  0  0  0  0  0  0  0  0  0  0
    1.7260   19.1580   -1.6330 C   0  0  2  0  0  0  0  0  0  0  0  0
    1.8320   19.6790   -0.3040 O   0  0  0  0  0  0  0  0  0  0  0  0
    0.4400   18.2940   -1.7540 C   0  0  0  0  0  0  0  0  0  0  0  0
    0.1620   17.9810   -3.2450 C   0  0  0  0  0  0  0  0  0  0  0  0
   -0.7580   19.1480   -1.2590 C   0  0  0  0  0  0  0  0  0  0  0  0
    2.0900   14.8260   -0.4490 C   0  0  1  0  0  0  0  0  0  0  0  0
    2.7280   15.1200    0.9430 C   0  0  0  0  0  0  0  0  0  0  0  0
    3.1040   13.8970   -1.2150 C   0  0  0  0  0  0  0  0  0  0  0  0
    2.5160   12.9670   -2.2930 C   0  0  0  0  0  0  0  0  0  0  0  0
    1.3080   12.1960   -1.7520 C   0  0  2  0  0  0  0  0  0  0  0  0
    1.8070   11.2880   -0.5770 C   0  0  0  0  0  0  0  0  0  0  0  0
    0.5122    8.9415   -1.3531 H   0  0  0  0  0  0  0  0  0  0  0  0
   -0.6240    8.8429   -2.7410 H   0  0  0  0  0  0  0  0  0  0  0  0
    0.8811    7.8624   -2.7410 H   0  0  0  0  0  0  0  0  0  0  0  0
    1.1004    9.8081   -4.2213 H   0  0  0  0  0  0  0  0  0  0  0  0
    2.8095   10.5329   -1.8376 H   0  0  0  0  0  0  0  0  0  0  0  0
    3.0025    8.9330   -2.7014 H   0  0  0  0  0  0  0  0  0  0  0  0
    3.5974    9.9859   -4.7326 H   0  0  0  0  0  0  0  0  0  0  0  0
    3.1213   11.6169   -4.1002 H   0  0  0  0  0  0  0  0  0  0  0  0
    4.7248   10.3700   -2.4009 H   0  0  0  0  0  0  0  0  0  0  0  0
    5.6327    9.5522   -5.8692 H   0  0  0  0  0  0  0  0  0  0  0  0
    5.4060   11.3066   -6.1812 H   0  0  0  0  0  0  0  0  0  0  0  0
    7.0576   10.6004   -6.1812 H   0  0  0  0  0  0  0  0  0  0  0  0
    7.4195   10.5934   -2.5334 H   0  0  0  0  0  0  0  0  0  0  0  0
    7.8872    9.5899   -3.9479 H   0  0  0  0  0  0  0  0  0  0  0  0
    8.2238   11.3543   -3.9479 H   0  0  0  0  0  0  0  0  0  0  0  0
    0.5288   11.7816   -3.7518 H   0  0  0  0  0  0  0  0  0  0  0  0
   -1.6415   11.2307   -2.8456 H   0  0  0  0  0  0  0  0  0  0  0  0
   -0.9423   10.1435   -1.6267 H   0  0  0  0  0  0  0  0  0  0  0  0
   -1.9398   12.7747   -1.1287 H   0  0  0  0  0  0  0  0  0  0  0  0
   -0.9207   11.8763   -0.0071 H   0  0  0  0  0  0  0  0  0  0  0  0
   -0.8539   14.9872   -2.1359 H   0  0  0  0  0  0  0  0  0  0  0  0
    0.5197   14.4355   -3.1535 H   0  0  0  0  0  0  0  0  0  0  0  0
   -1.0239   13.5167   -3.1535 H   0  0  0  0  0  0  0  0  0  0  0  0
    0.8904   13.3585    0.6151 H   0  0  0  0  0  0  0  0  0  0  0  0
   -1.3237   14.6372    0.2944 H   0  0  0  0  0  0  0  0  0  0  0  0
   -0.0379   15.2371    1.4675 H   0  0  0  0  0  0  0  0  0  0  0  0
   -1.2227   17.0746   -0.0015 H   0  0  0  0  0  0  0  0  0  0  0  0
    1.8526   15.8286   -2.3013 H   0  0  0  0  0  0  0  0  0  0  0  0
    3.1907   17.4426   -0.0425 H   0  0  0  0  0  0  0  0  0  0  0  0
    4.0234   16.5937   -1.4196 H   0  0  0  0  0  0  0  0  0  0  0  0
    3.8712   19.0371   -1.7796 H   0  0  0  0  0  0  0  0  0  0  0  0
    2.9648   18.0822   -3.0180 H   0  0  0  0  0  0  0  0  0  0  0  0
    1.6300   19.9678   -2.3713 H   0  0  0  0  0  0  0  0  0  0  0  0
    1.3920   20.5460   -0.2920 H   0  0  0  0  0  0  0  0  0  0  0  0
   -0.5669   17.1604   -3.3177 H   0  0  0  0  0  0  0  0  0  0  0  0
   -0.2438   18.8766   -3.7382 H   0  0  0  0  0  0  0  0  0  0  0  0
    1.0992   17.6837   -3.7382 H   0  0  0  0  0  0  0  0  0  0  0  0
   -0.7717   19.1578   -0.1591 H   0  0  0  0  0  0  0  0  0  0  0  0
   -0.6543   20.1771   -1.6335 H   0  0  0  0  0  0  0  0  0  0  0  0
   -1.6970   18.7144   -1.6335 H   0  0  0  0  0  0  0  0  0  0  0  0
    2.0371   14.8016    1.7376 H   0  0  0  0  0  0  0  0  0  0  0  0
    3.6744   14.5672    1.0367 H   0  0  0  0  0  0  0  0  0  0  0  0
    2.9226   16.1986    1.0367 H   0  0  0  0  0  0  0  0  0  0  0  0
    3.8457   14.5458   -1.7038 H   0  0  0  0  0  0  0  0  0  0  0  0
    3.5144   13.2244   -0.4474 H   0  0  0  0  0  0  0  0  0  0  0  0
    2.2001   13.5712   -3.1562 H   0  0  0  0  0  0  0  0  0  0  0  0
    3.2889   12.2435   -2.5917 H   0  0  0  0  0  0  0  0  0  0  0  0
    1.5492   11.7572    0.3839 H   0  0  0  0  0  0  0  0  0  0  0  0
    1.3240   10.3020   -0.6449 H   0  0  0  0  0  0  0  0  0  0  0  0
    2.8982   11.1672   -0.6449 H   0  0  0  0  0  0  0  0  0  0  0  0
  1  2  1  0
  2  3  1  0
  3  4  1  0
  4  5  1  0
  5  6  1  0
  6  7  1  0
  7  8  1  0
  7  9  1  0
  2 10  1  0
 10 11  1  0
 11 12  1  0
 12 13  1  0
 13 14  1  6
 13 15  1  0
 15 16  1  0
 16 17  1  0
 17 18  2  0
 18 19  1  0
 19 20  1  0
 20 21  1  0
 21 22  1  0
 22 23  1  0
 22 24  1  0
 24 25  1  0
 24 26  1  0
 19 27  1  0
 27 28  1  1
 27 29  1  0
 29 30  1  0
 30 31  1  0
 31 32  1  1
  7  5  1  0
 31 10  1  0
 31 13  1  0
 27 15  1  0
 24 18  1  0
  1 33  1  0
  1 34  1  0
  1 35  1  0
  2 36  1  6
  3 37  1  0
  3 38  1  0
  4 39  1  0
  4 40  1  0
  5 41  1  1
  8 42  1  0
  8 43  1  0
  8 44  1  0
  9 45  1  0
  9 46  1  0
  9 47  1  0
 10 48  1  6
 11 49  1  0
 11 50  1  0
 12 51  1  0
 12 52  1  0
 14 53  1  0
 14 54  1  0
 14 55  1  0
 15 56  1  1
 16 57  1  0
 16 58  1  0
 17 59  1  0
 19 60  1  6
 20 61  1  0
 20 62  1  0
 21 63  1  0
 21 64  1  0
 22 65  1  6
 23 66  1  0
 25 67  1  0
 25 68  1  0
 25 69  1  0
 26 70  1  0
 26 71  1  0
 26 72  1  0
 28 73  1  0
 28 74  1  0
 28 75  1  0
 29 76  1  0
 29 77  1  0
 30 78  1  0
 30 79  1  0
 32 80  1  0
 32 81  1  0
 32 82  1  0
M  END
>  <meeko>  (9) 
{"is_sidechain": [false], "intermolecular_energy": 2.731, "internal_energy": -0.839}

$$$$
EPH_relaxed_0001_pdb2pqr_Repair_53_r2_0001_out
     RDKit          3D

 82 86  0  0  0  0  0  0  0  0999 V2000
    2.7090   19.0570   -1.1540 C   0  0  0  0  0  0  0  0  0  0  0  0
    2.4260   18.0240   -2.2490 C   0  0  2  0  0  0  0  0  0  0  0  0
    0.9880   18.1340   -2.7930 C   0  0  0  0  0  0  0  0  0  0  0  0
    0.2480   19.3920   -2.3280 C   0  0  0  0  0  0  0  0  0  0  0  0
   -1.0330   19.0540   -1.6270 C   0  0  2  0  0  0  0  0  0  0  0  0
   -1.8520   20.1840   -1.2990 O   0  0  0  0  0  0  0  0  0  0  0  0
   -1.3260   19.4380   -0.1890 C   0  0  0  0  0  0  0  0  0  0  0  0
   -0.3310   20.1940    0.6350 C   0  0  0  0  0  0  0  0  0  0  0  0
   -2.3630   18.6620    0.5620 C   0  0  0  0  0  0  0  0  0  0  0  0
    2.6740   16.6180   -1.7140 C   0  0  1  0  0  0  0  0  0  0  0  0
    3.5060   16.6160   -0.4040 C   0  0  0  0  0  0  0  0  0  0  0  0
    2.9750   15.4440    0.4610 C   0  0  0  0  0  0  0  0  0  0  0  0
    2.0960   14.6150   -0.5030 C   0  0  1  0  0  0  0  0  0  0  0  0
    3.1020   13.7320   -1.3050 C   0  0  0  0  0  0  0  0  0  0  0  0
    0.9700   13.7530    0.1570 C   0  0  2  0  0  0  0  0  0  0  0  0
    1.4660   12.6530    1.1120 C   0  0  0  0  0  0  0  0  0  0  0  0
    1.7230   11.3260    0.4790 C   0  0  0  0  0  0  0  0  0  0  0  0
    1.2960   10.9450   -0.7400 C   0  0  0  0  0  0  0  0  0  0  0  0
    0.3880   11.8560   -1.5760 C   0  0  1  0  0  0  0  0  0  0  0  0
   -0.7880   11.0250   -2.1540 C   0  0  0  0  0  0  0  0  0  0  0  0
   -0.3140    9.8020   -2.9310 C   0  0  0  0  0  0  0  0  0  0  0  0
    0.5380    8.8920   -2.0500 C   0  0  2  0  0  0  0  0  0  0  0  0
   -0.2920    8.3360   -1.0240 O   0  0  0  0  0  0  0  0  0  0  0  0
    1.7480    9.6220   -1.4040 C   0  0  0  0  0  0  0  0  0  0  0  0
    2.7950    9.9580   -2.4950 C   0  0  0  0  0  0  0  0  0  0  0  0
    2.4400    8.6300   -0.4300 C   0  0  0  0  0  0  0  0  0  0  0  0
   -0.0990   13.1910   -0.8650 C   0  0  1  0  0  0  0  0  0  0  0  0
   -1.3960   12.9150   -0.0450 C   0  0  0  0  0  0  0  0  0  0  0  0
   -0.4870   14.2480   -1.9660 C   0  0  0  0  0  0  0  0  0  0  0  0
    0.6450   15.1510   -2.4920 C   0  0  0  0  0  0  0  0  0  0  0  0
    1.4330   15.7720   -1.3350 C   0  0  2  0  0  0  0  0  0  0  0  0
    0.4510   16.6840   -0.5230 C   0  0  0  0  0  0  0  0  0  0  0  0
    2.5809   18.5892   -0.1667 H   0  0  0  0  0  0  0  0  0  0  0  0
    3.7409   19.4245   -1.2545 H   0  0  0  0  0  0  0  0  0  0  0  0
    2.0085   19.8991   -1.2545 H   0  0  0  0  0  0  0  0  0  0  0  0
    3.1118   18.2306   -3.0839 H   0  0  0  0  0  0  0  0  0  0  0  0
    1.0323   18.1435   -3.8921 H   0  0  0  0  0  0  0  0  0  0  0  0
    0.4299   17.2702   -2.4028 H   0  0  0  0  0  0  0  0  0  0  0  0
    0.8956   19.9517   -1.6371 H   0  0  0  0  0  0  0  0  0  0  0  0
    0.0047   19.9946   -3.2155 H   0  0  0  0  0  0  0  0  0  0  0  0
   -1.1012   18.0960   -2.1632 H   0  0  0  0  0  0  0  0  0  0  0  0
   -0.5418   20.0338    1.7027 H   0  0  0  0  0  0  0  0  0  0  0  0
    0.6834   19.8367    0.4039 H   0  0  0  0  0  0  0  0  0  0  0  0
   -0.4033   21.2670    0.4039 H   0  0  0  0  0  0  0  0  0  0  0  0
   -2.2005   18.7836    1.6431 H   0  0  0  0  0  0  0  0  0  0  0  0
   -3.3633   19.0352    0.2973 H   0  0  0  0  0  0  0  0  0  0  0  0
   -2.2871   17.5970    0.2973 H   0  0  0  0  0  0  0  0  0  0  0  0
    3.1790   16.1755   -2.5853 H   0  0  0  0  0  0  0  0  0  0  0  0
    4.5716   16.4660   -0.6322 H   0  0  0  0  0  0  0  0  0  0  0  0
    3.4091   17.5745    0.1270 H   0  0  0  0  0  0  0  0  0  0  0  0
    3.8078   14.8372    0.8461 H   0  0  0  0  0  0  0  0  0  0  0  0
    2.4140   15.7949    1.3397 H   0  0  0  0  0  0  0  0  0  0  0  0
    3.7390   13.1729   -0.6038 H   0  0  0  0  0  0  0  0  0  0  0  0
    2.5456   13.0253   -1.9383 H   0  0  0  0  0  0  0  0  0  0  0  0
    3.7306   14.3753   -1.9383 H   0  0  0  0  0  0  0  0  0  0  0  0
    0.4511   14.4877    0.7903 H   0  0  0  0  0  0  0  0  0  0  0  0
    2.4047   12.9985    1.5698 H   0  0  0  0  0  0  0  0  0  0  0  0
    0.6547   12.4917    1.8371 H   0  0  0  0  0  0  0  0  0  0  0  0
    2.3108   10.5977    1.0570 H   0  0  0  0  0  0  0  0  0  0  0  0
    1.0131   12.2387   -2.3962 H   0  0  0  0  0  0  0  0  0  0  0  0
   -1.4246   10.6892   -1.3222 H   0  0  0  0  0  0  0  0  0  0  0  0
   -1.3409   11.6703   -2.8524 H   0  0  0  0  0  0  0  0  0  0  0  0
   -1.1900    9.2404   -3.2876 H   0  0  0  0  0  0  0  0  0  0  0  0
    0.2975   10.1411   -3.7802 H   0  0  0  0  0  0  0  0  0  0  0  0
    0.9551    8.1046   -2.6950 H   0  0  0  0  0  0  0  0  0  0  0  0
    0.0920    8.5880   -0.1670 H   0  0  0  0  0  0  0  0  0  0  0  0
    3.7384   10.2607   -2.0170 H   0  0  0  0  0  0  0  0  0  0  0  0
    2.9695    9.0707   -3.1214 H   0  0  0  0  0  0  0  0  0  0  0  0
    2.4206   10.7811   -3.1214 H   0  0  0  0  0  0  0  0  0  0  0  0
    2.2312    8.9293    0.6077 H   0  0  0  0  0  0  0  0  0  0  0  0
    2.0528    7.6152   -0.6039 H   0  0  0  0  0  0  0  0  0  0  0  0
    3.5261    8.6429   -0.6039 H   0  0  0  0  0  0  0  0  0  0  0  0
   -1.1675   12.9636    1.0299 H   0  0  0  0  0  0  0  0  0  0  0  0
   -2.1547   13.6718   -0.2932 H   0  0  0  0  0  0  0  0  0  0  0  0
   -1.7808   11.9149   -0.2932 H   0  0  0  0  0  0  0  0  0  0  0  0
   -0.8999   13.6979   -2.8244 H   0  0  0  0  0  0  0  0  0  0  0  0
   -1.1941   14.9310   -1.4726 H   0  0  0  0  0  0  0  0  0  0  0  0
    1.3275   14.5493   -3.1102 H   0  0  0  0  0  0  0  0  0  0  0  0
    0.1993   15.9613   -3.0877 H   0  0  0  0  0  0  0  0  0  0  0  0
    0.6150   16.5317    0.5540 H   0  0  0  0  0  0  0  0  0  0  0  0
    0.6355   17.7384   -0.7765 H   0  0  0  0  0  0  0  0  0  0  0  0
   -0.5869   16.4222   -0.7765 H   0  0  0  0  0  0  0  0  0  0  0  0
  1  2  1  0
  2  3  1  0
  3  4  1  0
  4  5  1  0
  5  6  1  0
  6  7  1  0
  7  8  1  0
  7  9  1  0
  2 10  1  0
 10 11  1  0
 11 12  1  0
 12 13  1  0
 13 14  1  6
 13 15  1  0
 15 16  1  0
 16 17  1  0
 17 18  2  0
 18 19  1  0
 19 20  1  0
 20 21  1  0
 21 22  1  0
 22 23  1  0
 22 24  1  0
 24 25  1  0
 24 26  1  0
 19 27  1  0
 27 28  1  1
 27 29  1  0
 29 30  1  0
 30 31  1  0
 31 32  1  1
  7  5  1  0
 31 10  1  0
 31 13  1  0
 27 15  1  0
 24 18  1  0
  1 33  1  0
  1 34  1  0
  1 35  1  0
  2 36  1  6
  3 37  1  0
  3 38  1  0
  4 39  1  0
  4 40  1  0
  5 41  1  6
  8 42  1  0
  8 43  1  0
  8 44  1  0
  9 45  1  0
  9 46  1  0
  9 47  1  0
 10 48  1  6
 11 49  1  0
 11 50  1  0
 12 51  1  0
 12 52  1  0
 14 53  1  0
 14 54  1  0
 14 55  1  0
 15 56  1  1
 16 57  1  0
 16 58  1  0
 17 59  1  0
 19 60  1  6
 20 61  1  0
 20 62  1  0
 21 63  1  0
 21 64  1  0
 22 65  1  6
 23 66  1  0
 25 67  1  0
 25 68  1  0
 25 69  1  0
 26 70  1  0
 26 71  1  0
 26 72  1  0
 28 73  1  0
 28 74  1  0
 28 75  1  0
 29 76  1  0
 29 77  1  0
 30 78  1  0
 30 79  1  0
 32 80  1  0
 32 81  1  0
 32 82  1  0
M  END
>  <meeko>  (10) 
{"is_sidechain": [false], "intermolecular_energy": 2.731, "internal_energy": -0.839}

$$$$
EPH_relaxed_0001_pdb2pqr_Repair_53_r2_0001_out
     RDKit          3D

 82 86  0  0  0  0  0  0  0  0999 V2000
   -4.0300    7.2830   -3.4040 C   0  0  0  0  0  0  0  0  0  0  0  0
   -3.8470    7.2890   -1.8840 C   0  0  2  0  0  0  0  0  0  0  0  0
   -5.1640    6.9930   -1.1390 C   0  0  0  0  0  0  0  0  0  0  0  0
   -5.7500    5.6130   -1.4490 C   0  0  0  0  0  0  0  0  0  0  0  0
   -7.1820    5.7030   -1.8820 C   0  0  2  0  0  0  0  0  0  0  0  0
   -7.8180    4.4400   -2.1160 O   0  0  0  0  0  0  0  0  0  0  0  0
   -7.6670    5.2960   -3.2610 C   0  0  0  0  0  0  0  0  0  0  0  0
   -6.7220    4.7680   -4.2950 C   0  0  0  0  0  0  0  0  0  0  0  0
   -8.9570    5.8640   -3.7630 C   0  0  0  0  0  0  0  0  0  0  0  0
   -3.2830    8.6310   -1.4330 C   0  0  1  0  0  0  0  0  0  0  0  0
   -3.8890    9.1120   -0.0880 C   0  0  0  0  0  0  0  0  0  0  0  0
   -2.7610    9.8580    0.6700 C   0  0  0  0  0  0  0  0  0  0  0  0
   -1.6540   10.0710   -0.3890 C   0  0  1  0  0  0  0  0  0  0  0  0
   -2.1100   11.3240   -1.2000 C   0  0  0  0  0  0  0  0  0  0  0  0
   -0.1980   10.2340    0.1560 C   0  0  2  0  0  0  0  0  0  0  0  0
    0.0270   11.4600    1.0580 C   0  0  0  0  0  0  0  0  0  0  0  0
    0.4530   12.7030    0.3490 C   0  0  0  0  0  0  0  0  0  0  0  0
    0.9210   12.7640   -0.9110 C   0  0  0  0  0  0  0  0  0  0  0  0
    1.1540   11.4860   -1.7270 C   0  0  1  0  0  0  0  0  0  0  0  0
    2.5430   11.5560   -2.4160 C   0  0  0  0  0  0  0  0  0  0  0  0
    2.7180   12.8210   -3.2500 C   0  0  0  0  0  0  0  0  0  0  0  0
    2.5370   14.0710   -2.3910 C   0  0  2  0  0  0  0  0  0  0  0  0
    3.6100   14.1400   -1.4470 O   0  0  0  0  0  0  0  0  0  0  0  0
    1.1770   14.1060   -1.6410 C   0  0  0  0  0  0  0  0  0  0  0  0
    0.0280   14.3340   -2.6550 C   0  0  0  0  0  0  0  0  0  0  0  0
    1.1810   15.3440   -0.7030 C   0  0  0  0  0  0  0  0  0  0  0  0
    0.9260   10.1170   -0.9520 C   0  0  1  0  0  0  0  0  0  0  0  0
    2.2350    9.6980   -0.2160 C   0  0  0  0  0  0  0  0  0  0  0  0
    0.6200    8.9800   -1.9970 C   0  0  0  0  0  0  0  0  0  0  0  0
   -0.8530    8.7890   -2.4050 C   0  0  0  0  0  0  0  0  0  0  0  0
   -1.7580    8.7110   -1.1720 C   0  0  2  0  0  0  0  0  0  0  0  0
   -1.3380    7.4460   -0.3490 C   0  0  0  0  0  0  0  0  0  0  0  0
   -5.1029    7.2478   -3.6440 H   0  0  0  0  0  0  0  0  0  0  0  0
   -3.5887    8.1961   -3.8301 H   0  0  0  0  0  0  0  0  0  0  0  0
   -3.5298    6.4008   -3.8301 H   0  0  0  0  0  0  0  0  0  0  0  0
   -3.1387    6.4856   -1.6333 H   0  0  0  0  0  0  0  0  0  0  0  0
   -4.9724    7.0539   -0.0575 H   0  0  0  0  0  0  0  0  0  0  0  0
   -5.8992    7.7378   -1.4778 H   0  0  0  0  0  0  0  0  0  0  0  0
   -5.1624    5.1491   -2.2550 H   0  0  0  0  0  0  0  0  0  0  0  0
   -5.7068    5.0082   -0.5312 H   0  0  0  0  0  0  0  0  0  0  0  0
   -7.3274    6.6182   -1.2894 H   0  0  0  0  0  0  0  0  0  0  0  0
   -5.8652    4.2893   -3.7983 H   0  0  0  0  0  0  0  0  0  0  0  0
   -7.2413    4.0293   -4.9232 H   0  0  0  0  0  0  0  0  0  0  0  0
   -6.3651    5.5974   -4.9232 H   0  0  0  0  0  0  0  0  0  0  0  0
   -9.5916    6.1434   -2.9090 H   0  0  0  0  0  0  0  0  0  0  0  0
   -8.7520    6.7551   -4.3745 H   0  0  0  0  0  0  0  0  0  0  0  0
   -9.4758    5.1111   -4.3745 H   0  0  0  0  0  0  0  0  0  0  0  0
   -3.5474    9.2444   -2.3069 H   0  0  0  0  0  0  0  0  0  0  0  0
   -4.7335    9.7916   -0.2747 H   0  0  0  0  0  0  0  0  0  0  0  0
   -4.2660    8.2630    0.5012 H   0  0  0  0  0  0  0  0  0  0  0  0
   -3.1231   10.8236    1.0528 H   0  0  0  0  0  0  0  0  0  0  0  0
   -2.4005    9.2933    1.5425 H   0  0  0  0  0  0  0  0  0  0  0  0
   -2.4014   12.1248   -0.5045 H   0  0  0  0  0  0  0  0  0  0  0  0
   -1.2810   11.6723   -1.8336 H   0  0  0  0  0  0  0  0  0  0  0  0
   -2.9690   11.0580   -1.8336 H   0  0  0  0  0  0  0  0  0  0  0  0
   -0.0917    9.3571    0.8116 H   0  0  0  0  0  0  0  0  0  0  0  0
   -0.9160   11.6739    1.5825 H   0  0  0  0  0  0  0  0  0  0  0  0
    0.8550   11.1946    1.7317 H   0  0  0  0  0  0  0  0  0  0  0  0
    0.3778   13.6497    0.9041 H   0  0  0  0  0  0  0  0  0  0  0  0
    0.3606   11.4636   -2.4886 H   0  0  0  0  0  0  0  0  0  0  0  0
    3.3229   11.5339   -1.6406 H   0  0  0  0  0  0  0  0  0  0  0  0
    2.6232   10.6942   -3.0949 H   0  0  0  0  0  0  0  0  0  0  0  0
    3.7276   12.8274   -3.6866 H   0  0  0  0  0  0  0  0  0  0  0  0
    1.9557   12.8268   -4.0430 H   0  0  0  0  0  0  0  0  0  0  0  0
    2.5452   14.9400   -3.0654 H   0  0  0  0  0  0  0  0  0  0  0  0
    3.2180   14.1550   -0.5570 H   0  0  0  0  0  0  0  0  0  0  0  0
   -0.9097   14.5201   -2.1109 H   0  0  0  0  0  0  0  0  0  0  0  0
    0.2638   15.2029   -3.2870 H   0  0  0  0  0  0  0  0  0  0  0  0
   -0.0859   13.4409   -3.2870 H   0  0  0  0  0  0  0  0  0  0  0  0
    1.1799   15.0099    0.3450 H   0  0  0  0  0  0  0  0  0  0  0  0
    2.0811   15.9465   -0.8949 H   0  0  0  0  0  0  0  0  0  0  0  0
    0.2848   15.9523   -0.8949 H   0  0  0  0  0  0  0  0  0  0  0  0
    2.0766    9.7487    0.8713 H   0  0  0  0  0  0  0  0  0  0  0  0
    2.5022    8.6694   -0.5000 H   0  0  0  0  0  0  0  0  0  0  0  0
    3.0498   10.3802   -0.5000 H   0  0  0  0  0  0  0  0  0  0  0  0
    1.1916    9.2044   -2.9097 H   0  0  0  0  0  0  0  0  0  0  0  0
    0.9029    8.0435   -1.4941 H   0  0  0  0  0  0  0  0  0  0  0  0
   -1.1668    9.6392   -3.0284 H   0  0  0  0  0  0  0  0  0  0  0  0
   -0.9422    7.8467   -2.9655 H   0  0  0  0  0  0  0  0  0  0  0  0
   -1.4114    7.6670    0.7261 H   0  0  0  0  0  0  0  0  0  0  0  0
   -2.0062    6.6083   -0.5976 H   0  0  0  0  0  0  0  0  0  0  0  0
   -0.3015    7.1744   -0.5976 H   0  0  0  0  0  0  0  0  0  0  0  0
  1  2  1  0
  2  3  1  0
  3  4  1  0
  4  5  1  0
  5  6  1  0
  6  7  1  0
  7  8  1  0
  7  9  1  0
  2 10  1  0
 10 11  1  0
 11 12  1  0
 12 13  1  0
 13 14  1  6
 13 15  1  0
 15 16  1  0
 16 17  1  0
 17 18  2  0
 18 19  1  0
 19 20  1  0
 20 21  1  0
 21 22  1  0
 22 23  1  0
 22 24  1  0
 24 25  1  0
 24 26  1  0
 19 27  1  0
 27 28  1  1
 27 29  1  0
 29 30  1  0
 30 31  1  0
 31 32  1  1
  7  5  1  0
 31 10  1  0
 31 13  1  0
 27 15  1  0
 24 18  1  0
  1 33  1  0
  1 34  1  0
  1 35  1  0
  2 36  1  6
  3 37  1  0
  3 38  1  0
  4 39  1  0
  4 40  1  0
  5 41  1  1
  8 42  1  0
  8 43  1  0
  8 44  1  0
  9 45  1  0
  9 46  1  0
  9 47  1  0
 10 48  1  6
 11 49  1  0
 11 50  1  0
 12 51  1  0
 12 52  1  0
 14 53  1  0
 14 54  1  0
 14 55  1  0
 15 56  1  1
 16 57  1  0
 16 58  1  0
 17 59  1  0
 19 60  1  6
 20 61  1  0
 20 62  1  0
 21 63  1  0
 21 64  1  0
 22 65  1  6
 23 66  1  0
 25 67  1  0
 25 68  1  0
 25 69  1  0
 26 70  1  0
 26 71  1  0
 26 72  1  0
 28 73  1  0
 28 74  1  0
 28 75  1  0
 29 76  1  0
 29 77  1  0
 30 78  1  0
 30 79  1  0
 32 80  1  0
 32 81  1  0
 32 82  1  0
M  END
>  <meeko>  (11) 
{"is_sidechain": [false], "intermolecular_energy": 2.731, "internal_energy": -0.839}

$$$$
EPH_relaxed_0001_pdb2pqr_Repair_53_r2_0001_out
     RDKit          3D

 82 86  0  0  0  0  0  0  0  0999 V2000
   -0.8500   16.3540   -5.8400 C   0  0  0  0  0  0  0  0  0  0  0  0
    0.2330   15.6500   -6.6630 C   0  0  2  0  0  0  0  0  0  0  0  0
   -0.1810   15.4730   -8.1370 C   0  0  0  0  0  0  0  0  0  0  0  0
    0.4570   16.4940   -9.0820 C   0  0  0  0  0  0  0  0  0  0  0  0
    1.8600   16.1120   -9.4470 C   0  0  2  0  0  0  0  0  0  0  0  0
    2.3300   16.6670  -10.6820 O   0  0  0  0  0  0  0  0  0  0  0  0
    2.2060   15.2360  -10.6360 C   0  0  0  0  0  0  0  0  0  0  0  0
    1.1440   14.6890  -11.5380 C   0  0  0  0  0  0  0  0  0  0  0  0
    3.5190   14.5170  -10.6380 C   0  0  0  0  0  0  0  0  0  0  0  0
    0.5540   14.2930   -6.0460 C   0  0  1  0  0  0  0  0  0  0  0  0
    1.8200   13.6410   -6.6620 C   0  0  0  0  0  0  0  0  0  0  0  0
    2.5290   12.8710   -5.5190 C   0  0  0  0  0  0  0  0  0  0  0  0
    1.4880   12.8260   -4.3750 C   0  0  1  0  0  0  0  0  0  0  0  0
    0.5340   11.6480   -4.7480 C   0  0  0  0  0  0  0  0  0  0  0  0
    2.0580   12.6710   -2.9280 C   0  0  2  0  0  0  0  0  0  0  0  0
    2.8300   11.3660   -2.6660 C   0  0  0  0  0  0  0  0  0  0  0  0
    2.0060   10.2280   -2.1610 C   0  0  0  0  0  0  0  0  0  0  0  0
    0.7610   10.3270   -1.6570 C   0  0  0  0  0  0  0  0  0  0  0  0
    0.0950   11.6950   -1.4670 C   0  0  1  0  0  0  0  0  0  0  0  0
   -0.5530   11.7640   -0.0590 C   0  0  0  0  0  0  0  0  0  0  0  0
   -1.5130   10.6070    0.2010 C   0  0  0  0  0  0  0  0  0  0  0  0
   -0.7990    9.2650    0.0590 C   0  0  2  0  0  0  0  0  0  0  0  0
    0.1650    9.1420    1.1090 O   0  0  0  0  0  0  0  0  0  0  0  0
   -0.1000    9.0850   -1.3180 C   0  0  0  0  0  0  0  0  0  0  0  0
   -1.1680    8.9160   -2.4260 C   0  0  0  0  0  0  0  0  0  0  0  0
    0.6990    7.7540   -1.2770 C   0  0  0  0  0  0  0  0  0  0  0  0
    1.0050   12.9600   -1.7820 C   0  0  1  0  0  0  0  0  0  0  0  0
    1.8220   13.3560   -0.5150 C   0  0  0  0  0  0  0  0  0  0  0  0
    0.0790   14.1890   -2.1160 C   0  0  0  0  0  0  0  0  0  0  0  0
   -0.3530   14.3550   -3.5860 C   0  0  0  0  0  0  0  0  0  0  0  0
    0.8530   14.2560   -4.5260 C   0  0  2  0  0  0  0  0  0  0  0  0
    1.8200   15.4420   -4.1900 C   0  0  0  0  0  0  0  0  0  0  0  0
   -0.6420   16.2188   -4.7683 H   0  0  0  0  0  0  0  0  0  0  0  0
   -0.8534   17.4274   -6.0803 H   0  0  0  0  0  0  0  0  0  0  0  0
   -1.8324   15.9214   -6.0803 H   0  0  0  0  0  0  0  0  0  0  0  0
    1.1288   16.2882   -6.6461 H   0  0  0  0  0  0  0  0  0  0  0  0
    0.1163   14.4652   -8.4626 H   0  0  0  0  0  0  0  0  0  0  0  0
   -1.2692   15.6258   -8.1859 H   0  0  0  0  0  0  0  0  0  0  0  0
   -0.1459   16.5552  -10.0000 H   0  0  0  0  0  0  0  0  0  0  0  0
    0.4896   17.4648   -8.5658 H   0  0  0  0  0  0  0  0  0  0  0  0
    2.1473   16.0632   -8.3863 H   0  0  0  0  0  0  0  0  0  0  0  0
    0.3283   14.2689  -10.9313 H   0  0  0  0  0  0  0  0  0  0  0  0
    0.7504   15.4965  -12.1728 H   0  0  0  0  0  0  0  0  0  0  0  0
    1.5729   13.8996  -12.1728 H   0  0  0  0  0  0  0  0  0  0  0  0
    3.8418   14.3402   -9.6014 H   0  0  0  0  0  0  0  0  0  0  0  0
    3.4086   13.5535  -11.1570 H   0  0  0  0  0  0  0  0  0  0  0  0
    4.2714   15.1290  -11.1570 H   0  0  0  0  0  0  0  0  0  0  0  0
   -0.3885   13.7667   -6.2576 H   0  0  0  0  0  0  0  0  0  0  0  0
    1.5351   12.9468   -7.4663 H   0  0  0  0  0  0  0  0  0  0  0  0
    2.4845   14.4026   -7.0960 H   0  0  0  0  0  0  0  0  0  0  0  0
    2.7948   11.8538   -5.8425 H   0  0  0  0  0  0  0  0  0  0  0  0
    3.4679   13.3539   -5.2102 H   0  0  0  0  0  0  0  0  0  0  0  0
    0.1540   11.1787   -3.8286 H   0  0  0  0  0  0  0  0  0  0  0  0
   -0.3101   12.0328   -5.3391 H   0  0  0  0  0  0  0  0  0  0  0  0
    1.0859   10.9023   -5.3391 H   0  0  0  0  0  0  0  0  0  0  0  0
    2.8076   13.4748   -2.8832 H   0  0  0  0  0  0  0  0  0  0  0  0
    3.2991   11.0531   -3.6105 H   0  0  0  0  0  0  0  0  0  0  0  0
    3.5533   11.5950   -1.8695 H   0  0  0  0  0  0  0  0  0  0  0  0
    2.4535    9.2241   -2.2042 H   0  0  0  0  0  0  0  0  0  0  0  0
   -0.6837   11.7638   -2.2409 H   0  0  0  0  0  0  0  0  0  0  0  0
    0.2447   11.7371    0.6979 H   0  0  0  0  0  0  0  0  0  0  0  0
   -1.1325   12.6973   -0.0037 H   0  0  0  0  0  0  0  0  0  0  0  0
   -1.9152   10.6949    1.2210 H   0  0  0  0  0  0  0  0  0  0  0  0
   -2.3267   10.6524   -0.5378 H   0  0  0  0  0  0  0  0  0  0  0  0
   -1.5627    8.4763    0.1275 H   0  0  0  0  0  0  0  0  0  0  0  0
   -0.0300    9.8280    1.7690 H   0  0  0  0  0  0  0  0  0  0  0  0
   -2.1540    8.7600   -1.9641 H   0  0  0  0  0  0  0  0  0  0  0  0
   -1.1948    9.8211   -3.0506 H   0  0  0  0  0  0  0  0  0  0  0  0
   -0.9140    8.0469   -3.0506 H   0  0  0  0  0  0  0  0  0  0  0  0
    0.8736    7.4632   -0.2306 H   0  0  0  0  0  0  0  0  0  0  0  0
    0.1246    6.9657   -1.7857 H   0  0  0  0  0  0  0  0  0  0  0  0
    1.6648    7.8903   -1.7857 H   0  0  0  0  0  0  0  0  0  0  0  0
    1.2556   13.0815    0.3871 H   0  0  0  0  0  0  0  0  0  0  0  0
    2.7852   12.8248   -0.5190 H   0  0  0  0  0  0  0  0  0  0  0  0
    2.0017   14.4412   -0.5190 H   0  0  0  0  0  0  0  0  0  0  0  0
   -0.8338   14.0922   -1.5099 H   0  0  0  0  0  0  0  0  0  0  0  0
    0.6885   15.0772   -1.8933 H   0  0  0  0  0  0  0  0  0  0  0  0
   -1.0739   13.5642   -3.8408 H   0  0  0  0  0  0  0  0  0  0  0  0
   -0.8118   15.3474   -3.7071 H   0  0  0  0  0  0  0  0  0  0  0  0
    1.9058   15.5472   -3.0984 H   0  0  0  0  0  0  0  0  0  0  0  0
    2.8127   15.2382   -4.6178 H   0  0  0  0  0  0  0  0  0  0  0  0
    1.4205   16.3733   -4.6178 H   0  0  0  0  0  0  0  0  0  0  0  0
  1  2  1  0
  2  3  1  0
  3  4  1  0
  4  5  1  0
  5  6  1  0
  6  7  1  0
  7  8  1  0
  7  9  1  0
  2 10  1  0
 10 11  1  0
 11 12  1  0
 12 13  1  0
 13 14  1  6
 13 15  1  0
 15 16  1  0
 16 17  1  0
 17 18  2  0
 18 19  1  0
 19 20  1  0
 20 21  1  0
 21 22  1  0
 22 23  1  0
 22 24  1  0
 24 25  1  0
 24 26  1  0
 19 27  1  0
 27 28  1  1
 27 29  1  0
 29 30  1  0
 30 31  1  0
 31 32  1  1
  7  5  1  0
 31 10  1  0
 31 13  1  0
 27 15  1  0
 24 18  1  0
  1 33  1  0
  1 34  1  0
  1 35  1  0
  2 36  1  6
  3 37  1  0
  3 38  1  0
  4 39  1  0
  4 40  1  0
  5 41  1  1
  8 42  1  0
  8 43  1  0
  8 44  1  0
  9 45  1  0
  9 46  1  0
  9 47  1  0
 10 48  1  1
 11 49  1  0
 11 50  1  0
 12 51  1  0
 12 52  1  0
 14 53  1  0
 14 54  1  0
 14 55  1  0
 15 56  1  6
 16 57  1  0
 16 58  1  0
 17 59  1  0
 19 60  1  6
 20 61  1  0
 20 62  1  0
 21 63  1  0
 21 64  1  0
 22 65  1  1
 23 66  1  0
 25 67  1  0
 25 68  1  0
 25 69  1  0
 26 70  1  0
 26 71  1  0
 26 72  1  0
 28 73  1  0
 28 74  1  0
 28 75  1  0
 29 76  1  0
 29 77  1  0
 30 78  1  0
 30 79  1  0
 32 80  1  0
 32 81  1  0
 32 82  1  0
M  END
>  <meeko>  (12) 
{"is_sidechain": [false], "intermolecular_energy": 2.731, "internal_energy": -0.839}

$$$$
EPH_relaxed_0001_pdb2pqr_Repair_53_r2_0001_out
     RDKit          3D

 82 86  0  0  0  0  0  0  0  0999 V2000
   -2.3350    7.7920   -2.2840 C   0  0  0  0  0  0  0  0  0  0  0  0
   -2.2500    8.3620   -0.8650 C   0  0  2  0  0  0  0  0  0  0  0  0
   -3.6100    8.3230   -0.1410 C   0  0  0  0  0  0  0  0  0  0  0  0
   -4.8130    8.3920   -1.0860 C   0  0  0  0  0  0  0  0  0  0  0  0
   -5.4250    7.0410   -1.3030 C   0  0  2  0  0  0  0  0  0  0  0  0
   -5.6130    6.6830   -2.6780 O   0  0  0  0  0  0  0  0  0  0  0  0
   -6.8070    6.8340   -1.8940 C   0  0  0  0  0  0  0  0  0  0  0  0
   -7.6610    7.9920   -2.3040 C   0  0  0  0  0  0  0  0  0  0  0  0
   -7.5170    5.5450   -1.6210 C   0  0  0  0  0  0  0  0  0  0  0  0
   -1.7240    9.7910   -0.9090 C   0  0  1  0  0  0  0  0  0  0  0  0
   -1.3030   10.3170    0.4890 C   0  0  0  0  0  0  0  0  0  0  0  0
   -0.0790   11.2440    0.2690 C   0  0  0  0  0  0  0  0  0  0  0  0
   -0.0420   11.4840   -1.2580 C   0  0  1  0  0  0  0  0  0  0  0  0
   -1.0960   12.6060   -1.5140 C   0  0  0  0  0  0  0  0  0  0  0  0
    1.3510   11.8520   -1.8660 C   0  0  2  0  0  0  0  0  0  0  0  0
    1.9600   13.1680   -1.3520 C   0  0  0  0  0  0  0  0  0  0  0  0
    1.6080   14.3850   -2.1420 C   0  0  0  0  0  0  0  0  0  0  0  0
    1.0720   14.3880   -3.3770 C   0  0  0  0  0  0  0  0  0  0  0  0
    0.8570   13.0770   -4.1450 C   0  0  1  0  0  0  0  0  0  0  0  0
    1.3700   13.2400   -5.6000 C   0  0  0  0  0  0  0  0  0  0  0  0
    0.7500   14.4400   -6.3090 C   0  0  0  0  0  0  0  0  0  0  0  0
    1.0350   15.7310   -5.5460 C   0  0  2  0  0  0  0  0  0  0  0  0
    2.4400   15.9980   -5.6010 O   0  0  0  0  0  0  0  0  0  0  0  0
    0.5700   15.6820   -4.0630 C   0  0  0  0  0  0  0  0  0  0  0  0
   -0.9770   15.6960   -4.0020 C   0  0  0  0  0  0  0  0  0  0  0  0
    1.0440   16.9890   -3.3710 C   0  0  0  0  0  0  0  0  0  0  0  0
    1.4130   11.7640   -3.4450 C   0  0  1  0  0  0  0  0  0  0  0  0
    2.9120   11.5540   -3.8210 C   0  0  0  0  0  0  0  0  0  0  0  0
    0.6360   10.5140   -4.0050 C   0  0  0  0  0  0  0  0  0  0  0  0
   -0.6710   10.1290   -3.2880 C   0  0  0  0  0  0  0  0  0  0  0  0
   -0.4640   10.0590   -1.7710 C   0  0  2  0  0  0  0  0  0  0  0  0
    0.5750    8.9230   -1.4820 C   0  0  0  0  0  0  0  0  0  0  0  0
   -2.4971    6.7052   -2.2335 H   0  0  0  0  0  0  0  0  0  0  0  0
   -3.1728    8.2632   -2.8188 H   0  0  0  0  0  0  0  0  0  0  0  0
   -1.3962    7.9982   -2.8188 H   0  0  0  0  0  0  0  0  0  0  0  0
   -1.5548    7.7279   -0.2953 H   0  0  0  0  0  0  0  0  0  0  0  0
   -3.6717    7.3859    0.4318 H   0  0  0  0  0  0  0  0  0  0  0  0
   -3.6564    9.2130    0.5038 H   0  0  0  0  0  0  0  0  0  0  0  0
   -5.5703    9.0608   -0.6510 H   0  0  0  0  0  0  0  0  0  0  0  0
   -4.4645    8.7710   -2.0581 H   0  0  0  0  0  0  0  0  0  0  0  0
   -4.9459    6.6516   -0.3926 H   0  0  0  0  0  0  0  0  0  0  0  0
   -8.0390    8.5045   -1.4071 H   0  0  0  0  0  0  0  0  0  0  0  0
   -7.0631    8.6945   -2.9032 H   0  0  0  0  0  0  0  0  0  0  0  0
   -8.5088    7.6284   -2.9032 H   0  0  0  0  0  0  0  0  0  0  0  0
   -7.5997    5.3949   -0.5344 H   0  0  0  0  0  0  0  0  0  0  0  0
   -8.5233    5.5797   -2.0640 H   0  0  0  0  0  0  0  0  0  0  0  0
   -6.9499    4.7130   -2.0640 H   0  0  0  0  0  0  0  0  0  0  0  0
   -2.5968   10.2944   -1.3503 H   0  0  0  0  0  0  0  0  0  0  0  0
   -2.1289   10.8822    0.9454 H   0  0  0  0  0  0  0  0  0  0  0  0
   -1.0523    9.4858    1.1644 H   0  0  0  0  0  0  0  0  0  0  0  0
   -0.2091   12.1938    0.8085 H   0  0  0  0  0  0  0  0  0  0  0  0
    0.8544   10.7992    0.6444 H   0  0  0  0  0  0  0  0  0  0  0  0
   -1.4601   12.9936   -0.5511 H   0  0  0  0  0  0  0  0  0  0  0  0
   -0.6308   13.4226   -2.0857 H   0  0  0  0  0  0  0  0  0  0  0  0
   -1.9400   12.1927   -2.0857 H   0  0  0  0  0  0  0  0  0  0  0  0
    1.9972   11.0516   -1.4764 H   0  0  0  0  0  0  0  0  0  0  0  0
    1.6147   13.3217   -0.3190 H   0  0  0  0  0  0  0  0  0  0  0  0
    3.0505   13.0533   -1.4395 H   0  0  0  0  0  0  0  0  0  0  0  0
    1.8031   15.3619   -1.6755 H   0  0  0  0  0  0  0  0  0  0  0  0
   -0.2289   12.9013   -4.1494 H   0  0  0  0  0  0  0  0  0  0  0  0
    2.4620   13.3703   -5.5761 H   0  0  0  0  0  0  0  0  0  0  0  0
    1.0815   12.3372   -6.1584 H   0  0  0  0  0  0  0  0  0  0  0  0
    1.1738   14.5188   -7.3210 H   0  0  0  0  0  0  0  0  0  0  0  0
   -0.3392   14.2945   -6.3587 H   0  0  0  0  0  0  0  0  0  0  0  0
    0.4585   16.5338   -6.0289 H   0  0  0  0  0  0  0  0  0  0  0  0
    2.6960   16.0330   -6.5380 H   0  0  0  0  0  0  0  0  0  0  0  0
   -1.3025   15.6989   -2.9513 H   0  0  0  0  0  0  0  0  0  0  0  0
   -1.3557   16.5976   -4.5057 H   0  0  0  0  0  0  0  0  0  0  0  0
   -1.3719   14.8014   -4.5057 H   0  0  0  0  0  0  0  0  0  0  0  0
    0.9984   16.8632   -2.2792 H   0  0  0  0  0  0  0  0  0  0  0  0
    2.0790   17.2086   -3.6718 H   0  0  0  0  0  0  0  0  0  0  0  0
    0.3904   17.8210   -3.6718 H   0  0  0  0  0  0  0  0  0  0  0  0
    3.5120   11.4699   -2.9029 H   0  0  0  0  0  0  0  0  0  0  0  0
    3.0160   10.6325   -4.4126 H   0  0  0  0  0  0  0  0  0  0  0  0
    3.2652   12.4114   -4.4126 H   0  0  0  0  0  0  0  0  0  0  0  0
    0.3899   10.7195   -5.0573 H   0  0  0  0  0  0  0  0  0  0  0  0
    1.3123    9.6610   -3.8470 H   0  0  0  0  0  0  0  0  0  0  0  0
   -1.4399   10.8831   -3.5119 H   0  0  0  0  0  0  0  0  0  0  0  0
   -0.9883    9.1381   -3.6449 H   0  0  0  0  0  0  0  0  0  0  0  0
    0.6891    8.7983   -0.3951 H   0  0  0  0  0  0  0  0  0  0  0  0
    0.2200    7.9803   -1.9240 H   0  0  0  0  0  0  0  0  0  0  0  0
    1.5455    9.1926   -1.9240 H   0  0  0  0  0  0  0  0  0  0  0  0
  1  2  1  0
  2  3  1  0
  3  4  1  0
  4  5  1  0
  5  6  1  0
  6  7  1  0
  7  8  1  0
  7  9  1  0
  2 10  1  0
 10 11  1  0
 11 12  1  0
 12 13  1  0
 13 14  1  1
 13 15  1  0
 15 16  1  0
 16 17  1  0
 17 18  2  0
 18 19  1  0
 19 20  1  0
 20 21  1  0
 21 22  1  0
 22 23  1  0
 22 24  1  0
 24 25  1  0
 24 26  1  0
 19 27  1  0
 27 28  1  1
 27 29  1  0
 29 30  1  0
 30 31  1  0
 31 32  1  6
  7  5  1  0
 31 10  1  0
 31 13  1  0
 27 15  1  0
 24 18  1  0
  1 33  1  0
  1 34  1  0
  1 35  1  0
  2 36  1  1
  3 37  1  0
  3 38  1  0
  4 39  1  0
  4 40  1  0
  5 41  1  1
  8 42  1  0
  8 43  1  0
  8 44  1  0
  9 45  1  0
  9 46  1  0
  9 47  1  0
 10 48  1  6
 11 49  1  0
 11 50  1  0
 12 51  1  0
 12 52  1  0
 14 53  1  0
 14 54  1  0
 14 55  1  0
 15 56  1  1
 16 57  1  0
 16 58  1  0
 17 59  1  0
 19 60  1  6
 20 61  1  0
 20 62  1  0
 21 63  1  0
 21 64  1  0
 22 65  1  6
 23 66  1  0
 25 67  1  0
 25 68  1  0
 25 69  1  0
 26 70  1  0
 26 71  1  0
 26 72  1  0
 28 73  1  0
 28 74  1  0
 28 75  1  0
 29 76  1  0
 29 77  1  0
 30 78  1  0
 30 79  1  0
 32 80  1  0
 32 81  1  0
 32 82  1  0
M  END
>  <meeko>  (13) 
{"is_sidechain": [false], "intermolecular_energy": 2.731, "internal_energy": -0.839}

$$$$
EPH_relaxed_0001_pdb2pqr_Repair_53_r2_0001_out
     RDKit          3D

 82 86  0  0  0  0  0  0  0  0999 V2000
    0.7160   19.6970   -2.2070 C   0  0  0  0  0  0  0  0  0  0  0  0
    0.1810   18.5920   -1.2900 C   0  0  2  0  0  0  0  0  0  0  0  0
    0.4570   18.8890    0.1970 C   0  0  0  0  0  0  0  0  0  0  0  0
    1.2210   20.1940    0.4340 C   0  0  0  0  0  0  0  0  0  0  0  0
    2.6910   19.9530    0.6040 C   0  0  2  0  0  0  0  0  0  0  0  0
    3.0230   18.7330    1.2790 O   0  0  0  0  0  0  0  0  0  0  0  0
    3.3880   19.9490    1.9510 C   0  0  0  0  0  0  0  0  0  0  0  0
    2.6330   20.1920    3.2210 C   0  0  0  0  0  0  0  0  0  0  0  0
    4.8640   20.1940    1.9940 C   0  0  0  0  0  0  0  0  0  0  0  0
    0.7970   17.2530   -1.6770 C   0  0  1  0  0  0  0  0  0  0  0  0
    2.3320   17.3390   -1.8890 C   0  0  0  0  0  0  0  0  0  0  0  0
    2.9280   15.9950   -1.3980 C   0  0  0  0  0  0  0  0  0  0  0  0
    1.7040   15.0630   -1.2340 C   0  0  1  0  0  0  0  0  0  0  0  0
    1.3980   14.5460   -2.6740 C   0  0  0  0  0  0  0  0  0  0  0  0
    1.8650   13.8840   -0.2190 C   0  0  2  0  0  0  0  0  0  0  0  0
    2.9590   12.8630   -0.5740 C   0  0  0  0  0  0  0  0  0  0  0  0
    2.5100   11.7110   -1.4100 C   0  0  0  0  0  0  0  0  0  0  0  0
    1.2300   11.3500   -1.6220 C   0  0  0  0  0  0  0  0  0  0  0  0
    0.0800   12.0740   -0.9100 C   0  0  1  0  0  0  0  0  0  0  0  0
   -0.9110   11.0290   -0.3320 C   0  0  0  0  0  0  0  0  0  0  0  0
   -1.4050   10.0450   -1.3890 C   0  0  0  0  0  0  0  0  0  0  0  0
   -0.2360    9.3040   -2.0330 C   0  0  2  0  0  0  0  0  0  0  0  0
    0.3730    8.4610   -1.0500 O   0  0  0  0  0  0  0  0  0  0  0  0
    0.8320   10.2540   -2.6410 C   0  0  0  0  0  0  0  0  0  0  0  0
    0.2560   10.9480   -3.9000 C   0  0  0  0  0  0  0  0  0  0  0  0
    2.0220    9.3850   -3.1310 C   0  0  0  0  0  0  0  0  0  0  0  0
    0.5060   13.1670    0.1620 C   0  0  1  0  0  0  0  0  0  0  0  0
    0.7330   12.4930    1.5490 C   0  0  0  0  0  0  0  0  0  0  0  0
   -0.6760   14.1890    0.3520 C   0  0  0  0  0  0  0  0  0  0  0  0
   -0.7120   15.3960   -0.6040 C   0  0  0  0  0  0  0  0  0  0  0  0
    0.6540   16.0860   -0.6680 C   0  0  2  0  0  0  0  0  0  0  0  0
    0.9790   16.6370    0.7630 C   0  0  0  0  0  0  0  0  0  0  0  0
    1.1145   20.5200   -1.5955 H   0  0  0  0  0  0  0  0  0  0  0  0
    1.5172   19.2907   -2.8419 H   0  0  0  0  0  0  0  0  0  0  0  0
   -0.0996   20.0735   -2.8419 H   0  0  0  0  0  0  0  0  0  0  0  0
   -0.9103   18.5509   -1.4216 H   0  0  0  0  0  0  0  0  0  0  0  0
   -0.5070   18.9508    0.7232 H   0  0  0  0  0  0  0  0  0  0  0  0
    1.0908   18.0732    0.5748 H   0  0  0  0  0  0  0  0  0  0  0  0
    1.0662   20.8593   -0.4282 H   0  0  0  0  0  0  0  0  0  0  0  0
    0.8394   20.6517    1.3586 H   0  0  0  0  0  0  0  0  0  0  0  0
    2.9097   20.4771   -0.3380 H   0  0  0  0  0  0  0  0  0  0  0  0
    3.2855   19.9820    4.0814 H   0  0  0  0  0  0  0  0  0  0  0  0
    2.3046   21.2412    3.2573 H   0  0  0  0  0  0  0  0  0  0  0  0
    1.7543   19.5313    3.2573 H   0  0  0  0  0  0  0  0  0  0  0  0
    5.1962   20.2491    3.0412 H   0  0  0  0  0  0  0  0  0  0  0  0
    5.3873   19.3704    1.4862 H   0  0  0  0  0  0  0  0  0  0  0  0
    5.0932   21.1425    1.4862 H   0  0  0  0  0  0  0  0  0  0  0  0
    0.2148   17.0392   -2.5855 H   0  0  0  0  0  0  0  0  0  0  0  0
    2.5593   17.4871   -2.9550 H   0  0  0  0  0  0  0  0  0  0  0  0
    2.7602   18.1868   -1.3341 H   0  0  0  0  0  0  0  0  0  0  0  0
    3.6301   15.5872   -2.1401 H   0  0  0  0  0  0  0  0  0  0  0  0
    3.4957   16.1070   -0.4625 H   0  0  0  0  0  0  0  0  0  0  0  0
    0.8386   13.6008   -2.6131 H   0  0  0  0  0  0  0  0  0  0  0  0
    0.7969   15.2938   -3.2121 H   0  0  0  0  0  0  0  0  0  0  0  0
    2.3428   14.3789   -3.2121 H   0  0  0  0  0  0  0  0  0  0  0  0
    2.2193   14.3983    0.6865 H   0  0  0  0  0  0  0  0  0  0  0  0
    3.7523   13.3920   -1.1225 H   0  0  0  0  0  0  0  0  0  0  0  0
    3.2947   12.4328    0.3811 H   0  0  0  0  0  0  0  0  0  0  0  0
    3.2906   11.1056   -1.8939 H   0  0  0  0  0  0  0  0  0  0  0  0
   -0.4210   12.6786   -1.6804 H   0  0  0  0  0  0  0  0  0  0  0  0
   -0.4042   10.4654    0.4652 H   0  0  0  0  0  0  0  0  0  0  0  0
   -1.7858   11.5744    0.0517 H   0  0  0  0  0  0  0  0  0  0  0  0
   -2.0770    9.3145   -0.9148 H   0  0  0  0  0  0  0  0  0  0  0  0
   -1.9378   10.6070   -2.1702 H   0  0  0  0  0  0  0  0  0  0  0  0
   -0.6403    8.7129   -2.8679 H   0  0  0  0  0  0  0  0  0  0  0  0
   -0.1940    8.4740   -0.2600 H   0  0  0  0  0  0  0  0  0  0  0  0
   -0.4188   11.7611   -3.5941 H   0  0  0  0  0  0  0  0  0  0  0  0
    1.0800   11.3615   -4.5001 H   0  0  0  0  0  0  0  0  0  0  0  0
   -0.3023   10.2143   -4.5001 H   0  0  0  0  0  0  0  0  0  0  0  0
    2.5673    8.9868   -2.2626 H   0  0  0  0  0  0  0  0  0  0  0  0
    1.6412    8.5510   -3.7388 H   0  0  0  0  0  0  0  0  0  0  0  0
    2.7005   10.0016   -3.7388 H   0  0  0  0  0  0  0  0  0  0  0  0
    0.4918   13.2090    2.3485 H   0  0  0  0  0  0  0  0  0  0  0  0
    0.0825   11.6105    1.6387 H   0  0  0  0  0  0  0  0  0  0  0  0
    1.7848   12.1838    1.6387 H   0  0  0  0  0  0  0  0  0  0  0  0
   -1.6180   13.6355    0.2245 H   0  0  0  0  0  0  0  0  0  0  0  0
   -0.5256   14.6196    1.3530 H   0  0  0  0  0  0  0  0  0  0  0  0
   -0.9875   15.0493   -1.6109 H   0  0  0  0  0  0  0  0  0  0  0  0
   -1.4523   16.1181   -0.2293 H   0  0  0  0  0  0  0  0  0  0  0  0
    0.5740   15.9504    1.5210 H   0  0  0  0  0  0  0  0  0  0  0  0
    2.0691   16.7173    0.8861 H   0  0  0  0  0  0  0  0  0  0  0  0
    0.5219   17.6299    0.8861 H   0  0  0  0  0  0  0  0  0  0  0  0
  1  2  1  0
  2  3  1  0
  3  4  1  0
  4  5  1  0
  5  6  1  0
  6  7  1  0
  7  8  1  0
  7  9  1  0
  2 10  1  0
 10 11  1  0
 11 12  1  0
 12 13  1  0
 13 14  1  6
 13 15  1  0
 15 16  1  0
 16 17  1  0
 17 18  2  0
 18 19  1  0
 19 20  1  0
 20 21  1  0
 21 22  1  0
 22 23  1  0
 22 24  1  0
 24 25  1  0
 24 26  1  0
 19 27  1  0
 27 28  1  1
 27 29  1  0
 29 30  1  0
 30 31  1  0
 31 32  1  1
  7  5  1  0
 31 10  1  0
 31 13  1  0
 27 15  1  0
 24 18  1  0
  1 33  1  0
  1 34  1  0
  1 35  1  0
  2 36  1  1
  3 37  1  0
  3 38  1  0
  4 39  1  0
  4 40  1  0
  5 41  1  6
  8 42  1  0
  8 43  1  0
  8 44  1  0
  9 45  1  0
  9 46  1  0
  9 47  1  0
 10 48  1  6
 11 49  1  0
 11 50  1  0
 12 51  1  0
 12 52  1  0
 14 53  1  0
 14 54  1  0
 14 55  1  0
 15 56  1  1
 16 57  1  0
 16 58  1  0
 17 59  1  0
 19 60  1  6
 20 61  1  0
 20 62  1  0
 21 63  1  0
 21 64  1  0
 22 65  1  6
 23 66  1  0
 25 67  1  0
 25 68  1  0
 25 69  1  0
 26 70  1  0
 26 71  1  0
 26 72  1  0
 28 73  1  0
 28 74  1  0
 28 75  1  0
 29 76  1  0
 29 77  1  0
 30 78  1  0
 30 79  1  0
 32 80  1  0
 32 81  1  0
 32 82  1  0
M  END
>  <meeko>  (14) 
{"is_sidechain": [false], "intermolecular_energy": 2.731, "internal_energy": -0.839}

$$$$
EPH_relaxed_0001_pdb2pqr_Repair_53_r2_0001_out
     RDKit          3D

 82 86  0  0  0  0  0  0  0  0999 V2000
   -4.9800    8.7760   -0.7970 C   0  0  0  0  0  0  0  0  0  0  0  0
   -5.4350    7.6030   -1.6690 C   0  0  2  0  0  0  0  0  0  0  0  0
   -4.5120    7.3910   -2.8850 C   0  0  0  0  0  0  0  0  0  0  0  0
   -4.3490    5.9220   -3.2860 C   0  0  0  0  0  0  0  0  0  0  0  0
   -5.2120    5.0220   -2.4550 C   0  0  2  0  0  0  0  0  0  0  0  0
   -4.9770    3.6210   -2.6480 O   0  0  0  0  0  0  0  0  0  0  0  0
   -6.2720    4.1060   -3.0390 C   0  0  0  0  0  0  0  0  0  0  0  0
   -6.5240    4.0460   -4.5130 C   0  0  0  0  0  0  0  0  0  0  0  0
   -7.3830    3.6400   -2.1520 C   0  0  0  0  0  0  0  0  0  0  0  0
   -6.8690    7.8280   -2.1370 C   0  0  1  0  0  0  0  0  0  0  0  0
   -7.1630    7.1570   -3.5050 C   0  0  0  0  0  0  0  0  0  0  0  0
   -8.6350    6.6730   -3.4580 C   0  0  0  0  0  0  0  0  0  0  0  0
   -9.2340    7.3660   -2.2120 C   0  0  1  0  0  0  0  0  0  0  0  0
   -9.5920    8.8080   -2.6880 C   0  0  0  0  0  0  0  0  0  0  0  0
  -10.4590    6.6560   -1.5490 C   0  0  2  0  0  0  0  0  0  0  0  0
  -11.7070    6.5390   -2.4410 C   0  0  0  0  0  0  0  0  0  0  0  0
  -12.6700    7.6760   -2.3430 C   0  0  0  0  0  0  0  0  0  0  0  0
  -12.6860    8.6060   -1.3700 C   0  0  0  0  0  0  0  0  0  0  0  0
  -11.7280    8.5130   -0.1760 C   0  0  1  0  0  0  0  0  0  0  0  0
  -12.5130    8.7610    1.1390 C   0  0  0  0  0  0  0  0  0  0  0  0
  -13.2920   10.0730    1.1160 C   0  0  0  0  0  0  0  0  0  0  0  0
  -14.2750   10.1040   -0.0510 C   0  0  2  0  0  0  0  0  0  0  0  0
  -15.2870    9.1170    0.1730 O   0  0  0  0  0  0  0  0  0  0  0  0
  -13.5990    9.8560   -1.4280 C   0  0  0  0  0  0  0  0  0  0  0  0
  -12.7260   11.0780   -1.8080 C   0  0  0  0  0  0  0  0  0  0  0  0
  -14.7180    9.7720   -2.5010 C   0  0  0  0  0  0  0  0  0  0  0  0
  -10.8260    7.2060   -0.1110 C   0  0  1  0  0  0  0  0  0  0  0  0
  -11.5970    6.0630    0.6190 C   0  0  0  0  0  0  0  0  0  0  0  0
   -9.5490    7.5050    0.7590 C   0  0  0  0  0  0  0  0  0  0  0  0
   -8.3300    8.0940    0.0240 C   0  0  0  0  0  0  0  0  0  0  0  0
   -8.0050    7.2850   -1.2350 C   0  0  2  0  0  0  0  0  0  0  0  0
   -7.6190    5.8350   -0.7850 C   0  0  0  0  0  0  0  0  0  0  0  0
   -5.0847    8.5062    0.2642 H   0  0  0  0  0  0  0  0  0  0  0  0
   -3.9268    9.0076   -1.0143 H   0  0  0  0  0  0  0  0  0  0  0  0
   -5.6015    9.6572   -1.0143 H   0  0  0  0  0  0  0  0  0  0  0  0
   -5.3833    6.6935   -1.0525 H   0  0  0  0  0  0  0  0  0  0  0  0
   -4.9331    7.9397   -3.7403 H   0  0  0  0  0  0  0  0  0  0  0  0
   -3.5153    7.7587   -2.5998 H   0  0  0  0  0  0  0  0  0  0  0  0
   -4.6293    5.8079   -4.3436 H   0  0  0  0  0  0  0  0  0  0  0  0
   -3.2992    5.6365   -3.1236 H   0  0  0  0  0  0  0  0  0  0  0  0
   -5.2434    5.7632   -1.6428 H   0  0  0  0  0  0  0  0  0  0  0  0
   -7.5794    3.7947   -4.6946 H   0  0  0  0  0  0  0  0  0  0  0  0
   -6.2969    5.0233   -4.9639 H   0  0  0  0  0  0  0  0  0  0  0  0
   -5.8809    3.2759   -4.9639 H   0  0  0  0  0  0  0  0  0  0  0  0
   -7.0883    3.7636   -1.0995 H   0  0  0  0  0  0  0  0  0  0  0  0
   -8.2862    4.2351   -2.3522 H   0  0  0  0  0  0  0  0  0  0  0  0
   -7.5914    2.5786   -2.3522 H   0  0  0  0  0  0  0  0  0  0  0  0
   -6.8895    8.9278   -2.1461 H   0  0  0  0  0  0  0  0  0  0  0  0
   -7.0289    7.8835   -4.3200 H   0  0  0  0  0  0  0  0  0  0  0  0
   -6.4766    6.3173   -3.6889 H   0  0  0  0  0  0  0  0  0  0  0  0
   -9.1731    6.9773   -4.3679 H   0  0  0  0  0  0  0  0  0  0  0  0
   -8.7122    5.5771   -3.4033 H   0  0  0  0  0  0  0  0  0  0  0  0
   -9.7524    9.4540   -1.8122 H   0  0  0  0  0  0  0  0  0  0  0  0
   -8.7663    9.2098   -3.2937 H   0  0  0  0  0  0  0  0  0  0  0  0
  -10.5097    8.7769   -3.2937 H   0  0  0  0  0  0  0  0  0  0  0  0
  -10.0913    5.6281   -1.4140 H   0  0  0  0  0  0  0  0  0  0  0  0
  -11.3721    6.4664   -3.4863 H   0  0  0  0  0  0  0  0  0  0  0  0
  -12.2499    5.6493   -2.0895 H   0  0  0  0  0  0  0  0  0  0  0  0
  -13.4308    7.7608   -3.1329 H   0  0  0  0  0  0  0  0  0  0  0  0
  -10.9831    9.3092   -0.3215 H   0  0  0  0  0  0  0  0  0  0  0  0
  -13.2213    7.9328    1.2886 H   0  0  0  0  0  0  0  0  0  0  0  0
  -11.7817    8.8208    1.9586 H   0  0  0  0  0  0  0  0  0  0  0  0
  -13.8492   10.1773    2.0587 H   0  0  0  0  0  0  0  0  0  0  0  0
  -12.5792   10.9022    0.9964 H   0  0  0  0  0  0  0  0  0  0  0  0
  -14.7074   11.1146   -0.0917 H   0  0  0  0  0  0  0  0  0  0  0  0
  -15.4490    8.6650   -0.6730 H   0  0  0  0  0  0  0  0  0  0  0  0
  -12.3715   11.5742   -0.8925 H   0  0  0  0  0  0  0  0  0  0  0  0
  -11.8625   10.7416   -2.4006 H   0  0  0  0  0  0  0  0  0  0  0  0
  -13.3241   11.7858   -2.4006 H   0  0  0  0  0  0  0  0  0  0  0  0
  -15.6970    9.6985   -2.0048 H   0  0  0  0  0  0  0  0  0  0  0  0
  -14.6921   10.6746   -3.1292 H   0  0  0  0  0  0  0  0  0  0  0  0
  -14.5577    8.8834   -3.1292 H   0  0  0  0  0  0  0  0  0  0  0  0
  -11.5068    6.1967    1.7071 H   0  0  0  0  0  0  0  0  0  0  0  0
  -12.6585    6.0955    0.3323 H   0  0  0  0  0  0  0  0  0  0  0  0
  -11.1693    5.0909    0.3323 H   0  0  0  0  0  0  0  0  0  0  0  0
   -9.8407    8.2181    1.5441 H   0  0  0  0  0  0  0  0  0  0  0  0
   -9.2160    6.5237    1.1281 H   0  0  0  0  0  0  0  0  0  0  0  0
   -8.5502    9.1329   -0.2628 H   0  0  0  0  0  0  0  0  0  0  0  0
   -7.4620    8.0564    0.6987 H   0  0  0  0  0  0  0  0  0  0  0  0
   -7.6053    5.7835    0.3137 H   0  0  0  0  0  0  0  0  0  0  0  0
   -8.3583    5.1206   -1.1764 H   0  0  0  0  0  0  0  0  0  0  0  0
   -6.6224    5.5827   -1.1764 H   0  0  0  0  0  0  0  0  0  0  0  0
  1  2  1  0
  2  3  1  0
  3  4  1  0
  4  5  1  0
  5  6  1  0
  6  7  1  0
  7  8  1  0
  7  9  1  0
  2 10  1  0
 10 11  1  0
 11 12  1  0
 12 13  1  0
 13 14  1  6
 13 15  1  0
 15 16  1  0
 16 17  1  0
 17 18  2  0
 18 19  1  0
 19 20  1  0
 20 21  1  0
 21 22  1  0
 22 23  1  0
 22 24  1  0
 24 25  1  0
 24 26  1  0
 19 27  1  0
 27 28  1  1
 27 29  1  0
 29 30  1  0
 30 31  1  0
 31 32  1  1
  7  5  1  0
 31 10  1  0
 31 13  1  0
 27 15  1  0
 24 18  1  0
  1 33  1  0
  1 34  1  0
  1 35  1  0
  2 36  1  1
  3 37  1  0
  3 38  1  0
  4 39  1  0
  4 40  1  0
  5 41  1  1
  8 42  1  0
  8 43  1  0
  8 44  1  0
  9 45  1  0
  9 46  1  0
  9 47  1  0
 10 48  1  6
 11 49  1  0
 11 50  1  0
 12 51  1  0
 12 52  1  0
 14 53  1  0
 14 54  1  0
 14 55  1  0
 15 56  1  1
 16 57  1  0
 16 58  1  0
 17 59  1  0
 19 60  1  6
 20 61  1  0
 20 62  1  0
 21 63  1  0
 21 64  1  0
 22 65  1  6
 23 66  1  0
 25 67  1  0
 25 68  1  0
 25 69  1  0
 26 70  1  0
 26 71  1  0
 26 72  1  0
 28 73  1  0
 28 74  1  0
 28 75  1  0
 29 76  1  0
 29 77  1  0
 30 78  1  0
 30 79  1  0
 32 80  1  0
 32 81  1  0
 32 82  1  0
M  END
>  <meeko>  (15) 
{"is_sidechain": [false], "intermolecular_energy": 2.731, "internal_energy": -0.839}

$$$$
EPH_relaxed_0001_pdb2pqr_Repair_53_r2_0001_out
     RDKit          3D

 82 86  0  0  0  0  0  0  0  0999 V2000
    1.5390   10.6810   -4.9370 C   0  0  0  0  0  0  0  0  0  0  0  0
    0.8870   10.5510   -3.5580 C   0  0  2  0  0  0  0  0  0  0  0  0
   -0.2750    9.5370   -3.5580 C   0  0  0  0  0  0  0  0  0  0  0  0
   -0.1340    8.4400   -2.4990 C   0  0  0  0  0  0  0  0  0  0  0  0
   -0.0070    9.0140   -1.1200 C   0  0  2  0  0  0  0  0  0  0  0  0
   -0.3970    8.1270   -0.0640 O   0  0  0  0  0  0  0  0  0  0  0  0
   -1.1950    9.3100   -0.2240 C   0  0  0  0  0  0  0  0  0  0  0  0
   -2.5970    9.0430   -0.6740 C   0  0  0  0  0  0  0  0  0  0  0  0
   -1.0270   10.3050    0.8820 C   0  0  0  0  0  0  0  0  0  0  0  0
    0.3900   11.9130   -3.0880 C   0  0  1  0  0  0  0  0  0  0  0  0
   -1.0520   11.8580   -2.5170 C   0  0  0  0  0  0  0  0  0  0  0  0
   -1.1140   12.8890   -1.3600 C   0  0  0  0  0  0  0  0  0  0  0  0
    0.1740   13.7300   -1.5170 C   0  0  1  0  0  0  0  0  0  0  0  0
   -0.1600   14.7710   -2.6300 C   0  0  0  0  0  0  0  0  0  0  0  0
    0.7100   14.4220   -0.2210 C   0  0  2  0  0  0  0  0  0  0  0  0
   -0.2380   15.4610    0.4030 C   0  0  0  0  0  0  0  0  0  0  0  0
   -0.0580   16.8610   -0.0820 C   0  0  0  0  0  0  0  0  0  0  0  0
    1.0060   17.3220   -0.7640 C   0  0  0  0  0  0  0  0  0  0  0  0
    2.2210   16.4230   -1.0300 C   0  0  1  0  0  0  0  0  0  0  0  0
    3.5230   17.2010   -0.7040 C   0  0  0  0  0  0  0  0  0  0  0  0
    3.6090   18.5320   -1.4440 C   0  0  0  0  0  0  0  0  0  0  0  0
    2.4140   19.4210   -1.1100 C   0  0  2  0  0  0  0  0  0  0  0  0
    2.4920   19.7990    0.2680 O   0  0  0  0  0  0  0  0  0  0  0  0
    1.0460   18.7390   -1.3880 C   0  0  0  0  0  0  0  0  0  0  0  0
    0.8330   18.6030   -2.9160 C   0  0  0  0  0  0  0  0  0  0  0  0
   -0.0730   19.6860   -0.8760 C   0  0  0  0  0  0  0  0  0  0  0  0
    2.1820   14.9870   -0.3500 C   0  0  1  0  0  0  0  0  0  0  0  0
    2.7560   15.0680    1.0980 C   0  0  0  0  0  0  0  0  0  0  0  0
    3.1290   14.0140   -1.1480 C   0  0  0  0  0  0  0  0  0  0  0  0
    2.5080   13.2690   -2.3450 C   0  0  0  0  0  0  0  0  0  0  0  0
    1.1840   12.6070   -1.9530 C   0  0  2  0  0  0  0  0  0  0  0  0
    1.4920   11.5380   -0.8490 C   0  0  0  0  0  0  0  0  0  0  0  0
    2.6113   10.8948   -4.8169 H   0  0  0  0  0  0  0  0  0  0  0  0
    1.4127    9.7400   -5.4925 H   0  0  0  0  0  0  0  0  0  0  0  0
    1.0615   11.5016   -5.4925 H   0  0  0  0  0  0  0  0  0  0  0  0
    1.6529   10.1748   -2.8638 H   0  0  0  0  0  0  0  0  0  0  0  0
   -1.2118   10.0822   -3.3707 H   0  0  0  0  0  0  0  0  0  0  0  0
   -0.2680    9.0397   -4.5392 H   0  0  0  0  0  0  0  0  0  0  0  0
   -1.0228    7.7930   -2.5354 H   0  0  0  0  0  0  0  0  0  0  0  0
    0.7794    7.8675   -2.7177 H   0  0  0  0  0  0  0  0  0  0  0  0
    0.8549    9.6240   -1.4281 H   0  0  0  0  0  0  0  0  0  0  0  0
   -3.2469    8.9192    0.2048 H   0  0  0  0  0  0  0  0  0  0  0  0
   -2.9554    9.8890   -1.2788 H   0  0  0  0  0  0  0  0  0  0  0  0
   -2.6193    8.1245   -1.2788 H   0  0  0  0  0  0  0  0  0  0  0  0
   -1.1134    9.7932    1.8519 H   0  0  0  0  0  0  0  0  0  0  0  0
   -0.0365   10.7769    0.8034 H   0  0  0  0  0  0  0  0  0  0  0  0
   -1.8077   11.0759    0.8034 H   0  0  0  0  0  0  0  0  0  0  0  0
    0.4970   12.4813   -4.0237 H   0  0  0  0  0  0  0  0  0  0  0  0
   -1.7794   12.1217   -3.2989 H   0  0  0  0  0  0  0  0  0  0  0  0
   -1.2971   10.8471   -2.1591 H   0  0  0  0  0  0  0  0  0  0  0  0
   -2.0067   13.5248   -1.4539 H   0  0  0  0  0  0  0  0  0  0  0  0
   -1.1789   12.4058   -0.3739 H   0  0  0  0  0  0  0  0  0  0  0  0
   -0.4645   15.7201   -2.1648 H   0  0  0  0  0  0  0  0  0  0  0  0
    0.7297   14.9378   -3.2550 H   0  0  0  0  0  0  0  0  0  0  0  0
   -0.9807   14.3890   -3.2550 H   0  0  0  0  0  0  0  0  0  0  0  0
    0.7502   13.5867    0.4936 H   0  0  0  0  0  0  0  0  0  0  0  0
   -1.2710   15.1548    0.1815 H   0  0  0  0  0  0  0  0  0  0  0  0
   -0.0045   15.4790    1.4778 H   0  0  0  0  0  0  0  0  0  0  0  0
   -0.8640   17.5768    0.1369 H   0  0  0  0  0  0  0  0  0  0  0  0
    2.1906   16.1801   -2.1024 H   0  0  0  0  0  0  0  0  0  0  0  0
    3.5557   17.3962    0.3780 H   0  0  0  0  0  0  0  0  0  0  0  0
    4.3724   16.5823   -1.0292 H   0  0  0  0  0  0  0  0  0  0  0  0
    4.5348   19.0481   -1.1498 H   0  0  0  0  0  0  0  0  0  0  0  0
    3.6064   18.3327   -2.5258 H   0  0  0  0  0  0  0  0  0  0  0  0
    2.4641   20.3016   -1.7673 H   0  0  0  0  0  0  0  0  0  0  0  0
    3.4280   19.9520    0.4790 H   0  0  0  0  0  0  0  0  0  0  0  0
   -0.0798   18.0202   -3.1085 H   0  0  0  0  0  0  0  0  0  0  0  0
    0.7304   19.6031   -3.3624 H   0  0  0  0  0  0  0  0  0  0  0  0
    1.6971   18.0891   -3.3624 H   0  0  0  0  0  0  0  0  0  0  0  0
   -0.0762   19.6887    0.2240 H   0  0  0  0  0  0  0  0  0  0  0  0
    0.1125   20.7057   -1.2446 H   0  0  0  0  0  0  0  0  0  0  0  0
   -1.0480   19.3345   -1.2446 H   0  0  0  0  0  0  0  0  0  0  0  0
    1.9376   14.9525    1.8238 H   0  0  0  0  0  0  0  0  0  0  0  0
    3.4931   14.2650    1.2457 H   0  0  0  0  0  0  0  0  0  0  0  0
    3.2421   16.0436    1.2457 H   0  0  0  0  0  0  0  0  0  0  0  0
    3.9736   14.6080   -1.5273 H   0  0  0  0  0  0  0  0  0  0  0  0
    3.4050   13.2273   -0.4304 H   0  0  0  0  0  0  0  0  0  0  0  0
    2.3245   13.9859   -3.1589 H   0  0  0  0  0  0  0  0  0  0  0  0
    3.2080   12.4858   -2.6715 H   0  0  0  0  0  0  0  0  0  0  0  0
    1.3618   11.9899    0.1454 H   0  0  0  0  0  0  0  0  0  0  0  0
    0.8021   10.6883   -0.9588 H   0  0  0  0  0  0  0  0  0  0  0  0
    2.5282   11.1856   -0.9588 H   0  0  0  0  0  0  0  0  0  0  0  0
  1  2  1  0
  2  3  1  0
  3  4  1  0
  4  5  1  0
  5  6  1  0
  6  7  1  0
  7  8  1  0
  7  9  1  0
  2 10  1  0
 10 11  1  0
 11 12  1  0
 12 13  1  0
 13 14  1  6
 13 15  1  0
 15 16  1  0
 16 17  1  0
 17 18  2  0
 18 19  1  0
 19 20  1  0
 20 21  1  0
 21 22  1  0
 22 23  1  0
 22 24  1  0
 24 25  1  0
 24 26  1  0
 19 27  1  0
 27 28  1  1
 27 29  1  0
 29 30  1  0
 30 31  1  0
 31 32  1  1
  7  5  1  0
 31 10  1  0
 31 13  1  0
 27 15  1  0
 24 18  1  0
  1 33  1  0
  1 34  1  0
  1 35  1  0
  2 36  1  1
  3 37  1  0
  3 38  1  0
  4 39  1  0
  4 40  1  0
  5 41  1  1
  8 42  1  0
  8 43  1  0
  8 44  1  0
  9 45  1  0
  9 46  1  0
  9 47  1  0
 10 48  1  6
 11 49  1  0
 11 50  1  0
 12 51  1  0
 12 52  1  0
 14 53  1  0
 14 54  1  0
 14 55  1  0
 15 56  1  1
 16 57  1  0
 16 58  1  0
 17 59  1  0
 19 60  1  6
 20 61  1  0
 20 62  1  0
 21 63  1  0
 21 64  1  0
 22 65  1  6
 23 66  1  0
 25 67  1  0
 25 68  1  0
 25 69  1  0
 26 70  1  0
 26 71  1  0
 26 72  1  0
 28 73  1  0
 28 74  1  0
 28 75  1  0
 29 76  1  0
 29 77  1  0
 30 78  1  0
 30 79  1  0
 32 80  1  0
 32 81  1  0
 32 82  1  0
M  END
>  <meeko>  (16) 
{"is_sidechain": [false], "intermolecular_energy": 2.731, "internal_energy": -0.839}

$$$$
EPH_relaxed_0001_pdb2pqr_Repair_53_r2_0001_out
     RDKit          3D

 82 86  0  0  0  0  0  0  0  0999 V2000
    0.8880   14.9380   -2.6410 C   0  0  0  0  0  0  0  0  0  0  0  0
    1.1580   14.2610   -3.9870 C   0  0  2  0  0  0  0  0  0  0  0  0
    0.4560   14.9870   -5.1530 C   0  0  0  0  0  0  0  0  0  0  0  0
    1.0160   14.6230   -6.5310 C   0  0  0  0  0  0  0  0  0  0  0  0
    0.7830   15.7150   -7.5300 C   0  0  2  0  0  0  0  0  0  0  0  0
    0.3750   15.2630   -8.8270 O   0  0  0  0  0  0  0  0  0  0  0  0
    1.6480   15.9250   -8.7590 C   0  0  0  0  0  0  0  0  0  0  0  0
    2.8140   15.0340   -9.0530 C   0  0  0  0  0  0  0  0  0  0  0  0
    1.6610   17.2760   -9.4030 C   0  0  0  0  0  0  0  0  0  0  0  0
    0.7110   12.8050   -3.9360 C   0  0  1  0  0  0  0  0  0  0  0  0
    1.8430   11.8180   -4.3310 C   0  0  0  0  0  0  0  0  0  0  0  0
    1.6530   10.5490   -3.4610 C   0  0  0  0  0  0  0  0  0  0  0  0
    0.2440   10.7060   -2.8430 C   0  0  1  0  0  0  0  0  0  0  0  0
   -0.7390   10.2400   -3.9620 C   0  0  0  0  0  0  0  0  0  0  0  0
   -0.0100    9.9490   -1.4990 C   0  0  2  0  0  0  0  0  0  0  0  0
    0.0980    8.4160   -1.5840 C   0  0  0  0  0  0  0  0  0  0  0  0
   -1.1750    7.7040   -1.9010 C   0  0  0  0  0  0  0  0  0  0  0  0
   -2.4090    8.2380   -1.8290 C   0  0  0  0  0  0  0  0  0  0  0  0
   -2.6210    9.6620   -1.3010 C   0  0  1  0  0  0  0  0  0  0  0  0
   -3.7930    9.6680   -0.2850 C   0  0  0  0  0  0  0  0  0  0  0  0
   -5.0700    9.0630   -0.8610 C   0  0  0  0  0  0  0  0  0  0  0  0
   -4.8330    7.6270   -1.3220 C   0  0  2  0  0  0  0  0  0  0  0  0
   -4.5650    6.8140   -0.1760 O   0  0  0  0  0  0  0  0  0  0  0  0
   -3.6670    7.4950   -2.3410 C   0  0  0  0  0  0  0  0  0  0  0  0
   -4.0850    8.1230   -3.6940 C   0  0  0  0  0  0  0  0  0  0  0  0
   -3.4420    5.9840   -2.6160 C   0  0  0  0  0  0  0  0  0  0  0  0
   -1.3260   10.3950   -0.7420 C   0  0  1  0  0  0  0  0  0  0  0  0
   -1.1180   10.0360    0.7610 C   0  0  0  0  0  0  0  0  0  0  0  0
   -1.5510   11.9520   -0.8010 C   0  0  0  0  0  0  0  0  0  0  0  0
   -1.1690   12.6610   -2.1140 C   0  0  0  0  0  0  0  0  0  0  0  0
    0.2360   12.2540   -2.5680 C   0  0  2  0  0  0  0  0  0  0  0  0
    1.2490   12.7310   -1.4720 C   0  0  0  0  0  0  0  0  0  0  0  0
    1.1612   14.2531   -1.8247 H   0  0  0  0  0  0  0  0  0  0  0  0
    1.4887   15.8564   -2.5655 H   0  0  0  0  0  0  0  0  0  0  0  0
   -0.1798   15.1910   -2.5655 H   0  0  0  0  0  0  0  0  0  0  0  0
    2.2414   14.3108   -4.1708 H   0  0  0  0  0  0  0  0  0  0  0  0
   -0.6123   14.7255   -5.1321 H   0  0  0  0  0  0  0  0  0  0  0  0
    0.6272   16.0642   -5.0107 H   0  0  0  0  0  0  0  0  0  0  0  0
    2.0981   14.4472   -6.4409 H   0  0  0  0  0  0  0  0  0  0  0  0
    0.4978   13.7192   -6.8839 H   0  0  0  0  0  0  0  0  0  0  0  0
    0.4495   16.4004   -6.7369 H   0  0  0  0  0  0  0  0  0  0  0  0
    3.2615   14.6920   -8.1081 H   0  0  0  0  0  0  0  0  0  0  0  0
    2.4734   14.1639   -9.6335 H   0  0  0  0  0  0  0  0  0  0  0  0
    3.5641   15.5912   -9.6335 H   0  0  0  0  0  0  0  0  0  0  0  0
    1.6685   18.0532   -8.6246 H   0  0  0  0  0  0  0  0  0  0  0  0
    2.5601   17.3752  -10.0289 H   0  0  0  0  0  0  0  0  0  0  0  0
    0.7639   17.3925  -10.0289 H   0  0  0  0  0  0  0  0  0  0  0  0
   -0.1342   12.8472   -4.6388 H   0  0  0  0  0  0  0  0  0  0  0  0
    1.7664   11.5610   -5.3978 H   0  0  0  0  0  0  0  0  0  0  0  0
    2.8338   12.2662   -4.1651 H   0  0  0  0  0  0  0  0  0  0  0  0
    1.7061    9.6418   -4.0809 H   0  0  0  0  0  0  0  0  0  0  0  0
    2.4355   10.4482   -2.6945 H   0  0  0  0  0  0  0  0  0  0  0  0
   -1.6419    9.8120   -3.5020 H   0  0  0  0  0  0  0  0  0  0  0  0
   -1.0187   11.1014   -4.5864 H   0  0  0  0  0  0  0  0  0  0  0  0
   -0.2493    9.4782   -4.5864 H   0  0  0  0  0  0  0  0  0  0  0  0
    0.8391   10.2749   -0.8802 H   0  0  0  0  0  0  0  0  0  0  0  0
    0.8295    8.1697   -2.3677 H   0  0  0  0  0  0  0  0  0  0  0  0
    0.3955    8.0757   -0.5812 H   0  0  0  0  0  0  0  0  0  0  0  0
   -1.0986    6.6542   -2.2205 H   0  0  0  0  0  0  0  0  0  0  0  0
   -2.8818   10.2748   -2.1765 H   0  0  0  0  0  0  0  0  0  0  0  0
   -3.4954    9.0865    0.6000 H   0  0  0  0  0  0  0  0  0  0  0  0
   -4.0066   10.7160   -0.0279 H   0  0  0  0  0  0  0  0  0  0  0  0
   -5.8519    9.0684   -0.0873 H   0  0  0  0  0  0  0  0  0  0  0  0
   -5.3831    9.6632   -1.7280 H   0  0  0  0  0  0  0  0  0  0  0  0
   -5.7428    7.2929   -1.8423 H   0  0  0  0  0  0  0  0  0  0  0  0
   -3.6650    6.4580   -0.2720 H   0  0  0  0  0  0  0  0  0  0  0  0
   -4.6858    9.0257   -3.5092 H   0  0  0  0  0  0  0  0  0  0  0  0
   -3.1853    8.3923   -4.2668 H   0  0  0  0  0  0  0  0  0  0  0  0
   -4.6807    7.3970   -4.2668 H   0  0  0  0  0  0  0  0  0  0  0  0
   -3.3618    5.4453   -1.6603 H   0  0  0  0  0  0  0  0  0  0  0  0
   -4.2907    5.5857   -3.1913 H   0  0  0  0  0  0  0  0  0  0  0  0
   -2.5140    5.8502   -3.1913 H   0  0  0  0  0  0  0  0  0  0  0  0
   -1.5703   10.8166    1.3904 H   0  0  0  0  0  0  0  0  0  0  0  0
   -1.5956    9.0688    0.9765 H   0  0  0  0  0  0  0  0  0  0  0  0
   -0.0414    9.9693    0.9765 H   0  0  0  0  0  0  0  0  0  0  0  0
   -2.6195   12.1407   -0.6199 H   0  0  0  0  0  0  0  0  0  0  0  0
   -0.8732   12.3691   -0.0416 H   0  0  0  0  0  0  0  0  0  0  0  0
   -1.8932   12.3865   -2.8951 H   0  0  0  0  0  0  0  0  0  0  0  0
   -1.1812   13.7475   -1.9424 H   0  0  0  0  0  0  0  0  0  0  0  0
    0.8297   12.5336   -0.4744 H   0  0  0  0  0  0  0  0  0  0  0  0
    2.1968   12.1846   -1.5861 H   0  0  0  0  0  0  0  0  0  0  0  0
    1.4316   13.8097   -1.5861 H   0  0  0  0  0  0  0  0  0  0  0  0
  1  2  1  0
  2  3  1  0
  3  4  1  0
  4  5  1  0
  5  6  1  0
  6  7  1  0
  7  8  1  0
  7  9  1  0
  2 10  1  0
 10 11  1  0
 11 12  1  0
 12 13  1  0
 13 14  1  6
 13 15  1  0
 15 16  1  0
 16 17  1  0
 17 18  2  0
 18 19  1  0
 19 20  1  0
 20 21  1  0
 21 22  1  0
 22 23  1  0
 22 24  1  0
 24 25  1  0
 24 26  1  0
 19 27  1  0
 27 28  1  1
 27 29  1  0
 29 30  1  0
 30 31  1  0
 31 32  1  1
  7  5  1  0
 31 10  1  0
 31 13  1  0
 27 15  1  0
 24 18  1  0
  1 33  1  0
  1 34  1  0
  1 35  1  0
  2 36  1  6
  3 37  1  0
  3 38  1  0
  4 39  1  0
  4 40  1  0
  5 41  1  1
  8 42  1  0
  8 43  1  0
  8 44  1  0
  9 45  1  0
  9 46  1  0
  9 47  1  0
 10 48  1  6
 11 49  1  0
 11 50  1  0
 12 51  1  0
 12 52  1  0
 14 53  1  0
 14 54  1  0
 14 55  1  0
 15 56  1  1
 16 57  1  0
 16 58  1  0
 17 59  1  0
 19 60  1  6
 20 61  1  0
 20 62  1  0
 21 63  1  0
 21 64  1  0
 22 65  1  6
 23 66  1  0
 25 67  1  0
 25 68  1  0
 25 69  1  0
 26 70  1  0
 26 71  1  0
 26 72  1  0
 28 73  1  0
 28 74  1  0
 28 75  1  0
 29 76  1  0
 29 77  1  0
 30 78  1  0
 30 79  1  0
 32 80  1  0
 32 81  1  0
 32 82  1  0
M  END
>  <meeko>  (17) 
{"is_sidechain": [false], "intermolecular_energy": 2.731, "internal_energy": -0.839}

$$$$
EPH_relaxed_0001_pdb2pqr_Repair_53_r2_0001_out
     RDKit          3D

 82 86  0  0  0  0  0  0  0  0999 V2000
   -1.7310   14.8240    0.4760 C   0  0  0  0  0  0  0  0  0  0  0  0
   -0.3870   15.5240    0.2600 C   0  0  2  0  0  0  0  0  0  0  0  0
   -0.4390   16.5370   -0.9020 C   0  0  0  0  0  0  0  0  0  0  0  0
   -0.0340   17.9570   -0.4990 C   0  0  0  0  0  0  0  0  0  0  0  0
    1.3940   18.0190   -0.0470 C   0  0  2  0  0  0  0  0  0  0  0  0
    2.0700   19.2430   -0.3640 O   0  0  0  0  0  0  0  0  0  0  0  0
    2.5730   18.0580   -1.0010 C   0  0  0  0  0  0  0  0  0  0  0  0
    2.3770   18.0350   -2.4850 C   0  0  0  0  0  0  0  0  0  0  0  0
    3.9150   17.6270   -0.4980 C   0  0  0  0  0  0  0  0  0  0  0  0
    0.7020   14.4900    0.0010 C   0  0  1  0  0  0  0  0  0  0  0  0
    0.8290   13.4550    1.1510 C   0  0  0  0  0  0  0  0  0  0  0  0
    1.2030   12.1010    0.4950 C   0  0  0  0  0  0  0  0  0  0  0  0
    1.6020   12.4670   -0.9540 C   0  0  1  0  0  0  0  0  0  0  0  0
    3.0770   12.9670   -0.8490 C   0  0  0  0  0  0  0  0  0  0  0  0
    1.4520   11.3330   -2.0190 C   0  0  2  0  0  0  0  0  0  0  0  0
    2.3330   10.0930   -1.7820 C   0  0  0  0  0  0  0  0  0  0  0  0
    3.6790   10.1350   -2.4270 C   0  0  0  0  0  0  0  0  0  0  0  0
    4.0560   10.9900   -3.3950 C   0  0  0  0  0  0  0  0  0  0  0  0
    3.0550   11.9770   -4.0080 C   0  0  1  0  0  0  0  0  0  0  0  0
    3.1820   11.9500   -5.5540 C   0  0  0  0  0  0  0  0  0  0  0  0
    4.6110   12.1990   -6.0280 C   0  0  0  0  0  0  0  0  0  0  0  0
    5.5670   11.1620   -5.4430 C   0  0  2  0  0  0  0  0  0  0  0  0
    5.2500    9.8800   -5.9930 O   0  0  0  0  0  0  0  0  0  0  0  0
    5.5200   11.0910   -3.8910 C   0  0  0  0  0  0  0  0  0  0  0  0
    6.1480   12.3740   -3.2920 C   0  0  0  0  0  0  0  0  0  0  0  0
    6.4240    9.9130   -3.4390 C   0  0  0  0  0  0  0  0  0  0  0  0
    1.5500   11.8330   -3.5170 C   0  0  1  0  0  0  0  0  0  0  0  0
    0.8050   10.7770   -4.3900 C   0  0  0  0  0  0  0  0  0  0  0  0
    0.8030   13.2010   -3.7410 C   0  0  0  0  0  0  0  0  0  0  0  0
    0.8900   14.2350   -2.6020 C   0  0  0  0  0  0  0  0  0  0  0  0
    0.5480   13.5940   -1.2530 C   0  0  2  0  0  0  0  0  0  0  0  0
   -0.9370   13.1010   -1.3210 C   0  0  0  0  0  0  0  0  0  0  0  0
   -1.9231   14.7239    1.5545 H   0  0  0  0  0  0  0  0  0  0  0  0
   -2.5327   15.4191    0.0144 H   0  0  0  0  0  0  0  0  0  0  0  0
   -1.7030   13.8259    0.0144 H   0  0  0  0  0  0  0  0  0  0  0  0
   -0.1559   16.0857    1.1771 H   0  0  0  0  0  0  0  0  0  0  0  0
    0.2429   16.1928   -1.6935 H   0  0  0  0  0  0  0  0  0  0  0  0
   -1.4846   16.5847   -1.2403 H   0  0  0  0  0  0  0  0  0  0  0  0
   -0.1633   18.6237   -1.3643 H   0  0  0  0  0  0  0  0  0  0  0  0
   -0.6731   18.2710    0.3395 H   0  0  0  0  0  0  0  0  0  0  0  0
    1.1701   17.3852    0.8238 H   0  0  0  0  0  0  0  0  0  0  0  0
    1.3080   17.9095   -2.7118 H   0  0  0  0  0  0  0  0  0  0  0  0
    2.7348   18.9813   -2.9168 H   0  0  0  0  0  0  0  0  0  0  0  0
    2.9442   17.1973   -2.9168 H   0  0  0  0  0  0  0  0  0  0  0  0
    3.9119   17.6280    0.6020 H   0  0  0  0  0  0  0  0  0  0  0  0
    4.1351   16.6130   -0.8631 H   0  0  0  0  0  0  0  0  0  0  0  0
    4.6844   18.3232   -0.8631 H   0  0  0  0  0  0  0  0  0  0  0  0
    1.5668   15.1592   -0.1185 H   0  0  0  0  0  0  0  0  0  0  0  0
    1.6157   13.7651    1.8546 H   0  0  0  0  0  0  0  0  0  0  0  0
   -0.1119   13.3740    1.7151 H   0  0  0  0  0  0  0  0  0  0  0  0
    2.0465   11.6331    1.0237 H   0  0  0  0  0  0  0  0  0  0  0  0
    0.3751   11.3776    0.5298 H   0  0  0  0  0  0  0  0  0  0  0  0
    3.3574   13.0621    0.2104 H   0  0  0  0  0  0  0  0  0  0  0  0
    3.7448   12.2450   -1.3417 H   0  0  0  0  0  0  0  0  0  0  0  0
    3.1682   13.9462   -1.3417 H   0  0  0  0  0  0  0  0  0  0  0  0
    0.4162   10.9981   -1.8610 H   0  0  0  0  0  0  0  0  0  0  0  0
    2.4790    9.9819   -0.6974 H   0  0  0  0  0  0  0  0  0  0  0  0
    1.8004    9.2483   -2.2433 H   0  0  0  0  0  0  0  0  0  0  0  0
    4.4257    9.4050   -2.0814 H   0  0  0  0  0  0  0  0  0  0  0  0
    3.3354   12.9703   -3.6275 H   0  0  0  0  0  0  0  0  0  0  0  0
    2.8567   10.9640   -5.9174 H   0  0  0  0  0  0  0  0  0  0  0  0
    2.5517   12.7574   -5.9550 H   0  0  0  0  0  0  0  0  0  0  0  0
    4.6420   12.1387   -7.1259 H   0  0  0  0  0  0  0  0  0  0  0  0
    4.9250   13.1974   -5.6893 H   0  0  0  0  0  0  0  0  0  0  0  0
    6.5889   11.4678   -5.7118 H   0  0  0  0  0  0  0  0  0  0  0  0
    5.7450    9.7860   -6.8250 H   0  0  0  0  0  0  0  0  0  0  0  0
    6.1203   12.3175   -2.1938 H   0  0  0  0  0  0  0  0  0  0  0  0
    7.1915   12.4630   -3.6284 H   0  0  0  0  0  0  0  0  0  0  0  0
    5.5781   13.2527   -3.6284 H   0  0  0  0  0  0  0  0  0  0  0  0
    6.4537    9.8743   -2.3401 H   0  0  0  0  0  0  0  0  0  0  0  0
    6.0170    8.9681   -3.8283 H   0  0  0  0  0  0  0  0  0  0  0  0
    7.4420   10.0617   -3.8283 H   0  0  0  0  0  0  0  0  0  0  0  0
    0.2952   10.0544   -3.7359 H   0  0  0  0  0  0  0  0  0  0  0  0
    0.0633   11.2837   -5.0249 H   0  0  0  0  0  0  0  0  0  0  0  0
    1.5311   10.2482   -5.0249 H   0  0  0  0  0  0  0  0  0  0  0  0
    1.2236   13.6656   -4.6450 H   0  0  0  0  0  0  0  0  0  0  0  0
   -0.2630   12.9387   -3.8106 H   0  0  0  0  0  0  0  0  0  0  0  0
    1.9123   14.6389   -2.5598 H   0  0  0  0  0  0  0  0  0  0  0  0
    0.1666   15.0392   -2.8020 H   0  0  0  0  0  0  0  0  0  0  0  0
   -1.3274   12.9714   -0.3008 H   0  0  0  0  0  0  0  0  0  0  0  0
   -1.5463   13.8451   -1.8550 H   0  0  0  0  0  0  0  0  0  0  0  0
   -0.9803   12.1403   -1.8550 H   0  0  0  0  0  0  0  0  0  0  0  0
  1  2  1  0
  2  3  1  0
  3  4  1  0
  4  5  1  0
  5  6  1  0
  6  7  1  0
  7  8  1  0
  7  9  1  0
  2 10  1  0
 10 11  1  0
 11 12  1  0
 12 13  1  0
 13 14  1  1
 13 15  1  0
 15 16  1  0
 16 17  1  0
 17 18  2  0
 18 19  1  0
 19 20  1  0
 20 21  1  0
 21 22  1  0
 22 23  1  0
 22 24  1  0
 24 25  1  0
 24 26  1  0
 19 27  1  0
 27 28  1  6
 27 29  1  0
 29 30  1  0
 30 31  1  0
 31 32  1  6
  7  5  1  0
 31 10  1  0
 31 13  1  0
 27 15  1  0
 24 18  1  0
  1 33  1  0
  1 34  1  0
  1 35  1  0
  2 36  1  1
  3 37  1  0
  3 38  1  0
  4 39  1  0
  4 40  1  0
  5 41  1  1
  8 42  1  0
  8 43  1  0
  8 44  1  0
  9 45  1  0
  9 46  1  0
  9 47  1  0
 10 48  1  6
 11 49  1  0
 11 50  1  0
 12 51  1  0
 12 52  1  0
 14 53  1  0
 14 54  1  0
 14 55  1  0
 15 56  1  6
 16 57  1  0
 16 58  1  0
 17 59  1  0
 19 60  1  1
 20 61  1  0
 20 62  1  0
 21 63  1  0
 21 64  1  0
 22 65  1  1
 23 66  1  0
 25 67  1  0
 25 68  1  0
 25 69  1  0
 26 70  1  0
 26 71  1  0
 26 72  1  0
 28 73  1  0
 28 74  1  0
 28 75  1  0
 29 76  1  0
 29 77  1  0
 30 78  1  0
 30 79  1  0
 32 80  1  0
 32 81  1  0
 32 82  1  0
M  END
>  <meeko>  (18) 
{"is_sidechain": [false], "intermolecular_energy": 2.731, "internal_energy": -0.839}

$$$$
EPH_relaxed_0001_pdb2pqr_Repair_53_r2_0001_out
     RDKit          3D

 82 86  0  0  0  0  0  0  0  0999 V2000
   -2.4100    7.7430   -0.0370 C   0  0  0  0  0  0  0  0  0  0  0  0
   -3.0580    9.1310   -0.0390 C   0  0  2  0  0  0  0  0  0  0  0  0
   -4.5470    9.0770   -0.4340 C   0  0  0  0  0  0  0  0  0  0  0  0
   -5.0990    7.6540   -0.5580 C   0  0  0  0  0  0  0  0  0  0  0  0
   -5.8830    7.4720   -1.8230 C   0  0  2  0  0  0  0  0  0  0  0  0
   -6.8230    8.5180   -2.1010 O   0  0  0  0  0  0  0  0  0  0  0  0
   -7.3780    7.2170   -1.8510 C   0  0  0  0  0  0  0  0  0  0  0  0
   -8.1790    7.1290   -0.5890 C   0  0  0  0  0  0  0  0  0  0  0  0
   -7.9720    6.5720   -3.0640 C   0  0  0  0  0  0  0  0  0  0  0  0
   -2.3010   10.0560   -0.9850 C   0  0  1  0  0  0  0  0  0  0  0  0
   -2.9530   11.4600   -1.0970 C   0  0  0  0  0  0  0  0  0  0  0  0
   -1.7960   12.4780   -1.2680 C   0  0  0  0  0  0  0  0  0  0  0  0
   -0.5550   11.6090   -1.5800 C   0  0  1  0  0  0  0  0  0  0  0  0
   -0.6650   11.2870   -3.1040 C   0  0  0  0  0  0  0  0  0  0  0  0
    0.8330   12.2330   -1.2200 C   0  0  2  0  0  0  0  0  0  0  0  0
    1.1850   13.5230   -1.9800 C   0  0  0  0  0  0  0  0  0  0  0  0
    1.9220   13.3260   -3.2640 C   0  0  0  0  0  0  0  0  0  0  0  0
    2.5350   12.1910   -3.6480 C   0  0  0  0  0  0  0  0  0  0  0  0
    2.6080   10.9800   -2.7090 C   0  0  1  0  0  0  0  0  0  0  0  0
    4.0540   10.4170   -2.7020 C   0  0  0  0  0  0  0  0  0  0  0  0
    4.5650   10.1010   -4.1040 C   0  0  0  0  0  0  0  0  0  0  0  0
    4.5310   11.3440   -4.9900 C   0  0  2  0  0  0  0  0  0  0  0  0
    5.4820   12.2910   -4.4920 O   0  0  0  0  0  0  0  0  0  0  0  0
    3.1260   12.0040   -5.0660 C   0  0  0  0  0  0  0  0  0  0  0  0
    2.1680   11.0960   -5.8770 C   0  0  0  0  0  0  0  0  0  0  0  0
    3.2620   13.3230   -5.8740 C   0  0  0  0  0  0  0  0  0  0  0  0
    2.0320   11.2010   -1.2450 C   0  0  1  0  0  0  0  0  0  0  0  0
    3.1420   11.7870   -0.3200 C   0  0  0  0  0  0  0  0  0  0  0  0
    1.6350    9.8060   -0.6320 C   0  0  0  0  0  0  0  0  0  0  0  0
    0.2090    9.3000   -0.9250 C   0  0  0  0  0  0  0  0  0  0  0  0
   -0.8300   10.3870   -0.6310 C   0  0  2  0  0  0  0  0  0  0  0  0
   -0.7580   10.7150    0.8990 C   0  0  0  0  0  0  0  0  0  0  0  0
   -2.2555    7.4120    1.0006 H   0  0  0  0  0  0  0  0  0  0  0  0
   -3.0684    7.0302   -0.5551 H   0  0  0  0  0  0  0  0  0  0  0  0
   -1.4408    7.7901   -0.5551 H   0  0  0  0  0  0  0  0  0  0  0  0
   -3.0037    9.5229    0.9874 H   0  0  0  0  0  0  0  0  0  0  0  0
   -5.1292    9.6100    0.3321 H   0  0  0  0  0  0  0  0  0  0  0  0
   -4.6338    9.5434   -1.4264 H   0  0  0  0  0  0  0  0  0  0  0  0
   -4.2588    6.9440   -0.5540 H   0  0  0  0  0  0  0  0  0  0  0  0
   -5.7727    7.4720    0.2923 H   0  0  0  0  0  0  0  0  0  0  0  0
   -5.0372    6.9555   -2.3004 H   0  0  0  0  0  0  0  0  0  0  0  0
   -7.5063    7.2029    0.2782 H   0  0  0  0  0  0  0  0  0  0  0  0
   -8.9077    7.9525   -0.5590 H   0  0  0  0  0  0  0  0  0  0  0  0
   -8.7115    6.1669   -0.5590 H   0  0  0  0  0  0  0  0  0  0  0  0
   -8.6869    5.7957   -2.7536 H   0  0  0  0  0  0  0  0  0  0  0  0
   -8.4935    7.3315   -3.6649 H   0  0  0  0  0  0  0  0  0  0  0  0
   -7.1722    6.1147   -3.6649 H   0  0  0  0  0  0  0  0  0  0  0  0
   -2.3401    9.4515   -1.9032 H   0  0  0  0  0  0  0  0  0  0  0  0
   -3.6230   11.4981   -1.9686 H   0  0  0  0  0  0  0  0  0  0  0  0
   -3.5524   11.6896   -0.2037 H   0  0  0  0  0  0  0  0  0  0  0  0
   -2.0056   13.1682   -2.0985 H   0  0  0  0  0  0  0  0  0  0  0  0
   -1.6540   13.1024   -0.3736 H   0  0  0  0  0  0  0  0  0  0  0  0
   -1.0180   10.2536   -3.2359 H   0  0  0  0  0  0  0  0  0  0  0  0
   -1.3771   11.9806   -3.5749 H   0  0  0  0  0  0  0  0  0  0  0  0
    0.3227   11.4000   -3.5749 H   0  0  0  0  0  0  0  0  0  0  0  0
    0.6926   12.5342   -0.1714 H   0  0  0  0  0  0  0  0  0  0  0  0
    0.2470   14.0521   -2.2042 H   0  0  0  0  0  0  0  0  0  0  0  0
    1.8632   14.0876   -1.3233 H   0  0  0  0  0  0  0  0  0  0  0  0
    1.9677   14.1811   -3.9544 H   0  0  0  0  0  0  0  0  0  0  0  0
    1.9175   10.2313   -3.1245 H   0  0  0  0  0  0  0  0  0  0  0  0
    4.7205   11.1623   -2.2434 H   0  0  0  0  0  0  0  0  0  0  0  0
    4.0438    9.4772   -2.1304 H   0  0  0  0  0  0  0  0  0  0  0  0
    5.6003    9.7356   -4.0360 H   0  0  0  0  0  0  0  0  0  0  0  0
    3.9150    9.3339   -4.5501 H   0  0  0  0  0  0  0  0  0  0  0  0
    4.7839   11.0275   -6.0127 H   0  0  0  0  0  0  0  0  0  0  0  0
    5.0200   13.1390   -4.3800 H   0  0  0  0  0  0  0  0  0  0  0  0
    1.5472   10.5076   -5.1853 H   0  0  0  0  0  0  0  0  0  0  0  0
    1.5204   11.7197   -6.5108 H   0  0  0  0  0  0  0  0  0  0  0  0
    2.7561   10.4160   -6.5108 H   0  0  0  0  0  0  0  0  0  0  0  0
    3.3495   14.1713   -5.1792 H   0  0  0  0  0  0  0  0  0  0  0  0
    4.1598   13.2739   -6.5076 H   0  0  0  0  0  0  0  0  0  0  0  0
    2.3730   13.4582   -6.5076 H   0  0  0  0  0  0  0  0  0  0  0  0
    2.8589   11.6376    0.7324 H   0  0  0  0  0  0  0  0  0  0  0  0
    4.0944   11.2742   -0.5199 H   0  0  0  0  0  0  0  0  0  0  0  0
    3.2558   12.8627   -0.5199 H   0  0  0  0  0  0  0  0  0  0  0  0
    2.3406    9.0578   -1.0223 H   0  0  0  0  0  0  0  0  0  0  0  0
    1.6719    9.9490    0.4580 H   0  0  0  0  0  0  0  0  0  0  0  0
    0.1396    9.0131   -1.9847 H   0  0  0  0  0  0  0  0  0  0  0  0
    0.0040    8.4347   -0.2776 H   0  0  0  0  0  0  0  0  0  0  0  0
   -0.9583    9.8024    1.4795 H   0  0  0  0  0  0  0  0  0  0  0  0
    0.2447   11.0939    1.1460 H   0  0  0  0  0  0  0  0  0  0  0  0
   -1.5098   11.4791    1.1460 H   0  0  0  0  0  0  0  0  0  0  0  0
  1  2  1  0
  2  3  1  0
  3  4  1  0
  4  5  1  0
  5  6  1  0
  6  7  1  0
  7  8  1  0
  7  9  1  0
  2 10  1  0
 10 11  1  0
 11 12  1  0
 12 13  1  0
 13 14  1  6
 13 15  1  0
 15 16  1  0
 16 17  1  0
 17 18  2  0
 18 19  1  0
 19 20  1  0
 20 21  1  0
 21 22  1  0
 22 23  1  0
 22 24  1  0
 24 25  1  0
 24 26  1  0
 19 27  1  0
 27 28  1  1
 27 29  1  0
 29 30  1  0
 30 31  1  0
 31 32  1  1
  7  5  1  0
 31 10  1  0
 31 13  1  0
 27 15  1  0
 24 18  1  0
  1 33  1  0
  1 34  1  0
  1 35  1  0
  2 36  1  1
  3 37  1  0
  3 38  1  0
  4 39  1  0
  4 40  1  0
  5 41  1  6
  8 42  1  0
  8 43  1  0
  8 44  1  0
  9 45  1  0
  9 46  1  0
  9 47  1  0
 10 48  1  6
 11 49  1  0
 11 50  1  0
 12 51  1  0
 12 52  1  0
 14 53  1  0
 14 54  1  0
 14 55  1  0
 15 56  1  1
 16 57  1  0
 16 58  1  0
 17 59  1  0
 19 60  1  6
 20 61  1  0
 20 62  1  0
 21 63  1  0
 21 64  1  0
 22 65  1  6
 23 66  1  0
 25 67  1  0
 25 68  1  0
 25 69  1  0
 26 70  1  0
 26 71  1  0
 26 72  1  0
 28 73  1  0
 28 74  1  0
 28 75  1  0
 29 76  1  0
 29 77  1  0
 30 78  1  0
 30 79  1  0
 32 80  1  0
 32 81  1  0
 32 82  1  0
M  END
>  <meeko>  (19) 
{"is_sidechain": [false], "intermolecular_energy": 2.731, "internal_energy": -0.839}

$$$$
