EPH_relaxed_0001_pdb2pqr_Repair_389_r2_0001_out
     RDKit          3D

 82 86  0  0  0  0  0  0  0  0999 V2000
   -1.8310    8.7940   -1.9120 C   0  0  0  0  0  0  0  0  0  0  0  0
   -1.8080    9.0330   -0.3990 C   0  0  2  0  0  0  0  0  0  0  0  0
   -3.2270    9.1860    0.1860 C   0  0  0  0  0  0  0  0  0  0  0  0
   -4.3340    9.1640   -0.8710 C   0  0  0  0  0  0  0  0  0  0  0  0
   -5.0980    7.8740   -0.8460 C   0  0  2  0  0  0  0  0  0  0  0  0
   -5.4080    7.3370   -2.1390 O   0  0  0  0  0  0  0  0  0  0  0  0
   -6.5290    7.7400   -1.3340 C   0  0  0  0  0  0  0  0  0  0  0  0
   -7.2800    8.9130   -1.8810 C   0  0  0  0  0  0  0  0  0  0  0  0
   -7.3510    6.5950   -0.8310 C   0  0  0  0  0  0  0  0  0  0  0  0
   -0.9770   10.2700   -0.0810 C   0  0  1  0  0  0  0  0  0  0  0  0
    0.1030   10.0020    1.0010 C   0  0  0  0  0  0  0  0  0  0  0  0
    1.3330   10.8700    0.6300 C   0  0  0  0  0  0  0  0  0  0  0  0
    0.8090   11.8480   -0.4470 C   0  0  1  0  0  0  0  0  0  0  0  0
    0.0930   12.9810    0.3530 C   0  0  0  0  0  0  0  0  0  0  0  0
    1.8760   12.4250   -1.4340 C   0  0  2  0  0  0  0  0  0  0  0  0
    2.9760   13.2790   -0.7800 C   0  0  0  0  0  0  0  0  0  0  0  0
    2.6800   14.7390   -0.6900 C   0  0  0  0  0  0  0  0  0  0  0  0
    1.7110   15.3840   -1.3660 C   0  0  0  0  0  0  0  0  0  0  0  0
    0.8520   14.6500   -2.4040 C   0  0  1  0  0  0  0  0  0  0  0  0
    0.7510   15.5080   -3.6920 C   0  0  0  0  0  0  0  0  0  0  0  0
    0.2500   16.9220   -3.4160 C   0  0  0  0  0  0  0  0  0  0  0  0
    1.1630   17.6400   -2.4240 C   0  0  2  0  0  0  0  0  0  0  0  0
    2.4370   17.8500   -3.0400 O   0  0  0  0  0  0  0  0  0  0  0  0
    1.3480   16.8640   -1.0900 C   0  0  0  0  0  0  0  0  0  0  0  0
    0.0280   16.8980   -0.2810 C   0  0  0  0  0  0  0  0  0  0  0  0
    2.3990   17.6250   -0.2380 C   0  0  0  0  0  0  0  0  0  0  0  0
    1.2630   13.1450   -2.7030 C   0  0  1  0  0  0  0  0  0  0  0  0
    2.3590   13.1030   -3.8120 C   0  0  0  0  0  0  0  0  0  0  0  0
    0.0160   12.3770   -3.2830 C   0  0  0  0  0  0  0  0  0  0  0  0
   -0.9360   11.7280   -2.2610 C   0  0  0  0  0  0  0  0  0  0  0  0
   -0.1580   10.8940   -1.2380 C   0  0  2  0  0  0  0  0  0  0  0  0
    0.5550    9.7330   -2.0120 C   0  0  0  0  0  0  0  0  0  0  0  0
   -1.9346    7.7172   -2.1116 H   0  0  0  0  0  0  0  0  0  0  0  0
   -2.6815    9.3326   -2.3554 H   0  0  0  0  0  0  0  0  0  0  0  0
   -0.8934    9.1605   -2.3554 H   0  0  0  0  0  0  0  0  0  0  0  0
   -1.3515    8.1485    0.0693 H   0  0  0  0  0  0  0  0  0  0  0  0
   -3.4031    8.3598    0.8906 H   0  0  0  0  0  0  0  0  0  0  0  0
   -3.2688   10.1705    0.6748 H   0  0  0  0  0  0  0  0  0  0  0  0
   -5.0292    9.9940   -0.6767 H   0  0  0  0  0  0  0  0  0  0  0  0
   -3.8655    9.2663   -1.8609 H   0  0  0  0  0  0  0  0  0  0  0  0
   -4.6070    7.5735    0.0913 H   0  0  0  0  0  0  0  0  0  0  0  0
   -7.6684    9.5197   -1.0497 H   0  0  0  0  0  0  0  0  0  0  0  0
   -6.6054    9.5251   -2.4977 H   0  0  0  0  0  0  0  0  0  0  0  0
   -8.1182    8.5565   -2.4977 H   0  0  0  0  0  0  0  0  0  0  0  0
   -7.3491    6.5976    0.2690 H   0  0  0  0  0  0  0  0  0  0  0  0
   -8.3836    6.6967   -1.1961 H   0  0  0  0  0  0  0  0  0  0  0  0
   -6.9244    5.6491   -1.1961 H   0  0  0  0  0  0  0  0  0  0  0  0
   -1.7797   10.9573    0.2246 H   0  0  0  0  0  0  0  0  0  0  0  0
   -0.2762   10.2870    1.9935 H   0  0  0  0  0  0  0  0  0  0  0  0
    0.3690    8.9353    1.0378 H   0  0  0  0  0  0  0  0  0  0  0  0
    1.6994   11.4203    1.5091 H   0  0  0  0  0  0  0  0  0  0  0  0
    2.1773   10.2646    0.2686 H   0  0  0  0  0  0  0  0  0  0  0  0
    0.2088   12.7978    1.4314 H   0  0  0  0  0  0  0  0  0  0  0  0
    0.5421   13.9516    0.0957 H   0  0  0  0  0  0  0  0  0  0  0  0
   -0.9764   12.9920    0.0957 H   0  0  0  0  0  0  0  0  0  0  0  0
    2.3790   11.5157   -1.7948 H   0  0  0  0  0  0  0  0  0  0  0  0
    3.1380   12.9014    0.2404 H   0  0  0  0  0  0  0  0  0  0  0  0
    3.8593   13.1868   -1.4290 H   0  0  0  0  0  0  0  0  0  0  0  0
    3.3069   15.3389   -0.0139 H   0  0  0  0  0  0  0  0  0  0  0  0
   -0.1444   14.5387   -1.9515 H   0  0  0  0  0  0  0  0  0  0  0  0
    1.7479   15.5709   -4.1527 H   0  0  0  0  0  0  0  0  0  0  0  0
    0.0255   15.0217   -4.3607 H   0  0  0  0  0  0  0  0  0  0  0  0
    0.2284   17.4870   -4.3596 H   0  0  0  0  0  0  0  0  0  0  0  0
   -0.7591   16.8589   -2.9827 H   0  0  0  0  0  0  0  0  0  0  0  0
    0.6842   18.5962   -2.1662 H   0  0  0  0  0  0  0  0  0  0  0  0
    2.7290   17.0000   -3.4090 H   0  0  0  0  0  0  0  0  0  0  0  0
    0.2571   16.8921    0.7949 H   0  0  0  0  0  0  0  0  0  0  0  0
   -0.5322   17.8109   -0.5316 H   0  0  0  0  0  0  0  0  0  0  0  0
   -0.5785   16.0152   -0.5316 H   0  0  0  0  0  0  0  0  0  0  0  0
    2.1862   17.4709    0.8302 H   0  0  0  0  0  0  0  0  0  0  0  0
    3.4045   17.2442   -0.4702 H   0  0  0  0  0  0  0  0  0  0  0  0
    2.3510   18.6991   -0.4702 H   0  0  0  0  0  0  0  0  0  0  0  0
    3.3535   13.0649   -3.3434 H   0  0  0  0  0  0  0  0  0  0  0  0
    2.2138   12.2098   -4.4373 H   0  0  0  0  0  0  0  0  0  0  0  0
    2.2826   14.0047   -4.4373 H   0  0  0  0  0  0  0  0  0  0  0  0
   -0.5707   13.0944   -3.8756 H   0  0  0  0  0  0  0  0  0  0  0  0
    0.4359   11.5388   -3.8584 H   0  0  0  0  0  0  0  0  0  0  0  0
   -1.4905   12.5182   -1.7337 H   0  0  0  0  0  0  0  0  0  0  0  0
   -1.6287   11.0647   -2.7996 H   0  0  0  0  0  0  0  0  0  0  0  0
    0.9899    9.0248   -1.2914 H   0  0  0  0  0  0  0  0  0  0  0  0
   -0.1775    9.2096   -2.6440 H   0  0  0  0  0  0  0  0  0  0  0  0
    1.3531   10.1496   -2.6440 H   0  0  0  0  0  0  0  0  0  0  0  0
  1  2  1  0
  2  3  1  0
  3  4  1  0
  4  5  1  0
  5  6  1  0
  6  7  1  0
  7  8  1  0
  7  9  1  0
  2 10  1  0
 10 11  1  0
 11 12  1  0
 12 13  1  0
 13 14  1  1
 13 15  1  0
 15 16  1  0
 16 17  1  0
 17 18  2  0
 18 19  1  0
 19 20  1  0
 20 21  1  0
 21 22  1  0
 22 23  1  0
 22 24  1  0
 24 25  1  0
 24 26  1  0
 19 27  1  0
 27 28  1  6
 27 29  1  0
 29 30  1  0
 30 31  1  0
 31 32  1  6
  7  5  1  0
 31 10  1  0
 31 13  1  0
 27 15  1  0
 24 18  1  0
  1 33  1  0
  1 34  1  0
  1 35  1  0
  2 36  1  1
  3 37  1  0
  3 38  1  0
  4 39  1  0
  4 40  1  0
  5 41  1  1
  8 42  1  0
  8 43  1  0
  8 44  1  0
  9 45  1  0
  9 46  1  0
  9 47  1  0
 10 48  1  1
 11 49  1  0
 11 50  1  0
 12 51  1  0
 12 52  1  0
 14 53  1  0
 14 54  1  0
 14 55  1  0
 15 56  1  6
 16 57  1  0
 16 58  1  0
 17 59  1  0
 19 60  1  1
 20 61  1  0
 20 62  1  0
 21 63  1  0
 21 64  1  0
 22 65  1  1
 23 66  1  0
 25 67  1  0
 25 68  1  0
 25 69  1  0
 26 70  1  0
 26 71  1  0
 26 72  1  0
 28 73  1  0
 28 74  1  0
 28 75  1  0
 29 76  1  0
 29 77  1  0
 30 78  1  0
 30 79  1  0
 32 80  1  0
 32 81  1  0
 32 82  1  0
M  END
>  <meeko>  (1) 
{"is_sidechain": [false], "intermolecular_energy": 2.731, "internal_energy": -0.839}

$$$$
EPH_relaxed_0001_pdb2pqr_Repair_389_r2_0001_out
     RDKit          3D

 82 86  0  0  0  0  0  0  0  0999 V2000
    4.2360   17.5600   -0.6410 C   0  0  0  0  0  0  0  0  0  0  0  0
    2.8760   18.1350   -0.2360 C   0  0  2  0  0  0  0  0  0  0  0  0
    2.9290   18.8420    1.1330 C   0  0  0  0  0  0  0  0  0  0  0  0
    4.2920   18.7440    1.8240 C   0  0  0  0  0  0  0  0  0  0  0  0
    4.2400   19.2660    3.2280 C   0  0  2  0  0  0  0  0  0  0  0  0
    5.2860   20.1870    3.5640 O   0  0  0  0  0  0  0  0  0  0  0  0
    5.2840   18.9410    4.2800 C   0  0  0  0  0  0  0  0  0  0  0  0
    6.4540   18.0610    3.9720 C   0  0  0  0  0  0  0  0  0  0  0  0
    4.9120   19.0770    5.7240 C   0  0  0  0  0  0  0  0  0  0  0  0
    1.8300   17.0260   -0.2090 C   0  0  1  0  0  0  0  0  0  0  0  0
    0.3990   17.5460   -0.5060 C   0  0  0  0  0  0  0  0  0  0  0  0
   -0.3280   16.4290   -1.2970 C   0  0  0  0  0  0  0  0  0  0  0  0
    0.5800   15.1870   -1.1420 C   0  0  1  0  0  0  0  0  0  0  0  0
    0.2230   14.6010    0.2590 C   0  0  0  0  0  0  0  0  0  0  0  0
    0.4690   14.1050   -2.2660 C   0  0  2  0  0  0  0  0  0  0  0  0
   -0.9110   13.4380   -2.3950 C   0  0  0  0  0  0  0  0  0  0  0  0
   -1.1020   12.2040   -1.5770 C   0  0  0  0  0  0  0  0  0  0  0  0
   -0.1190   11.4920   -0.9930 C   0  0  0  0  0  0  0  0  0  0  0  0
    1.3550   11.8590   -1.2120 C   0  0  1  0  0  0  0  0  0  0  0  0
    2.1650   10.5760   -1.5330 C   0  0  0  0  0  0  0  0  0  0  0  0
    1.9850    9.4900   -0.4760 C   0  0  0  0  0  0  0  0  0  0  0  0
    0.5130    9.1120   -0.3300 C   0  0  2  0  0  0  0  0  0  0  0  0
    0.0770    8.4800   -1.5380 O   0  0  0  0  0  0  0  0  0  0  0  0
   -0.4040   10.3270   -0.0150 C   0  0  0  0  0  0  0  0  0  0  0  0
   -0.1320   10.8240    1.4260 C   0  0  0  0  0  0  0  0  0  0  0  0
   -1.8750    9.8320   -0.0330 C   0  0  0  0  0  0  0  0  0  0  0  0
    1.6310   13.0310   -2.2490 C   0  0  1  0  0  0  0  0  0  0  0  0
    1.7240   12.4520   -3.6940 C   0  0  0  0  0  0  0  0  0  0  0  0
    3.0350   13.6730   -1.9370 C   0  0  0  0  0  0  0  0  0  0  0  0
    3.0620   14.8180   -0.9060 C   0  0  0  0  0  0  0  0  0  0  0  0
    1.9940   15.8690   -1.2260 C   0  0  2  0  0  0  0  0  0  0  0  0
    2.3400   16.4920   -2.6210 C   0  0  0  0  0  0  0  0  0  0  0  0
    4.8144   17.3155    0.2622 H   0  0  0  0  0  0  0  0  0  0  0  0
    4.0856   16.6485   -1.2381 H   0  0  0  0  0  0  0  0  0  0  0  0
    4.7851   18.3030   -1.2381 H   0  0  0  0  0  0  0  0  0  0  0  0
    2.5989   18.8896   -0.9869 H   0  0  0  0  0  0  0  0  0  0  0  0
    2.6908   19.9055    0.9841 H   0  0  0  0  0  0  0  0  0  0  0  0
    2.2012   18.3361    1.7845 H   0  0  0  0  0  0  0  0  0  0  0  0
    4.6052   17.6898    1.8469 H   0  0  0  0  0  0  0  0  0  0  0  0
    5.0090   19.3557    1.2568 H   0  0  0  0  0  0  0  0  0  0  0  0
    3.1417   19.2055    3.2348 H   0  0  0  0  0  0  0  0  0  0  0  0
    6.9114   17.7170    4.9114 H   0  0  0  0  0  0  0  0  0  0  0  0
    6.1156   17.1917    3.3891 H   0  0  0  0  0  0  0  0  0  0  0  0
    7.1953   18.6273    3.3891 H   0  0  0  0  0  0  0  0  0  0  0  0
    5.7602   18.7669    6.3519 H   0  0  0  0  0  0  0  0  0  0  0  0
    4.6596   20.1256    5.9404 H   0  0  0  0  0  0  0  0  0  0  0  0
    4.0428   18.4385    5.9404 H   0  0  0  0  0  0  0  0  0  0  0  0
    1.9843   16.6528    0.8142 H   0  0  0  0  0  0  0  0  0  0  0  0
   -0.1324   17.7509    0.4351 H   0  0  0  0  0  0  0  0  0  0  0  0
    0.4310   18.4818   -1.0834 H   0  0  0  0  0  0  0  0  0  0  0  0
   -1.3241   16.2373   -0.8716 H   0  0  0  0  0  0  0  0  0  0  0  0
   -0.4873   16.7003   -2.3510 H   0  0  0  0  0  0  0  0  0  0  0  0
    0.6237   15.2587    1.0445 H   0  0  0  0  0  0  0  0  0  0  0  0
   -0.8702   14.5328    0.3602 H   0  0  0  0  0  0  0  0  0  0  0  0
    0.6638   13.5983    0.3602 H   0  0  0  0  0  0  0  0  0  0  0  0
    0.5993   14.7013   -3.1811 H   0  0  0  0  0  0  0  0  0  0  0  0
   -1.6724   14.1703   -2.0883 H   0  0  0  0  0  0  0  0  0  0  0  0
   -0.9999   13.1235   -3.4453 H   0  0  0  0  0  0  0  0  0  0  0  0
   -2.1329   11.8458   -1.4395 H   0  0  0  0  0  0  0  0  0  0  0  0
    1.7047   12.2939   -0.2641 H   0  0  0  0  0  0  0  0  0  0  0  0
    1.8307   10.1818   -2.5040 H   0  0  0  0  0  0  0  0  0  0  0  0
    3.2302   10.8499   -1.5520 H   0  0  0  0  0  0  0  0  0  0  0  0
    2.5580    8.5993   -0.7733 H   0  0  0  0  0  0  0  0  0  0  0  0
    2.3469    9.8746    0.4889 H   0  0  0  0  0  0  0  0  0  0  0  0
    0.4320    8.4280    0.5277 H   0  0  0  0  0  0  0  0  0  0  0  0
    0.5850    7.6580   -1.6400 H   0  0  0  0  0  0  0  0  0  0  0  0
   -0.5310   10.0950    2.1467 H   0  0  0  0  0  0  0  0  0  0  0  0
    0.9520   10.9338    1.5775 H   0  0  0  0  0  0  0  0  0  0  0  0
   -0.6238   11.7962    1.5775 H   0  0  0  0  0  0  0  0  0  0  0  0
   -2.2339    9.7112    0.9998 H   0  0  0  0  0  0  0  0  0  0  0  0
   -2.5032   10.5682   -0.5558 H   0  0  0  0  0  0  0  0  0  0  0  0
   -1.9303    8.8657   -0.5558 H   0  0  0  0  0  0  0  0  0  0  0  0
    1.8983   11.3671   -3.6438 H   0  0  0  0  0  0  0  0  0  0  0  0
    0.7829   12.6478   -4.2288 H   0  0  0  0  0  0  0  0  0  0  0  0
    2.5564   12.9327   -4.2288 H   0  0  0  0  0  0  0  0  0  0  0  0
    3.6910   12.8731   -1.5631 H   0  0  0  0  0  0  0  0  0  0  0  0
    3.3590   14.1304   -2.8835 H   0  0  0  0  0  0  0  0  0  0  0  0
    2.8718   14.4050    0.0956 H   0  0  0  0  0  0  0  0  0  0  0  0
    4.0503   15.2997   -0.9424 H   0  0  0  0  0  0  0  0  0  0  0  0
    2.8694   17.4452   -2.4757 H   0  0  0  0  0  0  0  0  0  0  0  0
    2.9820   15.7981   -3.1834 H   0  0  0  0  0  0  0  0  0  0  0  0
    1.4116   16.6702   -3.1834 H   0  0  0  0  0  0  0  0  0  0  0  0
  1  2  1  0
  2  3  1  0
  3  4  1  0
  4  5  1  0
  5  6  1  0
  6  7  1  0
  7  8  1  0
  7  9  1  0
  2 10  1  0
 10 11  1  0
 11 12  1  0
 12 13  1  0
 13 14  1  1
 13 15  1  0
 15 16  1  0
 16 17  1  0
 17 18  2  0
 18 19  1  0
 19 20  1  0
 20 21  1  0
 21 22  1  0
 22 23  1  0
 22 24  1  0
 24 25  1  0
 24 26  1  0
 19 27  1  0
 27 28  1  6
 27 29  1  0
 29 30  1  0
 30 31  1  0
 31 32  1  6
  7  5  1  0
 31 10  1  0
 31 13  1  0
 27 15  1  0
 24 18  1  0
  1 33  1  0
  1 34  1  0
  1 35  1  0
  2 36  1  6
  3 37  1  0
  3 38  1  0
  4 39  1  0
  4 40  1  0
  5 41  1  1
  8 42  1  0
  8 43  1  0
  8 44  1  0
  9 45  1  0
  9 46  1  0
  9 47  1  0
 10 48  1  1
 11 49  1  0
 11 50  1  0
 12 51  1  0
 12 52  1  0
 14 53  1  0
 14 54  1  0
 14 55  1  0
 15 56  1  6
 16 57  1  0
 16 58  1  0
 17 59  1  0
 19 60  1  1
 20 61  1  0
 20 62  1  0
 21 63  1  0
 21 64  1  0
 22 65  1  1
 23 66  1  0
 25 67  1  0
 25 68  1  0
 25 69  1  0
 26 70  1  0
 26 71  1  0
 26 72  1  0
 28 73  1  0
 28 74  1  0
 28 75  1  0
 29 76  1  0
 29 77  1  0
 30 78  1  0
 30 79  1  0
 32 80  1  0
 32 81  1  0
 32 82  1  0
M  END
>  <meeko>  (2) 
{"is_sidechain": [false], "intermolecular_energy": 2.731, "internal_energy": -0.839}

$$$$
EPH_relaxed_0001_pdb2pqr_Repair_389_r2_0001_out
     RDKit          3D

 82 86  0  0  0  0  0  0  0  0999 V2000
    2.3160   17.9990   -2.6760 C   0  0  0  0  0  0  0  0  0  0  0  0
    1.0120   17.6190   -1.9700 C   0  0  2  0  0  0  0  0  0  0  0  0
    1.1420   17.6880   -0.4350 C   0  0  0  0  0  0  0  0  0  0  0  0
    0.8280   19.0690    0.1480 C   0  0  0  0  0  0  0  0  0  0  0  0
   -0.6030   19.1770    0.5800 C   0  0  2  0  0  0  0  0  0  0  0  0
   -1.4950   18.2610   -0.0700 O   0  0  0  0  0  0  0  0  0  0  0  0
   -1.7170   19.6570   -0.3310 C   0  0  0  0  0  0  0  0  0  0  0  0
   -1.4490   20.0620   -1.7470 C   0  0  0  0  0  0  0  0  0  0  0  0
   -2.9680   20.1940    0.2910 C   0  0  0  0  0  0  0  0  0  0  0  0
    0.5810   16.2200   -2.3930 C   0  0  1  0  0  0  0  0  0  0  0  0
    0.6940   15.9980   -3.9250 C   0  0  0  0  0  0  0  0  0  0  0  0
    1.1090   14.5190   -4.1340 C   0  0  0  0  0  0  0  0  0  0  0  0
    0.9000   13.8570   -2.7520 C   0  0  1  0  0  0  0  0  0  0  0  0
   -0.6290   13.5490   -2.6830 C   0  0  0  0  0  0  0  0  0  0  0  0
    1.7590   12.5840   -2.4590 C   0  0  2  0  0  0  0  0  0  0  0  0
    1.4970   11.3900   -3.3930 C   0  0  0  0  0  0  0  0  0  0  0  0
    0.4410   10.4400   -2.9340 C   0  0  0  0  0  0  0  0  0  0  0  0
   -0.0690   10.3790   -1.6890 C   0  0  0  0  0  0  0  0  0  0  0  0
    0.4890   11.2620   -0.5660 C   0  0  1  0  0  0  0  0  0  0  0  0
    0.7120   10.4030    0.7070 C   0  0  0  0  0  0  0  0  0  0  0  0
   -0.5440    9.6460    1.1280 C   0  0  0  0  0  0  0  0  0  0  0  0
   -1.0350    8.7360    0.0060 C   0  0  2  0  0  0  0  0  0  0  0  0
   -0.0720    7.6980   -0.2000 O   0  0  0  0  0  0  0  0  0  0  0  0
   -1.2840    9.4900   -1.3300 C   0  0  0  0  0  0  0  0  0  0  0  0
   -2.5290   10.4010   -1.1890 C   0  0  0  0  0  0  0  0  0  0  0  0
   -1.6380    8.4360   -2.4140 C   0  0  0  0  0  0  0  0  0  0  0  0
    1.7610   12.1390   -0.9400 C   0  0  1  0  0  0  0  0  0  0  0  0
    3.0630   11.3090   -0.7210 C   0  0  0  0  0  0  0  0  0  0  0  0
    1.8460   13.3670    0.0430 C   0  0  0  0  0  0  0  0  0  0  0  0
    1.0720   14.6360   -0.3620 C   0  0  0  0  0  0  0  0  0  0  0  0
    1.3760   15.0240   -1.8130 C   0  0  2  0  0  0  0  0  0  0  0  0
    2.9030   15.3610   -1.9080 C   0  0  0  0  0  0  0  0  0  0  0  0
    3.0876   18.2238   -1.9249 H   0  0  0  0  0  0  0  0  0  0  0  0
    2.6500   17.1608   -3.3052 H   0  0  0  0  0  0  0  0  0  0  0  0
    2.1475   18.8854   -3.3052 H   0  0  0  0  0  0  0  0  0  0  0  0
    0.2474   18.3506   -2.2703 H   0  0  0  0  0  0  0  0  0  0  0  0
    0.4463   16.9587    0.0056 H   0  0  0  0  0  0  0  0  0  0  0  0
    2.1916   17.4672   -0.1910 H   0  0  0  0  0  0  0  0  0  0  0  0
    1.4772   19.2443    1.0185 H   0  0  0  0  0  0  0  0  0  0  0  0
    1.0069   19.8202   -0.6354 H   0  0  0  0  0  0  0  0  0  0  0  0
   -0.2996   19.4751    1.5944 H   0  0  0  0  0  0  0  0  0  0  0  0
   -0.8420   20.9793   -1.7574 H   0  0  0  0  0  0  0  0  0  0  0  0
   -0.9050   19.2565   -2.2621 H   0  0  0  0  0  0  0  0  0  0  0  0
   -2.4030   20.2478   -2.2621 H   0  0  0  0  0  0  0  0  0  0  0  0
   -2.8784   20.1555    1.3867 H   0  0  0  0  0  0  0  0  0  0  0  0
   -3.1182   21.2359   -0.0283 H   0  0  0  0  0  0  0  0  0  0  0  0
   -3.8268   19.5852   -0.0283 H   0  0  0  0  0  0  0  0  0  0  0  0
   -0.4454   16.2166   -1.9974 H   0  0  0  0  0  0  0  0  0  0  0  0
   -0.2752   16.1912   -4.4081 H   0  0  0  0  0  0  0  0  0  0  0  0
    1.4323   16.6816   -4.3694 H   0  0  0  0  0  0  0  0  0  0  0  0
    0.4734   14.0409   -4.8939 H   0  0  0  0  0  0  0  0  0  0  0  0
    2.1451   14.4225   -4.4907 H   0  0  0  0  0  0  0  0  0  0  0  0
   -0.9432   13.4857   -1.6307 H   0  0  0  0  0  0  0  0  0  0  0  0
   -1.1879   14.3526   -3.1848 H   0  0  0  0  0  0  0  0  0  0  0  0
   -0.8332   12.5917   -3.1848 H   0  0  0  0  0  0  0  0  0  0  0  0
    2.7772   12.9284   -2.6930 H   0  0  0  0  0  0  0  0  0  0  0  0
    1.1948   11.7858   -4.3738 H   0  0  0  0  0  0  0  0  0  0  0  0
    2.4336   10.8137   -3.4195 H   0  0  0  0  0  0  0  0  0  0  0  0
    0.0460    9.7297   -3.6753 H   0  0  0  0  0  0  0  0  0  0  0  0
   -0.2782   12.0259   -0.3714 H   0  0  0  0  0  0  0  0  0  0  0  0
    1.5119    9.6751    0.5058 H   0  0  0  0  0  0  0  0  0  0  0  0
    0.9824   11.0844    1.5271 H   0  0  0  0  0  0  0  0  0  0  0  0
   -0.3158    9.0345    2.0134 H   0  0  0  0  0  0  0  0  0  0  0  0
   -1.3335   10.3767    1.3578 H   0  0  0  0  0  0  0  0  0  0  0  0
   -2.0053    8.3220    0.3178 H   0  0  0  0  0  0  0  0  0  0  0  0
   -0.5490    6.8510   -0.2090 H   0  0  0  0  0  0  0  0  0  0  0  0
   -2.7475   10.5609   -0.1228 H   0  0  0  0  0  0  0  0  0  0  0  0
   -2.3314   11.3693   -1.6720 H   0  0  0  0  0  0  0  0  0  0  0  0
   -3.3921    9.9197   -1.6720 H   0  0  0  0  0  0  0  0  0  0  0  0
   -1.9521    7.5008   -1.9274 H   0  0  0  0  0  0  0  0  0  0  0  0
   -2.4577    8.8162   -3.0413 H   0  0  0  0  0  0  0  0  0  0  0  0
   -0.7549    8.2443   -3.0413 H   0  0  0  0  0  0  0  0  0  0  0  0
    3.2463   11.1921    0.3573 H   0  0  0  0  0  0  0  0  0  0  0  0
    2.9477   10.3174   -1.1829 H   0  0  0  0  0  0  0  0  0  0  0  0
    3.9133   11.8321   -1.1829 H   0  0  0  0  0  0  0  0  0  0  0  0
    1.4597   13.0390    1.0193 H   0  0  0  0  0  0  0  0  0  0  0  0
    2.9053   13.6635    0.0422 H   0  0  0  0  0  0  0  0  0  0  0  0
   -0.0068   14.4480   -0.2582 H   0  0  0  0  0  0  0  0  0  0  0  0
    1.3838   15.4616    0.2946 H   0  0  0  0  0  0  0  0  0  0  0  0
    3.3218   15.4534   -0.8951 H   0  0  0  0  0  0  0  0  0  0  0  0
    3.4232   14.5561   -2.4478 H   0  0  0  0  0  0  0  0  0  0  0  0
    3.0361   16.3101   -2.4478 H   0  0  0  0  0  0  0  0  0  0  0  0
  1  2  1  0
  2  3  1  0
  3  4  1  0
  4  5  1  0
  5  6  1  0
  6  7  1  0
  7  8  1  0
  7  9  1  0
  2 10  1  0
 10 11  1  0
 11 12  1  0
 12 13  1  0
 13 14  1  1
 13 15  1  0
 15 16  1  0
 16 17  1  0
 17 18  2  0
 18 19  1  0
 19 20  1  0
 20 21  1  0
 21 22  1  0
 22 23  1  0
 22 24  1  0
 24 25  1  0
 24 26  1  0
 19 27  1  0
 27 28  1  6
 27 29  1  0
 29 30  1  0
 30 31  1  0
 31 32  1  1
  7  5  1  0
 31 10  1  0
 31 13  1  0
 27 15  1  0
 24 18  1  0
  1 33  1  0
  1 34  1  0
  1 35  1  0
  2 36  1  6
  3 37  1  0
  3 38  1  0
  4 39  1  0
  4 40  1  0
  5 41  1  1
  8 42  1  0
  8 43  1  0
  8 44  1  0
  9 45  1  0
  9 46  1  0
  9 47  1  0
 10 48  1  1
 11 49  1  0
 11 50  1  0
 12 51  1  0
 12 52  1  0
 14 53  1  0
 14 54  1  0
 14 55  1  0
 15 56  1  6
 16 57  1  0
 16 58  1  0
 17 59  1  0
 19 60  1  1
 20 61  1  0
 20 62  1  0
 21 63  1  0
 21 64  1  0
 22 65  1  1
 23 66  1  0
 25 67  1  0
 25 68  1  0
 25 69  1  0
 26 70  1  0
 26 71  1  0
 26 72  1  0
 28 73  1  0
 28 74  1  0
 28 75  1  0
 29 76  1  0
 29 77  1  0
 30 78  1  0
 30 79  1  0
 32 80  1  0
 32 81  1  0
 32 82  1  0
M  END
>  <meeko>  (3) 
{"is_sidechain": [false], "intermolecular_energy": 2.731, "internal_energy": -0.839}

$$$$
EPH_relaxed_0001_pdb2pqr_Repair_389_r2_0001_out
     RDKit          3D

 82 86  0  0  0  0  0  0  0  0999 V2000
    0.3910   18.4160   -0.0340 C   0  0  0  0  0  0  0  0  0  0  0  0
    1.4810   17.3640   -0.2520 C   0  0  2  0  0  0  0  0  0  0  0  0
    2.6910   17.9320   -1.0200 C   0  0  0  0  0  0  0  0  0  0  0  0
    3.9180   18.1810   -0.1390 C   0  0  0  0  0  0  0  0  0  0  0  0
    3.5310   18.6510    1.2300 C   0  0  2  0  0  0  0  0  0  0  0  0
    3.7770   20.0420    1.4780 O   0  0  0  0  0  0  0  0  0  0  0  0
    4.5340   19.1130    2.2710 C   0  0  0  0  0  0  0  0  0  0  0  0
    6.0030   19.1270    1.9870 C   0  0  0  0  0  0  0  0  0  0  0  0
    4.1320   19.0850    3.7130 C   0  0  0  0  0  0  0  0  0  0  0  0
    0.9060   16.1660   -0.9980 C   0  0  1  0  0  0  0  0  0  0  0  0
    0.7730   16.4200   -2.5240 C   0  0  0  0  0  0  0  0  0  0  0  0
    1.0610   15.0700   -3.2290 C   0  0  0  0  0  0  0  0  0  0  0  0
    1.0210   14.0210   -2.0930 C   0  0  1  0  0  0  0  0  0  0  0  0
   -0.4960   13.7260   -1.8730 C   0  0  0  0  0  0  0  0  0  0  0  0
    1.8350   12.7080   -2.3370 C   0  0  2  0  0  0  0  0  0  0  0  0
    1.3620   11.8590   -3.5300 C   0  0  0  0  0  0  0  0  0  0  0  0
    0.3310   10.8280   -3.2100 C   0  0  0  0  0  0  0  0  0  0  0  0
    0.0120   10.3970   -1.9750 C   0  0  0  0  0  0  0  0  0  0  0  0
    0.7850   10.8890   -0.7450 C   0  0  1  0  0  0  0  0  0  0  0  0
    1.1430    9.6800    0.1590 C   0  0  0  0  0  0  0  0  0  0  0  0
   -0.0790    8.8470    0.5330 C   0  0  0  0  0  0  0  0  0  0  0  0
   -0.7880    8.3280   -0.7160 C   0  0  2  0  0  0  0  0  0  0  0  0
    0.0680    7.3900   -1.3750 O   0  0  0  0  0  0  0  0  0  0  0  0
   -1.1890    9.4560   -1.7070 C   0  0  0  0  0  0  0  0  0  0  0  0
   -2.3390   10.2970   -1.1010 C   0  0  0  0  0  0  0  0  0  0  0  0
   -1.7660    8.7880   -2.9830 C   0  0  0  0  0  0  0  0  0  0  0  0
    2.0380   11.8220   -1.0410 C   0  0  1  0  0  0  0  0  0  0  0  0
    3.3040   10.9480   -1.2940 C   0  0  0  0  0  0  0  0  0  0  0  0
    2.3450   12.6900    0.2360 C   0  0  0  0  0  0  0  0  0  0  0  0
    1.5990   14.0320    0.3590 C   0  0  0  0  0  0  0  0  0  0  0  0
    1.7040   14.8400   -0.9380 C   0  0  2  0  0  0  0  0  0  0  0  0
    3.2170   15.1700   -1.1750 C   0  0  0  0  0  0  0  0  0  0  0  0
    0.2362   18.5654    1.0447 H   0  0  0  0  0  0  0  0  0  0  0  0
    0.7004   19.3656   -0.4950 H   0  0  0  0  0  0  0  0  0  0  0  0
   -0.5470   18.0731   -0.4950 H   0  0  0  0  0  0  0  0  0  0  0  0
    1.8382   17.0478    0.7392 H   0  0  0  0  0  0  0  0  0  0  0  0
    2.9689   17.2167   -1.8081 H   0  0  0  0  0  0  0  0  0  0  0  0
    2.3844   18.9070   -1.4268 H   0  0  0  0  0  0  0  0  0  0  0  0
    4.4867   17.2439   -0.0467 H   0  0  0  0  0  0  0  0  0  0  0  0
    4.5261   18.9662   -0.6120 H   0  0  0  0  0  0  0  0  0  0  0  0
    2.7061   17.9245    1.2715 H   0  0  0  0  0  0  0  0  0  0  0  0
    6.5598   19.1323    2.9356 H   0  0  0  0  0  0  0  0  0  0  0  0
    6.2731   18.2314    1.4083 H   0  0  0  0  0  0  0  0  0  0  0  0
    6.2560   20.0276    1.4083 H   0  0  0  0  0  0  0  0  0  0  0  0
    5.0300   19.1475    4.3453 H   0  0  0  0  0  0  0  0  0  0  0  0
    3.4729   19.9394    3.9266 H   0  0  0  0  0  0  0  0  0  0  0  0
    3.5978   18.1475    3.9266 H   0  0  0  0  0  0  0  0  0  0  0  0
   -0.0475   16.0555   -0.4609 H   0  0  0  0  0  0  0  0  0  0  0  0
   -0.2443   16.7630   -2.7636 H   0  0  0  0  0  0  0  0  0  0  0  0
    1.4759   17.1976   -2.8576 H   0  0  0  0  0  0  0  0  0  0  0  0
    0.2910   14.8542   -3.9843 H   0  0  0  0  0  0  0  0  0  0  0  0
    2.0243   15.0736   -3.7601 H   0  0  0  0  0  0  0  0  0  0  0  0
   -0.7089   13.6846   -0.7946 H   0  0  0  0  0  0  0  0  0  0  0  0
   -1.0955   14.5244   -2.3347 H   0  0  0  0  0  0  0  0  0  0  0  0
   -0.7526   12.7611   -2.3347 H   0  0  0  0  0  0  0  0  0  0  0  0
    2.8259   13.0932   -2.6194 H   0  0  0  0  0  0  0  0  0  0  0  0
    0.9400   12.5388   -4.2849 H   0  0  0  0  0  0  0  0  0  0  0  0
    2.2465   11.3065   -3.8799 H   0  0  0  0  0  0  0  0  0  0  0  0
   -0.2145   10.3825   -4.0550 H   0  0  0  0  0  0  0  0  0  0  0  0
    0.1047   11.5673   -0.2092 H   0  0  0  0  0  0  0  0  0  0  0  0
    1.8568    9.0377   -0.3776 H   0  0  0  0  0  0  0  0  0  0  0  0
    1.5750   10.0757    1.0900 H   0  0  0  0  0  0  0  0  0  0  0  0
    0.2419    7.9921    1.1463 H   0  0  0  0  0  0  0  0  0  0  0  0
   -0.7786    9.4825    1.0957 H   0  0  0  0  0  0  0  0  0  0  0  0
   -1.7240    7.8510   -0.3898 H   0  0  0  0  0  0  0  0  0  0  0  0
   -0.4480    6.9690   -2.0840 H   0  0  0  0  0  0  0  0  0  0  0  0
   -2.2837   10.2566   -0.0031 H   0  0  0  0  0  0  0  0  0  0  0  0
   -2.2450   11.3410   -1.4347 H   0  0  0  0  0  0  0  0  0  0  0  0
   -3.3054    9.8910   -1.4347 H   0  0  0  0  0  0  0  0  0  0  0  0
   -2.4599    7.9847   -2.6945 H   0  0  0  0  0  0  0  0  0  0  0  0
   -2.3033    9.5400   -3.5796 H   0  0  0  0  0  0  0  0  0  0  0  0
   -0.9439    8.3658   -3.5796 H   0  0  0  0  0  0  0  0  0  0  0  0
    3.7402   10.6468   -0.3302 H   0  0  0  0  0  0  0  0  0  0  0  0
    3.0222   10.0511   -1.8652 H   0  0  0  0  0  0  0  0  0  0  0  0
    4.0428   11.5294   -1.8652 H   0  0  0  0  0  0  0  0  0  0  0  0
    2.0899   12.0852    1.1187 H   0  0  0  0  0  0  0  0  0  0  0  0
    3.4085   12.9583    0.1529 H   0  0  0  0  0  0  0  0  0  0  0  0
    0.5386   13.8354    0.5754 H   0  0  0  0  0  0  0  0  0  0  0  0
    2.0571   14.6141    1.1722 H   0  0  0  0  0  0  0  0  0  0  0  0
    3.7244   15.2807   -0.2053 H   0  0  0  0  0  0  0  0  0  0  0  0
    3.6859   14.3530   -1.7430 H   0  0  0  0  0  0  0  0  0  0  0  0
    3.3031   16.1080   -1.7430 H   0  0  0  0  0  0  0  0  0  0  0  0
  1  2  1  0
  2  3  1  0
  3  4  1  0
  4  5  1  0
  5  6  1  0
  6  7  1  0
  7  8  1  0
  7  9  1  0
  2 10  1  0
 10 11  1  0
 11 12  1  0
 12 13  1  0
 13 14  1  1
 13 15  1  0
 15 16  1  0
 16 17  1  0
 17 18  2  0
 18 19  1  0
 19 20  1  0
 20 21  1  0
 21 22  1  0
 22 23  1  0
 22 24  1  0
 24 25  1  0
 24 26  1  0
 19 27  1  0
 27 28  1  6
 27 29  1  0
 29 30  1  0
 30 31  1  0
 31 32  1  6
  7  5  1  0
 31 10  1  0
 31 13  1  0
 27 15  1  0
 24 18  1  0
  1 33  1  0
  1 34  1  0
  1 35  1  0
  2 36  1  1
  3 37  1  0
  3 38  1  0
  4 39  1  0
  4 40  1  0
  5 41  1  1
  8 42  1  0
  8 43  1  0
  8 44  1  0
  9 45  1  0
  9 46  1  0
  9 47  1  0
 10 48  1  1
 11 49  1  0
 11 50  1  0
 12 51  1  0
 12 52  1  0
 14 53  1  0
 14 54  1  0
 14 55  1  0
 15 56  1  6
 16 57  1  0
 16 58  1  0
 17 59  1  0
 19 60  1  1
 20 61  1  0
 20 62  1  0
 21 63  1  0
 21 64  1  0
 22 65  1  1
 23 66  1  0
 25 67  1  0
 25 68  1  0
 25 69  1  0
 26 70  1  0
 26 71  1  0
 26 72  1  0
 28 73  1  0
 28 74  1  0
 28 75  1  0
 29 76  1  0
 29 77  1  0
 30 78  1  0
 30 79  1  0
 32 80  1  0
 32 81  1  0
 32 82  1  0
M  END
>  <meeko>  (4) 
{"is_sidechain": [false], "intermolecular_energy": 2.731, "internal_energy": -0.839}

$$$$
EPH_relaxed_0001_pdb2pqr_Repair_389_r2_0001_out
     RDKit          3D

 82 86  0  0  0  0  0  0  0  0999 V2000
    3.6480   17.5230    0.4550 C   0  0  0  0  0  0  0  0  0  0  0  0
    2.7430   17.7770   -0.7540 C   0  0  2  0  0  0  0  0  0  0  0  0
    2.0870   19.1710   -0.7060 C   0  0  0  0  0  0  0  0  0  0  0  0
    1.4100   19.4870    0.6300 C   0  0  0  0  0  0  0  0  0  0  0  0
    0.0550   20.0970    0.4340 C   0  0  2  0  0  0  0  0  0  0  0  0
   -0.7490   20.1620    1.6190 O   0  0  0  0  0  0  0  0  0  0  0  0
   -1.2410   19.3180    0.5650 C   0  0  0  0  0  0  0  0  0  0  0  0
   -1.2440   17.8610    0.9050 C   0  0  0  0  0  0  0  0  0  0  0  0
   -2.4660   19.8490   -0.1100 C   0  0  0  0  0  0  0  0  0  0  0  0
    1.6690   16.6980   -0.8360 C   0  0  1  0  0  0  0  0  0  0  0  0
    0.4100   17.1660   -1.6130 C   0  0  0  0  0  0  0  0  0  0  0  0
   -0.1310   15.9280   -2.3740 C   0  0  0  0  0  0  0  0  0  0  0  0
    0.6250   14.7290   -1.7550 C   0  0  1  0  0  0  0  0  0  0  0  0
   -0.1430   14.4100   -0.4340 C   0  0  0  0  0  0  0  0  0  0  0  0
    0.7680   13.4620   -2.6600 C   0  0  2  0  0  0  0  0  0  0  0  0
   -0.5580   12.7920   -3.0600 C   0  0  0  0  0  0  0  0  0  0  0  0
   -1.0400   11.7280   -2.1300 C   0  0  0  0  0  0  0  0  0  0  0  0
   -0.3020   11.1280   -1.1780 C   0  0  0  0  0  0  0  0  0  0  0  0
    1.1930   11.4390   -1.0270 C   0  0  1  0  0  0  0  0  0  0  0  0
    1.9850   10.1130   -0.8780 C   0  0  0  0  0  0  0  0  0  0  0  0
    1.4540    9.2390    0.2540 C   0  0  0  0  0  0  0  0  0  0  0  0
   -0.0200    8.9030    0.0380 C   0  0  2  0  0  0  0  0  0  0  0  0
   -0.1370    8.0650   -1.1160 O   0  0  0  0  0  0  0  0  0  0  0  0
   -0.9160   10.1610   -0.1350 C   0  0  0  0  0  0  0  0  0  0  0  0
   -1.0280   10.9100    1.2160 C   0  0  0  0  0  0  0  0  0  0  0  0
   -2.3500    9.6810   -0.4860 C   0  0  0  0  0  0  0  0  0  0  0  0
    1.8150   12.4010   -2.1280 C   0  0  1  0  0  0  0  0  0  0  0  0
    2.2730   11.5690   -3.3650 C   0  0  0  0  0  0  0  0  0  0  0  0
    3.1110   13.0790   -1.5450 C   0  0  0  0  0  0  0  0  0  0  0  0
    2.9160   14.3920   -0.7630 C   0  0  0  0  0  0  0  0  0  0  0  0
    2.0430   15.3750   -1.5490 C   0  0  2  0  0  0  0  0  0  0  0  0
    2.8000   15.7320   -2.8740 C   0  0  0  0  0  0  0  0  0  0  0  0
    3.0764   17.6834    1.3810 H   0  0  0  0  0  0  0  0  0  0  0  0
    4.0161   16.4868    0.4262 H   0  0  0  0  0  0  0  0  0  0  0  0
    4.5015   18.2163    0.4262 H   0  0  0  0  0  0  0  0  0  0  0  0
    3.3753   17.7409   -1.6534 H   0  0  0  0  0  0  0  0  0  0  0  0
    2.8647   19.9272   -0.8886 H   0  0  0  0  0  0  0  0  0  0  0  0
    1.3009   19.1829   -1.4754 H   0  0  0  0  0  0  0  0  0  0  0  0
    1.3017   18.5550    1.2041 H   0  0  0  0  0  0  0  0  0  0  0  0
    2.0375   20.2116    1.1696 H   0  0  0  0  0  0  0  0  0  0  0  0
    0.4412   20.7586   -0.3553 H   0  0  0  0  0  0  0  0  0  0  0  0
   -1.2442   17.7396    1.9983 H   0  0  0  0  0  0  0  0  0  0  0  0
   -2.1431   17.3879    0.4833 H   0  0  0  0  0  0  0  0  0  0  0  0
   -0.3468   17.3842    0.4833 H   0  0  0  0  0  0  0  0  0  0  0  0
   -3.1955   20.1652    0.6501 H   0  0  0  0  0  0  0  0  0  0  0  0
   -2.1944   20.7102   -0.7382 H   0  0  0  0  0  0  0  0  0  0  0  0
   -2.9088   19.0620   -0.7382 H   0  0  0  0  0  0  0  0  0  0  0  0
    1.5099   16.5146    0.2369 H   0  0  0  0  0  0  0  0  0  0  0  0
   -0.3499   17.5418   -0.9121 H   0  0  0  0  0  0  0  0  0  0  0  0
    0.6556   17.9816   -2.3090 H   0  0  0  0  0  0  0  0  0  0  0  0
   -1.2156   15.8229   -2.2234 H   0  0  0  0  0  0  0  0  0  0  0  0
    0.0257   16.0044   -3.4601 H   0  0  0  0  0  0  0  0  0  0  0  0
    0.4871   14.6717    0.4288 H   0  0  0  0  0  0  0  0  0  0  0  0
   -1.0732   14.9962   -0.4000 H   0  0  0  0  0  0  0  0  0  0  0  0
   -0.3841   13.3373   -0.4000 H   0  0  0  0  0  0  0  0  0  0  0  0
    1.1819   13.8812   -3.5890 H   0  0  0  0  0  0  0  0  0  0  0  0
   -1.3310   13.5728   -3.1133 H   0  0  0  0  0  0  0  0  0  0  0  0
   -0.3693   12.2932   -4.0220 H   0  0  0  0  0  0  0  0  0  0  0  0
   -2.0873   11.4073   -2.2317 H   0  0  0  0  0  0  0  0  0  0  0  0
    1.2887   12.0360   -0.1081 H   0  0  0  0  0  0  0  0  0  0  0  0
    1.9128    9.5512   -1.8209 H   0  0  0  0  0  0  0  0  0  0  0  0
    3.0273   10.3714   -0.6398 H   0  0  0  0  0  0  0  0  0  0  0  0
    2.0345    8.3054    0.2907 H   0  0  0  0  0  0  0  0  0  0  0  0
    1.5535    9.7910    1.2003 H   0  0  0  0  0  0  0  0  0  0  0  0
   -0.3771    8.3866    0.9412 H   0  0  0  0  0  0  0  0  0  0  0  0
   -1.0200    7.6590   -1.0950 H   0  0  0  0  0  0  0  0  0  0  0  0
   -0.9207   10.1926    2.0430 H   0  0  0  0  0  0  0  0  0  0  0  0
   -0.2331   11.6675    1.2823 H   0  0  0  0  0  0  0  0  0  0  0  0
   -2.0097   11.4018    1.2823 H   0  0  0  0  0  0  0  0  0  0  0  0
   -2.9111    9.4932    0.4413 H   0  0  0  0  0  0  0  0  0  0  0  0
   -2.8626   10.4565   -1.0740 H   0  0  0  0  0  0  0  0  0  0  0  0
   -2.2924    8.7531   -1.0740 H   0  0  0  0  0  0  0  0  0  0  0  0
    2.7774   10.6528   -3.0243 H   0  0  0  0  0  0  0  0  0  0  0  0
    1.3955   11.3006   -3.9716 H   0  0  0  0  0  0  0  0  0  0  0  0
    2.9691   12.1668   -3.9716 H   0  0  0  0  0  0  0  0  0  0  0  0
    3.5889   12.3560   -0.8676 H   0  0  0  0  0  0  0  0  0  0  0  0
    3.7124   13.3540   -2.4240 H   0  0  0  0  0  0  0  0  0  0  0  0
    2.4304   14.1692    0.1986 H   0  0  0  0  0  0  0  0  0  0  0  0
    3.9017   14.8521   -0.5997 H   0  0  0  0  0  0  0  0  0  0  0  0
    3.7702   16.1895   -2.6301 H   0  0  0  0  0  0  0  0  0  0  0  0
    2.9637   14.8162   -3.4609 H   0  0  0  0  0  0  0  0  0  0  0  0
    2.1975   16.4409   -3.4609 H   0  0  0  0  0  0  0  0  0  0  0  0
  1  2  1  0
  2  3  1  0
  3  4  1  0
  4  5  1  0
  5  6  1  0
  6  7  1  0
  7  8  1  0
  7  9  1  0
  2 10  1  0
 10 11  1  0
 11 12  1  0
 12 13  1  0
 13 14  1  1
 13 15  1  0
 15 16  1  0
 16 17  1  0
 17 18  2  0
 18 19  1  0
 19 20  1  0
 20 21  1  0
 21 22  1  0
 22 23  1  0
 22 24  1  0
 24 25  1  0
 24 26  1  0
 19 27  1  0
 27 28  1  6
 27 29  1  0
 29 30  1  0
 30 31  1  0
 31 32  1  6
  7  5  1  0
 31 10  1  0
 31 13  1  0
 27 15  1  0
 24 18  1  0
  1 33  1  0
  1 34  1  0
  1 35  1  0
  2 36  1  6
  3 37  1  0
  3 38  1  0
  4 39  1  0
  4 40  1  0
  5 41  1  6
  8 42  1  0
  8 43  1  0
  8 44  1  0
  9 45  1  0
  9 46  1  0
  9 47  1  0
 10 48  1  1
 11 49  1  0
 11 50  1  0
 12 51  1  0
 12 52  1  0
 14 53  1  0
 14 54  1  0
 14 55  1  0
 15 56  1  6
 16 57  1  0
 16 58  1  0
 17 59  1  0
 19 60  1  1
 20 61  1  0
 20 62  1  0
 21 63  1  0
 21 64  1  0
 22 65  1  1
 23 66  1  0
 25 67  1  0
 25 68  1  0
 25 69  1  0
 26 70  1  0
 26 71  1  0
 26 72  1  0
 28 73  1  0
 28 74  1  0
 28 75  1  0
 29 76  1  0
 29 77  1  0
 30 78  1  0
 30 79  1  0
 32 80  1  0
 32 81  1  0
 32 82  1  0
M  END
>  <meeko>  (5) 
{"is_sidechain": [false], "intermolecular_energy": 2.731, "internal_energy": -0.839}

$$$$
EPH_relaxed_0001_pdb2pqr_Repair_389_r2_0001_out
     RDKit          3D

 82 86  0  0  0  0  0  0  0  0999 V2000
   -5.0410    6.1850   -1.6340 C   0  0  0  0  0  0  0  0  0  0  0  0
   -5.3940    7.6710   -1.7360 C   0  0  2  0  0  0  0  0  0  0  0  0
   -5.1850    8.4110   -0.4000 C   0  0  0  0  0  0  0  0  0  0  0  0
   -4.0230    9.4080   -0.4230 C   0  0  0  0  0  0  0  0  0  0  0  0
   -2.7340    8.7470   -0.8100 C   0  0  2  0  0  0  0  0  0  0  0  0
   -1.6620    8.9330    0.1240 O   0  0  0  0  0  0  0  0  0  0  0  0
   -1.4780    9.5150   -1.1760 C   0  0  0  0  0  0  0  0  0  0  0  0
   -1.4490   11.0120   -1.1750 C   0  0  0  0  0  0  0  0  0  0  0  0
   -0.4350    8.8290   -2.0020 C   0  0  0  0  0  0  0  0  0  0  0  0
   -6.8370    7.8320   -2.2010 C   0  0  1  0  0  0  0  0  0  0  0  0
   -7.1110    7.1230   -3.5530 C   0  0  0  0  0  0  0  0  0  0  0  0
   -8.5640    6.5830   -3.4890 C   0  0  0  0  0  0  0  0  0  0  0  0
   -9.1830    7.2790   -2.2540 C   0  0  1  0  0  0  0  0  0  0  0  0
   -9.5980    8.6960   -2.7580 C   0  0  0  0  0  0  0  0  0  0  0  0
  -10.3770    6.5370   -1.5700 C   0  0  2  0  0  0  0  0  0  0  0  0
  -11.6240    6.3540   -2.4530 C   0  0  0  0  0  0  0  0  0  0  0  0
  -12.6290    7.4550   -2.3730 C   0  0  0  0  0  0  0  0  0  0  0  0
  -12.6760    8.4040   -1.4190 C   0  0  0  0  0  0  0  0  0  0  0  0
  -11.7090    8.3710   -0.2280 C   0  0  1  0  0  0  0  0  0  0  0  0
  -12.4980    8.6160    1.0850 C   0  0  0  0  0  0  0  0  0  0  0  0
  -13.3260    9.8970    1.0400 C   0  0  0  0  0  0  0  0  0  0  0  0
  -14.3150    9.8660   -0.1220 C   0  0  2  0  0  0  0  0  0  0  0  0
  -15.2870    8.8470    0.1270 O   0  0  0  0  0  0  0  0  0  0  0  0
  -13.6360    9.6160   -1.4980 C   0  0  0  0  0  0  0  0  0  0  0  0
  -12.8130   10.8630   -1.9060 C   0  0  0  0  0  0  0  0  0  0  0  0
  -14.7560    9.4670   -2.5630 C   0  0  0  0  0  0  0  0  0  0  0  0
  -10.7580    7.1010   -0.1410 C   0  0  1  0  0  0  0  0  0  0  0  0
  -11.4820    5.9450    0.6160 C   0  0  0  0  0  0  0  0  0  0  0  0
   -9.4890    7.4670    0.7160 C   0  0  0  0  0  0  0  0  0  0  0  0
   -8.2970    8.0870   -0.0380 C   0  0  0  0  0  0  0  0  0  0  0  0
   -7.9470    7.2650   -1.2820 C   0  0  2  0  0  0  0  0  0  0  0  0
   -7.5040    5.8400   -0.8050 C   0  0  0  0  0  0  0  0  0  0  0  0
   -4.9724    5.8963   -0.5748 H   0  0  0  0  0  0  0  0  0  0  0  0
   -5.8223    5.5879   -2.1270 H   0  0  0  0  0  0  0  0  0  0  0  0
   -4.0746    6.0030   -2.1270 H   0  0  0  0  0  0  0  0  0  0  0  0
   -4.7135    8.1226   -2.4728 H   0  0  0  0  0  0  0  0  0  0  0  0
   -6.1078    8.9589   -0.1586 H   0  0  0  0  0  0  0  0  0  0  0  0
   -4.9394    7.6489    0.3543 H   0  0  0  0  0  0  0  0  0  0  0  0
   -4.2488   10.2022   -1.1498 H   0  0  0  0  0  0  0  0  0  0  0  0
   -3.9060    9.8223    0.5893 H   0  0  0  0  0  0  0  0  0  0  0  0
   -3.2750    7.9332   -1.3150 H   0  0  0  0  0  0  0  0  0  0  0  0
   -1.4419   11.3779   -0.1377 H   0  0  0  0  0  0  0  0  0  0  0  0
   -0.5439   11.3616   -1.6933 H   0  0  0  0  0  0  0  0  0  0  0  0
   -2.3399   11.3963   -1.6933 H   0  0  0  0  0  0  0  0  0  0  0  0
    0.2986    8.3465   -1.3394 H   0  0  0  0  0  0  0  0  0  0  0  0
   -0.9121    8.0678   -2.6368 H   0  0  0  0  0  0  0  0  0  0  0  0
    0.0750    9.5686   -2.6368 H   0  0  0  0  0  0  0  0  0  0  0  0
   -6.8997    8.9298   -2.2326 H   0  0  0  0  0  0  0  0  0  0  0  0
   -7.0087    7.8376   -4.3830 H   0  0  0  0  0  0  0  0  0  0  0  0
   -6.3935    6.3068   -3.7234 H   0  0  0  0  0  0  0  0  0  0  0  0
   -9.1174    6.8474   -4.4021 H   0  0  0  0  0  0  0  0  0  0  0  0
   -8.5992    5.4863   -3.4119 H   0  0  0  0  0  0  0  0  0  0  0  0
   -9.7897    9.3505   -1.8950 H   0  0  0  0  0  0  0  0  0  0  0  0
   -8.7865    9.1207   -3.3672 H   0  0  0  0  0  0  0  0  0  0  0  0
  -10.5104    8.6158   -3.3672 H   0  0  0  0  0  0  0  0  0  0  0  0
   -9.9695    5.5269   -1.4161 H   0  0  0  0  0  0  0  0  0  0  0  0
  -11.2913    6.2727   -3.4983 H   0  0  0  0  0  0  0  0  0  0  0  0
  -12.1309    5.4516   -2.0806 H   0  0  0  0  0  0  0  0  0  0  0  0
  -13.3963    7.4943   -3.1603 H   0  0  0  0  0  0  0  0  0  0  0  0
  -10.9944    9.1908   -0.3933 H   0  0  0  0  0  0  0  0  0  0  0  0
  -13.1741    7.7649    1.2541 H   0  0  0  0  0  0  0  0  0  0  0  0
  -11.7663    8.7200    1.8997 H   0  0  0  0  0  0  0  0  0  0  0  0
  -13.8821    9.9997    1.9835 H   0  0  0  0  0  0  0  0  0  0  0  0
  -12.6459   10.7502    0.8999 H   0  0  0  0  0  0  0  0  0  0  0  0
  -14.7862   10.8582   -0.1806 H   0  0  0  0  0  0  0  0  0  0  0  0
  -14.8080    8.0320    0.3540 H   0  0  0  0  0  0  0  0  0  0  0  0
  -12.4677   11.3862   -1.0021 H   0  0  0  0  0  0  0  0  0  0  0  0
  -11.9438   10.5495   -2.5028 H   0  0  0  0  0  0  0  0  0  0  0  0
  -13.4430   11.5389   -2.5028 H   0  0  0  0  0  0  0  0  0  0  0  0
  -15.7256    9.3380   -2.0598 H   0  0  0  0  0  0  0  0  0  0  0  0
  -14.7864   10.3690   -3.1918 H   0  0  0  0  0  0  0  0  0  0  0  0
  -14.5495    8.5884   -3.1918 H   0  0  0  0  0  0  0  0  0  0  0  0
  -11.3850    6.0998    1.7007 H   0  0  0  0  0  0  0  0  0  0  0  0
  -12.5469    5.9368    0.3405 H   0  0  0  0  0  0  0  0  0  0  0  0
  -11.0246    4.9833    0.3405 H   0  0  0  0  0  0  0  0  0  0  0  0
   -9.8043    8.1846    1.4878 H   0  0  0  0  0  0  0  0  0  0  0  0
   -9.1167    6.5072    1.1036 H   0  0  0  0  0  0  0  0  0  0  0  0
   -8.5585    9.1104   -0.3449 H   0  0  0  0  0  0  0  0  0  0  0  0
   -7.4250    8.0967    0.6324 H   0  0  0  0  0  0  0  0  0  0  0  0
   -7.4941    5.8080    0.2945 H   0  0  0  0  0  0  0  0  0  0  0  0
   -8.2111    5.0891   -1.1873 H   0  0  0  0  0  0  0  0  0  0  0  0
   -6.4958    5.6223   -1.1873 H   0  0  0  0  0  0  0  0  0  0  0  0
  1  2  1  0
  2  3  1  0
  3  4  1  0
  4  5  1  0
  5  6  1  0
  6  7  1  0
  7  8  1  0
  7  9  1  0
  2 10  1  0
 10 11  1  0
 11 12  1  0
 12 13  1  0
 13 14  1  6
 13 15  1  0
 15 16  1  0
 16 17  1  0
 17 18  2  0
 18 19  1  0
 19 20  1  0
 20 21  1  0
 21 22  1  0
 22 23  1  0
 22 24  1  0
 24 25  1  0
 24 26  1  0
 19 27  1  0
 27 28  1  1
 27 29  1  0
 29 30  1  0
 30 31  1  0
 31 32  1  1
  7  5  1  0
 31 10  1  0
 31 13  1  0
 27 15  1  0
 24 18  1  0
  1 33  1  0
  1 34  1  0
  1 35  1  0
  2 36  1  6
  3 37  1  0
  3 38  1  0
  4 39  1  0
  4 40  1  0
  5 41  1  6
  8 42  1  0
  8 43  1  0
  8 44  1  0
  9 45  1  0
  9 46  1  0
  9 47  1  0
 10 48  1  6
 11 49  1  0
 11 50  1  0
 12 51  1  0
 12 52  1  0
 14 53  1  0
 14 54  1  0
 14 55  1  0
 15 56  1  1
 16 57  1  0
 16 58  1  0
 17 59  1  0
 19 60  1  6
 20 61  1  0
 20 62  1  0
 21 63  1  0
 21 64  1  0
 22 65  1  6
 23 66  1  0
 25 67  1  0
 25 68  1  0
 25 69  1  0
 26 70  1  0
 26 71  1  0
 26 72  1  0
 28 73  1  0
 28 74  1  0
 28 75  1  0
 29 76  1  0
 29 77  1  0
 30 78  1  0
 30 79  1  0
 32 80  1  0
 32 81  1  0
 32 82  1  0
M  END
>  <meeko>  (6) 
{"is_sidechain": [false], "intermolecular_energy": 2.731, "internal_energy": -0.839}

$$$$
EPH_relaxed_0001_pdb2pqr_Repair_389_r2_0001_out
     RDKit          3D

 82 86  0  0  0  0  0  0  0  0999 V2000
    0.4160    8.8340   -2.4530 C   0  0  0  0  0  0  0  0  0  0  0  0
    1.1640    9.9850   -3.1320 C   0  0  2  0  0  0  0  0  0  0  0  0
    2.6630    9.9970   -2.7690 C   0  0  0  0  0  0  0  0  0  0  0  0
    3.5550   10.5950   -3.8590 C   0  0  0  0  0  0  0  0  0  0  0  0
    4.9490   10.8380   -3.3640 C   0  0  2  0  0  0  0  0  0  0  0  0
    5.5510   12.0490   -3.8390 O   0  0  0  0  0  0  0  0  0  0  0  0
    6.1710   10.8240   -4.2630 C   0  0  0  0  0  0  0  0  0  0  0  0
    6.0550   10.5610   -5.7320 C   0  0  0  0  0  0  0  0  0  0  0  0
    7.5120   10.5810   -3.6450 C   0  0  0  0  0  0  0  0  0  0  0  0
    0.5250   11.3160   -2.7530 C   0  0  1  0  0  0  0  0  0  0  0  0
   -0.8550   11.1420   -2.0650 C   0  0  0  0  0  0  0  0  0  0  0  0
   -0.9740   12.2700   -1.0090 C   0  0  0  0  0  0  0  0  0  0  0  0
    0.1790   13.2440   -1.3470 C   0  0  1  0  0  0  0  0  0  0  0  0
   -0.3640   14.1150   -2.5230 C   0  0  0  0  0  0  0  0  0  0  0  0
    0.7060   14.1270   -0.1700 C   0  0  2  0  0  0  0  0  0  0  0  0
   -0.3260   15.0990    0.4290 C   0  0  0  0  0  0  0  0  0  0  0  0
   -0.3650   16.4540   -0.1980 C   0  0  0  0  0  0  0  0  0  0  0  0
    0.5810   16.9700   -1.0050 C   0  0  0  0  0  0  0  0  0  0  0  0
    1.8830   16.2060   -1.2810 C   0  0  1  0  0  0  0  0  0  0  0  0
    3.0900   17.1700   -1.1350 C   0  0  0  0  0  0  0  0  0  0  0  0
    2.9500   18.4170   -2.0020 C   0  0  0  0  0  0  0  0  0  0  0  0
    1.6740   19.1810   -1.6570 C   0  0  2  0  0  0  0  0  0  0  0  0
    1.7940   19.7060   -0.3320 O   0  0  0  0  0  0  0  0  0  0  0  0
    0.3910   18.3090   -1.7600 C   0  0  0  0  0  0  0  0  0  0  0  0
    0.0950   17.9910   -3.2460 C   0  0  0  0  0  0  0  0  0  0  0  0
   -0.8050   19.1570   -1.2510 C   0  0  0  0  0  0  0  0  0  0  0  0
    2.0790   14.8540   -0.4690 C   0  0  1  0  0  0  0  0  0  0  0  0
    2.7340   15.1550    0.9140 C   0  0  0  0  0  0  0  0  0  0  0  0
    3.0890   13.9300   -1.2460 C   0  0  0  0  0  0  0  0  0  0  0  0
    2.4930   12.9930   -2.3140 C   0  0  0  0  0  0  0  0  0  0  0  0
    1.2960   12.2160   -1.7560 C   0  0  2  0  0  0  0  0  0  0  0  0
    1.8160   11.3140   -0.5850 C   0  0  0  0  0  0  0  0  0  0  0  0
    0.4875    8.9440   -1.3608 H   0  0  0  0  0  0  0  0  0  0  0  0
   -0.6415    8.8551   -2.7552 H   0  0  0  0  0  0  0  0  0  0  0  0
    0.8647    7.8762   -2.7552 H   0  0  0  0  0  0  0  0  0  0  0  0
    1.0887    9.8334   -4.2189 H   0  0  0  0  0  0  0  0  0  0  0  0
    2.7932   10.5882   -1.8506 H   0  0  0  0  0  0  0  0  0  0  0  0
    2.9711    8.9489   -2.6406 H   0  0  0  0  0  0  0  0  0  0  0  0
    3.5951    9.8979   -4.7090 H   0  0  0  0  0  0  0  0  0  0  0  0
    3.1254   11.5614   -4.1614 H   0  0  0  0  0  0  0  0  0  0  0  0
    4.7254   10.3284   -2.4151 H   0  0  0  0  0  0  0  0  0  0  0  0
    5.6159    9.5653   -5.8927 H   0  0  0  0  0  0  0  0  0  0  0  0
    5.4102   11.3246   -6.1914 H   0  0  0  0  0  0  0  0  0  0  0  0
    7.0537   10.5997   -6.1914 H   0  0  0  0  0  0  0  0  0  0  0  0
    7.4191   10.5978   -2.5491 H   0  0  0  0  0  0  0  0  0  0  0  0
    7.8912    9.5995   -3.9658 H   0  0  0  0  0  0  0  0  0  0  0  0
    8.2115   11.3670   -3.9658 H   0  0  0  0  0  0  0  0  0  0  0  0
    0.4922   11.7934   -3.7435 H   0  0  0  0  0  0  0  0  0  0  0  0
   -1.6621   11.2312   -2.8071 H   0  0  0  0  0  0  0  0  0  0  0  0
   -0.9398   10.1509   -1.5953 H   0  0  0  0  0  0  0  0  0  0  0  0
   -1.9469   12.7769   -1.0901 H   0  0  0  0  0  0  0  0  0  0  0  0
   -0.9083   11.8868    0.0200 H   0  0  0  0  0  0  0  0  0  0  0  0
   -0.9049   14.9827   -2.1173 H   0  0  0  0  0  0  0  0  0  0  0  0
    0.4773   14.4632   -3.1402 H   0  0  0  0  0  0  0  0  0  0  0  0
   -1.0470   13.5129   -3.1402 H   0  0  0  0  0  0  0  0  0  0  0  0
    0.9044   13.3811    0.6138 H   0  0  0  0  0  0  0  0  0  0  0  0
   -1.3224   14.6457    0.3211 H   0  0  0  0  0  0  0  0  0  0  0  0
   -0.0245   15.2563    1.4751 H   0  0  0  0  0  0  0  0  0  0  0  0
   -1.2408   17.0836    0.0179 H   0  0  0  0  0  0  0  0  0  0  0  0
    1.8131   15.8508   -2.3197 H   0  0  0  0  0  0  0  0  0  0  0  0
    3.1690   17.4793   -0.0824 H   0  0  0  0  0  0  0  0  0  0  0  0
    3.9898   16.6315   -1.4671 H   0  0  0  0  0  0  0  0  0  0  0  0
    3.8180   19.0715   -1.8341 H   0  0  0  0  0  0  0  0  0  0  0  0
    2.8998   18.1077   -3.0564 H   0  0  0  0  0  0  0  0  0  0  0  0
    1.5641   19.9891   -2.3952 H   0  0  0  0  0  0  0  0  0  0  0  0
    1.0970   19.3000    0.2100 H   0  0  0  0  0  0  0  0  0  0  0  0
   -0.6533   17.1871   -3.3069 H   0  0  0  0  0  0  0  0  0  0  0  0
   -0.2934   18.8919   -3.7434 H   0  0  0  0  0  0  0  0  0  0  0  0
    1.0214   17.6681   -3.7434 H   0  0  0  0  0  0  0  0  0  0  0  0
   -0.8101   19.1606   -0.1510 H   0  0  0  0  0  0  0  0  0  0  0  0
   -0.7068   20.1884   -1.6206 H   0  0  0  0  0  0  0  0  0  0  0  0
   -1.7458   18.7230   -1.6206 H   0  0  0  0  0  0  0  0  0  0  0  0
    2.0523   14.8417    1.7185 H   0  0  0  0  0  0  0  0  0  0  0  0
    3.6809   14.6017    0.9995 H   0  0  0  0  0  0  0  0  0  0  0  0
    2.9308   16.2339    0.9995 H   0  0  0  0  0  0  0  0  0  0  0  0
    3.8197   14.5825   -1.7462 H   0  0  0  0  0  0  0  0  0  0  0  0
    3.5141   13.2622   -0.4822 H   0  0  0  0  0  0  0  0  0  0  0  0
    2.1629   13.5928   -3.1750 H   0  0  0  0  0  0  0  0  0  0  0  0
    3.2665   12.2732   -2.6199 H   0  0  0  0  0  0  0  0  0  0  0  0
    1.5506   11.7744    0.3781 H   0  0  0  0  0  0  0  0  0  0  0  0
    1.3531   10.3186   -0.6555 H   0  0  0  0  0  0  0  0  0  0  0  0
    2.9093   11.2158   -0.6555 H   0  0  0  0  0  0  0  0  0  0  0  0
  1  2  1  0
  2  3  1  0
  3  4  1  0
  4  5  1  0
  5  6  1  0
  6  7  1  0
  7  8  1  0
  7  9  1  0
  2 10  1  0
 10 11  1  0
 11 12  1  0
 12 13  1  0
 13 14  1  6
 13 15  1  0
 15 16  1  0
 16 17  1  0
 17 18  2  0
 18 19  1  0
 19 20  1  0
 20 21  1  0
 21 22  1  0
 22 23  1  0
 22 24  1  0
 24 25  1  0
 24 26  1  0
 19 27  1  0
 27 28  1  1
 27 29  1  0
 29 30  1  0
 30 31  1  0
 31 32  1  1
  7  5  1  0
 31 10  1  0
 31 13  1  0
 27 15  1  0
 24 18  1  0
  1 33  1  0
  1 34  1  0
  1 35  1  0
  2 36  1  6
  3 37  1  0
  3 38  1  0
  4 39  1  0
  4 40  1  0
  5 41  1  1
  8 42  1  0
  8 43  1  0
  8 44  1  0
  9 45  1  0
  9 46  1  0
  9 47  1  0
 10 48  1  6
 11 49  1  0
 11 50  1  0
 12 51  1  0
 12 52  1  0
 14 53  1  0
 14 54  1  0
 14 55  1  0
 15 56  1  1
 16 57  1  0
 16 58  1  0
 17 59  1  0
 19 60  1  6
 20 61  1  0
 20 62  1  0
 21 63  1  0
 21 64  1  0
 22 65  1  6
 23 66  1  0
 25 67  1  0
 25 68  1  0
 25 69  1  0
 26 70  1  0
 26 71  1  0
 26 72  1  0
 28 73  1  0
 28 74  1  0
 28 75  1  0
 29 76  1  0
 29 77  1  0
 30 78  1  0
 30 79  1  0
 32 80  1  0
 32 81  1  0
 32 82  1  0
M  END
>  <meeko>  (7) 
{"is_sidechain": [false], "intermolecular_energy": 2.731, "internal_energy": -0.839}

$$$$
EPH_relaxed_0001_pdb2pqr_Repair_389_r2_0001_out
     RDKit          3D

 82 86  0  0  0  0  0  0  0  0999 V2000
   -0.2690   10.5260   -4.0370 C   0  0  0  0  0  0  0  0  0  0  0  0
    0.9330   10.3540   -3.1040 C   0  0  2  0  0  0  0  0  0  0  0  0
    0.8850    9.0170   -2.3360 C   0  0  0  0  0  0  0  0  0  0  0  0
   -0.5200    8.6280   -1.8660 C   0  0  0  0  0  0  0  0  0  0  0  0
   -0.7460    8.9930   -0.4310 C   0  0  2  0  0  0  0  0  0  0  0  0
   -2.1190    8.9850   -0.0200 O   0  0  0  0  0  0  0  0  0  0  0  0
   -1.4560   10.2600    0.0080 C   0  0  0  0  0  0  0  0  0  0  0  0
   -1.9860   11.2430   -0.9880 C   0  0  0  0  0  0  0  0  0  0  0  0
   -1.2060   10.7780    1.3900 C   0  0  0  0  0  0  0  0  0  0  0  0
    1.0000   11.5170   -2.1210 C   0  0  1  0  0  0  0  0  0  0  0  0
    2.0520   11.2950   -1.0030 C   0  0  0  0  0  0  0  0  0  0  0  0
    2.6570   12.6840   -0.6750 C   0  0  0  0  0  0  0  0  0  0  0  0
    1.7120   13.6940   -1.3670 C   0  0  1  0  0  0  0  0  0  0  0  0
    0.5060   13.8490   -0.3890 C   0  0  0  0  0  0  0  0  0  0  0  0
    2.3350   15.0790   -1.7410 C   0  0  2  0  0  0  0  0  0  0  0  0
    2.8270   15.9160   -0.5470 C   0  0  0  0  0  0  0  0  0  0  0  0
    1.8160   16.8440    0.0400 C   0  0  0  0  0  0  0  0  0  0  0  0
    0.6590   17.2110   -0.5420 C   0  0  0  0  0  0  0  0  0  0  0  0
    0.3150   16.7540   -1.9660 C   0  0  1  0  0  0  0  0  0  0  0  0
   -0.2050   17.9640   -2.7860 C   0  0  0  0  0  0  0  0  0  0  0  0
   -1.3690   18.6770   -2.1040 C   0  0  0  0  0  0  0  0  0  0  0  0
   -0.9690   19.1670   -0.7140 C   0  0  2  0  0  0  0  0  0  0  0  0
    0.0170   20.1940   -0.8540 O   0  0  0  0  0  0  0  0  0  0  0  0
   -0.4210   18.0360    0.2000 C   0  0  0  0  0  0  0  0  0  0  0  0
   -1.5740   17.0820    0.5970 C   0  0  0  0  0  0  0  0  0  0  0  0
    0.0770   18.6870    1.5190 C   0  0  0  0  0  0  0  0  0  0  0  0
    1.4490   15.9430   -2.7270 C   0  0  1  0  0  0  0  0  0  0  0  0
    2.4180   16.9300   -3.4470 C   0  0  0  0  0  0  0  0  0  0  0  0
    0.7860   15.0690   -3.8570 C   0  0  0  0  0  0  0  0  0  0  0  0
    0.2990   13.6640   -3.4530 C   0  0  0  0  0  0  0  0  0  0  0  0
    1.3870   12.9050   -2.6880 C   0  0  2  0  0  0  0  0  0  0  0  0
    2.6060   12.7140   -3.6540 C   0  0  0  0  0  0  0  0  0  0  0  0
   -1.1823   10.6567   -3.4380 H   0  0  0  0  0  0  0  0  0  0  0  0
   -0.1168   11.4115   -4.6716 H   0  0  0  0  0  0  0  0  0  0  0  0
   -0.3713    9.6333   -4.6716 H   0  0  0  0  0  0  0  0  0  0  0  0
    1.8380   10.3439   -3.7293 H   0  0  0  0  0  0  0  0  0  0  0  0
    1.2625    8.2229   -2.9970 H   0  0  0  0  0  0  0  0  0  0  0  0
    1.5030    9.1413   -1.4346 H   0  0  0  0  0  0  0  0  0  0  0  0
   -1.2613    9.1513   -2.4878 H   0  0  0  0  0  0  0  0  0  0  0  0
   -0.6236    7.5371   -1.9623 H   0  0  0  0  0  0  0  0  0  0  0  0
    0.2185    8.5499   -0.1421 H   0  0  0  0  0  0  0  0  0  0  0  0
   -2.4435   12.0915   -0.4581 H   0  0  0  0  0  0  0  0  0  0  0  0
   -1.1615   11.6063   -1.6190 H   0  0  0  0  0  0  0  0  0  0  0  0
   -2.7426   10.7538   -1.6190 H   0  0  0  0  0  0  0  0  0  0  0  0
   -1.5609   10.0426    2.1270 H   0  0  0  0  0  0  0  0  0  0  0  0
   -0.1278   10.9457    1.5293 H   0  0  0  0  0  0  0  0  0  0  0  0
   -1.7455   11.7264    1.5293 H   0  0  0  0  0  0  0  0  0  0  0  0
   -0.0451   11.5285   -1.7779 H   0  0  0  0  0  0  0  0  0  0  0  0
    1.5710   10.8709   -0.1093 H   0  0  0  0  0  0  0  0  0  0  0  0
    2.8323   10.5917   -1.3294 H   0  0  0  0  0  0  0  0  0  0  0  0
    2.6766   12.8523    0.4119 H   0  0  0  0  0  0  0  0  0  0  0  0
    3.6963   12.7791   -1.0227 H   0  0  0  0  0  0  0  0  0  0  0  0
    0.8673   13.8026    0.6489 H   0  0  0  0  0  0  0  0  0  0  0  0
    0.0148   14.8177   -0.5633 H   0  0  0  0  0  0  0  0  0  0  0  0
   -0.2142   13.0360   -0.5633 H   0  0  0  0  0  0  0  0  0  0  0  0
    3.2395   14.7895   -2.2960 H   0  0  0  0  0  0  0  0  0  0  0  0
    3.1517   15.2231    0.2432 H   0  0  0  0  0  0  0  0  0  0  0  0
    3.6362   16.5526   -0.9341 H   0  0  0  0  0  0  0  0  0  0  0  0
    2.0351   17.2638    1.0329 H   0  0  0  0  0  0  0  0  0  0  0  0
   -0.4826   16.0038   -1.8605 H   0  0  0  0  0  0  0  0  0  0  0  0
    0.6189   18.6808   -2.9177 H   0  0  0  0  0  0  0  0  0  0  0  0
   -0.5676   17.5816   -3.7515 H   0  0  0  0  0  0  0  0  0  0  0  0
   -1.6718   19.5391   -2.7164 H   0  0  0  0  0  0  0  0  0  0  0  0
   -2.2032   17.9676   -1.9999 H   0  0  0  0  0  0  0  0  0  0  0  0
   -1.8764   19.5518   -0.2255 H   0  0  0  0  0  0  0  0  0  0  0  0
    0.3310   20.4240    0.0370 H   0  0  0  0  0  0  0  0  0  0  0  0
   -1.6422   17.0256    1.6934 H   0  0  0  0  0  0  0  0  0  0  0  0
   -2.5221   17.4633    0.1898 H   0  0  0  0  0  0  0  0  0  0  0  0
   -1.3769   16.0793    0.1898 H   0  0  0  0  0  0  0  0  0  0  0  0
   -0.3406   18.1411    2.3778 H   0  0  0  0  0  0  0  0  0  0  0  0
    1.1755   18.6448    1.5567 H   0  0  0  0  0  0  0  0  0  0  0  0
   -0.2512   19.7362    1.5567 H   0  0  0  0  0  0  0  0  0  0  0  0
    2.9813   17.5038   -2.6964 H   0  0  0  0  0  0  0  0  0  0  0  0
    3.1190   16.3620   -4.0763 H   0  0  0  0  0  0  0  0  0  0  0  0
    1.8372   17.6204   -4.0763 H   0  0  0  0  0  0  0  0  0  0  0  0
   -0.0823   15.6245   -4.2410 H   0  0  0  0  0  0  0  0  0  0  0  0
    1.5849   14.8961   -4.5931 H   0  0  0  0  0  0  0  0  0  0  0  0
   -0.5897   13.7618   -2.8122 H   0  0  0  0  0  0  0  0  0  0  0  0
    0.0555   13.1014   -4.3663 H   0  0  0  0  0  0  0  0  0  0  0  0
    3.5228   12.5703   -3.0634 H   0  0  0  0  0  0  0  0  0  0  0  0
    2.4364   11.8315   -4.2883 H   0  0  0  0  0  0  0  0  0  0  0  0
    2.7145   13.6061   -4.2883 H   0  0  0  0  0  0  0  0  0  0  0  0
  1  2  1  0
  2  3  1  0
  3  4  1  0
  4  5  1  0
  5  6  1  0
  6  7  1  0
  7  8  1  0
  7  9  1  0
  2 10  1  0
 10 11  1  0
 11 12  1  0
 12 13  1  0
 13 14  1  1
 13 15  1  0
 15 16  1  0
 16 17  1  0
 17 18  2  0
 18 19  1  0
 19 20  1  0
 20 21  1  0
 21 22  1  0
 22 23  1  0
 22 24  1  0
 24 25  1  0
 24 26  1  0
 19 27  1  0
 27 28  1  6
 27 29  1  0
 29 30  1  0
 30 31  1  0
 31 32  1  6
  7  5  1  0
 31 10  1  0
 31 13  1  0
 27 15  1  0
 24 18  1  0
  1 33  1  0
  1 34  1  0
  1 35  1  0
  2 36  1  6
  3 37  1  0
  3 38  1  0
  4 39  1  0
  4 40  1  0
  5 41  1  1
  8 42  1  0
  8 43  1  0
  8 44  1  0
  9 45  1  0
  9 46  1  0
  9 47  1  0
 10 48  1  1
 11 49  1  0
 11 50  1  0
 12 51  1  0
 12 52  1  0
 14 53  1  0
 14 54  1  0
 14 55  1  0
 15 56  1  6
 16 57  1  0
 16 58  1  0
 17 59  1  0
 19 60  1  1
 20 61  1  0
 20 62  1  0
 21 63  1  0
 21 64  1  0
 22 65  1  1
 23 66  1  0
 25 67  1  0
 25 68  1  0
 25 69  1  0
 26 70  1  0
 26 71  1  0
 26 72  1  0
 28 73  1  0
 28 74  1  0
 28 75  1  0
 29 76  1  0
 29 77  1  0
 30 78  1  0
 30 79  1  0
 32 80  1  0
 32 81  1  0
 32 82  1  0
M  END
>  <meeko>  (8) 
{"is_sidechain": [false], "intermolecular_energy": 2.731, "internal_energy": -0.839}

$$$$
EPH_relaxed_0001_pdb2pqr_Repair_389_r2_0001_out
     RDKit          3D

 82 86  0  0  0  0  0  0  0  0999 V2000
    2.6300   19.2590   -0.8790 C   0  0  0  0  0  0  0  0  0  0  0  0
    2.5880   18.2820   -2.0570 C   0  0  2  0  0  0  0  0  0  0  0  0
    1.2500   18.3500   -2.8200 C   0  0  0  0  0  0  0  0  0  0  0  0
    0.3810   19.5500   -2.4330 C   0  0  0  0  0  0  0  0  0  0  0  0
   -0.8940   19.1200   -1.7730 C   0  0  2  0  0  0  0  0  0  0  0  0
   -1.7730   20.1940   -1.4120 O   0  0  0  0  0  0  0  0  0  0  0  0
   -1.2310   19.4260   -0.3260 C   0  0  0  0  0  0  0  0  0  0  0  0
   -0.2890   20.1910    0.5500 C   0  0  0  0  0  0  0  0  0  0  0  0
   -2.2430   18.5690    0.3690 C   0  0  0  0  0  0  0  0  0  0  0  0
    2.8350   16.8610   -1.5640 C   0  0  1  0  0  0  0  0  0  0  0  0
    3.6040   16.8220   -0.2160 C   0  0  0  0  0  0  0  0  0  0  0  0
    3.0520   15.6100    0.5780 C   0  0  0  0  0  0  0  0  0  0  0  0
    2.2340   14.8040   -0.4580 C   0  0  1  0  0  0  0  0  0  0  0  0
    3.2930   13.9680   -1.2430 C   0  0  0  0  0  0  0  0  0  0  0  0
    1.0940   13.9000    0.1140 C   0  0  2  0  0  0  0  0  0  0  0  0
    1.5630   12.7730    1.0510 C   0  0  0  0  0  0  0  0  0  0  0  0
    1.8720   11.4750    0.3810 C   0  0  0  0  0  0  0  0  0  0  0  0
    1.5100   11.1340   -0.8700 C   0  0  0  0  0  0  0  0  0  0  0  0
    0.6270   12.0620   -1.7150 C   0  0  1  0  0  0  0  0  0  0  0  0
   -0.5050   11.2360   -2.3790 C   0  0  0  0  0  0  0  0  0  0  0  0
    0.0270   10.0500   -3.1780 C   0  0  0  0  0  0  0  0  0  0  0  0
    0.8510    9.1200   -2.2900 C   0  0  2  0  0  0  0  0  0  0  0  0
   -0.0170    8.5140   -1.3280 O   0  0  0  0  0  0  0  0  0  0  0  0
    2.0170    9.8440   -1.5610 C   0  0  0  0  0  0  0  0  0  0  0  0
    3.1080   10.2380   -2.5860 C   0  0  0  0  0  0  0  0  0  0  0  0
    2.6780    8.8270   -0.5920 C   0  0  0  0  0  0  0  0  0  0  0  0
    0.0840   13.3610   -0.9780 C   0  0  1  0  0  0  0  0  0  0  0  0
   -1.2460   13.0330   -0.2330 C   0  0  0  0  0  0  0  0  0  0  0  0
   -0.2700   14.4530   -2.0570 C   0  0  0  0  0  0  0  0  0  0  0  0
    0.8700   15.3930   -2.4930 C   0  0  0  0  0  0  0  0  0  0  0  0
    1.5920   15.9820   -1.2770 C   0  0  2  0  0  0  0  0  0  0  0  0
    0.5570   16.8470   -0.4790 C   0  0  0  0  0  0  0  0  0  0  0  0
    2.6058   18.6958    0.0655 H   0  0  0  0  0  0  0  0  0  0  0  0
    3.5545   19.8530   -0.9281 H   0  0  0  0  0  0  0  0  0  0  0  0
    1.7599   19.9302   -0.9281 H   0  0  0  0  0  0  0  0  0  0  0  0
    3.3833   18.5751   -2.7581 H   0  0  0  0  0  0  0  0  0  0  0  0
    1.4669   18.4111   -3.8967 H   0  0  0  0  0  0  0  0  0  0  0  0
    0.6835   17.4446   -2.5568 H   0  0  0  0  0  0  0  0  0  0  0  0
    0.9448   20.1891   -1.7375 H   0  0  0  0  0  0  0  0  0  0  0  0
    0.1242   20.0983   -3.3514 H   0  0  0  0  0  0  0  0  0  0  0  0
   -0.9058   18.1845   -2.3515 H   0  0  0  0  0  0  0  0  0  0  0  0
   -0.5294   19.9957    1.6055 H   0  0  0  0  0  0  0  0  0  0  0  0
    0.7436   19.8726    0.3442 H   0  0  0  0  0  0  0  0  0  0  0  0
   -0.3888   21.2670    0.3442 H   0  0  0  0  0  0  0  0  0  0  0  0
   -2.1235   18.6702    1.4578 H   0  0  0  0  0  0  0  0  0  0  0  0
   -3.2550   18.8890    0.0799 H   0  0  0  0  0  0  0  0  0  0  0  0
   -2.0941   17.5182    0.0799 H   0  0  0  0  0  0  0  0  0  0  0  0
    3.3886   16.4600   -2.4258 H   0  0  0  0  0  0  0  0  0  0  0  0
    4.6816   16.6968   -0.3980 H   0  0  0  0  0  0  0  0  0  0  0  0
    3.4661   17.7581    0.3450 H   0  0  0  0  0  0  0  0  0  0  0  0
    3.8756   15.0019    0.9804 H   0  0  0  0  0  0  0  0  0  0  0  0
    2.4434   15.9189    1.4406 H   0  0  0  0  0  0  0  0  0  0  0  0
    3.9511   13.4485   -0.5310 H   0  0  0  0  0  0  0  0  0  0  0  0
    2.7806   13.2282   -1.8756 H   0  0  0  0  0  0  0  0  0  0  0  0
    3.8936   14.6382   -1.8756 H   0  0  0  0  0  0  0  0  0  0  0  0
    0.5328   14.6019    0.7484 H   0  0  0  0  0  0  0  0  0  0  0  0
    2.4730   13.1152    1.5656 H   0  0  0  0  0  0  0  0  0  0  0  0
    0.7220   12.5723    1.7310 H   0  0  0  0  0  0  0  0  0  0  0  0
    2.4442   10.7342    0.9588 H   0  0  0  0  0  0  0  0  0  0  0  0
    1.2831   12.4850   -2.4900 H   0  0  0  0  0  0  0  0  0  0  0  0
   -1.1745   10.8589   -1.5919 H   0  0  0  0  0  0  0  0  0  0  0  0
   -1.0353   11.8988   -3.0786 H   0  0  0  0  0  0  0  0  0  0  0  0
   -0.8211    9.4891   -3.5978 H   0  0  0  0  0  0  0  0  0  0  0  0
    0.6727   10.4302   -3.9833 H   0  0  0  0  0  0  0  0  0  0  0  0
    1.3116    8.3627   -2.9414 H   0  0  0  0  0  0  0  0  0  0  0  0
    0.5410    8.1250   -0.6320 H   0  0  0  0  0  0  0  0  0  0  0  0
    4.0123   10.5646   -2.0516 H   0  0  0  0  0  0  0  0  0  0  0  0
    3.3485    9.3700   -3.2174 H   0  0  0  0  0  0  0  0  0  0  0  0
    2.7384   11.0594   -3.2174 H   0  0  0  0  0  0  0  0  0  0  0  0
    2.4814    9.1296    0.4471 H   0  0  0  0  0  0  0  0  0  0  0  0
    2.2574    7.8260   -0.7683 H   0  0  0  0  0  0  0  0  0  0  0  0
    3.7636    8.8049   -0.7683 H   0  0  0  0  0  0  0  0  0  0  0  0
   -1.0777   13.0745    0.8532 H   0  0  0  0  0  0  0  0  0  0  0  0
   -2.0143   13.7686   -0.5134 H   0  0  0  0  0  0  0  0  0  0  0  0
   -1.5842   12.0245   -0.5134 H   0  0  0  0  0  0  0  0  0  0  0  0
   -0.6314   13.9294   -2.9544 H   0  0  0  0  0  0  0  0  0  0  0  0
   -1.0124   15.1053   -1.5739 H   0  0  0  0  0  0  0  0  0  0  0  0
    1.5914   14.8261   -3.0998 H   0  0  0  0  0  0  0  0  0  0  0  0
    0.4387   16.2186   -3.0781 H   0  0  0  0  0  0  0  0  0  0  0  0
    0.7200   16.7107    0.6003 H   0  0  0  0  0  0  0  0  0  0  0  0
    0.6882   17.9078   -0.7386 H   0  0  0  0  0  0  0  0  0  0  0  0
   -0.4637   16.5295   -0.7386 H   0  0  0  0  0  0  0  0  0  0  0  0
  1  2  1  0
  2  3  1  0
  3  4  1  0
  4  5  1  0
  5  6  1  0
  6  7  1  0
  7  8  1  0
  7  9  1  0
  2 10  1  0
 10 11  1  0
 11 12  1  0
 12 13  1  0
 13 14  1  6
 13 15  1  0
 15 16  1  0
 16 17  1  0
 17 18  2  0
 18 19  1  0
 19 20  1  0
 20 21  1  0
 21 22  1  0
 22 23  1  0
 22 24  1  0
 24 25  1  0
 24 26  1  0
 19 27  1  0
 27 28  1  1
 27 29  1  0
 29 30  1  0
 30 31  1  0
 31 32  1  1
  7  5  1  0
 31 10  1  0
 31 13  1  0
 27 15  1  0
 24 18  1  0
  1 33  1  0
  1 34  1  0
  1 35  1  0
  2 36  1  6
  3 37  1  0
  3 38  1  0
  4 39  1  0
  4 40  1  0
  5 41  1  6
  8 42  1  0
  8 43  1  0
  8 44  1  0
  9 45  1  0
  9 46  1  0
  9 47  1  0
 10 48  1  6
 11 49  1  0
 11 50  1  0
 12 51  1  0
 12 52  1  0
 14 53  1  0
 14 54  1  0
 14 55  1  0
 15 56  1  1
 16 57  1  0
 16 58  1  0
 17 59  1  0
 19 60  1  6
 20 61  1  0
 20 62  1  0
 21 63  1  0
 21 64  1  0
 22 65  1  6
 23 66  1  0
 25 67  1  0
 25 68  1  0
 25 69  1  0
 26 70  1  0
 26 71  1  0
 26 72  1  0
 28 73  1  0
 28 74  1  0
 28 75  1  0
 29 76  1  0
 29 77  1  0
 30 78  1  0
 30 79  1  0
 32 80  1  0
 32 81  1  0
 32 82  1  0
M  END
>  <meeko>  (9) 
{"is_sidechain": [false], "intermolecular_energy": 2.731, "internal_energy": -0.839}

$$$$
EPH_relaxed_0001_pdb2pqr_Repair_389_r2_0001_out
     RDKit          3D

 82 86  0  0  0  0  0  0  0  0999 V2000
   -0.8910   16.3590   -5.8460 C   0  0  0  0  0  0  0  0  0  0  0  0
    0.2050   15.6640   -6.6590 C   0  0  2  0  0  0  0  0  0  0  0  0
   -0.1950   15.4830   -8.1370 C   0  0  0  0  0  0  0  0  0  0  0  0
    0.4530   16.5020   -9.0790 C   0  0  0  0  0  0  0  0  0  0  0  0
    1.8550   16.1120   -9.4380 C   0  0  2  0  0  0  0  0  0  0  0  0
    2.3350   16.6700  -10.6680 O   0  0  0  0  0  0  0  0  0  0  0  0
    2.2020   15.2400  -10.6300 C   0  0  0  0  0  0  0  0  0  0  0  0
    1.1420   14.7040  -11.5390 C   0  0  0  0  0  0  0  0  0  0  0  0
    3.5100   14.5130  -10.6280 C   0  0  0  0  0  0  0  0  0  0  0  0
    0.5330   14.3110   -6.0390 C   0  0  1  0  0  0  0  0  0  0  0  0
    1.7920   13.6560   -6.6670 C   0  0  0  0  0  0  0  0  0  0  0  0
    2.5140   12.8910   -5.5270 C   0  0  0  0  0  0  0  0  0  0  0  0
    1.4860   12.8530   -4.3720 C   0  0  1  0  0  0  0  0  0  0  0  0
    0.5280   11.6730   -4.7270 C   0  0  0  0  0  0  0  0  0  0  0  0
    2.0730   12.7060   -2.9300 C   0  0  2  0  0  0  0  0  0  0  0  0
    2.8470   11.4020   -2.6700 C   0  0  0  0  0  0  0  0  0  0  0  0
    2.0290   10.2670   -2.1490 C   0  0  0  0  0  0  0  0  0  0  0  0
    0.7910   10.3690   -1.6320 C   0  0  0  0  0  0  0  0  0  0  0  0
    0.1270   11.7380   -1.4410 C   0  0  1  0  0  0  0  0  0  0  0  0
   -0.5050   11.8150   -0.0260 C   0  0  0  0  0  0  0  0  0  0  0  0
   -1.4620   10.6590    0.2510 C   0  0  0  0  0  0  0  0  0  0  0  0
   -0.7500    9.3160    0.1080 C   0  0  2  0  0  0  0  0  0  0  0  0
    0.2270    9.1990    1.1470 O   0  0  0  0  0  0  0  0  0  0  0  0
   -0.0660    9.1290   -1.2750 C   0  0  0  0  0  0  0  0  0  0  0  0
   -1.1470    8.9540   -2.3700 C   0  0  0  0  0  0  0  0  0  0  0  0
    0.7320    7.7980   -1.2370 C   0  0  0  0  0  0  0  0  0  0  0  0
    1.0330   13.0010   -1.7740 C   0  0  1  0  0  0  0  0  0  0  0  0
    1.8650   13.4040   -0.5180 C   0  0  0  0  0  0  0  0  0  0  0  0
    0.1040   14.2280   -2.1040 C   0  0  0  0  0  0  0  0  0  0  0  0
   -0.3450   14.3860   -3.5690 C   0  0  0  0  0  0  0  0  0  0  0  0
    0.8490   14.2820   -4.5220 C   0  0  2  0  0  0  0  0  0  0  0  0
    1.8210   15.4690   -4.2040 C   0  0  0  0  0  0  0  0  0  0  0  0
   -0.6884   16.2306   -4.7725 H   0  0  0  0  0  0  0  0  0  0  0  0
   -0.9049   17.4313   -6.0908 H   0  0  0  0  0  0  0  0  0  0  0  0
   -1.8669   15.9143   -6.0908 H   0  0  0  0  0  0  0  0  0  0  0  0
    1.0951   16.3098   -6.6345 H   0  0  0  0  0  0  0  0  0  0  0  0
    0.1051   14.4743   -8.4570 H   0  0  0  0  0  0  0  0  0  0  0  0
   -1.2827   15.6359   -8.1969 H   0  0  0  0  0  0  0  0  0  0  0  0
   -0.1456   16.5674   -9.9995 H   0  0  0  0  0  0  0  0  0  0  0  0
    0.4887   17.4724   -8.5621 H   0  0  0  0  0  0  0  0  0  0  0  0
    2.1362   16.0555   -8.3760 H   0  0  0  0  0  0  0  0  0  0  0  0
    0.3197   14.2882  -10.9382 H   0  0  0  0  0  0  0  0  0  0  0  0
    0.7581   15.5163  -12.1736 H   0  0  0  0  0  0  0  0  0  0  0  0
    1.5687   13.9133  -12.1736 H   0  0  0  0  0  0  0  0  0  0  0  0
    3.8293   14.3355   -9.5904 H   0  0  0  0  0  0  0  0  0  0  0  0
    3.3948   13.5495  -11.1461 H   0  0  0  0  0  0  0  0  0  0  0  0
    4.2674   15.1196  -11.1461 H   0  0  0  0  0  0  0  0  0  0  0  0
   -0.4116   13.7831   -6.2366 H   0  0  0  0  0  0  0  0  0  0  0  0
    1.4979   12.9580   -7.4647 H   0  0  0  0  0  0  0  0  0  0  0  0
    2.4515   14.4151   -7.1128 H   0  0  0  0  0  0  0  0  0  0  0  0
    2.7756   11.8719   -5.8479 H   0  0  0  0  0  0  0  0  0  0  0  0
    3.4566   13.3747   -5.2313 H   0  0  0  0  0  0  0  0  0  0  0  0
    0.1543   11.2127   -3.8005 H   0  0  0  0  0  0  0  0  0  0  0  0
   -0.3200   12.0535   -5.3154 H   0  0  0  0  0  0  0  0  0  0  0  0
    1.0746   10.9213   -5.3154 H   0  0  0  0  0  0  0  0  0  0  0  0
    2.8233   13.5098   -2.8978 H   0  0  0  0  0  0  0  0  0  0  0  0
    3.3047   11.0837   -3.6183 H   0  0  0  0  0  0  0  0  0  0  0  0
    3.5795   11.6351   -1.8831 H   0  0  0  0  0  0  0  0  0  0  0  0
    2.4760    9.2628   -2.1914 H   0  0  0  0  0  0  0  0  0  0  0  0
   -0.6611   11.8023   -2.2057 H   0  0  0  0  0  0  0  0  0  0  0  0
    0.3012   11.7924    0.7220 H   0  0  0  0  0  0  0  0  0  0  0  0
   -1.0838   12.7487    0.0309 H   0  0  0  0  0  0  0  0  0  0  0  0
   -1.8526   10.7523    1.2751 H   0  0  0  0  0  0  0  0  0  0  0  0
   -2.2838   10.7005   -0.4790 H   0  0  0  0  0  0  0  0  0  0  0  0
   -1.5133    8.5282    0.1895 H   0  0  0  0  0  0  0  0  0  0  0  0
   -0.2490    9.1510    1.9940 H   0  0  0  0  0  0  0  0  0  0  0  0
   -2.1268    8.7954   -1.8959 H   0  0  0  0  0  0  0  0  0  0  0  0
   -1.1845    9.8578   -2.9959 H   0  0  0  0  0  0  0  0  0  0  0  0
   -0.8975    8.0846   -2.9959 H   0  0  0  0  0  0  0  0  0  0  0  0
    0.9074    7.5054   -0.1912 H   0  0  0  0  0  0  0  0  0  0  0  0
    0.1567    7.0109   -1.7464 H   0  0  0  0  0  0  0  0  0  0  0  0
    1.6973    7.9346   -1.7464 H   0  0  0  0  0  0  0  0  0  0  0  0
    1.3089   13.1346    0.3921 H   0  0  0  0  0  0  0  0  0  0  0  0
    2.8280   12.8725   -0.5301 H   0  0  0  0  0  0  0  0  0  0  0  0
    2.0449   14.4891   -0.5301 H   0  0  0  0  0  0  0  0  0  0  0  0
   -0.8017   14.1350   -1.4867 H   0  0  0  0  0  0  0  0  0  0  0  0
    0.7165   15.1171   -1.8936 H   0  0  0  0  0  0  0  0  0  0  0  0
   -1.0688   13.5938   -3.8111 H   0  0  0  0  0  0  0  0  0  0  0  0
   -0.8052   15.3778   -3.6900 H   0  0  0  0  0  0  0  0  0  0  0  0
    1.9151   15.5839   -3.1141 H   0  0  0  0  0  0  0  0  0  0  0  0
    2.8100   15.2592   -4.6373 H   0  0  0  0  0  0  0  0  0  0  0  0
    1.4203   16.3972   -4.6373 H   0  0  0  0  0  0  0  0  0  0  0  0
  1  2  1  0
  2  3  1  0
  3  4  1  0
  4  5  1  0
  5  6  1  0
  6  7  1  0
  7  8  1  0
  7  9  1  0
  2 10  1  0
 10 11  1  0
 11 12  1  0
 12 13  1  0
 13 14  1  6
 13 15  1  0
 15 16  1  0
 16 17  1  0
 17 18  2  0
 18 19  1  0
 19 20  1  0
 20 21  1  0
 21 22  1  0
 22 23  1  0
 22 24  1  0
 24 25  1  0
 24 26  1  0
 19 27  1  0
 27 28  1  1
 27 29  1  0
 29 30  1  0
 30 31  1  0
 31 32  1  1
  7  5  1  0
 31 10  1  0
 31 13  1  0
 27 15  1  0
 24 18  1  0
  1 33  1  0
  1 34  1  0
  1 35  1  0
  2 36  1  6
  3 37  1  0
  3 38  1  0
  4 39  1  0
  4 40  1  0
  5 41  1  1
  8 42  1  0
  8 43  1  0
  8 44  1  0
  9 45  1  0
  9 46  1  0
  9 47  1  0
 10 48  1  1
 11 49  1  0
 11 50  1  0
 12 51  1  0
 12 52  1  0
 14 53  1  0
 14 54  1  0
 14 55  1  0
 15 56  1  6
 16 57  1  0
 16 58  1  0
 17 59  1  0
 19 60  1  6
 20 61  1  0
 20 62  1  0
 21 63  1  0
 21 64  1  0
 22 65  1  1
 23 66  1  0
 25 67  1  0
 25 68  1  0
 25 69  1  0
 26 70  1  0
 26 71  1  0
 26 72  1  0
 28 73  1  0
 28 74  1  0
 28 75  1  0
 29 76  1  0
 29 77  1  0
 30 78  1  0
 30 79  1  0
 32 80  1  0
 32 81  1  0
 32 82  1  0
M  END
>  <meeko>  (10) 
{"is_sidechain": [false], "intermolecular_energy": 2.731, "internal_energy": -0.839}

$$$$
EPH_relaxed_0001_pdb2pqr_Repair_389_r2_0001_out
     RDKit          3D

 82 86  0  0  0  0  0  0  0  0999 V2000
   -4.0270    7.3710   -3.5160 C   0  0  0  0  0  0  0  0  0  0  0  0
   -3.6750    7.2810   -2.0290 C   0  0  2  0  0  0  0  0  0  0  0  0
   -4.8760    6.8300   -1.1740 C   0  0  0  0  0  0  0  0  0  0  0  0
   -6.0670    6.3360   -1.9980 C   0  0  0  0  0  0  0  0  0  0  0  0
   -7.3510    6.9660   -1.5500 C   0  0  2  0  0  0  0  0  0  0  0  0
   -8.3640    6.0370   -1.1430 O   0  0  0  0  0  0  0  0  0  0  0  0
   -8.6590    6.8280   -2.3060 C   0  0  0  0  0  0  0  0  0  0  0  0
   -8.7480    6.0370   -3.5730 C   0  0  0  0  0  0  0  0  0  0  0  0
   -9.7270    7.8530   -2.0820 C   0  0  0  0  0  0  0  0  0  0  0  0
   -3.1590    8.6270   -1.5340 C   0  0  1  0  0  0  0  0  0  0  0  0
   -3.8080    9.0600   -0.1930 C   0  0  0  0  0  0  0  0  0  0  0  0
   -2.7180    9.8170    0.6080 C   0  0  0  0  0  0  0  0  0  0  0  0
   -1.5940   10.0850   -0.4200 C   0  0  1  0  0  0  0  0  0  0  0  0
   -2.0660   11.3440   -1.2110 C   0  0  0  0  0  0  0  0  0  0  0  0
   -0.1550   10.2740    0.1630 C   0  0  2  0  0  0  0  0  0  0  0  0
    0.0150   11.4840    1.0980 C   0  0  0  0  0  0  0  0  0  0  0  0
    0.4230   12.7550    0.4290 C   0  0  0  0  0  0  0  0  0  0  0  0
    0.9180   12.8580   -0.8190 C   0  0  0  0  0  0  0  0  0  0  0  0
    1.2040   11.6060   -1.6590 C   0  0  1  0  0  0  0  0  0  0  0  0
    2.6050   11.7310   -2.3120 C   0  0  0  0  0  0  0  0  0  0  0  0
    2.7650   13.0200   -3.1130 C   0  0  0  0  0  0  0  0  0  0  0  0
    2.5300   14.2430   -2.2300 C   0  0  2  0  0  0  0  0  0  0  0  0
    3.5790   14.3190   -1.2590 O   0  0  0  0  0  0  0  0  0  0  0  0
    1.1530   14.2230   -1.5100 C   0  0  0  0  0  0  0  0  0  0  0  0
    0.0220   14.4450   -2.5450 C   0  0  0  0  0  0  0  0  0  0  0  0
    1.1010   15.4380   -0.5450 C   0  0  0  0  0  0  0  0  0  0  0  0
    0.9960   10.2140   -0.9210 C   0  0  1  0  0  0  0  0  0  0  0  0
    2.2990    9.8130   -0.1640 C   0  0  0  0  0  0  0  0  0  0  0  0
    0.7460    9.0940   -1.9990 C   0  0  0  0  0  0  0  0  0  0  0  0
   -0.7120    8.8730   -2.4460 C   0  0  0  0  0  0  0  0  0  0  0  0
   -1.6430    8.7420   -1.2360 C   0  0  2  0  0  0  0  0  0  0  0  0
   -1.2060    7.4700   -0.4330 C   0  0  0  0  0  0  0  0  0  0  0  0
   -5.0874    7.6421   -3.6260 H   0  0  0  0  0  0  0  0  0  0  0  0
   -3.4008    8.1379   -3.9953 H   0  0  0  0  0  0  0  0  0  0  0  0
   -3.8458    6.3976   -3.9953 H   0  0  0  0  0  0  0  0  0  0  0  0
   -2.8887    6.5194   -1.9210 H   0  0  0  0  0  0  0  0  0  0  0  0
   -4.5462    6.0127   -0.5158 H   0  0  0  0  0  0  0  0  0  0  0  0
   -5.2182    7.7106   -0.6106 H   0  0  0  0  0  0  0  0  0  0  0  0
   -5.8971    6.5864   -3.0556 H   0  0  0  0  0  0  0  0  0  0  0  0
   -6.1522    5.2481   -1.8591 H   0  0  0  0  0  0  0  0  0  0  0  0
   -6.8123    7.8430   -1.1617 H   0  0  0  0  0  0  0  0  0  0  0  0
   -8.8680    4.9705   -3.3318 H   0  0  0  0  0  0  0  0  0  0  0  0
   -9.6132    6.3799   -4.1593 H   0  0  0  0  0  0  0  0  0  0  0  0
   -7.8282    6.1791   -4.1593 H   0  0  0  0  0  0  0  0  0  0  0  0
   -9.8766    7.9966   -1.0017 H   0  0  0  0  0  0  0  0  0  0  0  0
   -9.4226    8.8058   -2.5398 H   0  0  0  0  0  0  0  0  0  0  0  0
  -10.6664    7.5098   -2.5398 H   0  0  0  0  0  0  0  0  0  0  0  0
   -3.4211    9.2534   -2.3994 H   0  0  0  0  0  0  0  0  0  0  0  0
   -4.6659    9.7215   -0.3837 H   0  0  0  0  0  0  0  0  0  0  0  0
   -4.1755    8.1878    0.3675 H   0  0  0  0  0  0  0  0  0  0  0  0
   -3.1146   10.7630    1.0052 H   0  0  0  0  0  0  0  0  0  0  0  0
   -2.3619    9.2411    1.4749 H   0  0  0  0  0  0  0  0  0  0  0  0
   -2.3615   12.1323   -0.5030 H   0  0  0  0  0  0  0  0  0  0  0  0
   -1.2437   11.7090   -1.8439 H   0  0  0  0  0  0  0  0  0  0  0  0
   -2.9256   11.0784   -1.8439 H   0  0  0  0  0  0  0  0  0  0  0  0
   -0.0388    9.3851    0.8005 H   0  0  0  0  0  0  0  0  0  0  0  0
   -0.9455   11.6597    1.6045 H   0  0  0  0  0  0  0  0  0  0  0  0
    0.8344   11.2250    1.7846 H   0  0  0  0  0  0  0  0  0  0  0  0
    0.3096   13.6858    1.0042 H   0  0  0  0  0  0  0  0  0  0  0  0
    0.4294   11.5788   -2.4396 H   0  0  0  0  0  0  0  0  0  0  0  0
    3.3667   11.7122   -1.5186 H   0  0  0  0  0  0  0  0  0  0  0  0
    2.7248   10.8882   -3.0087 H   0  0  0  0  0  0  0  0  0  0  0  0
    3.7840   13.0638   -3.5251 H   0  0  0  0  0  0  0  0  0  0  0  0
    2.0220   13.0242   -3.9241 H   0  0  0  0  0  0  0  0  0  0  0  0
    2.5292   15.1271   -2.8845 H   0  0  0  0  0  0  0  0  0  0  0  0
    3.8500   13.4100   -1.0470 H   0  0  0  0  0  0  0  0  0  0  0  0
   -0.9256   14.6310   -2.0183 H   0  0  0  0  0  0  0  0  0  0  0  0
    0.2673   15.3121   -3.1758 H   0  0  0  0  0  0  0  0  0  0  0  0
   -0.0787   13.5495   -3.1758 H   0  0  0  0  0  0  0  0  0  0  0  0
    1.1163   15.0809    0.4953 H   0  0  0  0  0  0  0  0  0  0  0  0
    1.9723   16.0854   -0.7233 H   0  0  0  0  0  0  0  0  0  0  0  0
    0.1776   16.0086   -0.7233 H   0  0  0  0  0  0  0  0  0  0  0  0
    2.1242    9.8668    0.9207 H   0  0  0  0  0  0  0  0  0  0  0  0
    2.5818    8.7863   -0.4393 H   0  0  0  0  0  0  0  0  0  0  0  0
    3.1102   10.5031   -0.4393 H   0  0  0  0  0  0  0  0  0  0  0  0
    1.3320    9.3553   -2.8925 H   0  0  0  0  0  0  0  0  0  0  0  0
    1.0433    8.1538   -1.5115 H   0  0  0  0  0  0  0  0  0  0  0  0
   -1.0346    9.7288   -3.0572 H   0  0  0  0  0  0  0  0  0  0  0  0
   -0.7625    7.9420   -3.0297 H   0  0  0  0  0  0  0  0  0  0  0  0
   -1.2764    7.6751    0.6454 H   0  0  0  0  0  0  0  0  0  0  0  0
   -1.8668    6.6290   -0.6903 H   0  0  0  0  0  0  0  0  0  0  0  0
   -0.1679    7.2127   -0.6903 H   0  0  0  0  0  0  0  0  0  0  0  0
  1  2  1  0
  2  3  1  0
  3  4  1  0
  4  5  1  0
  5  6  1  0
  6  7  1  0
  7  8  1  0
  7  9  1  0
  2 10  1  0
 10 11  1  0
 11 12  1  0
 12 13  1  0
 13 14  1  6
 13 15  1  0
 15 16  1  0
 16 17  1  0
 17 18  2  0
 18 19  1  0
 19 20  1  0
 20 21  1  0
 21 22  1  0
 22 23  1  0
 22 24  1  0
 24 25  1  0
 24 26  1  0
 19 27  1  0
 27 28  1  1
 27 29  1  0
 29 30  1  0
 30 31  1  0
 31 32  1  1
  7  5  1  0
 31 10  1  0
 31 13  1  0
 27 15  1  0
 24 18  1  0
  1 33  1  0
  1 34  1  0
  1 35  1  0
  2 36  1  6
  3 37  1  0
  3 38  1  0
  4 39  1  0
  4 40  1  0
  5 41  1  1
  8 42  1  0
  8 43  1  0
  8 44  1  0
  9 45  1  0
  9 46  1  0
  9 47  1  0
 10 48  1  6
 11 49  1  0
 11 50  1  0
 12 51  1  0
 12 52  1  0
 14 53  1  0
 14 54  1  0
 14 55  1  0
 15 56  1  1
 16 57  1  0
 16 58  1  0
 17 59  1  0
 19 60  1  6
 20 61  1  0
 20 62  1  0
 21 63  1  0
 21 64  1  0
 22 65  1  6
 23 66  1  0
 25 67  1  0
 25 68  1  0
 25 69  1  0
 26 70  1  0
 26 71  1  0
 26 72  1  0
 28 73  1  0
 28 74  1  0
 28 75  1  0
 29 76  1  0
 29 77  1  0
 30 78  1  0
 30 79  1  0
 32 80  1  0
 32 81  1  0
 32 82  1  0
M  END
>  <meeko>  (11) 
{"is_sidechain": [false], "intermolecular_energy": 2.731, "internal_energy": -0.839}

$$$$
EPH_relaxed_0001_pdb2pqr_Repair_389_r2_0001_out
     RDKit          3D

 82 86  0  0  0  0  0  0  0  0999 V2000
   -2.2750    7.8680   -2.1190 C   0  0  0  0  0  0  0  0  0  0  0  0
   -2.1580    8.4600   -0.7120 C   0  0  2  0  0  0  0  0  0  0  0  0
   -3.5030    8.4360    0.0420 C   0  0  0  0  0  0  0  0  0  0  0  0
   -4.7110    8.7550   -0.8440 C   0  0  0  0  0  0  0  0  0  0  0  0
   -5.5440    7.5360   -1.1040 C   0  0  2  0  0  0  0  0  0  0  0  0
   -5.8650    7.3140   -2.4830 O   0  0  0  0  0  0  0  0  0  0  0  0
   -6.9730    7.5930   -1.6120 C   0  0  0  0  0  0  0  0  0  0  0  0
   -7.6520    8.8970   -1.8890 C   0  0  0  0  0  0  0  0  0  0  0  0
   -7.8640    6.4140   -1.3730 C   0  0  0  0  0  0  0  0  0  0  0  0
   -1.6310    9.8880   -0.7910 C   0  0  1  0  0  0  0  0  0  0  0  0
   -1.1700   10.4320    0.5880 C   0  0  0  0  0  0  0  0  0  0  0  0
    0.0480   11.3520    0.3210 C   0  0  0  0  0  0  0  0  0  0  0  0
    0.0440   11.5720   -1.2100 C   0  0  1  0  0  0  0  0  0  0  0  0
   -1.0150   12.6930   -1.4510 C   0  0  0  0  0  0  0  0  0  0  0  0
    1.4200   11.9280   -1.8610 C   0  0  2  0  0  0  0  0  0  0  0  0
    2.0460   13.2490   -1.3830 C   0  0  0  0  0  0  0  0  0  0  0  0
    1.6750   14.4560   -2.1800 C   0  0  0  0  0  0  0  0  0  0  0  0
    1.1040   14.4430   -3.3990 C   0  0  0  0  0  0  0  0  0  0  0  0
    0.8650   13.1230   -4.1420 C   0  0  1  0  0  0  0  0  0  0  0  0
    1.3370   13.2640   -5.6130 C   0  0  0  0  0  0  0  0  0  0  0  0
    0.7000   14.4560   -6.3210 C   0  0  0  0  0  0  0  0  0  0  0  0
    1.0090   15.7570   -5.5840 C   0  0  2  0  0  0  0  0  0  0  0  0
    2.4130   16.0200   -5.6820 O   0  0  0  0  0  0  0  0  0  0  0  0
    0.5860   15.7290   -4.0890 C   0  0  0  0  0  0  0  0  0  0  0  0
   -0.9590   15.7470   -3.9850 C   0  0  0  0  0  0  0  0  0  0  0  0
    1.0810   17.0440   -3.4280 C   0  0  0  0  0  0  0  0  0  0  0  0
    1.4380   11.8180   -3.4400 C   0  0  1  0  0  0  0  0  0  0  0  0
    2.9250   11.6000   -3.8540 C   0  0  0  0  0  0  0  0  0  0  0  0
    0.6430   10.5620   -3.9610 C   0  0  0  0  0  0  0  0  0  0  0  0
   -0.6450   10.1910   -3.2020 C   0  0  0  0  0  0  0  0  0  0  0  0
   -0.3960   10.1410   -1.6910 C   0  0  2  0  0  0  0  0  0  0  0  0
    0.6490    9.0070   -1.4160 C   0  0  0  0  0  0  0  0  0  0  0  0
   -2.4878    6.7912   -2.0472 H   0  0  0  0  0  0  0  0  0  0  0  0
   -3.0917    8.3679   -2.6604 H   0  0  0  0  0  0  0  0  0  0  0  0
   -1.3295    8.0196   -2.6604 H   0  0  0  0  0  0  0  0  0  0  0  0
   -1.4517    7.8336   -0.1474 H   0  0  0  0  0  0  0  0  0  0  0  0
   -3.6425    7.4330    0.4716 H   0  0  0  0  0  0  0  0  0  0  0  0
   -3.4536    9.2193    0.8127 H   0  0  0  0  0  0  0  0  0  0  0  0
   -5.3322    9.5110   -0.3414 H   0  0  0  0  0  0  0  0  0  0  0  0
   -4.3395    9.1293   -1.8093 H   0  0  0  0  0  0  0  0  0  0  0  0
   -5.0831    7.0101   -0.2549 H   0  0  0  0  0  0  0  0  0  0  0  0
   -7.9071    9.3869   -0.9377 H   0  0  0  0  0  0  0  0  0  0  0  0
   -6.9775    9.5462   -2.4665 H   0  0  0  0  0  0  0  0  0  0  0  0
   -8.5707    8.7166   -2.4665 H   0  0  0  0  0  0  0  0  0  0  0  0
   -7.9824    6.2573   -0.2907 H   0  0  0  0  0  0  0  0  0  0  0  0
   -8.8487    6.6007   -1.8264 H   0  0  0  0  0  0  0  0  0  0  0  0
   -7.4156    5.5177   -1.8264 H   0  0  0  0  0  0  0  0  0  0  0  0
   -2.5146   10.3875   -1.2149 H   0  0  0  0  0  0  0  0  0  0  0  0
   -1.9817   11.0054    1.0596 H   0  0  0  0  0  0  0  0  0  0  0  0
   -0.9023    9.6096    1.2677 H   0  0  0  0  0  0  0  0  0  0  0  0
   -0.0651   12.3093    0.8510 H   0  0  0  0  0  0  0  0  0  0  0  0
    0.9904   10.9093    0.6759 H   0  0  0  0  0  0  0  0  0  0  0  0
   -1.3737   13.0727   -0.4830 H   0  0  0  0  0  0  0  0  0  0  0  0
   -0.5559   13.5149   -2.0199 H   0  0  0  0  0  0  0  0  0  0  0  0
   -1.8617   12.2814   -2.0199 H   0  0  0  0  0  0  0  0  0  0  0  0
    2.0748   11.1315   -1.4777 H   0  0  0  0  0  0  0  0  0  0  0  0
    1.7300   13.4181   -0.3430 H   0  0  0  0  0  0  0  0  0  0  0  0
    3.1333   13.1300   -1.4994 H   0  0  0  0  0  0  0  0  0  0  0  0
    1.8861   15.4388   -1.7333 H   0  0  0  0  0  0  0  0  0  0  0  0
   -0.2210   12.9506   -4.1131 H   0  0  0  0  0  0  0  0  0  0  0  0
    2.4296   13.3914   -5.6219 H   0  0  0  0  0  0  0  0  0  0  0  0
    1.0307   12.3543   -6.1502 H   0  0  0  0  0  0  0  0  0  0  0  0
    1.0956   14.5198   -7.3454 H   0  0  0  0  0  0  0  0  0  0  0  0
   -0.3905   14.3126   -6.3382 H   0  0  0  0  0  0  0  0  0  0  0  0
    0.4210   16.5546   -6.0615 H   0  0  0  0  0  0  0  0  0  0  0  0
    2.5240   16.8330   -6.2030 H   0  0  0  0  0  0  0  0  0  0  0  0
   -1.2552   15.7505   -2.9256 H   0  0  0  0  0  0  0  0  0  0  0  0
   -1.3492   16.6498   -4.4778 H   0  0  0  0  0  0  0  0  0  0  0  0
   -1.3701   14.8536   -4.4778 H   0  0  0  0  0  0  0  0  0  0  0  0
    1.0424   16.9413   -2.3335 H   0  0  0  0  0  0  0  0  0  0  0  0
    2.1162   17.2447   -3.7411 H   0  0  0  0  0  0  0  0  0  0  0  0
    0.4351   17.8775   -3.7411 H   0  0  0  0  0  0  0  0  0  0  0  0
    3.5473   11.5088   -2.9515 H   0  0  0  0  0  0  0  0  0  0  0  0
    3.0082   10.6801   -4.4513 H   0  0  0  0  0  0  0  0  0  0  0  0
    3.2688   12.4573   -4.4513 H   0  0  0  0  0  0  0  0  0  0  0  0
    0.3683   10.7533   -5.0088 H   0  0  0  0  0  0  0  0  0  0  0  0
    1.3214    9.7093   -3.8103 H   0  0  0  0  0  0  0  0  0  0  0  0
   -1.4177   10.9445   -3.4146 H   0  0  0  0  0  0  0  0  0  0  0  0
   -0.9749    9.1963   -3.5362 H   0  0  0  0  0  0  0  0  0  0  0  0
    0.7702    8.8754   -0.3306 H   0  0  0  0  0  0  0  0  0  0  0  0
    0.2948    8.0660   -1.8621 H   0  0  0  0  0  0  0  0  0  0  0  0
    1.6158    9.2832   -1.8621 H   0  0  0  0  0  0  0  0  0  0  0  0
  1  2  1  0
  2  3  1  0
  3  4  1  0
  4  5  1  0
  5  6  1  0
  6  7  1  0
  7  8  1  0
  7  9  1  0
  2 10  1  0
 10 11  1  0
 11 12  1  0
 12 13  1  0
 13 14  1  1
 13 15  1  0
 15 16  1  0
 16 17  1  0
 17 18  2  0
 18 19  1  0
 19 20  1  0
 20 21  1  0
 21 22  1  0
 22 23  1  0
 22 24  1  0
 24 25  1  0
 24 26  1  0
 19 27  1  0
 27 28  1  6
 27 29  1  0
 29 30  1  0
 30 31  1  0
 31 32  1  6
  7  5  1  0
 31 10  1  0
 31 13  1  0
 27 15  1  0
 24 18  1  0
  1 33  1  0
  1 34  1  0
  1 35  1  0
  2 36  1  1
  3 37  1  0
  3 38  1  0
  4 39  1  0
  4 40  1  0
  5 41  1  1
  8 42  1  0
  8 43  1  0
  8 44  1  0
  9 45  1  0
  9 46  1  0
  9 47  1  0
 10 48  1  6
 11 49  1  0
 11 50  1  0
 12 51  1  0
 12 52  1  0
 14 53  1  0
 14 54  1  0
 14 55  1  0
 15 56  1  1
 16 57  1  0
 16 58  1  0
 17 59  1  0
 19 60  1  6
 20 61  1  0
 20 62  1  0
 21 63  1  0
 21 64  1  0
 22 65  1  6
 23 66  1  0
 25 67  1  0
 25 68  1  0
 25 69  1  0
 26 70  1  0
 26 71  1  0
 26 72  1  0
 28 73  1  0
 28 74  1  0
 28 75  1  0
 29 76  1  0
 29 77  1  0
 30 78  1  0
 30 79  1  0
 32 80  1  0
 32 81  1  0
 32 82  1  0
M  END
>  <meeko>  (12) 
{"is_sidechain": [false], "intermolecular_energy": 2.731, "internal_energy": -0.839}

$$$$
EPH_relaxed_0001_pdb2pqr_Repair_389_r2_0001_out
     RDKit          3D

 82 86  0  0  0  0  0  0  0  0999 V2000
   -0.2180    9.4200   -2.6130 C   0  0  0  0  0  0  0  0  0  0  0  0
    0.9210   10.3700   -2.9920 C   0  0  2  0  0  0  0  0  0  0  0  0
    2.2850    9.6530   -3.0350 C   0  0  0  0  0  0  0  0  0  0  0  0
    3.2940   10.3060   -3.9840 C   0  0  0  0  0  0  0  0  0  0  0  0
    4.6430   10.4470   -3.3460 C   0  0  2  0  0  0  0  0  0  0  0  0
    5.1820   11.7750   -3.3740 O   0  0  0  0  0  0  0  0  0  0  0  0
    5.9040   10.7820   -4.1210 C   0  0  0  0  0  0  0  0  0  0  0  0
    5.8760   10.9950   -5.6020 C   0  0  0  0  0  0  0  0  0  0  0  0
    7.2280   10.4220   -3.5230 C   0  0  0  0  0  0  0  0  0  0  0  0
    0.9760   11.5340   -2.0090 C   0  0  1  0  0  0  0  0  0  0  0  0
    2.0390   11.3270   -0.8970 C   0  0  0  0  0  0  0  0  0  0  0  0
    2.6250   12.7260   -0.5730 C   0  0  0  0  0  0  0  0  0  0  0  0
    1.6600   13.7210   -1.2580 C   0  0  1  0  0  0  0  0  0  0  0  0
    0.4570   13.8570   -0.2730 C   0  0  0  0  0  0  0  0  0  0  0  0
    2.2590   15.1160   -1.6350 C   0  0  2  0  0  0  0  0  0  0  0  0
    2.7450   15.9600   -0.4440 C   0  0  0  0  0  0  0  0  0  0  0  0
    1.7240   16.8720    0.1500 C   0  0  0  0  0  0  0  0  0  0  0  0
    0.5580   17.2210   -0.4240 C   0  0  0  0  0  0  0  0  0  0  0  0
    0.2110   16.7600   -1.8460 C   0  0  1  0  0  0  0  0  0  0  0  0
   -0.3320   17.9620   -2.6620 C   0  0  0  0  0  0  0  0  0  0  0  0
   -1.5020   18.6570   -1.9730 C   0  0  0  0  0  0  0  0  0  0  0  0
   -1.1020   19.1520   -0.5850 C   0  0  2  0  0  0  0  0  0  0  0  0
   -0.1320   20.1940   -0.7300 O   0  0  0  0  0  0  0  0  0  0  0  0
   -0.5300   18.0290    0.3250 C   0  0  0  0  0  0  0  0  0  0  0  0
   -1.6660   17.0570    0.7280 C   0  0  0  0  0  0  0  0  0  0  0  0
   -0.0350   18.6880    1.6410 C   0  0  0  0  0  0  0  0  0  0  0  0
    1.3530   15.9660   -2.6150 C   0  0  1  0  0  0  0  0  0  0  0  0
    2.3020   16.9690   -3.3400 C   0  0  0  0  0  0  0  0  0  0  0  0
    0.6970   15.0830   -3.7410 C   0  0  0  0  0  0  0  0  0  0  0  0
    0.2340   13.6710   -3.3350 C   0  0  0  0  0  0  0  0  0  0  0  0
    1.3390   12.9280   -2.5780 C   0  0  2  0  0  0  0  0  0  0  0  0
    2.5540   12.7570   -3.5510 C   0  0  0  0  0  0  0  0  0  0  0  0
   -0.2936    9.3569   -1.5174 H   0  0  0  0  0  0  0  0  0  0  0  0
   -1.1647    9.8000   -3.0246 H   0  0  0  0  0  0  0  0  0  0  0  0
   -0.0141    8.4205   -3.0246 H   0  0  0  0  0  0  0  0  0  0  0  0
    0.7139   10.7473   -4.0043 H   0  0  0  0  0  0  0  0  0  0  0  0
    2.7106    9.6551   -2.0207 H   0  0  0  0  0  0  0  0  0  0  0  0
    2.1017    8.6357   -3.4111 H   0  0  0  0  0  0  0  0  0  0  0  0
    3.3894    9.6839   -4.8861 H   0  0  0  0  0  0  0  0  0  0  0  0
    2.9268   11.3117   -4.2363 H   0  0  0  0  0  0  0  0  0  0  0  0
    4.4109    9.6508   -2.6233 H   0  0  0  0  0  0  0  0  0  0  0  0
    5.7354   12.0648   -5.8160 H   0  0  0  0  0  0  0  0  0  0  0  0
    6.8265   10.6554   -6.0393 H   0  0  0  0  0  0  0  0  0  0  0  0
    5.0455   10.4213   -6.0393 H   0  0  0  0  0  0  0  0  0  0  0  0
    7.1525   10.4425   -2.4258 H   0  0  0  0  0  0  0  0  0  0  0  0
    7.5166    9.4128   -3.8519 H   0  0  0  0  0  0  0  0  0  0  0  0
    7.9879   11.1461   -3.8519 H   0  0  0  0  0  0  0  0  0  0  0  0
   -0.0670   11.5302   -1.6597 H   0  0  0  0  0  0  0  0  0  0  0  0
    1.5702   10.8956   -0.0003 H   0  0  0  0  0  0  0  0  0  0  0  0
    2.8276   10.6352   -1.2280 H   0  0  0  0  0  0  0  0  0  0  0  0
    2.6496   12.8946    0.5137 H   0  0  0  0  0  0  0  0  0  0  0  0
    3.6602   12.8372   -0.9281 H   0  0  0  0  0  0  0  0  0  0  0  0
    0.8248   13.8154    0.7629 H   0  0  0  0  0  0  0  0  0  0  0  0
   -0.0499   14.8182   -0.4438 H   0  0  0  0  0  0  0  0  0  0  0  0
   -0.2517   13.0333   -0.4438 H   0  0  0  0  0  0  0  0  0  0  0  0
    3.1648   14.8413   -2.1955 H   0  0  0  0  0  0  0  0  0  0  0  0
    3.0854   15.2719    0.3438 H   0  0  0  0  0  0  0  0  0  0  0  0
    3.5415   16.6094   -0.8362 H   0  0  0  0  0  0  0  0  0  0  0  0
    1.9432   17.2950    1.1415 H   0  0  0  0  0  0  0  0  0  0  0  0
   -0.5752   15.9986   -1.7358 H   0  0  0  0  0  0  0  0  0  0  0  0
    0.4803   18.6911   -2.7984 H   0  0  0  0  0  0  0  0  0  0  0  0
   -0.6948   17.5744   -3.6254 H   0  0  0  0  0  0  0  0  0  0  0  0
   -1.8210   19.5149   -2.5831 H   0  0  0  0  0  0  0  0  0  0  0  0
   -2.3248   17.9350   -1.8647 H   0  0  0  0  0  0  0  0  0  0  0  0
   -2.0127   19.5220   -0.0913 H   0  0  0  0  0  0  0  0  0  0  0  0
   -0.6030   21.0430   -0.6780 H   0  0  0  0  0  0  0  0  0  0  0  0
   -1.7299   17.0023    1.8248 H   0  0  0  0  0  0  0  0  0  0  0  0
   -2.6215   17.4215    0.3228 H   0  0  0  0  0  0  0  0  0  0  0  0
   -1.4536   16.0567    0.3228 H   0  0  0  0  0  0  0  0  0  0  0  0
   -0.4460   18.1408    2.5022 H   0  0  0  0  0  0  0  0  0  0  0  0
    1.0639   18.6556    1.6765 H   0  0  0  0  0  0  0  0  0  0  0  0
   -0.3723   19.7344    1.6765 H   0  0  0  0  0  0  0  0  0  0  0  0
    2.8565   17.5550   -2.5922 H   0  0  0  0  0  0  0  0  0  0  0  0
    3.0118   16.4124   -3.9696 H   0  0  0  0  0  0  0  0  0  0  0  0
    1.7070   17.6470   -3.9696 H   0  0  0  0  0  0  0  0  0  0  0  0
   -0.1819   15.6254   -4.1195 H   0  0  0  0  0  0  0  0  0  0  0  0
    1.4940   14.9226   -4.4819 H   0  0  0  0  0  0  0  0  0  0  0  0
   -0.6516   13.7549   -2.6879 H   0  0  0  0  0  0  0  0  0  0  0  0
   -0.0076   13.1054   -4.2470 H   0  0  0  0  0  0  0  0  0  0  0  0
    3.4766   12.6272   -2.9662 H   0  0  0  0  0  0  0  0  0  0  0  0
    2.3943   11.8725   -4.1851 H   0  0  0  0  0  0  0  0  0  0  0  0
    2.6446   13.6512   -4.1851 H   0  0  0  0  0  0  0  0  0  0  0  0
  1  2  1  0
  2  3  1  0
  3  4  1  0
  4  5  1  0
  5  6  1  0
  6  7  1  0
  7  8  1  0
  7  9  1  0
  2 10  1  0
 10 11  1  0
 11 12  1  0
 12 13  1  0
 13 14  1  1
 13 15  1  0
 15 16  1  0
 16 17  1  0
 17 18  2  0
 18 19  1  0
 19 20  1  0
 20 21  1  0
 21 22  1  0
 22 23  1  0
 22 24  1  0
 24 25  1  0
 24 26  1  0
 19 27  1  0
 27 28  1  6
 27 29  1  0
 29 30  1  0
 30 31  1  0
 31 32  1  6
  7  5  1  0
 31 10  1  0
 31 13  1  0
 27 15  1  0
 24 18  1  0
  1 33  1  0
  1 34  1  0
  1 35  1  0
  2 36  1  6
  3 37  1  0
  3 38  1  0
  4 39  1  0
  4 40  1  0
  5 41  1  1
  8 42  1  0
  8 43  1  0
  8 44  1  0
  9 45  1  0
  9 46  1  0
  9 47  1  0
 10 48  1  1
 11 49  1  0
 11 50  1  0
 12 51  1  0
 12 52  1  0
 14 53  1  0
 14 54  1  0
 14 55  1  0
 15 56  1  6
 16 57  1  0
 16 58  1  0
 17 59  1  0
 19 60  1  1
 20 61  1  0
 20 62  1  0
 21 63  1  0
 21 64  1  0
 22 65  1  1
 23 66  1  0
 25 67  1  0
 25 68  1  0
 25 69  1  0
 26 70  1  0
 26 71  1  0
 26 72  1  0
 28 73  1  0
 28 74  1  0
 28 75  1  0
 29 76  1  0
 29 77  1  0
 30 78  1  0
 30 79  1  0
 32 80  1  0
 32 81  1  0
 32 82  1  0
M  END
>  <meeko>  (13) 
{"is_sidechain": [false], "intermolecular_energy": 2.731, "internal_energy": -0.839}

$$$$
EPH_relaxed_0001_pdb2pqr_Repair_389_r2_0001_out
     RDKit          3D

 82 86  0  0  0  0  0  0  0  0999 V2000
    2.8770   11.3420   -5.2850 C   0  0  0  0  0  0  0  0  0  0  0  0
    1.8490   11.0460   -4.1890 C   0  0  2  0  0  0  0  0  0  0  0  0
    0.7350   10.0990   -4.6780 C   0  0  0  0  0  0  0  0  0  0  0  0
   -0.3490    9.8300   -3.6310 C   0  0  0  0  0  0  0  0  0  0  0  0
    0.1810    9.0360   -2.4760 C   0  0  2  0  0  0  0  0  0  0  0  0
   -0.6710    7.9690   -2.0410 O   0  0  0  0  0  0  0  0  0  0  0  0
   -0.4580    9.0330   -1.1000 C   0  0  0  0  0  0  0  0  0  0  0  0
   -1.6830    9.8400   -0.8060 C   0  0  0  0  0  0  0  0  0  0  0  0
    0.3790    8.6370    0.0770 C   0  0  0  0  0  0  0  0  0  0  0  0
    1.2390   12.3480   -3.6830 C   0  0  1  0  0  0  0  0  0  0  0  0
   -0.2980   12.2560   -3.4970 C   0  0  0  0  0  0  0  0  0  0  0  0
   -0.6540   13.1310   -2.2670 C   0  0  0  0  0  0  0  0  0  0  0  0
    0.6260   13.9540   -1.9910 C   0  0  1  0  0  0  0  0  0  0  0  0
    0.5690   15.1370   -3.0080 C   0  0  0  0  0  0  0  0  0  0  0  0
    0.8190   14.4610   -0.5250 C   0  0  2  0  0  0  0  0  0  0  0  0
   -0.2630   15.4340   -0.0240 C   0  0  0  0  0  0  0  0  0  0  0  0
    0.0200   16.8800   -0.2630 C   0  0  0  0  0  0  0  0  0  0  0  0
    1.2160   17.3990   -0.5970 C   0  0  0  0  0  0  0  0  0  0  0  0
    2.4660   16.5120   -0.6690 C   0  0  1  0  0  0  0  0  0  0  0  0
    3.6400   17.2110    0.0660 C   0  0  0  0  0  0  0  0  0  0  0  0
    3.8960   18.6240   -0.4510 C   0  0  0  0  0  0  0  0  0  0  0  0
    2.6480   19.4910   -0.3090 C   0  0  2  0  0  0  0  0  0  0  0  0
    2.3790   19.6870    1.0830 O   0  0  0  0  0  0  0  0  0  0  0  0
    1.3960   18.8820   -1.0020 C   0  0  0  0  0  0  0  0  0  0  0  0
    1.5690   18.9490   -2.5390 C   0  0  0  0  0  0  0  0  0  0  0  0
    0.1780   19.7830   -0.6630 C   0  0  0  0  0  0  0  0  0  0  0  0
    2.2730   15.0020   -0.2120 C   0  0  1  0  0  0  0  0  0  0  0  0
    2.4700   14.8840    1.3300 C   0  0  0  0  0  0  0  0  0  0  0  0
    3.3950   14.1180   -0.8720 C   0  0  0  0  0  0  0  0  0  0  0  0
    3.0970   13.5470   -2.2720 C   0  0  0  0  0  0  0  0  0  0  0  0
    1.7220   12.8720   -2.3070 C   0  0  2  0  0  0  0  0  0  0  0  0
    1.7570   11.6640   -1.3100 C   0  0  0  0  0  0  0  0  0  0  0  0
    3.8363   11.6182   -4.8230 H   0  0  0  0  0  0  0  0  0  0  0  0
    3.0150   10.4471   -5.9096 H   0  0  0  0  0  0  0  0  0  0  0  0
    2.5180   12.1733   -5.9096 H   0  0  0  0  0  0  0  0  0  0  0  0
    2.3777   10.5388   -3.3685 H   0  0  0  0  0  0  0  0  0  0  0  0
    0.2597   10.5494   -5.5619 H   0  0  0  0  0  0  0  0  0  0  0  0
    1.2107    9.1330   -4.9031 H   0  0  0  0  0  0  0  0  0  0  0  0
   -0.7303   10.7918   -3.2574 H   0  0  0  0  0  0  0  0  0  0  0  0
   -1.1502    9.2472   -4.1089 H   0  0  0  0  0  0  0  0  0  0  0  0
    1.2166    9.1999   -2.8085 H   0  0  0  0  0  0  0  0  0  0  0  0
   -1.8130    9.9257    0.2829 H   0  0  0  0  0  0  0  0  0  0  0  0
   -1.5742   10.8439   -1.2424 H   0  0  0  0  0  0  0  0  0  0  0  0
   -2.5624    9.3438   -1.2424 H   0  0  0  0  0  0  0  0  0  0  0  0
   -0.1529    8.8886    1.0064 H   0  0  0  0  0  0  0  0  0  0  0  0
    0.5682    7.5539    0.0446 H   0  0  0  0  0  0  0  0  0  0  0  0
    1.3364    9.1776    0.0446 H   0  0  0  0  0  0  0  0  0  0  0  0
    1.5690   13.0282   -4.4821 H   0  0  0  0  0  0  0  0  0  0  0  0
   -0.8112   12.6355   -4.3929 H   0  0  0  0  0  0  0  0  0  0  0  0
   -0.6154   11.2138   -3.3450 H   0  0  0  0  0  0  0  0  0  0  0  0
   -1.5011   13.7948   -2.4946 H   0  0  0  0  0  0  0  0  0  0  0  0
   -0.9573   12.5273   -1.3990 H   0  0  0  0  0  0  0  0  0  0  0  0
    0.5231   16.0897   -2.4600 H   0  0  0  0  0  0  0  0  0  0  0  0
    1.4690   15.1207   -3.6403 H   0  0  0  0  0  0  0  0  0  0  0  0
   -0.3252   15.0342   -3.6403 H   0  0  0  0  0  0  0  0  0  0  0  0
    0.6884   13.5402    0.0625 H   0  0  0  0  0  0  0  0  0  0  0  0
   -1.2064   15.1839   -0.5314 H   0  0  0  0  0  0  0  0  0  0  0  0
   -0.3034   15.3082    1.0680 H   0  0  0  0  0  0  0  0  0  0  0  0
   -0.8208   17.5813   -0.1571 H   0  0  0  0  0  0  0  0  0  0  0  0
    2.7033   16.4081   -1.7381 H   0  0  0  0  0  0  0  0  0  0  0  0
    3.4019   17.2657    1.1385 H   0  0  0  0  0  0  0  0  0  0  0  0
    4.5486   16.6187   -0.1174 H   0  0  0  0  0  0  0  0  0  0  0  0
    4.7159   19.0757    0.1267 H   0  0  0  0  0  0  0  0  0  0  0  0
    4.1633   18.5651   -1.5164 H   0  0  0  0  0  0  0  0  0  0  0  0
    2.8517   20.4471   -0.8133 H   0  0  0  0  0  0  0  0  0  0  0  0
    1.4430   19.9340    1.1700 H   0  0  0  0  0  0  0  0  0  0  0  0
    2.5701   19.3367   -2.7787 H   0  0  0  0  0  0  0  0  0  0  0  0
    1.4543   17.9414   -2.9652 H   0  0  0  0  0  0  0  0  0  0  0  0
    0.8056   19.6165   -2.9652 H   0  0  0  0  0  0  0  0  0  0  0  0
    0.0724   19.8611    0.4291 H   0  0  0  0  0  0  0  0  0  0  0  0
    0.3334   20.7852   -1.0890 H   0  0  0  0  0  0  0  0  0  0  0  0
   -0.7348   19.3411   -1.0890 H   0  0  0  0  0  0  0  0  0  0  0  0
    1.6363   15.3833    1.8454 H   0  0  0  0  0  0  0  0  0  0  0  0
    2.4948   13.8222    1.6163 H   0  0  0  0  0  0  0  0  0  0  0  0
    3.4178   15.3632    1.6163 H   0  0  0  0  0  0  0  0  0  0  0  0
    4.3018   14.7357   -0.9508 H   0  0  0  0  0  0  0  0  0  0  0  0
    3.4908   13.2391   -0.2175 H   0  0  0  0  0  0  0  0  0  0  0  0
    3.1147   14.3661   -3.0060 H   0  0  0  0  0  0  0  0  0  0  0  0
    3.8630   12.7959   -2.5151 H   0  0  0  0  0  0  0  0  0  0  0  0
    1.7461   12.0410   -0.2767 H   0  0  0  0  0  0  0  0  0  0  0  0
    0.8770   11.0254   -1.4767 H   0  0  0  0  0  0  0  0  0  0  0  0
    2.6725   11.0774   -1.4767 H   0  0  0  0  0  0  0  0  0  0  0  0
  1  2  1  0
  2  3  1  0
  3  4  1  0
  4  5  1  0
  5  6  1  0
  6  7  1  0
  7  8  1  0
  7  9  1  0
  2 10  1  0
 10 11  1  0
 11 12  1  0
 12 13  1  0
 13 14  1  6
 13 15  1  0
 15 16  1  0
 16 17  1  0
 17 18  2  0
 18 19  1  0
 19 20  1  0
 20 21  1  0
 21 22  1  0
 22 23  1  0
 22 24  1  0
 24 25  1  0
 24 26  1  0
 19 27  1  0
 27 28  1  1
 27 29  1  0
 29 30  1  0
 30 31  1  0
 31 32  1  1
  7  5  1  0
 31 10  1  0
 31 13  1  0
 27 15  1  0
 24 18  1  0
  1 33  1  0
  1 34  1  0
  1 35  1  0
  2 36  1  1
  3 37  1  0
  3 38  1  0
  4 39  1  0
  4 40  1  0
  5 41  1  1
  8 42  1  0
  8 43  1  0
  8 44  1  0
  9 45  1  0
  9 46  1  0
  9 47  1  0
 10 48  1  6
 11 49  1  0
 11 50  1  0
 12 51  1  0
 12 52  1  0
 14 53  1  0
 14 54  1  0
 14 55  1  0
 15 56  1  1
 16 57  1  0
 16 58  1  0
 17 59  1  0
 19 60  1  6
 20 61  1  0
 20 62  1  0
 21 63  1  0
 21 64  1  0
 22 65  1  6
 23 66  1  0
 25 67  1  0
 25 68  1  0
 25 69  1  0
 26 70  1  0
 26 71  1  0
 26 72  1  0
 28 73  1  0
 28 74  1  0
 28 75  1  0
 29 76  1  0
 29 77  1  0
 30 78  1  0
 30 79  1  0
 32 80  1  0
 32 81  1  0
 32 82  1  0
M  END
>  <meeko>  (14) 
{"is_sidechain": [false], "intermolecular_energy": 2.731, "internal_energy": -0.839}

$$$$
EPH_relaxed_0001_pdb2pqr_Repair_389_r2_0001_out
     RDKit          3D

 82 86  0  0  0  0  0  0  0  0999 V2000
  -14.6300    5.5820    0.4150 C   0  0  0  0  0  0  0  0  0  0  0  0
  -14.1340    7.0130    0.1870 C   0  0  2  0  0  0  0  0  0  0  0  0
  -15.2730    7.9630   -0.2320 C   0  0  0  0  0  0  0  0  0  0  0  0
  -14.8920    9.4450   -0.1740 C   0  0  0  0  0  0  0  0  0  0  0  0
  -15.2800   10.1670   -1.4280 C   0  0  2  0  0  0  0  0  0  0  0  0
  -14.3210   10.0820   -2.4900 O   0  0  0  0  0  0  0  0  0  0  0  0
  -14.5510   11.3920   -1.9480 C   0  0  0  0  0  0  0  0  0  0  0  0
  -13.3750   11.9660   -1.2230 C   0  0  0  0  0  0  0  0  0  0  0  0
  -15.2740   12.3120   -2.8820 C   0  0  0  0  0  0  0  0  0  0  0  0
  -13.0350    7.0180   -0.8700 C   0  0  1  0  0  0  0  0  0  0  0  0
  -13.3990    7.8850   -2.1050 C   0  0  0  0  0  0  0  0  0  0  0  0
  -12.0800    8.5310   -2.6020 C   0  0  0  0  0  0  0  0  0  0  0  0
  -10.9640    7.7640   -1.8550 C   0  0  1  0  0  0  0  0  0  0  0  0
  -10.7710    6.4440   -2.6670 C   0  0  0  0  0  0  0  0  0  0  0  0
   -9.6120    8.5250   -1.6620 C   0  0  2  0  0  0  0  0  0  0  0  0
   -8.8820    8.8990   -2.9640 C   0  0  0  0  0  0  0  0  0  0  0  0
   -7.9140    7.8810   -3.4670 C   0  0  0  0  0  0  0  0  0  0  0  0
   -7.4280    6.8460   -2.7570 C   0  0  0  0  0  0  0  0  0  0  0  0
   -7.7770    6.6750   -1.2730 C   0  0  1  0  0  0  0  0  0  0  0  0
   -6.4870    6.3600   -0.4710 C   0  0  0  0  0  0  0  0  0  0  0  0
   -5.7270    5.1630   -1.0320 C   0  0  0  0  0  0  0  0  0  0  0  0
   -5.3470    5.3940   -2.4920 C   0  0  2  0  0  0  0  0  0  0  0  0
   -4.3920    6.4580   -2.5570 O   0  0  0  0  0  0  0  0  0  0  0  0
   -6.5650    5.7300   -3.3970 C   0  0  0  0  0  0  0  0  0  0  0  0
   -7.4490    4.4700   -3.5690 C   0  0  0  0  0  0  0  0  0  0  0  0
   -6.0280    6.0790   -4.8110 C   0  0  0  0  0  0  0  0  0  0  0  0
   -8.6300    7.8480   -0.6230 C   0  0  1  0  0  0  0  0  0  0  0  0
   -7.6810    8.9740   -0.1090 C   0  0  0  0  0  0  0  0  0  0  0  0
   -9.3860    7.2940    0.6420 C   0  0  0  0  0  0  0  0  0  0  0  0
  -10.7700    6.6600    0.4020 C   0  0  0  0  0  0  0  0  0  0  0  0
  -11.6510    7.5760   -0.4530 C   0  0  2  0  0  0  0  0  0  0  0  0
  -11.8800    8.9030    0.3470 C   0  0  0  0  0  0  0  0  0  0  0  0
  -14.6982    5.3853    1.4951 H   0  0  0  0  0  0  0  0  0  0  0  0
  -15.6226    5.4606   -0.0432 H   0  0  0  0  0  0  0  0  0  0  0  0
  -13.9254    4.8723   -0.0432 H   0  0  0  0  0  0  0  0  0  0  0  0
  -13.7333    7.3815    1.1429 H   0  0  0  0  0  0  0  0  0  0  0  0
  -15.5658    7.7200   -1.2641 H   0  0  0  0  0  0  0  0  0  0  0  0
  -16.0949    7.8144    0.4838 H   0  0  0  0  0  0  0  0  0  0  0  0
  -15.4056    9.9118    0.6794 H   0  0  0  0  0  0  0  0  0  0  0  0
  -13.7998    9.5139   -0.0630 H   0  0  0  0  0  0  0  0  0  0  0  0
  -16.3452    9.9658   -1.2416 H   0  0  0  0  0  0  0  0  0  0  0  0
  -13.5384   11.8862   -0.1381 H   0  0  0  0  0  0  0  0  0  0  0  0
  -12.4670   11.4098   -1.4989 H   0  0  0  0  0  0  0  0  0  0  0  0
  -13.2549   13.0240   -1.4989 H   0  0  0  0  0  0  0  0  0  0  0  0
  -15.8508   13.0460   -2.3002 H   0  0  0  0  0  0  0  0  0  0  0  0
  -14.5450   12.8379   -3.5160 H   0  0  0  0  0  0  0  0  0  0  0  0
  -15.9574   11.7280   -3.5160 H   0  0  0  0  0  0  0  0  0  0  0  0
  -12.9619    5.9382   -1.0666 H   0  0  0  0  0  0  0  0  0  0  0  0
  -13.8337    7.2552   -2.8952 H   0  0  0  0  0  0  0  0  0  0  0  0
  -14.1412    8.6535   -1.8433 H   0  0  0  0  0  0  0  0  0  0  0  0
  -11.9737    8.4089   -3.6900 H   0  0  0  0  0  0  0  0  0  0  0  0
  -12.0457    9.6128   -2.4059 H   0  0  0  0  0  0  0  0  0  0  0  0
  -10.6477    5.6005   -1.9718 H   0  0  0  0  0  0  0  0  0  0  0  0
  -11.6534    6.2709   -3.3006 H   0  0  0  0  0  0  0  0  0  0  0  0
   -9.8760    6.5308   -3.3006 H   0  0  0  0  0  0  0  0  0  0  0  0
   -9.9387    9.4772   -1.2187 H   0  0  0  0  0  0  0  0  0  0  0  0
   -9.6403    9.0616   -3.7441 H   0  0  0  0  0  0  0  0  0  0  0  0
   -8.2881    9.7956   -2.7331 H   0  0  0  0  0  0  0  0  0  0  0  0
   -7.5683    7.9852   -4.5061 H   0  0  0  0  0  0  0  0  0  0  0  0
   -8.4675    5.8205   -1.2183 H   0  0  0  0  0  0  0  0  0  0  0  0
   -5.8291    7.2410   -0.5013 H   0  0  0  0  0  0  0  0  0  0  0  0
   -6.7859    6.1129    0.5584 H   0  0  0  0  0  0  0  0  0  0  0  0
   -4.8116    5.0089   -0.4418 H   0  0  0  0  0  0  0  0  0  0  0  0
   -6.3757    4.2765   -0.9740 H   0  0  0  0  0  0  0  0  0  0  0  0
   -4.9221    4.4542   -2.8744 H   0  0  0  0  0  0  0  0  0  0  0  0
   -3.5070    6.0570   -2.6050 H   0  0  0  0  0  0  0  0  0  0  0  0
   -7.7244    4.0774   -2.5790 H   0  0  0  0  0  0  0  0  0  0  0  0
   -8.3605    4.7347   -4.1251 H   0  0  0  0  0  0  0  0  0  0  0  0
   -6.8900    3.7030   -4.1251 H   0  0  0  0  0  0  0  0  0  0  0  0
   -5.1090    6.6762   -4.7171 H   0  0  0  0  0  0  0  0  0  0  0  0
   -5.8078    5.1510   -5.3589 H   0  0  0  0  0  0  0  0  0  0  0  0
   -6.7866    6.6571   -5.3589 H   0  0  0  0  0  0  0  0  0  0  0  0
   -7.6782    8.9774    0.9910 H   0  0  0  0  0  0  0  0  0  0  0  0
   -6.6610    8.7906   -0.4777 H   0  0  0  0  0  0  0  0  0  0  0  0
   -8.0345    9.9482   -0.4777 H   0  0  0  0  0  0  0  0  0  0  0  0
   -8.7450    6.5287    1.1041 H   0  0  0  0  0  0  0  0  0  0  0  0
   -9.5784    8.1755    1.2713 H   0  0  0  0  0  0  0  0  0  0  0  0
  -10.6405    5.6986   -0.1165 H   0  0  0  0  0  0  0  0  0  0  0  0
  -11.2606    6.5093    1.3749 H   0  0  0  0  0  0  0  0  0  0  0  0
  -11.8435    8.6917    1.4259 H   0  0  0  0  0  0  0  0  0  0  0  0
  -11.0936    9.6274    0.0885 H   0  0  0  0  0  0  0  0  0  0  0  0
  -12.8637    9.3219    0.0885 H   0  0  0  0  0  0  0  0  0  0  0  0
  1  2  1  0
  2  3  1  0
  3  4  1  0
  4  5  1  0
  5  6  1  0
  6  7  1  0
  7  8  1  0
  7  9  1  0
  2 10  1  0
 10 11  1  0
 11 12  1  0
 12 13  1  0
 13 14  1  6
 13 15  1  0
 15 16  1  0
 16 17  1  0
 17 18  2  0
 18 19  1  0
 19 20  1  0
 20 21  1  0
 21 22  1  0
 22 23  1  0
 22 24  1  0
 24 25  1  0
 24 26  1  0
 19 27  1  0
 27 28  1  1
 27 29  1  0
 29 30  1  0
 30 31  1  0
 31 32  1  1
  7  5  1  0
 31 10  1  0
 31 13  1  0
 27 15  1  0
 24 18  1  0
  1 33  1  0
  1 34  1  0
  1 35  1  0
  2 36  1  1
  3 37  1  0
  3 38  1  0
  4 39  1  0
  4 40  1  0
  5 41  1  6
  8 42  1  0
  8 43  1  0
  8 44  1  0
  9 45  1  0
  9 46  1  0
  9 47  1  0
 10 48  1  6
 11 49  1  0
 11 50  1  0
 12 51  1  0
 12 52  1  0
 14 53  1  0
 14 54  1  0
 14 55  1  0
 15 56  1  1
 16 57  1  0
 16 58  1  0
 17 59  1  0
 19 60  1  6
 20 61  1  0
 20 62  1  0
 21 63  1  0
 21 64  1  0
 22 65  1  6
 23 66  1  0
 25 67  1  0
 25 68  1  0
 25 69  1  0
 26 70  1  0
 26 71  1  0
 26 72  1  0
 28 73  1  0
 28 74  1  0
 28 75  1  0
 29 76  1  0
 29 77  1  0
 30 78  1  0
 30 79  1  0
 32 80  1  0
 32 81  1  0
 32 82  1  0
M  END
>  <meeko>  (15) 
{"is_sidechain": [false], "intermolecular_energy": 2.731, "internal_energy": -0.839}

$$$$
EPH_relaxed_0001_pdb2pqr_Repair_389_r2_0001_out
     RDKit          3D

 82 86  0  0  0  0  0  0  0  0999 V2000
    0.9590   14.8770   -2.6190 C   0  0  0  0  0  0  0  0  0  0  0  0
    1.2100   14.2070   -3.9730 C   0  0  2  0  0  0  0  0  0  0  0  0
    0.5020   14.9440   -5.1270 C   0  0  0  0  0  0  0  0  0  0  0  0
    1.0670   14.6090   -6.5100 C   0  0  0  0  0  0  0  0  0  0  0  0
    0.8260   15.7160   -7.4900 C   0  0  2  0  0  0  0  0  0  0  0  0
    0.3710   15.2860   -8.7800 O   0  0  0  0  0  0  0  0  0  0  0  0
    1.6590   15.9220   -8.7420 C   0  0  0  0  0  0  0  0  0  0  0  0
    2.7980   15.0120   -9.0790 C   0  0  0  0  0  0  0  0  0  0  0  0
    1.6800   17.2800   -9.3720 C   0  0  0  0  0  0  0  0  0  0  0  0
    0.7550   12.7530   -3.9250 C   0  0  1  0  0  0  0  0  0  0  0  0
    1.8830   11.7600   -4.3140 C   0  0  0  0  0  0  0  0  0  0  0  0
    1.6800   10.4910   -3.4460 C   0  0  0  0  0  0  0  0  0  0  0  0
    0.2680   10.6570   -2.8370 C   0  0  1  0  0  0  0  0  0  0  0  0
   -0.7110   10.1970   -3.9620 C   0  0  0  0  0  0  0  0  0  0  0  0
    0.0020    9.9000   -1.4950 C   0  0  2  0  0  0  0  0  0  0  0  0
    0.1010    8.3670   -1.5800 C   0  0  0  0  0  0  0  0  0  0  0  0
   -1.1740    7.6620   -1.9050 C   0  0  0  0  0  0  0  0  0  0  0  0
   -2.4050    8.2030   -1.8400 C   0  0  0  0  0  0  0  0  0  0  0  0
   -2.6120    9.6290   -1.3120 C   0  0  1  0  0  0  0  0  0  0  0  0
   -3.7910    9.6410   -0.3030 C   0  0  0  0  0  0  0  0  0  0  0  0
   -5.0670    9.0440   -0.8880 C   0  0  0  0  0  0  0  0  0  0  0  0
   -4.8360    7.6070   -1.3480 C   0  0  2  0  0  0  0  0  0  0  0  0
   -4.5790    6.7910   -0.2010 O   0  0  0  0  0  0  0  0  0  0  0  0
   -3.6650    7.4690   -2.3610 C   0  0  0  0  0  0  0  0  0  0  0  0
   -4.0710    8.1000   -3.7150 C   0  0  0  0  0  0  0  0  0  0  0  0
   -3.4470    5.9560   -2.6350 C   0  0  0  0  0  0  0  0  0  0  0  0
   -1.3160   10.3530   -0.7460 C   0  0  1  0  0  0  0  0  0  0  0  0
   -1.1190    9.9920    0.7590 C   0  0  0  0  0  0  0  0  0  0  0  0
   -1.5310   11.9120   -0.8040 C   0  0  0  0  0  0  0  0  0  0  0  0
   -1.1380   12.6190   -2.1150 C   0  0  0  0  0  0  0  0  0  0  0  0
    0.2680   12.2040   -2.5600 C   0  0  2  0  0  0  0  0  0  0  0  0
    1.2770   12.6740   -1.4580 C   0  0  0  0  0  0  0  0  0  0  0  0
    1.2206   14.1787   -1.8103 H   0  0  0  0  0  0  0  0  0  0  0  0
    1.5791   15.7818   -2.5371 H   0  0  0  0  0  0  0  0  0  0  0  0
   -0.1030   15.1517   -2.5371 H   0  0  0  0  0  0  0  0  0  0  0  0
    2.2915   14.2519   -4.1690 H   0  0  0  0  0  0  0  0  0  0  0  0
   -0.5634   14.6708   -5.1117 H   0  0  0  0  0  0  0  0  0  0  0  0
    0.6617   16.0205   -4.9667 H   0  0  0  0  0  0  0  0  0  0  0  0
    2.1505   14.4410   -6.4213 H   0  0  0  0  0  0  0  0  0  0  0  0
    0.5572   13.7070   -6.8794 H   0  0  0  0  0  0  0  0  0  0  0  0
    0.5292   16.3991   -6.6805 H   0  0  0  0  0  0  0  0  0  0  0  0
    3.2596   14.6432   -8.1511 H   0  0  0  0  0  0  0  0  0  0  0  0
    2.4253   14.1602   -9.6668 H   0  0  0  0  0  0  0  0  0  0  0  0
    3.5465   15.5636   -9.6668 H   0  0  0  0  0  0  0  0  0  0  0  0
    1.6919   18.0489   -8.5855 H   0  0  0  0  0  0  0  0  0  0  0  0
    2.5798   17.3805   -9.9967 H   0  0  0  0  0  0  0  0  0  0  0  0
    0.7837   17.4083   -9.9967 H   0  0  0  0  0  0  0  0  0  0  0  0
   -0.0856   12.8003   -4.6329 H   0  0  0  0  0  0  0  0  0  0  0  0
    1.8113   11.5044   -5.3815 H   0  0  0  0  0  0  0  0  0  0  0  0
    2.8754   12.2020   -4.1418 H   0  0  0  0  0  0  0  0  0  0  0  0
    1.7313    9.5840   -4.0662 H   0  0  0  0  0  0  0  0  0  0  0  0
    2.4571   10.3842   -2.6748 H   0  0  0  0  0  0  0  0  0  0  0  0
   -1.6176    9.7710   -3.5075 H   0  0  0  0  0  0  0  0  0  0  0  0
   -0.9846   11.0608   -4.5857 H   0  0  0  0  0  0  0  0  0  0  0  0
   -0.2208    9.4350   -4.5857 H   0  0  0  0  0  0  0  0  0  0  0  0
    0.8499   10.2200   -0.8715 H   0  0  0  0  0  0  0  0  0  0  0  0
    0.8358    8.1167   -2.3593 H   0  0  0  0  0  0  0  0  0  0  0  0
    0.3899    8.0249   -0.5753 H   0  0  0  0  0  0  0  0  0  0  0  0
   -1.1016    6.6119   -2.2245 H   0  0  0  0  0  0  0  0  0  0  0  0
   -2.8644   10.2448   -2.1878 H   0  0  0  0  0  0  0  0  0  0  0  0
   -3.5026    9.0570    0.5835 H   0  0  0  0  0  0  0  0  0  0  0  0
   -4.0002   10.6899   -0.0460 H   0  0  0  0  0  0  0  0  0  0  0  0
   -5.8542    9.0539   -0.1197 H   0  0  0  0  0  0  0  0  0  0  0  0
   -5.3701    9.6464   -1.7571 H   0  0  0  0  0  0  0  0  0  0  0  0
   -5.7451    7.2785   -1.8729 H   0  0  0  0  0  0  0  0  0  0  0  0
   -4.3270    5.9080   -0.5190 H   0  0  0  0  0  0  0  0  0  0  0  0
   -4.6580    9.0123   -3.5330 H   0  0  0  0  0  0  0  0  0  0  0  0
   -3.1664    8.3540   -4.2871 H   0  0  0  0  0  0  0  0  0  0  0  0
   -4.6771    7.3821   -4.2871 H   0  0  0  0  0  0  0  0  0  0  0  0
   -3.3694    5.4177   -1.6789 H   0  0  0  0  0  0  0  0  0  0  0  0
   -4.2975    5.5612   -3.2101 H   0  0  0  0  0  0  0  0  0  0  0  0
   -2.5196    5.8174   -3.2101 H   0  0  0  0  0  0  0  0  0  0  0  0
   -1.5519   10.7853    1.3861 H   0  0  0  0  0  0  0  0  0  0  0  0
   -1.6215    9.0378    0.9760 H   0  0  0  0  0  0  0  0  0  0  0  0
   -0.0447    9.8983    0.9760 H   0  0  0  0  0  0  0  0  0  0  0  0
   -2.5991   12.1074   -0.6278 H   0  0  0  0  0  0  0  0  0  0  0  0
   -0.8548   12.3244   -0.0407 H   0  0  0  0  0  0  0  0  0  0  0  0
   -1.8589   12.3480   -2.9004 H   0  0  0  0  0  0  0  0  0  0  0  0
   -1.1460   13.7056   -1.9442 H   0  0  0  0  0  0  0  0  0  0  0  0
    0.8518   12.4759   -0.4630 H   0  0  0  0  0  0  0  0  0  0  0  0
    2.2231   12.1239   -1.5685 H   0  0  0  0  0  0  0  0  0  0  0  0
    1.4647   13.7522   -1.5685 H   0  0  0  0  0  0  0  0  0  0  0  0
  1  2  1  0
  2  3  1  0
  3  4  1  0
  4  5  1  0
  5  6  1  0
  6  7  1  0
  7  8  1  0
  7  9  1  0
  2 10  1  0
 10 11  1  0
 11 12  1  0
 12 13  1  0
 13 14  1  6
 13 15  1  0
 15 16  1  0
 16 17  1  0
 17 18  2  0
 18 19  1  0
 19 20  1  0
 20 21  1  0
 21 22  1  0
 22 23  1  0
 22 24  1  0
 24 25  1  0
 24 26  1  0
 19 27  1  0
 27 28  1  1
 27 29  1  0
 29 30  1  0
 30 31  1  0
 31 32  1  1
  7  5  1  0
 31 10  1  0
 31 13  1  0
 27 15  1  0
 24 18  1  0
  1 33  1  0
  1 34  1  0
  1 35  1  0
  2 36  1  6
  3 37  1  0
  3 38  1  0
  4 39  1  0
  4 40  1  0
  5 41  1  1
  8 42  1  0
  8 43  1  0
  8 44  1  0
  9 45  1  0
  9 46  1  0
  9 47  1  0
 10 48  1  6
 11 49  1  0
 11 50  1  0
 12 51  1  0
 12 52  1  0
 14 53  1  0
 14 54  1  0
 14 55  1  0
 15 56  1  1
 16 57  1  0
 16 58  1  0
 17 59  1  0
 19 60  1  6
 20 61  1  0
 20 62  1  0
 21 63  1  0
 21 64  1  0
 22 65  1  6
 23 66  1  0
 25 67  1  0
 25 68  1  0
 25 69  1  0
 26 70  1  0
 26 71  1  0
 26 72  1  0
 28 73  1  0
 28 74  1  0
 28 75  1  0
 29 76  1  0
 29 77  1  0
 30 78  1  0
 30 79  1  0
 32 80  1  0
 32 81  1  0
 32 82  1  0
M  END
>  <meeko>  (16) 
{"is_sidechain": [false], "intermolecular_energy": 2.731, "internal_energy": -0.839}

$$$$
EPH_relaxed_0001_pdb2pqr_Repair_389_r2_0001_out
     RDKit          3D

 82 86  0  0  0  0  0  0  0  0999 V2000
   -1.5830    9.4020   -0.1420 C   0  0  0  0  0  0  0  0  0  0  0  0
   -1.2470   10.4070   -1.2470 C   0  0  2  0  0  0  0  0  0  0  0  0
   -0.3110    9.8050   -2.3140 C   0  0  0  0  0  0  0  0  0  0  0  0
    1.1450    9.6830   -1.8580 C   0  0  0  0  0  0  0  0  0  0  0  0
    2.0950    9.7280   -3.0160 C   0  0  2  0  0  0  0  0  0  0  0  0
    3.4190    9.2610   -2.7240 O   0  0  0  0  0  0  0  0  0  0  0  0
    3.3000   10.6490   -3.0760 C   0  0  0  0  0  0  0  0  0  0  0  0
    3.6180   11.5890   -1.9560 C   0  0  0  0  0  0  0  0  0  0  0  0
    3.8790   10.9830   -4.4150 C   0  0  0  0  0  0  0  0  0  0  0  0
   -0.6120   11.6530   -0.6410 C   0  0  1  0  0  0  0  0  0  0  0  0
    0.5540   11.3180    0.3280 C   0  0  0  0  0  0  0  0  0  0  0  0
    1.6050   12.4470    0.1700 C   0  0  0  0  0  0  0  0  0  0  0  0
    0.8720   13.5540   -0.6240 C   0  0  1  0  0  0  0  0  0  0  0  0
    0.0250   14.3180    0.4420 C   0  0  0  0  0  0  0  0  0  0  0  0
    1.7760   14.5260   -1.4490 C   0  0  2  0  0  0  0  0  0  0  0  0
    2.7560   15.3710   -0.6160 C   0  0  0  0  0  0  0  0  0  0  0  0
    2.2320   16.6930   -0.1620 C   0  0  0  0  0  0  0  0  0  0  0  0
    1.1360   17.3070   -0.6440 C   0  0  0  0  0  0  0  0  0  0  0  0
    0.3540   16.7120   -1.8210 C   0  0  1  0  0  0  0  0  0  0  0  0
    0.0450   17.8280   -2.8550 C   0  0  0  0  0  0  0  0  0  0  0  0
   -0.6630   19.0250   -2.2290 C   0  0  0  0  0  0  0  0  0  0  0  0
    0.1730   19.6250   -1.1010 C   0  0  2  0  0  0  0  0  0  0  0  0
    1.3610   20.1930   -1.6600 O   0  0  0  0  0  0  0  0  0  0  0  0
    0.5530   18.5910   -0.0040 C   0  0  0  0  0  0  0  0  0  0  0  0
   -0.7090   18.2010    0.8040 C   0  0  0  0  0  0  0  0  0  0  0  0
    1.5110   19.2900    0.9980 C   0  0  0  0  0  0  0  0  0  0  0  0
    0.9870   15.4180   -2.4910 C   0  0  1  0  0  0  0  0  0  0  0  0
    2.0140   15.8350   -3.5880 C   0  0  0  0  0  0  0  0  0  0  0  0
   -0.1480   14.6130   -3.2290 C   0  0  0  0  0  0  0  0  0  0  0  0
   -0.9260   13.5810   -2.3890 C   0  0  0  0  0  0  0  0  0  0  0  0
    0.0320   12.6700   -1.6160 C   0  0  2  0  0  0  0  0  0  0  0  0
    0.8820   11.8710   -2.6630 C   0  0  0  0  0  0  0  0  0  0  0  0
   -1.4261    9.8712    0.8405 H   0  0  0  0  0  0  0  0  0  0  0  0
   -2.6339    9.0911   -0.2363 H   0  0  0  0  0  0  0  0  0  0  0  0
   -0.9303    8.5216   -0.2363 H   0  0  0  0  0  0  0  0  0  0  0  0
   -2.1890   10.6757   -1.7475 H   0  0  0  0  0  0  0  0  0  0  0  0
   -0.6792    8.8011   -2.5722 H   0  0  0  0  0  0  0  0  0  0  0  0
   -0.3218   10.4905   -3.1742 H   0  0  0  0  0  0  0  0  0  0  0  0
    1.3755   10.5143   -1.1755 H   0  0  0  0  0  0  0  0  0  0  0  0
    1.2658    8.7131   -1.3534 H   0  0  0  0  0  0  0  0  0  0  0  0
    1.2755    9.5380   -3.7248 H   0  0  0  0  0  0  0  0  0  0  0  0
    3.4472   11.0840   -0.9938 H   0  0  0  0  0  0  0  0  0  0  0  0
    4.6711   11.8992   -2.0254 H   0  0  0  0  0  0  0  0  0  0  0  0
    2.9695   12.4748   -2.0254 H   0  0  0  0  0  0  0  0  0  0  0  0
    4.8246   11.5285   -4.2799 H   0  0  0  0  0  0  0  0  0  0  0  0
    4.0678   10.0550   -4.9747 H   0  0  0  0  0  0  0  0  0  0  0  0
    3.1702   11.6110   -4.9747 H   0  0  0  0  0  0  0  0  0  0  0  0
   -1.4982   12.0981   -0.1650 H   0  0  0  0  0  0  0  0  0  0  0  0
    0.1873   11.2841    1.3645 H   0  0  0  0  0  0  0  0  0  0  0  0
    0.9913   10.3358    0.0953 H   0  0  0  0  0  0  0  0  0  0  0  0
    1.9239   12.8212    1.1540 H   0  0  0  0  0  0  0  0  0  0  0  0
    2.5157   12.1007   -0.3406 H   0  0  0  0  0  0  0  0  0  0  0  0
    0.3519   14.0231    1.4501 H   0  0  0  0  0  0  0  0  0  0  0  0
    0.1647   15.4015    0.3135 H   0  0  0  0  0  0  0  0  0  0  0  0
   -1.0384   14.0677    0.3135 H   0  0  0  0  0  0  0  0  0  0  0  0
    2.3994   13.8309   -2.0305 H   0  0  0  0  0  0  0  0  0  0  0  0
    3.0319   14.7901    0.2765 H   0  0  0  0  0  0  0  0  0  0  0  0
    3.6061   15.5919   -1.2783 H   0  0  0  0  0  0  0  0  0  0  0  0
    2.7890   17.2089    0.6340 H   0  0  0  0  0  0  0  0  0  0  0  0
   -0.5846   16.3251   -1.3975 H   0  0  0  0  0  0  0  0  0  0  0  0
    0.9919   18.1704   -3.2980 H   0  0  0  0  0  0  0  0  0  0  0  0
   -0.6268   17.4025   -3.6150 H   0  0  0  0  0  0  0  0  0  0  0  0
   -0.8273   19.7905   -3.0016 H   0  0  0  0  0  0  0  0  0  0  0  0
   -1.6232   18.6865   -1.8125 H   0  0  0  0  0  0  0  0  0  0  0  0
   -0.4403   20.3937   -0.6080 H   0  0  0  0  0  0  0  0  0  0  0  0
    1.1020   20.9860   -2.1580 H   0  0  0  0  0  0  0  0  0  0  0  0
   -0.4908   18.2684    1.8800 H   0  0  0  0  0  0  0  0  0  0  0  0
   -1.5316   18.8869    0.5530 H   0  0  0  0  0  0  0  0  0  0  0  0
   -1.0012   17.1707    0.5530 H   0  0  0  0  0  0  0  0  0  0  0  0
    1.1965   19.0606    2.0268 H   0  0  0  0  0  0  0  0  0  0  0  0
    2.5370   18.9268    0.8386 H   0  0  0  0  0  0  0  0  0  0  0  0
    1.4782   20.3779    0.8386 H   0  0  0  0  0  0  0  0  0  0  0  0
    2.9314   16.2075   -3.1088 H   0  0  0  0  0  0  0  0  0  0  0  0
    2.2554   14.9637   -4.2145 H   0  0  0  0  0  0  0  0  0  0  0  0
    1.5796   16.6280   -4.2145 H   0  0  0  0  0  0  0  0  0  0  0  0
   -0.8746   15.3420   -3.6172 H   0  0  0  0  0  0  0  0  0  0  0  0
    0.3709   14.0245   -4.0000 H   0  0  0  0  0  0  0  0  0  0  0  0
   -1.5725   14.1121   -1.6749 H   0  0  0  0  0  0  0  0  0  0  0  0
   -1.5301   12.9603   -3.0671 H   0  0  0  0  0  0  0  0  0  0  0  0
    1.5856   11.2097   -2.1361 H   0  0  0  0  0  0  0  0  0  0  0  0
    0.2133   11.2669   -3.2938 H   0  0  0  0  0  0  0  0  0  0  0  0
    1.4436   12.5757   -3.2938 H   0  0  0  0  0  0  0  0  0  0  0  0
  1  2  1  0
  2  3  1  0
  3  4  1  0
  4  5  1  0
  5  6  1  0
  6  7  1  0
  7  8  1  0
  7  9  1  0
  2 10  1  0
 10 11  1  0
 11 12  1  0
 12 13  1  0
 13 14  1  1
 13 15  1  0
 15 16  1  0
 16 17  1  0
 17 18  2  0
 18 19  1  0
 19 20  1  0
 20 21  1  0
 21 22  1  0
 22 23  1  0
 22 24  1  0
 24 25  1  0
 24 26  1  0
 19 27  1  0
 27 28  1  6
 27 29  1  0
 29 30  1  0
 30 31  1  0
 31 32  1  6
  7  5  1  0
 31 10  1  0
 31 13  1  0
 27 15  1  0
 24 18  1  0
  1 33  1  0
  1 34  1  0
  1 35  1  0
  2 36  1  6
  3 37  1  0
  3 38  1  0
  4 39  1  0
  4 40  1  0
  5 41  1  6
  8 42  1  0
  8 43  1  0
  8 44  1  0
  9 45  1  0
  9 46  1  0
  9 47  1  0
 10 48  1  1
 11 49  1  0
 11 50  1  0
 12 51  1  0
 12 52  1  0
 14 53  1  0
 14 54  1  0
 14 55  1  0
 15 56  1  6
 16 57  1  0
 16 58  1  0
 17 59  1  0
 19 60  1  1
 20 61  1  0
 20 62  1  0
 21 63  1  0
 21 64  1  0
 22 65  1  1
 23 66  1  0
 25 67  1  0
 25 68  1  0
 25 69  1  0
 26 70  1  0
 26 71  1  0
 26 72  1  0
 28 73  1  0
 28 74  1  0
 28 75  1  0
 29 76  1  0
 29 77  1  0
 30 78  1  0
 30 79  1  0
 32 80  1  0
 32 81  1  0
 32 82  1  0
M  END
>  <meeko>  (17) 
{"is_sidechain": [false], "intermolecular_energy": 2.731, "internal_energy": -0.839}

$$$$
EPH_relaxed_0001_pdb2pqr_Repair_389_r2_0001_out
     RDKit          3D

 82 86  0  0  0  0  0  0  0  0999 V2000
   -2.4150    7.7690   -0.0490 C   0  0  0  0  0  0  0  0  0  0  0  0
   -3.0500    9.1620   -0.0570 C   0  0  2  0  0  0  0  0  0  0  0  0
   -4.5400    9.1190   -0.4500 C   0  0  0  0  0  0  0  0  0  0  0  0
   -5.1200    7.7040   -0.5120 C   0  0  0  0  0  0  0  0  0  0  0  0
   -5.8430    7.4570   -1.8020 C   0  0  2  0  0  0  0  0  0  0  0  0
   -6.8360    8.4370   -2.1290 O   0  0  0  0  0  0  0  0  0  0  0  0
   -7.3170    7.1060   -1.8810 C   0  0  0  0  0  0  0  0  0  0  0  0
   -8.1560    6.9820   -0.6480 C   0  0  0  0  0  0  0  0  0  0  0  0
   -7.8220    6.4100   -3.1060 C   0  0  0  0  0  0  0  0  0  0  0  0
   -2.2860   10.0760   -1.0080 C   0  0  1  0  0  0  0  0  0  0  0  0
   -2.9380   11.4770   -1.1430 C   0  0  0  0  0  0  0  0  0  0  0  0
   -1.7810   12.4940   -1.3170 C   0  0  0  0  0  0  0  0  0  0  0  0
   -0.5360   11.6230   -1.6080 C   0  0  1  0  0  0  0  0  0  0  0  0
   -0.6320   11.2820   -3.1280 C   0  0  0  0  0  0  0  0  0  0  0  0
    0.8480   12.2520   -1.2440 C   0  0  2  0  0  0  0  0  0  0  0  0
    1.2060   13.5330   -2.0170 C   0  0  0  0  0  0  0  0  0  0  0  0
    1.9540   13.3210   -3.2910 C   0  0  0  0  0  0  0  0  0  0  0  0
    2.5710   12.1810   -3.6560 C   0  0  0  0  0  0  0  0  0  0  0  0
    2.6370   10.9820   -2.7020 C   0  0  1  0  0  0  0  0  0  0  0  0
    4.0830   10.4200   -2.6760 C   0  0  0  0  0  0  0  0  0  0  0  0
    4.6070   10.0870   -4.0690 C   0  0  0  0  0  0  0  0  0  0  0  0
    4.5790   11.3190   -4.9710 C   0  0  2  0  0  0  0  0  0  0  0  0
    5.5250   12.2720   -4.4770 O   0  0  0  0  0  0  0  0  0  0  0  0
    3.1750   11.9770   -5.0670 C   0  0  0  0  0  0  0  0  0  0  0  0
    2.2240   11.0580   -5.8740 C   0  0  0  0  0  0  0  0  0  0  0  0
    3.3160   13.2860   -5.8900 C   0  0  0  0  0  0  0  0  0  0  0  0
    2.0490   11.2210   -1.2450 C   0  0  1  0  0  0  0  0  0  0  0  0
    3.1500   11.8190   -0.3180 C   0  0  0  0  0  0  0  0  0  0  0  0
    1.6470    9.8340   -0.6190 C   0  0  0  0  0  0  0  0  0  0  0  0
    0.2240    9.3220   -0.9170 C   0  0  0  0  0  0  0  0  0  0  0  0
   -0.8180   10.4120   -0.6460 C   0  0  2  0  0  0  0  0  0  0  0  0
   -0.7600   10.7600    0.8810 C   0  0  0  0  0  0  0  0  0  0  0  0
   -2.2652    7.4403    0.9900 H   0  0  0  0  0  0  0  0  0  0  0  0
   -3.0790    7.0604   -0.5656 H   0  0  0  0  0  0  0  0  0  0  0  0
   -1.4445    7.8054   -0.5656 H   0  0  0  0  0  0  0  0  0  0  0  0
   -2.9907    9.5585    0.9673 H   0  0  0  0  0  0  0  0  0  0  0  0
   -5.1115    9.6962    0.2918 H   0  0  0  0  0  0  0  0  0  0  0  0
   -4.6175    9.5425   -1.4622 H   0  0  0  0  0  0  0  0  0  0  0  0
   -4.2990    6.9778   -0.4188 H   0  0  0  0  0  0  0  0  0  0  0  0
   -5.8405    7.5924    0.3117 H   0  0  0  0  0  0  0  0  0  0  0  0
   -4.9489    6.9901   -2.2408 H   0  0  0  0  0  0  0  0  0  0  0  0
   -7.5163    7.0765    0.2418 H   0  0  0  0  0  0  0  0  0  0  0  0
   -8.9155    7.7776   -0.6398 H   0  0  0  0  0  0  0  0  0  0  0  0
   -8.6529    6.0007   -0.6398 H   0  0  0  0  0  0  0  0  0  0  0  0
   -8.4442    5.5525   -2.8103 H   0  0  0  0  0  0  0  0  0  0  0  0
   -8.4234    7.1105   -3.7040 H   0  0  0  0  0  0  0  0  0  0  0  0
   -6.9695    6.0556   -3.7040 H   0  0  0  0  0  0  0  0  0  0  0  0
   -2.3170    9.4605   -1.9192 H   0  0  0  0  0  0  0  0  0  0  0  0
   -3.6007   11.5034   -2.0206 H   0  0  0  0  0  0  0  0  0  0  0  0
   -3.5450   11.7171   -0.2576 H   0  0  0  0  0  0  0  0  0  0  0  0
   -1.9845   13.1736   -2.1577 H   0  0  0  0  0  0  0  0  0  0  0  0
   -1.6472   13.1294   -0.4291 H   0  0  0  0  0  0  0  0  0  0  0  0
   -0.9283   10.2297   -3.2497 H   0  0  0  0  0  0  0  0  0  0  0  0
   -1.3822   11.9314   -3.6028 H   0  0  0  0  0  0  0  0  0  0  0  0
    0.3468   11.4446   -3.6028 H   0  0  0  0  0  0  0  0  0  0  0  0
    0.6975   12.5655   -0.2004 H   0  0  0  0  0  0  0  0  0  0  0  0
    0.2697   14.0586   -2.2560 H   0  0  0  0  0  0  0  0  0  0  0  0
    1.8781   14.1062   -1.3614 H   0  0  0  0  0  0  0  0  0  0  0  0
    2.0057   14.1678   -3.9912 H   0  0  0  0  0  0  0  0  0  0  0  0
    1.9504   10.2279   -3.1141 H   0  0  0  0  0  0  0  0  0  0  0  0
    4.7450   11.1713   -2.2207 H   0  0  0  0  0  0  0  0  0  0  0  0
    4.0678    9.4870   -2.0935 H   0  0  0  0  0  0  0  0  0  0  0  0
    5.6422    9.7241   -3.9871 H   0  0  0  0  0  0  0  0  0  0  0  0
    3.9623    9.3131   -4.5112 H   0  0  0  0  0  0  0  0  0  0  0  0
    4.8398   10.9900   -5.9877 H   0  0  0  0  0  0  0  0  0  0  0  0
    5.1740   12.6300   -3.6440 H   0  0  0  0  0  0  0  0  0  0  0  0
    1.6105   10.4651   -5.1797 H   0  0  0  0  0  0  0  0  0  0  0  0
    1.5690   11.6741   -6.5076 H   0  0  0  0  0  0  0  0  0  0  0  0
    2.8173   10.3823   -6.5076 H   0  0  0  0  0  0  0  0  0  0  0  0
    3.4082   14.1417   -5.2049 H   0  0  0  0  0  0  0  0  0  0  0  0
    4.2128   13.2257   -6.5241 H   0  0  0  0  0  0  0  0  0  0  0  0
    2.4269   13.4180   -6.5241 H   0  0  0  0  0  0  0  0  0  0  0  0
    2.8670   11.6653    0.7338 H   0  0  0  0  0  0  0  0  0  0  0  0
    4.1087   11.3176   -0.5168 H   0  0  0  0  0  0  0  0  0  0  0  0
    3.2514   12.8961   -0.5168 H   0  0  0  0  0  0  0  0  0  0  0  0
    2.3565    9.0817   -0.9941 H   0  0  0  0  0  0  0  0  0  0  0  0
    1.6736    9.9914    0.4693 H   0  0  0  0  0  0  0  0  0  0  0  0
    0.1636    9.0209   -1.9733 H   0  0  0  0  0  0  0  0  0  0  0  0
    0.0145    8.4649   -0.2601 H   0  0  0  0  0  0  0  0  0  0  0  0
   -0.9126    9.8447    1.4717 H   0  0  0  0  0  0  0  0  0  0  0  0
    0.2226   11.1921    1.1215 H   0  0  0  0  0  0  0  0  0  0  0  0
   -1.5493   11.4874    1.1215 H   0  0  0  0  0  0  0  0  0  0  0  0
  1  2  1  0
  2  3  1  0
  3  4  1  0
  4  5  1  0
  5  6  1  0
  6  7  1  0
  7  8  1  0
  7  9  1  0
  2 10  1  0
 10 11  1  0
 11 12  1  0
 12 13  1  0
 13 14  1  6
 13 15  1  0
 15 16  1  0
 16 17  1  0
 17 18  2  0
 18 19  1  0
 19 20  1  0
 20 21  1  0
 21 22  1  0
 22 23  1  0
 22 24  1  0
 24 25  1  0
 24 26  1  0
 19 27  1  0
 27 28  1  1
 27 29  1  0
 29 30  1  0
 30 31  1  0
 31 32  1  1
  7  5  1  0
 31 10  1  0
 31 13  1  0
 27 15  1  0
 24 18  1  0
  1 33  1  0
  1 34  1  0
  1 35  1  0
  2 36  1  1
  3 37  1  0
  3 38  1  0
  4 39  1  0
  4 40  1  0
  5 41  1  6
  8 42  1  0
  8 43  1  0
  8 44  1  0
  9 45  1  0
  9 46  1  0
  9 47  1  0
 10 48  1  6
 11 49  1  0
 11 50  1  0
 12 51  1  0
 12 52  1  0
 14 53  1  0
 14 54  1  0
 14 55  1  0
 15 56  1  1
 16 57  1  0
 16 58  1  0
 17 59  1  0
 19 60  1  6
 20 61  1  0
 20 62  1  0
 21 63  1  0
 21 64  1  0
 22 65  1  6
 23 66  1  0
 25 67  1  0
 25 68  1  0
 25 69  1  0
 26 70  1  0
 26 71  1  0
 26 72  1  0
 28 73  1  0
 28 74  1  0
 28 75  1  0
 29 76  1  0
 29 77  1  0
 30 78  1  0
 30 79  1  0
 32 80  1  0
 32 81  1  0
 32 82  1  0
M  END
>  <meeko>  (18) 
{"is_sidechain": [false], "intermolecular_energy": 2.731, "internal_energy": -0.839}

$$$$
EPH_relaxed_0001_pdb2pqr_Repair_389_r2_0001_out
     RDKit          3D

 82 86  0  0  0  0  0  0  0  0999 V2000
    1.9560   19.5630   -1.8750 C   0  0  0  0  0  0  0  0  0  0  0  0
    0.9580   19.4510   -0.7200 C   0  0  2  0  0  0  0  0  0  0  0  0
    1.4430   20.1950    0.5410 C   0  0  0  0  0  0  0  0  0  0  0  0
    2.8990   19.8950    0.9100 C   0  0  0  0  0  0  0  0  0  0  0  0
    3.1100   18.4380    1.1930 C   0  0  2  0  0  0  0  0  0  0  0  0
    4.4390   18.0950    1.6090 O   0  0  0  0  0  0  0  0  0  0  0  0
    4.0050   17.5440    0.3540 C   0  0  0  0  0  0  0  0  0  0  0  0
    4.7460   18.0750   -0.8320 C   0  0  0  0  0  0  0  0  0  0  0  0
    3.7770   16.0650    0.3920 C   0  0  0  0  0  0  0  0  0  0  0  0
    0.7020   17.9850   -0.3940 C   0  0  1  0  0  0  0  0  0  0  0  0
   -0.6230   17.7670    0.3840 C   0  0  0  0  0  0  0  0  0  0  0  0
   -1.2070   16.4140   -0.0960 C   0  0  0  0  0  0  0  0  0  0  0  0
   -0.0500   15.7450   -0.8750 C   0  0  1  0  0  0  0  0  0  0  0  0
    0.8570   15.1070    0.2230 C   0  0  0  0  0  0  0  0  0  0  0  0
   -0.4630   14.6990   -1.9620 C   0  0  2  0  0  0  0  0  0  0  0  0
   -1.2050   13.4610   -1.4270 C   0  0  0  0  0  0  0  0  0  0  0  0
   -0.3330   12.3090   -1.0510 C   0  0  0  0  0  0  0  0  0  0  0  0
    0.9580   12.1580   -1.4010 C   0  0  0  0  0  0  0  0  0  0  0  0
    1.6430   13.1610   -2.3380 C   0  0  1  0  0  0  0  0  0  0  0  0
    2.4370   12.3940   -3.4280 C   0  0  0  0  0  0  0  0  0  0  0  0
    3.4170   11.3860   -2.8360 C   0  0  0  0  0  0  0  0  0  0  0  0
    2.6910   10.3700   -1.9580 C   0  0  2  0  0  0  0  0  0  0  0  0
    1.8430    9.5680   -2.7860 O   0  0  0  0  0  0  0  0  0  0  0  0
    1.8480   11.0270   -0.8290 C   0  0  0  0  0  0  0  0  0  0  0  0
    2.7920   11.6420    0.2330 C   0  0  0  0  0  0  0  0  0  0  0  0
    1.0570    9.9030   -0.1080 C   0  0  0  0  0  0  0  0  0  0  0  0
    0.7060   14.2920   -2.9470 C   0  0  1  0  0  0  0  0  0  0  0  0
    0.0280   13.7740   -4.2530 C   0  0  0  0  0  0  0  0  0  0  0  0
    1.5920   15.5240   -3.3650 C   0  0  0  0  0  0  0  0  0  0  0  0
    1.8660   16.5830   -2.2800 C   0  0  0  0  0  0  0  0  0  0  0  0
    0.5670   17.0040   -1.5860 C   0  0  2  0  0  0  0  0  0  0  0  0
   -0.3570   17.6690   -2.6620 C   0  0  0  0  0  0  0  0  0  0  0  0
    2.9728   19.6771   -1.4712 H   0  0  0  0  0  0  0  0  0  0  0  0
    1.9064   18.6536   -2.4919 H   0  0  0  0  0  0  0  0  0  0  0  0
    1.7061   20.4387   -2.4919 H   0  0  0  0  0  0  0  0  0  0  0  0
    0.0215   19.9280   -1.0448 H   0  0  0  0  0  0  0  0  0  0  0  0
    1.3448   21.2765    0.3657 H   0  0  0  0  0  0  0  0  0  0  0  0
    0.8205   19.8479    1.3789 H   0  0  0  0  0  0  0  0  0  0  0  0
    3.5476   20.1933    0.0731 H   0  0  0  0  0  0  0  0  0  0  0  0
    3.1456   20.4606    1.8206 H   0  0  0  0  0  0  0  0  0  0  0  0
    2.0700   18.3293    1.5343 H   0  0  0  0  0  0  0  0  0  0  0  0
    5.5960   18.6841   -0.4907 H   0  0  0  0  0  0  0  0  0  0  0  0
    5.1166   17.2356   -1.4387 H   0  0  0  0  0  0  0  0  0  0  0  0
    4.0703   18.6957   -1.4387 H   0  0  0  0  0  0  0  0  0  0  0  0
    3.7252   15.7288    1.4381 H   0  0  0  0  0  0  0  0  0  0  0  0
    2.8315   15.8266   -0.1171 H   0  0  0  0  0  0  0  0  0  0  0  0
    4.6068   15.5529   -0.1171 H   0  0  0  0  0  0  0  0  0  0  0  0
    1.6160   17.7618    0.1759 H   0  0  0  0  0  0  0  0  0  0  0  0
   -0.4256   17.7318    1.4656 H   0  0  0  0  0  0  0  0  0  0  0  0
   -1.3293   18.5896    0.1987 H   0  0  0  0  0  0  0  0  0  0  0  0
   -1.5072   15.7943    0.7618 H   0  0  0  0  0  0  0  0  0  0  0  0
   -2.1070   16.5438   -0.7151 H   0  0  0  0  0  0  0  0  0  0  0  0
    0.4733   15.3769    1.2179 H   0  0  0  0  0  0  0  0  0  0  0  0
    0.8518   14.0126    0.1125 H   0  0  0  0  0  0  0  0  0  0  0  0
    1.8853   15.4818    0.1125 H   0  0  0  0  0  0  0  0  0  0  0  0
   -1.2016   15.2558   -2.5573 H   0  0  0  0  0  0  0  0  0  0  0  0
   -1.7721   13.7638   -0.5344 H   0  0  0  0  0  0  0  0  0  0  0  0
   -1.8398   13.1060   -2.2522 H   0  0  0  0  0  0  0  0  0  0  0  0
   -0.7837   11.5163   -0.4357 H   0  0  0  0  0  0  0  0  0  0  0  0
    2.3365   13.7392   -1.7097 H   0  0  0  0  0  0  0  0  0  0  0  0
    1.7244   11.8572   -4.0715 H   0  0  0  0  0  0  0  0  0  0  0  0
    3.0202   13.1320   -3.9983 H   0  0  0  0  0  0  0  0  0  0  0  0
    3.9263   10.8558   -3.6543 H   0  0  0  0  0  0  0  0  0  0  0  0
    4.1464   11.9280   -2.2161 H   0  0  0  0  0  0  0  0  0  0  0  0
    3.4571    9.7567   -1.4611 H   0  0  0  0  0  0  0  0  0  0  0  0
    2.1760    9.6310   -3.6970 H   0  0  0  0  0  0  0  0  0  0  0  0
    2.4195   11.3993    1.2392 H   0  0  0  0  0  0  0  0  0  0  0  0
    3.8038   11.2293    0.1072 H   0  0  0  0  0  0  0  0  0  0  0  0
    2.8233   12.7343    0.1072 H   0  0  0  0  0  0  0  0  0  0  0  0
    1.1474   10.0315    0.9807 H   0  0  0  0  0  0  0  0  0  0  0  0
   -0.0030    9.9574   -0.3969 H   0  0  0  0  0  0  0  0  0  0  0  0
    1.4660    8.9236   -0.3969 H   0  0  0  0  0  0  0  0  0  0  0  0
   -0.8213   13.1252   -3.9927 H   0  0  0  0  0  0  0  0  0  0  0  0
   -0.3317   14.6295   -4.8436 H   0  0  0  0  0  0  0  0  0  0  0  0
    0.7589   13.2021   -4.8436 H   0  0  0  0  0  0  0  0  0  0  0  0
    2.5638   15.1354   -3.7035 H   0  0  0  0  0  0  0  0  0  0  0  0
    1.0102   16.0477   -4.1378 H   0  0  0  0  0  0  0  0  0  0  0  0
    2.5539   16.1623   -1.5318 H   0  0  0  0  0  0  0  0  0  0  0  0
    2.3118   17.4680   -2.7576 H   0  0  0  0  0  0  0  0  0  0  0  0
   -1.1515   18.2408   -2.1602 H   0  0  0  0  0  0  0  0  0  0  0  0
    0.2405   18.3456   -3.2907 H   0  0  0  0  0  0  0  0  0  0  0  0
   -0.8088   16.8876   -3.2907 H   0  0  0  0  0  0  0  0  0  0  0  0
  1  2  1  0
  2  3  1  0
  3  4  1  0
  4  5  1  0
  5  6  1  0
  6  7  1  0
  7  8  1  0
  7  9  1  0
  2 10  1  0
 10 11  1  0
 11 12  1  0
 12 13  1  0
 13 14  1  1
 13 15  1  0
 15 16  1  0
 16 17  1  0
 17 18  2  0
 18 19  1  0
 19 20  1  0
 20 21  1  0
 21 22  1  0
 22 23  1  0
 22 24  1  0
 24 25  1  0
 24 26  1  0
 19 27  1  0
 27 28  1  6
 27 29  1  0
 29 30  1  0
 30 31  1  0
 31 32  1  6
  7  5  1  0
 31 10  1  0
 31 13  1  0
 27 15  1  0
 24 18  1  0
  1 33  1  0
  1 34  1  0
  1 35  1  0
  2 36  1  6
  3 37  1  0
  3 38  1  0
  4 39  1  0
  4 40  1  0
  5 41  1  1
  8 42  1  0
  8 43  1  0
  8 44  1  0
  9 45  1  0
  9 46  1  0
  9 47  1  0
 10 48  1  1
 11 49  1  0
 11 50  1  0
 12 51  1  0
 12 52  1  0
 14 53  1  0
 14 54  1  0
 14 55  1  0
 15 56  1  6
 16 57  1  0
 16 58  1  0
 17 59  1  0
 19 60  1  1
 20 61  1  0
 20 62  1  0
 21 63  1  0
 21 64  1  0
 22 65  1  1
 23 66  1  0
 25 67  1  0
 25 68  1  0
 25 69  1  0
 26 70  1  0
 26 71  1  0
 26 72  1  0
 28 73  1  0
 28 74  1  0
 28 75  1  0
 29 76  1  0
 29 77  1  0
 30 78  1  0
 30 79  1  0
 32 80  1  0
 32 81  1  0
 32 82  1  0
M  END
>  <meeko>  (19) 
{"is_sidechain": [false], "intermolecular_energy": 2.731, "internal_energy": -0.839}

$$$$
