EPH_relaxed_0001_pdb2pqr_Repair_80_r2_0001_out
     RDKit          3D

 82 86  0  0  0  0  0  0  0  0999 V2000
   -1.4550    8.5300   -1.7650 C   0  0  0  0  0  0  0  0  0  0  0  0
   -1.8550    9.1100   -0.4050 C   0  0  2  0  0  0  0  0  0  0  0  0
   -3.3490    9.4900   -0.3530 C   0  0  0  0  0  0  0  0  0  0  0  0
   -4.2900    8.2820   -0.3240 C   0  0  0  0  0  0  0  0  0  0  0  0
   -4.8820    8.0090   -1.6730 C   0  0  2  0  0  0  0  0  0  0  0  0
   -6.3040    7.8240   -1.6760 O   0  0  0  0  0  0  0  0  0  0  0  0
   -5.5160    6.6840   -2.0560 C   0  0  0  0  0  0  0  0  0  0  0  0
   -5.5870    5.5450   -1.0880 C   0  0  0  0  0  0  0  0  0  0  0  0
   -5.6210    6.3340   -3.5070 C   0  0  0  0  0  0  0  0  0  0  0  0
   -0.9970   10.3290   -0.0870 C   0  0  1  0  0  0  0  0  0  0  0  0
    0.1050   10.0260    0.9630 C   0  0  0  0  0  0  0  0  0  0  0  0
    1.3390   10.8810    0.5760 C   0  0  0  0  0  0  0  0  0  0  0  0
    0.8050   11.8850   -0.4720 C   0  0  1  0  0  0  0  0  0  0  0  0
    0.1270   13.0150    0.3650 C   0  0  0  0  0  0  0  0  0  0  0  0
    1.8560   12.4620   -1.4750 C   0  0  2  0  0  0  0  0  0  0  0  0
    2.9850   13.2870   -0.8350 C   0  0  0  0  0  0  0  0  0  0  0  0
    2.7150   14.7510   -0.7130 C   0  0  0  0  0  0  0  0  0  0  0  0
    1.7400   15.4220   -1.3530 C   0  0  0  0  0  0  0  0  0  0  0  0
    0.8440   14.7190   -2.3810 C   0  0  1  0  0  0  0  0  0  0  0  0
    0.7250   15.6000   -3.6520 C   0  0  0  0  0  0  0  0  0  0  0  0
    0.2540   17.0170   -3.3400 C   0  0  0  0  0  0  0  0  0  0  0  0
    1.2020   17.7040   -2.3600 C   0  0  2  0  0  0  0  0  0  0  0  0
    2.4640   17.9040   -3.0030 O   0  0  0  0  0  0  0  0  0  0  0  0
    1.4080   16.9020   -1.0440 C   0  0  0  0  0  0  0  0  0  0  0  0
    0.1090   16.9430   -0.2010 C   0  0  0  0  0  0  0  0  0  0  0  0
    2.4920   17.6320   -0.2050 C   0  0  0  0  0  0  0  0  0  0  0  0
    1.2240   13.2130   -2.7160 C   0  0  1  0  0  0  0  0  0  0  0  0
    2.2910   13.1730   -3.8520 C   0  0  0  0  0  0  0  0  0  0  0  0
   -0.0490   12.4750   -3.2770 C   0  0  0  0  0  0  0  0  0  0  0  0
   -0.9860   11.8230   -2.2430 C   0  0  0  0  0  0  0  0  0  0  0  0
   -0.1960   10.9590   -1.2540 C   0  0  2  0  0  0  0  0  0  0  0  0
    0.4790    9.8010   -2.0640 C   0  0  0  0  0  0  0  0  0  0  0  0
   -0.8364    7.6331   -1.6135 H   0  0  0  0  0  0  0  0  0  0  0  0
   -2.3600    8.2603   -2.3291 H   0  0  0  0  0  0  0  0  0  0  0  0
   -0.8813    9.2801   -2.3291 H   0  0  0  0  0  0  0  0  0  0  0  0
   -1.6858    8.3287    0.3507 H   0  0  0  0  0  0  0  0  0  0  0  0
   -3.5239   10.0885    0.5532 H   0  0  0  0  0  0  0  0  0  0  0  0
   -3.5711   10.0490   -1.2740 H   0  0  0  0  0  0  0  0  0  0  0  0
   -3.7243    7.3971    0.0029 H   0  0  0  0  0  0  0  0  0  0  0  0
   -5.1117    8.5037    0.3729 H   0  0  0  0  0  0  0  0  0  0  0  0
   -4.1154    8.6286   -2.1613 H   0  0  0  0  0  0  0  0  0  0  0  0
   -5.5627    5.9355   -0.0599 H   0  0  0  0  0  0  0  0  0  0  0  0
   -6.5217    4.9870   -1.2463 H   0  0  0  0  0  0  0  0  0  0  0  0
   -4.7289    4.8753   -1.2463 H   0  0  0  0  0  0  0  0  0  0  0  0
   -5.9357    5.2850   -3.6093 H   0  0  0  0  0  0  0  0  0  0  0  0
   -6.3625    6.9880   -3.9892 H   0  0  0  0  0  0  0  0  0  0  0  0
   -4.6420    6.4718   -3.9892 H   0  0  0  0  0  0  0  0  0  0  0  0
   -1.7808   11.0234    0.2497 H   0  0  0  0  0  0  0  0  0  0  0  0
   -0.2450   10.2998    1.9692 H   0  0  0  0  0  0  0  0  0  0  0  0
    0.3549    8.9548    0.9753 H   0  0  0  0  0  0  0  0  0  0  0  0
    1.7353   11.4109    1.4547 H   0  0  0  0  0  0  0  0  0  0  0  0
    2.1644   10.2686    0.1841 H   0  0  0  0  0  0  0  0  0  0  0  0
    0.2538   12.8036    1.4370 H   0  0  0  0  0  0  0  0  0  0  0  0
    0.5949   13.9809    0.1239 H   0  0  0  0  0  0  0  0  0  0  0  0
   -0.9454   13.0567    0.1239 H   0  0  0  0  0  0  0  0  0  0  0  0
    2.3351   11.5510   -1.8631 H   0  0  0  0  0  0  0  0  0  0  0  0
    3.1662   12.8895    0.1745 H   0  0  0  0  0  0  0  0  0  0  0  0
    3.8502   13.1921   -1.5076 H   0  0  0  0  0  0  0  0  0  0  0  0
    3.3684   15.3295   -0.0434 H   0  0  0  0  0  0  0  0  0  0  0  0
   -0.1423   14.6154   -1.9050 H   0  0  0  0  0  0  0  0  0  0  0  0
    1.7110   15.6549   -4.1365 H   0  0  0  0  0  0  0  0  0  0  0  0
   -0.0245   15.1365   -4.3103 H   0  0  0  0  0  0  0  0  0  0  0  0
    0.2180   17.5981   -4.2733 H   0  0  0  0  0  0  0  0  0  0  0  0
   -0.7447   16.9621   -2.8822 H   0  0  0  0  0  0  0  0  0  0  0  0
    0.7447   18.6631   -2.0755 H   0  0  0  0  0  0  0  0  0  0  0  0
    3.1420   17.4620   -2.4650 H   0  0  0  0  0  0  0  0  0  0  0  0
    0.3656   16.9349    0.8686 H   0  0  0  0  0  0  0  0  0  0  0  0
   -0.4522   17.8593   -0.4365 H   0  0  0  0  0  0  0  0  0  0  0  0
   -0.5088   16.0639   -0.4365 H   0  0  0  0  0  0  0  0  0  0  0  0
    2.2832   17.4914    0.8658 H   0  0  0  0  0  0  0  0  0  0  0  0
    3.4820   17.2159   -0.4433 H   0  0  0  0  0  0  0  0  0  0  0  0
    2.4786   18.7058   -0.4433 H   0  0  0  0  0  0  0  0  0  0  0  0
    3.2971   13.1353   -3.4089 H   0  0  0  0  0  0  0  0  0  0  0  0
    2.1307   12.2802   -4.4743 H   0  0  0  0  0  0  0  0  0  0  0  0
    2.1980   14.0753   -4.4743 H   0  0  0  0  0  0  0  0  0  0  0  0
   -0.6386   13.2117   -3.8423 H   0  0  0  0  0  0  0  0  0  0  0  0
    0.3432   11.6403   -3.8766 H   0  0  0  0  0  0  0  0  0  0  0  0
   -1.5147   12.6123   -1.6886 H   0  0  0  0  0  0  0  0  0  0  0  0
   -1.7024   11.1802   -2.7755 H   0  0  0  0  0  0  0  0  0  0  0  0
    0.9072    9.0665   -1.3660 H   0  0  0  0  0  0  0  0  0  0  0  0
   -0.2740    9.3093   -2.6974 H   0  0  0  0  0  0  0  0  0  0  0  0
    1.2779   10.2139   -2.6974 H   0  0  0  0  0  0  0  0  0  0  0  0
  1  2  1  0
  2  3  1  0
  3  4  1  0
  4  5  1  0
  5  6  1  0
  6  7  1  0
  7  8  1  0
  7  9  1  0
  2 10  1  0
 10 11  1  0
 11 12  1  0
 12 13  1  0
 13 14  1  1
 13 15  1  0
 15 16  1  0
 16 17  1  0
 17 18  2  0
 18 19  1  0
 19 20  1  0
 20 21  1  0
 21 22  1  0
 22 23  1  0
 22 24  1  0
 24 25  1  0
 24 26  1  0
 19 27  1  0
 27 28  1  6
 27 29  1  0
 29 30  1  0
 30 31  1  0
 31 32  1  6
  7  5  1  0
 31 10  1  0
 31 13  1  0
 27 15  1  0
 24 18  1  0
  1 33  1  0
  1 34  1  0
  1 35  1  0
  2 36  1  1
  3 37  1  0
  3 38  1  0
  4 39  1  0
  4 40  1  0
  5 41  1  6
  8 42  1  0
  8 43  1  0
  8 44  1  0
  9 45  1  0
  9 46  1  0
  9 47  1  0
 10 48  1  1
 11 49  1  0
 11 50  1  0
 12 51  1  0
 12 52  1  0
 14 53  1  0
 14 54  1  0
 14 55  1  0
 15 56  1  6
 16 57  1  0
 16 58  1  0
 17 59  1  0
 19 60  1  1
 20 61  1  0
 20 62  1  0
 21 63  1  0
 21 64  1  0
 22 65  1  1
 23 66  1  0
 25 67  1  0
 25 68  1  0
 25 69  1  0
 26 70  1  0
 26 71  1  0
 26 72  1  0
 28 73  1  0
 28 74  1  0
 28 75  1  0
 29 76  1  0
 29 77  1  0
 30 78  1  0
 30 79  1  0
 32 80  1  0
 32 81  1  0
 32 82  1  0
M  END
>  <meeko>  (1) 
{"is_sidechain": [false], "intermolecular_energy": 2.731, "internal_energy": -0.839}

$$$$
EPH_relaxed_0001_pdb2pqr_Repair_80_r2_0001_out
     RDKit          3D

 82 86  0  0  0  0  0  0  0  0999 V2000
    4.2190   17.5750   -0.5690 C   0  0  0  0  0  0  0  0  0  0  0  0
    2.8550   18.1440   -0.1670 C   0  0  2  0  0  0  0  0  0  0  0  0
    2.8980   18.8370    1.2090 C   0  0  0  0  0  0  0  0  0  0  0  0
    4.2250   18.6510    1.9510 C   0  0  0  0  0  0  0  0  0  0  0  0
    4.1570   19.1840    3.3510 C   0  0  2  0  0  0  0  0  0  0  0  0
    5.1270   20.1940    3.6540 O   0  0  0  0  0  0  0  0  0  0  0  0
    5.2460   18.9620    4.3840 C   0  0  0  0  0  0  0  0  0  0  0  0
    6.4800   18.1810    4.0610 C   0  0  0  0  0  0  0  0  0  0  0  0
    4.8920   19.0840    5.8330 C   0  0  0  0  0  0  0  0  0  0  0  0
    1.8110   17.0330   -0.1580 C   0  0  1  0  0  0  0  0  0  0  0  0
    0.3810   17.5560   -0.4570 C   0  0  0  0  0  0  0  0  0  0  0  0
   -0.3410   16.4470   -1.2650 C   0  0  0  0  0  0  0  0  0  0  0  0
    0.5680   15.2040   -1.1200 C   0  0  1  0  0  0  0  0  0  0  0  0
    0.2040   14.6020    0.2730 C   0  0  0  0  0  0  0  0  0  0  0  0
    0.4640   14.1360   -2.2560 C   0  0  2  0  0  0  0  0  0  0  0  0
   -0.9150   13.4680   -2.4000 C   0  0  0  0  0  0  0  0  0  0  0  0
   -1.1080   12.2250   -1.5980 C   0  0  0  0  0  0  0  0  0  0  0  0
   -0.1280   11.5080   -1.0170 C   0  0  0  0  0  0  0  0  0  0  0  0
    1.3460   11.8780   -1.2240 C   0  0  1  0  0  0  0  0  0  0  0  0
    2.1600   10.6000   -1.5550 C   0  0  0  0  0  0  0  0  0  0  0  0
    1.9750    9.5020   -0.5120 C   0  0  0  0  0  0  0  0  0  0  0  0
    0.5030    9.1200   -0.3780 C   0  0  2  0  0  0  0  0  0  0  0  0
    0.0740    8.5020   -1.5950 O   0  0  0  0  0  0  0  0  0  0  0  0
   -0.4170   10.3300   -0.0540 C   0  0  0  0  0  0  0  0  0  0  0  0
   -0.1530   10.8110    1.3940 C   0  0  0  0  0  0  0  0  0  0  0  0
   -1.8880    9.8340   -0.0850 C   0  0  0  0  0  0  0  0  0  0  0  0
    1.6270   13.0630   -2.2460 C   0  0  1  0  0  0  0  0  0  0  0  0
    1.7280   12.5010   -3.6970 C   0  0  0  0  0  0  0  0  0  0  0  0
    3.0280   13.7020   -1.9190 C   0  0  0  0  0  0  0  0  0  0  0  0
    3.0480   14.8350   -0.8750 C   0  0  0  0  0  0  0  0  0  0  0  0
    1.9820   15.8890   -1.1880 C   0  0  2  0  0  0  0  0  0  0  0  0
    2.3340   16.5280   -2.5740 C   0  0  0  0  0  0  0  0  0  0  0  0
    4.7968   17.3340    0.3355 H   0  0  0  0  0  0  0  0  0  0  0  0
    4.0741   16.6623   -1.1656 H   0  0  0  0  0  0  0  0  0  0  0  0
    4.7657   18.3201   -1.1656 H   0  0  0  0  0  0  0  0  0  0  0  0
    2.5814   18.9057   -0.9119 H   0  0  0  0  0  0  0  0  0  0  0  0
    2.7311   19.9141    1.0607 H   0  0  0  0  0  0  0  0  0  0  0  0
    2.1160   18.3723    1.8275 H   0  0  0  0  0  0  0  0  0  0  0  0
    4.4647   17.5781    1.9893 H   0  0  0  0  0  0  0  0  0  0  0  0
    5.0023   19.2095    1.4088 H   0  0  0  0  0  0  0  0  0  0  0  0
    3.0682   19.0304    3.3822 H   0  0  0  0  0  0  0  0  0  0  0  0
    6.9718   17.8698    4.9944 H   0  0  0  0  0  0  0  0  0  0  0  0
    6.2076   17.2905    3.4755 H   0  0  0  0  0  0  0  0  0  0  0  0
    7.1682   18.8083    3.4755 H   0  0  0  0  0  0  0  0  0  0  0  0
    5.7546   18.7867    6.4475 H   0  0  0  0  0  0  0  0  0  0  0  0
    4.6233   20.1266    6.0583 H   0  0  0  0  0  0  0  0  0  0  0  0
    4.0380   18.4283    6.0583 H   0  0  0  0  0  0  0  0  0  0  0  0
    1.9601   16.6469    0.8612 H   0  0  0  0  0  0  0  0  0  0  0  0
   -0.1558   17.7499    0.4834 H   0  0  0  0  0  0  0  0  0  0  0  0
    0.4155   18.4984   -1.0233 H   0  0  0  0  0  0  0  0  0  0  0  0
   -1.3390   16.2492   -0.8468 H   0  0  0  0  0  0  0  0  0  0  0  0
   -0.4954   16.7305   -2.3166 H   0  0  0  0  0  0  0  0  0  0  0  0
    0.5975   15.2527    1.0678 H   0  0  0  0  0  0  0  0  0  0  0  0
   -0.8896   14.5292    0.3665 H   0  0  0  0  0  0  0  0  0  0  0  0
    0.6475   13.5997    0.3665 H   0  0  0  0  0  0  0  0  0  0  0  0
    0.5980   14.7438   -3.1630 H   0  0  0  0  0  0  0  0  0  0  0  0
   -1.6792   14.1954   -2.0887 H   0  0  0  0  0  0  0  0  0  0  0  0
   -0.9980   13.1657   -3.4544 H   0  0  0  0  0  0  0  0  0  0  0  0
   -2.1391   11.8635   -1.4705 H   0  0  0  0  0  0  0  0  0  0  0  0
    1.6896   12.3017   -0.2688 H   0  0  0  0  0  0  0  0  0  0  0  0
    1.8323   10.2166   -2.5326 H   0  0  0  0  0  0  0  0  0  0  0  0
    3.2249   10.8755   -1.5644 H   0  0  0  0  0  0  0  0  0  0  0  0
    2.5508    8.6155   -0.8163 H   0  0  0  0  0  0  0  0  0  0  0  0
    2.3306    9.8765    0.4592 H   0  0  0  0  0  0  0  0  0  0  0  0
    0.4188    8.4257    0.4711 H   0  0  0  0  0  0  0  0  0  0  0  0
    0.2400    9.1300   -2.3180 H   0  0  0  0  0  0  0  0  0  0  0  0
   -0.5571   10.0747    2.1044 H   0  0  0  0  0  0  0  0  0  0  0  0
    0.9302   10.9178    1.5531 H   0  0  0  0  0  0  0  0  0  0  0  0
   -0.6445   11.7821    1.5531 H   0  0  0  0  0  0  0  0  0  0  0  0
   -2.2550    9.7103    0.9446 H   0  0  0  0  0  0  0  0  0  0  0  0
   -2.5125   10.5712   -0.6108 H   0  0  0  0  0  0  0  0  0  0  0  0
   -1.9386    8.8691   -0.6108 H   0  0  0  0  0  0  0  0  0  0  0  0
    1.9225   11.4190   -3.6584 H   0  0  0  0  0  0  0  0  0  0  0  0
    0.7824   12.6849   -4.2281 H   0  0  0  0  0  0  0  0  0  0  0  0
    2.5504   13.0026   -4.2281 H   0  0  0  0  0  0  0  0  0  0  0  0
    3.6825   12.8983   -1.5505 H   0  0  0  0  0  0  0  0  0  0  0  0
    3.3572   14.1703   -2.8584 H   0  0  0  0  0  0  0  0  0  0  0  0
    2.8523   14.4102    0.1206 H   0  0  0  0  0  0  0  0  0  0  0  0
    4.0361   15.3177   -0.9008 H   0  0  0  0  0  0  0  0  0  0  0  0
    2.8592   17.4814   -2.4154 H   0  0  0  0  0  0  0  0  0  0  0  0
    2.9817   15.8423   -3.1400 H   0  0  0  0  0  0  0  0  0  0  0  0
    1.4083   16.7090   -3.1400 H   0  0  0  0  0  0  0  0  0  0  0  0
  1  2  1  0
  2  3  1  0
  3  4  1  0
  4  5  1  0
  5  6  1  0
  6  7  1  0
  7  8  1  0
  7  9  1  0
  2 10  1  0
 10 11  1  0
 11 12  1  0
 12 13  1  0
 13 14  1  1
 13 15  1  0
 15 16  1  0
 16 17  1  0
 17 18  2  0
 18 19  1  0
 19 20  1  0
 20 21  1  0
 21 22  1  0
 22 23  1  0
 22 24  1  0
 24 25  1  0
 24 26  1  0
 19 27  1  0
 27 28  1  6
 27 29  1  0
 29 30  1  0
 30 31  1  0
 31 32  1  6
  7  5  1  0
 31 10  1  0
 31 13  1  0
 27 15  1  0
 24 18  1  0
  1 33  1  0
  1 34  1  0
  1 35  1  0
  2 36  1  6
  3 37  1  0
  3 38  1  0
  4 39  1  0
  4 40  1  0
  5 41  1  1
  8 42  1  0
  8 43  1  0
  8 44  1  0
  9 45  1  0
  9 46  1  0
  9 47  1  0
 10 48  1  1
 11 49  1  0
 11 50  1  0
 12 51  1  0
 12 52  1  0
 14 53  1  0
 14 54  1  0
 14 55  1  0
 15 56  1  6
 16 57  1  0
 16 58  1  0
 17 59  1  0
 19 60  1  1
 20 61  1  0
 20 62  1  0
 21 63  1  0
 21 64  1  0
 22 65  1  1
 23 66  1  0
 25 67  1  0
 25 68  1  0
 25 69  1  0
 26 70  1  0
 26 71  1  0
 26 72  1  0
 28 73  1  0
 28 74  1  0
 28 75  1  0
 29 76  1  0
 29 77  1  0
 30 78  1  0
 30 79  1  0
 32 80  1  0
 32 81  1  0
 32 82  1  0
M  END
>  <meeko>  (2) 
{"is_sidechain": [false], "intermolecular_energy": 2.731, "internal_energy": -0.839}

$$$$
EPH_relaxed_0001_pdb2pqr_Repair_80_r2_0001_out
     RDKit          3D

 82 86  0  0  0  0  0  0  0  0999 V2000
    2.3680   18.0280   -2.6850 C   0  0  0  0  0  0  0  0  0  0  0  0
    1.0560   17.6700   -1.9810 C   0  0  2  0  0  0  0  0  0  0  0  0
    1.1830   17.7390   -0.4460 C   0  0  0  0  0  0  0  0  0  0  0  0
    0.8030   19.1010    0.1420 C   0  0  0  0  0  0  0  0  0  0  0  0
   -0.6610   19.1830    0.4500 C   0  0  2  0  0  0  0  0  0  0  0  0
   -1.4840   18.2860   -0.3080 O   0  0  0  0  0  0  0  0  0  0  0  0
   -1.6970   19.6890   -0.5380 C   0  0  0  0  0  0  0  0  0  0  0  0
   -1.3090   20.1470   -1.9090 C   0  0  0  0  0  0  0  0  0  0  0  0
   -3.0030   20.1940   -0.0090 C   0  0  0  0  0  0  0  0  0  0  0  0
    0.6020   16.2780   -2.4050 C   0  0  1  0  0  0  0  0  0  0  0  0
    0.6700   16.0690   -3.9410 C   0  0  0  0  0  0  0  0  0  0  0  0
    1.0680   14.5890   -4.1740 C   0  0  0  0  0  0  0  0  0  0  0  0
    0.8930   13.9160   -2.7920 C   0  0  1  0  0  0  0  0  0  0  0  0
   -0.6350   13.6180   -2.6820 C   0  0  0  0  0  0  0  0  0  0  0  0
    1.7510   12.6340   -2.5350 C   0  0  2  0  0  0  0  0  0  0  0  0
    1.4530   11.4510   -3.4710 C   0  0  0  0  0  0  0  0  0  0  0  0
    0.4040   10.5040   -2.9900 C   0  0  0  0  0  0  0  0  0  0  0  0
   -0.0700   10.4360   -1.7320 C   0  0  0  0  0  0  0  0  0  0  0  0
    0.5270   11.3060   -0.6170 C   0  0  1  0  0  0  0  0  0  0  0  0
    0.7790   10.4340    0.6410 C   0  0  0  0  0  0  0  0  0  0  0  0
   -0.4700    9.6830    1.0920 C   0  0  0  0  0  0  0  0  0  0  0  0
   -0.9990    8.7850   -0.0230 C   0  0  2  0  0  0  0  0  0  0  0  0
   -0.0500    7.7420   -0.2660 O   0  0  0  0  0  0  0  0  0  0  0  0
   -1.2810    9.5520   -1.3450 C   0  0  0  0  0  0  0  0  0  0  0  0
   -2.5140   10.4710   -1.1610 C   0  0  0  0  0  0  0  0  0  0  0  0
   -1.6740    8.5110   -2.4270 C   0  0  0  0  0  0  0  0  0  0  0  0
    1.7930   12.1770   -1.0200 C   0  0  1  0  0  0  0  0  0  0  0  0
    3.0950   11.3360   -0.8460 C   0  0  0  0  0  0  0  0  0  0  0  0
    1.9160   13.3950   -0.0300 C   0  0  0  0  0  0  0  0  0  0  0  0
    1.1400   14.6730   -0.4020 C   0  0  0  0  0  0  0  0  0  0  0  0
    1.4050   15.0710   -1.8570 C   0  0  2  0  0  0  0  0  0  0  0  0
    2.9310   15.3980   -1.9940 C   0  0  0  0  0  0  0  0  0  0  0  0
    3.1421   18.2392   -1.9326 H   0  0  0  0  0  0  0  0  0  0  0  0
    2.6886   17.1845   -3.3141 H   0  0  0  0  0  0  0  0  0  0  0  0
    2.2157   18.9174   -3.3141 H   0  0  0  0  0  0  0  0  0  0  0  0
    0.3042   18.4140   -2.2831 H   0  0  0  0  0  0  0  0  0  0  0  0
    0.5233   16.9754   -0.0082 H   0  0  0  0  0  0  0  0  0  0  0  0
    2.2420   17.5678   -0.2028 H   0  0  0  0  0  0  0  0  0  0  0  0
    1.3719   19.2599    1.0700 H   0  0  0  0  0  0  0  0  0  0  0  0
    1.0403   19.8744   -0.6034 H   0  0  0  0  0  0  0  0  0  0  0  0
   -0.4500   19.4454    1.4972 H   0  0  0  0  0  0  0  0  0  0  0  0
   -0.5999   20.9841   -1.8289 H   0  0  0  0  0  0  0  0  0  0  0  0
   -0.8357   19.3162   -2.4529 H   0  0  0  0  0  0  0  0  0  0  0  0
   -2.2063   20.4773   -2.4529 H   0  0  0  0  0  0  0  0  0  0  0  0
   -2.9811   20.1855    1.0907 H   0  0  0  0  0  0  0  0  0  0  0  0
   -3.1699   21.2215   -0.3645 H   0  0  0  0  0  0  0  0  0  0  0  0
   -3.8178   19.5461   -0.3645 H   0  0  0  0  0  0  0  0  0  0  0  0
   -0.4134   16.2784   -1.9820 H   0  0  0  0  0  0  0  0  0  0  0  0
   -0.3109   16.2734   -4.3949 H   0  0  0  0  0  0  0  0  0  0  0  0
    1.4003   16.7513   -4.4004 H   0  0  0  0  0  0  0  0  0  0  0  0
    0.4078   14.1221   -4.9198 H   0  0  0  0  0  0  0  0  0  0  0  0
    2.0930   14.4884   -4.5604 H   0  0  0  0  0  0  0  0  0  0  0  0
   -0.9222   13.5620   -1.6216 H   0  0  0  0  0  0  0  0  0  0  0  0
   -1.2018   14.4225   -3.1734 H   0  0  0  0  0  0  0  0  0  0  0  0
   -0.8579   12.6595   -3.1734 H   0  0  0  0  0  0  0  0  0  0  0  0
    2.7650   12.9715   -2.7956 H   0  0  0  0  0  0  0  0  0  0  0  0
    1.1251   11.8580   -4.4389 H   0  0  0  0  0  0  0  0  0  0  0  0
    2.3841   10.8683   -3.5299 H   0  0  0  0  0  0  0  0  0  0  0  0
   -0.0170    9.8028   -3.7255 H   0  0  0  0  0  0  0  0  0  0  0  0
   -0.2278   12.0742   -0.3933 H   0  0  0  0  0  0  0  0  0  0  0  0
    1.5668    9.7017    0.4104 H   0  0  0  0  0  0  0  0  0  0  0  0
    1.0779   11.1062    1.4588 H   0  0  0  0  0  0  0  0  0  0  0  0
   -0.2214    9.0631    1.9660 H   0  0  0  0  0  0  0  0  0  0  0  0
   -1.2473   10.4174    1.3498 H   0  0  0  0  0  0  0  0  0  0  0  0
   -1.9623    8.3746    0.3141 H   0  0  0  0  0  0  0  0  0  0  0  0
   -0.2200    7.3900   -1.1560 H   0  0  0  0  0  0  0  0  0  0  0  0
   -2.7071   10.6149   -0.0877 H   0  0  0  0  0  0  0  0  0  0  0  0
   -2.3186   11.4455   -1.6323 H   0  0  0  0  0  0  0  0  0  0  0  0
   -3.3920   10.0053   -1.6323 H   0  0  0  0  0  0  0  0  0  0  0  0
   -2.0222    7.5887   -1.9391 H   0  0  0  0  0  0  0  0  0  0  0  0
   -2.4794    8.9205   -3.0544 H   0  0  0  0  0  0  0  0  0  0  0  0
   -0.7989    8.2861   -3.0544 H   0  0  0  0  0  0  0  0  0  0  0  0
    3.3039   11.2011    0.2255 H   0  0  0  0  0  0  0  0  0  0  0  0
    2.9624   10.3525   -1.3204 H   0  0  0  0  0  0  0  0  0  0  0  0
    3.9370   11.8614   -1.3204 H   0  0  0  0  0  0  0  0  0  0  0  0
    1.5558   13.0615    0.9544 H   0  0  0  0  0  0  0  0  0  0  0  0
    2.9771   13.6836   -0.0588 H   0  0  0  0  0  0  0  0  0  0  0  0
    0.0632   14.4918   -0.2689 H   0  0  0  0  0  0  0  0  0  0  0  0
    1.4765   15.4907    0.2523 H   0  0  0  0  0  0  0  0  0  0  0  0
    3.3768   15.4935   -0.9929 H   0  0  0  0  0  0  0  0  0  0  0  0
    3.4320   14.5868   -2.5426 H   0  0  0  0  0  0  0  0  0  0  0  0
    3.0556   16.3432   -2.5426 H   0  0  0  0  0  0  0  0  0  0  0  0
  1  2  1  0
  2  3  1  0
  3  4  1  0
  4  5  1  0
  5  6  1  0
  6  7  1  0
  7  8  1  0
  7  9  1  0
  2 10  1  0
 10 11  1  0
 11 12  1  0
 12 13  1  0
 13 14  1  1
 13 15  1  0
 15 16  1  0
 16 17  1  0
 17 18  2  0
 18 19  1  0
 19 20  1  0
 20 21  1  0
 21 22  1  0
 22 23  1  0
 22 24  1  0
 24 25  1  0
 24 26  1  0
 19 27  1  0
 27 28  1  6
 27 29  1  0
 29 30  1  0
 30 31  1  0
 31 32  1  1
  7  5  1  0
 31 10  1  0
 31 13  1  0
 27 15  1  0
 24 18  1  0
  1 33  1  0
  1 34  1  0
  1 35  1  0
  2 36  1  6
  3 37  1  0
  3 38  1  0
  4 39  1  0
  4 40  1  0
  5 41  1  1
  8 42  1  0
  8 43  1  0
  8 44  1  0
  9 45  1  0
  9 46  1  0
  9 47  1  0
 10 48  1  1
 11 49  1  0
 11 50  1  0
 12 51  1  0
 12 52  1  0
 14 53  1  0
 14 54  1  0
 14 55  1  0
 15 56  1  6
 16 57  1  0
 16 58  1  0
 17 59  1  0
 19 60  1  1
 20 61  1  0
 20 62  1  0
 21 63  1  0
 21 64  1  0
 22 65  1  1
 23 66  1  0
 25 67  1  0
 25 68  1  0
 25 69  1  0
 26 70  1  0
 26 71  1  0
 26 72  1  0
 28 73  1  0
 28 74  1  0
 28 75  1  0
 29 76  1  0
 29 77  1  0
 30 78  1  0
 30 79  1  0
 32 80  1  0
 32 81  1  0
 32 82  1  0
M  END
>  <meeko>  (3) 
{"is_sidechain": [false], "intermolecular_energy": 2.731, "internal_energy": -0.839}

$$$$
EPH_relaxed_0001_pdb2pqr_Repair_80_r2_0001_out
     RDKit          3D

 82 86  0  0  0  0  0  0  0  0999 V2000
    0.4080   18.4340   -0.0850 C   0  0  0  0  0  0  0  0  0  0  0  0
    1.4890   17.3650   -0.2700 C   0  0  2  0  0  0  0  0  0  0  0  0
    2.7210   17.9090   -1.0200 C   0  0  0  0  0  0  0  0  0  0  0  0
    3.9510   18.0960   -0.1290 C   0  0  0  0  0  0  0  0  0  0  0  0
    3.5760   18.5760    1.2400 C   0  0  2  0  0  0  0  0  0  0  0  0
    3.7990   19.9740    1.4660 O   0  0  0  0  0  0  0  0  0  0  0  0
    4.5860   19.0710    2.2590 C   0  0  0  0  0  0  0  0  0  0  0  0
    6.0500   19.1100    1.9510 C   0  0  0  0  0  0  0  0  0  0  0  0
    4.2080   19.0540    3.7070 C   0  0  0  0  0  0  0  0  0  0  0  0
    0.9130   16.1660   -1.0140 C   0  0  1  0  0  0  0  0  0  0  0  0
    0.7800   16.4170   -2.5390 C   0  0  0  0  0  0  0  0  0  0  0  0
    1.0670   15.0660   -3.2420 C   0  0  0  0  0  0  0  0  0  0  0  0
    1.0270   14.0180   -2.1040 C   0  0  1  0  0  0  0  0  0  0  0  0
   -0.4900   13.7250   -1.8830 C   0  0  0  0  0  0  0  0  0  0  0  0
    1.8400   12.7050   -2.3450 C   0  0  2  0  0  0  0  0  0  0  0  0
    1.3670   11.8540   -3.5370 C   0  0  0  0  0  0  0  0  0  0  0  0
    0.3360   10.8240   -3.2150 C   0  0  0  0  0  0  0  0  0  0  0  0
    0.0160   10.3960   -1.9790 C   0  0  0  0  0  0  0  0  0  0  0  0
    0.7910   10.8900   -0.7500 C   0  0  1  0  0  0  0  0  0  0  0  0
    1.1480    9.6820    0.1560 C   0  0  0  0  0  0  0  0  0  0  0  0
   -0.0740    8.8500    0.5320 C   0  0  0  0  0  0  0  0  0  0  0  0
   -0.7830    8.3290   -0.7150 C   0  0  2  0  0  0  0  0  0  0  0  0
    0.0720    7.3890   -1.3730 O   0  0  0  0  0  0  0  0  0  0  0  0
   -1.1840    9.4560   -1.7080 C   0  0  0  0  0  0  0  0  0  0  0  0
   -2.3340   10.2980   -1.1040 C   0  0  0  0  0  0  0  0  0  0  0  0
   -1.7620    8.7850   -2.9840 C   0  0  0  0  0  0  0  0  0  0  0  0
    2.0430   11.8210   -1.0480 C   0  0  1  0  0  0  0  0  0  0  0  0
    3.3090   10.9460   -1.3000 C   0  0  0  0  0  0  0  0  0  0  0  0
    2.3510   12.6920    0.2270 C   0  0  0  0  0  0  0  0  0  0  0  0
    1.6050   14.0350    0.3480 C   0  0  0  0  0  0  0  0  0  0  0  0
    1.7100   14.8390   -0.9510 C   0  0  2  0  0  0  0  0  0  0  0  0
    3.2240   15.1690   -1.1890 C   0  0  0  0  0  0  0  0  0  0  0  0
    0.2383   18.6018    0.9888 H   0  0  0  0  0  0  0  0  0  0  0  0
    0.7362   19.3726   -0.5555 H   0  0  0  0  0  0  0  0  0  0  0  0
   -0.5269   18.0954   -0.5555 H   0  0  0  0  0  0  0  0  0  0  0  0
    1.8227   17.0552    0.7313 H   0  0  0  0  0  0  0  0  0  0  0  0
    2.9782   17.2029   -1.8232 H   0  0  0  0  0  0  0  0  0  0  0  0
    2.4495   18.9028   -1.4056 H   0  0  0  0  0  0  0  0  0  0  0  0
    4.4750   17.1331   -0.0380 H   0  0  0  0  0  0  0  0  0  0  0  0
    4.5983   18.8548   -0.5930 H   0  0  0  0  0  0  0  0  0  0  0  0
    2.7661   17.8344    1.3040 H   0  0  0  0  0  0  0  0  0  0  0  0
    6.6221   19.1252    2.8904 H   0  0  0  0  0  0  0  0  0  0  0  0
    6.3259   18.2189    1.3681 H   0  0  0  0  0  0  0  0  0  0  0  0
    6.2781   20.0145    1.3681 H   0  0  0  0  0  0  0  0  0  0  0  0
    5.1178   19.0949    4.3240 H   0  0  0  0  0  0  0  0  0  0  0  0
    3.5739   19.9245    3.9307 H   0  0  0  0  0  0  0  0  0  0  0  0
    3.6545   18.1301    3.9307 H   0  0  0  0  0  0  0  0  0  0  0  0
   -0.0408   16.0573   -0.4769 H   0  0  0  0  0  0  0  0  0  0  0  0
   -0.2372   16.7602   -2.7790 H   0  0  0  0  0  0  0  0  0  0  0  0
    1.4835   17.1935   -2.8740 H   0  0  0  0  0  0  0  0  0  0  0  0
    0.2965   14.8495   -3.9967 H   0  0  0  0  0  0  0  0  0  0  0  0
    2.0301   15.0684   -3.7734 H   0  0  0  0  0  0  0  0  0  0  0  0
   -0.7022   13.6840   -0.8044 H   0  0  0  0  0  0  0  0  0  0  0  0
   -1.0888   14.5241   -2.3444 H   0  0  0  0  0  0  0  0  0  0  0  0
   -0.7482   12.7604   -2.3444 H   0  0  0  0  0  0  0  0  0  0  0  0
    2.8311   13.0897   -2.6274 H   0  0  0  0  0  0  0  0  0  0  0  0
    0.9452   12.5326   -4.2930 H   0  0  0  0  0  0  0  0  0  0  0  0
    2.2514   11.3009   -3.8863 H   0  0  0  0  0  0  0  0  0  0  0  0
   -0.2089   10.3764   -4.0592 H   0  0  0  0  0  0  0  0  0  0  0  0
    0.1121   11.5703   -0.2149 H   0  0  0  0  0  0  0  0  0  0  0  0
    1.8613    9.0384   -0.3797 H   0  0  0  0  0  0  0  0  0  0  0  0
    1.5799   10.0792    1.0864 H   0  0  0  0  0  0  0  0  0  0  0  0
    0.2469    7.9963    1.1469 H   0  0  0  0  0  0  0  0  0  0  0  0
   -0.7734    9.4868    1.0936 H   0  0  0  0  0  0  0  0  0  0  0  0
   -1.7188    7.8526   -0.3874 H   0  0  0  0  0  0  0  0  0  0  0  0
    0.1430    7.6590   -2.3050 H   0  0  0  0  0  0  0  0  0  0  0  0
   -2.2799   10.2584   -0.0060 H   0  0  0  0  0  0  0  0  0  0  0  0
   -2.2391   11.3416   -1.4384 H   0  0  0  0  0  0  0  0  0  0  0  0
   -3.3002    9.8923   -1.4384 H   0  0  0  0  0  0  0  0  0  0  0  0
   -2.4545    7.9811   -2.6939 H   0  0  0  0  0  0  0  0  0  0  0  0
   -2.3009    9.5355   -3.5809 H   0  0  0  0  0  0  0  0  0  0  0  0
   -0.9399    8.3632   -3.5809 H   0  0  0  0  0  0  0  0  0  0  0  0
    3.7445   10.6450   -0.3358 H   0  0  0  0  0  0  0  0  0  0  0  0
    3.0271   10.0491   -1.8710 H   0  0  0  0  0  0  0  0  0  0  0  0
    4.0484   11.5268   -1.8710 H   0  0  0  0  0  0  0  0  0  0  0  0
    2.0965   12.0892    1.1112 H   0  0  0  0  0  0  0  0  0  0  0  0
    3.4144   12.9602    0.1423 H   0  0  0  0  0  0  0  0  0  0  0  0
    0.5446   13.8393    0.5654 H   0  0  0  0  0  0  0  0  0  0  0  0
    2.0631   14.6189    1.1600 H   0  0  0  0  0  0  0  0  0  0  0  0
    3.7319   15.2797   -0.2196 H   0  0  0  0  0  0  0  0  0  0  0  0
    3.6925   14.3519   -1.7572 H   0  0  0  0  0  0  0  0  0  0  0  0
    3.3099   16.1070   -1.7572 H   0  0  0  0  0  0  0  0  0  0  0  0
  1  2  1  0
  2  3  1  0
  3  4  1  0
  4  5  1  0
  5  6  1  0
  6  7  1  0
  7  8  1  0
  7  9  1  0
  2 10  1  0
 10 11  1  0
 11 12  1  0
 12 13  1  0
 13 14  1  1
 13 15  1  0
 15 16  1  0
 16 17  1  0
 17 18  2  0
 18 19  1  0
 19 20  1  0
 20 21  1  0
 21 22  1  0
 22 23  1  0
 22 24  1  0
 24 25  1  0
 24 26  1  0
 19 27  1  0
 27 28  1  6
 27 29  1  0
 29 30  1  0
 30 31  1  0
 31 32  1  6
  7  5  1  0
 31 10  1  0
 31 13  1  0
 27 15  1  0
 24 18  1  0
  1 33  1  0
  1 34  1  0
  1 35  1  0
  2 36  1  1
  3 37  1  0
  3 38  1  0
  4 39  1  0
  4 40  1  0
  5 41  1  1
  8 42  1  0
  8 43  1  0
  8 44  1  0
  9 45  1  0
  9 46  1  0
  9 47  1  0
 10 48  1  1
 11 49  1  0
 11 50  1  0
 12 51  1  0
 12 52  1  0
 14 53  1  0
 14 54  1  0
 14 55  1  0
 15 56  1  6
 16 57  1  0
 16 58  1  0
 17 59  1  0
 19 60  1  1
 20 61  1  0
 20 62  1  0
 21 63  1  0
 21 64  1  0
 22 65  1  1
 23 66  1  0
 25 67  1  0
 25 68  1  0
 25 69  1  0
 26 70  1  0
 26 71  1  0
 26 72  1  0
 28 73  1  0
 28 74  1  0
 28 75  1  0
 29 76  1  0
 29 77  1  0
 30 78  1  0
 30 79  1  0
 32 80  1  0
 32 81  1  0
 32 82  1  0
M  END
>  <meeko>  (4) 
{"is_sidechain": [false], "intermolecular_energy": 2.731, "internal_energy": -0.839}

$$$$
EPH_relaxed_0001_pdb2pqr_Repair_80_r2_0001_out
     RDKit          3D

 82 86  0  0  0  0  0  0  0  0999 V2000
    3.7230   17.9040    0.7170 C   0  0  0  0  0  0  0  0  0  0  0  0
    2.7350   18.3150   -0.3790 C   0  0  2  0  0  0  0  0  0  0  0  0
    2.0120   19.6340   -0.0440 C   0  0  0  0  0  0  0  0  0  0  0  0
    0.8730   19.4720    0.9670 C   0  0  0  0  0  0  0  0  0  0  0  0
   -0.3980   20.0970    0.4750 C   0  0  2  0  0  0  0  0  0  0  0  0
   -1.4370   20.1940    1.4580 O   0  0  0  0  0  0  0  0  0  0  0  0
   -1.7040   19.3370    0.3360 C   0  0  0  0  0  0  0  0  0  0  0  0
   -1.8040   17.8860    0.6890 C   0  0  0  0  0  0  0  0  0  0  0  0
   -2.7470   19.8710   -0.5960 C   0  0  0  0  0  0  0  0  0  0  0  0
    1.7160   17.2040   -0.6030 C   0  0  1  0  0  0  0  0  0  0  0  0
    0.5070   17.6660   -1.4590 C   0  0  0  0  0  0  0  0  0  0  0  0
    0.0800   16.4520   -2.3230 C   0  0  0  0  0  0  0  0  0  0  0  0
    0.8300   15.2500   -1.7030 C   0  0  1  0  0  0  0  0  0  0  0  0
   -0.0290   14.8340   -0.4690 C   0  0  0  0  0  0  0  0  0  0  0  0
    1.0990   14.0380   -2.6540 C   0  0  2  0  0  0  0  0  0  0  0  0
   -0.1620   13.3420   -3.1960 C   0  0  0  0  0  0  0  0  0  0  0  0
   -0.6760   12.2140   -2.3640 C   0  0  0  0  0  0  0  0  0  0  0  0
    0.0050   11.5920   -1.3840 C   0  0  0  0  0  0  0  0  0  0  0  0
    1.4690   11.9480   -1.0930 C   0  0  1  0  0  0  0  0  0  0  0  0
    2.2990   10.6460   -0.9440 C   0  0  0  0  0  0  0  0  0  0  0  0
    1.7120    9.6950    0.0950 C   0  0  0  0  0  0  0  0  0  0  0  0
    0.2760    9.3180   -0.2600 C   0  0  2  0  0  0  0  0  0  0  0  0
    0.2870    8.5390   -1.4600 O   0  0  0  0  0  0  0  0  0  0  0  0
   -0.6530   10.5500   -0.4460 C   0  0  0  0  0  0  0  0  0  0  0  0
   -0.9050   11.2230    0.9260 C   0  0  0  0  0  0  0  0  0  0  0  0
   -2.0330   10.0380   -0.9390 C   0  0  0  0  0  0  0  0  0  0  0  0
    2.1400   12.9890   -2.0890 C   0  0  1  0  0  0  0  0  0  0  0  0
    2.7310   12.2390   -3.3230 C   0  0  0  0  0  0  0  0  0  0  0  0
    3.3550   13.6820   -1.3670 C   0  0  0  0  0  0  0  0  0  0  0  0
    3.0440   14.9440   -0.5390 C   0  0  0  0  0  0  0  0  0  0  0  0
    2.2000   15.9340   -1.3470 C   0  0  2  0  0  0  0  0  0  0  0  0
    3.0480   16.3870   -2.5840 C   0  0  0  0  0  0  0  0  0  0  0  0
    3.2744   18.0906    1.7039 H   0  0  0  0  0  0  0  0  0  0  0  0
    3.9571   16.8339    0.6171 H   0  0  0  0  0  0  0  0  0  0  0  0
    4.6470   18.4924    0.6171 H   0  0  0  0  0  0  0  0  0  0  0  0
    3.3126   18.4807   -1.3003 H   0  0  0  0  0  0  0  0  0  0  0  0
    2.7481   20.3376    0.3719 H   0  0  0  0  0  0  0  0  0  0  0  0
    1.5626   20.0007   -0.9786 H   0  0  0  0  0  0  0  0  0  0  0  0
    0.6994   18.3996    1.1397 H   0  0  0  0  0  0  0  0  0  0  0  0
    1.1663   19.9787    1.8983 H   0  0  0  0  0  0  0  0  0  0  0  0
    0.1597   20.7396   -0.2222 H   0  0  0  0  0  0  0  0  0  0  0  0
   -1.8117   17.7746    1.7833 H   0  0  0  0  0  0  0  0  0  0  0  0
   -2.7329   17.4703    0.2716 H   0  0  0  0  0  0  0  0  0  0  0  0
   -0.9409   17.3468    0.2716 H   0  0  0  0  0  0  0  0  0  0  0  0
   -3.5771   20.2960   -0.0126 H   0  0  0  0  0  0  0  0  0  0  0  0
   -2.3058   20.6541   -1.2301 H   0  0  0  0  0  0  0  0  0  0  0  0
   -3.1244   19.0552   -1.2301 H   0  0  0  0  0  0  0  0  0  0  0  0
    1.4775   16.9594    0.4426 H   0  0  0  0  0  0  0  0  0  0  0  0
   -0.3222   17.9768   -0.8065 H   0  0  0  0  0  0  0  0  0  0  0  0
    0.7762   18.5251   -2.0911 H   0  0  0  0  0  0  0  0  0  0  0  0
   -1.0082   16.3005   -2.2693 H   0  0  0  0  0  0  0  0  0  0  0  0
    0.3218   16.5912   -3.3870 H   0  0  0  0  0  0  0  0  0  0  0  0
    0.5074   15.0938    0.4555 H   0  0  0  0  0  0  0  0  0  0  0  0
   -0.9915   15.3658   -0.4962 H   0  0  0  0  0  0  0  0  0  0  0  0
   -0.2086   13.7491   -0.4962 H   0  0  0  0  0  0  0  0  0  0  0  0
    1.5715   14.5201   -3.5225 H   0  0  0  0  0  0  0  0  0  0  0  0
   -0.9588   14.0962   -3.2754 H   0  0  0  0  0  0  0  0  0  0  0  0
    0.1255   12.9010   -4.1618 H   0  0  0  0  0  0  0  0  0  0  0  0
   -1.6976   11.8615   -2.5693 H   0  0  0  0  0  0  0  0  0  0  0  0
    1.4648   12.4985   -0.1407 H   0  0  0  0  0  0  0  0  0  0  0  0
    2.3273   10.1324   -1.9163 H   0  0  0  0  0  0  0  0  0  0  0  0
    3.3071   10.9288   -0.6067 H   0  0  0  0  0  0  0  0  0  0  0  0
    2.3246    8.7822    0.1343 H   0  0  0  0  0  0  0  0  0  0  0  0
    1.7110   10.2000    1.0722 H   0  0  0  0  0  0  0  0  0  0  0  0
   -0.1317    8.7422    0.5840 H   0  0  0  0  0  0  0  0  0  0  0  0
   -0.6120    8.5540   -1.8290 H   0  0  0  0  0  0  0  0  0  0  0  0
   -0.6425   10.5220    1.7320 H   0  0  0  0  0  0  0  0  0  0  0  0
   -0.2846   12.1275    1.0102 H   0  0  0  0  0  0  0  0  0  0  0  0
   -1.9669   11.4976    1.0102 H   0  0  0  0  0  0  0  0  0  0  0  0
   -2.6678    9.8025   -0.0721 H   0  0  0  0  0  0  0  0  0  0  0  0
   -2.5170   10.8164   -1.5472 H   0  0  0  0  0  0  0  0  0  0  0  0
   -1.8922    9.1323   -1.5472 H   0  0  0  0  0  0  0  0  0  0  0  0
    3.3775   11.4185   -2.9783 H   0  0  0  0  0  0  0  0  0  0  0  0
    1.9106   11.8290   -3.9303 H   0  0  0  0  0  0  0  0  0  0  0  0
    3.3215   12.9408   -3.9303 H   0  0  0  0  0  0  0  0  0  0  0  0
    3.8053   12.9419   -0.6891 H   0  0  0  0  0  0  0  0  0  0  0  0
    4.0138   14.0254   -2.1782 H   0  0  0  0  0  0  0  0  0  0  0  0
    2.4902   14.6535    0.3659 H   0  0  0  0  0  0  0  0  0  0  0  0
    3.9933   15.4300   -0.2694 H   0  0  0  0  0  0  0  0  0  0  0  0
    3.9687   16.8788   -2.2371 H   0  0  0  0  0  0  0  0  0  0  0  0
    3.3085   15.5079   -3.1917 H   0  0  0  0  0  0  0  0  0  0  0  0
    2.4621   17.0923   -3.1917 H   0  0  0  0  0  0  0  0  0  0  0  0
  1  2  1  0
  2  3  1  0
  3  4  1  0
  4  5  1  0
  5  6  1  0
  6  7  1  0
  7  8  1  0
  7  9  1  0
  2 10  1  0
 10 11  1  0
 11 12  1  0
 12 13  1  0
 13 14  1  1
 13 15  1  0
 15 16  1  0
 16 17  1  0
 17 18  2  0
 18 19  1  0
 19 20  1  0
 20 21  1  0
 21 22  1  0
 22 23  1  0
 22 24  1  0
 24 25  1  0
 24 26  1  0
 19 27  1  0
 27 28  1  6
 27 29  1  0
 29 30  1  0
 30 31  1  0
 31 32  1  6
  7  5  1  0
 31 10  1  0
 31 13  1  0
 27 15  1  0
 24 18  1  0
  1 33  1  0
  1 34  1  0
  1 35  1  0
  2 36  1  6
  3 37  1  0
  3 38  1  0
  4 39  1  0
  4 40  1  0
  5 41  1  6
  8 42  1  0
  8 43  1  0
  8 44  1  0
  9 45  1  0
  9 46  1  0
  9 47  1  0
 10 48  1  1
 11 49  1  0
 11 50  1  0
 12 51  1  0
 12 52  1  0
 14 53  1  0
 14 54  1  0
 14 55  1  0
 15 56  1  6
 16 57  1  0
 16 58  1  0
 17 59  1  0
 19 60  1  1
 20 61  1  0
 20 62  1  0
 21 63  1  0
 21 64  1  0
 22 65  1  1
 23 66  1  0
 25 67  1  0
 25 68  1  0
 25 69  1  0
 26 70  1  0
 26 71  1  0
 26 72  1  0
 28 73  1  0
 28 74  1  0
 28 75  1  0
 29 76  1  0
 29 77  1  0
 30 78  1  0
 30 79  1  0
 32 80  1  0
 32 81  1  0
 32 82  1  0
M  END
>  <meeko>  (5) 
{"is_sidechain": [false], "intermolecular_energy": 2.731, "internal_energy": -0.839}

$$$$
EPH_relaxed_0001_pdb2pqr_Repair_80_r2_0001_out
     RDKit          3D

 82 86  0  0  0  0  0  0  0  0999 V2000
    0.4340    8.8620   -2.5080 C   0  0  0  0  0  0  0  0  0  0  0  0
    1.1910   10.0240   -3.1580 C   0  0  2  0  0  0  0  0  0  0  0  0
    2.6850   10.0300   -2.7760 C   0  0  0  0  0  0  0  0  0  0  0  0
    3.5940   10.6260   -3.8540 C   0  0  0  0  0  0  0  0  0  0  0  0
    4.9880   10.8410   -3.3470 C   0  0  2  0  0  0  0  0  0  0  0  0
    5.6120   12.0480   -3.8050 O   0  0  0  0  0  0  0  0  0  0  0  0
    6.2150   10.8180   -4.2390 C   0  0  0  0  0  0  0  0  0  0  0  0
    6.1060   10.5730   -5.7110 C   0  0  0  0  0  0  0  0  0  0  0  0
    7.5490   10.5480   -3.6140 C   0  0  0  0  0  0  0  0  0  0  0  0
    0.5470   11.3480   -2.7660 C   0  0  1  0  0  0  0  0  0  0  0  0
   -0.8230   11.1610   -2.0610 C   0  0  0  0  0  0  0  0  0  0  0  0
   -0.9360   12.2850   -0.9990 C   0  0  0  0  0  0  0  0  0  0  0  0
    0.2040   13.2690   -1.3490 C   0  0  1  0  0  0  0  0  0  0  0  0
   -0.3610   14.1400   -2.5140 C   0  0  0  0  0  0  0  0  0  0  0  0
    0.7390   14.1520   -0.1750 C   0  0  2  0  0  0  0  0  0  0  0  0
   -0.2920   15.1140    0.4400 C   0  0  0  0  0  0  0  0  0  0  0  0
   -0.3500   16.4700   -0.1810 C   0  0  0  0  0  0  0  0  0  0  0  0
    0.5810   16.9970   -0.9980 C   0  0  0  0  0  0  0  0  0  0  0  0
    1.8850   16.2440   -1.2940 C   0  0  1  0  0  0  0  0  0  0  0  0
    3.0860   17.2170   -1.1610 C   0  0  0  0  0  0  0  0  0  0  0  0
    2.9250   18.4670   -2.0210 C   0  0  0  0  0  0  0  0  0  0  0  0
    1.6480   19.2190   -1.6570 C   0  0  2  0  0  0  0  0  0  0  0  0
    1.7820   19.7400   -0.3310 O   0  0  0  0  0  0  0  0  0  0  0  0
    0.3710   18.3370   -1.7450 C   0  0  0  0  0  0  0  0  0  0  0  0
    0.0580   18.0210   -3.2290 C   0  0  0  0  0  0  0  0  0  0  0  0
   -0.8250   19.1740   -1.2180 C   0  0  0  0  0  0  0  0  0  0  0  0
    2.1030   14.8910   -0.4890 C   0  0  1  0  0  0  0  0  0  0  0  0
    2.7730   15.1930    0.8860 C   0  0  0  0  0  0  0  0  0  0  0  0
    3.1100   13.9770   -1.2830 C   0  0  0  0  0  0  0  0  0  0  0  0
    2.5070   13.0400   -2.3470 C   0  0  0  0  0  0  0  0  0  0  0  0
    1.3240   12.2520   -1.7760 C   0  0  2  0  0  0  0  0  0  0  0  0
    1.8670   11.3490   -0.6160 C   0  0  0  0  0  0  0  0  0  0  0  0
    0.4930    8.9526   -1.4133 H   0  0  0  0  0  0  0  0  0  0  0  0
   -0.6199    8.8897   -2.8219 H   0  0  0  0  0  0  0  0  0  0  0  0
    0.8852    7.9092   -2.8219 H   0  0  0  0  0  0  0  0  0  0  0  0
    1.1301    9.8901   -4.2481 H   0  0  0  0  0  0  0  0  0  0  0  0
    2.8056   10.6197   -1.8553 H   0  0  0  0  0  0  0  0  0  0  0  0
    2.9873    8.9805   -2.6452 H   0  0  0  0  0  0  0  0  0  0  0  0
    3.6287    9.9378   -4.7114 H   0  0  0  0  0  0  0  0  0  0  0  0
    3.1819   11.6024   -4.1486 H   0  0  0  0  0  0  0  0  0  0  0  0
    4.7507   10.3245   -2.4052 H   0  0  0  0  0  0  0  0  0  0  0  0
    5.6646    9.5808   -5.8859 H   0  0  0  0  0  0  0  0  0  0  0  0
    5.4661   11.3441   -6.1647 H   0  0  0  0  0  0  0  0  0  0  0  0
    7.1073   10.6140   -6.1647 H   0  0  0  0  0  0  0  0  0  0  0  0
    7.4514   10.5678   -2.5185 H   0  0  0  0  0  0  0  0  0  0  0  0
    7.9095    9.5587   -3.9322 H   0  0  0  0  0  0  0  0  0  0  0  0
    8.2659   11.3193   -3.9322 H   0  0  0  0  0  0  0  0  0  0  0  0
    0.4980   11.8282   -3.7544 H   0  0  0  0  0  0  0  0  0  0  0  0
   -1.6403   11.2470   -2.7922 H   0  0  0  0  0  0  0  0  0  0  0  0
   -0.8949   10.1676   -1.5942 H   0  0  0  0  0  0  0  0  0  0  0  0
   -1.9139   12.7845   -1.0648 H   0  0  0  0  0  0  0  0  0  0  0  0
   -0.8528   11.8986    0.0275 H   0  0  0  0  0  0  0  0  0  0  0  0
   -0.9151   14.9942   -2.0977 H   0  0  0  0  0  0  0  0  0  0  0  0
    0.4704   14.5087   -3.1327 H   0  0  0  0  0  0  0  0  0  0  0  0
   -1.0366   13.5311   -3.1327 H   0  0  0  0  0  0  0  0  0  0  0  0
    0.9524   13.4048    0.6035 H   0  0  0  0  0  0  0  0  0  0  0  0
   -1.2862   14.6534    0.3435 H   0  0  0  0  0  0  0  0  0  0  0  0
    0.0224   15.2704    1.4824 H   0  0  0  0  0  0  0  0  0  0  0  0
   -1.2281   17.0915    0.0485 H   0  0  0  0  0  0  0  0  0  0  0  0
    1.8035   15.8913   -2.3327 H   0  0  0  0  0  0  0  0  0  0  0  0
    3.1771   17.5227   -0.1083 H   0  0  0  0  0  0  0  0  0  0  0  0
    3.9851   16.6867   -1.5081 H   0  0  0  0  0  0  0  0  0  0  0  0
    3.7898   19.1277   -1.8611 H   0  0  0  0  0  0  0  0  0  0  0  0
    2.8639   18.1617   -3.0760 H   0  0  0  0  0  0  0  0  0  0  0  0
    1.5213   20.0283   -2.3912 H   0  0  0  0  0  0  0  0  0  0  0  0
    2.5410   19.2970    0.0840 H   0  0  0  0  0  0  0  0  0  0  0  0
   -0.7152   17.2404   -3.2825 H   0  0  0  0  0  0  0  0  0  0  0  0
   -0.3046   18.9312   -3.7291 H   0  0  0  0  0  0  0  0  0  0  0  0
    0.9716   17.6671   -3.7291 H   0  0  0  0  0  0  0  0  0  0  0  0
   -0.8190   19.1698   -0.1180 H   0  0  0  0  0  0  0  0  0  0  0  0
   -0.7369   20.2086   -1.5812 H   0  0  0  0  0  0  0  0  0  0  0  0
   -1.7668   18.7369   -1.5812 H   0  0  0  0  0  0  0  0  0  0  0  0
    2.0967   14.8882    1.6982 H   0  0  0  0  0  0  0  0  0  0  0  0
    3.7166   14.6331    0.9649 H   0  0  0  0  0  0  0  0  0  0  0  0
    2.9784   16.2708    0.9649 H   0  0  0  0  0  0  0  0  0  0  0  0
    3.8295   14.6368   -1.7900 H   0  0  0  0  0  0  0  0  0  0  0  0
    3.5498   13.3093   -0.5275 H   0  0  0  0  0  0  0  0  0  0  0  0
    2.1607   13.6407   -3.2009 H   0  0  0  0  0  0  0  0  0  0  0  0
    3.2817   12.3275   -2.6667 H   0  0  0  0  0  0  0  0  0  0  0  0
    1.5984   11.7956    0.3527 H   0  0  0  0  0  0  0  0  0  0  0  0
    1.4222   10.3459   -0.6932 H   0  0  0  0  0  0  0  0  0  0  0  0
    2.9616   11.2716   -0.6932 H   0  0  0  0  0  0  0  0  0  0  0  0
  1  2  1  0
  2  3  1  0
  3  4  1  0
  4  5  1  0
  5  6  1  0
  6  7  1  0
  7  8  1  0
  7  9  1  0
  2 10  1  0
 10 11  1  0
 11 12  1  0
 12 13  1  0
 13 14  1  6
 13 15  1  0
 15 16  1  0
 16 17  1  0
 17 18  2  0
 18 19  1  0
 19 20  1  0
 20 21  1  0
 21 22  1  0
 22 23  1  0
 22 24  1  0
 24 25  1  0
 24 26  1  0
 19 27  1  0
 27 28  1  1
 27 29  1  0
 29 30  1  0
 30 31  1  0
 31 32  1  1
  7  5  1  0
 31 10  1  0
 31 13  1  0
 27 15  1  0
 24 18  1  0
  1 33  1  0
  1 34  1  0
  1 35  1  0
  2 36  1  6
  3 37  1  0
  3 38  1  0
  4 39  1  0
  4 40  1  0
  5 41  1  1
  8 42  1  0
  8 43  1  0
  8 44  1  0
  9 45  1  0
  9 46  1  0
  9 47  1  0
 10 48  1  6
 11 49  1  0
 11 50  1  0
 12 51  1  0
 12 52  1  0
 14 53  1  0
 14 54  1  0
 14 55  1  0
 15 56  1  1
 16 57  1  0
 16 58  1  0
 17 59  1  0
 19 60  1  6
 20 61  1  0
 20 62  1  0
 21 63  1  0
 21 64  1  0
 22 65  1  6
 23 66  1  0
 25 67  1  0
 25 68  1  0
 25 69  1  0
 26 70  1  0
 26 71  1  0
 26 72  1  0
 28 73  1  0
 28 74  1  0
 28 75  1  0
 29 76  1  0
 29 77  1  0
 30 78  1  0
 30 79  1  0
 32 80  1  0
 32 81  1  0
 32 82  1  0
M  END
>  <meeko>  (6) 
{"is_sidechain": [false], "intermolecular_energy": 2.731, "internal_energy": -0.839}

$$$$
EPH_relaxed_0001_pdb2pqr_Repair_80_r2_0001_out
     RDKit          3D

 82 86  0  0  0  0  0  0  0  0999 V2000
   -0.1140   10.5630   -4.0750 C   0  0  0  0  0  0  0  0  0  0  0  0
    1.0480   10.3750   -3.0950 C   0  0  2  0  0  0  0  0  0  0  0  0
    0.9560    9.0370   -2.3350 C   0  0  0  0  0  0  0  0  0  0  0  0
   -0.4650    8.6790   -1.8900 C   0  0  0  0  0  0  0  0  0  0  0  0
   -0.6990    9.0260   -0.4510 C   0  0  2  0  0  0  0  0  0  0  0  0
   -2.0760    9.0250   -0.0510 O   0  0  0  0  0  0  0  0  0  0  0  0
   -1.4020   10.2930   -0.0000 C   0  0  0  0  0  0  0  0  0  0  0  0
   -1.9130   11.2950   -0.9870 C   0  0  0  0  0  0  0  0  0  0  0  0
   -1.1580   10.7900    1.3910 C   0  0  0  0  0  0  0  0  0  0  0  0
    1.0860   11.5350   -2.1070 C   0  0  1  0  0  0  0  0  0  0  0  0
    2.1260   11.3200   -0.9750 C   0  0  0  0  0  0  0  0  0  0  0  0
    2.7090   12.7150   -0.6330 C   0  0  0  0  0  0  0  0  0  0  0  0
    1.7610   13.7170   -1.3330 C   0  0  1  0  0  0  0  0  0  0  0  0
    0.5390   13.8530   -0.3720 C   0  0  0  0  0  0  0  0  0  0  0  0
    2.3710   15.1110   -1.6920 C   0  0  2  0  0  0  0  0  0  0  0  0
    2.8360   15.9490   -0.4880 C   0  0  0  0  0  0  0  0  0  0  0  0
    1.8060   16.8620    0.0900 C   0  0  0  0  0  0  0  0  0  0  0  0
    0.6530   17.2170   -0.5070 C   0  0  0  0  0  0  0  0  0  0  0  0
    0.3340   16.7620   -1.9370 C   0  0  1  0  0  0  0  0  0  0  0  0
   -0.1890   17.9700   -2.7590 C   0  0  0  0  0  0  0  0  0  0  0  0
   -1.3710   18.6650   -2.0910 C   0  0  0  0  0  0  0  0  0  0  0  0
   -0.9970   19.1530   -0.6940 C   0  0  2  0  0  0  0  0  0  0  0  0
   -0.0220   20.1930   -0.8140 O   0  0  0  0  0  0  0  0  0  0  0  0
   -0.4480   18.0250    0.2230 C   0  0  0  0  0  0  0  0  0  0  0  0
   -1.5950   17.0550    0.5990 C   0  0  0  0  0  0  0  0  0  0  0  0
    0.0230   18.6760    1.5520 C   0  0  0  0  0  0  0  0  0  0  0  0
    1.4890   15.9680   -2.6870 C   0  0  1  0  0  0  0  0  0  0  0  0
    2.4550   16.9710   -3.3880 C   0  0  0  0  0  0  0  0  0  0  0  0
    0.8520   15.0920   -3.8290 C   0  0  0  0  0  0  0  0  0  0  0  0
    0.3770   13.6790   -3.4390 C   0  0  0  0  0  0  0  0  0  0  0  0
    1.4650   12.9310   -2.6620 C   0  0  2  0  0  0  0  0  0  0  0  0
    2.6990   12.7590   -3.6120 C   0  0  0  0  0  0  0  0  0  0  0  0
   -1.0472   10.7140   -3.5126 H   0  0  0  0  0  0  0  0  0  0  0  0
    0.0788   11.4416   -4.7081 H   0  0  0  0  0  0  0  0  0  0  0  0
   -0.2081    9.6684   -4.7081 H   0  0  0  0  0  0  0  0  0  0  0  0
    1.9777   10.3565   -3.6826 H   0  0  0  0  0  0  0  0  0  0  0  0
    1.3257    8.2372   -2.9936 H   0  0  0  0  0  0  0  0  0  0  0  0
    1.5618    9.1427   -1.4229 H   0  0  0  0  0  0  0  0  0  0  0  0
   -1.1836    9.2332   -2.5118 H   0  0  0  0  0  0  0  0  0  0  0  0
   -0.5977    7.5933   -2.0070 H   0  0  0  0  0  0  0  0  0  0  0  0
    0.2592    8.5704   -0.1606 H   0  0  0  0  0  0  0  0  0  0  0  0
   -2.3490   12.1499   -0.4493 H   0  0  0  0  0  0  0  0  0  0  0  0
   -1.0827   11.6439   -1.6186 H   0  0  0  0  0  0  0  0  0  0  0  0
   -2.6829   10.8278   -1.6186 H   0  0  0  0  0  0  0  0  0  0  0  0
   -1.5229   10.0468    2.1152 H   0  0  0  0  0  0  0  0  0  0  0  0
   -0.0797   10.9484    1.5399 H   0  0  0  0  0  0  0  0  0  0  0  0
   -1.6921   11.7400    1.5399 H   0  0  0  0  0  0  0  0  0  0  0  0
    0.0358   11.5333   -1.7799 H   0  0  0  0  0  0  0  0  0  0  0  0
    1.6382   10.8859   -0.0898 H   0  0  0  0  0  0  0  0  0  0  0  0
    2.9192   10.6275   -1.2934 H   0  0  0  0  0  0  0  0  0  0  0  0
    2.7120   12.8785    0.4548 H   0  0  0  0  0  0  0  0  0  0  0  0
    3.7514   12.8245   -0.9667 H   0  0  0  0  0  0  0  0  0  0  0  0
    0.8866   13.8143    0.6709 H   0  0  0  0  0  0  0  0  0  0  0  0
    0.0339   14.8129   -0.5548 H   0  0  0  0  0  0  0  0  0  0  0  0
   -0.1648   13.0276   -0.5548 H   0  0  0  0  0  0  0  0  0  0  0  0
    3.2867   14.8349   -2.2353 H   0  0  0  0  0  0  0  0  0  0  0  0
    3.1589   15.2567    0.3035 H   0  0  0  0  0  0  0  0  0  0  0  0
    3.6418   16.5977   -0.8621 H   0  0  0  0  0  0  0  0  0  0  0  0
    2.0061   17.2798    1.0877 H   0  0  0  0  0  0  0  0  0  0  0  0
   -0.4555   16.0016   -1.8453 H   0  0  0  0  0  0  0  0  0  0  0  0
    0.6279   18.6974   -2.8752 H   0  0  0  0  0  0  0  0  0  0  0  0
   -0.5328   17.5880   -3.7316 H   0  0  0  0  0  0  0  0  0  0  0  0
   -1.6757   19.5262   -2.7038 H   0  0  0  0  0  0  0  0  0  0  0  0
   -2.1979   17.9450   -2.0022 H   0  0  0  0  0  0  0  0  0  0  0  0
   -1.9165   19.5240   -0.2178 H   0  0  0  0  0  0  0  0  0  0  0  0
    0.5520   19.9720   -1.5670 H   0  0  0  0  0  0  0  0  0  0  0  0
   -1.6743   16.9879    1.6941 H   0  0  0  0  0  0  0  0  0  0  0  0
   -2.5427   17.4298    0.1850 H   0  0  0  0  0  0  0  0  0  0  0  0
   -1.3828   16.0582    0.1850 H   0  0  0  0  0  0  0  0  0  0  0  0
   -0.3860   18.1107    2.4024 H   0  0  0  0  0  0  0  0  0  0  0  0
    1.1220   18.6628    1.5975 H   0  0  0  0  0  0  0  0  0  0  0  0
   -0.3334   19.7157    1.5975 H   0  0  0  0  0  0  0  0  0  0  0  0
    3.0057   17.5428   -2.6265 H   0  0  0  0  0  0  0  0  0  0  0  0
    3.1674   16.4159   -4.0160 H   0  0  0  0  0  0  0  0  0  0  0  0
    1.8735   17.6620   -4.0160 H   0  0  0  0  0  0  0  0  0  0  0  0
   -0.0180   15.6388   -4.2215 H   0  0  0  0  0  0  0  0  0  0  0  0
    1.6628   14.9325   -4.5550 H   0  0  0  0  0  0  0  0  0  0  0  0
   -0.5218   13.7620   -2.8104 H   0  0  0  0  0  0  0  0  0  0  0  0
    0.1529   13.1177   -4.3581 H   0  0  0  0  0  0  0  0  0  0  0  0
    3.6106   12.6319   -3.0096 H   0  0  0  0  0  0  0  0  0  0  0  0
    2.5524   11.8726   -4.2467 H   0  0  0  0  0  0  0  0  0  0  0  0
    2.8004   13.6517   -4.2467 H   0  0  0  0  0  0  0  0  0  0  0  0
  1  2  1  0
  2  3  1  0
  3  4  1  0
  4  5  1  0
  5  6  1  0
  6  7  1  0
  7  8  1  0
  7  9  1  0
  2 10  1  0
 10 11  1  0
 11 12  1  0
 12 13  1  0
 13 14  1  1
 13 15  1  0
 15 16  1  0
 16 17  1  0
 17 18  2  0
 18 19  1  0
 19 20  1  0
 20 21  1  0
 21 22  1  0
 22 23  1  0
 22 24  1  0
 24 25  1  0
 24 26  1  0
 19 27  1  0
 27 28  1  6
 27 29  1  0
 29 30  1  0
 30 31  1  0
 31 32  1  6
  7  5  1  0
 31 10  1  0
 31 13  1  0
 27 15  1  0
 24 18  1  0
  1 33  1  0
  1 34  1  0
  1 35  1  0
  2 36  1  6
  3 37  1  0
  3 38  1  0
  4 39  1  0
  4 40  1  0
  5 41  1  1
  8 42  1  0
  8 43  1  0
  8 44  1  0
  9 45  1  0
  9 46  1  0
  9 47  1  0
 10 48  1  1
 11 49  1  0
 11 50  1  0
 12 51  1  0
 12 52  1  0
 14 53  1  0
 14 54  1  0
 14 55  1  0
 15 56  1  6
 16 57  1  0
 16 58  1  0
 17 59  1  0
 19 60  1  1
 20 61  1  0
 20 62  1  0
 21 63  1  0
 21 64  1  0
 22 65  1  1
 23 66  1  0
 25 67  1  0
 25 68  1  0
 25 69  1  0
 26 70  1  0
 26 71  1  0
 26 72  1  0
 28 73  1  0
 28 74  1  0
 28 75  1  0
 29 76  1  0
 29 77  1  0
 30 78  1  0
 30 79  1  0
 32 80  1  0
 32 81  1  0
 32 82  1  0
M  END
>  <meeko>  (7) 
{"is_sidechain": [false], "intermolecular_energy": 2.731, "internal_energy": -0.839}

$$$$
EPH_relaxed_0001_pdb2pqr_Repair_80_r2_0001_out
     RDKit          3D

 82 86  0  0  0  0  0  0  0  0999 V2000
    1.2920   19.5750   -1.9760 C   0  0  0  0  0  0  0  0  0  0  0  0
    1.4140   19.2730   -0.4800 C   0  0  2  0  0  0  0  0  0  0  0  0
    2.8350   19.5440    0.0530 C   0  0  0  0  0  0  0  0  0  0  0  0
    2.8830   19.8480    1.5530 C   0  0  0  0  0  0  0  0  0  0  0  0
    4.2660   19.6910    2.1070 C   0  0  2  0  0  0  0  0  0  0  0  0
    4.4700   18.5000    2.8790 O   0  0  0  0  0  0  0  0  0  0  0  0
    4.5840   19.7440    3.5900 C   0  0  0  0  0  0  0  0  0  0  0  0
    3.5120   19.9630    4.6100 C   0  0  0  0  0  0  0  0  0  0  0  0
    5.9830   20.0710    4.0100 C   0  0  0  0  0  0  0  0  0  0  0  0
    1.0230   17.8250   -0.2080 C   0  0  1  0  0  0  0  0  0  0  0  0
   -0.3650   17.7000    0.4740 C   0  0  0  0  0  0  0  0  0  0  0  0
   -1.0200   16.4070   -0.0770 C   0  0  0  0  0  0  0  0  0  0  0  0
    0.1310   15.6630   -0.7950 C   0  0  1  0  0  0  0  0  0  0  0  0
    0.9090   14.9330    0.3450 C   0  0  0  0  0  0  0  0  0  0  0  0
   -0.2880   14.6750   -1.9320 C   0  0  2  0  0  0  0  0  0  0  0  0
   -1.1590   13.4900   -1.4780 C   0  0  0  0  0  0  0  0  0  0  0  0
   -0.4080   12.2640   -1.0750 C   0  0  0  0  0  0  0  0  0  0  0  0
    0.8880   12.0180   -1.3420 C   0  0  0  0  0  0  0  0  0  0  0  0
    1.7120   12.9820   -2.2060 C   0  0  1  0  0  0  0  0  0  0  0  0
    2.5150   12.1750   -3.2600 C   0  0  0  0  0  0  0  0  0  0  0  0
    3.3710   11.0800   -2.6300 C   0  0  0  0  0  0  0  0  0  0  0  0
    2.5090   10.1080   -1.8280 C   0  0  2  0  0  0  0  0  0  0  0  0
    1.6590    9.3930   -2.7300 O   0  0  0  0  0  0  0  0  0  0  0  0
    1.6460   10.8090   -0.7410 C   0  0  0  0  0  0  0  0  0  0  0  0
    2.5610   11.3250    0.3970 C   0  0  0  0  0  0  0  0  0  0  0  0
    0.7220    9.7370   -0.1020 C   0  0  0  0  0  0  0  0  0  0  0  0
    0.9100   14.1950   -2.8470 C   0  0  1  0  0  0  0  0  0  0  0  0
    0.2840   13.7590   -4.2070 C   0  0  0  0  0  0  0  0  0  0  0  0
    1.9170   15.3600   -3.1750 C   0  0  0  0  0  0  0  0  0  0  0  0
    2.1980   16.3730   -2.0490 C   0  0  0  0  0  0  0  0  0  0  0  0
    0.8920   16.8820   -1.4310 C   0  0  2  0  0  0  0  0  0  0  0  0
    0.0980   17.6400   -2.5490 C   0  0  0  0  0  0  0  0  0  0  0  0
    0.8832   20.5869   -2.1136 H   0  0  0  0  0  0  0  0  0  0  0  0
    2.2853   19.5139   -2.4446 H   0  0  0  0  0  0  0  0  0  0  0  0
    0.6198   18.8411   -2.4446 H   0  0  0  0  0  0  0  0  0  0  0  0
    0.7277   19.9492    0.0509 H   0  0  0  0  0  0  0  0  0  0  0  0
    3.4539   18.6556   -0.1411 H   0  0  0  0  0  0  0  0  0  0  0  0
    3.2083   20.4380   -0.4680 H   0  0  0  0  0  0  0  0  0  0  0  0
    2.5485   20.8829    1.7177 H   0  0  0  0  0  0  0  0  0  0  0  0
    2.2243   19.1336    2.0685 H   0  0  0  0  0  0  0  0  0  0  0  0
    4.6980   20.2134    1.2407 H   0  0  0  0  0  0  0  0  0  0  0  0
    3.9421   19.8751    5.6186 H   0  0  0  0  0  0  0  0  0  0  0  0
    3.0826   20.9674    4.4807 H   0  0  0  0  0  0  0  0  0  0  0  0
    2.7230   19.2075    4.4807 H   0  0  0  0  0  0  0  0  0  0  0  0
    6.0423   20.0849    5.1083 H   0  0  0  0  0  0  0  0  0  0  0  0
    6.6718   19.3096    3.6152 H   0  0  0  0  0  0  0  0  0  0  0  0
    6.2630   21.0588    3.6152 H   0  0  0  0  0  0  0  0  0  0  0  0
    1.8757   17.5171    0.4150 H   0  0  0  0  0  0  0  0  0  0  0  0
   -0.2457   17.6287    1.5652 H   0  0  0  0  0  0  0  0  0  0  0  0
   -0.9897   18.5802    0.2619 H   0  0  0  0  0  0  0  0  0  0  0  0
   -1.4249   15.7965    0.7436 H   0  0  0  0  0  0  0  0  0  0  0  0
   -1.8633   16.6204   -0.7503 H   0  0  0  0  0  0  0  0  0  0  0  0
    0.5395   15.2797    1.3214 H   0  0  0  0  0  0  0  0  0  0  0  0
    0.7532   13.8475    0.2584 H   0  0  0  0  0  0  0  0  0  0  0  0
    1.9824   15.1575    0.2584 H   0  0  0  0  0  0  0  0  0  0  0  0
   -0.9388   15.3004   -2.5608 H   0  0  0  0  0  0  0  0  0  0  0  0
   -1.7590   13.8194   -0.6169 H   0  0  0  0  0  0  0  0  0  0  0  0
   -1.7626   13.2036   -2.3519 H   0  0  0  0  0  0  0  0  0  0  0  0
   -0.9606   11.4971   -0.5124 H   0  0  0  0  0  0  0  0  0  0  0  0
    2.4045   13.4908   -1.5193 H   0  0  0  0  0  0  0  0  0  0  0  0
    1.8074   11.7096   -3.9619 H   0  0  0  0  0  0  0  0  0  0  0  0
    3.1916   12.8749   -3.7722 H   0  0  0  0  0  0  0  0  0  0  0  0
    3.8916   10.5272   -3.4259 H   0  0  0  0  0  0  0  0  0  0  0  0
    4.0970   11.5493   -1.9498 H   0  0  0  0  0  0  0  0  0  0  0  0
    3.1884    9.4248   -1.2973 H   0  0  0  0  0  0  0  0  0  0  0  0
    0.7430    9.5120   -2.4280 H   0  0  0  0  0  0  0  0  0  0  0  0
    2.1138   11.0728    1.3699 H   0  0  0  0  0  0  0  0  0  0  0  0
    3.5507   10.8520    0.3147 H   0  0  0  0  0  0  0  0  0  0  0  0
    2.6683   12.4167    0.3147 H   0  0  0  0  0  0  0  0  0  0  0  0
    0.7825    9.8071    0.9941 H   0  0  0  0  0  0  0  0  0  0  0  0
   -0.3158    9.9086   -0.4237 H   0  0  0  0  0  0  0  0  0  0  0  0
    1.0448    8.7359   -0.4237 H   0  0  0  0  0  0  0  0  0  0  0  0
   -0.6054   13.1395   -4.0194 H   0  0  0  0  0  0  0  0  0  0  0  0
   -0.0054   14.6520   -4.7805 H   0  0  0  0  0  0  0  0  0  0  0  0
    1.0212   13.1779   -4.7805 H   0  0  0  0  0  0  0  0  0  0  0  0
    2.8762   14.9012   -3.4569 H   0  0  0  0  0  0  0  0  0  0  0  0
    1.4328   15.9430   -3.9723 H   0  0  0  0  0  0  0  0  0  0  0  0
    2.7996   15.8851   -1.2679 H   0  0  0  0  0  0  0  0  0  0  0  0
    2.7415   17.2292   -2.4750 H   0  0  0  0  0  0  0  0  0  0  0  0
   -0.6231   18.3284   -2.0840 H   0  0  0  0  0  0  0  0  0  0  0  0
    0.8000   18.2115   -3.1739 H   0  0  0  0  0  0  0  0  0  0  0  0
   -0.4404   16.9122   -3.1739 H   0  0  0  0  0  0  0  0  0  0  0  0
  1  2  1  0
  2  3  1  0
  3  4  1  0
  4  5  1  0
  5  6  1  0
  6  7  1  0
  7  8  1  0
  7  9  1  0
  2 10  1  0
 10 11  1  0
 11 12  1  0
 12 13  1  0
 13 14  1  1
 13 15  1  0
 15 16  1  0
 16 17  1  0
 17 18  2  0
 18 19  1  0
 19 20  1  0
 20 21  1  0
 21 22  1  0
 22 23  1  0
 22 24  1  0
 24 25  1  0
 24 26  1  0
 19 27  1  0
 27 28  1  6
 27 29  1  0
 29 30  1  0
 30 31  1  0
 31 32  1  6
  7  5  1  0
 31 10  1  0
 31 13  1  0
 27 15  1  0
 24 18  1  0
  1 33  1  0
  1 34  1  0
  1 35  1  0
  2 36  1  1
  3 37  1  0
  3 38  1  0
  4 39  1  0
  4 40  1  0
  5 41  1  6
  8 42  1  0
  8 43  1  0
  8 44  1  0
  9 45  1  0
  9 46  1  0
  9 47  1  0
 10 48  1  1
 11 49  1  0
 11 50  1  0
 12 51  1  0
 12 52  1  0
 14 53  1  0
 14 54  1  0
 14 55  1  0
 15 56  1  6
 16 57  1  0
 16 58  1  0
 17 59  1  0
 19 60  1  1
 20 61  1  0
 20 62  1  0
 21 63  1  0
 21 64  1  0
 22 65  1  1
 23 66  1  0
 25 67  1  0
 25 68  1  0
 25 69  1  0
 26 70  1  0
 26 71  1  0
 26 72  1  0
 28 73  1  0
 28 74  1  0
 28 75  1  0
 29 76  1  0
 29 77  1  0
 30 78  1  0
 30 79  1  0
 32 80  1  0
 32 81  1  0
 32 82  1  0
M  END
>  <meeko>  (8) 
{"is_sidechain": [false], "intermolecular_energy": 2.731, "internal_energy": -0.839}

$$$$
EPH_relaxed_0001_pdb2pqr_Repair_80_r2_0001_out
     RDKit          3D

 82 86  0  0  0  0  0  0  0  0999 V2000
    3.0910   18.7480   -1.4570 C   0  0  0  0  0  0  0  0  0  0  0  0
    2.5760   17.6620   -2.4060 C   0  0  2  0  0  0  0  0  0  0  0  0
    1.1240   17.9230   -2.8530 C   0  0  0  0  0  0  0  0  0  0  0  0
    0.5310   19.2190   -2.2940 C   0  0  0  0  0  0  0  0  0  0  0  0
   -0.8310   18.9970   -1.7070 C   0  0  2  0  0  0  0  0  0  0  0  0
   -1.5950   20.1920   -1.5010 O   0  0  0  0  0  0  0  0  0  0  0  0
   -1.2290   19.4620   -0.3190 C   0  0  0  0  0  0  0  0  0  0  0  0
   -0.2650   20.1850    0.5680 C   0  0  0  0  0  0  0  0  0  0  0  0
   -2.3840   18.7910    0.3560 C   0  0  0  0  0  0  0  0  0  0  0  0
    2.6780   16.2960   -1.7370 C   0  0  1  0  0  0  0  0  0  0  0  0
    3.2640   16.3760   -0.3020 C   0  0  0  0  0  0  0  0  0  0  0  0
    2.5480   15.2840    0.5350 C   0  0  0  0  0  0  0  0  0  0  0  0
    1.8260   14.4020   -0.5100 C   0  0  1  0  0  0  0  0  0  0  0  0
    2.9290   13.4410   -1.0540 C   0  0  0  0  0  0  0  0  0  0  0  0
    0.5730   13.6160   -0.0040 C   0  0  2  0  0  0  0  0  0  0  0  0
    0.8550   12.5820    1.1000 C   0  0  0  0  0  0  0  0  0  0  0  0
    1.1750   11.2060    0.6190 C   0  0  0  0  0  0  0  0  0  0  0  0
    0.9580   10.7430   -0.6260 C   0  0  0  0  0  0  0  0  0  0  0  0
    0.2440   11.6060   -1.6750 C   0  0  1  0  0  0  0  0  0  0  0  0
   -0.8380   10.7580   -2.3930 C   0  0  0  0  0  0  0  0  0  0  0  0
   -0.2750    9.4690   -2.9840 C   0  0  0  0  0  0  0  0  0  0  0  0
    0.3750    8.6120   -1.9020 C   0  0  2  0  0  0  0  0  0  0  0  0
   -0.6410    8.1530   -1.0050 O   0  0  0  0  0  0  0  0  0  0  0  0
    1.4760    9.3640   -1.1030 C   0  0  0  0  0  0  0  0  0  0  0  0
    2.7110    9.5950   -2.0090 C   0  0  0  0  0  0  0  0  0  0  0  0
    1.9500    8.4350    0.0470 C   0  0  0  0  0  0  0  0  0  0  0  0
   -0.3160   13.0010   -1.1590 C   0  0  1  0  0  0  0  0  0  0  0  0
   -1.7470   12.8140   -0.5670 C   0  0  0  0  0  0  0  0  0  0  0  0
   -0.4670   13.9790   -2.3840 C   0  0  0  0  0  0  0  0  0  0  0  0
    0.7700   14.8160   -2.7600 C   0  0  0  0  0  0  0  0  0  0  0  0
    1.3610   15.5070   -1.5280 C   0  0  2  0  0  0  0  0  0  0  0  0
    0.2820   16.4980   -0.9710 C   0  0  0  0  0  0  0  0  0  0  0  0
    2.9389   18.4273   -0.4158 H   0  0  0  0  0  0  0  0  0  0  0  0
    4.1635   18.9135   -1.6368 H   0  0  0  0  0  0  0  0  0  0  0  0
    2.5405   19.6832   -1.6368 H   0  0  0  0  0  0  0  0  0  0  0  0
    3.2073   17.6826   -3.3066 H   0  0  0  0  0  0  0  0  0  0  0  0
    1.1033   17.9772   -3.9515 H   0  0  0  0  0  0  0  0  0  0  0  0
    0.5138   17.0956   -2.4618 H   0  0  0  0  0  0  0  0  0  0  0  0
    1.1981   19.6075   -1.5103 H   0  0  0  0  0  0  0  0  0  0  0  0
    0.4352   19.9375   -3.1214 H   0  0  0  0  0  0  0  0  0  0  0  0
   -0.9163   18.0232   -2.2114 H   0  0  0  0  0  0  0  0  0  0  0  0
   -0.5206   19.9933    1.6206 H   0  0  0  0  0  0  0  0  0  0  0  0
    0.7560   19.8281    0.3678 H   0  0  0  0  0  0  0  0  0  0  0  0
   -0.3217   21.2651    0.3678 H   0  0  0  0  0  0  0  0  0  0  0  0
   -2.2625   18.8616    1.4470 H   0  0  0  0  0  0  0  0  0  0  0  0
   -3.3204   19.2857    0.0586 H   0  0  0  0  0  0  0  0  0  0  0  0
   -2.4180   17.7325    0.0586 H   0  0  0  0  0  0  0  0  0  0  0  0
    3.3147   15.7785   -2.4696 H   0  0  0  0  0  0  0  0  0  0  0  0
    4.3474   16.1868   -0.3241 H   0  0  0  0  0  0  0  0  0  0  0  0
    3.1073   17.3738    0.1337 H   0  0  0  0  0  0  0  0  0  0  0  0
    3.2781   14.6911    1.1055 H   0  0  0  0  0  0  0  0  0  0  0  0
    1.8521   15.7124    1.2714 H   0  0  0  0  0  0  0  0  0  0  0  0
    3.4607   12.9778   -0.2097 H   0  0  0  0  0  0  0  0  0  0  0  0
    2.4619   12.6568   -1.6678 H   0  0  0  0  0  0  0  0  0  0  0  0
    3.6419   14.0111   -1.6678 H   0  0  0  0  0  0  0  0  0  0  0  0
   -0.0259   14.4063    0.4723 H   0  0  0  0  0  0  0  0  0  0  0  0
    1.7090   12.9420    1.6925 H   0  0  0  0  0  0  0  0  0  0  0  0
   -0.0766   12.4929    1.6781 H   0  0  0  0  0  0  0  0  0  0  0  0
    1.6263   10.5116    1.3430 H   0  0  0  0  0  0  0  0  0  0  0  0
    1.0168   11.9118   -2.3956 H   0  0  0  0  0  0  0  0  0  0  0  0
   -1.6227   10.4995   -1.6667 H   0  0  0  0  0  0  0  0  0  0  0  0
   -1.2367   11.3595   -3.2233 H   0  0  0  0  0  0  0  0  0  0  0  0
   -1.0923    8.9001   -3.4513 H   0  0  0  0  0  0  0  0  0  0  0  0
    0.4886    9.7295   -3.7317 H   0  0  0  0  0  0  0  0  0  0  0  0
    0.8725    7.7691   -2.4041 H   0  0  0  0  0  0  0  0  0  0  0  0
   -0.5310    7.1920   -0.9020 H   0  0  0  0  0  0  0  0  0  0  0  0
    3.5996    9.7612   -1.3823 H   0  0  0  0  0  0  0  0  0  0  0  0
    2.8703    8.7111   -2.6441 H   0  0  0  0  0  0  0  0  0  0  0  0
    2.5401   10.4768   -2.6441 H   0  0  0  0  0  0  0  0  0  0  0  0
    1.7128    8.8999    1.0153 H   0  0  0  0  0  0  0  0  0  0  0  0
    1.4365    7.4652   -0.0297 H   0  0  0  0  0  0  0  0  0  0  0  0
    3.0365    8.2816   -0.0297 H   0  0  0  0  0  0  0  0  0  0  0  0
   -1.6931   12.8210    0.5317 H   0  0  0  0  0  0  0  0  0  0  0  0
   -2.3949   13.6351   -0.9076 H   0  0  0  0  0  0  0  0  0  0  0  0
   -2.1621   11.8540   -0.9076 H   0  0  0  0  0  0  0  0  0  0  0  0
   -0.7389   13.3740   -3.2615 H   0  0  0  0  0  0  0  0  0  0  0  0
   -1.2277   14.7114   -2.0760 H   0  0  0  0  0  0  0  0  0  0  0  0
    1.5307   14.1552   -3.2012 H   0  0  0  0  0  0  0  0  0  0  0  0
    0.4643   15.5880   -3.4815 H   0  0  0  0  0  0  0  0  0  0  0  0
    0.3010   16.4805    0.1287 H   0  0  0  0  0  0  0  0  0  0  0  0
    0.5014   17.5160   -1.3254 H   0  0  0  0  0  0  0  0  0  0  0  0
   -0.7137   16.1930   -1.3254 H   0  0  0  0  0  0  0  0  0  0  0  0
  1  2  1  0
  2  3  1  0
  3  4  1  0
  4  5  1  0
  5  6  1  0
  6  7  1  0
  7  8  1  0
  7  9  1  0
  2 10  1  0
 10 11  1  0
 11 12  1  0
 12 13  1  0
 13 14  1  6
 13 15  1  0
 15 16  1  0
 16 17  1  0
 17 18  2  0
 18 19  1  0
 19 20  1  0
 20 21  1  0
 21 22  1  0
 22 23  1  0
 22 24  1  0
 24 25  1  0
 24 26  1  0
 19 27  1  0
 27 28  1  1
 27 29  1  0
 29 30  1  0
 30 31  1  0
 31 32  1  1
  7  5  1  0
 31 10  1  0
 31 13  1  0
 27 15  1  0
 24 18  1  0
  1 33  1  0
  1 34  1  0
  1 35  1  0
  2 36  1  6
  3 37  1  0
  3 38  1  0
  4 39  1  0
  4 40  1  0
  5 41  1  6
  8 42  1  0
  8 43  1  0
  8 44  1  0
  9 45  1  0
  9 46  1  0
  9 47  1  0
 10 48  1  6
 11 49  1  0
 11 50  1  0
 12 51  1  0
 12 52  1  0
 14 53  1  0
 14 54  1  0
 14 55  1  0
 15 56  1  1
 16 57  1  0
 16 58  1  0
 17 59  1  0
 19 60  1  6
 20 61  1  0
 20 62  1  0
 21 63  1  0
 21 64  1  0
 22 65  1  6
 23 66  1  0
 25 67  1  0
 25 68  1  0
 25 69  1  0
 26 70  1  0
 26 71  1  0
 26 72  1  0
 28 73  1  0
 28 74  1  0
 28 75  1  0
 29 76  1  0
 29 77  1  0
 30 78  1  0
 30 79  1  0
 32 80  1  0
 32 81  1  0
 32 82  1  0
M  END
>  <meeko>  (9) 
{"is_sidechain": [false], "intermolecular_energy": 2.731, "internal_energy": -0.839}

$$$$
EPH_relaxed_0001_pdb2pqr_Repair_80_r2_0001_out
     RDKit          3D

 82 86  0  0  0  0  0  0  0  0999 V2000
   -0.8520   16.3510   -5.8350 C   0  0  0  0  0  0  0  0  0  0  0  0
    0.2340   15.6450   -6.6520 C   0  0  2  0  0  0  0  0  0  0  0  0
   -0.1750   15.4660   -8.1280 C   0  0  0  0  0  0  0  0  0  0  0  0
    0.4540   16.4960   -9.0700 C   0  0  0  0  0  0  0  0  0  0  0  0
    1.8540   16.1190   -9.4490 C   0  0  2  0  0  0  0  0  0  0  0  0
    2.3160   16.6900  -10.6810 O   0  0  0  0  0  0  0  0  0  0  0  0
    2.1920   15.2590  -10.6520 C   0  0  0  0  0  0  0  0  0  0  0  0
    1.1240   14.7220  -11.5530 C   0  0  0  0  0  0  0  0  0  0  0  0
    3.5060   14.5400  -10.6710 C   0  0  0  0  0  0  0  0  0  0  0  0
    0.5520   14.2900   -6.0320 C   0  0  1  0  0  0  0  0  0  0  0  0
    1.8120   13.6300   -6.6520 C   0  0  0  0  0  0  0  0  0  0  0  0
    2.5230   12.8610   -5.5090 C   0  0  0  0  0  0  0  0  0  0  0  0
    1.4880   12.8240   -4.3610 C   0  0  1  0  0  0  0  0  0  0  0  0
    0.5270   11.6490   -4.7240 C   0  0  0  0  0  0  0  0  0  0  0  0
    2.0640   12.6730   -2.9150 C   0  0  2  0  0  0  0  0  0  0  0  0
    2.8310   11.3650   -2.6520 C   0  0  0  0  0  0  0  0  0  0  0  0
    2.0050   10.2330   -2.1390 C   0  0  0  0  0  0  0  0  0  0  0  0
    0.7630   10.3390   -1.6300 C   0  0  0  0  0  0  0  0  0  0  0  0
    0.1040   11.7110   -1.4410 C   0  0  1  0  0  0  0  0  0  0  0  0
   -0.5370   11.7880   -0.0300 C   0  0  0  0  0  0  0  0  0  0  0  0
   -1.5000   10.6360    0.2380 C   0  0  0  0  0  0  0  0  0  0  0  0
   -0.7930    9.2900    0.0980 C   0  0  2  0  0  0  0  0  0  0  0  0
    0.1760    9.1670    1.1440 O   0  0  0  0  0  0  0  0  0  0  0  0
   -0.1010    9.1020   -1.2810 C   0  0  0  0  0  0  0  0  0  0  0  0
   -1.1760    8.9330   -2.3840 C   0  0  0  0  0  0  0  0  0  0  0  0
    0.6920    7.7680   -1.2390 C   0  0  0  0  0  0  0  0  0  0  0  0
    1.0170   12.9700   -1.7660 C   0  0  1  0  0  0  0  0  0  0  0  0
    1.8430   13.3680   -0.5040 C   0  0  0  0  0  0  0  0  0  0  0  0
    0.0960   14.2020   -2.1000 C   0  0  0  0  0  0  0  0  0  0  0  0
   -0.3430   14.3640   -3.5680 C   0  0  0  0  0  0  0  0  0  0  0  0
    0.8580   14.2570   -4.5130 C   0  0  2  0  0  0  0  0  0  0  0  0
    1.8320   15.4390   -4.1860 C   0  0  0  0  0  0  0  0  0  0  0  0
   -0.6481   16.2185   -4.7622 H   0  0  0  0  0  0  0  0  0  0  0  0
   -0.8544   17.4238   -6.0780 H   0  0  0  0  0  0  0  0  0  0  0  0
   -1.8335   15.9178   -6.0780 H   0  0  0  0  0  0  0  0  0  0  0  0
    1.1304   16.2823   -6.6324 H   0  0  0  0  0  0  0  0  0  0  0  0
    0.1341   14.4622   -8.4548 H   0  0  0  0  0  0  0  0  0  0  0  0
   -1.2647   15.6069   -8.1790 H   0  0  0  0  0  0  0  0  0  0  0  0
   -0.1563   16.5638   -9.9827 H   0  0  0  0  0  0  0  0  0  0  0  0
    0.4893   17.4627   -8.5464 H   0  0  0  0  0  0  0  0  0  0  0  0
    2.1484   16.0564   -8.3910 H   0  0  0  0  0  0  0  0  0  0  0  0
    0.3047   14.3101  -10.9455 H   0  0  0  0  0  0  0  0  0  0  0  0
    0.7378   15.5331  -12.1878 H   0  0  0  0  0  0  0  0  0  0  0  0
    1.5447   13.9282  -12.1878 H   0  0  0  0  0  0  0  0  0  0  0  0
    3.8392   14.3577   -9.6386 H   0  0  0  0  0  0  0  0  0  0  0  0
    3.3907   13.5793  -11.1942 H   0  0  0  0  0  0  0  0  0  0  0  0
    4.2530   15.1551  -11.1942 H   0  0  0  0  0  0  0  0  0  0  0  0
   -0.3938   13.7672   -6.2370 H   0  0  0  0  0  0  0  0  0  0  0  0
    1.5200   12.9341   -7.4523 H   0  0  0  0  0  0  0  0  0  0  0  0
    2.4778   14.3868   -7.0924 H   0  0  0  0  0  0  0  0  0  0  0  0
    2.7834   11.8416   -5.8301 H   0  0  0  0  0  0  0  0  0  0  0  0
    3.4650   13.3414   -5.2060 H   0  0  0  0  0  0  0  0  0  0  0  0
    0.1485   11.1862   -3.8006 H   0  0  0  0  0  0  0  0  0  0  0  0
   -0.3176   12.0349   -5.3136 H   0  0  0  0  0  0  0  0  0  0  0  0
    1.0728   10.8977   -5.3136 H   0  0  0  0  0  0  0  0  0  0  0  0
    2.8167   13.4742   -2.8757 H   0  0  0  0  0  0  0  0  0  0  0  0
    3.2939   11.0466   -3.5977 H   0  0  0  0  0  0  0  0  0  0  0  0
    3.5590   11.5936   -1.8597 H   0  0  0  0  0  0  0  0  0  0  0  0
    2.4482    9.2271   -2.1802 H   0  0  0  0  0  0  0  0  0  0  0  0
   -0.6786   11.7805   -2.2108 H   0  0  0  0  0  0  0  0  0  0  0  0
    0.2641   11.7606    0.7233 H   0  0  0  0  0  0  0  0  0  0  0  0
   -1.1122   12.7240    0.0250 H   0  0  0  0  0  0  0  0  0  0  0  0
   -1.8975   10.7293    1.2594 H   0  0  0  0  0  0  0  0  0  0  0  0
   -2.3161   10.6821   -0.4981 H   0  0  0  0  0  0  0  0  0  0  0  0
   -1.5600    8.5051    0.1732 H   0  0  0  0  0  0  0  0  0  0  0  0
    0.0760    8.2830    1.5360 H   0  0  0  0  0  0  0  0  0  0  0  0
   -2.1597    8.7784   -1.9166 H   0  0  0  0  0  0  0  0  0  0  0  0
   -1.2052    9.8376   -3.0092 H   0  0  0  0  0  0  0  0  0  0  0  0
   -0.9263    8.0631   -3.0092 H   0  0  0  0  0  0  0  0  0  0  0  0
    0.8650    7.4771   -0.1924 H   0  0  0  0  0  0  0  0  0  0  0  0
    0.1144    6.9819   -1.7474 H   0  0  0  0  0  0  0  0  0  0  0  0
    1.6585    7.8998   -1.7474 H   0  0  0  0  0  0  0  0  0  0  0  0
    1.2813   13.0973    0.4022 H   0  0  0  0  0  0  0  0  0  0  0  0
    2.8050   12.8345   -0.5121 H   0  0  0  0  0  0  0  0  0  0  0  0
    2.0252   14.4528   -0.5121 H   0  0  0  0  0  0  0  0  0  0  0  0
   -0.8140   14.1125   -1.4886 H   0  0  0  0  0  0  0  0  0  0  0  0
    0.7113   15.0879   -1.8844 H   0  0  0  0  0  0  0  0  0  0  0  0
   -1.0680   13.5748   -3.8162 H   0  0  0  0  0  0  0  0  0  0  0  0
   -0.7992   15.3574   -3.6907 H   0  0  0  0  0  0  0  0  0  0  0  0
    1.9223   15.5486   -3.0952 H   0  0  0  0  0  0  0  0  0  0  0  0
    2.8220   15.2281   -4.6166 H   0  0  0  0  0  0  0  0  0  0  0  0
    1.4358   16.3705   -4.6166 H   0  0  0  0  0  0  0  0  0  0  0  0
  1  2  1  0
  2  3  1  0
  3  4  1  0
  4  5  1  0
  5  6  1  0
  6  7  1  0
  7  8  1  0
  7  9  1  0
  2 10  1  0
 10 11  1  0
 11 12  1  0
 12 13  1  0
 13 14  1  6
 13 15  1  0
 15 16  1  0
 16 17  1  0
 17 18  2  0
 18 19  1  0
 19 20  1  0
 20 21  1  0
 21 22  1  0
 22 23  1  0
 22 24  1  0
 24 25  1  0
 24 26  1  0
 19 27  1  0
 27 28  1  1
 27 29  1  0
 29 30  1  0
 30 31  1  0
 31 32  1  1
  7  5  1  0
 31 10  1  0
 31 13  1  0
 27 15  1  0
 24 18  1  0
  1 33  1  0
  1 34  1  0
  1 35  1  0
  2 36  1  6
  3 37  1  0
  3 38  1  0
  4 39  1  0
  4 40  1  0
  5 41  1  1
  8 42  1  0
  8 43  1  0
  8 44  1  0
  9 45  1  0
  9 46  1  0
  9 47  1  0
 10 48  1  1
 11 49  1  0
 11 50  1  0
 12 51  1  0
 12 52  1  0
 14 53  1  0
 14 54  1  0
 14 55  1  0
 15 56  1  6
 16 57  1  0
 16 58  1  0
 17 59  1  0
 19 60  1  6
 20 61  1  0
 20 62  1  0
 21 63  1  0
 21 64  1  0
 22 65  1  1
 23 66  1  0
 25 67  1  0
 25 68  1  0
 25 69  1  0
 26 70  1  0
 26 71  1  0
 26 72  1  0
 28 73  1  0
 28 74  1  0
 28 75  1  0
 29 76  1  0
 29 77  1  0
 30 78  1  0
 30 79  1  0
 32 80  1  0
 32 81  1  0
 32 82  1  0
M  END
>  <meeko>  (10) 
{"is_sidechain": [false], "intermolecular_energy": 2.731, "internal_energy": -0.839}

$$$$
EPH_relaxed_0001_pdb2pqr_Repair_80_r2_0001_out
     RDKit          3D

 82 86  0  0  0  0  0  0  0  0999 V2000
    0.0340   18.3930   -2.6980 C   0  0  0  0  0  0  0  0  0  0  0  0
    0.6340   17.6310   -1.5130 C   0  0  2  0  0  0  0  0  0  0  0  0
    1.9350   18.2830   -1.0030 C   0  0  0  0  0  0  0  0  0  0  0  0
    1.7600   19.0690    0.2990 C   0  0  0  0  0  0  0  0  0  0  0  0
    0.5240   19.9160    0.2740 C   0  0  2  0  0  0  0  0  0  0  0  0
   -0.0490   20.1770    1.5620 O   0  0  0  0  0  0  0  0  0  0  0  0
   -0.8510   19.4010    0.6570 C   0  0  0  0  0  0  0  0  0  0  0  0
   -1.0600   17.9840    1.0920 C   0  0  0  0  0  0  0  0  0  0  0  0
   -2.0560   20.1270    0.1440 C   0  0  0  0  0  0  0  0  0  0  0  0
    0.8980   16.1830   -1.9070 C   0  0  1  0  0  0  0  0  0  0  0  0
    2.2720   15.9920   -2.6010 C   0  0  0  0  0  0  0  0  0  0  0  0
    2.8070   14.6050   -2.1620 C   0  0  0  0  0  0  0  0  0  0  0  0
    1.5910   13.9080   -1.5070 C   0  0  1  0  0  0  0  0  0  0  0  0
    0.7570   13.3490   -2.7020 C   0  0  0  0  0  0  0  0  0  0  0  0
    1.9160   12.7950   -0.4580 C   0  0  2  0  0  0  0  0  0  0  0  0
    2.6800   11.5800   -1.0120 C   0  0  0  0  0  0  0  0  0  0  0  0
    1.8260   10.4640   -1.5160 C   0  0  0  0  0  0  0  0  0  0  0  0
    0.5120   10.3110   -1.2670 C   0  0  0  0  0  0  0  0  0  0  0  0
   -0.2280   11.2680   -0.3230 C   0  0  1  0  0  0  0  0  0  0  0  0
   -1.1050   10.4500    0.6610 C   0  0  0  0  0  0  0  0  0  0  0  0
   -2.0510    9.4920   -0.0560 C   0  0  0  0  0  0  0  0  0  0  0  0
   -1.2740    8.5190   -0.9400 C   0  0  2  0  0  0  0  0  0  0  0  0
   -0.4960    7.6580   -0.1030 O   0  0  0  0  0  0  0  0  0  0  0  0
   -0.3480    9.2290   -1.9660 C   0  0  0  0  0  0  0  0  0  0  0  0
   -1.2070    9.9190   -3.0540 C   0  0  0  0  0  0  0  0  0  0  0  0
    0.4810    8.1380   -2.6950 C   0  0  0  0  0  0  0  0  0  0  0  0
    0.6750   12.3470    0.4170 C   0  0  1  0  0  0  0  0  0  0  0  0
    1.2530   11.7450    1.7340 C   0  0  0  0  0  0  0  0  0  0  0  0
   -0.2260   13.5660    0.8440 C   0  0  0  0  0  0  0  0  0  0  0  0
   -0.4110   14.6900   -0.1930 C   0  0  0  0  0  0  0  0  0  0  0  0
    0.9380   15.1320   -0.7690 C   0  0  2  0  0  0  0  0  0  0  0  0
    1.7900   15.7200    0.4070 C   0  0  0  0  0  0  0  0  0  0  0  0
   -0.6062   19.2060   -2.3249 H   0  0  0  0  0  0  0  0  0  0  0  0
    0.8442   18.8158   -3.3102 H   0  0  0  0  0  0  0  0  0  0  0  0
   -0.5671   17.7046   -3.3102 H   0  0  0  0  0  0  0  0  0  0  0  0
   -0.0974   17.6660   -0.6921 H   0  0  0  0  0  0  0  0  0  0  0  0
    2.6775   17.4895   -0.8325 H   0  0  0  0  0  0  0  0  0  0  0  0
    2.2573   19.0012   -1.7713 H   0  0  0  0  0  0  0  0  0  0  0  0
    1.6890   18.3596    1.1367 H   0  0  0  0  0  0  0  0  0  0  0  0
    2.6285   19.7336    0.4174 H   0  0  0  0  0  0  0  0  0  0  0  0
    0.8877   20.4623   -0.6087 H   0  0  0  0  0  0  0  0  0  0  0  0
   -1.0672   17.9351    2.1909 H   0  0  0  0  0  0  0  0  0  0  0  0
   -2.0217   17.6189    0.7024 H   0  0  0  0  0  0  0  0  0  0  0  0
   -0.2446   17.3568    0.7024 H   0  0  0  0  0  0  0  0  0  0  0  0
   -2.6554   20.4881    0.9927 H   0  0  0  0  0  0  0  0  0  0  0  0
   -1.7354   20.9824   -0.4688 H   0  0  0  0  0  0  0  0  0  0  0  0
   -2.6624   19.4438   -0.4688 H   0  0  0  0  0  0  0  0  0  0  0  0
    0.0247   16.0068   -2.5522 H   0  0  0  0  0  0  0  0  0  0  0  0
    2.1516   16.0228   -3.6940 H   0  0  0  0  0  0  0  0  0  0  0  0
    2.9716   16.7923   -2.3180 H   0  0  0  0  0  0  0  0  0  0  0  0
    3.1611   14.0322   -3.0318 H   0  0  0  0  0  0  0  0  0  0  0  0
    3.6620   14.6858   -1.4747 H   0  0  0  0  0  0  0  0  0  0  0  0
   -0.0985   12.7756   -2.3156 H   0  0  0  0  0  0  0  0  0  0  0  0
    0.3908   14.1848   -3.3163 H   0  0  0  0  0  0  0  0  0  0  0  0
    1.3909   12.6927   -3.3163 H   0  0  0  0  0  0  0  0  0  0  0  0
    2.6167   13.3057    0.2189 H   0  0  0  0  0  0  0  0  0  0  0  0
    3.3119   11.9262   -1.8432 H   0  0  0  0  0  0  0  0  0  0  0  0
    3.2501   11.1682   -0.1662 H   0  0  0  0  0  0  0  0  0  0  0  0
    2.3115    9.7024   -2.1439 H   0  0  0  0  0  0  0  0  0  0  0  0
   -0.8688   11.8920   -0.9633 H   0  0  0  0  0  0  0  0  0  0  0  0
   -0.4451    9.8666    1.3200 H   0  0  0  0  0  0  0  0  0  0  0  0
   -1.7199   11.1620    1.2311 H   0  0  0  0  0  0  0  0  0  0  0  0
   -2.6215    8.9220    0.6921 H   0  0  0  0  0  0  0  0  0  0  0  0
   -2.7303   10.0789   -0.6918 H   0  0  0  0  0  0  0  0  0  0  0  0
   -2.0080    7.9462   -1.5258 H   0  0  0  0  0  0  0  0  0  0  0  0
   -1.0590    6.9080    0.1520 H   0  0  0  0  0  0  0  0  0  0  0  0
   -1.9785   10.5387   -2.5737 H   0  0  0  0  0  0  0  0  0  0  0  0
   -0.5639   10.5544   -3.6806 H   0  0  0  0  0  0  0  0  0  0  0  0
   -1.6888    9.1540   -3.6806 H   0  0  0  0  0  0  0  0  0  0  0  0
    0.9715    7.4924   -1.9516 H   0  0  0  0  0  0  0  0  0  0  0  0
   -0.1856    7.5308   -3.3250 H   0  0  0  0  0  0  0  0  0  0  0  0
    1.2446    8.6176   -3.3250 H   0  0  0  0  0  0  0  0  0  0  0  0
    0.7822   12.2353    2.5988 H   0  0  0  0  0  0  0  0  0  0  0  0
    1.0444   10.6654    1.7662 H   0  0  0  0  0  0  0  0  0  0  0  0
    2.3402   11.9095    1.7662 H   0  0  0  0  0  0  0  0  0  0  0  0
   -1.2234   13.1726    1.0898 H   0  0  0  0  0  0  0  0  0  0  0  0
    0.3048   14.0353    1.6855 H   0  0  0  0  0  0  0  0  0  0  0  0
   -1.0488   14.3236   -1.0109 H   0  0  0  0  0  0  0  0  0  0  0  0
   -0.8796   15.5522    0.3040 H   0  0  0  0  0  0  0  0  0  0  0  0
    1.3487   15.4154    1.3675 H   0  0  0  0  0  0  0  0  0  0  0  0
    2.8199   15.3395    0.3396 H   0  0  0  0  0  0  0  0  0  0  0  0
    1.7996   16.8179    0.3396 H   0  0  0  0  0  0  0  0  0  0  0  0
  1  2  1  0
  2  3  1  0
  3  4  1  0
  4  5  1  0
  5  6  1  0
  6  7  1  0
  7  8  1  0
  7  9  1  0
  2 10  1  0
 10 11  1  0
 11 12  1  0
 12 13  1  0
 13 14  1  6
 13 15  1  0
 15 16  1  0
 16 17  1  0
 17 18  2  0
 18 19  1  0
 19 20  1  0
 20 21  1  0
 21 22  1  0
 22 23  1  0
 22 24  1  0
 24 25  1  0
 24 26  1  0
 19 27  1  0
 27 28  1  1
 27 29  1  0
 29 30  1  0
 30 31  1  0
 31 32  1  1
  7  5  1  0
 31 10  1  0
 31 13  1  0
 27 15  1  0
 24 18  1  0
  1 33  1  0
  1 34  1  0
  1 35  1  0
  2 36  1  1
  3 37  1  0
  3 38  1  0
  4 39  1  0
  4 40  1  0
  5 41  1  6
  8 42  1  0
  8 43  1  0
  8 44  1  0
  9 45  1  0
  9 46  1  0
  9 47  1  0
 10 48  1  6
 11 49  1  0
 11 50  1  0
 12 51  1  0
 12 52  1  0
 14 53  1  0
 14 54  1  0
 14 55  1  0
 15 56  1  1
 16 57  1  0
 16 58  1  0
 17 59  1  0
 19 60  1  6
 20 61  1  0
 20 62  1  0
 21 63  1  0
 21 64  1  0
 22 65  1  6
 23 66  1  0
 25 67  1  0
 25 68  1  0
 25 69  1  0
 26 70  1  0
 26 71  1  0
 26 72  1  0
 28 73  1  0
 28 74  1  0
 28 75  1  0
 29 76  1  0
 29 77  1  0
 30 78  1  0
 30 79  1  0
 32 80  1  0
 32 81  1  0
 32 82  1  0
M  END
>  <meeko>  (11) 
{"is_sidechain": [false], "intermolecular_energy": 2.731, "internal_energy": -0.839}

$$$$
EPH_relaxed_0001_pdb2pqr_Repair_80_r2_0001_out
     RDKit          3D

 82 86  0  0  0  0  0  0  0  0999 V2000
   -1.1470    7.7440   -1.3370 C   0  0  0  0  0  0  0  0  0  0  0  0
   -1.8210    8.6560   -0.3080 C   0  0  2  0  0  0  0  0  0  0  0  0
   -3.3580    8.6270   -0.4250 C   0  0  0  0  0  0  0  0  0  0  0  0
   -3.8650    8.0010   -1.7260 C   0  0  0  0  0  0  0  0  0  0  0  0
   -5.3180    7.6440   -1.6410 C   0  0  2  0  0  0  0  0  0  0  0  0
   -5.5790    6.2650   -1.3480 O   0  0  0  0  0  0  0  0  0  0  0  0
   -6.0160    6.7330   -2.6340 C   0  0  0  0  0  0  0  0  0  0  0  0
   -5.2790    6.1250   -3.7850 C   0  0  0  0  0  0  0  0  0  0  0  0
   -7.5040    6.8280   -2.7680 C   0  0  0  0  0  0  0  0  0  0  0  0
   -1.3130   10.0840   -0.4690 C   0  0  1  0  0  0  0  0  0  0  0  0
   -0.7610   10.6750    0.8560 C   0  0  0  0  0  0  0  0  0  0  0  0
    0.4280   11.5940    0.4760 C   0  0  0  0  0  0  0  0  0  0  0  0
    0.3130   11.7650   -1.0570 C   0  0  1  0  0  0  0  0  0  0  0  0
   -0.7700   12.8710   -1.2580 C   0  0  0  0  0  0  0  0  0  0  0  0
    1.6370   12.1090   -1.8150 C   0  0  2  0  0  0  0  0  0  0  0  0
    2.2830   13.4500   -1.4230 C   0  0  0  0  0  0  0  0  0  0  0  0
    1.8460   14.6280   -2.2290 C   0  0  0  0  0  0  0  0  0  0  0  0
    1.1910   14.5730   -3.4040 C   0  0  0  0  0  0  0  0  0  0  0  0
    0.9120   13.2280   -4.0870 C   0  0  1  0  0  0  0  0  0  0  0  0
    1.2780   13.3260   -5.5910 C   0  0  0  0  0  0  0  0  0  0  0  0
    0.5820   14.4900   -6.2890 C   0  0  0  0  0  0  0  0  0  0  0  0
    0.9310   15.8160   -5.6160 C   0  0  2  0  0  0  0  0  0  0  0  0
    2.3210   16.0850   -5.8220 O   0  0  0  0  0  0  0  0  0  0  0  0
    0.6140   15.8330   -4.0950 C   0  0  0  0  0  0  0  0  0  0  0  0
   -0.9200   15.8440   -3.8820 C   0  0  0  0  0  0  0  0  0  0  0  0
    1.1430   17.1710   -3.5120 C   0  0  0  0  0  0  0  0  0  0  0  0
    1.5450   11.9500   -3.3870 C   0  0  1  0  0  0  0  0  0  0  0  0
    3.0010   11.7290   -3.8980 C   0  0  0  0  0  0  0  0  0  0  0  0
    0.7270   10.6730   -3.8110 C   0  0  0  0  0  0  0  0  0  0  0  0
   -0.5010   10.3170   -2.9510 C   0  0  0  0  0  0  0  0  0  0  0  0
   -0.1460   10.3170   -1.4620 C   0  0  2  0  0  0  0  0  0  0  0  0
    0.9260    9.1990   -1.2250 C   0  0  0  0  0  0  0  0  0  0  0  0
   -0.5714    6.9652   -0.8154 H   0  0  0  0  0  0  0  0  0  0  0  0
   -1.9150    7.2720   -1.9674 H   0  0  0  0  0  0  0  0  0  0  0  0
   -0.4704    8.3397   -1.9674 H   0  0  0  0  0  0  0  0  0  0  0  0
   -1.5593    8.2784    0.6914 H   0  0  0  0  0  0  0  0  0  0  0  0
   -3.7595    8.0468    0.4189 H   0  0  0  0  0  0  0  0  0  0  0  0
   -3.7004    9.6723   -0.4169 H   0  0  0  0  0  0  0  0  0  0  0  0
   -3.7220    8.7195   -2.5465 H   0  0  0  0  0  0  0  0  0  0  0  0
   -3.2954    7.0774   -1.9064 H   0  0  0  0  0  0  0  0  0  0  0  0
   -5.5657    8.6450   -1.2579 H   0  0  0  0  0  0  0  0  0  0  0  0
   -4.4828    5.4682   -3.4047 H   0  0  0  0  0  0  0  0  0  0  0  0
   -5.9777    5.5371   -4.3983 H   0  0  0  0  0  0  0  0  0  0  0  0
   -4.8346    6.9227   -4.3983 H   0  0  0  0  0  0  0  0  0  0  0  0
   -7.9611    6.8572   -1.7679 H   0  0  0  0  0  0  0  0  0  0  0  0
   -7.7649    7.7446   -3.3173 H   0  0  0  0  0  0  0  0  0  0  0  0
   -7.8794    5.9520   -3.3173 H   0  0  0  0  0  0  0  0  0  0  0  0
   -2.2288   10.5634   -0.8453 H   0  0  0  0  0  0  0  0  0  0  0  0
   -1.5426   11.2581    1.3651 H   0  0  0  0  0  0  0  0  0  0  0  0
   -0.4392    9.8762    1.5404 H   0  0  0  0  0  0  0  0  0  0  0  0
    0.3446   12.5667    0.9828 H   0  0  0  0  0  0  0  0  0  0  0  0
    1.3970   11.1693    0.7773 H   0  0  0  0  0  0  0  0  0  0  0  0
   -1.1178   13.2262   -0.2768 H   0  0  0  0  0  0  0  0  0  0  0  0
   -0.3360   13.7115   -1.8194 H   0  0  0  0  0  0  0  0  0  0  0  0
   -1.6194   12.4547   -1.8194 H   0  0  0  0  0  0  0  0  0  0  0  0
    2.3240   11.3288   -1.4554 H   0  0  0  0  0  0  0  0  0  0  0  0
    2.0388   13.6497   -0.3692 H   0  0  0  0  0  0  0  0  0  0  0  0
    3.3606   13.3352   -1.6114 H   0  0  0  0  0  0  0  0  0  0  0  0
    2.0789   15.6258   -1.8289 H   0  0  0  0  0  0  0  0  0  0  0  0
   -0.1676   13.0488   -3.9761 H   0  0  0  0  0  0  0  0  0  0  0  0
    2.3660   13.4609   -5.6808 H   0  0  0  0  0  0  0  0  0  0  0  0
    0.9430   12.3976   -6.0768 H   0  0  0  0  0  0  0  0  0  0  0  0
    0.9038   14.5240   -7.3403 H   0  0  0  0  0  0  0  0  0  0  0  0
   -0.5057   14.3388   -6.2250 H   0  0  0  0  0  0  0  0  0  0  0  0
    0.3038   16.5946   -6.0748 H   0  0  0  0  0  0  0  0  0  0  0  0
    2.8120   15.6690   -5.0930 H   0  0  0  0  0  0  0  0  0  0  0  0
   -1.1405   15.8456   -2.8043 H   0  0  0  0  0  0  0  0  0  0  0  0
   -1.3480   16.7452   -4.3452 H   0  0  0  0  0  0  0  0  0  0  0  0
   -1.3609   14.9490   -4.3452 H   0  0  0  0  0  0  0  0  0  0  0  0
    1.1247   17.1248   -2.4131 H   0  0  0  0  0  0  0  0  0  0  0  0
    2.1748   17.3379   -3.8549 H   0  0  0  0  0  0  0  0  0  0  0  0
    0.5043   17.9983   -3.8549 H   0  0  0  0  0  0  0  0  0  0  0  0
    3.6796   11.6260   -3.0384 H   0  0  0  0  0  0  0  0  0  0  0  0
    3.0406   10.8146   -4.5081 H   0  0  0  0  0  0  0  0  0  0  0  0
    3.3102   12.5905   -4.5081 H   0  0  0  0  0  0  0  0  0  0  0  0
    0.3771   10.8292   -4.8421 H   0  0  0  0  0  0  0  0  0  0  0  0
    1.4222    9.8303   -3.6826 H   0  0  0  0  0  0  0  0  0  0  0  0
   -1.2939   11.0577   -3.1319 H   0  0  0  0  0  0  0  0  0  0  0  0
   -0.8441    9.3097   -3.2297 H   0  0  0  0  0  0  0  0  0  0  0  0
    1.0683    9.0506   -0.1444 H   0  0  0  0  0  0  0  0  0  0  0  0
    0.5829    8.2592   -1.6821 H   0  0  0  0  0  0  0  0  0  0  0  0
    1.8794    9.5024   -1.6821 H   0  0  0  0  0  0  0  0  0  0  0  0
  1  2  1  0
  2  3  1  0
  3  4  1  0
  4  5  1  0
  5  6  1  0
  6  7  1  0
  7  8  1  0
  7  9  1  0
  2 10  1  0
 10 11  1  0
 11 12  1  0
 12 13  1  0
 13 14  1  1
 13 15  1  0
 15 16  1  0
 16 17  1  0
 17 18  2  0
 18 19  1  0
 19 20  1  0
 20 21  1  0
 21 22  1  0
 22 23  1  0
 22 24  1  0
 24 25  1  0
 24 26  1  0
 19 27  1  0
 27 28  1  6
 27 29  1  0
 29 30  1  0
 30 31  1  0
 31 32  1  6
  7  5  1  0
 31 10  1  0
 31 13  1  0
 27 15  1  0
 24 18  1  0
  1 33  1  0
  1 34  1  0
  1 35  1  0
  2 36  1  1
  3 37  1  0
  3 38  1  0
  4 39  1  0
  4 40  1  0
  5 41  1  1
  8 42  1  0
  8 43  1  0
  8 44  1  0
  9 45  1  0
  9 46  1  0
  9 47  1  0
 10 48  1  6
 11 49  1  0
 11 50  1  0
 12 51  1  0
 12 52  1  0
 14 53  1  0
 14 54  1  0
 14 55  1  0
 15 56  1  1
 16 57  1  0
 16 58  1  0
 17 59  1  0
 19 60  1  6
 20 61  1  0
 20 62  1  0
 21 63  1  0
 21 64  1  0
 22 65  1  6
 23 66  1  0
 25 67  1  0
 25 68  1  0
 25 69  1  0
 26 70  1  0
 26 71  1  0
 26 72  1  0
 28 73  1  0
 28 74  1  0
 28 75  1  0
 29 76  1  0
 29 77  1  0
 30 78  1  0
 30 79  1  0
 32 80  1  0
 32 81  1  0
 32 82  1  0
M  END
>  <meeko>  (12) 
{"is_sidechain": [false], "intermolecular_energy": 2.731, "internal_energy": -0.839}

$$$$
EPH_relaxed_0001_pdb2pqr_Repair_80_r2_0001_out
     RDKit          3D

 82 86  0  0  0  0  0  0  0  0999 V2000
   -3.6440    7.0010   -3.3430 C   0  0  0  0  0  0  0  0  0  0  0  0
   -3.9690    7.2490   -1.8670 C   0  0  2  0  0  0  0  0  0  0  0  0
   -5.4850    7.2110   -1.5910 C   0  0  0  0  0  0  0  0  0  0  0  0
   -6.3310    6.9430   -2.8390 C   0  0  0  0  0  0  0  0  0  0  0  0
   -7.7630    6.6690   -2.4900 C   0  0  2  0  0  0  0  0  0  0  0  0
   -8.6540    6.6240   -3.6120 O   0  0  0  0  0  0  0  0  0  0  0  0
   -8.8760    7.6840   -2.6680 C   0  0  0  0  0  0  0  0  0  0  0  0
   -8.6060    9.0510   -3.2140 C   0  0  0  0  0  0  0  0  0  0  0  0
  -10.1280    7.5220   -1.8630 C   0  0  0  0  0  0  0  0  0  0  0  0
   -3.3920    8.5890   -1.4260 C   0  0  1  0  0  0  0  0  0  0  0  0
   -3.9960    9.0870   -0.0850 C   0  0  0  0  0  0  0  0  0  0  0  0
   -2.8610    9.8260    0.6690 C   0  0  0  0  0  0  0  0  0  0  0  0
   -1.7500   10.0200   -0.3900 C   0  0  1  0  0  0  0  0  0  0  0  0
   -2.1920   11.2720   -1.2110 C   0  0  0  0  0  0  0  0  0  0  0  0
   -0.2930   10.1720    0.1560 C   0  0  2  0  0  0  0  0  0  0  0  0
   -0.0570   11.4030    1.0490 C   0  0  0  0  0  0  0  0  0  0  0  0
    0.3830   12.6360    0.3320 C   0  0  0  0  0  0  0  0  0  0  0  0
    0.8540   12.6820   -0.9280 C   0  0  0  0  0  0  0  0  0  0  0  0
    1.0750   11.3950   -1.7340 C   0  0  1  0  0  0  0  0  0  0  0  0
    2.4650   11.4460   -2.4200 C   0  0  0  0  0  0  0  0  0  0  0  0
    2.6550   12.7030   -3.2640 C   0  0  0  0  0  0  0  0  0  0  0  0
    2.4860   13.9610   -2.4150 C   0  0  2  0  0  0  0  0  0  0  0  0
    3.5570   14.0270   -1.4700 O   0  0  0  0  0  0  0  0  0  0  0  0
    1.1240   14.0160   -1.6670 C   0  0  0  0  0  0  0  0  0  0  0  0
   -0.0200   14.2480   -2.6850 C   0  0  0  0  0  0  0  0  0  0  0  0
    1.1390   15.2610   -0.7400 C   0  0  0  0  0  0  0  0  0  0  0  0
    0.8310   10.0350   -0.9490 C   0  0  1  0  0  0  0  0  0  0  0  0
    2.1350    9.6080   -0.2070 C   0  0  0  0  0  0  0  0  0  0  0  0
    0.5160    8.8930   -1.9850 C   0  0  0  0  0  0  0  0  0  0  0  0
   -0.9590    8.7140   -2.3950 C   0  0  0  0  0  0  0  0  0  0  0  0
   -1.8670    8.6550   -1.1630 C   0  0  2  0  0  0  0  0  0  0  0  0
   -1.4610    7.3930   -0.3290 C   0  0  0  0  0  0  0  0  0  0  0  0
   -2.7716    6.3353   -3.4195 H   0  0  0  0  0  0  0  0  0  0  0  0
   -4.5083    6.5308   -3.8348 H   0  0  0  0  0  0  0  0  0  0  0  0
   -3.4186    7.9588   -3.8348 H   0  0  0  0  0  0  0  0  0  0  0  0
   -3.5083    6.4365   -1.2860 H   0  0  0  0  0  0  0  0  0  0  0  0
   -5.6848    6.4151   -0.8584 H   0  0  0  0  0  0  0  0  0  0  0  0
   -5.7690    8.2059   -1.2175 H   0  0  0  0  0  0  0  0  0  0  0  0
   -6.2865    7.8243   -3.4958 H   0  0  0  0  0  0  0  0  0  0  0  0
   -5.9251    6.0541   -3.3440 H   0  0  0  0  0  0  0  0  0  0  0  0
   -7.4605    6.0486   -1.6335 H   0  0  0  0  0  0  0  0  0  0  0  0
   -8.4665    9.7571   -2.3822 H   0  0  0  0  0  0  0  0  0  0  0  0
   -7.6954    9.0263   -3.8306 H   0  0  0  0  0  0  0  0  0  0  0  0
   -9.4576    9.3744   -3.8306 H   0  0  0  0  0  0  0  0  0  0  0  0
   -9.8816    7.5539   -0.7914 H   0  0  0  0  0  0  0  0  0  0  0  0
  -10.8264    8.3373   -2.1031 H   0  0  0  0  0  0  0  0  0  0  0  0
  -10.5958    6.5558   -2.1031 H   0  0  0  0  0  0  0  0  0  0  0  0
   -3.6484    9.1985   -2.3051 H   0  0  0  0  0  0  0  0  0  0  0  0
   -4.8326    9.7745   -0.2784 H   0  0  0  0  0  0  0  0  0  0  0  0
   -4.3839    8.2469    0.5098 H   0  0  0  0  0  0  0  0  0  0  0  0
   -3.2132   10.7980    1.0447 H   0  0  0  0  0  0  0  0  0  0  0  0
   -2.5077    9.2634    1.5457 H   0  0  0  0  0  0  0  0  0  0  0  0
   -2.4774   12.0804   -0.5218 H   0  0  0  0  0  0  0  0  0  0  0  0
   -1.3581   11.6079   -1.8449 H   0  0  0  0  0  0  0  0  0  0  0  0
   -3.0519   11.0099   -1.8449 H   0  0  0  0  0  0  0  0  0  0  0  0
   -0.1964    9.2991    0.8183 H   0  0  0  0  0  0  0  0  0  0  0  0
   -0.9987   11.6305    1.5699 H   0  0  0  0  0  0  0  0  0  0  0  0
    0.7673   11.1342    1.7260 H   0  0  0  0  0  0  0  0  0  0  0  0
    0.3167   13.5876    0.8797 H   0  0  0  0  0  0  0  0  0  0  0  0
    0.2830   11.3742   -2.4971 H   0  0  0  0  0  0  0  0  0  0  0  0
    3.2430   11.4222   -1.6427 H   0  0  0  0  0  0  0  0  0  0  0  0
    2.5378   10.5783   -3.0921 H   0  0  0  0  0  0  0  0  0  0  0  0
    3.6653   12.6953   -3.6990 H   0  0  0  0  0  0  0  0  0  0  0  0
    1.8943   12.7108   -4.0585 H   0  0  0  0  0  0  0  0  0  0  0  0
    2.5049   14.8242   -3.0965 H   0  0  0  0  0  0  0  0  0  0  0  0
    4.1070   13.2340   -1.5920 H   0  0  0  0  0  0  0  0  0  0  0  0
   -0.9589   14.4384   -2.1444 H   0  0  0  0  0  0  0  0  0  0  0  0
    0.2217   15.1154   -3.3168 H   0  0  0  0  0  0  0  0  0  0  0  0
   -0.1353   13.3550   -3.3168 H   0  0  0  0  0  0  0  0  0  0  0  0
    1.1351   14.9358    0.3108 H   0  0  0  0  0  0  0  0  0  0  0  0
    2.0444   15.8539   -0.9370 H   0  0  0  0  0  0  0  0  0  0  0  0
    0.2482   15.8756   -0.9370 H   0  0  0  0  0  0  0  0  0  0  0  0
    1.9727    9.6611    0.8797 H   0  0  0  0  0  0  0  0  0  0  0  0
    2.3964    8.5773   -0.4887 H   0  0  0  0  0  0  0  0  0  0  0  0
    2.9554   10.2844   -0.4887 H   0  0  0  0  0  0  0  0  0  0  0  0
    1.0920    9.1039   -2.8981 H   0  0  0  0  0  0  0  0  0  0  0  0
    0.7882    7.9577   -1.4740 H   0  0  0  0  0  0  0  0  0  0  0  0
   -1.2627    9.5626   -3.0256 H   0  0  0  0  0  0  0  0  0  0  0  0
   -1.0570    7.7685   -2.9486 H   0  0  0  0  0  0  0  0  0  0  0  0
   -1.5351    7.6233    0.7441 H   0  0  0  0  0  0  0  0  0  0  0  0
   -2.1364    6.5596   -0.5727 H   0  0  0  0  0  0  0  0  0  0  0  0
   -0.4264    7.1098   -0.5727 H   0  0  0  0  0  0  0  0  0  0  0  0
  1  2  1  0
  2  3  1  0
  3  4  1  0
  4  5  1  0
  5  6  1  0
  6  7  1  0
  7  8  1  0
  7  9  1  0
  2 10  1  0
 10 11  1  0
 11 12  1  0
 12 13  1  0
 13 14  1  6
 13 15  1  0
 15 16  1  0
 16 17  1  0
 17 18  2  0
 18 19  1  0
 19 20  1  0
 20 21  1  0
 21 22  1  0
 22 23  1  0
 22 24  1  0
 24 25  1  0
 24 26  1  0
 19 27  1  0
 27 28  1  1
 27 29  1  0
 29 30  1  0
 30 31  1  0
 31 32  1  1
  7  5  1  0
 31 10  1  0
 31 13  1  0
 27 15  1  0
 24 18  1  0
  1 33  1  0
  1 34  1  0
  1 35  1  0
  2 36  1  1
  3 37  1  0
  3 38  1  0
  4 39  1  0
  4 40  1  0
  5 41  1  1
  8 42  1  0
  8 43  1  0
  8 44  1  0
  9 45  1  0
  9 46  1  0
  9 47  1  0
 10 48  1  6
 11 49  1  0
 11 50  1  0
 12 51  1  0
 12 52  1  0
 14 53  1  0
 14 54  1  0
 14 55  1  0
 15 56  1  1
 16 57  1  0
 16 58  1  0
 17 59  1  0
 19 60  1  6
 20 61  1  0
 20 62  1  0
 21 63  1  0
 21 64  1  0
 22 65  1  6
 23 66  1  0
 25 67  1  0
 25 68  1  0
 25 69  1  0
 26 70  1  0
 26 71  1  0
 26 72  1  0
 28 73  1  0
 28 74  1  0
 28 75  1  0
 29 76  1  0
 29 77  1  0
 30 78  1  0
 30 79  1  0
 32 80  1  0
 32 81  1  0
 32 82  1  0
M  END
>  <meeko>  (13) 
{"is_sidechain": [false], "intermolecular_energy": 2.731, "internal_energy": -0.839}

$$$$
EPH_relaxed_0001_pdb2pqr_Repair_80_r2_0001_out
     RDKit          3D

 82 86  0  0  0  0  0  0  0  0999 V2000
   -1.7370    9.4250   -0.4830 C   0  0  0  0  0  0  0  0  0  0  0  0
   -0.9180   10.2360   -1.4910 C   0  0  2  0  0  0  0  0  0  0  0  0
    0.2540    9.4220   -2.0760 C   0  0  0  0  0  0  0  0  0  0  0  0
    1.0540   10.1740   -3.1430 C   0  0  0  0  0  0  0  0  0  0  0  0
    2.5240    9.9100   -3.0220 C   0  0  2  0  0  0  0  0  0  0  0  0
    3.2780   10.9790   -2.4370 O   0  0  0  0  0  0  0  0  0  0  0  0
    3.5770   10.6690   -3.8070 C   0  0  0  0  0  0  0  0  0  0  0  0
    3.2030   11.7510   -4.7720 C   0  0  0  0  0  0  0  0  0  0  0  0
    4.9190   10.0350   -4.0020 C   0  0  0  0  0  0  0  0  0  0  0  0
   -0.3920   11.5050   -0.8320 C   0  0  1  0  0  0  0  0  0  0  0  0
    0.7600   11.2250    0.1690 C   0  0  0  0  0  0  0  0  0  0  0  0
    1.7350   12.4280    0.0770 C   0  0  0  0  0  0  0  0  0  0  0  0
    0.9540   13.5020   -0.7150 C   0  0  1  0  0  0  0  0  0  0  0  0
    0.0210   14.1780    0.3370 C   0  0  0  0  0  0  0  0  0  0  0  0
    1.8170   14.5570   -1.4830 C   0  0  2  0  0  0  0  0  0  0  0  0
    2.7070   15.4430   -0.5950 C   0  0  0  0  0  0  0  0  0  0  0  0
    2.0770   16.7140   -0.1280 C   0  0  0  0  0  0  0  0  0  0  0  0
    0.9580   17.2650   -0.6340 C   0  0  0  0  0  0  0  0  0  0  0  0
    0.2590   16.6490   -1.8530 C   0  0  1  0  0  0  0  0  0  0  0  0
   -0.0900   17.7680   -2.8700 C   0  0  0  0  0  0  0  0  0  0  0  0
   -0.9010   18.8970   -2.2410 C   0  0  0  0  0  0  0  0  0  0  0  0
   -0.1480   19.5220   -1.0690 C   0  0  2  0  0  0  0  0  0  0  0  0
    1.0160   20.1850   -1.5710 O   0  0  0  0  0  0  0  0  0  0  0  0
    0.2650   18.4880    0.0150 C   0  0  0  0  0  0  0  0  0  0  0  0
   -0.9940   17.9910    0.7670 C   0  0  0  0  0  0  0  0  0  0  0  0
    1.1380   19.2230    1.0680 C   0  0  0  0  0  0  0  0  0  0  0  0
    1.0040   15.4190   -2.5320 C   0  0  1  0  0  0  0  0  0  0  0  0
    2.0360   15.9350   -3.5800 C   0  0  0  0  0  0  0  0  0  0  0  0
   -0.0470   14.5590   -3.3290 C   0  0  0  0  0  0  0  0  0  0  0  0
   -0.7790   13.4540   -2.5430 C   0  0  0  0  0  0  0  0  0  0  0  0
    0.2120   12.5900   -1.7590 C   0  0  2  0  0  0  0  0  0  0  0  0
    1.1510   11.8800   -2.7930 C   0  0  0  0  0  0  0  0  0  0  0  0
   -1.4480    9.7112    0.5390 H   0  0  0  0  0  0  0  0  0  0  0  0
   -2.8076    9.6288   -0.6320 H   0  0  0  0  0  0  0  0  0  0  0  0
   -1.5437    8.3524   -0.6320 H   0  0  0  0  0  0  0  0  0  0  0  0
   -1.5860   10.4990   -2.3244 H   0  0  0  0  0  0  0  0  0  0  0  0
    0.9355    9.1553   -1.2548 H   0  0  0  0  0  0  0  0  0  0  0  0
   -0.1812    8.5377   -2.5645 H   0  0  0  0  0  0  0  0  0  0  0  0
    0.7143    9.8498   -4.1377 H   0  0  0  0  0  0  0  0  0  0  0  0
    0.8863   11.2519   -3.0011 H   0  0  0  0  0  0  0  0  0  0  0  0
    2.3431    8.8345   -2.8783 H   0  0  0  0  0  0  0  0  0  0  0  0
    2.8930   12.6477   -4.2154 H   0  0  0  0  0  0  0  0  0  0  0  0
    4.0695   11.9935   -5.4048 H   0  0  0  0  0  0  0  0  0  0  0  0
    2.3717   11.4067   -5.4048 H   0  0  0  0  0  0  0  0  0  0  0  0
    5.3699    9.8220   -3.0215 H   0  0  0  0  0  0  0  0  0  0  0  0
    4.8030    9.0965   -4.5639 H   0  0  0  0  0  0  0  0  0  0  0  0
    5.5703   10.7206   -4.5639 H   0  0  0  0  0  0  0  0  0  0  0  0
   -1.3222   11.8752   -0.3762 H   0  0  0  0  0  0  0  0  0  0  0  0
    0.3614   11.1377    1.1905 H   0  0  0  0  0  0  0  0  0  0  0  0
    1.2724   10.2820   -0.0722 H   0  0  0  0  0  0  0  0  0  0  0  0
    1.9931   12.7966    1.0808 H   0  0  0  0  0  0  0  0  0  0  0  0
    2.6848   12.1595   -0.4086 H   0  0  0  0  0  0  0  0  0  0  0  0
    0.3680   13.9266    1.3501 H   0  0  0  0  0  0  0  0  0  0  0  0
    0.0456   15.2693    0.2013 H   0  0  0  0  0  0  0  0  0  0  0  0
   -1.0084   13.8147    0.2013 H   0  0  0  0  0  0  0  0  0  0  0  0
    2.5079   13.9233   -2.0584 H   0  0  0  0  0  0  0  0  0  0  0  0
    2.9913   14.8584    0.2923 H   0  0  0  0  0  0  0  0  0  0  0  0
    3.5626   15.7388   -1.2199 H   0  0  0  0  0  0  0  0  0  0  0  0
    2.5694   17.2451    0.7000 H   0  0  0  0  0  0  0  0  0  0  0  0
   -0.6645   16.1879   -1.4728 H   0  0  0  0  0  0  0  0  0  0  0  0
    0.8458   18.1860   -3.2695 H   0  0  0  0  0  0  0  0  0  0  0  0
   -0.7036   17.3181   -3.6644 H   0  0  0  0  0  0  0  0  0  0  0  0
   -1.0911   19.6700   -3.0002 H   0  0  0  0  0  0  0  0  0  0  0  0
   -1.8494   18.4827   -1.8683 H   0  0  0  0  0  0  0  0  0  0  0  0
   -0.8298   20.2329   -0.5794 H   0  0  0  0  0  0  0  0  0  0  0  0
    0.9170   20.2650   -2.5350 H   0  0  0  0  0  0  0  0  0  0  0  0
   -0.8236   18.0583    1.8516 H   0  0  0  0  0  0  0  0  0  0  0  0
   -1.8562   18.6162    0.4918 H   0  0  0  0  0  0  0  0  0  0  0  0
   -1.1966   16.9454    0.4918 H   0  0  0  0  0  0  0  0  0  0  0  0
    0.8061   18.9436    2.0788 H   0  0  0  0  0  0  0  0  0  0  0  0
    2.1916   18.9360    0.9356 H   0  0  0  0  0  0  0  0  0  0  0  0
    1.0347   20.3101    0.9356 H   0  0  0  0  0  0  0  0  0  0  0  0
    2.9024   16.3682   -3.0588 H   0  0  0  0  0  0  0  0  0  0  0  0
    2.3686   15.0971   -4.2104 H   0  0  0  0  0  0  0  0  0  0  0  0
    1.5653   16.7038   -4.2104 H   0  0  0  0  0  0  0  0  0  0  0  0
   -0.8090   15.2469   -3.7241 H   0  0  0  0  0  0  0  0  0  0  0  0
    0.5368   14.0286   -4.0957 H   0  0  0  0  0  0  0  0  0  0  0  0
   -1.4846   13.9202   -1.8396 H   0  0  0  0  0  0  0  0  0  0  0  0
   -1.3147   12.8119   -3.2576 H   0  0  0  0  0  0  0  0  0  0  0  0
    1.9167   11.3011   -2.2558 H   0  0  0  0  0  0  0  0  0  0  0  0
    0.5561   11.2038   -3.4246 H   0  0  0  0  0  0  0  0  0  0  0  0
    1.6395   12.6366   -3.4246 H   0  0  0  0  0  0  0  0  0  0  0  0
  1  2  1  0
  2  3  1  0
  3  4  1  0
  4  5  1  0
  5  6  1  0
  6  7  1  0
  7  8  1  0
  7  9  1  0
  2 10  1  0
 10 11  1  0
 11 12  1  0
 12 13  1  0
 13 14  1  1
 13 15  1  0
 15 16  1  0
 16 17  1  0
 17 18  2  0
 18 19  1  0
 19 20  1  0
 20 21  1  0
 21 22  1  0
 22 23  1  0
 22 24  1  0
 24 25  1  0
 24 26  1  0
 19 27  1  0
 27 28  1  6
 27 29  1  0
 29 30  1  0
 30 31  1  0
 31 32  1  6
  7  5  1  0
 31 10  1  0
 31 13  1  0
 27 15  1  0
 24 18  1  0
  1 33  1  0
  1 34  1  0
  1 35  1  0
  2 36  1  6
  3 37  1  0
  3 38  1  0
  4 39  1  0
  4 40  1  0
  5 41  1  1
  8 42  1  0
  8 43  1  0
  8 44  1  0
  9 45  1  0
  9 46  1  0
  9 47  1  0
 10 48  1  1
 11 49  1  0
 11 50  1  0
 12 51  1  0
 12 52  1  0
 14 53  1  0
 14 54  1  0
 14 55  1  0
 15 56  1  6
 16 57  1  0
 16 58  1  0
 17 59  1  0
 19 60  1  1
 20 61  1  0
 20 62  1  0
 21 63  1  0
 21 64  1  0
 22 65  1  1
 23 66  1  0
 25 67  1  0
 25 68  1  0
 25 69  1  0
 26 70  1  0
 26 71  1  0
 26 72  1  0
 28 73  1  0
 28 74  1  0
 28 75  1  0
 29 76  1  0
 29 77  1  0
 30 78  1  0
 30 79  1  0
 32 80  1  0
 32 81  1  0
 32 82  1  0
M  END
>  <meeko>  (14) 
{"is_sidechain": [false], "intermolecular_energy": 2.731, "internal_energy": -0.839}

$$$$
EPH_relaxed_0001_pdb2pqr_Repair_80_r2_0001_out
     RDKit          3D

 82 86  0  0  0  0  0  0  0  0999 V2000
    0.3240    9.8770   -4.6870 C   0  0  0  0  0  0  0  0  0  0  0  0
    1.3460   10.5640   -3.7770 C   0  0  2  0  0  0  0  0  0  0  0  0
    1.6930    9.7060   -2.5430 C   0  0  0  0  0  0  0  0  0  0  0  0
    0.6220    8.6700   -2.1930 C   0  0  0  0  0  0  0  0  0  0  0  0
   -0.2380    9.1260   -1.0530 C   0  0  2  0  0  0  0  0  0  0  0  0
   -0.7780    8.0680   -0.2510 O   0  0  0  0  0  0  0  0  0  0  0  0
   -1.7300    8.8650   -0.9740 C   0  0  0  0  0  0  0  0  0  0  0  0
   -2.4500    8.1210   -2.0550 C   0  0  0  0  0  0  0  0  0  0  0  0
   -2.5660    9.7470   -0.1000 C   0  0  0  0  0  0  0  0  0  0  0  0
    0.8180   11.9230   -3.3340 C   0  0  1  0  0  0  0  0  0  0  0  0
   -0.6920   11.8900   -2.9750 C   0  0  0  0  0  0  0  0  0  0  0  0
   -0.8950   12.8840   -1.8040 C   0  0  0  0  0  0  0  0  0  0  0  0
    0.4210   13.6950   -1.7470 C   0  0  1  0  0  0  0  0  0  0  0  0
    0.2710   14.7800   -2.8600 C   0  0  0  0  0  0  0  0  0  0  0  0
    0.7820   14.3310   -0.3660 C   0  0  2  0  0  0  0  0  0  0  0  0
   -0.2220   15.3750    0.1550 C   0  0  0  0  0  0  0  0  0  0  0  0
    0.0560   16.7840   -0.2510 C   0  0  0  0  0  0  0  0  0  0  0  0
    1.2170   17.2370   -0.7590 C   0  0  0  0  0  0  0  0  0  0  0  0
    2.4370   16.3150   -0.8810 C   0  0  1  0  0  0  0  0  0  0  0  0
    3.6960   17.0470   -0.3480 C   0  0  0  0  0  0  0  0  0  0  0  0
    3.9160   18.3980   -1.0210 C   0  0  0  0  0  0  0  0  0  0  0  0
    2.7060   19.3080   -0.8280 C   0  0  2  0  0  0  0  0  0  0  0  0
    2.5950   19.6400    0.5590 O   0  0  0  0  0  0  0  0  0  0  0  0
    1.3760   18.6720   -1.3210 C   0  0  0  0  0  0  0  0  0  0  0  0
    1.3800   18.5900   -2.8680 C   0  0  0  0  0  0  0  0  0  0  0  0
    0.2170   19.6320   -0.9400 C   0  0  0  0  0  0  0  0  0  0  0  0
    2.2700   14.8600   -0.2640 C   0  0  1  0  0  0  0  0  0  0  0  0
    2.6330   14.8800    1.2520 C   0  0  0  0  0  0  0  0  0  0  0  0
    3.2980   13.8880   -0.9550 C   0  0  0  0  0  0  0  0  0  0  0  0
    2.8380   13.1970   -2.2530 C   0  0  0  0  0  0  0  0  0  0  0  0
    1.4570   12.5590   -2.0750 C   0  0  2  0  0  0  0  0  0  0  0  0
    1.5810   11.4480   -0.9770 C   0  0  0  0  0  0  0  0  0  0  0  0
   -0.4323    9.3686   -4.0708 H   0  0  0  0  0  0  0  0  0  0  0  0
   -0.1660   10.6298   -5.3219 H   0  0  0  0  0  0  0  0  0  0  0  0
    0.8361    9.1390   -5.3219 H   0  0  0  0  0  0  0  0  0  0  0  0
    2.2703   10.6964   -4.3585 H   0  0  0  0  0  0  0  0  0  0  0  0
    2.6363    9.1765   -2.7423 H   0  0  0  0  0  0  0  0  0  0  0  0
    1.7694   10.3915   -1.6861 H   0  0  0  0  0  0  0  0  0  0  0  0
   -0.0140    8.5027   -3.0748 H   0  0  0  0  0  0  0  0  0  0  0  0
    1.1285    7.7415   -1.8908 H   0  0  0  0  0  0  0  0  0  0  0  0
    0.3569   10.0444   -0.9405 H   0  0  0  0  0  0  0  0  0  0  0  0
   -3.1472    7.4005   -1.6025 H   0  0  0  0  0  0  0  0  0  0  0  0
   -3.0114    8.8324   -2.6785 H   0  0  0  0  0  0  0  0  0  0  0  0
   -1.7205    7.5833   -2.6785 H   0  0  0  0  0  0  0  0  0  0  0  0
   -2.3542    9.5236    0.9560 H   0  0  0  0  0  0  0  0  0  0  0  0
   -2.3272   10.8006   -0.3069 H   0  0  0  0  0  0  0  0  0  0  0  0
   -3.6309    9.5649   -0.3069 H   0  0  0  0  0  0  0  0  0  0  0  0
    1.0704   12.5169   -4.2248 H   0  0  0  0  0  0  0  0  0  0  0  0
   -1.2943   12.1983   -3.8423 H   0  0  0  0  0  0  0  0  0  0  0  0
   -1.0083   10.8754   -2.6911 H   0  0  0  0  0  0  0  0  0  0  0  0
   -1.7509   13.5463   -2.0009 H   0  0  0  0  0  0  0  0  0  0  0  0
   -1.1103   12.3715   -0.8548 H   0  0  0  0  0  0  0  0  0  0  0  0
    0.1346   15.7670   -2.3939 H   0  0  0  0  0  0  0  0  0  0  0  0
    1.1761   14.7917   -3.4851 H   0  0  0  0  0  0  0  0  0  0  0  0
   -0.6033   14.5457   -3.4851 H   0  0  0  0  0  0  0  0  0  0  0  0
    0.7011   13.4719    0.3162 H   0  0  0  0  0  0  0  0  0  0  0  0
   -1.2199   15.1037   -0.2199 H   0  0  0  0  0  0  0  0  0  0  0  0
   -0.1428   15.3528    1.2519 H   0  0  0  0  0  0  0  0  0  0  0  0
   -0.7569   17.5141   -0.1243 H   0  0  0  0  0  0  0  0  0  0  0  0
    2.5541   16.1066   -1.9547 H   0  0  0  0  0  0  0  0  0  0  0  0
    3.5792   17.2069    0.7340 H   0  0  0  0  0  0  0  0  0  0  0  0
    4.5689   16.4163   -0.5722 H   0  0  0  0  0  0  0  0  0  0  0  0
    4.8019   18.8792   -0.5810 H   0  0  0  0  0  0  0  0  0  0  0  0
    4.0626   18.2333   -2.0987 H   0  0  0  0  0  0  0  0  0  0  0  0
    2.8693   20.2075   -1.4398 H   0  0  0  0  0  0  0  0  0  0  0  0
    1.6590   19.5570    0.8080 H   0  0  0  0  0  0  0  0  0  0  0  0
    1.4314   17.5362   -3.1792 H   0  0  0  0  0  0  0  0  0  0  0  0
    0.4586   19.0440   -3.2616 H   0  0  0  0  0  0  0  0  0  0  0  0
    2.2528   19.1316   -3.2616 H   0  0  0  0  0  0  0  0  0  0  0  0
    0.1393   19.6964    0.1554 H   0  0  0  0  0  0  0  0  0  0  0  0
    0.4182   20.6316   -1.3527 H   0  0  0  0  0  0  0  0  0  0  0  0
   -0.7277   19.2482   -1.3527 H   0  0  0  0  0  0  0  0  0  0  0  0
    1.7114   14.8292    1.8504 H   0  0  0  0  0  0  0  0  0  0  0  0
    3.2713   14.0157    1.4876 H   0  0  0  0  0  0  0  0  0  0  0  0
    3.1725   15.8092    1.4876 H   0  0  0  0  0  0  0  0  0  0  0  0
    4.2004   14.4712   -1.1906 H   0  0  0  0  0  0  0  0  0  0  0  0
    3.4511   13.0717   -0.2337 H   0  0  0  0  0  0  0  0  0  0  0  0
    2.7883   13.9432   -3.0597 H   0  0  0  0  0  0  0  0  0  0  0  0
    3.5600   12.4059   -2.5039 H   0  0  0  0  0  0  0  0  0  0  0  0
    1.5294   11.9103    0.0198 H   0  0  0  0  0  0  0  0  0  0  0  0
    0.7577   10.7273   -1.0900 H   0  0  0  0  0  0  0  0  0  0  0  0
    2.5429   10.9265   -1.0900 H   0  0  0  0  0  0  0  0  0  0  0  0
  1  2  1  0
  2  3  1  0
  3  4  1  0
  4  5  1  0
  5  6  1  0
  6  7  1  0
  7  8  1  0
  7  9  1  0
  2 10  1  0
 10 11  1  0
 11 12  1  0
 12 13  1  0
 13 14  1  6
 13 15  1  0
 15 16  1  0
 16 17  1  0
 17 18  2  0
 18 19  1  0
 19 20  1  0
 20 21  1  0
 21 22  1  0
 22 23  1  0
 22 24  1  0
 24 25  1  0
 24 26  1  0
 19 27  1  0
 27 28  1  1
 27 29  1  0
 29 30  1  0
 30 31  1  0
 31 32  1  1
  7  5  1  0
 31 10  1  0
 31 13  1  0
 27 15  1  0
 24 18  1  0
  1 33  1  0
  1 34  1  0
  1 35  1  0
  2 36  1  6
  3 37  1  0
  3 38  1  0
  4 39  1  0
  4 40  1  0
  5 41  1  1
  8 42  1  0
  8 43  1  0
  8 44  1  0
  9 45  1  0
  9 46  1  0
  9 47  1  0
 10 48  1  6
 11 49  1  0
 11 50  1  0
 12 51  1  0
 12 52  1  0
 14 53  1  0
 14 54  1  0
 14 55  1  0
 15 56  1  1
 16 57  1  0
 16 58  1  0
 17 59  1  0
 19 60  1  6
 20 61  1  0
 20 62  1  0
 21 63  1  0
 21 64  1  0
 22 65  1  6
 23 66  1  0
 25 67  1  0
 25 68  1  0
 25 69  1  0
 26 70  1  0
 26 71  1  0
 26 72  1  0
 28 73  1  0
 28 74  1  0
 28 75  1  0
 29 76  1  0
 29 77  1  0
 30 78  1  0
 30 79  1  0
 32 80  1  0
 32 81  1  0
 32 82  1  0
M  END
>  <meeko>  (15) 
{"is_sidechain": [false], "intermolecular_energy": 2.731, "internal_energy": -0.839}

$$$$
EPH_relaxed_0001_pdb2pqr_Repair_80_r2_0001_out
     RDKit          3D

 82 86  0  0  0  0  0  0  0  0999 V2000
    0.8620   14.7880   -2.6270 C   0  0  0  0  0  0  0  0  0  0  0  0
    1.1510   14.0990   -3.9640 C   0  0  2  0  0  0  0  0  0  0  0  0
    0.4810   14.8250   -5.1480 C   0  0  0  0  0  0  0  0  0  0  0  0
    1.1860   14.5970   -6.4880 C   0  0  0  0  0  0  0  0  0  0  0  0
    0.9060   15.7060   -7.4570 C   0  0  2  0  0  0  0  0  0  0  0  0
    0.3910   15.2780   -8.7240 O   0  0  0  0  0  0  0  0  0  0  0  0
    1.6830   15.9070   -8.7450 C   0  0  0  0  0  0  0  0  0  0  0  0
    2.8000   14.9910   -9.1340 C   0  0  0  0  0  0  0  0  0  0  0  0
    1.6820   17.2640   -9.3760 C   0  0  0  0  0  0  0  0  0  0  0  0
    0.6860   12.6480   -3.9120 C   0  0  1  0  0  0  0  0  0  0  0  0
    1.8140   11.6460   -4.2760 C   0  0  0  0  0  0  0  0  0  0  0  0
    1.5920   10.3850   -3.4020 C   0  0  0  0  0  0  0  0  0  0  0  0
    0.1730   10.5630   -2.8150 C   0  0  1  0  0  0  0  0  0  0  0  0
   -0.7920   10.1000   -3.9510 C   0  0  0  0  0  0  0  0  0  0  0  0
   -0.1180    9.8180   -1.4710 C   0  0  2  0  0  0  0  0  0  0  0  0
   -0.0260    8.2840   -1.5430 C   0  0  0  0  0  0  0  0  0  0  0  0
   -1.3000    7.5840   -1.8810 C   0  0  0  0  0  0  0  0  0  0  0  0
   -2.5290    8.1320   -1.8390 C   0  0  0  0  0  0  0  0  0  0  0  0
   -2.7360    9.5620   -1.3250 C   0  0  1  0  0  0  0  0  0  0  0  0
   -3.9290    9.5890   -0.3340 C   0  0  0  0  0  0  0  0  0  0  0  0
   -5.2000    8.9940   -0.9320 C   0  0  0  0  0  0  0  0  0  0  0  0
   -4.9700    7.5530   -1.3780 C   0  0  2  0  0  0  0  0  0  0  0  0
   -4.7350    6.7440   -0.2210 O   0  0  0  0  0  0  0  0  0  0  0  0
   -3.7850    7.4000   -2.3720 C   0  0  0  0  0  0  0  0  0  0  0  0
   -4.1680    8.0230   -3.7370 C   0  0  0  0  0  0  0  0  0  0  0  0
   -3.5720    5.8840   -2.6320 C   0  0  0  0  0  0  0  0  0  0  0  0
   -1.4440   10.2840   -0.7450 C   0  0  1  0  0  0  0  0  0  0  0  0
   -1.2710    9.9340    0.7650 C   0  0  0  0  0  0  0  0  0  0  0  0
   -1.6500   11.8430   -0.8180 C   0  0  0  0  0  0  0  0  0  0  0  0
   -1.2330   12.5380   -2.1280 C   0  0  0  0  0  0  0  0  0  0  0  0
    0.1770   12.1130   -2.5500 C   0  0  2  0  0  0  0  0  0  0  0  0
    1.1720   12.5850   -1.4370 C   0  0  0  0  0  0  0  0  0  0  0  0
    1.1430   14.1181   -1.8010 H   0  0  0  0  0  0  0  0  0  0  0  0
    1.4460   15.7178   -2.5599 H   0  0  0  0  0  0  0  0  0  0  0  0
   -0.2105   15.0230   -2.5599 H   0  0  0  0  0  0  0  0  0  0  0  0
    2.2382   14.1354   -4.1271 H   0  0  0  0  0  0  0  0  0  0  0  0
   -0.5548   14.4652   -5.2349 H   0  0  0  0  0  0  0  0  0  0  0  0
    0.5342   15.9031   -4.9359 H   0  0  0  0  0  0  0  0  0  0  0  0
    2.2708   14.5400   -6.3150 H   0  0  0  0  0  0  0  0  0  0  0  0
    0.8063   13.6595   -6.9204 H   0  0  0  0  0  0  0  0  0  0  0  0
    0.6494   16.3911   -6.6355 H   0  0  0  0  0  0  0  0  0  0  0  0
    3.2823   14.5955   -8.2279 H   0  0  0  0  0  0  0  0  0  0  0  0
    2.4000   14.1575   -9.7301 H   0  0  0  0  0  0  0  0  0  0  0  0
    3.5390   15.5465   -9.7301 H   0  0  0  0  0  0  0  0  0  0  0  0
    1.6814   18.0338   -8.5902 H   0  0  0  0  0  0  0  0  0  0  0  0
    2.5801   17.3785  -10.0008 H   0  0  0  0  0  0  0  0  0  0  0  0
    0.7838   17.3772  -10.0008 H   0  0  0  0  0  0  0  0  0  0  0  0
   -0.1439   12.6942   -4.6325 H   0  0  0  0  0  0  0  0  0  0  0  0
    1.7569   11.3825   -5.3424 H   0  0  0  0  0  0  0  0  0  0  0  0
    2.8059   12.0843   -4.0918 H   0  0  0  0  0  0  0  0  0  0  0  0
    1.6473    9.4731   -4.0147 H   0  0  0  0  0  0  0  0  0  0  0  0
    2.3574   10.2798   -2.6190 H   0  0  0  0  0  0  0  0  0  0  0  0
   -1.6992    9.6647   -3.5067 H   0  0  0  0  0  0  0  0  0  0  0  0
   -1.0669   10.9643   -4.5735 H   0  0  0  0  0  0  0  0  0  0  0  0
   -0.2899    9.3447   -4.5735 H   0  0  0  0  0  0  0  0  0  0  0  0
    0.7218   10.1387   -0.8370 H   0  0  0  0  0  0  0  0  0  0  0  0
    0.7185    8.0238   -2.3098 H   0  0  0  0  0  0  0  0  0  0  0  0
    0.2469    7.9478   -0.5318 H   0  0  0  0  0  0  0  0  0  0  0  0
   -1.2288    6.5309   -2.1907 H   0  0  0  0  0  0  0  0  0  0  0  0
   -2.9723   10.1717   -2.2095 H   0  0  0  0  0  0  0  0  0  0  0  0
   -3.6566    9.0111    0.5615 H   0  0  0  0  0  0  0  0  0  0  0  0
   -4.1360   10.6413   -0.0894 H   0  0  0  0  0  0  0  0  0  0  0  0
   -5.9975    9.0135   -0.1747 H   0  0  0  0  0  0  0  0  0  0  0  0
   -5.4882    9.5914   -1.8095 H   0  0  0  0  0  0  0  0  0  0  0  0
   -5.8729    7.2264   -1.9147 H   0  0  0  0  0  0  0  0  0  0  0  0
   -4.9290    7.2870    0.5620 H   0  0  0  0  0  0  0  0  0  0  0  0
   -4.7374    8.9493   -3.5704 H   0  0  0  0  0  0  0  0  0  0  0  0
   -3.2542    8.2515   -4.3051 H   0  0  0  0  0  0  0  0  0  0  0  0
   -4.7844    7.3108   -4.3051 H   0  0  0  0  0  0  0  0  0  0  0  0
   -3.4975    5.3541   -1.6709 H   0  0  0  0  0  0  0  0  0  0  0  0
   -4.4232    5.4870   -3.2046 H   0  0  0  0  0  0  0  0  0  0  0  0
   -2.6444    5.7370   -3.2046 H   0  0  0  0  0  0  0  0  0  0  0  0
   -1.6752   10.7518    1.3796 H   0  0  0  0  0  0  0  0  0  0  0  0
   -1.8130    9.0037    0.9902 H   0  0  0  0  0  0  0  0  0  0  0  0
   -0.2027    9.7996    0.9902 H   0  0  0  0  0  0  0  0  0  0  0  0
   -2.7197   12.0451   -0.6599 H   0  0  0  0  0  0  0  0  0  0  0  0
   -0.9837   12.2578   -0.0473 H   0  0  0  0  0  0  0  0  0  0  0  0
   -1.9437   12.2652   -2.9220 H   0  0  0  0  0  0  0  0  0  0  0  0
   -1.2370   13.6258   -1.9644 H   0  0  0  0  0  0  0  0  0  0  0  0
    0.7389   12.3796   -0.4469 H   0  0  0  0  0  0  0  0  0  0  0  0
    2.1230   12.0420   -1.5411 H   0  0  0  0  0  0  0  0  0  0  0  0
    1.3531   13.6650   -1.5411 H   0  0  0  0  0  0  0  0  0  0  0  0
  1  2  1  0
  2  3  1  0
  3  4  1  0
  4  5  1  0
  5  6  1  0
  6  7  1  0
  7  8  1  0
  7  9  1  0
  2 10  1  0
 10 11  1  0
 11 12  1  0
 12 13  1  0
 13 14  1  6
 13 15  1  0
 15 16  1  0
 16 17  1  0
 17 18  2  0
 18 19  1  0
 19 20  1  0
 20 21  1  0
 21 22  1  0
 22 23  1  0
 22 24  1  0
 24 25  1  0
 24 26  1  0
 19 27  1  0
 27 28  1  1
 27 29  1  0
 29 30  1  0
 30 31  1  0
 31 32  1  1
  7  5  1  0
 31 10  1  0
 31 13  1  0
 27 15  1  0
 24 18  1  0
  1 33  1  0
  1 34  1  0
  1 35  1  0
  2 36  1  6
  3 37  1  0
  3 38  1  0
  4 39  1  0
  4 40  1  0
  5 41  1  1
  8 42  1  0
  8 43  1  0
  8 44  1  0
  9 45  1  0
  9 46  1  0
  9 47  1  0
 10 48  1  6
 11 49  1  0
 11 50  1  0
 12 51  1  0
 12 52  1  0
 14 53  1  0
 14 54  1  0
 14 55  1  0
 15 56  1  1
 16 57  1  0
 16 58  1  0
 17 59  1  0
 19 60  1  6
 20 61  1  0
 20 62  1  0
 21 63  1  0
 21 64  1  0
 22 65  1  6
 23 66  1  0
 25 67  1  0
 25 68  1  0
 25 69  1  0
 26 70  1  0
 26 71  1  0
 26 72  1  0
 28 73  1  0
 28 74  1  0
 28 75  1  0
 29 76  1  0
 29 77  1  0
 30 78  1  0
 30 79  1  0
 32 80  1  0
 32 81  1  0
 32 82  1  0
M  END
>  <meeko>  (16) 
{"is_sidechain": [false], "intermolecular_energy": 2.731, "internal_energy": -0.839}

$$$$
EPH_relaxed_0001_pdb2pqr_Repair_80_r2_0001_out
     RDKit          3D

 82 86  0  0  0  0  0  0  0  0999 V2000
    3.1040   14.8510   -7.5660 C   0  0  0  0  0  0  0  0  0  0  0  0
    1.5800   14.8560   -7.4140 C   0  0  2  0  0  0  0  0  0  0  0  0
    0.9320   16.0780   -8.0940 C   0  0  0  0  0  0  0  0  0  0  0  0
    1.8490   16.7820   -9.0990 C   0  0  0  0  0  0  0  0  0  0  0  0
    1.5400   16.3780  -10.5090 C   0  0  2  0  0  0  0  0  0  0  0  0
    0.9730   15.0690  -10.6460 O   0  0  0  0  0  0  0  0  0  0  0  0
    2.2670   15.2650  -11.2390 C   0  0  0  0  0  0  0  0  0  0  0  0
    3.3620   14.4850  -10.5800 C   0  0  0  0  0  0  0  0  0  0  0  0
    2.2520   15.2610  -12.7350 C   0  0  0  0  0  0  0  0  0  0  0  0
    1.2060   14.8220   -5.9370 C   0  0  1  0  0  0  0  0  0  0  0  0
   -0.0440   15.6850   -5.6180 C   0  0  0  0  0  0  0  0  0  0  0  0
   -0.8180   14.9530   -4.4910 C   0  0  0  0  0  0  0  0  0  0  0  0
    0.1700   13.8810   -3.9730 C   0  0  1  0  0  0  0  0  0  0  0  0
    1.1170   14.6470   -2.9970 C   0  0  0  0  0  0  0  0  0  0  0  0
   -0.4680   12.6260   -3.2930 C   0  0  2  0  0  0  0  0  0  0  0  0
   -1.2750   12.9150   -2.0150 C   0  0  0  0  0  0  0  0  0  0  0  0
   -0.4970   12.8620   -0.7430 C   0  0  0  0  0  0  0  0  0  0  0  0
    0.7250   12.3170   -0.5960 C   0  0  0  0  0  0  0  0  0  0  0  0
    1.4090   11.5900   -1.7610 C   0  0  1  0  0  0  0  0  0  0  0  0
    1.9940   10.2430   -1.2600 C   0  0  0  0  0  0  0  0  0  0  0  0
    2.9180   10.4190   -0.0590 C   0  0  0  0  0  0  0  0  0  0  0  0
    2.1860   11.0920    1.0990 C   0  0  2  0  0  0  0  0  0  0  0  0
    1.1730   10.2050    1.5830 O   0  0  0  0  0  0  0  0  0  0  0  0
    1.5460   12.4540    0.7100 C   0  0  0  0  0  0  0  0  0  0  0  0
    2.6590   13.5050    0.4770 C   0  0  0  0  0  0  0  0  0  0  0  0
    0.7210   12.9580    1.9250 C   0  0  0  0  0  0  0  0  0  0  0  0
    0.5380   11.4230   -3.0800 C   0  0  1  0  0  0  0  0  0  0  0  0
   -0.3280   10.1300   -2.9870 C   0  0  0  0  0  0  0  0  0  0  0  0
    1.5020   11.2240   -4.3100 C   0  0  0  0  0  0  0  0  0  0  0  0
    2.0020   12.5000   -5.0140 C   0  0  0  0  0  0  0  0  0  0  0  0
    0.8390   13.4460   -5.3270 C   0  0  2  0  0  0  0  0  0  0  0  0
   -0.1200   12.7110   -6.3250 C   0  0  0  0  0  0  0  0  0  0  0  0
    3.5718   14.8495   -6.5704 H   0  0  0  0  0  0  0  0  0  0  0  0
    3.4144   13.9518   -8.1184 H   0  0  0  0  0  0  0  0  0  0  0  0
    3.4203   15.7481   -8.1184 H   0  0  0  0  0  0  0  0  0  0  0  0
    1.1941   13.9568   -7.9165 H   0  0  0  0  0  0  0  0  0  0  0  0
    0.0288   15.7419   -8.6243 H   0  0  0  0  0  0  0  0  0  0  0  0
    0.7066   16.8055   -7.3003 H   0  0  0  0  0  0  0  0  0  0  0  0
    1.7154   17.8696   -9.0024 H   0  0  0  0  0  0  0  0  0  0  0  0
    2.8867   16.4911   -8.8786 H   0  0  0  0  0  0  0  0  0  0  0  0
    1.3207   17.4202  -10.7842 H   0  0  0  0  0  0  0  0  0  0  0  0
    3.2584   14.5588   -9.4874 H   0  0  0  0  0  0  0  0  0  0  0  0
    3.2950   13.4300  -10.8842 H   0  0  0  0  0  0  0  0  0  0  0  0
    4.3371   14.8931  -10.8842 H   0  0  0  0  0  0  0  0  0  0  0  0
    1.2463   14.9928  -13.0909 H   0  0  0  0  0  0  0  0  0  0  0  0
    2.5179   16.2615  -13.1070 H   0  0  0  0  0  0  0  0  0  0  0  0
    2.9808   14.5258  -13.1070 H   0  0  0  0  0  0  0  0  0  0  0  0
    2.1469   15.1879   -5.5002 H   0  0  0  0  0  0  0  0  0  0  0  0
    0.2630   16.6853   -5.2786 H   0  0  0  0  0  0  0  0  0  0  0  0
   -0.6738   15.8127   -6.5108 H   0  0  0  0  0  0  0  0  0  0  0  0
   -1.0880   15.6534   -3.6869 H   0  0  0  0  0  0  0  0  0  0  0  0
   -1.7607   14.5137   -4.8492 H   0  0  0  0  0  0  0  0  0  0  0  0
    0.8353   14.4191   -1.9584 H   0  0  0  0  0  0  0  0  0  0  0  0
    2.1564   14.3326   -3.1724 H   0  0  0  0  0  0  0  0  0  0  0  0
    1.0267   15.7292   -3.1724 H   0  0  0  0  0  0  0  0  0  0  0  0
   -1.2031   12.2999   -4.0435 H   0  0  0  0  0  0  0  0  0  0  0  0
   -1.7075   13.9222   -2.1069 H   0  0  0  0  0  0  0  0  0  0  0  0
   -2.0280   12.1163   -1.9441 H   0  0  0  0  0  0  0  0  0  0  0  0
   -0.9612   13.3058    0.1501 H   0  0  0  0  0  0  0  0  0  0  0  0
    2.2238   12.2495   -2.0944 H   0  0  0  0  0  0  0  0  0  0  0  0
    1.1628    9.5826   -0.9720 H   0  0  0  0  0  0  0  0  0  0  0  0
    2.5881    9.8111   -2.0788 H   0  0  0  0  0  0  0  0  0  0  0  0
    3.2764    9.4315    0.2671 H   0  0  0  0  0  0  0  0  0  0  0  0
    3.7636   11.0561   -0.3573 H   0  0  0  0  0  0  0  0  0  0  0  0
    2.9309   11.3068    1.8794 H   0  0  0  0  0  0  0  0  0  0  0  0
    1.5180    9.2990    1.5120 H   0  0  0  0  0  0  0  0  0  0  0  0
    3.0360   13.8610    1.4471 H   0  0  0  0  0  0  0  0  0  0  0  0
    3.4825   13.0473   -0.0908 H   0  0  0  0  0  0  0  0  0  0  0  0
    2.2492   14.3533   -0.0908 H   0  0  0  0  0  0  0  0  0  0  0  0
    1.2187   12.6539    2.8576 H   0  0  0  0  0  0  0  0  0  0  0  0
    0.6481   14.0550    1.8891 H   0  0  0  0  0  0  0  0  0  0  0  0
   -0.2883   12.5221    1.8891 H   0  0  0  0  0  0  0  0  0  0  0  0
   -0.4972    9.8773   -1.9299 H   0  0  0  0  0  0  0  0  0  0  0  0
   -1.2951   10.3000   -3.4827 H   0  0  0  0  0  0  0  0  0  0  0  0
    0.1973    9.3004   -3.4827 H   0  0  0  0  0  0  0  0  0  0  0  0
    2.3848   10.6720   -3.9551 H   0  0  0  0  0  0  0  0  0  0  0  0
    0.9007   10.6956   -5.0645 H   0  0  0  0  0  0  0  0  0  0  0  0
    2.7184   13.0157   -4.3577 H   0  0  0  0  0  0  0  0  0  0  0  0
    2.4839   12.2123   -5.9600 H   0  0  0  0  0  0  0  0  0  0  0  0
   -0.8686   12.1373   -5.7589 H   0  0  0  0  0  0  0  0  0  0  0  0
   -0.6286   13.4528   -6.9583 H   0  0  0  0  0  0  0  0  0  0  0  0
    0.4641   12.0271   -6.9583 H   0  0  0  0  0  0  0  0  0  0  0  0
  1  2  1  0
  2  3  1  0
  3  4  1  0
  4  5  1  0
  5  6  1  0
  6  7  1  0
  7  8  1  0
  7  9  1  0
  2 10  1  0
 10 11  1  0
 11 12  1  0
 12 13  1  0
 13 14  1  1
 13 15  1  0
 15 16  1  0
 16 17  1  0
 17 18  2  0
 18 19  1  0
 19 20  1  0
 20 21  1  0
 21 22  1  0
 22 23  1  0
 22 24  1  0
 24 25  1  0
 24 26  1  0
 19 27  1  0
 27 28  1  1
 27 29  1  0
 29 30  1  0
 30 31  1  0
 31 32  1  6
  7  5  1  0
 31 10  1  0
 31 13  1  0
 27 15  1  0
 24 18  1  0
  1 33  1  0
  1 34  1  0
  1 35  1  0
  2 36  1  6
  3 37  1  0
  3 38  1  0
  4 39  1  0
  4 40  1  0
  5 41  1  6
  8 42  1  0
  8 43  1  0
  8 44  1  0
  9 45  1  0
  9 46  1  0
  9 47  1  0
 10 48  1  1
 11 49  1  0
 11 50  1  0
 12 51  1  0
 12 52  1  0
 14 53  1  0
 14 54  1  0
 14 55  1  0
 15 56  1  6
 16 57  1  0
 16 58  1  0
 17 59  1  0
 19 60  1  6
 20 61  1  0
 20 62  1  0
 21 63  1  0
 21 64  1  0
 22 65  1  1
 23 66  1  0
 25 67  1  0
 25 68  1  0
 25 69  1  0
 26 70  1  0
 26 71  1  0
 26 72  1  0
 28 73  1  0
 28 74  1  0
 28 75  1  0
 29 76  1  0
 29 77  1  0
 30 78  1  0
 30 79  1  0
 32 80  1  0
 32 81  1  0
 32 82  1  0
M  END
>  <meeko>  (17) 
{"is_sidechain": [false], "intermolecular_energy": 2.731, "internal_energy": -0.839}

$$$$
EPH_relaxed_0001_pdb2pqr_Repair_80_r2_0001_out
     RDKit          3D

 82 86  0  0  0  0  0  0  0  0999 V2000
   -1.8750   14.5850    0.1970 C   0  0  0  0  0  0  0  0  0  0  0  0
   -0.5110   15.2250    0.4720 C   0  0  2  0  0  0  0  0  0  0  0  0
   -0.3040   16.5210   -0.3360 C   0  0  0  0  0  0  0  0  0  0  0  0
   -0.9660   17.7500    0.2920 C   0  0  0  0  0  0  0  0  0  0  0  0
    0.0290   18.8360    0.5690 C   0  0  2  0  0  0  0  0  0  0  0  0
   -0.3250   20.1220    0.0420 O   0  0  0  0  0  0  0  0  0  0  0  0
    0.8520   19.5120   -0.5120 C   0  0  0  0  0  0  0  0  0  0  0  0
    0.7160   19.1260   -1.9520 C   0  0  0  0  0  0  0  0  0  0  0  0
    2.1260   20.1940   -0.1210 C   0  0  0  0  0  0  0  0  0  0  0  0
    0.6010   14.2310    0.1570 C   0  0  1  0  0  0  0  0  0  0  0  0
    0.7730   13.1560    1.2630 C   0  0  0  0  0  0  0  0  0  0  0  0
    1.1730   11.8400    0.5480 C   0  0  0  0  0  0  0  0  0  0  0  0
    1.5410   12.2730   -0.8900 C   0  0  1  0  0  0  0  0  0  0  0  0
    3.0030   12.8090   -0.7860 C   0  0  0  0  0  0  0  0  0  0  0  0
    1.4050   11.1780   -1.9970 C   0  0  2  0  0  0  0  0  0  0  0  0
    2.3220    9.9550   -1.8220 C   0  0  0  0  0  0  0  0  0  0  0  0
    3.6570   10.0580   -2.4830 C   0  0  0  0  0  0  0  0  0  0  0  0
    3.9970   10.9610   -3.4210 C   0  0  0  0  0  0  0  0  0  0  0  0
    2.9600   11.9430   -3.9810 C   0  0  1  0  0  0  0  0  0  0  0  0
    3.0650   11.9810   -5.5290 C   0  0  0  0  0  0  0  0  0  0  0  0
    4.4800   12.2870   -6.0120 C   0  0  0  0  0  0  0  0  0  0  0  0
    5.4720   11.2550   -5.4820 C   0  0  2  0  0  0  0  0  0  0  0  0
    5.1810    9.9870   -6.0780 O   0  0  0  0  0  0  0  0  0  0  0  0
    5.4490   11.1220   -3.9330 C   0  0  0  0  0  0  0  0  0  0  0  0
    6.0520   12.3970   -3.2930 C   0  0  0  0  0  0  0  0  0  0  0  0
    6.3910    9.9520   -3.5410 C   0  0  0  0  0  0  0  0  0  0  0  0
    1.4680   11.7390   -3.4760 C   0  0  1  0  0  0  0  0  0  0  0  0
    0.7380   10.6980   -4.3790 C   0  0  0  0  0  0  0  0  0  0  0  0
    0.6810   13.0940   -3.6350 C   0  0  0  0  0  0  0  0  0  0  0  0
    0.7570   14.0840   -2.4570 C   0  0  0  0  0  0  0  0  0  0  0  0
    0.4520   13.3810   -1.1300 C   0  0  2  0  0  0  0  0  0  0  0  0
   -1.0200   12.8510   -1.1960 C   0  0  0  0  0  0  0  0  0  0  0  0
   -2.3701   14.3527    1.1514 H   0  0  0  0  0  0  0  0  0  0  0  0
   -2.4988   15.2844   -0.3790 H   0  0  0  0  0  0  0  0  0  0  0  0
   -1.7358   13.6582   -0.3790 H   0  0  0  0  0  0  0  0  0  0  0  0
   -0.4796   15.4932    1.5383 H   0  0  0  0  0  0  0  0  0  0  0  0
    0.7764   16.7114   -0.4162 H   0  0  0  0  0  0  0  0  0  0  0  0
   -0.7770   16.3672   -1.3171 H   0  0  0  0  0  0  0  0  0  0  0  0
   -1.7305   18.1350   -0.3989 H   0  0  0  0  0  0  0  0  0  0  0  0
   -1.4158   17.4455    1.2485 H   0  0  0  0  0  0  0  0  0  0  0  0
    0.3076   18.3691    1.5252 H   0  0  0  0  0  0  0  0  0  0  0  0
    0.3512   18.0906   -2.0212 H   0  0  0  0  0  0  0  0  0  0  0  0
    0.0013   19.8004   -2.4465 H   0  0  0  0  0  0  0  0  0  0  0  0
    1.6955   19.2034   -2.4465 H   0  0  0  0  0  0  0  0  0  0  0  0
    2.1992   20.2332    0.9759 H   0  0  0  0  0  0  0  0  0  0  0  0
    2.9813   19.6331   -0.5258 H   0  0  0  0  0  0  0  0  0  0  0  0
    2.1336   21.2168   -0.5258 H   0  0  0  0  0  0  0  0  0  0  0  0
    1.4459   14.9275    0.0521 H   0  0  0  0  0  0  0  0  0  0  0  0
    1.5617   13.4596    1.9671 H   0  0  0  0  0  0  0  0  0  0  0  0
   -0.1564   13.0272    1.8371 H   0  0  0  0  0  0  0  0  0  0  0  0
    2.0362   11.3744    1.0461 H   0  0  0  0  0  0  0  0  0  0  0  0
    0.3647   11.0941    0.5648 H   0  0  0  0  0  0  0  0  0  0  0  0
    3.2816   12.9111    0.2732 H   0  0  0  0  0  0  0  0  0  0  0  0
    3.6881   12.1036   -1.2790 H   0  0  0  0  0  0  0  0  0  0  0  0
    3.0698   13.7901   -1.2790 H   0  0  0  0  0  0  0  0  0  0  0  0
    0.3808   10.8095   -1.8379 H   0  0  0  0  0  0  0  0  0  0  0  0
    2.4869    9.8054   -0.7448 H   0  0  0  0  0  0  0  0  0  0  0  0
    1.8053    9.1154   -2.3098 H   0  0  0  0  0  0  0  0  0  0  0  0
    4.4274    9.3348   -2.1774 H   0  0  0  0  0  0  0  0  0  0  0  0
    3.2190   12.9278   -3.5649 H   0  0  0  0  0  0  0  0  0  0  0  0
    2.7604   11.0019   -5.9273 H   0  0  0  0  0  0  0  0  0  0  0  0
    2.4078   12.7864   -5.8887 H   0  0  0  0  0  0  0  0  0  0  0  0
    4.4965   12.2706   -7.1118 H   0  0  0  0  0  0  0  0  0  0  0  0
    4.7720   13.2794   -5.6379 H   0  0  0  0  0  0  0  0  0  0  0  0
    6.4814   11.5987   -5.7524 H   0  0  0  0  0  0  0  0  0  0  0  0
    5.7630    9.8850   -6.8500 H   0  0  0  0  0  0  0  0  0  0  0  0
    6.0115   12.3114   -2.1971 H   0  0  0  0  0  0  0  0  0  0  0  0
    7.0983   12.5086   -3.6137 H   0  0  0  0  0  0  0  0  0  0  0  0
    5.4744   13.2765   -3.6137 H   0  0  0  0  0  0  0  0  0  0  0  0
    6.4493    9.8796   -2.4449 H   0  0  0  0  0  0  0  0  0  0  0  0
    5.9960    9.0104   -3.9502 H   0  0  0  0  0  0  0  0  0  0  0  0
    7.3952   10.1369   -3.9502 H   0  0  0  0  0  0  0  0  0  0  0  0
    0.2216    9.9616   -3.7458 H   0  0  0  0  0  0  0  0  0  0  0  0
    0.0034   11.2147   -5.0141 H   0  0  0  0  0  0  0  0  0  0  0  0
    1.4741   10.1834   -5.0141 H   0  0  0  0  0  0  0  0  0  0  0  0
    1.0755   13.6054   -4.5254 H   0  0  0  0  0  0  0  0  0  0  0  0
   -0.3785   12.8054   -3.7005 H   0  0  0  0  0  0  0  0  0  0  0  0
    1.7687   14.5136   -2.4125 H   0  0  0  0  0  0  0  0  0  0  0  0
    0.0095   14.8754   -2.6148 H   0  0  0  0  0  0  0  0  0  0  0  0
   -1.4058   12.7121   -0.1753 H   0  0  0  0  0  0  0  0  0  0  0  0
   -1.6484   13.5793   -1.7295 H   0  0  0  0  0  0  0  0  0  0  0  0
   -1.0399   11.8893   -1.7295 H   0  0  0  0  0  0  0  0  0  0  0  0
  1  2  1  0
  2  3  1  0
  3  4  1  0
  4  5  1  0
  5  6  1  0
  6  7  1  0
  7  8  1  0
  7  9  1  0
  2 10  1  0
 10 11  1  0
 11 12  1  0
 12 13  1  0
 13 14  1  1
 13 15  1  0
 15 16  1  0
 16 17  1  0
 17 18  2  0
 18 19  1  0
 19 20  1  0
 20 21  1  0
 21 22  1  0
 22 23  1  0
 22 24  1  0
 24 25  1  0
 24 26  1  0
 19 27  1  0
 27 28  1  6
 27 29  1  0
 29 30  1  0
 30 31  1  0
 31 32  1  6
  7  5  1  0
 31 10  1  0
 31 13  1  0
 27 15  1  0
 24 18  1  0
  1 33  1  0
  1 34  1  0
  1 35  1  0
  2 36  1  1
  3 37  1  0
  3 38  1  0
  4 39  1  0
  4 40  1  0
  5 41  1  1
  8 42  1  0
  8 43  1  0
  8 44  1  0
  9 45  1  0
  9 46  1  0
  9 47  1  0
 10 48  1  6
 11 49  1  0
 11 50  1  0
 12 51  1  0
 12 52  1  0
 14 53  1  0
 14 54  1  0
 14 55  1  0
 15 56  1  1
 16 57  1  0
 16 58  1  0
 17 59  1  0
 19 60  1  1
 20 61  1  0
 20 62  1  0
 21 63  1  0
 21 64  1  0
 22 65  1  6
 23 66  1  0
 25 67  1  0
 25 68  1  0
 25 69  1  0
 26 70  1  0
 26 71  1  0
 26 72  1  0
 28 73  1  0
 28 74  1  0
 28 75  1  0
 29 76  1  0
 29 77  1  0
 30 78  1  0
 30 79  1  0
 32 80  1  0
 32 81  1  0
 32 82  1  0
M  END
>  <meeko>  (18) 
{"is_sidechain": [false], "intermolecular_energy": 2.731, "internal_energy": -0.839}

$$$$
EPH_relaxed_0001_pdb2pqr_Repair_80_r2_0001_out
     RDKit          3D

 82 86  0  0  0  0  0  0  0  0999 V2000
   -0.3880    8.1640   -3.4850 C   0  0  0  0  0  0  0  0  0  0  0  0
   -0.7310    8.5330   -2.0390 C   0  0  2  0  0  0  0  0  0  0  0  0
   -2.0080    7.8230   -1.5460 C   0  0  0  0  0  0  0  0  0  0  0  0
   -2.9690    7.4340   -2.6720 C   0  0  0  0  0  0  0  0  0  0  0  0
   -4.3970    7.4680   -2.2190 C   0  0  2  0  0  0  0  0  0  0  0  0
   -4.9030    6.2160   -1.7390 O   0  0  0  0  0  0  0  0  0  0  0  0
   -5.5190    6.7330   -2.9300 C   0  0  0  0  0  0  0  0  0  0  0  0
   -5.2600    5.9120   -4.1540 C   0  0  0  0  0  0  0  0  0  0  0  0
   -6.9250    7.2040   -2.7260 C   0  0  0  0  0  0  0  0  0  0  0  0
   -0.8920   10.0430   -1.9120 C   0  0  1  0  0  0  0  0  0  0  0  0
   -2.3410   10.4610   -1.5460 C   0  0  0  0  0  0  0  0  0  0  0  0
   -2.2300   11.7050   -0.6280 C   0  0  0  0  0  0  0  0  0  0  0  0
   -0.7580   12.1600   -0.7650 C   0  0  1  0  0  0  0  0  0  0  0  0
   -0.7120   12.9790   -2.0930 C   0  0  0  0  0  0  0  0  0  0  0  0
   -0.1710   12.9730    0.4350 C   0  0  2  0  0  0  0  0  0  0  0  0
   -0.8640   14.3190    0.7120 C   0  0  0  0  0  0  0  0  0  0  0  0
   -0.2830   15.4940   -0.0040 C   0  0  0  0  0  0  0  0  0  0  0  0
    0.9190   15.5250   -0.6080 C   0  0  0  0  0  0  0  0  0  0  0  0
    1.8740   14.3270   -0.5260 C   0  0  1  0  0  0  0  0  0  0  0  0
    3.3010   14.8260   -0.1790 C   0  0  0  0  0  0  0  0  0  0  0  0
    3.7960   15.9010   -1.1420 C   0  0  0  0  0  0  0  0  0  0  0  0
    2.8510   17.1000   -1.1520 C   0  0  2  0  0  0  0  0  0  0  0  0
    2.9080   17.7430    0.1250 O   0  0  0  0  0  0  0  0  0  0  0  0
    1.3800   16.7180   -1.4810 C   0  0  0  0  0  0  0  0  0  0  0  0
    1.2700   16.3030   -2.9690 C   0  0  0  0  0  0  0  0  0  0  0  0
    0.5090   17.9930   -1.3200 C   0  0  0  0  0  0  0  0  0  0  0  0
    1.4030   13.1280    0.4050 C   0  0  1  0  0  0  0  0  0  0  0  0
    1.8530   13.3880    1.8760 C   0  0  0  0  0  0  0  0  0  0  0  0
    2.1260   11.8070   -0.0530 C   0  0  0  0  0  0  0  0  0  0  0  0
    1.4360   10.9850   -1.1590 C   0  0  0  0  0  0  0  0  0  0  0  0
   -0.0430   10.7610   -0.8330 C   0  0  2  0  0  0  0  0  0  0  0  0
   -0.1210    9.9200    0.4870 C   0  0  0  0  0  0  0  0  0  0  0  0
    0.3609    7.3583   -3.4900 H   0  0  0  0  0  0  0  0  0  0  0  0
   -1.2971    7.8228   -4.0019 H   0  0  0  0  0  0  0  0  0  0  0  0
    0.0186    9.0458   -4.0019 H   0  0  0  0  0  0  0  0  0  0  0  0
    0.1010    8.1936   -1.4045 H   0  0  0  0  0  0  0  0  0  0  0  0
   -1.7124    6.9088   -1.0104 H   0  0  0  0  0  0  0  0  0  0  0  0
   -2.5420    8.5343   -0.8988 H   0  0  0  0  0  0  0  0  0  0  0  0
   -2.8432    8.1386   -3.5073 H   0  0  0  0  0  0  0  0  0  0  0  0
   -2.7329    6.4060   -2.9842 H   0  0  0  0  0  0  0  0  0  0  0  0
   -4.2917    8.5122   -1.8894 H   0  0  0  0  0  0  0  0  0  0  0  0
   -4.9413    4.9018   -3.8573 H   0  0  0  0  0  0  0  0  0  0  0  0
   -6.1807    5.8451   -4.7522 H   0  0  0  0  0  0  0  0  0  0  0  0
   -4.4676    6.3855   -4.7522 H   0  0  0  0  0  0  0  0  0  0  0  0
   -7.1354    7.2745   -1.6486 H   0  0  0  0  0  0  0  0  0  0  0  0
   -7.0512    8.1935   -3.1897 H   0  0  0  0  0  0  0  0  0  0  0  0
   -7.6217    6.4902   -3.1897 H   0  0  0  0  0  0  0  0  0  0  0  0
   -0.5609   10.3482   -2.9156 H   0  0  0  0  0  0  0  0  0  0  0  0
   -2.9043   10.7117   -2.4569 H   0  0  0  0  0  0  0  0  0  0  0  0
   -2.8717    9.6420   -1.0384 H   0  0  0  0  0  0  0  0  0  0  0  0
   -2.9145   12.4979   -0.9638 H   0  0  0  0  0  0  0  0  0  0  0  0
   -2.5023   11.4806    0.4139 H   0  0  0  0  0  0  0  0  0  0  0  0
   -0.6517   14.0523   -1.8599 H   0  0  0  0  0  0  0  0  0  0  0  0
    0.1708   12.6805   -2.6775 H   0  0  0  0  0  0  0  0  0  0  0  0
   -1.6227   12.7813   -2.6775 H   0  0  0  0  0  0  0  0  0  0  0  0
   -0.4113   12.3308    1.2952 H   0  0  0  0  0  0  0  0  0  0  0  0
   -1.9186   14.2263    0.4134 H   0  0  0  0  0  0  0  0  0  0  0  0
   -0.7262   14.5175    1.7851 H   0  0  0  0  0  0  0  0  0  0  0  0
   -0.8888   16.4114   -0.0406 H   0  0  0  0  0  0  0  0  0  0  0  0
    1.8724   13.8669   -1.5251 H   0  0  0  0  0  0  0  0  0  0  0  0
    3.2909   15.2424    0.8391 H   0  0  0  0  0  0  0  0  0  0  0  0
    3.9834   13.9669   -0.2587 H   0  0  0  0  0  0  0  0  0  0  0  0
    4.7963   16.2334   -0.8275 H   0  0  0  0  0  0  0  0  0  0  0  0
    3.8339   15.4748   -2.1554 H   0  0  0  0  0  0  0  0  0  0  0  0
    3.1852   17.7769   -1.9520 H   0  0  0  0  0  0  0  0  0  0  0  0
    3.5000   18.5090    0.0420 H   0  0  0  0  0  0  0  0  0  0  0  0
    0.9887   15.2416   -3.0338 H   0  0  0  0  0  0  0  0  0  0  0  0
    0.5034   16.9165   -3.4650 H   0  0  0  0  0  0  0  0  0  0  0  0
    2.2398   16.4562   -3.4650 H   0  0  0  0  0  0  0  0  0  0  0  0
    0.3640   18.2053   -0.2505 H   0  0  0  0  0  0  0  0  0  0  0  0
    1.0146   18.8452   -1.7977 H   0  0  0  0  0  0  0  0  0  0  0  0
   -0.4687   17.8319   -1.7977 H   0  0  0  0  0  0  0  0  0  0  0  0
    1.1121   12.9599    2.5672 H   0  0  0  0  0  0  0  0  0  0  0  0
    2.8314   12.9160    2.0490 H   0  0  0  0  0  0  0  0  0  0  0  0
    1.9328   14.4714    2.0490 H   0  0  0  0  0  0  0  0  0  0  0  0
    3.1255   12.0844   -0.4190 H   0  0  0  0  0  0  0  0  0  0  0  0
    2.1241   11.1556    0.8334 H   0  0  0  0  0  0  0  0  0  0  0  0
    1.5162   11.5266   -2.1131 H   0  0  0  0  0  0  0  0  0  0  0  0
    1.9320   10.0057   -1.2295 H   0  0  0  0  0  0  0  0  0  0  0  0
   -0.0586   10.5931    1.3548 H   0  0  0  0  0  0  0  0  0  0  0  0
   -1.0739    9.3712    0.5164 H   0  0  0  0  0  0  0  0  0  0  0  0
    0.7147    9.2054    0.5164 H   0  0  0  0  0  0  0  0  0  0  0  0
  1  2  1  0
  2  3  1  0
  3  4  1  0
  4  5  1  0
  5  6  1  0
  6  7  1  0
  7  8  1  0
  7  9  1  0
  2 10  1  0
 10 11  1  0
 11 12  1  0
 12 13  1  0
 13 14  1  6
 13 15  1  0
 15 16  1  0
 16 17  1  0
 17 18  2  0
 18 19  1  0
 19 20  1  0
 20 21  1  0
 21 22  1  0
 22 23  1  0
 22 24  1  0
 24 25  1  0
 24 26  1  0
 19 27  1  0
 27 28  1  1
 27 29  1  0
 29 30  1  0
 30 31  1  0
 31 32  1  1
  7  5  1  0
 31 10  1  0
 31 13  1  0
 27 15  1  0
 24 18  1  0
  1 33  1  0
  1 34  1  0
  1 35  1  0
  2 36  1  1
  3 37  1  0
  3 38  1  0
  4 39  1  0
  4 40  1  0
  5 41  1  1
  8 42  1  0
  8 43  1  0
  8 44  1  0
  9 45  1  0
  9 46  1  0
  9 47  1  0
 10 48  1  6
 11 49  1  0
 11 50  1  0
 12 51  1  0
 12 52  1  0
 14 53  1  0
 14 54  1  0
 14 55  1  0
 15 56  1  1
 16 57  1  0
 16 58  1  0
 17 59  1  0
 19 60  1  6
 20 61  1  0
 20 62  1  0
 21 63  1  0
 21 64  1  0
 22 65  1  6
 23 66  1  0
 25 67  1  0
 25 68  1  0
 25 69  1  0
 26 70  1  0
 26 71  1  0
 26 72  1  0
 28 73  1  0
 28 74  1  0
 28 75  1  0
 29 76  1  0
 29 77  1  0
 30 78  1  0
 30 79  1  0
 32 80  1  0
 32 81  1  0
 32 82  1  0
M  END
>  <meeko>  (19) 
{"is_sidechain": [false], "intermolecular_energy": 2.731, "internal_energy": -0.839}

$$$$
