EPH_relaxed_0001_pdb2pqr_Repair_50_r2_0001_out
     RDKit          3D

 82 86  0  0  0  0  0  0  0  0999 V2000
   -1.4590    8.5000   -1.7520 C   0  0  0  0  0  0  0  0  0  0  0  0
   -1.9970    9.1840   -0.4920 C   0  0  2  0  0  0  0  0  0  0  0  0
   -3.4670    9.6210   -0.6510 C   0  0  0  0  0  0  0  0  0  0  0  0
   -4.4720    8.6270   -0.0630 C   0  0  0  0  0  0  0  0  0  0  0  0
   -4.5200    7.3540   -0.8530 C   0  0  2  0  0  0  0  0  0  0  0  0
   -4.9220    7.5130   -2.2200 O   0  0  0  0  0  0  0  0  0  0  0  0
   -5.8050    6.7480   -1.3850 C   0  0  0  0  0  0  0  0  0  0  0  0
   -7.1320    7.3970   -1.1450 C   0  0  0  0  0  0  0  0  0  0  0  0
   -5.8250    5.2860   -1.7090 C   0  0  0  0  0  0  0  0  0  0  0  0
   -1.1300   10.3880   -0.1440 C   0  0  1  0  0  0  0  0  0  0  0  0
   -0.0650   10.0660    0.9380 C   0  0  0  0  0  0  0  0  0  0  0  0
    1.1930   10.9030    0.5910 C   0  0  0  0  0  0  0  0  0  0  0  0
    0.7060   11.9180   -0.4690 C   0  0  1  0  0  0  0  0  0  0  0  0
    0.0200   13.0560    0.3500 C   0  0  0  0  0  0  0  0  0  0  0  0
    1.7950   12.4810   -1.4390 C   0  0  2  0  0  0  0  0  0  0  0  0
    2.9170   13.2880   -0.7620 C   0  0  0  0  0  0  0  0  0  0  0  0
    2.6660   14.7540   -0.6440 C   0  0  0  0  0  0  0  0  0  0  0  0
    1.7210   15.4420   -1.3110 C   0  0  0  0  0  0  0  0  0  0  0  0
    0.8460   14.7560   -2.3680 C   0  0  1  0  0  0  0  0  0  0  0  0
    0.7780   15.6430   -3.6390 C   0  0  0  0  0  0  0  0  0  0  0  0
    0.3200   17.0660   -3.3360 C   0  0  0  0  0  0  0  0  0  0  0  0
    1.2480   17.7350   -2.3260 C   0  0  2  0  0  0  0  0  0  0  0  0
    2.5320   17.9180   -2.9310 O   0  0  0  0  0  0  0  0  0  0  0  0
    1.4020   16.9270   -1.0070 C   0  0  0  0  0  0  0  0  0  0  0  0
    0.0790   16.9850   -0.2040 C   0  0  0  0  0  0  0  0  0  0  0  0
    2.4720   17.6370   -0.1340 C   0  0  0  0  0  0  0  0  0  0  0  0
    1.2120   13.2450   -2.6960 C   0  0  1  0  0  0  0  0  0  0  0  0
    2.3130   13.1920   -3.8000 C   0  0  0  0  0  0  0  0  0  0  0  0
   -0.0540   12.5280   -3.2970 C   0  0  0  0  0  0  0  0  0  0  0  0
   -1.0320   11.8880   -2.2940 C   0  0  0  0  0  0  0  0  0  0  0  0
   -0.2850   11.0100   -1.2850 C   0  0  2  0  0  0  0  0  0  0  0  0
    0.3960    9.8430   -2.0780 C   0  0  0  0  0  0  0  0  0  0  0  0
   -0.8026    7.6655   -1.4643 H   0  0  0  0  0  0  0  0  0  0  0  0
   -2.2999    8.1163   -2.3484 H   0  0  0  0  0  0  0  0  0  0  0  0
   -0.8880    9.2268   -2.3484 H   0  0  0  0  0  0  0  0  0  0  0  0
   -1.9581    8.4493    0.3257 H   0  0  0  0  0  0  0  0  0  0  0  0
   -3.5984   10.5884   -0.1442 H   0  0  0  0  0  0  0  0  0  0  0  0
   -3.6692    9.6816   -1.7306 H   0  0  0  0  0  0  0  0  0  0  0  0
   -4.1792    8.3938    0.9713 H   0  0  0  0  0  0  0  0  0  0  0  0
   -5.4699    9.0886   -0.0957 H   0  0  0  0  0  0  0  0  0  0  0  0
   -3.6921    6.9302   -0.2657 H   0  0  0  0  0  0  0  0  0  0  0  0
   -7.3077    7.4829   -0.0625 H   0  0  0  0  0  0  0  0  0  0  0  0
   -7.1372    8.3994   -1.5980 H   0  0  0  0  0  0  0  0  0  0  0  0
   -7.9264    6.7857   -1.5980 H   0  0  0  0  0  0  0  0  0  0  0  0
   -5.8330    4.7037   -0.7758 H   0  0  0  0  0  0  0  0  0  0  0  0
   -6.7264    5.0525   -2.2946 H   0  0  0  0  0  0  0  0  0  0  0  0
   -4.9303    5.0279   -2.2946 H   0  0  0  0  0  0  0  0  0  0  0  0
   -1.9131   11.0929    0.1720 H   0  0  0  0  0  0  0  0  0  0  0  0
   -0.4412   10.3428    1.9339 H   0  0  0  0  0  0  0  0  0  0  0  0
    0.1683    8.9911    0.9548 H   0  0  0  0  0  0  0  0  0  0  0  0
    1.5708   11.4242    1.4830 H   0  0  0  0  0  0  0  0  0  0  0  0
    2.0204   10.2791    0.2220 H   0  0  0  0  0  0  0  0  0  0  0  0
    0.1398   12.8573    1.4253 H   0  0  0  0  0  0  0  0  0  0  0  0
    0.4876   14.0200    0.1010 H   0  0  0  0  0  0  0  0  0  0  0  0
   -1.0508   13.0927    0.1010 H   0  0  0  0  0  0  0  0  0  0  0  0
    2.2712   11.5639   -1.8160 H   0  0  0  0  0  0  0  0  0  0  0  0
    3.0613   12.8853    0.2514 H   0  0  0  0  0  0  0  0  0  0  0  0
    3.8006   13.1818   -1.4085 H   0  0  0  0  0  0  0  0  0  0  0  0
    3.3078   15.3206    0.0468 H   0  0  0  0  0  0  0  0  0  0  0  0
   -0.1557   14.6661   -1.9224 H   0  0  0  0  0  0  0  0  0  0  0  0
    1.7786   15.6841   -4.0941 H   0  0  0  0  0  0  0  0  0  0  0  0
    0.0410   15.1933   -4.3207 H   0  0  0  0  0  0  0  0  0  0  0  0
    0.3211   17.6505   -4.2679 H   0  0  0  0  0  0  0  0  0  0  0  0
   -0.6927   17.0250   -2.9084 H   0  0  0  0  0  0  0  0  0  0  0  0
    0.7969   18.7000   -2.0517 H   0  0  0  0  0  0  0  0  0  0  0  0
    2.4920   17.5410   -3.8260 H   0  0  0  0  0  0  0  0  0  0  0  0
    0.3030   16.9752    0.8729 H   0  0  0  0  0  0  0  0  0  0  0  0
   -0.4635   17.9078   -0.4573 H   0  0  0  0  0  0  0  0  0  0  0  0
   -0.5422   16.1132   -0.4573 H   0  0  0  0  0  0  0  0  0  0  0  0
    2.2388   17.4823    0.9298 H   0  0  0  0  0  0  0  0  0  0  0  0
    3.4642   17.2175   -0.3567 H   0  0  0  0  0  0  0  0  0  0  0  0
    2.4710   18.7142   -0.3567 H   0  0  0  0  0  0  0  0  0  0  0  0
    3.3048   13.1443   -3.3267 H   0  0  0  0  0  0  0  0  0  0  0  0
    2.1621   12.3001   -4.4259 H   0  0  0  0  0  0  0  0  0  0  0  0
    2.2484   14.0943   -4.4259 H   0  0  0  0  0  0  0  0  0  0  0  0
   -0.6148   13.2749   -3.8780 H   0  0  0  0  0  0  0  0  0  0  0  0
    0.3436   11.6886   -3.8864 H   0  0  0  0  0  0  0  0  0  0  0  0
   -1.5652   12.6838   -1.7533 H   0  0  0  0  0  0  0  0  0  0  0  0
   -1.7422   11.2579   -2.8495 H   0  0  0  0  0  0  0  0  0  0  0  0
    0.8200    9.1165   -1.3692 H   0  0  0  0  0  0  0  0  0  0  0  0
   -0.3526    9.3439   -2.7108 H   0  0  0  0  0  0  0  0  0  0  0  0
    1.1988   10.2492   -2.7108 H   0  0  0  0  0  0  0  0  0  0  0  0
  1  2  1  0
  2  3  1  0
  3  4  1  0
  4  5  1  0
  5  6  1  0
  6  7  1  0
  7  8  1  0
  7  9  1  0
  2 10  1  0
 10 11  1  0
 11 12  1  0
 12 13  1  0
 13 14  1  1
 13 15  1  0
 15 16  1  0
 16 17  1  0
 17 18  2  0
 18 19  1  0
 19 20  1  0
 20 21  1  0
 21 22  1  0
 22 23  1  0
 22 24  1  0
 24 25  1  0
 24 26  1  0
 19 27  1  0
 27 28  1  6
 27 29  1  0
 29 30  1  0
 30 31  1  0
 31 32  1  6
  7  5  1  0
 31 10  1  0
 31 13  1  0
 27 15  1  0
 24 18  1  0
  1 33  1  0
  1 34  1  0
  1 35  1  0
  2 36  1  1
  3 37  1  0
  3 38  1  0
  4 39  1  0
  4 40  1  0
  5 41  1  6
  8 42  1  0
  8 43  1  0
  8 44  1  0
  9 45  1  0
  9 46  1  0
  9 47  1  0
 10 48  1  1
 11 49  1  0
 11 50  1  0
 12 51  1  0
 12 52  1  0
 14 53  1  0
 14 54  1  0
 14 55  1  0
 15 56  1  6
 16 57  1  0
 16 58  1  0
 17 59  1  0
 19 60  1  1
 20 61  1  0
 20 62  1  0
 21 63  1  0
 21 64  1  0
 22 65  1  1
 23 66  1  0
 25 67  1  0
 25 68  1  0
 25 69  1  0
 26 70  1  0
 26 71  1  0
 26 72  1  0
 28 73  1  0
 28 74  1  0
 28 75  1  0
 29 76  1  0
 29 77  1  0
 30 78  1  0
 30 79  1  0
 32 80  1  0
 32 81  1  0
 32 82  1  0
M  END
>  <meeko>  (1) 
{"is_sidechain": [false], "intermolecular_energy": 2.731, "internal_energy": -0.839}

$$$$
EPH_relaxed_0001_pdb2pqr_Repair_50_r2_0001_out
     RDKit          3D

 82 86  0  0  0  0  0  0  0  0999 V2000
   -4.4670    5.9060   -2.4090 C   0  0  0  0  0  0  0  0  0  0  0  0
   -4.9910    7.3170   -2.1320 C   0  0  2  0  0  0  0  0  0  0  0  0
   -4.8160    7.7220   -0.6540 C   0  0  0  0  0  0  0  0  0  0  0  0
   -3.9040    8.9350   -0.4520 C   0  0  0  0  0  0  0  0  0  0  0  0
   -2.4960    8.6460   -0.8750 C   0  0  2  0  0  0  0  0  0  0  0  0
   -1.4900    9.0980    0.0420 O   0  0  0  0  0  0  0  0  0  0  0  0
   -1.4970    9.7250   -1.2510 C   0  0  0  0  0  0  0  0  0  0  0  0
   -1.8670   11.1750   -1.2210 C   0  0  0  0  0  0  0  0  0  0  0  0
   -0.3290    9.3510   -2.1080 C   0  0  0  0  0  0  0  0  0  0  0  0
   -6.4600    7.4140   -2.5280 C   0  0  1  0  0  0  0  0  0  0  0  0
   -6.7750    6.6540   -3.8440 C   0  0  0  0  0  0  0  0  0  0  0  0
   -8.2020    6.0660   -3.6900 C   0  0  0  0  0  0  0  0  0  0  0  0
   -8.7840    6.7770   -2.4470 C   0  0  1  0  0  0  0  0  0  0  0  0
   -9.2750    8.1630   -2.9700 C   0  0  0  0  0  0  0  0  0  0  0  0
   -9.9160    6.0150   -1.6820 C   0  0  2  0  0  0  0  0  0  0  0  0
  -11.1970    5.7620   -2.4960 C   0  0  0  0  0  0  0  0  0  0  0  0
  -12.2360    6.8300   -2.3980 C   0  0  0  0  0  0  0  0  0  0  0  0
  -12.2700    7.8050   -1.4710 C   0  0  0  0  0  0  0  0  0  0  0  0
  -11.2460    7.8430   -0.3290 C   0  0  1  0  0  0  0  0  0  0  0  0
  -11.9780    8.1000    1.0150 C   0  0  0  0  0  0  0  0  0  0  0  0
  -12.8530    9.3490    0.9740 C   0  0  0  0  0  0  0  0  0  0  0  0
  -13.8960    9.2480   -0.1360 C   0  0  2  0  0  0  0  0  0  0  0  0
  -14.8180    8.2040    0.1910 O   0  0  0  0  0  0  0  0  0  0  0  0
  -13.2770    8.9800   -1.5360 C   0  0  0  0  0  0  0  0  0  0  0  0
  -12.5210   10.2410   -2.0210 C   0  0  0  0  0  0  0  0  0  0  0  0
  -14.4420    8.7600   -2.5390 C   0  0  0  0  0  0  0  0  0  0  0  0
  -10.2460    6.6100   -0.2530 C   0  0  1  0  0  0  0  0  0  0  0  0
  -10.8890    5.4530    0.5720 C   0  0  0  0  0  0  0  0  0  0  0  0
   -8.9510    7.0450    0.5280 C   0  0  0  0  0  0  0  0  0  0  0  0
   -7.8210    7.6830   -0.3020 C   0  0  0  0  0  0  0  0  0  0  0  0
   -7.5030    6.8360   -1.5380 C   0  0  2  0  0  0  0  0  0  0  0  0
   -6.9850    5.4430   -1.0430 C   0  0  0  0  0  0  0  0  0  0  0  0
   -4.2761    5.3920   -1.4554 H   0  0  0  0  0  0  0  0  0  0  0  0
   -5.2161    5.3433   -2.9853 H   0  0  0  0  0  0  0  0  0  0  0  0
   -3.5322    5.9686   -2.9853 H   0  0  0  0  0  0  0  0  0  0  0  0
   -4.3958    8.0154   -2.7386 H   0  0  0  0  0  0  0  0  0  0  0  0
   -5.8068    7.9596   -0.2394 H   0  0  0  0  0  0  0  0  0  0  0  0
   -4.3395    6.8728   -0.1423 H   0  0  0  0  0  0  0  0  0  0  0  0
   -4.2902    9.7747   -1.0484 H   0  0  0  0  0  0  0  0  0  0  0  0
   -3.8961    9.1835    0.6195 H   0  0  0  0  0  0  0  0  0  0  0  0
   -2.8135    7.7243   -1.3846 H   0  0  0  0  0  0  0  0  0  0  0  0
   -1.9525   11.5101   -0.1768 H   0  0  0  0  0  0  0  0  0  0  0  0
   -1.0900   11.7623   -1.7321 H   0  0  0  0  0  0  0  0  0  0  0  0
   -2.8305   11.3182   -1.7321 H   0  0  0  0  0  0  0  0  0  0  0  0
    0.5230    9.0782   -1.4679 H   0  0  0  0  0  0  0  0  0  0  0  0
   -0.5995    8.4946   -2.7431 H   0  0  0  0  0  0  0  0  0  0  0  0
   -0.0517   10.2053   -2.7431 H   0  0  0  0  0  0  0  0  0  0  0  0
   -6.5635    8.5075   -2.5877 H   0  0  0  0  0  0  0  0  0  0  0  0
   -6.7404    7.3457   -4.6986 H   0  0  0  0  0  0  0  0  0  0  0  0
   -6.0375    5.8587   -4.0272 H   0  0  0  0  0  0  0  0  0  0  0  0
   -8.8095    6.2823   -4.5812 H   0  0  0  0  0  0  0  0  0  0  0  0
   -8.1927    4.9717   -3.5787 H   0  0  0  0  0  0  0  0  0  0  0  0
   -9.5064    8.8162   -2.1158 H   0  0  0  0  0  0  0  0  0  0  0  0
   -8.4857    8.6247   -3.5814 H   0  0  0  0  0  0  0  0  0  0  0  0
  -10.1789    8.0249   -3.5814 H   0  0  0  0  0  0  0  0  0  0  0  0
   -9.4660    5.0246   -1.5188 H   0  0  0  0  0  0  0  0  0  0  0  0
  -10.9130    5.6600   -3.5538 H   0  0  0  0  0  0  0  0  0  0  0  0
  -11.6524    4.8545   -2.0728 H   0  0  0  0  0  0  0  0  0  0  0  0
  -13.0417    6.8189   -3.1468 H   0  0  0  0  0  0  0  0  0  0  0  0
  -10.5717    8.6827   -0.5533 H   0  0  0  0  0  0  0  0  0  0  0  0
  -12.6135    7.2314    1.2423 H   0  0  0  0  0  0  0  0  0  0  0  0
  -11.2116    8.2540    1.7889 H   0  0  0  0  0  0  0  0  0  0  0  0
  -13.3657    9.4613    1.9407 H   0  0  0  0  0  0  0  0  0  0  0  0
  -12.2119   10.2205    0.7753 H   0  0  0  0  0  0  0  0  0  0  0  0
  -14.4049   10.2211   -0.1998 H   0  0  0  0  0  0  0  0  0  0  0  0
  -14.9180    8.1920    1.1580 H   0  0  0  0  0  0  0  0  0  0  0  0
  -12.1749   10.8183   -1.1510 H   0  0  0  0  0  0  0  0  0  0  0  0
  -11.6552    9.9385   -2.6283 H   0  0  0  0  0  0  0  0  0  0  0  0
  -13.1958   10.8622   -2.6283 H   0  0  0  0  0  0  0  0  0  0  0  0
  -15.3753    8.5838   -1.9841 H   0  0  0  0  0  0  0  0  0  0  0  0
  -14.5546    9.6527   -3.1717 H   0  0  0  0  0  0  0  0  0  0  0  0
  -14.2213    7.8877   -3.1717 H   0  0  0  0  0  0  0  0  0  0  0  0
  -10.7737    5.6605    1.6461 H   0  0  0  0  0  0  0  0  0  0  0  0
  -11.9585    5.3776    0.3259 H   0  0  0  0  0  0  0  0  0  0  0  0
  -10.3883    4.5050    0.3259 H   0  0  0  0  0  0  0  0  0  0  0  0
   -9.2535    7.7740    1.2942 H   0  0  0  0  0  0  0  0  0  0  0  0
   -8.5257    6.1107    0.9232 H   0  0  0  0  0  0  0  0  0  0  0  0
   -8.1343    8.6869   -0.6246 H   0  0  0  0  0  0  0  0  0  0  0  0
   -6.9180    7.7437    0.3233 H   0  0  0  0  0  0  0  0  0  0  0  0
   -6.9780    5.4241    0.0568 H   0  0  0  0  0  0  0  0  0  0  0  0
   -7.6485    4.6503   -1.4191 H   0  0  0  0  0  0  0  0  0  0  0  0
   -5.9648    5.2764   -1.4191 H   0  0  0  0  0  0  0  0  0  0  0  0
  1  2  1  0
  2  3  1  0
  3  4  1  0
  4  5  1  0
  5  6  1  0
  6  7  1  0
  7  8  1  0
  7  9  1  0
  2 10  1  0
 10 11  1  0
 11 12  1  0
 12 13  1  0
 13 14  1  6
 13 15  1  0
 15 16  1  0
 16 17  1  0
 17 18  2  0
 18 19  1  0
 19 20  1  0
 20 21  1  0
 21 22  1  0
 22 23  1  0
 22 24  1  0
 24 25  1  0
 24 26  1  0
 19 27  1  0
 27 28  1  1
 27 29  1  0
 29 30  1  0
 30 31  1  0
 31 32  1  1
  7  5  1  0
 31 10  1  0
 31 13  1  0
 27 15  1  0
 24 18  1  0
  1 33  1  0
  1 34  1  0
  1 35  1  0
  2 36  1  6
  3 37  1  0
  3 38  1  0
  4 39  1  0
  4 40  1  0
  5 41  1  6
  8 42  1  0
  8 43  1  0
  8 44  1  0
  9 45  1  0
  9 46  1  0
  9 47  1  0
 10 48  1  6
 11 49  1  0
 11 50  1  0
 12 51  1  0
 12 52  1  0
 14 53  1  0
 14 54  1  0
 14 55  1  0
 15 56  1  1
 16 57  1  0
 16 58  1  0
 17 59  1  0
 19 60  1  6
 20 61  1  0
 20 62  1  0
 21 63  1  0
 21 64  1  0
 22 65  1  6
 23 66  1  0
 25 67  1  0
 25 68  1  0
 25 69  1  0
 26 70  1  0
 26 71  1  0
 26 72  1  0
 28 73  1  0
 28 74  1  0
 28 75  1  0
 29 76  1  0
 29 77  1  0
 30 78  1  0
 30 79  1  0
 32 80  1  0
 32 81  1  0
 32 82  1  0
M  END
>  <meeko>  (2) 
{"is_sidechain": [false], "intermolecular_energy": 2.731, "internal_energy": -0.839}

$$$$
EPH_relaxed_0001_pdb2pqr_Repair_50_r2_0001_out
     RDKit          3D

 82 86  0  0  0  0  0  0  0  0999 V2000
    4.2150   17.5790   -0.5720 C   0  0  0  0  0  0  0  0  0  0  0  0
    2.8550   18.1380   -0.1460 C   0  0  2  0  0  0  0  0  0  0  0  0
    2.9130   18.8160    1.2380 C   0  0  0  0  0  0  0  0  0  0  0  0
    4.2860   18.7250    1.9100 C   0  0  0  0  0  0  0  0  0  0  0  0
    4.2620   19.2910    3.2980 C   0  0  2  0  0  0  0  0  0  0  0  0
    5.3350   20.1940    3.5950 O   0  0  0  0  0  0  0  0  0  0  0  0
    5.3080   18.9720    4.3500 C   0  0  0  0  0  0  0  0  0  0  0  0
    6.4520   18.0510    4.0590 C   0  0  0  0  0  0  0  0  0  0  0  0
    4.9550   19.1620    5.7920 C   0  0  0  0  0  0  0  0  0  0  0  0
    1.8140   17.0250   -0.1370 C   0  0  1  0  0  0  0  0  0  0  0  0
    0.3830   17.5420   -0.4370 C   0  0  0  0  0  0  0  0  0  0  0  0
   -0.3350   16.4300   -1.2450 C   0  0  0  0  0  0  0  0  0  0  0  0
    0.5780   15.1900   -1.0980 C   0  0  1  0  0  0  0  0  0  0  0  0
    0.2150   14.5880    0.2960 C   0  0  0  0  0  0  0  0  0  0  0  0
    0.4790   14.1200   -2.2330 C   0  0  2  0  0  0  0  0  0  0  0  0
   -0.8980   13.4480   -2.3770 C   0  0  0  0  0  0  0  0  0  0  0  0
   -1.0880   12.2050   -1.5740 C   0  0  0  0  0  0  0  0  0  0  0  0
   -0.1060   11.4920   -0.9920 C   0  0  0  0  0  0  0  0  0  0  0  0
    1.3680   11.8670   -1.1970 C   0  0  1  0  0  0  0  0  0  0  0  0
    2.1860   10.5910   -1.5270 C   0  0  0  0  0  0  0  0  0  0  0  0
    2.0030    9.4930   -0.4830 C   0  0  0  0  0  0  0  0  0  0  0  0
    0.5330    9.1070   -0.3490 C   0  0  2  0  0  0  0  0  0  0  0  0
    0.1070    8.4860   -1.5660 O   0  0  0  0  0  0  0  0  0  0  0  0
   -0.3910   10.3140   -0.0270 C   0  0  0  0  0  0  0  0  0  0  0  0
   -0.1300   10.7980    1.4210 C   0  0  0  0  0  0  0  0  0  0  0  0
   -1.8610    9.8130   -0.0590 C   0  0  0  0  0  0  0  0  0  0  0  0
    1.6450   13.0510   -2.2200 C   0  0  1  0  0  0  0  0  0  0  0  0
    1.7490   12.4880   -3.6710 C   0  0  0  0  0  0  0  0  0  0  0  0
    3.0440   13.6960   -1.8930 C   0  0  0  0  0  0  0  0  0  0  0  0
    3.0600   14.8300   -0.8500 C   0  0  0  0  0  0  0  0  0  0  0  0
    1.9900   15.8790   -1.1660 C   0  0  2  0  0  0  0  0  0  0  0  0
    2.3410   16.5190   -2.5520 C   0  0  0  0  0  0  0  0  0  0  0  0
    4.8077   17.3354    0.3221 H   0  0  0  0  0  0  0  0  0  0  0  0
    4.0658   16.6693   -1.1721 H   0  0  0  0  0  0  0  0  0  0  0  0
    4.7487   18.3307   -1.1721 H   0  0  0  0  0  0  0  0  0  0  0  0
    2.5701   18.9071   -0.8790 H   0  0  0  0  0  0  0  0  0  0  0  0
    2.6559   19.8785    1.1155 H   0  0  0  0  0  0  0  0  0  0  0  0
    2.2012   18.2846    1.8868 H   0  0  0  0  0  0  0  0  0  0  0  0
    4.5888   17.6687    1.9608 H   0  0  0  0  0  0  0  0  0  0  0  0
    4.9999   19.3112    1.3127 H   0  0  0  0  0  0  0  0  0  0  0  0
    3.1626   19.2591    3.3172 H   0  0  0  0  0  0  0  0  0  0  0  0
    6.8892   17.6990    5.0050 H   0  0  0  0  0  0  0  0  0  0  0  0
    6.0904   17.1890    3.4791 H   0  0  0  0  0  0  0  0  0  0  0  0
    7.2169   18.5882    3.4791 H   0  0  0  0  0  0  0  0  0  0  0  0
    5.7484   18.7350    6.4230 H   0  0  0  0  0  0  0  0  0  0  0  0
    4.8543   20.2362    6.0064 H   0  0  0  0  0  0  0  0  0  0  0  0
    4.0029   18.6545    6.0064 H   0  0  0  0  0  0  0  0  0  0  0  0
    1.9631   16.6415    0.8832 H   0  0  0  0  0  0  0  0  0  0  0  0
   -0.1549   17.7344    0.5030 H   0  0  0  0  0  0  0  0  0  0  0  0
    0.4145   18.4841   -1.0040 H   0  0  0  0  0  0  0  0  0  0  0  0
   -1.3328   16.2293   -0.8276 H   0  0  0  0  0  0  0  0  0  0  0  0
   -0.4894   16.7121   -2.2969 H   0  0  0  0  0  0  0  0  0  0  0  0
    0.6079   15.2396    1.0904 H   0  0  0  0  0  0  0  0  0  0  0  0
   -0.8785   14.5139    0.3899 H   0  0  0  0  0  0  0  0  0  0  0  0
    0.6598   13.5863    0.3899 H   0  0  0  0  0  0  0  0  0  0  0  0
    0.6127   14.7262   -3.1411 H   0  0  0  0  0  0  0  0  0  0  0  0
   -1.6643   14.1735   -2.0666 H   0  0  0  0  0  0  0  0  0  0  0  0
   -0.9796   13.1445   -3.4312 H   0  0  0  0  0  0  0  0  0  0  0  0
   -2.1180   11.8404   -1.4469 H   0  0  0  0  0  0  0  0  0  0  0  0
    1.7099   12.2922   -0.2419 H   0  0  0  0  0  0  0  0  0  0  0  0
    1.8601   10.2061   -2.5046 H   0  0  0  0  0  0  0  0  0  0  0  0
    3.2502   10.8694   -1.5362 H   0  0  0  0  0  0  0  0  0  0  0  0
    2.5813    8.6079   -0.7864 H   0  0  0  0  0  0  0  0  0  0  0  0
    2.3569    9.8696    0.4881 H   0  0  0  0  0  0  0  0  0  0  0  0
    0.4503    8.4139    0.5012 H   0  0  0  0  0  0  0  0  0  0  0  0
    0.7010    7.7360   -1.7380 H   0  0  0  0  0  0  0  0  0  0  0  0
   -0.5284   10.0592    2.1320 H   0  0  0  0  0  0  0  0  0  0  0  0
    0.9524   10.9130    1.5797 H   0  0  0  0  0  0  0  0  0  0  0  0
   -0.6287   11.7656    1.5797 H   0  0  0  0  0  0  0  0  0  0  0  0
   -2.2282    9.6878    0.9703 H   0  0  0  0  0  0  0  0  0  0  0  0
   -2.4876   10.5483   -0.5850 H   0  0  0  0  0  0  0  0  0  0  0  0
   -1.9081    8.8481   -0.5850 H   0  0  0  0  0  0  0  0  0  0  0  0
    1.9487   11.4070   -3.6314 H   0  0  0  0  0  0  0  0  0  0  0  0
    0.8026   12.6668   -4.2024 H   0  0  0  0  0  0  0  0  0  0  0  0
    2.5690   12.9931   -4.2024 H   0  0  0  0  0  0  0  0  0  0  0  0
    3.7014   12.8951   -1.5238 H   0  0  0  0  0  0  0  0  0  0  0  0
    3.3712   14.1649   -2.8327 H   0  0  0  0  0  0  0  0  0  0  0  0
    2.8653   14.4058    0.1461 H   0  0  0  0  0  0  0  0  0  0  0  0
    4.0465   15.3161   -0.8748 H   0  0  0  0  0  0  0  0  0  0  0  0
    2.8644   17.4734   -2.3932 H   0  0  0  0  0  0  0  0  0  0  0  0
    2.9900   15.8346   -3.1181 H   0  0  0  0  0  0  0  0  0  0  0  0
    1.4150   16.6984   -3.1181 H   0  0  0  0  0  0  0  0  0  0  0  0
  1  2  1  0
  2  3  1  0
  3  4  1  0
  4  5  1  0
  5  6  1  0
  6  7  1  0
  7  8  1  0
  7  9  1  0
  2 10  1  0
 10 11  1  0
 11 12  1  0
 12 13  1  0
 13 14  1  1
 13 15  1  0
 15 16  1  0
 16 17  1  0
 17 18  2  0
 18 19  1  0
 19 20  1  0
 20 21  1  0
 21 22  1  0
 22 23  1  0
 22 24  1  0
 24 25  1  0
 24 26  1  0
 19 27  1  0
 27 28  1  6
 27 29  1  0
 29 30  1  0
 30 31  1  0
 31 32  1  6
  7  5  1  0
 31 10  1  0
 31 13  1  0
 27 15  1  0
 24 18  1  0
  1 33  1  0
  1 34  1  0
  1 35  1  0
  2 36  1  6
  3 37  1  0
  3 38  1  0
  4 39  1  0
  4 40  1  0
  5 41  1  1
  8 42  1  0
  8 43  1  0
  8 44  1  0
  9 45  1  0
  9 46  1  0
  9 47  1  0
 10 48  1  1
 11 49  1  0
 11 50  1  0
 12 51  1  0
 12 52  1  0
 14 53  1  0
 14 54  1  0
 14 55  1  0
 15 56  1  6
 16 57  1  0
 16 58  1  0
 17 59  1  0
 19 60  1  1
 20 61  1  0
 20 62  1  0
 21 63  1  0
 21 64  1  0
 22 65  1  1
 23 66  1  0
 25 67  1  0
 25 68  1  0
 25 69  1  0
 26 70  1  0
 26 71  1  0
 26 72  1  0
 28 73  1  0
 28 74  1  0
 28 75  1  0
 29 76  1  0
 29 77  1  0
 30 78  1  0
 30 79  1  0
 32 80  1  0
 32 81  1  0
 32 82  1  0
M  END
>  <meeko>  (3) 
{"is_sidechain": [false], "intermolecular_energy": 2.731, "internal_energy": -0.839}

$$$$
EPH_relaxed_0001_pdb2pqr_Repair_50_r2_0001_out
     RDKit          3D

 82 86  0  0  0  0  0  0  0  0999 V2000
    2.1770   18.0370   -2.5340 C   0  0  0  0  0  0  0  0  0  0  0  0
    0.6580   17.8880   -2.6540 C   0  0  2  0  0  0  0  0  0  0  0  0
   -0.0740   18.3690   -1.3850 C   0  0  0  0  0  0  0  0  0  0  0  0
    0.6150   17.9550   -0.0820 C   0  0  0  0  0  0  0  0  0  0  0  0
    1.1750   19.1370    0.6500 C   0  0  2  0  0  0  0  0  0  0  0  0
    2.0840   19.9390   -0.1160 O   0  0  0  0  0  0  0  0  0  0  0  0
    2.6380   19.2700    1.0280 C   0  0  0  0  0  0  0  0  0  0  0  0
    3.6320   18.2050    0.6880 C   0  0  0  0  0  0  0  0  0  0  0  0
    3.0060   20.1940    2.1470 C   0  0  0  0  0  0  0  0  0  0  0  0
    0.2990   16.4350   -2.9430 C   0  0  1  0  0  0  0  0  0  0  0  0
    0.3770   16.0900   -4.4540 C   0  0  0  0  0  0  0  0  0  0  0  0
    0.8750   14.6250   -4.5530 C   0  0  0  0  0  0  0  0  0  0  0  0
    0.7500   14.0720   -3.1130 C   0  0  1  0  0  0  0  0  0  0  0  0
   -0.7540   13.6830   -2.9620 C   0  0  0  0  0  0  0  0  0  0  0  0
    1.6940   12.8810   -2.7460 C   0  0  2  0  0  0  0  0  0  0  0  0
    1.4760   11.5990   -3.5670 C   0  0  0  0  0  0  0  0  0  0  0  0
    0.4950   10.6320   -2.9910 C   0  0  0  0  0  0  0  0  0  0  0  0
    0.0300   10.6490   -1.7280 C   0  0  0  0  0  0  0  0  0  0  0  0
    0.5690   11.6560   -0.7040 C   0  0  1  0  0  0  0  0  0  0  0  0
    0.8840   10.9240    0.6270 C   0  0  0  0  0  0  0  0  0  0  0  0
   -0.3090   10.1340    1.1570 C   0  0  0  0  0  0  0  0  0  0  0  0
   -0.7790    9.1030    0.1340 C   0  0  2  0  0  0  0  0  0  0  0  0
    0.2380    8.1090   -0.0200 O   0  0  0  0  0  0  0  0  0  0  0  0
   -1.1170    9.7240   -1.2510 C   0  0  0  0  0  0  0  0  0  0  0  0
   -2.4090   10.5700   -1.1410 C   0  0  0  0  0  0  0  0  0  0  0  0
   -1.4400    8.5620   -2.2280 C   0  0  0  0  0  0  0  0  0  0  0  0
    1.7720   12.5700   -1.1970 C   0  0  1  0  0  0  0  0  0  0  0  0
    3.1280   11.8390   -0.9570 C   0  0  0  0  0  0  0  0  0  0  0  0
    1.8140   13.8800   -0.3240 C   0  0  0  0  0  0  0  0  0  0  0  0
    0.9510   15.0630   -0.8050 C   0  0  0  0  0  0  0  0  0  0  0  0
    1.1840   15.3420   -2.2930 C   0  0  2  0  0  0  0  0  0  0  0  0
    2.6840   15.7570   -2.4730 C   0  0  0  0  0  0  0  0  0  0  0  0
    2.4599   18.0647   -1.4714 H   0  0  0  0  0  0  0  0  0  0  0  0
    2.6689   17.1828   -3.0222 H   0  0  0  0  0  0  0  0  0  0  0  0
    2.4936   18.9705   -3.0222 H   0  0  0  0  0  0  0  0  0  0  0  0
    0.3278   18.5251   -3.4877 H   0  0  0  0  0  0  0  0  0  0  0  0
   -0.1324   19.4671   -1.4131 H   0  0  0  0  0  0  0  0  0  0  0  0
   -1.0668   17.8953   -1.3879 H   0  0  0  0  0  0  0  0  0  0  0  0
   -0.1185   17.4505    0.5642 H   0  0  0  0  0  0  0  0  0  0  0  0
    1.4479   17.2821   -0.3339 H   0  0  0  0  0  0  0  0  0  0  0  0
    0.2493   19.2440    1.2345 H   0  0  0  0  0  0  0  0  0  0  0  0
    4.0365   17.7716    1.6146 H   0  0  0  0  0  0  0  0  0  0  0  0
    3.1386   17.4173    0.0997 H   0  0  0  0  0  0  0  0  0  0  0  0
    4.4518   18.6429    0.0997 H   0  0  0  0  0  0  0  0  0  0  0  0
    2.8093   19.7002    3.1100 H   0  0  0  0  0  0  0  0  0  0  0  0
    4.0739   20.4481    2.0766 H   0  0  0  0  0  0  0  0  0  0  0  0
    2.4051   21.1127    2.0766 H   0  0  0  0  0  0  0  0  0  0  0  0
   -0.7128   16.4050   -2.5126 H   0  0  0  0  0  0  0  0  0  0  0  0
   -0.6169   16.1843   -4.9159 H   0  0  0  0  0  0  0  0  0  0  0  0
    1.0575   16.7750   -4.9810 H   0  0  0  0  0  0  0  0  0  0  0  0
    0.2466   14.0473   -5.2467 H   0  0  0  0  0  0  0  0  0  0  0  0
    1.9036   14.5591   -4.9373 H   0  0  0  0  0  0  0  0  0  0  0  0
   -1.0102   13.6167   -1.8943 H   0  0  0  0  0  0  0  0  0  0  0  0
   -1.3808   14.4486   -3.4426 H   0  0  0  0  0  0  0  0  0  0  0  0
   -0.9310   12.7095   -3.4426 H   0  0  0  0  0  0  0  0  0  0  0  0
    2.6818   13.2618   -3.0448 H   0  0  0  0  0  0  0  0  0  0  0  0
    1.1188   11.8914   -4.5655 H   0  0  0  0  0  0  0  0  0  0  0  0
    2.4447   11.0780   -3.5808 H   0  0  0  0  0  0  0  0  0  0  0  0
    0.1207    9.8388   -3.6548 H   0  0  0  0  0  0  0  0  0  0  0  0
   -0.2365   12.3881   -0.5455 H   0  0  0  0  0  0  0  0  0  0  0  0
    1.7199   10.2293    0.4580 H   0  0  0  0  0  0  0  0  0  0  0  0
    1.1378   11.6883    1.3763 H   0  0  0  0  0  0  0  0  0  0  0  0
   -0.0153    9.6156    2.0816 H   0  0  0  0  0  0  0  0  0  0  0  0
   -1.1341   10.8343    1.3540 H   0  0  0  0  0  0  0  0  0  0  0  0
   -1.7113    8.6612    0.5157 H   0  0  0  0  0  0  0  0  0  0  0  0
    0.8780    8.4410   -0.6730 H   0  0  0  0  0  0  0  0  0  0  0  0
   -2.6533   10.7300   -0.0805 H   0  0  0  0  0  0  0  0  0  0  0  0
   -2.2538   11.5419   -1.6322 H   0  0  0  0  0  0  0  0  0  0  0  0
   -3.2378   10.0391   -1.6322 H   0  0  0  0  0  0  0  0  0  0  0  0
   -1.6911    7.6585   -1.6529 H   0  0  0  0  0  0  0  0  0  0  0  0
   -2.2942    8.8425   -2.8617 H   0  0  0  0  0  0  0  0  0  0  0  0
   -0.5636    8.3614   -2.8617 H   0  0  0  0  0  0  0  0  0  0  0  0
    3.3064   11.7428    0.1242 H   0  0  0  0  0  0  0  0  0  0  0  0
    3.0910   10.8386   -1.4129 H   0  0  0  0  0  0  0  0  0  0  0  0
    3.9434   12.4198   -1.4129 H   0  0  0  0  0  0  0  0  0  0  0  0
    1.4802   13.6151    0.6901 H   0  0  0  0  0  0  0  0  0  0  0  0
    2.8527   14.2361   -0.3887 H   0  0  0  0  0  0  0  0  0  0  0  0
   -0.1105   14.8222   -0.6459 H   0  0  0  0  0  0  0  0  0  0  0  0
    1.2327   15.9586   -0.2318 H   0  0  0  0  0  0  0  0  0  0  0  0
    3.1499   15.8859   -1.4849 H   0  0  0  0  0  0  0  0  0  0  0  0
    3.2171   14.9726   -3.0302 H   0  0  0  0  0  0  0  0  0  0  0  0
    2.7381   16.7039   -3.0302 H   0  0  0  0  0  0  0  0  0  0  0  0
  1  2  1  0
  2  3  1  0
  3  4  1  0
  4  5  1  0
  5  6  1  0
  6  7  1  0
  7  8  1  0
  7  9  1  0
  2 10  1  0
 10 11  1  0
 11 12  1  0
 12 13  1  0
 13 14  1  1
 13 15  1  0
 15 16  1  0
 16 17  1  0
 17 18  2  0
 18 19  1  0
 19 20  1  0
 20 21  1  0
 21 22  1  0
 22 23  1  0
 22 24  1  0
 24 25  1  0
 24 26  1  0
 19 27  1  0
 27 28  1  6
 27 29  1  0
 29 30  1  0
 30 31  1  0
 31 32  1  1
  7  5  1  0
 31 10  1  0
 31 13  1  0
 27 15  1  0
 24 18  1  0
  1 33  1  0
  1 34  1  0
  1 35  1  0
  2 36  1  6
  3 37  1  0
  3 38  1  0
  4 39  1  0
  4 40  1  0
  5 41  1  1
  8 42  1  0
  8 43  1  0
  8 44  1  0
  9 45  1  0
  9 46  1  0
  9 47  1  0
 10 48  1  1
 11 49  1  0
 11 50  1  0
 12 51  1  0
 12 52  1  0
 14 53  1  0
 14 54  1  0
 14 55  1  0
 15 56  1  6
 16 57  1  0
 16 58  1  0
 17 59  1  0
 19 60  1  1
 20 61  1  0
 20 62  1  0
 21 63  1  0
 21 64  1  0
 22 65  1  1
 23 66  1  0
 25 67  1  0
 25 68  1  0
 25 69  1  0
 26 70  1  0
 26 71  1  0
 26 72  1  0
 28 73  1  0
 28 74  1  0
 28 75  1  0
 29 76  1  0
 29 77  1  0
 30 78  1  0
 30 79  1  0
 32 80  1  0
 32 81  1  0
 32 82  1  0
M  END
>  <meeko>  (4) 
{"is_sidechain": [false], "intermolecular_energy": 2.731, "internal_energy": -0.839}

$$$$
EPH_relaxed_0001_pdb2pqr_Repair_50_r2_0001_out
     RDKit          3D

 82 86  0  0  0  0  0  0  0  0999 V2000
    2.0630   18.3040   -2.8480 C   0  0  0  0  0  0  0  0  0  0  0  0
    0.9300   17.7880   -1.9560 C   0  0  2  0  0  0  0  0  0  0  0  0
    1.3200   17.7860   -0.4650 C   0  0  0  0  0  0  0  0  0  0  0  0
    1.2370   19.1650    0.1950 C   0  0  0  0  0  0  0  0  0  0  0  0
   -0.0610   19.8490   -0.1120 C   0  0  2  0  0  0  0  0  0  0  0  0
   -0.8430   20.1940    1.0390 O   0  0  0  0  0  0  0  0  0  0  0  0
   -1.4180   19.2240    0.1490 C   0  0  0  0  0  0  0  0  0  0  0  0
   -1.5460   17.8550    0.7400 C   0  0  0  0  0  0  0  0  0  0  0  0
   -2.6000   19.7340   -0.6160 C   0  0  0  0  0  0  0  0  0  0  0  0
    0.5240   16.3850   -2.3910 C   0  0  1  0  0  0  0  0  0  0  0  0
    0.6390   16.1780   -3.9250 C   0  0  0  0  0  0  0  0  0  0  0  0
    1.0820   14.7090   -4.1460 C   0  0  0  0  0  0  0  0  0  0  0  0
    0.8880   14.0310   -2.7700 C   0  0  1  0  0  0  0  0  0  0  0  0
   -0.6350   13.6930   -2.7000 C   0  0  0  0  0  0  0  0  0  0  0  0
    1.7720   12.7720   -2.4880 C   0  0  2  0  0  0  0  0  0  0  0  0
    1.5310   11.5810   -3.4320 C   0  0  0  0  0  0  0  0  0  0  0  0
    0.4940   10.6080   -2.9780 C   0  0  0  0  0  0  0  0  0  0  0  0
   -0.0120   10.5270   -1.7330 C   0  0  0  0  0  0  0  0  0  0  0  0
    0.5310   11.4120   -0.6040 C   0  0  1  0  0  0  0  0  0  0  0  0
    0.7720   10.5470    0.6610 C   0  0  0  0  0  0  0  0  0  0  0  0
   -0.4680    9.7630    1.0790 C   0  0  0  0  0  0  0  0  0  0  0  0
   -0.9430    8.8520   -0.0500 C   0  0  2  0  0  0  0  0  0  0  0  0
    0.0390    7.8340   -0.2660 O   0  0  0  0  0  0  0  0  0  0  0  0
   -1.2100    9.6110   -1.3800 C   0  0  0  0  0  0  0  0  0  0  0  0
   -2.4710   10.4970   -1.2290 C   0  0  0  0  0  0  0  0  0  0  0  0
   -1.5450    8.5600   -2.4710 C   0  0  0  0  0  0  0  0  0  0  0  0
    1.7850   12.3160   -0.9730 C   0  0  1  0  0  0  0  0  0  0  0  0
    3.1030   11.5090   -0.7630 C   0  0  0  0  0  0  0  0  0  0  0  0
    1.8490   13.5370    0.0200 C   0  0  0  0  0  0  0  0  0  0  0  0
    1.0500   14.7940   -0.3740 C   0  0  0  0  0  0  0  0  0  0  0  0
    1.3430   15.1990   -1.8210 C   0  0  2  0  0  0  0  0  0  0  0  0
    2.8630   15.5660   -1.9170 C   0  0  0  0  0  0  0  0  0  0  0  0
    2.8839   18.6779   -2.2185 H   0  0  0  0  0  0  0  0  0  0  0  0
    2.4317   17.4850   -3.4831 H   0  0  0  0  0  0  0  0  0  0  0  0
    1.6872   19.1197   -3.4831 H   0  0  0  0  0  0  0  0  0  0  0  0
    0.0781   18.4740   -2.0728 H   0  0  0  0  0  0  0  0  0  0  0  0
    0.6431   17.1037    0.0700 H   0  0  0  0  0  0  0  0  0  0  0  0
    2.3706   17.4652   -0.4081 H   0  0  0  0  0  0  0  0  0  0  0  0
    1.3277   19.0448    1.2846 H   0  0  0  0  0  0  0  0  0  0  0  0
    2.0540   19.7852   -0.2024 H   0  0  0  0  0  0  0  0  0  0  0  0
    0.3733   20.3238   -1.0042 H   0  0  0  0  0  0  0  0  0  0  0  0
   -1.5392   17.9274    1.8376 H   0  0  0  0  0  0  0  0  0  0  0  0
   -2.4907   17.3993    0.4084 H   0  0  0  0  0  0  0  0  0  0  0  0
   -0.7022   17.2321    0.4084 H   0  0  0  0  0  0  0  0  0  0  0  0
   -3.3759   20.0688    0.0882 H   0  0  0  0  0  0  0  0  0  0  0  0
   -2.2904   20.5786   -1.2491 H   0  0  0  0  0  0  0  0  0  0  0  0
   -3.0020   18.9293   -1.2491 H   0  0  0  0  0  0  0  0  0  0  0  0
   -0.5020   16.3589   -1.9953 H   0  0  0  0  0  0  0  0  0  0  0  0
   -0.3343   16.3565   -4.4054 H   0  0  0  0  0  0  0  0  0  0  0  0
    1.3632   16.8794   -4.3650 H   0  0  0  0  0  0  0  0  0  0  0  0
    0.4548   14.2250   -4.9091 H   0  0  0  0  0  0  0  0  0  0  0  0
    2.1195   14.6359   -4.5041 H   0  0  0  0  0  0  0  0  0  0  0  0
   -0.9472   13.6237   -1.6475 H   0  0  0  0  0  0  0  0  0  0  0  0
   -1.2099   14.4854   -3.2016 H   0  0  0  0  0  0  0  0  0  0  0  0
   -0.8207   12.7318   -3.2016 H   0  0  0  0  0  0  0  0  0  0  0  0
    2.7835   13.1366   -2.7201 H   0  0  0  0  0  0  0  0  0  0  0  0
    1.2192   11.9791   -4.4089 H   0  0  0  0  0  0  0  0  0  0  0  0
    2.4782   11.0228   -3.4661 H   0  0  0  0  0  0  0  0  0  0  0  0
    0.1106    9.8966   -3.7242 H   0  0  0  0  0  0  0  0  0  0  0  0
   -0.2497   12.1601   -0.4020 H   0  0  0  0  0  0  0  0  0  0  0  0
    1.5849    9.8359    0.4522 H   0  0  0  0  0  0  0  0  0  0  0  0
    1.0306   11.2271    1.4860 H   0  0  0  0  0  0  0  0  0  0  0  0
   -0.2263    9.1493    1.9593 H   0  0  0  0  0  0  0  0  0  0  0  0
   -1.2711   10.4762    1.3165 H   0  0  0  0  0  0  0  0  0  0  0  0
   -1.9043    8.4170    0.2608 H   0  0  0  0  0  0  0  0  0  0  0  0
   -0.3260    7.2040   -0.9090 H   0  0  0  0  0  0  0  0  0  0  0  0
   -2.6868   10.6486   -0.1611 H   0  0  0  0  0  0  0  0  0  0  0  0
   -2.2946   11.4707   -1.7093 H   0  0  0  0  0  0  0  0  0  0  0  0
   -3.3273   10.0010   -1.7093 H   0  0  0  0  0  0  0  0  0  0  0  0
   -1.8456    7.6168   -1.9915 H   0  0  0  0  0  0  0  0  0  0  0  0
   -2.3692    8.9318   -3.0975 H   0  0  0  0  0  0  0  0  0  0  0  0
   -0.6577    8.3863   -3.0975 H   0  0  0  0  0  0  0  0  0  0  0  0
    3.2938   11.3922    0.3140 H   0  0  0  0  0  0  0  0  0  0  0  0
    3.0034   10.5168   -1.2275 H   0  0  0  0  0  0  0  0  0  0  0  0
    3.9414   12.0488   -1.2275 H   0  0  0  0  0  0  0  0  0  0  0  0
    1.4709   13.1940    0.9944 H   0  0  0  0  0  0  0  0  0  0  0  0
    2.9025   13.8534    0.0204 H   0  0  0  0  0  0  0  0  0  0  0  0
   -0.0248   14.5844   -0.2697 H   0  0  0  0  0  0  0  0  0  0  0  0
    1.3475   15.6203    0.2883 H   0  0  0  0  0  0  0  0  0  0  0  0
    3.2805   15.6668   -0.9043 H   0  0  0  0  0  0  0  0  0  0  0  0
    3.3987   14.7714   -2.4570 H   0  0  0  0  0  0  0  0  0  0  0  0
    2.9771   16.5175   -2.4570 H   0  0  0  0  0  0  0  0  0  0  0  0
  1  2  1  0
  2  3  1  0
  3  4  1  0
  4  5  1  0
  5  6  1  0
  6  7  1  0
  7  8  1  0
  7  9  1  0
  2 10  1  0
 10 11  1  0
 11 12  1  0
 12 13  1  0
 13 14  1  1
 13 15  1  0
 15 16  1  0
 16 17  1  0
 17 18  2  0
 18 19  1  0
 19 20  1  0
 20 21  1  0
 21 22  1  0
 22 23  1  0
 22 24  1  0
 24 25  1  0
 24 26  1  0
 19 27  1  0
 27 28  1  6
 27 29  1  0
 29 30  1  0
 30 31  1  0
 31 32  1  1
  7  5  1  0
 31 10  1  0
 31 13  1  0
 27 15  1  0
 24 18  1  0
  1 33  1  0
  1 34  1  0
  1 35  1  0
  2 36  1  1
  3 37  1  0
  3 38  1  0
  4 39  1  0
  4 40  1  0
  5 41  1  6
  8 42  1  0
  8 43  1  0
  8 44  1  0
  9 45  1  0
  9 46  1  0
  9 47  1  0
 10 48  1  1
 11 49  1  0
 11 50  1  0
 12 51  1  0
 12 52  1  0
 14 53  1  0
 14 54  1  0
 14 55  1  0
 15 56  1  6
 16 57  1  0
 16 58  1  0
 17 59  1  0
 19 60  1  1
 20 61  1  0
 20 62  1  0
 21 63  1  0
 21 64  1  0
 22 65  1  1
 23 66  1  0
 25 67  1  0
 25 68  1  0
 25 69  1  0
 26 70  1  0
 26 71  1  0
 26 72  1  0
 28 73  1  0
 28 74  1  0
 28 75  1  0
 29 76  1  0
 29 77  1  0
 30 78  1  0
 30 79  1  0
 32 80  1  0
 32 81  1  0
 32 82  1  0
M  END
>  <meeko>  (5) 
{"is_sidechain": [false], "intermolecular_energy": 2.731, "internal_energy": -0.839}

$$$$
EPH_relaxed_0001_pdb2pqr_Repair_50_r2_0001_out
     RDKit          3D

 82 86  0  0  0  0  0  0  0  0999 V2000
    0.4380    8.8380   -2.4010 C   0  0  0  0  0  0  0  0  0  0  0  0
    1.1860    9.9850   -3.0880 C   0  0  2  0  0  0  0  0  0  0  0  0
    2.6840   10.0010   -2.7240 C   0  0  0  0  0  0  0  0  0  0  0  0
    3.5750   10.6070   -3.8120 C   0  0  0  0  0  0  0  0  0  0  0  0
    4.9740   10.8300   -3.3230 C   0  0  2  0  0  0  0  0  0  0  0  0
    5.5780   12.0500   -3.7730 O   0  0  0  0  0  0  0  0  0  0  0  0
    6.1880   10.8320   -4.2320 C   0  0  0  0  0  0  0  0  0  0  0  0
    6.0600   10.6050   -5.7060 C   0  0  0  0  0  0  0  0  0  0  0  0
    7.5330   10.5670   -3.6310 C   0  0  0  0  0  0  0  0  0  0  0  0
    0.5460   11.3180   -2.7180 C   0  0  1  0  0  0  0  0  0  0  0  0
   -0.8310   11.1470   -2.0220 C   0  0  0  0  0  0  0  0  0  0  0  0
   -0.9470   12.2840   -0.9750 C   0  0  0  0  0  0  0  0  0  0  0  0
    0.2020   13.2580   -1.3280 C   0  0  1  0  0  0  0  0  0  0  0  0
   -0.3490   14.1170   -2.5090 C   0  0  0  0  0  0  0  0  0  0  0  0
    0.7320   14.1530   -0.1610 C   0  0  2  0  0  0  0  0  0  0  0  0
   -0.2990   15.1280    0.4340 C   0  0  0  0  0  0  0  0  0  0  0  0
   -0.3450   16.4770   -0.2050 C   0  0  0  0  0  0  0  0  0  0  0  0
    0.5970   16.9880   -1.0210 C   0  0  0  0  0  0  0  0  0  0  0  0
    1.8980   16.2240   -1.2970 C   0  0  1  0  0  0  0  0  0  0  0  0
    3.1040   17.1920   -1.1660 C   0  0  0  0  0  0  0  0  0  0  0  0
    2.9570   18.4320   -2.0430 C   0  0  0  0  0  0  0  0  0  0  0  0
    1.6810   19.1950   -1.6990 C   0  0  2  0  0  0  0  0  0  0  0  0
    1.8060   19.7320   -0.3780 O   0  0  0  0  0  0  0  0  0  0  0  0
    0.4000   18.3190   -1.7870 C   0  0  0  0  0  0  0  0  0  0  0  0
    0.0970   17.9870   -3.2690 C   0  0  0  0  0  0  0  0  0  0  0  0
   -0.7960   19.1690   -1.2800 C   0  0  0  0  0  0  0  0  0  0  0  0
    2.1020   14.8810   -0.4730 C   0  0  1  0  0  0  0  0  0  0  0  0
    2.7630   15.1960    0.9040 C   0  0  0  0  0  0  0  0  0  0  0  0
    3.1100   13.9510   -1.2470 C   0  0  0  0  0  0  0  0  0  0  0  0
    2.5110   13.0040   -2.3040 C   0  0  0  0  0  0  0  0  0  0  0  0
    1.3190   12.2290   -1.7320 C   0  0  2  0  0  0  0  0  0  0  0  0
    1.8470   11.3380   -0.5570 C   0  0  0  0  0  0  0  0  0  0  0  0
    0.5130    8.9530   -1.3096 H   0  0  0  0  0  0  0  0  0  0  0  0
   -0.6204    8.8593   -2.7001 H   0  0  0  0  0  0  0  0  0  0  0  0
    0.8843    7.8781   -2.7001 H   0  0  0  0  0  0  0  0  0  0  0  0
    1.1116    9.8255   -4.1738 H   0  0  0  0  0  0  0  0  0  0  0  0
    2.8114   10.5891   -1.8032 H   0  0  0  0  0  0  0  0  0  0  0  0
    2.9959    8.9535   -2.5993 H   0  0  0  0  0  0  0  0  0  0  0  0
    3.6031    9.9219   -4.6722 H   0  0  0  0  0  0  0  0  0  0  0  0
    3.1524   11.5816   -4.0976 H   0  0  0  0  0  0  0  0  0  0  0  0
    4.7559   10.2979   -2.3853 H   0  0  0  0  0  0  0  0  0  0  0  0
    5.5270    9.6598   -5.8865 H   0  0  0  0  0  0  0  0  0  0  0  0
    5.4971   11.4353   -6.1573 H   0  0  0  0  0  0  0  0  0  0  0  0
    7.0618   10.5530   -6.1573 H   0  0  0  0  0  0  0  0  0  0  0  0
    7.4539   10.5826   -2.5340 H   0  0  0  0  0  0  0  0  0  0  0  0
    7.8931    9.5806   -3.9587 H   0  0  0  0  0  0  0  0  0  0  0  0
    8.2404   11.3430   -3.9587 H   0  0  0  0  0  0  0  0  0  0  0  0
    0.5084   11.7864   -3.7126 H   0  0  0  0  0  0  0  0  0  0  0  0
   -1.6417   11.2284   -2.7610 H   0  0  0  0  0  0  0  0  0  0  0  0
   -0.9119   10.1598   -1.5436 H   0  0  0  0  0  0  0  0  0  0  0  0
   -1.9216   12.7878   -1.0551 H   0  0  0  0  0  0  0  0  0  0  0  0
   -0.8747   11.9099    0.0569 H   0  0  0  0  0  0  0  0  0  0  0  0
   -0.9021   14.9793   -2.1083 H   0  0  0  0  0  0  0  0  0  0  0  0
    0.4894   14.4735   -3.1255 H   0  0  0  0  0  0  0  0  0  0  0  0
   -1.0226   13.5036   -3.1255 H   0  0  0  0  0  0  0  0  0  0  0  0
    0.9352   13.4144    0.6284 H   0  0  0  0  0  0  0  0  0  0  0  0
   -1.2948   14.6713    0.3355 H   0  0  0  0  0  0  0  0  0  0  0  0
    0.0079   15.2959    1.4769 H   0  0  0  0  0  0  0  0  0  0  0  0
   -1.2217   17.1061    0.0086 H   0  0  0  0  0  0  0  0  0  0  0  0
    1.8224   15.8585   -2.3318 H   0  0  0  0  0  0  0  0  0  0  0  0
    3.1882   17.5104   -0.1165 H   0  0  0  0  0  0  0  0  0  0  0  0
    4.0029   16.6524   -1.4988 H   0  0  0  0  0  0  0  0  0  0  0  0
    3.8239   19.0902   -1.8841 H   0  0  0  0  0  0  0  0  0  0  0  0
    2.9032   18.1139   -3.0946 H   0  0  0  0  0  0  0  0  0  0  0  0
    1.5654   19.9957   -2.4443 H   0  0  0  0  0  0  0  0  0  0  0  0
    1.1800   19.2570    0.1930 H   0  0  0  0  0  0  0  0  0  0  0  0
   -0.6438   17.1753   -3.3189 H   0  0  0  0  0  0  0  0  0  0  0  0
   -0.3036   18.8804   -3.7704 H   0  0  0  0  0  0  0  0  0  0  0  0
    1.0232   17.6695   -3.7704 H   0  0  0  0  0  0  0  0  0  0  0  0
   -0.8024   19.1736   -0.1800 H   0  0  0  0  0  0  0  0  0  0  0  0
   -0.6962   20.2000   -1.6504 H   0  0  0  0  0  0  0  0  0  0  0  0
   -1.7368   18.7358   -1.6504 H   0  0  0  0  0  0  0  0  0  0  0  0
    2.0918   14.8761    1.7147 H   0  0  0  0  0  0  0  0  0  0  0  0
    3.7181   14.6562    0.9843 H   0  0  0  0  0  0  0  0  0  0  0  0
    2.9453   16.2778    0.9843 H   0  0  0  0  0  0  0  0  0  0  0  0
    3.8376   14.6001   -1.7562 H   0  0  0  0  0  0  0  0  0  0  0  0
    3.5391   13.2903   -0.4793 H   0  0  0  0  0  0  0  0  0  0  0  0
    2.1745   13.5957   -3.1681 H   0  0  0  0  0  0  0  0  0  0  0  0
    3.2845   12.2838   -2.6089 H   0  0  0  0  0  0  0  0  0  0  0  0
    1.5740   11.7987    0.4038 H   0  0  0  0  0  0  0  0  0  0  0  0
    1.3963   10.3369   -0.6248 H   0  0  0  0  0  0  0  0  0  0  0  0
    2.9416   11.2526   -0.6248 H   0  0  0  0  0  0  0  0  0  0  0  0
  1  2  1  0
  2  3  1  0
  3  4  1  0
  4  5  1  0
  5  6  1  0
  6  7  1  0
  7  8  1  0
  7  9  1  0
  2 10  1  0
 10 11  1  0
 11 12  1  0
 12 13  1  0
 13 14  1  6
 13 15  1  0
 15 16  1  0
 16 17  1  0
 17 18  2  0
 18 19  1  0
 19 20  1  0
 20 21  1  0
 21 22  1  0
 22 23  1  0
 22 24  1  0
 24 25  1  0
 24 26  1  0
 19 27  1  0
 27 28  1  1
 27 29  1  0
 29 30  1  0
 30 31  1  0
 31 32  1  1
  7  5  1  0
 31 10  1  0
 31 13  1  0
 27 15  1  0
 24 18  1  0
  1 33  1  0
  1 34  1  0
  1 35  1  0
  2 36  1  6
  3 37  1  0
  3 38  1  0
  4 39  1  0
  4 40  1  0
  5 41  1  1
  8 42  1  0
  8 43  1  0
  8 44  1  0
  9 45  1  0
  9 46  1  0
  9 47  1  0
 10 48  1  6
 11 49  1  0
 11 50  1  0
 12 51  1  0
 12 52  1  0
 14 53  1  0
 14 54  1  0
 14 55  1  0
 15 56  1  1
 16 57  1  0
 16 58  1  0
 17 59  1  0
 19 60  1  6
 20 61  1  0
 20 62  1  0
 21 63  1  0
 21 64  1  0
 22 65  1  6
 23 66  1  0
 25 67  1  0
 25 68  1  0
 25 69  1  0
 26 70  1  0
 26 71  1  0
 26 72  1  0
 28 73  1  0
 28 74  1  0
 28 75  1  0
 29 76  1  0
 29 77  1  0
 30 78  1  0
 30 79  1  0
 32 80  1  0
 32 81  1  0
 32 82  1  0
M  END
>  <meeko>  (6) 
{"is_sidechain": [false], "intermolecular_energy": 2.731, "internal_energy": -0.839}

$$$$
EPH_relaxed_0001_pdb2pqr_Repair_50_r2_0001_out
     RDKit          3D

 82 86  0  0  0  0  0  0  0  0999 V2000
  -14.4650    6.9070   -3.9050 C   0  0  0  0  0  0  0  0  0  0  0  0
  -14.5330    7.7070   -2.6010 C   0  0  2  0  0  0  0  0  0  0  0  0
  -15.2840    9.0420   -2.7780 C   0  0  0  0  0  0  0  0  0  0  0  0
  -15.1230    9.6590   -4.1700 C   0  0  0  0  0  0  0  0  0  0  0  0
  -15.2840   11.1490   -4.1370 C   0  0  2  0  0  0  0  0  0  0  0  0
  -14.2040   11.8800   -4.7320 O   0  0  0  0  0  0  0  0  0  0  0  0
  -14.3960   12.0690   -3.3210 C   0  0  0  0  0  0  0  0  0  0  0  0
  -13.2810   11.5320   -2.4780 C   0  0  0  0  0  0  0  0  0  0  0  0
  -14.9130   13.4260   -2.9580 C   0  0  0  0  0  0  0  0  0  0  0  0
  -13.1260    7.9650   -2.0760 C   0  0  1  0  0  0  0  0  0  0  0  0
  -13.1240    8.5800   -0.6510 C   0  0  0  0  0  0  0  0  0  0  0  0
  -11.8860    8.0040    0.0830 C   0  0  0  0  0  0  0  0  0  0  0  0
  -11.0410    7.3460   -1.0340 C   0  0  1  0  0  0  0  0  0  0  0  0
  -10.2590    8.5260   -1.6920 C   0  0  0  0  0  0  0  0  0  0  0  0
  -10.0820    6.1950   -0.5880 C   0  0  2  0  0  0  0  0  0  0  0  0
   -8.9790    6.6110    0.4010 C   0  0  0  0  0  0  0  0  0  0  0  0
   -7.6980    7.0560   -0.2230 C   0  0  0  0  0  0  0  0  0  0  0  0
   -7.3410    6.8530   -1.5050 C   0  0  0  0  0  0  0  0  0  0  0  0
   -8.2240    6.0250   -2.4470 C   0  0  1  0  0  0  0  0  0  0  0  0
   -7.3440    5.0160   -3.2290 C   0  0  0  0  0  0  0  0  0  0  0  0
   -6.1860    5.6910   -3.9580 C   0  0  0  0  0  0  0  0  0  0  0  0
   -5.2970    6.4550   -2.9800 C   0  0  2  0  0  0  0  0  0  0  0  0
   -4.6480    5.5160   -2.1170 O   0  0  0  0  0  0  0  0  0  0  0  0
   -6.0770    7.4950   -2.1280 C   0  0  0  0  0  0  0  0  0  0  0  0
   -6.5250    8.6740   -3.0280 C   0  0  0  0  0  0  0  0  0  0  0  0
   -5.0930    8.0940   -1.0870 C   0  0  0  0  0  0  0  0  0  0  0  0
   -9.4950    5.3400   -1.7830 C   0  0  1  0  0  0  0  0  0  0  0  0
   -9.1020    3.9540   -1.1880 C   0  0  0  0  0  0  0  0  0  0  0  0
  -10.5690    5.0570   -2.9000 C   0  0  0  0  0  0  0  0  0  0  0  0
  -11.5640    6.1910   -3.2110 C   0  0  0  0  0  0  0  0  0  0  0  0
  -12.1870    6.7420   -1.9250 C   0  0  2  0  0  0  0  0  0  0  0  0
  -12.9990    5.5840   -1.2530 C   0  0  0  0  0  0  0  0  0  0  0  0
  -14.3739    5.8355   -3.6735 H   0  0  0  0  0  0  0  0  0  0  0  0
  -15.3810    7.0794   -4.4891 H   0  0  0  0  0  0  0  0  0  0  0  0
  -13.5912    7.2315   -4.4891 H   0  0  0  0  0  0  0  0  0  0  0  0
  -15.0965    7.1060   -1.8721 H   0  0  0  0  0  0  0  0  0  0  0  0
  -16.3547    8.8646   -2.5985 H   0  0  0  0  0  0  0  0  0  0  0  0
  -14.8500    9.7527   -2.0593 H   0  0  0  0  0  0  0  0  0  0  0  0
  -14.1209    9.4170   -4.5537 H   0  0  0  0  0  0  0  0  0  0  0  0
  -15.9053    9.2435   -4.8223 H   0  0  0  0  0  0  0  0  0  0  0  0
  -16.3774   11.0564   -4.2133 H   0  0  0  0  0  0  0  0  0  0  0  0
  -13.5340   11.6538   -1.4144 H   0  0  0  0  0  0  0  0  0  0  0  0
  -13.1347   10.4646   -2.7001 H   0  0  0  0  0  0  0  0  0  0  0  0
  -12.3552   12.0830   -2.7001 H   0  0  0  0  0  0  0  0  0  0  0  0
  -14.9501   13.5234   -1.8629 H   0  0  0  0  0  0  0  0  0  0  0  0
  -14.2451   14.1957   -3.3721 H   0  0  0  0  0  0  0  0  0  0  0  0
  -15.9237   13.5562   -3.3721 H   0  0  0  0  0  0  0  0  0  0  0  0
  -12.7526    8.6297   -2.8690 H   0  0  0  0  0  0  0  0  0  0  0  0
  -13.0525    9.6760   -0.7115 H   0  0  0  0  0  0  0  0  0  0  0  0
  -14.0517    8.3341   -0.1134 H   0  0  0  0  0  0  0  0  0  0  0  0
  -11.3190    8.8069    0.5769 H   0  0  0  0  0  0  0  0  0  0  0  0
  -12.1638    7.2893    0.8717 H   0  0  0  0  0  0  0  0  0  0  0  0
   -9.8338    9.1676   -0.9061 H   0  0  0  0  0  0  0  0  0  0  0  0
   -9.4474    8.1248   -2.3168 H   0  0  0  0  0  0  0  0  0  0  0  0
  -10.9447    9.1171   -2.3168 H   0  0  0  0  0  0  0  0  0  0  0  0
  -10.7551    5.5331   -0.0234 H   0  0  0  0  0  0  0  0  0  0  0  0
   -9.3654    7.4400    1.0121 H   0  0  0  0  0  0  0  0  0  0  0  0
   -8.7369    5.7099    0.9836 H   0  0  0  0  0  0  0  0  0  0  0  0
   -6.9858    7.5952    0.4188 H   0  0  0  0  0  0  0  0  0  0  0  0
   -8.6788    6.7427   -3.1456 H   0  0  0  0  0  0  0  0  0  0  0  0
   -6.9340    4.2821   -2.5196 H   0  0  0  0  0  0  0  0  0  0  0  0
   -7.9804    4.5354   -3.9866 H   0  0  0  0  0  0  0  0  0  0  0  0
   -5.5846    4.9234   -4.4670 H   0  0  0  0  0  0  0  0  0  0  0  0
   -6.5980    6.4033   -4.6880 H   0  0  0  0  0  0  0  0  0  0  0  0
   -4.5642    7.0215   -3.5733 H   0  0  0  0  0  0  0  0  0  0  0  0
   -4.5070    4.6990   -2.6240 H   0  0  0  0  0  0  0  0  0  0  0  0
   -6.8450    9.5161   -2.3968 H   0  0  0  0  0  0  0  0  0  0  0  0
   -5.6845    8.9905   -3.6631 H   0  0  0  0  0  0  0  0  0  0  0  0
   -7.3636    8.3524   -3.6631 H   0  0  0  0  0  0  0  0  0  0  0  0
   -5.4546    7.8739   -0.0717 H   0  0  0  0  0  0  0  0  0  0  0  0
   -4.0966    7.6491   -1.2259 H   0  0  0  0  0  0  0  0  0  0  0  0
   -5.0307    9.1834   -1.2259 H   0  0  0  0  0  0  0  0  0  0  0  0
   -9.1175    4.0088   -0.0895 H   0  0  0  0  0  0  0  0  0  0  0  0
   -9.8196    3.1925   -1.5273 H   0  0  0  0  0  0  0  0  0  0  0  0
   -8.0915    3.6825   -1.5273 H   0  0  0  0  0  0  0  0  0  0  0  0
  -10.0288    4.8242   -3.8295 H   0  0  0  0  0  0  0  0  0  0  0  0
  -11.1842    4.2348   -2.5056 H   0  0  0  0  0  0  0  0  0  0  0  0
  -11.0335    7.0027   -3.7303 H   0  0  0  0  0  0  0  0  0  0  0  0
  -12.3675    5.7883   -3.8453 H   0  0  0  0  0  0  0  0  0  0  0  0
  -12.9336    5.6773   -0.1589 H   0  0  0  0  0  0  0  0  0  0  0  0
  -14.0523    5.6463   -1.5640 H   0  0  0  0  0  0  0  0  0  0  0  0
  -12.5815    4.6150   -1.5640 H   0  0  0  0  0  0  0  0  0  0  0  0
  1  2  1  0
  2  3  1  0
  3  4  1  0
  4  5  1  0
  5  6  1  0
  6  7  1  0
  7  8  1  0
  7  9  1  0
  2 10  1  0
 10 11  1  0
 11 12  1  0
 12 13  1  0
 13 14  1  6
 13 15  1  0
 15 16  1  0
 16 17  1  0
 17 18  2  0
 18 19  1  0
 19 20  1  0
 20 21  1  0
 21 22  1  0
 22 23  1  0
 22 24  1  0
 24 25  1  0
 24 26  1  0
 19 27  1  0
 27 28  1  1
 27 29  1  0
 29 30  1  0
 30 31  1  0
 31 32  1  1
  7  5  1  0
 31 10  1  0
 31 13  1  0
 27 15  1  0
 24 18  1  0
  1 33  1  0
  1 34  1  0
  1 35  1  0
  2 36  1  1
  3 37  1  0
  3 38  1  0
  4 39  1  0
  4 40  1  0
  5 41  1  6
  8 42  1  0
  8 43  1  0
  8 44  1  0
  9 45  1  0
  9 46  1  0
  9 47  1  0
 10 48  1  6
 11 49  1  0
 11 50  1  0
 12 51  1  0
 12 52  1  0
 14 53  1  0
 14 54  1  0
 14 55  1  0
 15 56  1  1
 16 57  1  0
 16 58  1  0
 17 59  1  0
 19 60  1  6
 20 61  1  0
 20 62  1  0
 21 63  1  0
 21 64  1  0
 22 65  1  6
 23 66  1  0
 25 67  1  0
 25 68  1  0
 25 69  1  0
 26 70  1  0
 26 71  1  0
 26 72  1  0
 28 73  1  0
 28 74  1  0
 28 75  1  0
 29 76  1  0
 29 77  1  0
 30 78  1  0
 30 79  1  0
 32 80  1  0
 32 81  1  0
 32 82  1  0
M  END
>  <meeko>  (7) 
{"is_sidechain": [false], "intermolecular_energy": 2.731, "internal_energy": -0.839}

$$$$
EPH_relaxed_0001_pdb2pqr_Repair_50_r2_0001_out
     RDKit          3D

 82 86  0  0  0  0  0  0  0  0999 V2000
   -4.5630    7.4550   -3.0820 C   0  0  0  0  0  0  0  0  0  0  0  0
   -5.4930    7.3170   -1.8740 C   0  0  2  0  0  0  0  0  0  0  0  0
   -5.3580    5.9410   -1.1910 C   0  0  0  0  0  0  0  0  0  0  0  0
   -4.7900    4.8530   -2.1070 C   0  0  0  0  0  0  0  0  0  0  0  0
   -5.8280    3.8350   -2.4690 C   0  0  2  0  0  0  0  0  0  0  0  0
   -5.4390    2.9250   -3.5060 O   0  0  0  0  0  0  0  0  0  0  0  0
   -6.5350    3.8030   -3.8110 C   0  0  0  0  0  0  0  0  0  0  0  0
   -6.2320    4.8080   -4.8770 C   0  0  0  0  0  0  0  0  0  0  0  0
   -7.8570    3.1060   -3.9070 C   0  0  0  0  0  0  0  0  0  0  0  0
   -6.9380    7.5450   -2.3030 C   0  0  1  0  0  0  0  0  0  0  0  0
   -7.2720    6.8740   -3.6620 C   0  0  0  0  0  0  0  0  0  0  0  0
   -8.7430    6.3930   -3.5740 C   0  0  0  0  0  0  0  0  0  0  0  0
   -9.3060    7.0880   -2.3120 C   0  0  1  0  0  0  0  0  0  0  0  0
   -9.6740    8.5310   -2.7790 C   0  0  0  0  0  0  0  0  0  0  0  0
  -10.5140    6.3810   -1.6150 C   0  0  2  0  0  0  0  0  0  0  0  0
  -11.7860    6.2670   -2.4730 C   0  0  0  0  0  0  0  0  0  0  0  0
  -12.7430    7.4060   -2.3490 C   0  0  0  0  0  0  0  0  0  0  0  0
  -12.7300    8.3370   -1.3760 C   0  0  0  0  0  0  0  0  0  0  0  0
  -11.7400    8.2410   -0.2090 C   0  0  1  0  0  0  0  0  0  0  0  0
  -12.4890    8.4920    1.1270 C   0  0  0  0  0  0  0  0  0  0  0  0
  -13.2640    9.8050    1.1250 C   0  0  0  0  0  0  0  0  0  0  0  0
  -14.2790    9.8380   -0.0150 C   0  0  2  0  0  0  0  0  0  0  0  0
  -15.2870    8.8540    0.2370 O   0  0  0  0  0  0  0  0  0  0  0  0
  -13.6420    9.5880   -1.4100 C   0  0  0  0  0  0  0  0  0  0  0  0
  -12.7770   10.8080   -1.8130 C   0  0  0  0  0  0  0  0  0  0  0  0
  -14.7900    9.5060   -2.4520 C   0  0  0  0  0  0  0  0  0  0  0  0
  -10.8400    6.9320   -0.1680 C   0  0  1  0  0  0  0  0  0  0  0  0
  -11.5930    5.7920    0.5830 C   0  0  0  0  0  0  0  0  0  0  0  0
   -9.5380    7.2290    0.6670 C   0  0  0  0  0  0  0  0  0  0  0  0
   -8.3390    7.8150   -0.1020 C   0  0  0  0  0  0  0  0  0  0  0  0
   -8.0510    7.0050   -1.3690 C   0  0  2  0  0  0  0  0  0  0  0  0
   -7.6560    5.5540   -0.9300 C   0  0  0  0  0  0  0  0  0  0  0  0
   -3.5307    7.6082   -2.7344 H   0  0  0  0  0  0  0  0  0  0  0  0
   -4.6132    6.5396   -3.6898 H   0  0  0  0  0  0  0  0  0  0  0  0
   -4.8768    8.3164   -3.6898 H   0  0  0  0  0  0  0  0  0  0  0  0
   -5.1972    8.0806   -1.1395 H   0  0  0  0  0  0  0  0  0  0  0  0
   -4.6906    6.0479   -0.3232 H   0  0  0  0  0  0  0  0  0  0  0  0
   -6.3713    5.6234   -0.9040 H   0  0  0  0  0  0  0  0  0  0  0  0
   -4.4150    5.3228   -3.0283 H   0  0  0  0  0  0  0  0  0  0  0  0
   -3.9800    4.3397   -1.5680 H   0  0  0  0  0  0  0  0  0  0  0  0
   -6.2048    3.8172   -1.4357 H   0  0  0  0  0  0  0  0  0  0  0  0
   -5.9444    5.7618   -4.4106 H   0  0  0  0  0  0  0  0  0  0  0  0
   -5.4045    4.4413   -5.5021 H   0  0  0  0  0  0  0  0  0  0  0  0
   -7.1243    4.9598   -5.5021 H   0  0  0  0  0  0  0  0  0  0  0  0
   -8.2395    2.9043   -2.8955 H   0  0  0  0  0  0  0  0  0  0  0  0
   -8.5702    3.7453   -4.4480 H   0  0  0  0  0  0  0  0  0  0  0  0
   -7.7324    2.1564   -4.4480 H   0  0  0  0  0  0  0  0  0  0  0  0
   -6.9553    8.6448   -2.3128 H   0  0  0  0  0  0  0  0  0  0  0  0
   -7.1592    7.6000   -4.4807 H   0  0  0  0  0  0  0  0  0  0  0  0
   -6.5929    6.0327   -3.8644 H   0  0  0  0  0  0  0  0  0  0  0  0
   -9.3054    6.6979   -4.4688 H   0  0  0  0  0  0  0  0  0  0  0  0
   -8.8208    5.2973   -3.5166 H   0  0  0  0  0  0  0  0  0  0  0  0
   -9.8371    9.1707   -1.8991 H   0  0  0  0  0  0  0  0  0  0  0  0
   -8.8518    8.9416   -3.3835 H   0  0  0  0  0  0  0  0  0  0  0  0
  -10.5924    8.4977   -3.3835 H   0  0  0  0  0  0  0  0  0  0  0  0
  -10.1454    5.3523   -1.4890 H   0  0  0  0  0  0  0  0  0  0  0  0
  -11.4796    6.1937   -3.5269 H   0  0  0  0  0  0  0  0  0  0  0  0
  -12.3213    5.3785   -2.1070 H   0  0  0  0  0  0  0  0  0  0  0  0
  -13.5252    7.4922   -3.1176 H   0  0  0  0  0  0  0  0  0  0  0  0
  -10.9964    9.0344   -0.3751 H   0  0  0  0  0  0  0  0  0  0  0  0
  -13.1954    7.6659    1.2958 H   0  0  0  0  0  0  0  0  0  0  0  0
  -11.7356    8.5502    1.9264 H   0  0  0  0  0  0  0  0  0  0  0  0
  -13.7947    9.9112    2.0826 H   0  0  0  0  0  0  0  0  0  0  0  0
  -12.5526   10.6323    0.9856 H   0  0  0  0  0  0  0  0  0  0  0  0
  -14.7097   10.8498   -0.0441 H   0  0  0  0  0  0  0  0  0  0  0  0
  -14.8670    8.1170    0.7120 H   0  0  0  0  0  0  0  0  0  0  0  0
  -12.4162   11.3169   -0.9070 H   0  0  0  0  0  0  0  0  0  0  0  0
  -11.9176   10.4673   -2.4091 H   0  0  0  0  0  0  0  0  0  0  0  0
  -13.3829   11.5062   -2.4091 H   0  0  0  0  0  0  0  0  0  0  0  0
  -15.7554    9.4370   -1.9293 H   0  0  0  0  0  0  0  0  0  0  0  0
  -14.7780   10.4073   -3.0825 H   0  0  0  0  0  0  0  0  0  0  0  0
  -14.6500    8.6156   -3.0825 H   0  0  0  0  0  0  0  0  0  0  0  0
  -11.4948    5.9407    1.6685 H   0  0  0  0  0  0  0  0  0  0  0  0
  -12.6572    5.8105    0.3052 H   0  0  0  0  0  0  0  0  0  0  0  0
  -11.1583    4.8205    0.3052 H   0  0  0  0  0  0  0  0  0  0  0  0
   -9.8064    7.9432    1.4594 H   0  0  0  0  0  0  0  0  0  0  0  0
   -9.1969    6.2474    1.0277 H   0  0  0  0  0  0  0  0  0  0  0  0
   -8.5650    8.8542   -0.3830 H   0  0  0  0  0  0  0  0  0  0  0  0
   -7.4526    7.7757    0.5482 H   0  0  0  0  0  0  0  0  0  0  0  0
   -7.6399    5.4948    0.1683 H   0  0  0  0  0  0  0  0  0  0  0  0
   -8.3920    4.8383   -1.3250 H   0  0  0  0  0  0  0  0  0  0  0  0
   -6.6588    5.3101   -1.3250 H   0  0  0  0  0  0  0  0  0  0  0  0
  1  2  1  0
  2  3  1  0
  3  4  1  0
  4  5  1  0
  5  6  1  0
  6  7  1  0
  7  8  1  0
  7  9  1  0
  2 10  1  0
 10 11  1  0
 11 12  1  0
 12 13  1  0
 13 14  1  6
 13 15  1  0
 15 16  1  0
 16 17  1  0
 17 18  2  0
 18 19  1  0
 19 20  1  0
 20 21  1  0
 21 22  1  0
 22 23  1  0
 22 24  1  0
 24 25  1  0
 24 26  1  0
 19 27  1  0
 27 28  1  1
 27 29  1  0
 29 30  1  0
 30 31  1  0
 31 32  1  1
  7  5  1  0
 31 10  1  0
 31 13  1  0
 27 15  1  0
 24 18  1  0
  1 33  1  0
  1 34  1  0
  1 35  1  0
  2 36  1  1
  3 37  1  0
  3 38  1  0
  4 39  1  0
  4 40  1  0
  5 41  1  1
  8 42  1  0
  8 43  1  0
  8 44  1  0
  9 45  1  0
  9 46  1  0
  9 47  1  0
 10 48  1  6
 11 49  1  0
 11 50  1  0
 12 51  1  0
 12 52  1  0
 14 53  1  0
 14 54  1  0
 14 55  1  0
 15 56  1  1
 16 57  1  0
 16 58  1  0
 17 59  1  0
 19 60  1  6
 20 61  1  0
 20 62  1  0
 21 63  1  0
 21 64  1  0
 22 65  1  6
 23 66  1  0
 25 67  1  0
 25 68  1  0
 25 69  1  0
 26 70  1  0
 26 71  1  0
 26 72  1  0
 28 73  1  0
 28 74  1  0
 28 75  1  0
 29 76  1  0
 29 77  1  0
 30 78  1  0
 30 79  1  0
 32 80  1  0
 32 81  1  0
 32 82  1  0
M  END
>  <meeko>  (8) 
{"is_sidechain": [false], "intermolecular_energy": 2.731, "internal_energy": -0.839}

$$$$
EPH_relaxed_0001_pdb2pqr_Repair_50_r2_0001_out
     RDKit          3D

 82 86  0  0  0  0  0  0  0  0999 V2000
  -14.8500    6.9910    0.5100 C   0  0  0  0  0  0  0  0  0  0  0  0
  -13.4970    7.7060    0.4550 C   0  0  2  0  0  0  0  0  0  0  0  0
  -13.6300    9.1650   -0.0250 C   0  0  0  0  0  0  0  0  0  0  0  0
  -15.0660    9.5730   -0.3650 C   0  0  0  0  0  0  0  0  0  0  0  0
  -15.2450    9.7970   -1.8360 C   0  0  2  0  0  0  0  0  0  0  0  0
  -14.0410    9.6950   -2.6080 O   0  0  0  0  0  0  0  0  0  0  0  0
  -14.6670   10.9880   -2.5770 C   0  0  0  0  0  0  0  0  0  0  0  0
  -13.8670   12.0350   -1.8680 C   0  0  0  0  0  0  0  0  0  0  0  0
  -15.2860   11.3890   -3.8800 C   0  0  0  0  0  0  0  0  0  0  0  0
  -12.5430    6.9430   -0.4570 C   0  0  1  0  0  0  0  0  0  0  0  0
  -13.1810    6.5890   -1.8270 C   0  0  0  0  0  0  0  0  0  0  0  0
  -12.0480    6.6730   -2.8820 C   0  0  0  0  0  0  0  0  0  0  0  0
  -10.7460    6.7440   -2.0520 C   0  0  1  0  0  0  0  0  0  0  0  0
  -10.4400    5.2640   -1.6590 C   0  0  0  0  0  0  0  0  0  0  0  0
   -9.5190    7.4210   -2.7460 C   0  0  2  0  0  0  0  0  0  0  0  0
   -9.0140    6.7120   -4.0150 C   0  0  0  0  0  0  0  0  0  0  0  0
   -7.9600    5.6790   -3.7910 C   0  0  0  0  0  0  0  0  0  0  0  0
   -7.2370    5.5300   -2.6660 C   0  0  0  0  0  0  0  0  0  0  0  0
   -7.3800    6.5180   -1.5010 C   0  0  1  0  0  0  0  0  0  0  0  0
   -5.9730    6.9340   -0.9980 C   0  0  0  0  0  0  0  0  0  0  0  0
   -5.1010    5.7340   -0.6420 C   0  0  0  0  0  0  0  0  0  0  0  0
   -4.9340    4.8050   -1.8410 C   0  0  2  0  0  0  0  0  0  0  0  0
   -4.1750    5.4830   -2.8470 O   0  0  0  0  0  0  0  0  0  0  0  0
   -6.2870    4.3280   -2.4400 C   0  0  0  0  0  0  0  0  0  0  0  0
   -6.9720    3.3450   -1.4600 C   0  0  0  0  0  0  0  0  0  0  0  0
   -5.9800    3.5150   -3.7270 C   0  0  0  0  0  0  0  0  0  0  0  0
   -8.3280    7.7670   -1.7640 C   0  0  1  0  0  0  0  0  0  0  0  0
   -7.5170    8.9180   -2.4350 C   0  0  0  0  0  0  0  0  0  0  0  0
   -8.8340    8.3270   -0.3830 C   0  0  0  0  0  0  0  0  0  0  0  0
  -10.1180    7.6990    0.1930 C   0  0  0  0  0  0  0  0  0  0  0  0
  -11.2270    7.6520   -0.8620 C   0  0  2  0  0  0  0  0  0  0  0  0
  -11.5710    9.1270   -1.2610 C   0  0  0  0  0  0  0  0  0  0  0  0
  -15.1410    6.8372    1.5596 H   0  0  0  0  0  0  0  0  0  0  0  0
  -15.6101    7.6052    0.0050 H   0  0  0  0  0  0  0  0  0  0  0  0
  -14.7708    6.0170    0.0050 H   0  0  0  0  0  0  0  0  0  0  0  0
  -13.0941    7.7307    1.4782 H   0  0  0  0  0  0  0  0  0  0  0  0
  -13.2601    9.8276    0.7713 H   0  0  0  0  0  0  0  0  0  0  0  0
  -13.0431    9.2533   -0.9511 H   0  0  0  0  0  0  0  0  0  0  0  0
  -15.7498    8.7749   -0.0401 H   0  0  0  0  0  0  0  0  0  0  0  0
  -15.2866   10.5169    0.1550 H   0  0  0  0  0  0  0  0  0  0  0  0
  -16.2583    9.3702   -1.8017 H   0  0  0  0  0  0  0  0  0  0  0  0
  -13.9693   11.9011   -0.7810 H   0  0  0  0  0  0  0  0  0  0  0  0
  -12.8081   11.9415   -2.1509 H   0  0  0  0  0  0  0  0  0  0  0  0
  -14.2354   13.0321   -2.1509 H   0  0  0  0  0  0  0  0  0  0  0  0
  -16.1951   11.9779   -3.6882 H   0  0  0  0  0  0  0  0  0  0  0  0
  -14.5705   11.9956   -4.4545 H   0  0  0  0  0  0  0  0  0  0  0  0
  -15.5472   10.4881   -4.4545 H   0  0  0  0  0  0  0  0  0  0  0  0
  -12.3219    6.0800    0.1882 H   0  0  0  0  0  0  0  0  0  0  0  0
  -13.5982    5.5716   -1.7992 H   0  0  0  0  0  0  0  0  0  0  0  0
  -14.0010    7.2802   -2.0716 H   0  0  0  0  0  0  0  0  0  0  0  0
  -12.0499    5.7810   -3.5256 H   0  0  0  0  0  0  0  0  0  0  0  0
  -12.1641    7.5389   -3.5504 H   0  0  0  0  0  0  0  0  0  0  0  0
  -10.4210    5.1721   -0.5630 H   0  0  0  0  0  0  0  0  0  0  0  0
  -11.2213    4.6068   -2.0686 H   0  0  0  0  0  0  0  0  0  0  0  0
   -9.4622    4.9705   -2.0686 H   0  0  0  0  0  0  0  0  0  0  0  0
   -9.9396    8.3787   -3.0864 H   0  0  0  0  0  0  0  0  0  0  0  0
   -9.8736    6.2220   -4.4956 H   0  0  0  0  0  0  0  0  0  0  0  0
   -8.5487    7.4924   -4.6351 H   0  0  0  0  0  0  0  0  0  0  0  0
   -7.7571    4.9801   -4.6158 H   0  0  0  0  0  0  0  0  0  0  0  0
   -7.9144    5.9760   -0.7069 H   0  0  0  0  0  0  0  0  0  0  0  0
   -5.4722    7.5116   -1.7890 H   0  0  0  0  0  0  0  0  0  0  0  0
   -6.1081    7.5315   -0.0844 H   0  0  0  0  0  0  0  0  0  0  0  0
   -4.1107    6.0909   -0.3227 H   0  0  0  0  0  0  0  0  0  0  0  0
   -5.5889    5.1745    0.1698 H   0  0  0  0  0  0  0  0  0  0  0  0
   -4.4116    3.9031   -1.4893 H   0  0  0  0  0  0  0  0  0  0  0  0
   -4.5470    6.3760   -2.9440 H   0  0  0  0  0  0  0  0  0  0  0  0
   -6.7589    3.6509   -0.4251 H   0  0  0  0  0  0  0  0  0  0  0  0
   -8.0588    3.3563   -1.6292 H   0  0  0  0  0  0  0  0  0  0  0  0
   -6.5851    2.3293   -1.6292 H   0  0  0  0  0  0  0  0  0  0  0  0
   -5.6039    2.5190   -3.4505 H   0  0  0  0  0  0  0  0  0  0  0  0
   -6.8996    3.4078   -4.3211 H   0  0  0  0  0  0  0  0  0  0  0  0
   -5.2191    4.0424   -4.3211 H   0  0  0  0  0  0  0  0  0  0  0  0
   -7.0694    9.5533   -1.6565 H   0  0  0  0  0  0  0  0  0  0  0  0
   -6.7206    8.4889   -3.0608 H   0  0  0  0  0  0  0  0  0  0  0  0
   -8.1890    9.5235   -3.0608 H   0  0  0  0  0  0  0  0  0  0  0  0
   -8.0303    8.1748    0.3524 H   0  0  0  0  0  0  0  0  0  0  0  0
   -9.0896    9.3794   -0.5754 H   0  0  0  0  0  0  0  0  0  0  0  0
   -9.8980    6.6751    0.5295 H   0  0  0  0  0  0  0  0  0  0  0  0
  -10.4622    8.3161    1.0360 H   0  0  0  0  0  0  0  0  0  0  0  0
  -11.7115    9.7296   -0.3515 H   0  0  0  0  0  0  0  0  0  0  0  0
  -10.7469    9.5477   -1.8558 H   0  0  0  0  0  0  0  0  0  0  0  0
  -12.4962    9.1397   -1.8558 H   0  0  0  0  0  0  0  0  0  0  0  0
  1  2  1  0
  2  3  1  0
  3  4  1  0
  4  5  1  0
  5  6  1  0
  6  7  1  0
  7  8  1  0
  7  9  1  0
  2 10  1  0
 10 11  1  0
 11 12  1  0
 12 13  1  0
 13 14  1  1
 13 15  1  0
 15 16  1  0
 16 17  1  0
 17 18  2  0
 18 19  1  0
 19 20  1  0
 20 21  1  0
 21 22  1  0
 22 23  1  0
 22 24  1  0
 24 25  1  0
 24 26  1  0
 19 27  1  0
 27 28  1  6
 27 29  1  0
 29 30  1  0
 30 31  1  0
 31 32  1  6
  7  5  1  0
 31 10  1  0
 31 13  1  0
 27 15  1  0
 24 18  1  0
  1 33  1  0
  1 34  1  0
  1 35  1  0
  2 36  1  1
  3 37  1  0
  3 38  1  0
  4 39  1  0
  4 40  1  0
  5 41  1  6
  8 42  1  0
  8 43  1  0
  8 44  1  0
  9 45  1  0
  9 46  1  0
  9 47  1  0
 10 48  1  1
 11 49  1  0
 11 50  1  0
 12 51  1  0
 12 52  1  0
 14 53  1  0
 14 54  1  0
 14 55  1  0
 15 56  1  6
 16 57  1  0
 16 58  1  0
 17 59  1  0
 19 60  1  1
 20 61  1  0
 20 62  1  0
 21 63  1  0
 21 64  1  0
 22 65  1  1
 23 66  1  0
 25 67  1  0
 25 68  1  0
 25 69  1  0
 26 70  1  0
 26 71  1  0
 26 72  1  0
 28 73  1  0
 28 74  1  0
 28 75  1  0
 29 76  1  0
 29 77  1  0
 30 78  1  0
 30 79  1  0
 32 80  1  0
 32 81  1  0
 32 82  1  0
M  END
>  <meeko>  (9) 
{"is_sidechain": [false], "intermolecular_energy": 2.731, "internal_energy": -0.839}

$$$$
EPH_relaxed_0001_pdb2pqr_Repair_50_r2_0001_out
     RDKit          3D

 82 86  0  0  0  0  0  0  0  0999 V2000
  -13.4240    9.5780    1.4010 C   0  0  0  0  0  0  0  0  0  0  0  0
  -13.0680    9.0860   -0.0040 C   0  0  2  0  0  0  0  0  0  0  0  0
  -14.2680    8.4220   -0.7090 C   0  0  0  0  0  0  0  0  0  0  0  0
  -15.2870    9.4210   -1.2620 C   0  0  0  0  0  0  0  0  0  0  0  0
  -15.0070    9.7630   -2.6940 C   0  0  2  0  0  0  0  0  0  0  0  0
  -13.7850   10.4810   -2.9100 O   0  0  0  0  0  0  0  0  0  0  0  0
  -14.9970   11.1830   -3.2290 C   0  0  0  0  0  0  0  0  0  0  0  0
  -15.2740   12.3540   -2.3390 C   0  0  0  0  0  0  0  0  0  0  0  0
  -15.2020   11.3970   -4.6960 C   0  0  0  0  0  0  0  0  0  0  0  0
  -11.9000    8.1100    0.0670 C   0  0  1  0  0  0  0  0  0  0  0  0
  -12.2880    6.7610    0.7290 C   0  0  0  0  0  0  0  0  0  0  0  0
  -11.4730    5.6570    0.0070 C   0  0  0  0  0  0  0  0  0  0  0  0
  -10.4090    6.4290   -0.8090 C   0  0  1  0  0  0  0  0  0  0  0  0
   -9.2830    6.7650    0.2180 C   0  0  0  0  0  0  0  0  0  0  0  0
   -9.8420    5.6990   -2.0690 C   0  0  2  0  0  0  0  0  0  0  0  0
   -9.0890    4.3880   -1.7810 C   0  0  0  0  0  0  0  0  0  0  0  0
   -7.6210    4.5330   -1.5510 C   0  0  0  0  0  0  0  0  0  0  0  0
   -6.8860    5.6190   -1.8530 C   0  0  0  0  0  0  0  0  0  0  0  0
   -7.5120    6.8170   -2.5780 C   0  0  1  0  0  0  0  0  0  0  0  0
   -6.5800    7.2660   -3.7350 C   0  0  0  0  0  0  0  0  0  0  0  0
   -5.1570    7.5480   -3.2640 C   0  0  0  0  0  0  0  0  0  0  0  0
   -4.5480    6.3150   -2.6000 C   0  0  2  0  0  0  0  0  0  0  0  0
   -4.3780    5.2960   -3.5900 O   0  0  0  0  0  0  0  0  0  0  0  0
   -5.4050    5.7660   -1.4250 C   0  0  0  0  0  0  0  0  0  0  0  0
   -5.3390    6.7480   -0.2300 C   0  0  0  0  0  0  0  0  0  0  0  0
   -4.7540    4.4440   -0.9370 C   0  0  0  0  0  0  0  0  0  0  0  0
   -9.0200    6.6350   -3.0450 C   0  0  1  0  0  0  0  0  0  0  0  0
   -9.0640    5.9610   -4.4510 C   0  0  0  0  0  0  0  0  0  0  0  0
   -9.6820    8.0530   -3.2120 C   0  0  0  0  0  0  0  0  0  0  0  0
  -10.3300    8.6690   -1.9580 C   0  0  0  0  0  0  0  0  0  0  0  0
  -11.2620    7.6650   -1.2730 C   0  0  2  0  0  0  0  0  0  0  0  0
  -12.4180    7.3250   -2.2740 C   0  0  0  0  0  0  0  0  0  0  0  0
  -12.9512    8.9246    2.1490 H   0  0  0  0  0  0  0  0  0  0  0  0
  -13.0607   10.6080    1.5318 H   0  0  0  0  0  0  0  0  0  0  0  0
  -14.5159    9.5550    1.5318 H   0  0  0  0  0  0  0  0  0  0  0  0
  -12.7814    9.9655   -0.5992 H   0  0  0  0  0  0  0  0  0  0  0  0
  -13.8879    7.8155   -1.5443 H   0  0  0  0  0  0  0  0  0  0  0  0
  -14.7895    7.8161    0.0466 H   0  0  0  0  0  0  0  0  0  0  0  0
  -16.2926    8.9809   -1.1906 H   0  0  0  0  0  0  0  0  0  0  0  0
  -15.2181   10.3449   -0.6690 H   0  0  0  0  0  0  0  0  0  0  0  0
  -15.5152    8.8493   -3.0360 H   0  0  0  0  0  0  0  0  0  0  0  0
  -15.1999   12.0407   -1.2872 H   0  0  0  0  0  0  0  0  0  0  0  0
  -14.5388   13.1477   -2.5379 H   0  0  0  0  0  0  0  0  0  0  0  0
  -16.2869   12.7342   -2.5379 H   0  0  0  0  0  0  0  0  0  0  0  0
  -15.9554   12.1835   -4.8500 H   0  0  0  0  0  0  0  0  0  0  0  0
  -14.2520   11.7037   -5.1581 H   0  0  0  0  0  0  0  0  0  0  0  0
  -15.5492   10.4611   -5.1581 H   0  0  0  0  0  0  0  0  0  0  0  0
  -11.1856    8.7195    0.6398 H   0  0  0  0  0  0  0  0  0  0  0  0
  -12.0364    6.7784    1.7997 H   0  0  0  0  0  0  0  0  0  0  0  0
  -13.3686    6.5748    0.6417 H   0  0  0  0  0  0  0  0  0  0  0  0
  -10.9931    4.9884    0.7368 H   0  0  0  0  0  0  0  0  0  0  0  0
  -12.1052    5.0197   -0.6288 H   0  0  0  0  0  0  0  0  0  0  0  0
   -9.6724    6.6488    1.2402 H   0  0  0  0  0  0  0  0  0  0  0  0
   -8.4346    6.0809    0.0689 H   0  0  0  0  0  0  0  0  0  0  0  0
   -8.9483    7.8022    0.0689 H   0  0  0  0  0  0  0  0  0  0  0  0
  -10.7578    5.4058   -2.6031 H   0  0  0  0  0  0  0  0  0  0  0  0
   -9.5305    3.9328   -0.8822 H   0  0  0  0  0  0  0  0  0  0  0  0
   -9.1958    3.7708   -2.6852 H   0  0  0  0  0  0  0  0  0  0  0  0
   -7.0959    3.6801   -1.0963 H   0  0  0  0  0  0  0  0  0  0  0  0
   -7.5909    7.6186   -1.8288 H   0  0  0  0  0  0  0  0  0  0  0  0
   -6.5492    6.4690   -4.4925 H   0  0  0  0  0  0  0  0  0  0  0  0
   -6.9866    8.2012   -4.1475 H   0  0  0  0  0  0  0  0  0  0  0  0
   -4.5408    7.8321   -4.1298 H   0  0  0  0  0  0  0  0  0  0  0  0
   -5.1860    8.3651   -2.5281 H   0  0  0  0  0  0  0  0  0  0  0  0
   -3.5815    6.6149   -2.1688 H   0  0  0  0  0  0  0  0  0  0  0  0
   -4.4630    5.7160   -4.4620 H   0  0  0  0  0  0  0  0  0  0  0  0
   -5.3771    6.1819    0.7124 H   0  0  0  0  0  0  0  0  0  0  0  0
   -4.4004    7.3197   -0.2766 H   0  0  0  0  0  0  0  0  0  0  0  0
   -6.1927    7.4402   -0.2766 H   0  0  0  0  0  0  0  0  0  0  0  0
   -4.7443    4.4242    0.1628 H   0  0  0  0  0  0  0  0  0  0  0  0
   -5.3340    3.5887   -1.3140 H   0  0  0  0  0  0  0  0  0  0  0  0
   -3.7225    4.3823   -1.3140 H   0  0  0  0  0  0  0  0  0  0  0  0
   -9.1352    4.8697   -4.3324 H   0  0  0  0  0  0  0  0  0  0  0  0
   -9.9401    6.3275   -5.0061 H   0  0  0  0  0  0  0  0  0  0  0  0
   -8.1477    6.2105   -5.0061 H   0  0  0  0  0  0  0  0  0  0  0  0
   -8.9010    8.7462   -3.5576 H   0  0  0  0  0  0  0  0  0  0  0  0
  -10.5106    7.9022   -3.9195 H   0  0  0  0  0  0  0  0  0  0  0  0
   -9.5393    8.9650   -1.2529 H   0  0  0  0  0  0  0  0  0  0  0  0
  -10.9215    9.5448   -2.2632 H   0  0  0  0  0  0  0  0  0  0  0  0
  -13.3244    7.0584   -1.7106 H   0  0  0  0  0  0  0  0  0  0  0  0
  -12.6241    8.2006   -2.9072 H   0  0  0  0  0  0  0  0  0  0  0  0
  -12.1173    6.4773   -2.9072 H   0  0  0  0  0  0  0  0  0  0  0  0
  1  2  1  0
  2  3  1  0
  3  4  1  0
  4  5  1  0
  5  6  1  0
  6  7  1  0
  7  8  1  0
  7  9  1  0
  2 10  1  0
 10 11  1  0
 11 12  1  0
 12 13  1  0
 13 14  1  1
 13 15  1  0
 15 16  1  0
 16 17  1  0
 17 18  2  0
 18 19  1  0
 19 20  1  0
 20 21  1  0
 21 22  1  0
 22 23  1  0
 22 24  1  0
 24 25  1  0
 24 26  1  0
 19 27  1  0
 27 28  1  6
 27 29  1  0
 29 30  1  0
 30 31  1  0
 31 32  1  6
  7  5  1  0
 31 10  1  0
 31 13  1  0
 27 15  1  0
 24 18  1  0
  1 33  1  0
  1 34  1  0
  1 35  1  0
  2 36  1  6
  3 37  1  0
  3 38  1  0
  4 39  1  0
  4 40  1  0
  5 41  1  6
  8 42  1  0
  8 43  1  0
  8 44  1  0
  9 45  1  0
  9 46  1  0
  9 47  1  0
 10 48  1  1
 11 49  1  0
 11 50  1  0
 12 51  1  0
 12 52  1  0
 14 53  1  0
 14 54  1  0
 14 55  1  0
 15 56  1  6
 16 57  1  0
 16 58  1  0
 17 59  1  0
 19 60  1  1
 20 61  1  0
 20 62  1  0
 21 63  1  0
 21 64  1  0
 22 65  1  1
 23 66  1  0
 25 67  1  0
 25 68  1  0
 25 69  1  0
 26 70  1  0
 26 71  1  0
 26 72  1  0
 28 73  1  0
 28 74  1  0
 28 75  1  0
 29 76  1  0
 29 77  1  0
 30 78  1  0
 30 79  1  0
 32 80  1  0
 32 81  1  0
 32 82  1  0
M  END
>  <meeko>  (10) 
{"is_sidechain": [false], "intermolecular_energy": 2.731, "internal_energy": -0.839}

$$$$
EPH_relaxed_0001_pdb2pqr_Repair_50_r2_0001_out
     RDKit          3D

 82 86  0  0  0  0  0  0  0  0999 V2000
   -0.8740   16.3580   -5.8420 C   0  0  0  0  0  0  0  0  0  0  0  0
    0.2170   15.6560   -6.6560 C   0  0  2  0  0  0  0  0  0  0  0  0
   -0.1910   15.4630   -8.1300 C   0  0  0  0  0  0  0  0  0  0  0  0
    0.4390   16.4840   -9.0810 C   0  0  0  0  0  0  0  0  0  0  0  0
    1.8440   16.1090   -9.4450 C   0  0  2  0  0  0  0  0  0  0  0  0
    2.3190   16.6840  -10.6690 O   0  0  0  0  0  0  0  0  0  0  0  0
    2.1970   15.2520  -10.6460 C   0  0  0  0  0  0  0  0  0  0  0  0
    1.1400   14.7170  -11.5600 C   0  0  0  0  0  0  0  0  0  0  0  0
    3.5110   14.5350  -10.6520 C   0  0  0  0  0  0  0  0  0  0  0  0
    0.5470   14.3080   -6.0260 C   0  0  1  0  0  0  0  0  0  0  0  0
    1.8020   13.6460   -6.6560 C   0  0  0  0  0  0  0  0  0  0  0  0
    2.5290   12.8900   -5.5150 C   0  0  0  0  0  0  0  0  0  0  0  0
    1.5090   12.8610   -4.3530 C   0  0  1  0  0  0  0  0  0  0  0  0
    0.5470   11.6800   -4.6930 C   0  0  0  0  0  0  0  0  0  0  0  0
    2.1040   12.7250   -2.9140 C   0  0  2  0  0  0  0  0  0  0  0  0
    2.8790   11.4230   -2.6480 C   0  0  0  0  0  0  0  0  0  0  0  0
    2.0620   10.2930   -2.1140 C   0  0  0  0  0  0  0  0  0  0  0  0
    0.8270   10.4000   -1.5900 C   0  0  0  0  0  0  0  0  0  0  0  0
    0.1660   11.7720   -1.4060 C   0  0  1  0  0  0  0  0  0  0  0  0
   -0.4570   11.8600    0.0120 C   0  0  0  0  0  0  0  0  0  0  0  0
   -1.4130   10.7080    0.3040 C   0  0  0  0  0  0  0  0  0  0  0  0
   -0.7040    9.3630    0.1680 C   0  0  2  0  0  0  0  0  0  0  0  0
    0.2790    9.2530    1.2020 O   0  0  0  0  0  0  0  0  0  0  0  0
   -0.0290    9.1640   -1.2180 C   0  0  0  0  0  0  0  0  0  0  0  0
   -1.1160    8.9810   -2.3050 C   0  0  0  0  0  0  0  0  0  0  0  0
    0.7690    7.8330   -1.1740 C   0  0  0  0  0  0  0  0  0  0  0  0
    1.0710   13.0300   -1.7540 C   0  0  1  0  0  0  0  0  0  0  0  0
    1.9110   13.4430   -0.5070 C   0  0  0  0  0  0  0  0  0  0  0  0
    0.1410   14.2560   -2.0880 C   0  0  0  0  0  0  0  0  0  0  0  0
   -0.3160   14.4030   -3.5520 C   0  0  0  0  0  0  0  0  0  0  0  0
    0.8720   14.2900   -4.5120 C   0  0  2  0  0  0  0  0  0  0  0  0
    1.8470   15.4790   -4.2080 C   0  0  0  0  0  0  0  0  0  0  0  0
   -0.6717   16.2278   -4.7686 H   0  0  0  0  0  0  0  0  0  0  0  0
   -0.8810   17.4305   -6.0864 H   0  0  0  0  0  0  0  0  0  0  0  0
   -1.8530   15.9199   -6.0864 H   0  0  0  0  0  0  0  0  0  0  0  0
    1.1075   16.3016   -6.6427 H   0  0  0  0  0  0  0  0  0  0  0  0
    0.1181   14.4561   -8.4470 H   0  0  0  0  0  0  0  0  0  0  0  0
   -1.2807   15.6034   -8.1832 H   0  0  0  0  0  0  0  0  0  0  0  0
   -0.1651   16.5365   -9.9987 H   0  0  0  0  0  0  0  0  0  0  0  0
    0.4653   17.4579   -8.5702 H   0  0  0  0  0  0  0  0  0  0  0  0
    2.1263   16.0436   -8.3838 H   0  0  0  0  0  0  0  0  0  0  0  0
    0.3158   14.2998  -10.9629 H   0  0  0  0  0  0  0  0  0  0  0  0
    0.7580   15.5303  -12.1945 H   0  0  0  0  0  0  0  0  0  0  0  0
    1.5692   13.9276  -12.1945 H   0  0  0  0  0  0  0  0  0  0  0  0
    3.8365   14.3574   -9.6164 H   0  0  0  0  0  0  0  0  0  0  0  0
    3.4008   13.5720  -11.1720 H   0  0  0  0  0  0  0  0  0  0  0  0
    4.2612   15.1488  -11.1720 H   0  0  0  0  0  0  0  0  0  0  0  0
   -0.4000   13.7807   -6.2132 H   0  0  0  0  0  0  0  0  0  0  0  0
    1.5025   12.9419   -7.4462 H   0  0  0  0  0  0  0  0  0  0  0  0
    2.4599   14.4006   -7.1117 H   0  0  0  0  0  0  0  0  0  0  0  0
    2.7880   11.8683   -5.8297 H   0  0  0  0  0  0  0  0  0  0  0  0
    3.4733   13.3761   -5.2286 H   0  0  0  0  0  0  0  0  0  0  0  0
    0.1783   11.2274   -3.7607 H   0  0  0  0  0  0  0  0  0  0  0  0
   -0.3040   12.0574   -5.2790 H   0  0  0  0  0  0  0  0  0  0  0  0
    1.0887   10.9229   -5.2790 H   0  0  0  0  0  0  0  0  0  0  0  0
    2.8548   13.5286   -2.8929 H   0  0  0  0  0  0  0  0  0  0  0  0
    3.3317   11.0970   -3.5961 H   0  0  0  0  0  0  0  0  0  0  0  0
    3.6163   11.6614   -1.8672 H   0  0  0  0  0  0  0  0  0  0  0  0
    2.5073    9.2879   -2.1521 H   0  0  0  0  0  0  0  0  0  0  0  0
   -0.6264   11.8323   -2.1666 H   0  0  0  0  0  0  0  0  0  0  0  0
    0.3539   11.8421    0.7550 H   0  0  0  0  0  0  0  0  0  0  0  0
   -1.0347   12.7946    0.0652 H   0  0  0  0  0  0  0  0  0  0  0  0
   -1.7974   10.8103    1.3296 H   0  0  0  0  0  0  0  0  0  0  0  0
   -2.2389   10.7445   -0.4217 H   0  0  0  0  0  0  0  0  0  0  0  0
   -1.4676    8.5767    0.2610 H   0  0  0  0  0  0  0  0  0  0  0  0
    0.9460    9.9440    1.0490 H   0  0  0  0  0  0  0  0  0  0  0  0
   -2.0915    8.8168   -1.8240 H   0  0  0  0  0  0  0  0  0  0  0  0
   -1.1635    9.8838   -2.9317 H   0  0  0  0  0  0  0  0  0  0  0  0
   -0.8653    8.1124   -2.9317 H   0  0  0  0  0  0  0  0  0  0  0  0
    0.9424    7.5439   -0.1269 H   0  0  0  0  0  0  0  0  0  0  0  0
    0.1947    7.0442   -1.6819 H   0  0  0  0  0  0  0  0  0  0  0  0
    1.7353    7.9679   -1.6819 H   0  0  0  0  0  0  0  0  0  0  0  0
    1.3642   13.1742    0.4088 H   0  0  0  0  0  0  0  0  0  0  0  0
    2.8770   12.9171   -0.5250 H   0  0  0  0  0  0  0  0  0  0  0  0
    2.0844   14.5291   -0.5250 H   0  0  0  0  0  0  0  0  0  0  0  0
   -0.7613   14.1686   -1.4649 H   0  0  0  0  0  0  0  0  0  0  0  0
    0.7553   15.1462   -1.8876 H   0  0  0  0  0  0  0  0  0  0  0  0
   -1.0422   13.6099   -3.7835 H   0  0  0  0  0  0  0  0  0  0  0  0
   -0.7751   15.3947   -3.6779 H   0  0  0  0  0  0  0  0  0  0  0  0
    1.9475   15.6016   -3.1195 H   0  0  0  0  0  0  0  0  0  0  0  0
    2.8334   15.2654   -4.6456 H   0  0  0  0  0  0  0  0  0  0  0  0
    1.4444   16.4044   -4.6456 H   0  0  0  0  0  0  0  0  0  0  0  0
  1  2  1  0
  2  3  1  0
  3  4  1  0
  4  5  1  0
  5  6  1  0
  6  7  1  0
  7  8  1  0
  7  9  1  0
  2 10  1  0
 10 11  1  0
 11 12  1  0
 12 13  1  0
 13 14  1  6
 13 15  1  0
 15 16  1  0
 16 17  1  0
 17 18  2  0
 18 19  1  0
 19 20  1  0
 20 21  1  0
 21 22  1  0
 22 23  1  0
 22 24  1  0
 24 25  1  0
 24 26  1  0
 19 27  1  0
 27 28  1  1
 27 29  1  0
 29 30  1  0
 30 31  1  0
 31 32  1  6
  7  5  1  0
 31 10  1  0
 31 13  1  0
 27 15  1  0
 24 18  1  0
  1 33  1  0
  1 34  1  0
  1 35  1  0
  2 36  1  6
  3 37  1  0
  3 38  1  0
  4 39  1  0
  4 40  1  0
  5 41  1  1
  8 42  1  0
  8 43  1  0
  8 44  1  0
  9 45  1  0
  9 46  1  0
  9 47  1  0
 10 48  1  1
 11 49  1  0
 11 50  1  0
 12 51  1  0
 12 52  1  0
 14 53  1  0
 14 54  1  0
 14 55  1  0
 15 56  1  6
 16 57  1  0
 16 58  1  0
 17 59  1  0
 19 60  1  6
 20 61  1  0
 20 62  1  0
 21 63  1  0
 21 64  1  0
 22 65  1  1
 23 66  1  0
 25 67  1  0
 25 68  1  0
 25 69  1  0
 26 70  1  0
 26 71  1  0
 26 72  1  0
 28 73  1  0
 28 74  1  0
 28 75  1  0
 29 76  1  0
 29 77  1  0
 30 78  1  0
 30 79  1  0
 32 80  1  0
 32 81  1  0
 32 82  1  0
M  END
>  <meeko>  (11) 
{"is_sidechain": [false], "intermolecular_energy": 2.731, "internal_energy": -0.839}

$$$$
EPH_relaxed_0001_pdb2pqr_Repair_50_r2_0001_out
     RDKit          3D

 82 86  0  0  0  0  0  0  0  0999 V2000
    0.1330   10.6480   -4.1220 C   0  0  0  0  0  0  0  0  0  0  0  0
    1.0670   10.3330   -2.9500 C   0  0  2  0  0  0  0  0  0  0  0  0
    0.6440    9.0560   -2.1970 C   0  0  0  0  0  0  0  0  0  0  0  0
   -0.6880    8.4720   -2.6740 C   0  0  0  0  0  0  0  0  0  0  0  0
   -1.8440    9.0120   -1.8870 C   0  0  2  0  0  0  0  0  0  0  0  0
   -1.6850   10.3660   -1.4420 O   0  0  0  0  0  0  0  0  0  0  0  0
   -1.7600    9.3650   -0.4140 C   0  0  0  0  0  0  0  0  0  0  0  0
   -0.4910    9.1910    0.3590 C   0  0  0  0  0  0  0  0  0  0  0  0
   -3.0260    9.4140    0.3830 C   0  0  0  0  0  0  0  0  0  0  0  0
    1.1110   11.5140   -1.9880 C   0  0  1  0  0  0  0  0  0  0  0  0
    2.1650   11.3310   -0.8640 C   0  0  0  0  0  0  0  0  0  0  0  0
    2.7450   12.7360   -0.5610 C   0  0  0  0  0  0  0  0  0  0  0  0
    1.7840   13.7170   -1.2720 C   0  0  1  0  0  0  0  0  0  0  0  0
    0.5730   13.8680   -0.3000 C   0  0  0  0  0  0  0  0  0  0  0  0
    2.3830   15.1050   -1.6690 C   0  0  2  0  0  0  0  0  0  0  0  0
    2.8570   15.9720   -0.4900 C   0  0  0  0  0  0  0  0  0  0  0  0
    1.8290   16.8930    0.0790 C   0  0  0  0  0  0  0  0  0  0  0  0
    0.6670   17.2290   -0.5120 C   0  0  0  0  0  0  0  0  0  0  0  0
    0.3340   16.7410   -1.9280 C   0  0  1  0  0  0  0  0  0  0  0  0
   -0.2050   17.9270   -2.7700 C   0  0  0  0  0  0  0  0  0  0  0  0
   -1.3830   18.6310   -2.1030 C   0  0  0  0  0  0  0  0  0  0  0  0
   -0.9950   19.1530   -0.7220 C   0  0  2  0  0  0  0  0  0  0  0  0
   -0.0270   20.1940   -0.8780 O   0  0  0  0  0  0  0  0  0  0  0  0
   -0.4290   18.0480    0.2130 C   0  0  0  0  0  0  0  0  0  0  0  0
   -1.5660   17.0810    0.6250 C   0  0  0  0  0  0  0  0  0  0  0  0
    0.0540   18.7310    1.5210 C   0  0  0  0  0  0  0  0  0  0  0  0
    1.4840   15.9360   -2.6720 C   0  0  1  0  0  0  0  0  0  0  0  0
    2.4370   16.9270   -3.4080 C   0  0  0  0  0  0  0  0  0  0  0  0
    0.8390   15.0310   -3.7880 C   0  0  0  0  0  0  0  0  0  0  0  0
    0.3760   13.6250   -3.3600 C   0  0  0  0  0  0  0  0  0  0  0  0
    1.4760   12.8990   -2.5790 C   0  0  2  0  0  0  0  0  0  0  0  0
    2.7000   12.7130   -3.5400 C   0  0  0  0  0  0  0  0  0  0  0  0
   -0.8427   10.9771   -3.7351 H   0  0  0  0  0  0  0  0  0  0  0  0
    0.5724   11.4476   -4.7364 H   0  0  0  0  0  0  0  0  0  0  0  0
   -0.0016    9.7456   -4.7364 H   0  0  0  0  0  0  0  0  0  0  0  0
    2.0697   10.1544   -3.3655 H   0  0  0  0  0  0  0  0  0  0  0  0
    1.4263    8.2955   -2.3367 H   0  0  0  0  0  0  0  0  0  0  0  0
    0.5126    9.3346   -1.1410 H   0  0  0  0  0  0  0  0  0  0  0  0
   -0.8292    8.7263   -3.7348 H   0  0  0  0  0  0  0  0  0  0  0  0
   -0.6552    7.3819   -2.5308 H   0  0  0  0  0  0  0  0  0  0  0  0
   -2.5526    8.3947   -2.4587 H   0  0  0  0  0  0  0  0  0  0  0  0
   -0.7109    9.2211    1.4364 H   0  0  0  0  0  0  0  0  0  0  0  0
   -0.0365    8.2221    0.1045 H   0  0  0  0  0  0  0  0  0  0  0  0
    0.2075   10.0018    0.1045 H   0  0  0  0  0  0  0  0  0  0  0  0
   -2.7843    9.4046    1.4561 H   0  0  0  0  0  0  0  0  0  0  0  0
   -3.5773   10.3342    0.1393 H   0  0  0  0  0  0  0  0  0  0  0  0
   -3.6468    8.5392    0.1393 H   0  0  0  0  0  0  0  0  0  0  0  0
    0.0650   11.5129   -1.6476 H   0  0  0  0  0  0  0  0  0  0  0  0
    1.6898   10.9152    0.0367 H   0  0  0  0  0  0  0  0  0  0  0  0
    2.9580   10.6355   -1.1760 H   0  0  0  0  0  0  0  0  0  0  0  0
    2.7602   12.9243    0.5227 H   0  0  0  0  0  0  0  0  0  0  0  0
    3.7828   12.8427   -0.9097 H   0  0  0  0  0  0  0  0  0  0  0  0
    0.9296   13.8235    0.7397 H   0  0  0  0  0  0  0  0  0  0  0  0
    0.0789   14.8347   -0.4772 H   0  0  0  0  0  0  0  0  0  0  0  0
   -0.1433   13.0522   -0.4772 H   0  0  0  0  0  0  0  0  0  0  0  0
    3.2937   14.8209   -2.2166 H   0  0  0  0  0  0  0  0  0  0  0  0
    3.1923   15.2993    0.3132 H   0  0  0  0  0  0  0  0  0  0  0  0
    3.6552   16.6159   -0.8878 H   0  0  0  0  0  0  0  0  0  0  0  0
    2.0387   17.3344    1.0645 H   0  0  0  0  0  0  0  0  0  0  0  0
   -0.4509   15.9792   -1.8113 H   0  0  0  0  0  0  0  0  0  0  0  0
    0.6065   18.6558   -2.9124 H   0  0  0  0  0  0  0  0  0  0  0  0
   -0.5584   17.5216   -3.7296 H   0  0  0  0  0  0  0  0  0  0  0  0
   -1.7001   19.4763   -2.7314 H   0  0  0  0  0  0  0  0  0  0  0  0
   -2.2044   17.9086   -1.9875 H   0  0  0  0  0  0  0  0  0  0  0  0
   -1.9101   19.5309   -0.2427 H   0  0  0  0  0  0  0  0  0  0  0  0
    0.3170   20.4120    0.0050 H   0  0  0  0  0  0  0  0  0  0  0  0
   -1.6250   17.0308    1.7223 H   0  0  0  0  0  0  0  0  0  0  0  0
   -2.5222   17.4468    0.2227 H   0  0  0  0  0  0  0  0  0  0  0  0
   -1.3585   16.0785    0.2227 H   0  0  0  0  0  0  0  0  0  0  0  0
   -0.3364   18.1790    2.3887 H   0  0  0  0  0  0  0  0  0  0  0  0
    1.1536   18.7304    1.5505 H   0  0  0  0  0  0  0  0  0  0  0  0
   -0.3130   19.7675    1.5505 H   0  0  0  0  0  0  0  0  0  0  0  0
    3.0003   17.5128   -2.6667 H   0  0  0  0  0  0  0  0  0  0  0  0
    3.1388   16.3611   -4.0382 H   0  0  0  0  0  0  0  0  0  0  0  0
    1.8441   17.6062   -4.0382 H   0  0  0  0  0  0  0  0  0  0  0  0
   -0.0381   15.5643   -4.1833 H   0  0  0  0  0  0  0  0  0  0  0  0
    1.6423   14.8595   -4.5197 H   0  0  0  0  0  0  0  0  0  0  0  0
   -0.5158   13.7184   -2.7228 H   0  0  0  0  0  0  0  0  0  0  0  0
    0.1446   13.0420   -4.2636 H   0  0  0  0  0  0  0  0  0  0  0  0
    3.6151   12.5739   -2.9456 H   0  0  0  0  0  0  0  0  0  0  0  0
    2.5371   11.8293   -4.1745 H   0  0  0  0  0  0  0  0  0  0  0  0
    2.8069   13.6052   -4.1745 H   0  0  0  0  0  0  0  0  0  0  0  0
  1  2  1  0
  2  3  1  0
  3  4  1  0
  4  5  1  0
  5  6  1  0
  6  7  1  0
  7  8  1  0
  7  9  1  0
  2 10  1  0
 10 11  1  0
 11 12  1  0
 12 13  1  0
 13 14  1  1
 13 15  1  0
 15 16  1  0
 16 17  1  0
 17 18  2  0
 18 19  1  0
 19 20  1  0
 20 21  1  0
 21 22  1  0
 22 23  1  0
 22 24  1  0
 24 25  1  0
 24 26  1  0
 19 27  1  0
 27 28  1  6
 27 29  1  0
 29 30  1  0
 30 31  1  0
 31 32  1  6
  7  5  1  0
 31 10  1  0
 31 13  1  0
 27 15  1  0
 24 18  1  0
  1 33  1  0
  1 34  1  0
  1 35  1  0
  2 36  1  6
  3 37  1  0
  3 38  1  0
  4 39  1  0
  4 40  1  0
  5 41  1  1
  8 42  1  0
  8 43  1  0
  8 44  1  0
  9 45  1  0
  9 46  1  0
  9 47  1  0
 10 48  1  1
 11 49  1  0
 11 50  1  0
 12 51  1  0
 12 52  1  0
 14 53  1  0
 14 54  1  0
 14 55  1  0
 15 56  1  6
 16 57  1  0
 16 58  1  0
 17 59  1  0
 19 60  1  1
 20 61  1  0
 20 62  1  0
 21 63  1  0
 21 64  1  0
 22 65  1  1
 23 66  1  0
 25 67  1  0
 25 68  1  0
 25 69  1  0
 26 70  1  0
 26 71  1  0
 26 72  1  0
 28 73  1  0
 28 74  1  0
 28 75  1  0
 29 76  1  0
 29 77  1  0
 30 78  1  0
 30 79  1  0
 32 80  1  0
 32 81  1  0
 32 82  1  0
M  END
>  <meeko>  (12) 
{"is_sidechain": [false], "intermolecular_energy": 2.731, "internal_energy": -0.839}

$$$$
EPH_relaxed_0001_pdb2pqr_Repair_50_r2_0001_out
     RDKit          3D

 82 86  0  0  0  0  0  0  0  0999 V2000
   -3.9430    7.2910   -3.3850 C   0  0  0  0  0  0  0  0  0  0  0  0
   -3.7900    7.3210   -1.8620 C   0  0  2  0  0  0  0  0  0  0  0  0
   -5.1230    7.0400   -1.1390 C   0  0  0  0  0  0  0  0  0  0  0  0
   -6.3530    7.1790   -2.0410 C   0  0  0  0  0  0  0  0  0  0  0  0
   -7.2970    6.0270   -1.8710 C   0  0  2  0  0  0  0  0  0  0  0  0
   -6.6630    4.7590   -1.6630 O   0  0  0  0  0  0  0  0  0  0  0  0
   -7.4240    4.8950   -2.8730 C   0  0  0  0  0  0  0  0  0  0  0  0
   -6.5960    4.8600   -4.1200 C   0  0  0  0  0  0  0  0  0  0  0  0
   -8.6850    4.0890   -2.8870 C   0  0  0  0  0  0  0  0  0  0  0  0
   -3.2330    8.6700   -1.4220 C   0  0  1  0  0  0  0  0  0  0  0  0
   -3.8450    9.1610   -0.0830 C   0  0  0  0  0  0  0  0  0  0  0  0
   -2.7220    9.9180    0.6710 C   0  0  0  0  0  0  0  0  0  0  0  0
   -1.6130   10.1250   -0.3860 C   0  0  1  0  0  0  0  0  0  0  0  0
   -2.0710   11.3690   -1.2100 C   0  0  0  0  0  0  0  0  0  0  0  0
   -0.1590   10.2990    0.1620 C   0  0  2  0  0  0  0  0  0  0  0  0
    0.0590   11.5340    1.0530 C   0  0  0  0  0  0  0  0  0  0  0  0
    0.4820   12.7720    0.3350 C   0  0  0  0  0  0  0  0  0  0  0  0
    0.9550   12.8230   -0.9250 C   0  0  0  0  0  0  0  0  0  0  0  0
    1.1940   11.5380   -1.7290 C   0  0  1  0  0  0  0  0  0  0  0  0
    2.5850   11.6080   -2.4130 C   0  0  0  0  0  0  0  0  0  0  0  0
    2.7580   12.8660   -3.2580 C   0  0  0  0  0  0  0  0  0  0  0  0
    2.5700   14.1220   -2.4120 C   0  0  2  0  0  0  0  0  0  0  0  0
    3.6390   14.2040   -1.4650 O   0  0  0  0  0  0  0  0  0  0  0  0
    1.2070   14.1590   -1.6660 C   0  0  0  0  0  0  0  0  0  0  0  0
    0.0610   14.3740   -2.6850 C   0  0  0  0  0  0  0  0  0  0  0  0
    1.2030   15.4060   -0.7400 C   0  0  0  0  0  0  0  0  0  0  0  0
    0.9690   10.1760   -0.9420 C   0  0  1  0  0  0  0  0  0  0  0  0
    2.2770    9.7680   -0.1980 C   0  0  0  0  0  0  0  0  0  0  0  0
    0.6710    9.0280   -1.9770 C   0  0  0  0  0  0  0  0  0  0  0  0
   -0.8010    8.8280   -2.3880 C   0  0  0  0  0  0  0  0  0  0  0  0
   -1.7090    8.7580   -1.1570 C   0  0  2  0  0  0  0  0  0  0  0  0
   -1.2860    7.5020   -0.3210 C   0  0  0  0  0  0  0  0  0  0  0  0
   -4.9921    7.0853   -3.6441 H   0  0  0  0  0  0  0  0  0  0  0  0
   -3.6463    8.2644   -3.8026 H   0  0  0  0  0  0  0  0  0  0  0  0
   -3.3006    6.5017   -3.8026 H   0  0  0  0  0  0  0  0  0  0  0  0
   -3.0885    6.5207   -1.5839 H   0  0  0  0  0  0  0  0  0  0  0  0
   -5.0950    6.0132   -0.7454 H   0  0  0  0  0  0  0  0  0  0  0  0
   -5.2216    7.7919   -0.3422 H   0  0  0  0  0  0  0  0  0  0  0  0
   -6.8784    8.1113   -1.7864 H   0  0  0  0  0  0  0  0  0  0  0  0
   -6.0121    7.1921   -3.0868 H   0  0  0  0  0  0  0  0  0  0  0  0
   -8.0444    6.6792   -1.3956 H   0  0  0  0  0  0  0  0  0  0  0  0
   -5.5303    4.8150   -3.8513 H   0  0  0  0  0  0  0  0  0  0  0  0
   -6.8626    3.9723   -4.7124 H   0  0  0  0  0  0  0  0  0  0  0  0
   -6.7868    5.7670   -4.7124 H   0  0  0  0  0  0  0  0  0  0  0  0
   -9.0021    3.8863   -1.8534 H   0  0  0  0  0  0  0  0  0  0  0  0
   -9.4736    4.6509   -3.4090 H   0  0  0  0  0  0  0  0  0  0  0  0
   -8.5061    3.1374   -3.4090 H   0  0  0  0  0  0  0  0  0  0  0  0
   -3.4974    9.2745   -2.3021 H   0  0  0  0  0  0  0  0  0  0  0  0
   -4.6915    9.8357   -0.2783 H   0  0  0  0  0  0  0  0  0  0  0  0
   -4.2207    8.3161    0.5129 H   0  0  0  0  0  0  0  0  0  0  0  0
   -3.0887   10.8858    1.0437 H   0  0  0  0  0  0  0  0  0  0  0  0
   -2.3621    9.3627    1.5497 H   0  0  0  0  0  0  0  0  0  0  0  0
   -2.3677   12.1750   -0.5228 H   0  0  0  0  0  0  0  0  0  0  0  0
   -1.2412   11.7146   -1.8440 H   0  0  0  0  0  0  0  0  0  0  0  0
   -2.9269   11.0940   -1.8440 H   0  0  0  0  0  0  0  0  0  0  0  0
   -0.0517    9.4289    0.8264 H   0  0  0  0  0  0  0  0  0  0  0  0
   -0.8862   11.7489    1.5730 H   0  0  0  0  0  0  0  0  0  0  0  0
    0.8866   11.2777    1.7307 H   0  0  0  0  0  0  0  0  0  0  0  0
    0.4006   13.7234    0.8811 H   0  0  0  0  0  0  0  0  0  0  0  0
    0.4030   11.5045   -2.4927 H   0  0  0  0  0  0  0  0  0  0  0  0
    3.3619   11.5965   -1.6344 H   0  0  0  0  0  0  0  0  0  0  0  0
    2.6716   10.7404   -3.0837 H   0  0  0  0  0  0  0  0  0  0  0  0
    3.7689   12.8721   -3.6916 H   0  0  0  0  0  0  0  0  0  0  0  0
    1.9981   12.8617   -4.0533 H   0  0  0  0  0  0  0  0  0  0  0  0
    2.5775   14.9843   -3.0949 H   0  0  0  0  0  0  0  0  0  0  0  0
    4.4410   13.8620   -1.8960 H   0  0  0  0  0  0  0  0  0  0  0  0
   -0.8811   14.5507   -2.1454 H   0  0  0  0  0  0  0  0  0  0  0  0
    0.2906   15.2447   -3.3167 H   0  0  0  0  0  0  0  0  0  0  0  0
   -0.0406   13.4792   -3.3167 H   0  0  0  0  0  0  0  0  0  0  0  0
    1.2040   15.0821    0.3112 H   0  0  0  0  0  0  0  0  0  0  0  0
    2.0992   16.0124   -0.9377 H   0  0  0  0  0  0  0  0  0  0  0  0
    0.3029   16.0066   -0.9377 H   0  0  0  0  0  0  0  0  0  0  0  0
    2.1122    9.8194    0.8884 H   0  0  0  0  0  0  0  0  0  0  0  0
    2.5534    8.7410   -0.4787 H   0  0  0  0  0  0  0  0  0  0  0  0
    3.0883   10.4558   -0.4787 H   0  0  0  0  0  0  0  0  0  0  0  0
    1.2448    9.2457   -2.8899 H   0  0  0  0  0  0  0  0  0  0  0  0
    0.9559    8.0973   -1.4646 H   0  0  0  0  0  0  0  0  0  0  0  0
   -1.1159    9.6715   -3.0200 H   0  0  0  0  0  0  0  0  0  0  0  0
   -0.8853    7.8805   -2.9404 H   0  0  0  0  0  0  0  0  0  0  0  0
   -1.3636    7.7325    0.7518 H   0  0  0  0  0  0  0  0  0  0  0  0
   -1.9499    6.6593   -0.5640 H   0  0  0  0  0  0  0  0  0  0  0  0
   -0.2475    7.2326   -0.5640 H   0  0  0  0  0  0  0  0  0  0  0  0
  1  2  1  0
  2  3  1  0
  3  4  1  0
  4  5  1  0
  5  6  1  0
  6  7  1  0
  7  8  1  0
  7  9  1  0
  2 10  1  0
 10 11  1  0
 11 12  1  0
 12 13  1  0
 13 14  1  6
 13 15  1  0
 15 16  1  0
 16 17  1  0
 17 18  2  0
 18 19  1  0
 19 20  1  0
 20 21  1  0
 21 22  1  0
 22 23  1  0
 22 24  1  0
 24 25  1  0
 24 26  1  0
 19 27  1  0
 27 28  1  1
 27 29  1  0
 29 30  1  0
 30 31  1  0
 31 32  1  1
  7  5  1  0
 31 10  1  0
 31 13  1  0
 27 15  1  0
 24 18  1  0
  1 33  1  0
  1 34  1  0
  1 35  1  0
  2 36  1  6
  3 37  1  0
  3 38  1  0
  4 39  1  0
  4 40  1  0
  5 41  1  1
  8 42  1  0
  8 43  1  0
  8 44  1  0
  9 45  1  0
  9 46  1  0
  9 47  1  0
 10 48  1  6
 11 49  1  0
 11 50  1  0
 12 51  1  0
 12 52  1  0
 14 53  1  0
 14 54  1  0
 14 55  1  0
 15 56  1  1
 16 57  1  0
 16 58  1  0
 17 59  1  0
 19 60  1  6
 20 61  1  0
 20 62  1  0
 21 63  1  0
 21 64  1  0
 22 65  1  6
 23 66  1  0
 25 67  1  0
 25 68  1  0
 25 69  1  0
 26 70  1  0
 26 71  1  0
 26 72  1  0
 28 73  1  0
 28 74  1  0
 28 75  1  0
 29 76  1  0
 29 77  1  0
 30 78  1  0
 30 79  1  0
 32 80  1  0
 32 81  1  0
 32 82  1  0
M  END
>  <meeko>  (13) 
{"is_sidechain": [false], "intermolecular_energy": 2.731, "internal_energy": -0.839}

$$$$
EPH_relaxed_0001_pdb2pqr_Repair_50_r2_0001_out
     RDKit          3D

 82 86  0  0  0  0  0  0  0  0999 V2000
   -0.3020    9.1950   -1.6590 C   0  0  0  0  0  0  0  0  0  0  0  0
    0.6900   10.1610   -2.3120 C   0  0  2  0  0  0  0  0  0  0  0  0
    2.0720    9.5140   -2.5320 C   0  0  0  0  0  0  0  0  0  0  0  0
    2.9110   10.2050   -3.6100 C   0  0  0  0  0  0  0  0  0  0  0  0
    4.3220   10.4290   -3.1560 C   0  0  2  0  0  0  0  0  0  0  0  0
    4.8340   11.7420   -3.4200 O   0  0  0  0  0  0  0  0  0  0  0  0
    5.4800   10.6590   -4.1090 C   0  0  0  0  0  0  0  0  0  0  0  0
    5.2800   10.6750   -5.5920 C   0  0  0  0  0  0  0  0  0  0  0  0
    6.8690   10.3800   -3.6250 C   0  0  0  0  0  0  0  0  0  0  0  0
    0.8320   11.4150   -1.4570 C   0  0  1  0  0  0  0  0  0  0  0  0
    1.9460   11.2840   -0.3850 C   0  0  0  0  0  0  0  0  0  0  0  0
    2.5900   12.6870   -0.2350 C   0  0  0  0  0  0  0  0  0  0  0  0
    1.6200   13.6420   -0.9700 C   0  0  1  0  0  0  0  0  0  0  0  0
    0.4770   13.9190    0.0560 C   0  0  0  0  0  0  0  0  0  0  0  0
    2.2400   14.9690   -1.5170 C   0  0  2  0  0  0  0  0  0  0  0  0
    2.8140   15.9110   -0.4440 C   0  0  0  0  0  0  0  0  0  0  0  0
    1.8540   16.9140    0.1040 C   0  0  0  0  0  0  0  0  0  0  0  0
    0.6700   17.2450   -0.4450 C   0  0  0  0  0  0  0  0  0  0  0  0
    0.2340   16.6550   -1.7920 C   0  0  1  0  0  0  0  0  0  0  0  0
   -0.3150   17.7880   -2.6990 C   0  0  0  0  0  0  0  0  0  0  0  0
   -1.4260   18.5890   -2.0260 C   0  0  0  0  0  0  0  0  0  0  0  0
   -0.9370   19.2070   -0.7190 C   0  0  2  0  0  0  0  0  0  0  0  0
    0.0550   20.1940   -1.0180 O   0  0  0  0  0  0  0  0  0  0  0  0
   -0.3510   18.1620    0.2720 C   0  0  0  0  0  0  0  0  0  0  0  0
   -1.4930   17.2760    0.8290 C   0  0  0  0  0  0  0  0  0  0  0  0
    0.2330   18.9320    1.4870 C   0  0  0  0  0  0  0  0  0  0  0  0
    1.3090   15.7480   -2.5320 C   0  0  1  0  0  0  0  0  0  0  0  0
    2.2480   16.6390   -3.4030 C   0  0  0  0  0  0  0  0  0  0  0  0
    0.5670   14.7800   -3.5280 C   0  0  0  0  0  0  0  0  0  0  0  0
    0.0850   13.4330   -2.9560 C   0  0  0  0  0  0  0  0  0  0  0  0
    1.2060   12.7320   -2.1830 C   0  0  2  0  0  0  0  0  0  0  0  0
    2.3620   12.4200   -3.1940 C   0  0  0  0  0  0  0  0  0  0  0  0
   -0.2227    9.2723   -0.5646 H   0  0  0  0  0  0  0  0  0  0  0  0
   -1.3247    9.4528   -1.9716 H   0  0  0  0  0  0  0  0  0  0  0  0
   -0.0715    8.1659   -1.9716 H   0  0  0  0  0  0  0  0  0  0  0  0
    0.2900   10.4280   -3.3013 H   0  0  0  0  0  0  0  0  0  0  0  0
    2.6275    9.5506   -1.5832 H   0  0  0  0  0  0  0  0  0  0  0  0
    1.8936    8.4841   -2.8748 H   0  0  0  0  0  0  0  0  0  0  0  0
    2.9224    9.5746   -4.5114 H   0  0  0  0  0  0  0  0  0  0  0  0
    2.4588   11.1855   -3.8202 H   0  0  0  0  0  0  0  0  0  0  0  0
    4.1867    9.7352   -2.3132 H   0  0  0  0  0  0  0  0  0  0  0  0
    4.2065   10.7609   -5.8163 H   0  0  0  0  0  0  0  0  0  0  0  0
    5.8148   11.5332   -6.0249 H   0  0  0  0  0  0  0  0  0  0  0  0
    5.6716    9.7427   -6.0249 H   0  0  0  0  0  0  0  0  0  0  0  0
    6.8805   10.3777   -2.5251 H   0  0  0  0  0  0  0  0  0  0  0  0
    7.1967    9.3981   -3.9972 H   0  0  0  0  0  0  0  0  0  0  0  0
    7.5504   11.1592   -3.9972 H   0  0  0  0  0  0  0  0  0  0  0  0
   -0.1906   11.4825   -1.0574 H   0  0  0  0  0  0  0  0  0  0  0  0
    1.5133   10.9614    0.5735 H   0  0  0  0  0  0  0  0  0  0  0  0
    2.6949   10.5355   -0.6831 H   0  0  0  0  0  0  0  0  0  0  0  0
    2.6769   12.9630    0.8263 H   0  0  0  0  0  0  0  0  0  0  0  0
    3.6079   12.7254   -0.6503 H   0  0  0  0  0  0  0  0  0  0  0  0
    0.8711   13.8235    1.0785 H   0  0  0  0  0  0  0  0  0  0  0  0
    0.0887   14.9372   -0.0937 H   0  0  0  0  0  0  0  0  0  0  0  0
   -0.3344   13.1915   -0.0937 H   0  0  0  0  0  0  0  0  0  0  0  0
    3.1058   14.6072   -2.0910 H   0  0  0  0  0  0  0  0  0  0  0  0
    3.1749   15.2939    0.3921 H   0  0  0  0  0  0  0  0  0  0  0  0
    3.6077   16.4890   -0.9399 H   0  0  0  0  0  0  0  0  0  0  0  0
    2.1379   17.4261    1.0352 H   0  0  0  0  0  0  0  0  0  0  0  0
   -0.5673   15.9365   -1.5650 H   0  0  0  0  0  0  0  0  0  0  0  0
    0.5104   18.4708   -2.9490 H   0  0  0  0  0  0  0  0  0  0  0  0
   -0.7392   17.3194   -3.5993 H   0  0  0  0  0  0  0  0  0  0  0  0
   -1.7526   19.3915   -2.7037 H   0  0  0  0  0  0  0  0  0  0  0  0
   -2.2625   17.9105   -1.8025 H   0  0  0  0  0  0  0  0  0  0  0  0
   -1.8086   19.6572   -0.2215 H   0  0  0  0  0  0  0  0  0  0  0  0
   -0.2870   21.0540   -0.7200 H   0  0  0  0  0  0  0  0  0  0  0  0
   -1.4687   17.2949    1.9286 H   0  0  0  0  0  0  0  0  0  0  0  0
   -2.4612   17.6616    0.4770 H   0  0  0  0  0  0  0  0  0  0  0  0
   -1.3601   16.2424    0.4770 H   0  0  0  0  0  0  0  0  0  0  0  0
   -0.1195   18.4672    2.4195 H   0  0  0  0  0  0  0  0  0  0  0  0
    1.3318   18.8945    1.4512 H   0  0  0  0  0  0  0  0  0  0  0  0
   -0.0994   19.9800    1.4512 H   0  0  0  0  0  0  0  0  0  0  0  0
    2.8887   17.2469   -2.7473 H   0  0  0  0  0  0  0  0  0  0  0  0
    2.8769   15.9976   -4.0379 H   0  0  0  0  0  0  0  0  0  0  0  0
    1.6405   17.3007   -4.0379 H   0  0  0  0  0  0  0  0  0  0  0  0
   -0.3146   15.3121   -3.9149 H   0  0  0  0  0  0  0  0  0  0  0  0
    1.3173   14.5184   -4.2887 H   0  0  0  0  0  0  0  0  0  0  0  0
   -0.7619   13.6128   -2.2774 H   0  0  0  0  0  0  0  0  0  0  0  0
   -0.2212   12.7869   -3.7919 H   0  0  0  0  0  0  0  0  0  0  0  0
    3.2784   12.1727   -2.6381 H   0  0  0  0  0  0  0  0  0  0  0  0
    2.0755   11.5671   -3.8268 H   0  0  0  0  0  0  0  0  0  0  0  0
    2.5435   13.3013   -3.8268 H   0  0  0  0  0  0  0  0  0  0  0  0
  1  2  1  0
  2  3  1  0
  3  4  1  0
  4  5  1  0
  5  6  1  0
  6  7  1  0
  7  8  1  0
  7  9  1  0
  2 10  1  0
 10 11  1  0
 11 12  1  0
 12 13  1  0
 13 14  1  1
 13 15  1  0
 15 16  1  0
 16 17  1  0
 17 18  2  0
 18 19  1  0
 19 20  1  0
 20 21  1  0
 21 22  1  0
 22 23  1  0
 22 24  1  0
 24 25  1  0
 24 26  1  0
 19 27  1  0
 27 28  1  6
 27 29  1  0
 29 30  1  0
 30 31  1  0
 31 32  1  6
  7  5  1  0
 31 10  1  0
 31 13  1  0
 27 15  1  0
 24 18  1  0
  1 33  1  0
  1 34  1  0
  1 35  1  0
  2 36  1  6
  3 37  1  0
  3 38  1  0
  4 39  1  0
  4 40  1  0
  5 41  1  1
  8 42  1  0
  8 43  1  0
  8 44  1  0
  9 45  1  0
  9 46  1  0
  9 47  1  0
 10 48  1  1
 11 49  1  0
 11 50  1  0
 12 51  1  0
 12 52  1  0
 14 53  1  0
 14 54  1  0
 14 55  1  0
 15 56  1  6
 16 57  1  0
 16 58  1  0
 17 59  1  0
 19 60  1  1
 20 61  1  0
 20 62  1  0
 21 63  1  0
 21 64  1  0
 22 65  1  1
 23 66  1  0
 25 67  1  0
 25 68  1  0
 25 69  1  0
 26 70  1  0
 26 71  1  0
 26 72  1  0
 28 73  1  0
 28 74  1  0
 28 75  1  0
 29 76  1  0
 29 77  1  0
 30 78  1  0
 30 79  1  0
 32 80  1  0
 32 81  1  0
 32 82  1  0
M  END
>  <meeko>  (14) 
{"is_sidechain": [false], "intermolecular_energy": 2.731, "internal_energy": -0.839}

$$$$
EPH_relaxed_0001_pdb2pqr_Repair_50_r2_0001_out
     RDKit          3D

 82 86  0  0  0  0  0  0  0  0999 V2000
   -2.1940    7.8480   -2.1200 C   0  0  0  0  0  0  0  0  0  0  0  0
   -2.2290    8.4900   -0.7300 C   0  0  2  0  0  0  0  0  0  0  0  0
   -3.6480    8.4970   -0.1290 C   0  0  0  0  0  0  0  0  0  0  0  0
   -4.7620    8.4660   -1.1790 C   0  0  0  0  0  0  0  0  0  0  0  0
   -5.6700    7.2890   -0.9900 C   0  0  2  0  0  0  0  0  0  0  0  0
   -5.0240    6.0130   -1.0830 O   0  0  0  0  0  0  0  0  0  0  0  0
   -6.0040    6.3030   -2.0940 C   0  0  0  0  0  0  0  0  0  0  0  0
   -5.4340    6.4500   -3.4700 C   0  0  0  0  0  0  0  0  0  0  0  0
   -7.2540    5.4890   -1.9730 C   0  0  0  0  0  0  0  0  0  0  0  0
   -1.6860    9.9120   -0.8010 C   0  0  1  0  0  0  0  0  0  0  0  0
   -1.2160   10.4420    0.5800 C   0  0  0  0  0  0  0  0  0  0  0  0
    0.0120   11.3500    0.3170 C   0  0  0  0  0  0  0  0  0  0  0  0
    0.0070   11.5800   -1.2120 C   0  0  1  0  0  0  0  0  0  0  0  0
   -1.0400   12.7140   -1.4440 C   0  0  0  0  0  0  0  0  0  0  0  0
    1.3850   11.9250   -1.8640 C   0  0  2  0  0  0  0  0  0  0  0  0
    2.0270   13.2370   -1.3780 C   0  0  0  0  0  0  0  0  0  0  0  0
    1.6670   14.4530   -2.1660 C   0  0  0  0  0  0  0  0  0  0  0  0
    1.0940   14.4540   -3.3840 C   0  0  0  0  0  0  0  0  0  0  0  0
    0.8380   13.1410   -4.1360 C   0  0  1  0  0  0  0  0  0  0  0  0
    1.3090   13.2870   -5.6070 C   0  0  0  0  0  0  0  0  0  0  0  0
    0.6840   14.4910   -6.3050 C   0  0  0  0  0  0  0  0  0  0  0  0
    1.0090   15.7830   -5.5610 C   0  0  2  0  0  0  0  0  0  0  0  0
    2.4140   16.0310   -5.6600 O   0  0  0  0  0  0  0  0  0  0  0  0
    0.5880   15.7500   -4.0650 C   0  0  0  0  0  0  0  0  0  0  0  0
   -0.9560   15.7850   -3.9570 C   0  0  0  0  0  0  0  0  0  0  0  0
    1.0990   17.0550   -3.3960 C   0  0  0  0  0  0  0  0  0  0  0  0
    1.3990   11.8250   -3.4440 C   0  0  1  0  0  0  0  0  0  0  0  0
    2.8830   11.5940   -3.8620 C   0  0  0  0  0  0  0  0  0  0  0  0
    0.5890   10.5820   -3.9710 C   0  0  0  0  0  0  0  0  0  0  0  0
   -0.7010   10.2200   -3.2120 C   0  0  0  0  0  0  0  0  0  0  0  0
   -0.4500   10.1580   -1.7020 C   0  0  2  0  0  0  0  0  0  0  0  0
    0.5830    9.0100   -1.4360 C   0  0  0  0  0  0  0  0  0  0  0  0
   -2.1344    6.7544   -2.0174 H   0  0  0  0  0  0  0  0  0  0  0  0
   -3.1081    8.1153   -2.6705 H   0  0  0  0  0  0  0  0  0  0  0  0
   -1.3144    8.2131   -2.6705 H   0  0  0  0  0  0  0  0  0  0  0  0
   -1.5941    7.8821   -0.0686 H   0  0  0  0  0  0  0  0  0  0  0  0
   -3.7556    7.6135    0.5175 H   0  0  0  0  0  0  0  0  0  0  0  0
   -3.7567    9.4400    0.4269 H   0  0  0  0  0  0  0  0  0  0  0  0
   -5.3541    9.3895   -1.0978 H   0  0  0  0  0  0  0  0  0  0  0  0
   -4.2951    8.3827   -2.1715 H   0  0  0  0  0  0  0  0  0  0  0  0
   -6.3030    7.8600   -0.2949 H   0  0  0  0  0  0  0  0  0  0  0  0
   -4.3711    6.7241   -3.3992 H   0  0  0  0  0  0  0  0  0  0  0  0
   -5.5317    5.4973   -4.0111 H   0  0  0  0  0  0  0  0  0  0  0  0
   -5.9803    7.2366   -4.0111 H   0  0  0  0  0  0  0  0  0  0  0  0
   -7.4900    5.3353   -0.9097 H   0  0  0  0  0  0  0  0  0  0  0  0
   -8.0855    6.0193   -2.4602 H   0  0  0  0  0  0  0  0  0  0  0  0
   -7.1053    4.5141   -2.4602 H   0  0  0  0  0  0  0  0  0  0  0  0
   -2.5652   10.4234   -1.2201 H   0  0  0  0  0  0  0  0  0  0  0  0
   -2.0202   11.0215    1.0569 H   0  0  0  0  0  0  0  0  0  0  0  0
   -0.9561    9.6121    1.2536 H   0  0  0  0  0  0  0  0  0  0  0  0
   -0.0891   12.3049    0.8536 H   0  0  0  0  0  0  0  0  0  0  0  0
    0.9501   10.8946    0.6672 H   0  0  0  0  0  0  0  0  0  0  0  0
   -1.3905   13.0937   -0.4729 H   0  0  0  0  0  0  0  0  0  0  0  0
   -0.5738   13.5330   -2.0113 H   0  0  0  0  0  0  0  0  0  0  0  0
   -1.8936   12.3145   -2.0113 H   0  0  0  0  0  0  0  0  0  0  0  0
    2.0316   11.1185   -1.4878 H   0  0  0  0  0  0  0  0  0  0  0  0
    1.7153   13.4025   -0.3361 H   0  0  0  0  0  0  0  0  0  0  0  0
    3.1128   13.1072   -1.4975 H   0  0  0  0  0  0  0  0  0  0  0  0
    1.8887   15.4305   -1.7130 H   0  0  0  0  0  0  0  0  0  0  0  0
   -0.2498   12.9804   -4.1061 H   0  0  0  0  0  0  0  0  0  0  0  0
    2.4029   13.4023   -5.6171 H   0  0  0  0  0  0  0  0  0  0  0  0
    0.9918   12.3846   -6.1501 H   0  0  0  0  0  0  0  0  0  0  0  0
    1.0778   14.5572   -7.3300 H   0  0  0  0  0  0  0  0  0  0  0  0
   -0.4081   14.3600   -6.3198 H   0  0  0  0  0  0  0  0  0  0  0  0
    0.4294   16.5903   -6.0325 H   0  0  0  0  0  0  0  0  0  0  0  0
    2.5300   16.9400   -5.9860 H   0  0  0  0  0  0  0  0  0  0  0  0
   -1.2493   15.7916   -2.8969 H   0  0  0  0  0  0  0  0  0  0  0  0
   -1.3375   16.6920   -4.4487 H   0  0  0  0  0  0  0  0  0  0  0  0
   -1.3782   14.8962   -4.4487 H   0  0  0  0  0  0  0  0  0  0  0  0
    1.0568   16.9471   -2.3021 H   0  0  0  0  0  0  0  0  0  0  0  0
    2.1374   17.2437   -3.7060 H   0  0  0  0  0  0  0  0  0  0  0  0
    0.4648   17.8986   -3.7060 H   0  0  0  0  0  0  0  0  0  0  0  0
    3.5068   11.4969   -2.9612 H   0  0  0  0  0  0  0  0  0  0  0  0
    2.9565   10.6736   -4.4599 H   0  0  0  0  0  0  0  0  0  0  0  0
    3.2328   12.4485   -4.4599 H   0  0  0  0  0  0  0  0  0  0  0  0
    0.3141   10.7833   -5.0169 H   0  0  0  0  0  0  0  0  0  0  0  0
    1.2583    9.7209   -3.8272 H   0  0  0  0  0  0  0  0  0  0  0  0
   -1.4661   10.9829   -3.4185 H   0  0  0  0  0  0  0  0  0  0  0  0
   -1.0418    9.2308   -3.5517 H   0  0  0  0  0  0  0  0  0  0  0  0
    0.7069    8.8723   -0.3517 H   0  0  0  0  0  0  0  0  0  0  0  0
    0.2159    8.0752   -1.8848 H   0  0  0  0  0  0  0  0  0  0  0  0
    1.5512    9.2767   -1.8848 H   0  0  0  0  0  0  0  0  0  0  0  0
  1  2  1  0
  2  3  1  0
  3  4  1  0
  4  5  1  0
  5  6  1  0
  6  7  1  0
  7  8  1  0
  7  9  1  0
  2 10  1  0
 10 11  1  0
 11 12  1  0
 12 13  1  0
 13 14  1  1
 13 15  1  0
 15 16  1  0
 16 17  1  0
 17 18  2  0
 18 19  1  0
 19 20  1  0
 20 21  1  0
 21 22  1  0
 22 23  1  0
 22 24  1  0
 24 25  1  0
 24 26  1  0
 19 27  1  0
 27 28  1  6
 27 29  1  0
 29 30  1  0
 30 31  1  0
 31 32  1  6
  7  5  1  0
 31 10  1  0
 31 13  1  0
 27 15  1  0
 24 18  1  0
  1 33  1  0
  1 34  1  0
  1 35  1  0
  2 36  1  1
  3 37  1  0
  3 38  1  0
  4 39  1  0
  4 40  1  0
  5 41  1  1
  8 42  1  0
  8 43  1  0
  8 44  1  0
  9 45  1  0
  9 46  1  0
  9 47  1  0
 10 48  1  6
 11 49  1  0
 11 50  1  0
 12 51  1  0
 12 52  1  0
 14 53  1  0
 14 54  1  0
 14 55  1  0
 15 56  1  1
 16 57  1  0
 16 58  1  0
 17 59  1  0
 19 60  1  6
 20 61  1  0
 20 62  1  0
 21 63  1  0
 21 64  1  0
 22 65  1  6
 23 66  1  0
 25 67  1  0
 25 68  1  0
 25 69  1  0
 26 70  1  0
 26 71  1  0
 26 72  1  0
 28 73  1  0
 28 74  1  0
 28 75  1  0
 29 76  1  0
 29 77  1  0
 30 78  1  0
 30 79  1  0
 32 80  1  0
 32 81  1  0
 32 82  1  0
M  END
>  <meeko>  (15) 
{"is_sidechain": [false], "intermolecular_energy": 2.731, "internal_energy": -0.839}

$$$$
EPH_relaxed_0001_pdb2pqr_Repair_50_r2_0001_out
     RDKit          3D

 82 86  0  0  0  0  0  0  0  0999 V2000
    0.9050   14.9410   -2.6530 C   0  0  0  0  0  0  0  0  0  0  0  0
    1.1790   14.2640   -3.9990 C   0  0  2  0  0  0  0  0  0  0  0  0
    0.4710   14.9830   -5.1650 C   0  0  0  0  0  0  0  0  0  0  0  0
    1.0300   14.6190   -6.5430 C   0  0  0  0  0  0  0  0  0  0  0  0
    0.8260   15.7250   -7.5340 C   0  0  2  0  0  0  0  0  0  0  0  0
    0.4180   15.2920   -8.8380 O   0  0  0  0  0  0  0  0  0  0  0  0
    1.7040   15.9280   -8.7540 C   0  0  0  0  0  0  0  0  0  0  0  0
    2.8540   15.0160   -9.0480 C   0  0  0  0  0  0  0  0  0  0  0  0
    1.7490   17.2840   -9.3860 C   0  0  0  0  0  0  0  0  0  0  0  0
    0.7430   12.8050   -3.9440 C   0  0  1  0  0  0  0  0  0  0  0  0
    1.8810   11.8270   -4.3430 C   0  0  0  0  0  0  0  0  0  0  0  0
    1.7040   10.5570   -3.4710 C   0  0  0  0  0  0  0  0  0  0  0  0
    0.2960   10.7040   -2.8480 C   0  0  1  0  0  0  0  0  0  0  0  0
   -0.6880   10.2290   -3.9630 C   0  0  0  0  0  0  0  0  0  0  0  0
    0.0530    9.9460   -1.5020 C   0  0  2  0  0  0  0  0  0  0  0  0
    0.1720    8.4140   -1.5860 C   0  0  0  0  0  0  0  0  0  0  0  0
   -1.0970    7.6920   -1.8970 C   0  0  0  0  0  0  0  0  0  0  0  0
   -2.3340    8.2160   -1.8210 C   0  0  0  0  0  0  0  0  0  0  0  0
   -2.5550    9.6400   -1.2930 C   0  0  1  0  0  0  0  0  0  0  0  0
   -3.7230    9.6380   -0.2730 C   0  0  0  0  0  0  0  0  0  0  0  0
   -4.9970    9.0230   -0.8430 C   0  0  0  0  0  0  0  0  0  0  0  0
   -4.7520    7.5880   -1.3040 C   0  0  2  0  0  0  0  0  0  0  0  0
   -4.4720    6.7780   -0.1580 O   0  0  0  0  0  0  0  0  0  0  0  0
   -3.5890    7.4640   -2.3280 C   0  0  0  0  0  0  0  0  0  0  0  0
   -4.0170    8.0880   -3.6790 C   0  0  0  0  0  0  0  0  0  0  0  0
   -3.3530    5.9540   -2.6020 C   0  0  0  0  0  0  0  0  0  0  0  0
   -1.2630   10.3830   -0.7410 C   0  0  1  0  0  0  0  0  0  0  0  0
   -1.0470   10.0270    0.7620 C   0  0  0  0  0  0  0  0  0  0  0  0
   -1.5000   11.9380   -0.7990 C   0  0  0  0  0  0  0  0  0  0  0  0
   -1.1290   12.6480   -2.1150 C   0  0  0  0  0  0  0  0  0  0  0  0
    0.2780   12.2520   -2.5740 C   0  0  2  0  0  0  0  0  0  0  0  0
    1.2920   12.7370   -1.4830 C   0  0  0  0  0  0  0  0  0  0  0  0
    1.1814   14.2581   -1.8361 H   0  0  0  0  0  0  0  0  0  0  0  0
    1.5009   15.8625   -2.5780 H   0  0  0  0  0  0  0  0  0  0  0  0
   -0.1641   15.1886   -2.5780 H   0  0  0  0  0  0  0  0  0  0  0  0
    2.2616   14.3216   -4.1851 H   0  0  0  0  0  0  0  0  0  0  0  0
   -0.5958   14.7157   -5.1413 H   0  0  0  0  0  0  0  0  0  0  0  0
    0.6367   16.0615   -5.0256 H   0  0  0  0  0  0  0  0  0  0  0  0
    2.1075   14.4188   -6.4490 H   0  0  0  0  0  0  0  0  0  0  0  0
    0.4940   13.7298   -6.9064 H   0  0  0  0  0  0  0  0  0  0  0  0
    0.5005   16.4103   -6.7375 H   0  0  0  0  0  0  0  0  0  0  0  0
    3.2953   14.6660   -8.1031 H   0  0  0  0  0  0  0  0  0  0  0  0
    2.4978   14.1522   -9.6285 H   0  0  0  0  0  0  0  0  0  0  0  0
    3.6140   15.5596   -9.6285 H   0  0  0  0  0  0  0  0  0  0  0  0
    1.7745   18.0539   -8.6007 H   0  0  0  0  0  0  0  0  0  0  0  0
    2.6504   17.3676  -10.0109 H   0  0  0  0  0  0  0  0  0  0  0  0
    0.8551   17.4271  -10.0109 H   0  0  0  0  0  0  0  0  0  0  0  0
   -0.1060   12.8397   -4.6425 H   0  0  0  0  0  0  0  0  0  0  0  0
    1.8022   11.5686   -5.4093 H   0  0  0  0  0  0  0  0  0  0  0  0
    2.8690   12.2830   -4.1816 H   0  0  0  0  0  0  0  0  0  0  0  0
    1.7617    9.6497   -4.0903 H   0  0  0  0  0  0  0  0  0  0  0  0
    2.4901   10.4627   -2.7073 H   0  0  0  0  0  0  0  0  0  0  0  0
   -1.5862    9.7954   -3.4990 H   0  0  0  0  0  0  0  0  0  0  0  0
   -0.9760   11.0873   -4.5878 H   0  0  0  0  0  0  0  0  0  0  0  0
   -0.1951    9.4696   -4.5878 H   0  0  0  0  0  0  0  0  0  0  0  0
    0.9021   10.2783   -0.8867 H   0  0  0  0  0  0  0  0  0  0  0  0
    0.9021    8.1724   -2.3725 H   0  0  0  0  0  0  0  0  0  0  0  0
    0.4762    8.0770   -0.5840 H   0  0  0  0  0  0  0  0  0  0  0  0
   -1.0138    6.6424   -2.2154 H   0  0  0  0  0  0  0  0  0  0  0  0
   -2.8244   10.2506   -2.1674 H   0  0  0  0  0  0  0  0  0  0  0  0
   -3.4176    9.0597    0.6115 H   0  0  0  0  0  0  0  0  0  0  0  0
   -3.9436   10.6846   -0.0164 H   0  0  0  0  0  0  0  0  0  0  0  0
   -5.7757    9.0234   -0.0660 H   0  0  0  0  0  0  0  0  0  0  0  0
   -5.3175    9.6200   -1.7095 H   0  0  0  0  0  0  0  0  0  0  0  0
   -5.6617    7.2466   -1.8196 H   0  0  0  0  0  0  0  0  0  0  0  0
   -3.5910    7.0240    0.1690 H   0  0  0  0  0  0  0  0  0  0  0  0
   -4.6301    8.9819   -3.4921 H   0  0  0  0  0  0  0  0  0  0  0  0
   -3.1218    8.3707   -4.2523 H   0  0  0  0  0  0  0  0  0  0  0  0
   -4.6031    7.3547   -4.2523 H   0  0  0  0  0  0  0  0  0  0  0  0
   -3.2690    5.4166   -1.6459 H   0  0  0  0  0  0  0  0  0  0  0  0
   -4.1988    5.5491   -3.1771 H   0  0  0  0  0  0  0  0  0  0  0  0
   -2.4240    5.8265   -3.1771 H   0  0  0  0  0  0  0  0  0  0  0  0
   -1.5147   10.7978    1.3922 H   0  0  0  0  0  0  0  0  0  0  0  0
   -1.5049    9.0502    0.9769 H   0  0  0  0  0  0  0  0  0  0  0  0
    0.0309    9.9820    0.9769 H   0  0  0  0  0  0  0  0  0  0  0  0
   -2.5689   12.1190   -0.6130 H   0  0  0  0  0  0  0  0  0  0  0  0
   -0.8227   12.3611   -0.0425 H   0  0  0  0  0  0  0  0  0  0  0  0
   -1.8539   12.3660   -2.8928 H   0  0  0  0  0  0  0  0  0  0  0  0
   -1.1497   13.7346   -1.9452 H   0  0  0  0  0  0  0  0  0  0  0  0
    0.8777   12.5389   -0.4834 H   0  0  0  0  0  0  0  0  0  0  0  0
    2.2427   12.1961   -1.5997 H   0  0  0  0  0  0  0  0  0  0  0  0
    1.4676   13.8166   -1.5997 H   0  0  0  0  0  0  0  0  0  0  0  0
  1  2  1  0
  2  3  1  0
  3  4  1  0
  4  5  1  0
  5  6  1  0
  6  7  1  0
  7  8  1  0
  7  9  1  0
  2 10  1  0
 10 11  1  0
 11 12  1  0
 12 13  1  0
 13 14  1  6
 13 15  1  0
 15 16  1  0
 16 17  1  0
 17 18  2  0
 18 19  1  0
 19 20  1  0
 20 21  1  0
 21 22  1  0
 22 23  1  0
 22 24  1  0
 24 25  1  0
 24 26  1  0
 19 27  1  0
 27 28  1  1
 27 29  1  0
 29 30  1  0
 30 31  1  0
 31 32  1  1
  7  5  1  0
 31 10  1  0
 31 13  1  0
 27 15  1  0
 24 18  1  0
  1 33  1  0
  1 34  1  0
  1 35  1  0
  2 36  1  6
  3 37  1  0
  3 38  1  0
  4 39  1  0
  4 40  1  0
  5 41  1  1
  8 42  1  0
  8 43  1  0
  8 44  1  0
  9 45  1  0
  9 46  1  0
  9 47  1  0
 10 48  1  6
 11 49  1  0
 11 50  1  0
 12 51  1  0
 12 52  1  0
 14 53  1  0
 14 54  1  0
 14 55  1  0
 15 56  1  1
 16 57  1  0
 16 58  1  0
 17 59  1  0
 19 60  1  6
 20 61  1  0
 20 62  1  0
 21 63  1  0
 21 64  1  0
 22 65  1  6
 23 66  1  0
 25 67  1  0
 25 68  1  0
 25 69  1  0
 26 70  1  0
 26 71  1  0
 26 72  1  0
 28 73  1  0
 28 74  1  0
 28 75  1  0
 29 76  1  0
 29 77  1  0
 30 78  1  0
 30 79  1  0
 32 80  1  0
 32 81  1  0
 32 82  1  0
M  END
>  <meeko>  (16) 
{"is_sidechain": [false], "intermolecular_energy": 2.731, "internal_energy": -0.839}

$$$$
EPH_relaxed_0001_pdb2pqr_Repair_50_r2_0001_out
     RDKit          3D

 82 86  0  0  0  0  0  0  0  0999 V2000
  -14.5060    7.4780   -1.8040 C   0  0  0  0  0  0  0  0  0  0  0  0
  -13.3220    7.6760   -0.8540 C   0  0  2  0  0  0  0  0  0  0  0  0
  -13.4770    8.9440    0.0100 C   0  0  0  0  0  0  0  0  0  0  0  0
  -14.6610    9.8250   -0.3970 C   0  0  0  0  0  0  0  0  0  0  0  0
  -14.2200   11.0070   -1.2060 C   0  0  2  0  0  0  0  0  0  0  0  0
  -15.2870   11.8330   -1.6910 O   0  0  0  0  0  0  0  0  0  0  0  0
  -14.5040   11.1590   -2.6890 C   0  0  0  0  0  0  0  0  0  0  0  0
  -15.2570   10.1130   -3.4500 C   0  0  0  0  0  0  0  0  0  0  0  0
  -13.6350   12.0750   -3.4930 C   0  0  0  0  0  0  0  0  0  0  0  0
  -12.0230    7.7430   -1.6480 C   0  0  1  0  0  0  0  0  0  0  0  0
  -11.8090    9.1210   -2.3290 C   0  0  0  0  0  0  0  0  0  0  0  0
  -10.2840    9.4010   -2.3030 C   0  0  0  0  0  0  0  0  0  0  0  0
   -9.6460    8.0460   -1.9160 C   0  0  1  0  0  0  0  0  0  0  0  0
   -9.6000    7.2290   -3.2450 C   0  0  0  0  0  0  0  0  0  0  0  0
   -8.2410    8.1150   -1.2320 C   0  0  2  0  0  0  0  0  0  0  0  0
   -7.1240    8.7230   -2.0970 C   0  0  0  0  0  0  0  0  0  0  0  0
   -6.3590    7.7480   -2.9300 C   0  0  0  0  0  0  0  0  0  0  0  0
   -6.3670    6.4110   -2.7730 C   0  0  0  0  0  0  0  0  0  0  0  0
   -7.1250    5.7590   -1.6100 C   0  0  1  0  0  0  0  0  0  0  0  0
   -6.2210    4.6940   -0.9350 C   0  0  0  0  0  0  0  0  0  0  0  0
   -5.6820    3.6690   -1.9280 C   0  0  0  0  0  0  0  0  0  0  0  0
   -4.8850    4.3510   -3.0370 C   0  0  2  0  0  0  0  0  0  0  0  0
   -3.7020    4.9230   -2.4700 O   0  0  0  0  0  0  0  0  0  0  0  0
   -5.6910    5.4520   -3.7830 C   0  0  0  0  0  0  0  0  0  0  0  0
   -6.7970    4.7930   -4.6440 C   0  0  0  0  0  0  0  0  0  0  0  0
   -4.7290    6.1560   -4.7780 C   0  0  0  0  0  0  0  0  0  0  0  0
   -7.7800    6.7580   -0.5620 C   0  0  1  0  0  0  0  0  0  0  0  0
   -6.7380    7.1350    0.5360 C   0  0  0  0  0  0  0  0  0  0  0  0
   -8.9600    6.0250    0.1790 C   0  0  0  0  0  0  0  0  0  0  0  0
  -10.3480    6.0940   -0.4860 C   0  0  0  0  0  0  0  0  0  0  0  0
  -10.7010    7.5350   -0.8680 C   0  0  2  0  0  0  0  0  0  0  0  0
  -10.7760    8.3760    0.4520 C   0  0  0  0  0  0  0  0  0  0  0  0
  -15.4243    7.3244   -1.2183 H   0  0  0  0  0  0  0  0  0  0  0  0
  -14.6203    8.3695   -2.4382 H   0  0  0  0  0  0  0  0  0  0  0  0
  -14.3241    6.5978   -2.4382 H   0  0  0  0  0  0  0  0  0  0  0  0
  -13.2968    6.8126   -0.1728 H   0  0  0  0  0  0  0  0  0  0  0  0
  -13.6169    8.6361    1.0567 H   0  0  0  0  0  0  0  0  0  0  0  0
  -12.5660    9.5437   -0.1329 H   0  0  0  0  0  0  0  0  0  0  0  0
  -15.3626    9.2252   -0.9954 H   0  0  0  0  0  0  0  0  0  0  0  0
  -15.1426   10.1970    0.5193 H   0  0  0  0  0  0  0  0  0  0  0  0
  -13.2933   11.0920   -0.6195 H   0  0  0  0  0  0  0  0  0  0  0  0
  -15.7495    9.4288   -2.7434 H   0  0  0  0  0  0  0  0  0  0  0  0
  -16.0163   10.5955   -4.0829 H   0  0  0  0  0  0  0  0  0  0  0  0
  -14.5585    9.5460   -4.0829 H   0  0  0  0  0  0  0  0  0  0  0  0
  -13.0388   12.7035   -2.8151 H   0  0  0  0  0  0  0  0  0  0  0  0
  -12.9622   11.4792   -4.1273 H   0  0  0  0  0  0  0  0  0  0  0  0
  -14.2654   12.7155   -4.1273 H   0  0  0  0  0  0  0  0  0  0  0  0
  -12.1872    6.9042   -2.3404 H   0  0  0  0  0  0  0  0  0  0  0  0
  -12.1709    9.0906   -3.3673 H   0  0  0  0  0  0  0  0  0  0  0  0
  -12.3647    9.9117   -1.8036 H   0  0  0  0  0  0  0  0  0  0  0  0
   -9.9320    9.7275   -3.2927 H   0  0  0  0  0  0  0  0  0  0  0  0
  -10.0188   10.2036   -1.5990 H   0  0  0  0  0  0  0  0  0  0  0  0
   -9.5396    6.1553   -3.0135 H   0  0  0  0  0  0  0  0  0  0  0  0
  -10.5107    7.4274   -3.8291 H   0  0  0  0  0  0  0  0  0  0  0  0
   -8.7173    7.5284   -3.8291 H   0  0  0  0  0  0  0  0  0  0  0  0
   -8.4102    8.8327   -0.4157 H   0  0  0  0  0  0  0  0  0  0  0  0
   -7.5810    9.4615   -2.7721 H   0  0  0  0  0  0  0  0  0  0  0  0
   -6.3980    9.1578   -1.3943 H   0  0  0  0  0  0  0  0  0  0  0  0
   -5.7367    8.1565   -3.7399 H   0  0  0  0  0  0  0  0  0  0  0  0
   -8.0054    5.2725   -2.0553 H   0  0  0  0  0  0  0  0  0  0  0  0
   -5.3708    5.2041   -0.4586 H   0  0  0  0  0  0  0  0  0  0  0  0
   -6.8343    4.1543   -0.1983 H   0  0  0  0  0  0  0  0  0  0  0  0
   -5.0275    2.9624   -1.3966 H   0  0  0  0  0  0  0  0  0  0  0  0
   -6.5323    3.1387   -2.3817 H   0  0  0  0  0  0  0  0  0  0  0  0
   -4.6365    3.5829   -3.7842 H   0  0  0  0  0  0  0  0  0  0  0  0
   -3.9770    5.6530   -1.8900 H   0  0  0  0  0  0  0  0  0  0  0  0
   -7.5541    4.3419   -3.9858 H   0  0  0  0  0  0  0  0  0  0  0  0
   -7.2709    5.5561   -5.2789 H   0  0  0  0  0  0  0  0  0  0  0  0
   -6.3515    4.0130   -5.2789 H   0  0  0  0  0  0  0  0  0  0  0  0
   -3.9655    6.7147   -4.2168 H   0  0  0  0  0  0  0  0  0  0  0  0
   -4.2396    5.4012   -5.4111 H   0  0  0  0  0  0  0  0  0  0  0  0
   -5.3004    6.8508   -5.4111 H   0  0  0  0  0  0  0  0  0  0  0  0
   -7.1795    6.9753    1.5308 H   0  0  0  0  0  0  0  0  0  0  0  0
   -5.8443    6.5032    0.4257 H   0  0  0  0  0  0  0  0  0  0  0  0
   -6.4554    8.1924    0.4257 H   0  0  0  0  0  0  0  0  0  0  0  0
   -8.6872    4.9633    0.2701 H   0  0  0  0  0  0  0  0  0  0  0  0
   -9.0728    6.5560    1.1357 H   0  0  0  0  0  0  0  0  0  0  0  0
  -10.3439    5.4718   -1.3931 H   0  0  0  0  0  0  0  0  0  0  0  0
  -11.0986    5.7264    0.2291 H   0  0  0  0  0  0  0  0  0  0  0  0
  -10.7159    7.7026    1.3197 H   0  0  0  0  0  0  0  0  0  0  0  0
   -9.9378    9.0877    0.4815 H   0  0  0  0  0  0  0  0  0  0  0  0
  -11.7269    8.9281    0.4815 H   0  0  0  0  0  0  0  0  0  0  0  0
  1  2  1  0
  2  3  1  0
  3  4  1  0
  4  5  1  0
  5  6  1  0
  6  7  1  0
  7  8  1  0
  7  9  1  0
  2 10  1  0
 10 11  1  0
 11 12  1  0
 12 13  1  0
 13 14  1  6
 13 15  1  0
 15 16  1  0
 16 17  1  0
 17 18  2  0
 18 19  1  0
 19 20  1  0
 20 21  1  0
 21 22  1  0
 22 23  1  0
 22 24  1  0
 24 25  1  0
 24 26  1  0
 19 27  1  0
 27 28  1  1
 27 29  1  0
 29 30  1  0
 30 31  1  0
 31 32  1  1
  7  5  1  0
 31 10  1  0
 31 13  1  0
 27 15  1  0
 24 18  1  0
  1 33  1  0
  1 34  1  0
  1 35  1  0
  2 36  1  1
  3 37  1  0
  3 38  1  0
  4 39  1  0
  4 40  1  0
  5 41  1  6
  8 42  1  0
  8 43  1  0
  8 44  1  0
  9 45  1  0
  9 46  1  0
  9 47  1  0
 10 48  1  6
 11 49  1  0
 11 50  1  0
 12 51  1  0
 12 52  1  0
 14 53  1  0
 14 54  1  0
 14 55  1  0
 15 56  1  1
 16 57  1  0
 16 58  1  0
 17 59  1  0
 19 60  1  6
 20 61  1  0
 20 62  1  0
 21 63  1  0
 21 64  1  0
 22 65  1  6
 23 66  1  0
 25 67  1  0
 25 68  1  0
 25 69  1  0
 26 70  1  0
 26 71  1  0
 26 72  1  0
 28 73  1  0
 28 74  1  0
 28 75  1  0
 29 76  1  0
 29 77  1  0
 30 78  1  0
 30 79  1  0
 32 80  1  0
 32 81  1  0
 32 82  1  0
M  END
>  <meeko>  (17) 
{"is_sidechain": [false], "intermolecular_energy": 2.731, "internal_energy": -0.839}

$$$$
EPH_relaxed_0001_pdb2pqr_Repair_50_r2_0001_out
     RDKit          3D

 82 86  0  0  0  0  0  0  0  0999 V2000
    0.7660    8.1380   -2.4630 C   0  0  0  0  0  0  0  0  0  0  0  0
   -0.6580    8.4560   -1.9970 C   0  0  2  0  0  0  0  0  0  0  0  0
   -1.7230    7.8570   -2.9370 C   0  0  0  0  0  0  0  0  0  0  0  0
   -3.0140    7.4490   -2.2230 C   0  0  0  0  0  0  0  0  0  0  0  0
   -3.8570    6.5470   -3.0730 C   0  0  2  0  0  0  0  0  0  0  0  0
   -5.0540    7.1500   -3.5820 O   0  0  0  0  0  0  0  0  0  0  0  0
   -5.2350    6.0590   -2.6640 C   0  0  0  0  0  0  0  0  0  0  0  0
   -5.8480    6.4570   -1.3590 C   0  0  0  0  0  0  0  0  0  0  0  0
   -5.7720    4.8160   -3.3040 C   0  0  0  0  0  0  0  0  0  0  0  0
   -0.8450    9.9650   -1.8920 C   0  0  1  0  0  0  0  0  0  0  0  0
   -2.3080   10.3630   -1.5630 C   0  0  0  0  0  0  0  0  0  0  0  0
   -2.2370   11.6200   -0.6580 C   0  0  0  0  0  0  0  0  0  0  0  0
   -0.7690   12.0960   -0.7670 C   0  0  1  0  0  0  0  0  0  0  0  0
   -0.7070   12.9010   -2.1030 C   0  0  0  0  0  0  0  0  0  0  0  0
   -0.2230   12.9320    0.4360 C   0  0  2  0  0  0  0  0  0  0  0  0
   -0.9420   14.2700    0.6810 C   0  0  0  0  0  0  0  0  0  0  0  0
   -0.3640   15.4460   -0.0350 C   0  0  0  0  0  0  0  0  0  0  0  0
    0.8500   15.4890   -0.6130 C   0  0  0  0  0  0  0  0  0  0  0  0
    1.8220   14.3080   -0.4950 C   0  0  1  0  0  0  0  0  0  0  0  0
    3.2330   14.8330   -0.1230 C   0  0  0  0  0  0  0  0  0  0  0  0
    3.7320   15.9040   -1.0870 C   0  0  0  0  0  0  0  0  0  0  0  0
    2.7690   17.0880   -1.1330 C   0  0  2  0  0  0  0  0  0  0  0  0
    2.7870   17.7460    0.1380 O   0  0  0  0  0  0  0  0  0  0  0  0
    1.3130   16.6800   -1.4890 C   0  0  0  0  0  0  0  0  0  0  0  0
    1.2420   16.2460   -2.9740 C   0  0  0  0  0  0  0  0  0  0  0  0
    0.4180   17.9420   -1.3630 C   0  0  0  0  0  0  0  0  0  0  0  0
    1.3490   13.1120    0.4390 C   0  0  1  0  0  0  0  0  0  0  0  0
    1.7620   13.3960    1.9160 C   0  0  0  0  0  0  0  0  0  0  0  0
    2.1030   11.7970    0.0130 C   0  0  0  0  0  0  0  0  0  0  0  0
    1.4510   10.9520   -1.0980 C   0  0  0  0  0  0  0  0  0  0  0  0
   -0.0320   10.7080   -0.8030 C   0  0  2  0  0  0  0  0  0  0  0  0
   -0.1260    9.8820    0.5250 C   0  0  0  0  0  0  0  0  0  0  0  0
    1.4148    7.9931   -1.5866 H   0  0  0  0  0  0  0  0  0  0  0  0
    0.7572    7.2197   -3.0685 H   0  0  0  0  0  0  0  0  0  0  0  0
    1.1487    8.9728   -3.0685 H   0  0  0  0  0  0  0  0  0  0  0  0
   -0.7940    7.9949   -1.0076 H   0  0  0  0  0  0  0  0  0  0  0  0
   -1.9716    8.6066   -3.7027 H   0  0  0  0  0  0  0  0  0  0  0  0
   -1.2920    6.9422   -3.3698 H   0  0  0  0  0  0  0  0  0  0  0  0
   -2.7555    6.9226   -1.2924 H   0  0  0  0  0  0  0  0  0  0  0  0
   -3.5922    8.3609   -2.0129 H   0  0  0  0  0  0  0  0  0  0  0  0
   -2.9645    6.0170   -3.4371 H   0  0  0  0  0  0  0  0  0  0  0  0
   -5.2394    6.0618   -0.5323 H   0  0  0  0  0  0  0  0  0  0  0  0
   -5.8886    7.5542   -1.2925 H   0  0  0  0  0  0  0  0  0  0  0  0
   -6.8668    6.0476   -1.2925 H   0  0  0  0  0  0  0  0  0  0  0  0
   -6.0792    4.1048   -2.5231 H   0  0  0  0  0  0  0  0  0  0  0  0
   -6.6401    5.0713   -3.9295 H   0  0  0  0  0  0  0  0  0  0  0  0
   -4.9911    4.3589   -3.9295 H   0  0  0  0  0  0  0  0  0  0  0  0
   -0.4962   10.2647   -2.8913 H   0  0  0  0  0  0  0  0  0  0  0  0
   -2.8552   10.5934   -2.4890 H   0  0  0  0  0  0  0  0  0  0  0  0
   -2.8365    9.5415   -1.0572 H   0  0  0  0  0  0  0  0  0  0  0  0
   -2.9255   12.3981   -1.0192 H   0  0  0  0  0  0  0  0  0  0  0  0
   -2.5298   11.4041    0.3801 H   0  0  0  0  0  0  0  0  0  0  0  0
   -0.6243   13.9751   -1.8804 H   0  0  0  0  0  0  0  0  0  0  0  0
    0.1690   12.5786   -2.6850 H   0  0  0  0  0  0  0  0  0  0  0  0
   -1.6220   12.7166   -2.6850 H   0  0  0  0  0  0  0  0  0  0  0  0
   -0.4737   12.2963    1.2980 H   0  0  0  0  0  0  0  0  0  0  0  0
   -1.9881   14.1573    0.3600 H   0  0  0  0  0  0  0  0  0  0  0  0
   -0.8306   14.4828    1.7544 H   0  0  0  0  0  0  0  0  0  0  0  0
   -0.9829   16.3534   -0.0949 H   0  0  0  0  0  0  0  0  0  0  0  0
    1.8502   13.8368   -1.4886 H   0  0  0  0  0  0  0  0  0  0  0  0
    3.1943   15.2607    0.8897 H   0  0  0  0  0  0  0  0  0  0  0  0
    3.9301   13.9838   -0.1778 H   0  0  0  0  0  0  0  0  0  0  0  0
    4.7196   16.2559   -0.7543 H   0  0  0  0  0  0  0  0  0  0  0  0
    3.7989   15.4664   -2.0940 H   0  0  0  0  0  0  0  0  0  0  0  0
    3.1107   17.7603   -1.9338 H   0  0  0  0  0  0  0  0  0  0  0  0
    1.9960   17.4640    0.6270 H   0  0  0  0  0  0  0  0  0  0  0  0
    1.0646   15.1619   -3.0311 H   0  0  0  0  0  0  0  0  0  0  0  0
    0.4191   16.7789   -3.4728 H   0  0  0  0  0  0  0  0  0  0  0  0
    2.1918   16.4889   -3.4728 H   0  0  0  0  0  0  0  0  0  0  0  0
    0.2553   18.1714   -0.2996 H   0  0  0  0  0  0  0  0  0  0  0  0
    0.9149   18.7940   -1.8501 H   0  0  0  0  0  0  0  0  0  0  0  0
   -0.5504   17.7549   -1.8501 H   0  0  0  0  0  0  0  0  0  0  0  0
    1.0499   12.9063    2.5965 H   0  0  0  0  0  0  0  0  0  0  0  0
    2.7726   13.0009    2.0966 H   0  0  0  0  0  0  0  0  0  0  0  0
    1.7548   14.4811    2.0966 H   0  0  0  0  0  0  0  0  0  0  0  0
    3.1061   12.0859   -0.3338 H   0  0  0  0  0  0  0  0  0  0  0  0
    2.0915   11.1559    0.9068 H   0  0  0  0  0  0  0  0  0  0  0  0
    1.5444   11.4840   -2.0563 H   0  0  0  0  0  0  0  0  0  0  0  0
    1.9635    9.9799   -1.1454 H   0  0  0  0  0  0  0  0  0  0  0  0
   -0.0486   10.5621    1.3861 H   0  0  0  0  0  0  0  0  0  0  0  0
   -1.0901    9.3535    0.5606 H   0  0  0  0  0  0  0  0  0  0  0  0
    0.6947    9.1504    0.5606 H   0  0  0  0  0  0  0  0  0  0  0  0
  1  2  1  0
  2  3  1  0
  3  4  1  0
  4  5  1  0
  5  6  1  0
  6  7  1  0
  7  8  1  0
  7  9  1  0
  2 10  1  0
 10 11  1  0
 11 12  1  0
 12 13  1  0
 13 14  1  6
 13 15  1  0
 15 16  1  0
 16 17  1  0
 17 18  2  0
 18 19  1  0
 19 20  1  0
 20 21  1  0
 21 22  1  0
 22 23  1  0
 22 24  1  0
 24 25  1  0
 24 26  1  0
 19 27  1  0
 27 28  1  1
 27 29  1  0
 29 30  1  0
 30 31  1  0
 31 32  1  1
  7  5  1  0
 31 10  1  0
 31 13  1  0
 27 15  1  0
 24 18  1  0
  1 33  1  0
  1 34  1  0
  1 35  1  0
  2 36  1  1
  3 37  1  0
  3 38  1  0
  4 39  1  0
  4 40  1  0
  5 41  1  6
  8 42  1  0
  8 43  1  0
  8 44  1  0
  9 45  1  0
  9 46  1  0
  9 47  1  0
 10 48  1  6
 11 49  1  0
 11 50  1  0
 12 51  1  0
 12 52  1  0
 14 53  1  0
 14 54  1  0
 14 55  1  0
 15 56  1  1
 16 57  1  0
 16 58  1  0
 17 59  1  0
 19 60  1  6
 20 61  1  0
 20 62  1  0
 21 63  1  0
 21 64  1  0
 22 65  1  6
 23 66  1  0
 25 67  1  0
 25 68  1  0
 25 69  1  0
 26 70  1  0
 26 71  1  0
 26 72  1  0
 28 73  1  0
 28 74  1  0
 28 75  1  0
 29 76  1  0
 29 77  1  0
 30 78  1  0
 30 79  1  0
 32 80  1  0
 32 81  1  0
 32 82  1  0
M  END
>  <meeko>  (18) 
{"is_sidechain": [false], "intermolecular_energy": 2.731, "internal_energy": -0.839}

$$$$
EPH_relaxed_0001_pdb2pqr_Repair_50_r2_0001_out
     RDKit          3D

 82 86  0  0  0  0  0  0  0  0999 V2000
   -1.7220   14.8180    0.5500 C   0  0  0  0  0  0  0  0  0  0  0  0
   -0.3900   15.5260    0.2870 C   0  0  2  0  0  0  0  0  0  0  0  0
   -0.4800   16.5140   -0.8930 C   0  0  0  0  0  0  0  0  0  0  0  0
   -0.0380   17.9360   -0.5390 C   0  0  0  0  0  0  0  0  0  0  0  0
    1.3880   17.9760   -0.0790 C   0  0  2  0  0  0  0  0  0  0  0  0
    2.0710   19.2060   -0.3530 O   0  0  0  0  0  0  0  0  0  0  0  0
    2.5710   18.0390   -1.0260 C   0  0  0  0  0  0  0  0  0  0  0  0
    2.3830   18.0650   -2.5100 C   0  0  0  0  0  0  0  0  0  0  0  0
    3.9090   17.5840   -0.5300 C   0  0  0  0  0  0  0  0  0  0  0  0
    0.7020   14.4960    0.0230 C   0  0  1  0  0  0  0  0  0  0  0  0
    0.8350   13.4580    1.1690 C   0  0  0  0  0  0  0  0  0  0  0  0
    1.2130   12.1070    0.5080 C   0  0  0  0  0  0  0  0  0  0  0  0
    1.6070   12.4790   -0.9410 C   0  0  1  0  0  0  0  0  0  0  0  0
    3.0800   12.9840   -0.8380 C   0  0  0  0  0  0  0  0  0  0  0  0
    1.4580   11.3470   -2.0090 C   0  0  2  0  0  0  0  0  0  0  0  0
    2.3440   10.1100   -1.7780 C   0  0  0  0  0  0  0  0  0  0  0  0
    3.6880   10.1580   -2.4260 C   0  0  0  0  0  0  0  0  0  0  0  0
    4.0600   11.0180   -3.3920 C   0  0  0  0  0  0  0  0  0  0  0  0
    3.0540   12.0030   -4.0000 C   0  0  1  0  0  0  0  0  0  0  0  0
    3.1770   11.9820   -5.5460 C   0  0  0  0  0  0  0  0  0  0  0  0
    4.6040   12.2360   -6.0230 C   0  0  0  0  0  0  0  0  0  0  0  0
    5.5660   11.2020   -5.4440 C   0  0  2  0  0  0  0  0  0  0  0  0
    5.2510    9.9200   -5.9970 O   0  0  0  0  0  0  0  0  0  0  0  0
    5.5220   11.1260   -3.8920 C   0  0  0  0  0  0  0  0  0  0  0  0
    6.1480   12.4090   -3.2900 C   0  0  0  0  0  0  0  0  0  0  0  0
    6.4310    9.9490   -3.4450 C   0  0  0  0  0  0  0  0  0  0  0  0
    1.5510   11.8530   -3.5060 C   0  0  1  0  0  0  0  0  0  0  0  0
    0.8070   10.7970   -4.3800 C   0  0  0  0  0  0  0  0  0  0  0  0
    0.7990   13.2190   -3.7240 C   0  0  0  0  0  0  0  0  0  0  0  0
    0.8850   14.2490   -2.5820 C   0  0  0  0  0  0  0  0  0  0  0  0
    0.5480   13.6030   -1.2340 C   0  0  2  0  0  0  0  0  0  0  0  0
   -0.9360   13.1050   -1.3000 C   0  0  0  0  0  0  0  0  0  0  0  0
   -1.8837   14.7321    1.6347 H   0  0  0  0  0  0  0  0  0  0  0  0
   -2.5411   15.3997    0.1021 H   0  0  0  0  0  0  0  0  0  0  0  0
   -1.6981   13.8136    0.1021 H   0  0  0  0  0  0  0  0  0  0  0  0
   -0.1417   16.1090    1.1861 H   0  0  0  0  0  0  0  0  0  0  0  0
    0.1612   16.1432   -1.7063 H   0  0  0  0  0  0  0  0  0  0  0  0
   -1.5388   16.5697   -1.1860 H   0  0  0  0  0  0  0  0  0  0  0  0
   -0.1433   18.5738   -1.4290 H   0  0  0  0  0  0  0  0  0  0  0  0
   -0.6733   18.2975    0.2830 H   0  0  0  0  0  0  0  0  0  0  0  0
    1.1572   17.3157    0.7700 H   0  0  0  0  0  0  0  0  0  0  0  0
    1.3179   18.2123   -2.7421 H   0  0  0  0  0  0  0  0  0  0  0  0
    2.9695   18.8906   -2.9395 H   0  0  0  0  0  0  0  0  0  0  0  0
    2.7234   17.1112   -2.9395 H   0  0  0  0  0  0  0  0  0  0  0  0
    3.9114   17.5832    0.5700 H   0  0  0  0  0  0  0  0  0  0  0  0
    4.1100   16.5670   -0.8979 H   0  0  0  0  0  0  0  0  0  0  0  0
    4.6883   18.2676   -0.8979 H   0  0  0  0  0  0  0  0  0  0  0  0
    1.5644   15.1685   -0.0957 H   0  0  0  0  0  0  0  0  0  0  0  0
    1.6218   13.7689    1.8721 H   0  0  0  0  0  0  0  0  0  0  0  0
   -0.1046   13.3716    1.7344 H   0  0  0  0  0  0  0  0  0  0  0  0
    2.0597   11.6410    1.0333 H   0  0  0  0  0  0  0  0  0  0  0  0
    0.3882   11.3801    0.5427 H   0  0  0  0  0  0  0  0  0  0  0  0
    3.3613   13.0805    0.2210 H   0  0  0  0  0  0  0  0  0  0  0  0
    3.7497   12.2642   -1.3312 H   0  0  0  0  0  0  0  0  0  0  0  0
    3.1672   13.9634   -1.3312 H   0  0  0  0  0  0  0  0  0  0  0  0
    0.4241   11.0070   -1.8496 H   0  0  0  0  0  0  0  0  0  0  0  0
    2.4932    9.9964   -0.6941 H   0  0  0  0  0  0  0  0  0  0  0  0
    1.8132    9.2649   -2.2407 H   0  0  0  0  0  0  0  0  0  0  0  0
    4.4377    9.4288   -2.0851 H   0  0  0  0  0  0  0  0  0  0  0  0
    3.3326   12.9958   -3.6169 H   0  0  0  0  0  0  0  0  0  0  0  0
    2.8530   10.9966   -5.9121 H   0  0  0  0  0  0  0  0  0  0  0  0
    2.5438   12.7895   -5.9423 H   0  0  0  0  0  0  0  0  0  0  0  0
    4.6320   12.1782   -7.1211 H   0  0  0  0  0  0  0  0  0  0  0  0
    4.9153   13.2343   -5.6818 H   0  0  0  0  0  0  0  0  0  0  0  0
    6.5862   11.5122   -5.7142 H   0  0  0  0  0  0  0  0  0  0  0  0
    4.9860   10.0560   -6.9220 H   0  0  0  0  0  0  0  0  0  0  0  0
    6.1194   12.3505   -2.1919 H   0  0  0  0  0  0  0  0  0  0  0  0
    7.1917   12.4999   -3.6253 H   0  0  0  0  0  0  0  0  0  0  0  0
    5.5773   13.2876   -3.6253 H   0  0  0  0  0  0  0  0  0  0  0  0
    6.4632    9.9074   -2.3463 H   0  0  0  0  0  0  0  0  0  0  0  0
    6.0260    9.0040   -3.8361 H   0  0  0  0  0  0  0  0  0  0  0  0
    7.4477   10.1019   -3.8361 H   0  0  0  0  0  0  0  0  0  0  0  0
    0.2974   10.0737   -3.7265 H   0  0  0  0  0  0  0  0  0  0  0  0
    0.0652   11.3036   -5.0150 H   0  0  0  0  0  0  0  0  0  0  0  0
    1.5337   10.2690   -5.0150 H   0  0  0  0  0  0  0  0  0  0  0  0
    1.2161   13.6881   -4.6273 H   0  0  0  0  0  0  0  0  0  0  0  0
   -0.2663   12.9534   -3.7925 H   0  0  0  0  0  0  0  0  0  0  0  0
    1.9061   14.6560   -2.5407 H   0  0  0  0  0  0  0  0  0  0  0  0
    0.1583   15.0512   -2.7778 H   0  0  0  0  0  0  0  0  0  0  0  0
   -1.3247   12.9746   -0.2793 H   0  0  0  0  0  0  0  0  0  0  0  0
   -1.5483   13.8469   -1.8335 H   0  0  0  0  0  0  0  0  0  0  0  0
   -0.9769   12.1439   -1.8335 H   0  0  0  0  0  0  0  0  0  0  0  0
  1  2  1  0
  2  3  1  0
  3  4  1  0
  4  5  1  0
  5  6  1  0
  6  7  1  0
  7  8  1  0
  7  9  1  0
  2 10  1  0
 10 11  1  0
 11 12  1  0
 12 13  1  0
 13 14  1  1
 13 15  1  0
 15 16  1  0
 16 17  1  0
 17 18  2  0
 18 19  1  0
 19 20  1  0
 20 21  1  0
 21 22  1  0
 22 23  1  0
 22 24  1  0
 24 25  1  0
 24 26  1  0
 19 27  1  0
 27 28  1  6
 27 29  1  0
 29 30  1  0
 30 31  1  0
 31 32  1  6
  7  5  1  0
 31 10  1  0
 31 13  1  0
 27 15  1  0
 24 18  1  0
  1 33  1  0
  1 34  1  0
  1 35  1  0
  2 36  1  1
  3 37  1  0
  3 38  1  0
  4 39  1  0
  4 40  1  0
  5 41  1  1
  8 42  1  0
  8 43  1  0
  8 44  1  0
  9 45  1  0
  9 46  1  0
  9 47  1  0
 10 48  1  6
 11 49  1  0
 11 50  1  0
 12 51  1  0
 12 52  1  0
 14 53  1  0
 14 54  1  0
 14 55  1  0
 15 56  1  6
 16 57  1  0
 16 58  1  0
 17 59  1  0
 19 60  1  1
 20 61  1  0
 20 62  1  0
 21 63  1  0
 21 64  1  0
 22 65  1  1
 23 66  1  0
 25 67  1  0
 25 68  1  0
 25 69  1  0
 26 70  1  0
 26 71  1  0
 26 72  1  0
 28 73  1  0
 28 74  1  0
 28 75  1  0
 29 76  1  0
 29 77  1  0
 30 78  1  0
 30 79  1  0
 32 80  1  0
 32 81  1  0
 32 82  1  0
M  END
>  <meeko>  (19) 
{"is_sidechain": [false], "intermolecular_energy": 2.731, "internal_energy": -0.839}

$$$$
