EPH_relaxed_0001_pdb2pqr_Repair_48_r2_0001_out
     RDKit          3D

 82 86  0  0  0  0  0  0  0  0999 V2000
   -1.6280    8.6310   -1.9020 C   0  0  0  0  0  0  0  0  0  0  0  0
   -1.8550    9.0240   -0.4390 C   0  0  2  0  0  0  0  0  0  0  0  0
   -3.3440    9.2750   -0.1300 C   0  0  0  0  0  0  0  0  0  0  0  0
   -4.2980    8.6650   -1.1600 C   0  0  0  0  0  0  0  0  0  0  0  0
   -5.3770    7.8560   -0.5060 C   0  0  2  0  0  0  0  0  0  0  0  0
   -5.5740    6.5530   -1.0700 O   0  0  0  0  0  0  0  0  0  0  0  0
   -6.6710    7.4720   -1.1980 C   0  0  0  0  0  0  0  0  0  0  0  0
   -6.9560    7.8880   -2.6070 C   0  0  0  0  0  0  0  0  0  0  0  0
   -7.8560    7.1170   -0.3540 C   0  0  0  0  0  0  0  0  0  0  0  0
   -1.0360   10.2650   -0.1020 C   0  0  1  0  0  0  0  0  0  0  0  0
    0.0140   10.0030    1.0110 C   0  0  0  0  0  0  0  0  0  0  0  0
    1.2520   10.8730    0.6710 C   0  0  0  0  0  0  0  0  0  0  0  0
    0.7550   11.8470   -0.4230 C   0  0  1  0  0  0  0  0  0  0  0  0
    0.0140   12.9800    0.3540 C   0  0  0  0  0  0  0  0  0  0  0  0
    1.8470   12.4240   -1.3820 C   0  0  2  0  0  0  0  0  0  0  0  0
    2.9260   13.2830   -0.7000 C   0  0  0  0  0  0  0  0  0  0  0  0
    2.6240   14.7430   -0.6220 C   0  0  0  0  0  0  0  0  0  0  0  0
    1.6720   15.3830   -1.3270 C   0  0  0  0  0  0  0  0  0  0  0  0
    0.8440   14.6440   -2.3860 C   0  0  1  0  0  0  0  0  0  0  0  0
    0.7770   15.4970   -3.6790 C   0  0  0  0  0  0  0  0  0  0  0  0
    0.2640   16.9110   -3.4210 C   0  0  0  0  0  0  0  0  0  0  0  0
    1.1470   17.6340   -2.4060 C   0  0  2  0  0  0  0  0  0  0  0  0
    2.4380   17.8460   -2.9870 O   0  0  0  0  0  0  0  0  0  0  0  0
    1.2980   16.8630   -1.0650 C   0  0  0  0  0  0  0  0  0  0  0  0
   -0.0440   16.8950   -0.2930 C   0  0  0  0  0  0  0  0  0  0  0  0
    2.3230   17.6290   -0.1870 C   0  0  0  0  0  0  0  0  0  0  0  0
    1.2680   13.1380   -2.6700 C   0  0  1  0  0  0  0  0  0  0  0  0
    2.3940   13.0960   -3.7470 C   0  0  0  0  0  0  0  0  0  0  0  0
    0.0400   12.3650   -3.2810 C   0  0  0  0  0  0  0  0  0  0  0  0
   -0.9390   11.7160   -2.2840 C   0  0  0  0  0  0  0  0  0  0  0  0
   -0.1870   10.8870   -1.2380 C   0  0  2  0  0  0  0  0  0  0  0  0
    0.5510    9.7260   -1.9880 C   0  0  0  0  0  0  0  0  0  0  0  0
   -1.0782    7.6792   -1.9449 H   0  0  0  0  0  0  0  0  0  0  0  0
   -2.5991    8.5166   -2.4058 H   0  0  0  0  0  0  0  0  0  0  0  0
   -1.0436    9.4150   -2.4058 H   0  0  0  0  0  0  0  0  0  0  0  0
   -1.5263    8.1805    0.1859 H   0  0  0  0  0  0  0  0  0  0  0  0
   -3.5723    8.8408    0.8546 H   0  0  0  0  0  0  0  0  0  0  0  0
   -3.4981   10.3639   -0.1547 H   0  0  0  0  0  0  0  0  0  0  0  0
   -4.7626    9.4762   -1.7398 H   0  0  0  0  0  0  0  0  0  0  0  0
   -3.7164    7.9970   -1.8123 H   0  0  0  0  0  0  0  0  0  0  0  0
   -5.1723    8.3268    0.4668 H   0  0  0  0  0  0  0  0  0  0  0  0
   -7.5777    8.7955   -2.6028 H   0  0  0  0  0  0  0  0  0  0  0  0
   -6.0090    8.0948   -3.1270 H   0  0  0  0  0  0  0  0  0  0  0  0
   -7.4908    7.0795   -3.1270 H   0  0  0  0  0  0  0  0  0  0  0  0
   -7.5862    7.1978    0.7093 H   0  0  0  0  0  0  0  0  0  0  0  0
   -8.6839    7.8066   -0.5757 H   0  0  0  0  0  0  0  0  0  0  0  0
   -8.1684    6.0858   -0.5757 H   0  0  0  0  0  0  0  0  0  0  0  0
   -1.8482   10.9516    0.1788 H   0  0  0  0  0  0  0  0  0  0  0  0
   -0.3934   10.2905    1.9915 H   0  0  0  0  0  0  0  0  0  0  0  0
    0.2812    8.9370    1.0592 H   0  0  0  0  0  0  0  0  0  0  0  0
    1.5932   11.4267    1.5582 H   0  0  0  0  0  0  0  0  0  0  0  0
    2.1072   10.2686    0.3345 H   0  0  0  0  0  0  0  0  0  0  0  0
    0.1225   12.8141    1.4360 H   0  0  0  0  0  0  0  0  0  0  0  0
    0.4503   13.9538    0.0868 H   0  0  0  0  0  0  0  0  0  0  0  0
   -1.0530   12.9706    0.0868 H   0  0  0  0  0  0  0  0  0  0  0  0
    2.3621   11.5151   -1.7263 H   0  0  0  0  0  0  0  0  0  0  0  0
    3.0605   12.9085    0.3255 H   0  0  0  0  0  0  0  0  0  0  0  0
    3.8271   13.1917   -1.3243 H   0  0  0  0  0  0  0  0  0  0  0  0
    3.2302   15.3466    0.0695 H   0  0  0  0  0  0  0  0  0  0  0  0
   -0.1641   14.5320   -1.9604 H   0  0  0  0  0  0  0  0  0  0  0  0
    1.7863   15.5615   -4.1117 H   0  0  0  0  0  0  0  0  0  0  0  0
    0.0725   15.0064   -4.3667 H   0  0  0  0  0  0  0  0  0  0  0  0
    0.2671   17.4734   -4.3664 H   0  0  0  0  0  0  0  0  0  0  0  0
   -0.7567   16.8463   -3.0160 H   0  0  0  0  0  0  0  0  0  0  0  0
    0.6576   18.5891   -2.1646 H   0  0  0  0  0  0  0  0  0  0  0  0
    2.5910   18.8060   -3.0200 H   0  0  0  0  0  0  0  0  0  0  0  0
    0.1551   16.8903    0.7888 H   0  0  0  0  0  0  0  0  0  0  0  0
   -0.5988   17.8066   -0.5597 H   0  0  0  0  0  0  0  0  0  0  0  0
   -0.6416   16.0109   -0.5597 H   0  0  0  0  0  0  0  0  0  0  0  0
    2.0952   17.4587    0.8756 H   0  0  0  0  0  0  0  0  0  0  0  0
    3.3378   17.2662   -0.4071 H   0  0  0  0  0  0  0  0  0  0  0  0
    2.2625   18.7051   -0.4071 H   0  0  0  0  0  0  0  0  0  0  0  0
    3.3750   13.0594   -3.2506 H   0  0  0  0  0  0  0  0  0  0  0  0
    2.2674   12.2020   -4.3752 H   0  0  0  0  0  0  0  0  0  0  0  0
    2.3343   13.9970   -4.3752 H   0  0  0  0  0  0  0  0  0  0  0  0
   -0.5319   13.0789   -3.8919 H   0  0  0  0  0  0  0  0  0  0  0  0
    0.4783   11.5259   -3.8412 H   0  0  0  0  0  0  0  0  0  0  0  0
   -1.5100   12.5061   -1.7744 H   0  0  0  0  0  0  0  0  0  0  0  0
   -1.6152   11.0497   -2.8397 H   0  0  0  0  0  0  0  0  0  0  0  0
    0.9900    9.0354   -1.2529 H   0  0  0  0  0  0  0  0  0  0  0  0
   -0.1674    9.1820   -2.6188 H   0  0  0  0  0  0  0  0  0  0  0  0
    1.3485   10.1456   -2.6188 H   0  0  0  0  0  0  0  0  0  0  0  0
  1  2  1  0
  2  3  1  0
  3  4  1  0
  4  5  1  0
  5  6  1  0
  6  7  1  0
  7  8  1  0
  7  9  1  0
  2 10  1  0
 10 11  1  0
 11 12  1  0
 12 13  1  0
 13 14  1  1
 13 15  1  0
 15 16  1  0
 16 17  1  0
 17 18  2  0
 18 19  1  0
 19 20  1  0
 20 21  1  0
 21 22  1  0
 22 23  1  0
 22 24  1  0
 24 25  1  0
 24 26  1  0
 19 27  1  0
 27 28  1  6
 27 29  1  0
 29 30  1  0
 30 31  1  0
 31 32  1  6
  7  5  1  0
 31 10  1  0
 31 13  1  0
 27 15  1  0
 24 18  1  0
  1 33  1  0
  1 34  1  0
  1 35  1  0
  2 36  1  1
  3 37  1  0
  3 38  1  0
  4 39  1  0
  4 40  1  0
  5 41  1  1
  8 42  1  0
  8 43  1  0
  8 44  1  0
  9 45  1  0
  9 46  1  0
  9 47  1  0
 10 48  1  1
 11 49  1  0
 11 50  1  0
 12 51  1  0
 12 52  1  0
 14 53  1  0
 14 54  1  0
 14 55  1  0
 15 56  1  6
 16 57  1  0
 16 58  1  0
 17 59  1  0
 19 60  1  1
 20 61  1  0
 20 62  1  0
 21 63  1  0
 21 64  1  0
 22 65  1  1
 23 66  1  0
 25 67  1  0
 25 68  1  0
 25 69  1  0
 26 70  1  0
 26 71  1  0
 26 72  1  0
 28 73  1  0
 28 74  1  0
 28 75  1  0
 29 76  1  0
 29 77  1  0
 30 78  1  0
 30 79  1  0
 32 80  1  0
 32 81  1  0
 32 82  1  0
M  END
>  <meeko>  (1) 
{"is_sidechain": [false], "intermolecular_energy": 2.731, "internal_energy": -0.839}

$$$$
EPH_relaxed_0001_pdb2pqr_Repair_48_r2_0001_out
     RDKit          3D

 82 86  0  0  0  0  0  0  0  0999 V2000
   -1.4720    8.5470   -1.8060 C   0  0  0  0  0  0  0  0  0  0  0  0
   -1.8690    9.1140   -0.4400 C   0  0  2  0  0  0  0  0  0  0  0  0
   -3.3650    9.4850   -0.3790 C   0  0  0  0  0  0  0  0  0  0  0  0
   -4.3020    8.2760   -0.4400 C   0  0  0  0  0  0  0  0  0  0  0  0
   -4.7620    8.0020   -1.8400 C   0  0  2  0  0  0  0  0  0  0  0  0
   -6.1610    7.7120   -1.9640 O   0  0  0  0  0  0  0  0  0  0  0  0
   -5.2600    6.6460   -2.3060 C   0  0  0  0  0  0  0  0  0  0  0  0
   -5.3220    5.4750   -1.3760 C   0  0  0  0  0  0  0  0  0  0  0  0
   -5.2220    6.3350   -3.7700 C   0  0  0  0  0  0  0  0  0  0  0  0
   -1.0160   10.3340   -0.1160 C   0  0  1  0  0  0  0  0  0  0  0  0
    0.0780   10.0340    0.9440 C   0  0  0  0  0  0  0  0  0  0  0  0
    1.3130   10.8910    0.5660 C   0  0  0  0  0  0  0  0  0  0  0  0
    0.7860   11.8930   -0.4860 C   0  0  1  0  0  0  0  0  0  0  0  0
    0.0990   13.0230    0.3440 C   0  0  0  0  0  0  0  0  0  0  0  0
    1.8440   12.4710   -1.4820 C   0  0  2  0  0  0  0  0  0  0  0  0
    2.9670   13.2990   -0.8320 C   0  0  0  0  0  0  0  0  0  0  0  0
    2.6930   14.7620   -0.7140 C   0  0  0  0  0  0  0  0  0  0  0  0
    1.7220   15.4310   -1.3630 C   0  0  0  0  0  0  0  0  0  0  0  0
    0.8360   14.7260   -2.3980 C   0  0  1  0  0  0  0  0  0  0  0  0
    0.7260   15.6060   -3.6710 C   0  0  0  0  0  0  0  0  0  0  0  0
    0.2490   17.0220   -3.3630 C   0  0  0  0  0  0  0  0  0  0  0  0
    1.1880   17.7110   -2.3750 C   0  0  2  0  0  0  0  0  0  0  0  0
    2.4550   17.9140   -3.0090 O   0  0  0  0  0  0  0  0  0  0  0  0
    1.3840   16.9110   -1.0570 C   0  0  0  0  0  0  0  0  0  0  0  0
    0.0780   16.9500   -0.2250 C   0  0  0  0  0  0  0  0  0  0  0  0
    2.4600   17.6430   -0.2100 C   0  0  0  0  0  0  0  0  0  0  0  0
    1.2210   13.2200   -2.7290 C   0  0  1  0  0  0  0  0  0  0  0  0
    2.2980   13.1810   -3.8550 C   0  0  0  0  0  0  0  0  0  0  0  0
   -0.0460   12.4790   -3.2990 C   0  0  0  0  0  0  0  0  0  0  0  0
   -0.9900   11.8260   -2.2720 C   0  0  0  0  0  0  0  0  0  0  0  0
   -0.2070   10.9650   -1.2770 C   0  0  2  0  0  0  0  0  0  0  0  0
    0.4770    9.8070   -2.0800 C   0  0  0  0  0  0  0  0  0  0  0  0
   -0.8463    7.6534   -1.6643 H   0  0  0  0  0  0  0  0  0  0  0  0
   -2.3780    8.2750   -2.3675 H   0  0  0  0  0  0  0  0  0  0  0  0
   -0.9065    9.3053   -2.3675 H   0  0  0  0  0  0  0  0  0  0  0  0
   -1.6925    8.3282    0.3092 H   0  0  0  0  0  0  0  0  0  0  0  0
   -3.5515   10.0217    0.5629 H   0  0  0  0  0  0  0  0  0  0  0  0
   -3.5793   10.1026   -1.2637 H   0  0  0  0  0  0  0  0  0  0  0  0
   -3.7687    7.3920   -0.0604 H   0  0  0  0  0  0  0  0  0  0  0  0
   -5.1870    8.4963    0.1751 H   0  0  0  0  0  0  0  0  0  0  0  0
   -4.0088    8.6918   -2.2485 H   0  0  0  0  0  0  0  0  0  0  0  0
   -5.3031    5.8317   -0.3356 H   0  0  0  0  0  0  0  0  0  0  0  0
   -6.2511    4.9138   -1.5544 H   0  0  0  0  0  0  0  0  0  0  0  0
   -4.4573    4.8189   -1.5544 H   0  0  0  0  0  0  0  0  0  0  0  0
   -5.0897    5.2522   -3.9115 H   0  0  0  0  0  0  0  0  0  0  0  0
   -6.1657    6.6532   -4.2371 H   0  0  0  0  0  0  0  0  0  0  0  0
   -4.3827    6.8711   -4.2371 H   0  0  0  0  0  0  0  0  0  0  0  0
   -1.8038   11.0272    0.2139 H   0  0  0  0  0  0  0  0  0  0  0  0
   -0.2809   10.3083    1.9470 H   0  0  0  0  0  0  0  0  0  0  0  0
    0.3298    8.9633    0.9599 H   0  0  0  0  0  0  0  0  0  0  0  0
    1.7015   11.4221    1.4475 H   0  0  0  0  0  0  0  0  0  0  0  0
    2.1424   10.2797    0.1807 H   0  0  0  0  0  0  0  0  0  0  0  0
    0.2241   12.8173    1.4173 H   0  0  0  0  0  0  0  0  0  0  0  0
    0.5619   13.9905    0.0997 H   0  0  0  0  0  0  0  0  0  0  0  0
   -0.9730   13.0573    0.0997 H   0  0  0  0  0  0  0  0  0  0  0  0
    2.3273   11.5608   -1.8667 H   0  0  0  0  0  0  0  0  0  0  0  0
    3.1398   12.9027    0.1795 H   0  0  0  0  0  0  0  0  0  0  0  0
    3.8386   13.2049   -1.4964 H   0  0  0  0  0  0  0  0  0  0  0  0
    3.3396   15.3423   -0.0394 H   0  0  0  0  0  0  0  0  0  0  0  0
   -0.1539   14.6213   -1.9299 H   0  0  0  0  0  0  0  0  0  0  0  0
    1.7160   15.6630   -4.1471 H   0  0  0  0  0  0  0  0  0  0  0  0
   -0.0164   15.1405   -4.3360 H   0  0  0  0  0  0  0  0  0  0  0  0
    0.2193   17.6030   -4.2966 H   0  0  0  0  0  0  0  0  0  0  0  0
   -0.7534   16.9651   -2.9136 H   0  0  0  0  0  0  0  0  0  0  0  0
    0.7269   18.6693   -2.0938 H   0  0  0  0  0  0  0  0  0  0  0  0
    2.4420   17.4330   -3.8530 H   0  0  0  0  0  0  0  0  0  0  0  0
    0.3257   16.9426    0.8467 H   0  0  0  0  0  0  0  0  0  0  0  0
   -0.4827   17.8653   -0.4654 H   0  0  0  0  0  0  0  0  0  0  0  0
   -0.5364   16.0698   -0.4654 H   0  0  0  0  0  0  0  0  0  0  0  0
    2.2463   17.4976    0.8592 H   0  0  0  0  0  0  0  0  0  0  0  0
    3.4531   17.2324   -0.4446 H   0  0  0  0  0  0  0  0  0  0  0  0
    2.4428   18.7176   -0.4446 H   0  0  0  0  0  0  0  0  0  0  0  0
    3.3001   13.1447   -3.4028 H   0  0  0  0  0  0  0  0  0  0  0  0
    2.1445   12.2878   -4.4784 H   0  0  0  0  0  0  0  0  0  0  0  0
    2.2095   14.0829   -4.4784 H   0  0  0  0  0  0  0  0  0  0  0  0
   -0.6326   13.2141   -3.8697 H   0  0  0  0  0  0  0  0  0  0  0  0
    0.3527   11.6444   -3.8944 H   0  0  0  0  0  0  0  0  0  0  0  0
   -1.5246   12.6147   -1.7224 H   0  0  0  0  0  0  0  0  0  0  0  0
   -1.7009   11.1814   -2.8097 H   0  0  0  0  0  0  0  0  0  0  0  0
    0.9075    9.0782   -1.3775 H   0  0  0  0  0  0  0  0  0  0  0  0
   -0.2714    9.3080   -2.7132 H   0  0  0  0  0  0  0  0  0  0  0  0
    1.2752   10.2216   -2.7132 H   0  0  0  0  0  0  0  0  0  0  0  0
  1  2  1  0
  2  3  1  0
  3  4  1  0
  4  5  1  0
  5  6  1  0
  6  7  1  0
  7  8  1  0
  7  9  1  0
  2 10  1  0
 10 11  1  0
 11 12  1  0
 12 13  1  0
 13 14  1  1
 13 15  1  0
 15 16  1  0
 16 17  1  0
 17 18  2  0
 18 19  1  0
 19 20  1  0
 20 21  1  0
 21 22  1  0
 22 23  1  0
 22 24  1  0
 24 25  1  0
 24 26  1  0
 19 27  1  0
 27 28  1  6
 27 29  1  0
 29 30  1  0
 30 31  1  0
 31 32  1  6
  7  5  1  0
 31 10  1  0
 31 13  1  0
 27 15  1  0
 24 18  1  0
  1 33  1  0
  1 34  1  0
  1 35  1  0
  2 36  1  1
  3 37  1  0
  3 38  1  0
  4 39  1  0
  4 40  1  0
  5 41  1  6
  8 42  1  0
  8 43  1  0
  8 44  1  0
  9 45  1  0
  9 46  1  0
  9 47  1  0
 10 48  1  1
 11 49  1  0
 11 50  1  0
 12 51  1  0
 12 52  1  0
 14 53  1  0
 14 54  1  0
 14 55  1  0
 15 56  1  6
 16 57  1  0
 16 58  1  0
 17 59  1  0
 19 60  1  1
 20 61  1  0
 20 62  1  0
 21 63  1  0
 21 64  1  0
 22 65  1  1
 23 66  1  0
 25 67  1  0
 25 68  1  0
 25 69  1  0
 26 70  1  0
 26 71  1  0
 26 72  1  0
 28 73  1  0
 28 74  1  0
 28 75  1  0
 29 76  1  0
 29 77  1  0
 30 78  1  0
 30 79  1  0
 32 80  1  0
 32 81  1  0
 32 82  1  0
M  END
>  <meeko>  (2) 
{"is_sidechain": [false], "intermolecular_energy": 2.731, "internal_energy": -0.839}

$$$$
EPH_relaxed_0001_pdb2pqr_Repair_48_r2_0001_out
     RDKit          3D

 82 86  0  0  0  0  0  0  0  0999 V2000
    2.0110   19.6360   -0.6450 C   0  0  0  0  0  0  0  0  0  0  0  0
    2.4020   18.4230    0.2030 C   0  0  2  0  0  0  0  0  0  0  0  0
    3.8500   17.9680   -0.0670 C   0  0  0  0  0  0  0  0  0  0  0  0
    4.8070   18.2340    1.0990 C   0  0  0  0  0  0  0  0  0  0  0  0
    4.1320   18.9770    2.2110 C   0  0  2  0  0  0  0  0  0  0  0  0
    4.7830   20.1940    2.5990 O   0  0  0  0  0  0  0  0  0  0  0  0
    4.7410   19.1540    3.5900 C   0  0  0  0  0  0  0  0  0  0  0  0
    6.0820   18.5830    3.9290 C   0  0  0  0  0  0  0  0  0  0  0  0
    3.8320   19.4540    4.7400 C   0  0  0  0  0  0  0  0  0  0  0  0
    1.4370   17.2730   -0.0580 C   0  0  1  0  0  0  0  0  0  0  0  0
    0.1490   17.7300   -0.7930 C   0  0  0  0  0  0  0  0  0  0  0  0
   -0.2640   16.5710   -1.7360 C   0  0  0  0  0  0  0  0  0  0  0  0
    0.5960   15.3700   -1.2760 C   0  0  1  0  0  0  0  0  0  0  0  0
   -0.1530   14.7930   -0.0340 C   0  0  0  0  0  0  0  0  0  0  0  0
    0.8700   14.2660   -2.3490 C   0  0  2  0  0  0  0  0  0  0  0  0
   -0.3810   13.5400   -2.8740 C   0  0  0  0  0  0  0  0  0  0  0  0
   -0.7710   12.3130   -2.1180 C   0  0  0  0  0  0  0  0  0  0  0  0
    0.0100   11.6530   -1.2430 C   0  0  0  0  0  0  0  0  0  0  0  0
    1.4660   12.0750   -1.0120 C   0  0  1  0  0  0  0  0  0  0  0  0
    2.3790   10.8210   -1.0340 C   0  0  0  0  0  0  0  0  0  0  0  0
    1.9210    9.7470   -0.0530 C   0  0  0  0  0  0  0  0  0  0  0  0
    0.4880    9.3110   -0.3510 C   0  0  2  0  0  0  0  0  0  0  0  0
    0.4640    8.6420   -1.6160 O   0  0  0  0  0  0  0  0  0  0  0  0
   -0.5210   10.4920   -0.3660 C   0  0  0  0  0  0  0  0  0  0  0  0
   -0.7200   11.0250    1.0750 C   0  0  0  0  0  0  0  0  0  0  0  0
   -1.8990    9.9370   -0.8170 C   0  0  0  0  0  0  0  0  0  0  0  0
    2.0070   13.2400   -1.9480 C   0  0  1  0  0  0  0  0  0  0  0  0
    2.5570   12.6420   -3.2790 C   0  0  0  0  0  0  0  0  0  0  0  0
    3.2250   13.9440   -1.2410 C   0  0  0  0  0  0  0  0  0  0  0  0
    2.8970   15.1060   -0.2840 C   0  0  0  0  0  0  0  0  0  0  0  0
    1.9440   16.1070   -0.9440 C   0  0  2  0  0  0  0  0  0  0  0  0
    2.6780   16.7210   -2.1850 C   0  0  0  0  0  0  0  0  0  0  0  0
    1.7411   20.4733    0.0153 H   0  0  0  0  0  0  0  0  0  0  0  0
    2.8603   19.9287   -1.2798 H   0  0  0  0  0  0  0  0  0  0  0  0
    1.1506   19.3776   -1.2798 H   0  0  0  0  0  0  0  0  0  0  0  0
    2.3427   18.7250    1.2591 H   0  0  0  0  0  0  0  0  0  0  0  0
    3.8421   16.8869   -0.2700 H   0  0  0  0  0  0  0  0  0  0  0  0
    4.2163   18.5534   -0.9232 H   0  0  0  0  0  0  0  0  0  0  0  0
    5.1749   17.2719    1.4849 H   0  0  0  0  0  0  0  0  0  0  0  0
    5.6370   18.8528    0.7272 H   0  0  0  0  0  0  0  0  0  0  0  0
    3.1446   18.6220    1.8807 H   0  0  0  0  0  0  0  0  0  0  0  0
    6.1944   18.5351    5.0222 H   0  0  0  0  0  0  0  0  0  0  0  0
    6.1668   17.5707    3.5070 H   0  0  0  0  0  0  0  0  0  0  0  0
    6.8705   19.2234    3.5070 H   0  0  0  0  0  0  0  0  0  0  0  0
    4.3662   19.2777    5.6853 H   0  0  0  0  0  0  0  0  0  0  0  0
    3.5123   20.5053    4.6901 H   0  0  0  0  0  0  0  0  0  0  0  0
    2.9493   18.7995    4.6901 H   0  0  0  0  0  0  0  0  0  0  0  0
    1.2831   16.9228    0.9733 H   0  0  0  0  0  0  0  0  0  0  0  0
   -0.6515   17.9297   -0.0655 H   0  0  0  0  0  0  0  0  0  0  0  0
    0.3256   18.6560   -1.3598 H   0  0  0  0  0  0  0  0  0  0  0  0
   -1.3353   16.3456   -1.6285 H   0  0  0  0  0  0  0  0  0  0  0  0
   -0.1039   16.8177   -2.7959 H   0  0  0  0  0  0  0  0  0  0  0  0
    0.3248   15.1611    0.8859 H   0  0  0  0  0  0  0  0  0  0  0  0
   -1.2039   15.1172   -0.0563 H   0  0  0  0  0  0  0  0  0  0  0  0
   -0.1077   13.6942   -0.0563 H   0  0  0  0  0  0  0  0  0  0  0  0
    1.2528   14.8527   -3.1971 H   0  0  0  0  0  0  0  0  0  0  0  0
   -1.2243   14.2452   -2.8356 H   0  0  0  0  0  0  0  0  0  0  0  0
   -0.1332   13.2043   -3.8918 H   0  0  0  0  0  0  0  0  0  0  0  0
   -1.7818   11.9149   -2.2907 H   0  0  0  0  0  0  0  0  0  0  0  0
    1.4932   12.5387   -0.0149 H   0  0  0  0  0  0  0  0  0  0  0  0
    2.3720   10.3974   -2.0492 H   0  0  0  0  0  0  0  0  0  0  0  0
    3.3889   11.1379   -0.7346 H   0  0  0  0  0  0  0  0  0  0  0  0
    2.5871    8.8756   -0.1364 H   0  0  0  0  0  0  0  0  0  0  0  0
    1.9571   10.1627    0.9648 H   0  0  0  0  0  0  0  0  0  0  0  0
    0.1719    8.6390    0.4605 H   0  0  0  0  0  0  0  0  0  0  0  0
    0.6080    9.3120   -2.3060 H   0  0  0  0  0  0  0  0  0  0  0  0
   -0.4297   10.2474    1.7969 H   0  0  0  0  0  0  0  0  0  0  0  0
   -0.0944   11.9171    1.2256 H   0  0  0  0  0  0  0  0  0  0  0  0
   -1.7772   11.2888    1.2256 H   0  0  0  0  0  0  0  0  0  0  0  0
   -2.5039    9.6934    0.0689 H   0  0  0  0  0  0  0  0  0  0  0  0
   -2.4203   10.6953   -1.4197 H   0  0  0  0  0  0  0  0  0  0  0  0
   -1.7492    9.0291   -1.4197 H   0  0  0  0  0  0  0  0  0  0  0  0
    3.2856   11.8499   -3.0516 H   0  0  0  0  0  0  0  0  0  0  0  0
    1.7256   12.2192   -3.8621 H   0  0  0  0  0  0  0  0  0  0  0  0
    3.0478   13.4352   -3.8621 H   0  0  0  0  0  0  0  0  0  0  0  0
    3.7618   13.1779   -0.6623 H   0  0  0  0  0  0  0  0  0  0  0  0
    3.8070   14.3986   -2.0562 H   0  0  0  0  0  0  0  0  0  0  0  0
    2.4233   14.7024    0.6231 H   0  0  0  0  0  0  0  0  0  0  0  0
    3.8323   15.6266   -0.0307 H   0  0  0  0  0  0  0  0  0  0  0  0
    3.4797   17.3916   -1.8421 H   0  0  0  0  0  0  0  0  0  0  0  0
    3.1110   15.9123   -2.7920 H   0  0  0  0  0  0  0  0  0  0  0  0
    1.9585   17.2901   -2.7920 H   0  0  0  0  0  0  0  0  0  0  0  0
  1  2  1  0
  2  3  1  0
  3  4  1  0
  4  5  1  0
  5  6  1  0
  6  7  1  0
  7  8  1  0
  7  9  1  0
  2 10  1  0
 10 11  1  0
 11 12  1  0
 12 13  1  0
 13 14  1  1
 13 15  1  0
 15 16  1  0
 16 17  1  0
 17 18  2  0
 18 19  1  0
 19 20  1  0
 20 21  1  0
 21 22  1  0
 22 23  1  0
 22 24  1  0
 24 25  1  0
 24 26  1  0
 19 27  1  0
 27 28  1  6
 27 29  1  0
 29 30  1  0
 30 31  1  0
 31 32  1  6
  7  5  1  0
 31 10  1  0
 31 13  1  0
 27 15  1  0
 24 18  1  0
  1 33  1  0
  1 34  1  0
  1 35  1  0
  2 36  1  1
  3 37  1  0
  3 38  1  0
  4 39  1  0
  4 40  1  0
  5 41  1  1
  8 42  1  0
  8 43  1  0
  8 44  1  0
  9 45  1  0
  9 46  1  0
  9 47  1  0
 10 48  1  1
 11 49  1  0
 11 50  1  0
 12 51  1  0
 12 52  1  0
 14 53  1  0
 14 54  1  0
 14 55  1  0
 15 56  1  6
 16 57  1  0
 16 58  1  0
 17 59  1  0
 19 60  1  1
 20 61  1  0
 20 62  1  0
 21 63  1  0
 21 64  1  0
 22 65  1  1
 23 66  1  0
 25 67  1  0
 25 68  1  0
 25 69  1  0
 26 70  1  0
 26 71  1  0
 26 72  1  0
 28 73  1  0
 28 74  1  0
 28 75  1  0
 29 76  1  0
 29 77  1  0
 30 78  1  0
 30 79  1  0
 32 80  1  0
 32 81  1  0
 32 82  1  0
M  END
>  <meeko>  (3) 
{"is_sidechain": [false], "intermolecular_energy": 2.731, "internal_energy": -0.839}

$$$$
EPH_relaxed_0001_pdb2pqr_Repair_48_r2_0001_out
     RDKit          3D

 82 86  0  0  0  0  0  0  0  0999 V2000
    0.4470   18.4210    0.0240 C   0  0  0  0  0  0  0  0  0  0  0  0
    1.5280   17.3600   -0.2040 C   0  0  2  0  0  0  0  0  0  0  0  0
    2.7430   17.9240   -0.9690 C   0  0  0  0  0  0  0  0  0  0  0  0
    3.9800   18.1330   -0.0920 C   0  0  0  0  0  0  0  0  0  0  0  0
    3.6110   18.6030    1.2830 C   0  0  2  0  0  0  0  0  0  0  0  0
    3.8600   19.9940    1.5270 O   0  0  0  0  0  0  0  0  0  0  0  0
    4.6280   19.0660    2.3100 C   0  0  0  0  0  0  0  0  0  0  0  0
    6.0930   19.0800    2.0050 C   0  0  0  0  0  0  0  0  0  0  0  0
    4.2480   19.0380    3.7570 C   0  0  0  0  0  0  0  0  0  0  0  0
    0.9410   16.1740   -0.9600 C   0  0  1  0  0  0  0  0  0  0  0  0
    0.7870   16.4510   -2.4790 C   0  0  0  0  0  0  0  0  0  0  0  0
    1.0640   15.1110   -3.2080 C   0  0  0  0  0  0  0  0  0  0  0  0
    1.0400   14.0450   -2.0880 C   0  0  1  0  0  0  0  0  0  0  0  0
   -0.4740   13.7470   -1.8490 C   0  0  0  0  0  0  0  0  0  0  0  0
    1.8490   12.7360   -2.3620 C   0  0  2  0  0  0  0  0  0  0  0  0
    1.3590   11.9040   -3.5600 C   0  0  0  0  0  0  0  0  0  0  0  0
    0.3320   10.8690   -3.2410 C   0  0  0  0  0  0  0  0  0  0  0  0
    0.0310   10.4210   -2.0090 C   0  0  0  0  0  0  0  0  0  0  0  0
    0.8220   10.8940   -0.7830 C   0  0  1  0  0  0  0  0  0  0  0  0
    1.1930    9.6720    0.0980 C   0  0  0  0  0  0  0  0  0  0  0  0
   -0.0250    8.8340    0.4780 C   0  0  0  0  0  0  0  0  0  0  0  0
   -0.7520    8.3330   -0.7680 C   0  0  2  0  0  0  0  0  0  0  0  0
    0.0940    7.4040   -1.4530 O   0  0  0  0  0  0  0  0  0  0  0  0
   -1.1660    9.4760   -1.7360 C   0  0  0  0  0  0  0  0  0  0  0  0
   -2.3070   10.3080   -1.1010 C   0  0  0  0  0  0  0  0  0  0  0  0
   -1.7620    8.8260   -3.0140 C   0  0  0  0  0  0  0  0  0  0  0  0
    2.0710   11.8300   -1.0830 C   0  0  1  0  0  0  0  0  0  0  0  0
    3.3330   10.9600   -1.3660 C   0  0  0  0  0  0  0  0  0  0  0  0
    2.3970   12.6800    0.2020 C   0  0  0  0  0  0  0  0  0  0  0  0
    1.6530   14.0200    0.3560 C   0  0  0  0  0  0  0  0  0  0  0  0
    1.7400   14.8470   -0.9300 C   0  0  2  0  0  0  0  0  0  0  0  0
    3.2500   15.1800   -1.1840 C   0  0  0  0  0  0  0  0  0  0  0  0
    0.2984   18.5668    1.1041 H   0  0  0  0  0  0  0  0  0  0  0  0
    0.7623   19.3700   -0.4342 H   0  0  0  0  0  0  0  0  0  0  0  0
   -0.4960   18.0881   -0.4342 H   0  0  0  0  0  0  0  0  0  0  0  0
    1.8833   17.0318    0.7839 H   0  0  0  0  0  0  0  0  0  0  0  0
    3.0030   17.2212   -1.7742 H   0  0  0  0  0  0  0  0  0  0  0  0
    2.4504   18.9126   -1.3526 H   0  0  0  0  0  0  0  0  0  0  0  0
    4.5236   17.1803   -0.0093 H   0  0  0  0  0  0  0  0  0  0  0  0
    4.6073   18.9049   -0.5617 H   0  0  0  0  0  0  0  0  0  0  0  0
    2.7871   17.8761    1.3361 H   0  0  0  0  0  0  0  0  0  0  0  0
    6.6633   19.0854    2.9456 H   0  0  0  0  0  0  0  0  0  0  0  0
    6.3549   18.1843    1.4226 H   0  0  0  0  0  0  0  0  0  0  0  0
    6.3377   19.9805    1.4226 H   0  0  0  0  0  0  0  0  0  0  0  0
    5.1551   19.1048    4.3757 H   0  0  0  0  0  0  0  0  0  0  0  0
    3.5888   19.8900    3.9795 H   0  0  0  0  0  0  0  0  0  0  0  0
    3.7208   18.0986    3.9795 H   0  0  0  0  0  0  0  0  0  0  0  0
   -0.0058   16.0557   -0.4126 H   0  0  0  0  0  0  0  0  0  0  0  0
   -0.2332   16.7983   -2.6993 H   0  0  0  0  0  0  0  0  0  0  0  0
    1.4857   17.2331   -2.8108 H   0  0  0  0  0  0  0  0  0  0  0  0
    0.2830   14.9068   -3.9552 H   0  0  0  0  0  0  0  0  0  0  0  0
    2.0197   15.1223   -3.7525 H   0  0  0  0  0  0  0  0  0  0  0  0
   -0.6738   13.7077   -0.7680 H   0  0  0  0  0  0  0  0  0  0  0  0
   -1.0809   14.5429   -2.3053 H   0  0  0  0  0  0  0  0  0  0  0  0
   -0.7339   12.7805   -2.3053 H   0  0  0  0  0  0  0  0  0  0  0  0
    2.8355   13.1267   -2.6522 H   0  0  0  0  0  0  0  0  0  0  0  0
    0.9271   12.5946   -4.2993 H   0  0  0  0  0  0  0  0  0  0  0  0
    2.2383   11.3559   -3.9294 H   0  0  0  0  0  0  0  0  0  0  0  0
   -0.2257   10.4361   -4.0845 H   0  0  0  0  0  0  0  0  0  0  0  0
    0.1491   11.5640   -0.2277 H   0  0  0  0  0  0  0  0  0  0  0  0
    1.8983    9.0372   -0.4583 H   0  0  0  0  0  0  0  0  0  0  0  0
    1.6394   10.0537    1.0281 H   0  0  0  0  0  0  0  0  0  0  0  0
    0.3039    7.9704    1.0747 H   0  0  0  0  0  0  0  0  0  0  0  0
   -0.7161    9.4619    1.0595 H   0  0  0  0  0  0  0  0  0  0  0  0
   -1.6833    7.8510   -0.4358 H   0  0  0  0  0  0  0  0  0  0  0  0
    0.1290    7.6720   -2.3870 H   0  0  0  0  0  0  0  0  0  0  0  0
   -2.2335   10.2544   -0.0048 H   0  0  0  0  0  0  0  0  0  0  0  0
   -2.2199   11.3560   -1.4236 H   0  0  0  0  0  0  0  0  0  0  0  0
   -3.2782    9.9046   -1.4236 H   0  0  0  0  0  0  0  0  0  0  0  0
   -2.4796    8.0434   -2.7268 H   0  0  0  0  0  0  0  0  0  0  0  0
   -2.2763    9.5941   -3.6103 H   0  0  0  0  0  0  0  0  0  0  0  0
   -0.9523    8.3801   -3.6103 H   0  0  0  0  0  0  0  0  0  0  0  0
    3.7849   10.6485   -0.4127 H   0  0  0  0  0  0  0  0  0  0  0  0
    3.0426   10.0693   -1.9425 H   0  0  0  0  0  0  0  0  0  0  0  0
    4.0621   11.5482   -1.9425 H   0  0  0  0  0  0  0  0  0  0  0  0
    2.1552   12.0624    1.0796 H   0  0  0  0  0  0  0  0  0  0  0  0
    3.4591   12.9500    0.1065 H   0  0  0  0  0  0  0  0  0  0  0  0
    0.5957   13.8202    0.5844 H   0  0  0  0  0  0  0  0  0  0  0  0
    2.1224   14.5898    1.1715 H   0  0  0  0  0  0  0  0  0  0  0  0
    3.7675   15.2941   -0.2201 H   0  0  0  0  0  0  0  0  0  0  0  0
    3.7147   14.3627   -1.7551 H   0  0  0  0  0  0  0  0  0  0  0  0
    3.3278   16.1169   -1.7551 H   0  0  0  0  0  0  0  0  0  0  0  0
  1  2  1  0
  2  3  1  0
  3  4  1  0
  4  5  1  0
  5  6  1  0
  6  7  1  0
  7  8  1  0
  7  9  1  0
  2 10  1  0
 10 11  1  0
 11 12  1  0
 12 13  1  0
 13 14  1  1
 13 15  1  0
 15 16  1  0
 16 17  1  0
 17 18  2  0
 18 19  1  0
 19 20  1  0
 20 21  1  0
 21 22  1  0
 22 23  1  0
 22 24  1  0
 24 25  1  0
 24 26  1  0
 19 27  1  0
 27 28  1  6
 27 29  1  0
 29 30  1  0
 30 31  1  0
 31 32  1  6
  7  5  1  0
 31 10  1  0
 31 13  1  0
 27 15  1  0
 24 18  1  0
  1 33  1  0
  1 34  1  0
  1 35  1  0
  2 36  1  1
  3 37  1  0
  3 38  1  0
  4 39  1  0
  4 40  1  0
  5 41  1  1
  8 42  1  0
  8 43  1  0
  8 44  1  0
  9 45  1  0
  9 46  1  0
  9 47  1  0
 10 48  1  1
 11 49  1  0
 11 50  1  0
 12 51  1  0
 12 52  1  0
 14 53  1  0
 14 54  1  0
 14 55  1  0
 15 56  1  6
 16 57  1  0
 16 58  1  0
 17 59  1  0
 19 60  1  1
 20 61  1  0
 20 62  1  0
 21 63  1  0
 21 64  1  0
 22 65  1  1
 23 66  1  0
 25 67  1  0
 25 68  1  0
 25 69  1  0
 26 70  1  0
 26 71  1  0
 26 72  1  0
 28 73  1  0
 28 74  1  0
 28 75  1  0
 29 76  1  0
 29 77  1  0
 30 78  1  0
 30 79  1  0
 32 80  1  0
 32 81  1  0
 32 82  1  0
M  END
>  <meeko>  (4) 
{"is_sidechain": [false], "intermolecular_energy": 2.731, "internal_energy": -0.839}

$$$$
EPH_relaxed_0001_pdb2pqr_Repair_48_r2_0001_out
     RDKit          3D

 82 86  0  0  0  0  0  0  0  0999 V2000
    2.3370   18.1550   -2.6570 C   0  0  0  0  0  0  0  0  0  0  0  0
    1.0760   17.7320   -1.8990 C   0  0  2  0  0  0  0  0  0  0  0  0
    1.2810   17.7600   -0.3710 C   0  0  0  0  0  0  0  0  0  0  0  0
    0.9230   19.1020    0.2740 C   0  0  0  0  0  0  0  0  0  0  0  0
   -0.5350   19.1840    0.6100 C   0  0  2  0  0  0  0  0  0  0  0  0
   -1.3710   18.2840   -0.1280 O   0  0  0  0  0  0  0  0  0  0  0  0
   -1.5900   19.6850   -0.3580 C   0  0  0  0  0  0  0  0  0  0  0  0
   -1.2300   20.1380   -1.7380 C   0  0  0  0  0  0  0  0  0  0  0  0
   -2.8850   20.1920    0.1940 C   0  0  0  0  0  0  0  0  0  0  0  0
    0.6460   16.3390   -2.3420 C   0  0  1  0  0  0  0  0  0  0  0  0
    0.7700   16.1340   -3.8750 C   0  0  0  0  0  0  0  0  0  0  0  0
    1.1850   14.6570   -4.0970 C   0  0  0  0  0  0  0  0  0  0  0  0
    0.9640   13.9790   -2.7240 C   0  0  1  0  0  0  0  0  0  0  0  0
   -0.5660   13.6730   -2.6700 C   0  0  0  0  0  0  0  0  0  0  0  0
    1.8180   12.7020   -2.4390 C   0  0  2  0  0  0  0  0  0  0  0  0
    1.5620   11.5190   -3.3890 C   0  0  0  0  0  0  0  0  0  0  0  0
    0.5010   10.5650   -2.9480 C   0  0  0  0  0  0  0  0  0  0  0  0
   -0.0180   10.4920   -1.7080 C   0  0  0  0  0  0  0  0  0  0  0  0
    0.5320   11.3610   -0.5700 C   0  0  1  0  0  0  0  0  0  0  0  0
    0.7430   10.4870    0.6940 C   0  0  0  0  0  0  0  0  0  0  0  0
   -0.5170    9.7280    1.0970 C   0  0  0  0  0  0  0  0  0  0  0  0
   -1.0000    8.8310   -0.0390 C   0  0  2  0  0  0  0  0  0  0  0  0
   -0.0370    7.7940   -0.2490 O   0  0  0  0  0  0  0  0  0  0  0  0
   -1.2380    9.6000   -1.3690 C   0  0  0  0  0  0  0  0  0  0  0  0
   -2.4820   10.5120   -1.2270 C   0  0  0  0  0  0  0  0  0  0  0  0
   -1.5860    8.5590   -2.4670 C   0  0  0  0  0  0  0  0  0  0  0  0
    1.8080   12.2400   -0.9250 C   0  0  1  0  0  0  0  0  0  0  0  0
    3.1070   11.4060   -0.7050 C   0  0  0  0  0  0  0  0  0  0  0  0
    1.8880   13.4560    0.0720 C   0  0  0  0  0  0  0  0  0  0  0  0
    1.1190   14.7310   -0.3250 C   0  0  0  0  0  0  0  0  0  0  0  0
    1.4340   15.1350   -1.7680 C   0  0  2  0  0  0  0  0  0  0  0  0
    2.9630   15.4700   -1.8480 C   0  0  0  0  0  0  0  0  0  0  0  0
    3.1259   18.4196   -1.9375 H   0  0  0  0  0  0  0  0  0  0  0  0
    2.6812   17.3231   -3.2891 H   0  0  0  0  0  0  0  0  0  0  0  0
    2.1100   19.0262   -3.2891 H   0  0  0  0  0  0  0  0  0  0  0  0
    0.2856   18.4583   -2.1393 H   0  0  0  0  0  0  0  0  0  0  0  0
    0.6496   16.9794    0.0784 H   0  0  0  0  0  0  0  0  0  0  0  0
    2.3523   17.5909   -0.1874 H   0  0  0  0  0  0  0  0  0  0  0  0
    1.5089   19.2213    1.1973 H   0  0  0  0  0  0  0  0  0  0  0  0
    1.1545   19.9010   -0.4458 H   0  0  0  0  0  0  0  0  0  0  0  0
   -0.3036   19.4506    1.6518 H   0  0  0  0  0  0  0  0  0  0  0  0
   -0.5467   20.9978   -1.6751 H   0  0  0  0  0  0  0  0  0  0  0  0
   -0.7362   19.3158   -2.2767 H   0  0  0  0  0  0  0  0  0  0  0  0
   -2.1425   20.4334   -2.2767 H   0  0  0  0  0  0  0  0  0  0  0  0
   -2.8461   20.1768    1.2932 H   0  0  0  0  0  0  0  0  0  0  0  0
   -3.0531   21.2223   -0.1527 H   0  0  0  0  0  0  0  0  0  0  0  0
   -3.7079   19.5497   -0.1527 H   0  0  0  0  0  0  0  0  0  0  0  0
   -0.3839   16.3332   -1.9556 H   0  0  0  0  0  0  0  0  0  0  0  0
   -0.1954   16.3336   -4.3631 H   0  0  0  0  0  0  0  0  0  0  0  0
    1.5122   16.8217   -4.3065 H   0  0  0  0  0  0  0  0  0  0  0  0
    0.5552   14.1883   -4.8674 H   0  0  0  0  0  0  0  0  0  0  0  0
    2.2240   14.5635   -4.4460 H   0  0  0  0  0  0  0  0  0  0  0  0
   -0.8902   13.6082   -1.6208 H   0  0  0  0  0  0  0  0  0  0  0  0
   -1.1191   14.4783   -3.1756 H   0  0  0  0  0  0  0  0  0  0  0  0
   -0.7668   12.7169   -3.1756 H   0  0  0  0  0  0  0  0  0  0  0  0
    2.8385   13.0473   -2.6612 H   0  0  0  0  0  0  0  0  0  0  0  0
    1.2675   11.9263   -4.3675 H   0  0  0  0  0  0  0  0  0  0  0  0
    2.4981   10.9420   -3.4158 H   0  0  0  0  0  0  0  0  0  0  0  0
    0.1108    9.8630   -3.6996 H   0  0  0  0  0  0  0  0  0  0  0  0
   -0.2351   12.1239   -0.3712 H   0  0  0  0  0  0  0  0  0  0  0  0
    1.5428    9.7598    0.4904 H   0  0  0  0  0  0  0  0  0  0  0  0
    1.0082   11.1585    1.5239 H   0  0  0  0  0  0  0  0  0  0  0  0
   -0.2968    9.1066    1.9776 H   0  0  0  0  0  0  0  0  0  0  0  0
   -1.3072   10.4573    1.3288 H   0  0  0  0  0  0  0  0  0  0  0  0
   -1.9731    8.4149    0.2609 H   0  0  0  0  0  0  0  0  0  0  0  0
    0.4110    7.9750   -1.0920 H   0  0  0  0  0  0  0  0  0  0  0  0
   -2.6998   10.6717   -0.1607 H   0  0  0  0  0  0  0  0  0  0  0  0
   -2.2838   11.4803   -1.7097 H   0  0  0  0  0  0  0  0  0  0  0  0
   -3.3458   10.0316   -1.7097 H   0  0  0  0  0  0  0  0  0  0  0  0
   -1.9007    7.6175   -1.9931 H   0  0  0  0  0  0  0  0  0  0  0  0
   -2.4037    8.9457   -3.0929 H   0  0  0  0  0  0  0  0  0  0  0  0
   -0.7001    8.3762   -3.0929 H   0  0  0  0  0  0  0  0  0  0  0  0
    3.2893   11.2889    0.3734 H   0  0  0  0  0  0  0  0  0  0  0  0
    2.9888   10.4146   -1.1666 H   0  0  0  0  0  0  0  0  0  0  0  0
    3.9593   11.9261   -1.1666 H   0  0  0  0  0  0  0  0  0  0  0  0
    1.4939   13.1179    1.0417 H   0  0  0  0  0  0  0  0  0  0  0  0
    2.9478   13.7504    0.0828 H   0  0  0  0  0  0  0  0  0  0  0  0
    0.0391   14.5435   -0.2315 H   0  0  0  0  0  0  0  0  0  0  0  0
    1.4275   15.5486    0.3431 H   0  0  0  0  0  0  0  0  0  0  0  0
    3.3724   15.5597   -0.8310 H   0  0  0  0  0  0  0  0  0  0  0  0
    3.4871   14.6654   -2.3846 H   0  0  0  0  0  0  0  0  0  0  0  0
    3.1026   16.4200   -2.3846 H   0  0  0  0  0  0  0  0  0  0  0  0
  1  2  1  0
  2  3  1  0
  3  4  1  0
  4  5  1  0
  5  6  1  0
  6  7  1  0
  7  8  1  0
  7  9  1  0
  2 10  1  0
 10 11  1  0
 11 12  1  0
 12 13  1  0
 13 14  1  1
 13 15  1  0
 15 16  1  0
 16 17  1  0
 17 18  2  0
 18 19  1  0
 19 20  1  0
 20 21  1  0
 21 22  1  0
 22 23  1  0
 22 24  1  0
 24 25  1  0
 24 26  1  0
 19 27  1  0
 27 28  1  6
 27 29  1  0
 29 30  1  0
 30 31  1  0
 31 32  1  1
  7  5  1  0
 31 10  1  0
 31 13  1  0
 27 15  1  0
 24 18  1  0
  1 33  1  0
  1 34  1  0
  1 35  1  0
  2 36  1  1
  3 37  1  0
  3 38  1  0
  4 39  1  0
  4 40  1  0
  5 41  1  1
  8 42  1  0
  8 43  1  0
  8 44  1  0
  9 45  1  0
  9 46  1  0
  9 47  1  0
 10 48  1  1
 11 49  1  0
 11 50  1  0
 12 51  1  0
 12 52  1  0
 14 53  1  0
 14 54  1  0
 14 55  1  0
 15 56  1  6
 16 57  1  0
 16 58  1  0
 17 59  1  0
 19 60  1  1
 20 61  1  0
 20 62  1  0
 21 63  1  0
 21 64  1  0
 22 65  1  1
 23 66  1  0
 25 67  1  0
 25 68  1  0
 25 69  1  0
 26 70  1  0
 26 71  1  0
 26 72  1  0
 28 73  1  0
 28 74  1  0
 28 75  1  0
 29 76  1  0
 29 77  1  0
 30 78  1  0
 30 79  1  0
 32 80  1  0
 32 81  1  0
 32 82  1  0
M  END
>  <meeko>  (5) 
{"is_sidechain": [false], "intermolecular_energy": 2.731, "internal_energy": -0.839}

$$$$
EPH_relaxed_0001_pdb2pqr_Repair_48_r2_0001_out
     RDKit          3D

 82 86  0  0  0  0  0  0  0  0999 V2000
    3.6240   17.9960    0.7690 C   0  0  0  0  0  0  0  0  0  0  0  0
    2.6980   18.3420   -0.4010 C   0  0  2  0  0  0  0  0  0  0  0  0
    1.9590   19.6780   -0.1810 C   0  0  0  0  0  0  0  0  0  0  0  0
    0.9160   19.6270    0.9380 C   0  0  0  0  0  0  0  0  0  0  0  0
   -0.4050   20.1770    0.4900 C   0  0  2  0  0  0  0  0  0  0  0  0
   -1.4240   20.1820    1.4980 O   0  0  0  0  0  0  0  0  0  0  0  0
   -1.6610   19.3360    0.3610 C   0  0  0  0  0  0  0  0  0  0  0  0
   -1.6570   17.8740    0.6790 C   0  0  0  0  0  0  0  0  0  0  0  0
   -2.7580   19.8230   -0.5330 C   0  0  0  0  0  0  0  0  0  0  0  0
    1.6900   17.2190   -0.6160 C   0  0  1  0  0  0  0  0  0  0  0  0
    0.4820   17.6590   -1.4850 C   0  0  0  0  0  0  0  0  0  0  0  0
    0.0720   16.4290   -2.3350 C   0  0  0  0  0  0  0  0  0  0  0  0
    0.8300   15.2420   -1.6950 C   0  0  1  0  0  0  0  0  0  0  0  0
   -0.0330   14.8340   -0.4600 C   0  0  0  0  0  0  0  0  0  0  0  0
    1.1150   14.0200   -2.6290 C   0  0  2  0  0  0  0  0  0  0  0  0
   -0.1360   13.3060   -3.1690 C   0  0  0  0  0  0  0  0  0  0  0  0
   -0.6440   12.1840   -2.3250 C   0  0  0  0  0  0  0  0  0  0  0  0
    0.0370   11.5810   -1.3320 C   0  0  0  0  0  0  0  0  0  0  0  0
    1.4960   11.9550   -1.0380 C   0  0  1  0  0  0  0  0  0  0  0  0
    2.3370   10.6630   -0.8670 C   0  0  0  0  0  0  0  0  0  0  0  0
    1.7530    9.7200    0.1810 C   0  0  0  0  0  0  0  0  0  0  0  0
    0.3230    9.3250   -0.1770 C   0  0  2  0  0  0  0  0  0  0  0  0
    0.3480    8.5300   -1.3670 O   0  0  0  0  0  0  0  0  0  0  0  0
   -0.6160   10.5460   -0.3840 C   0  0  0  0  0  0  0  0  0  0  0  0
   -0.8830   11.2340    0.9770 C   0  0  0  0  0  0  0  0  0  0  0  0
   -1.9890   10.0140   -0.8780 C   0  0  0  0  0  0  0  0  0  0  0  0
    2.1630   12.9890   -2.0440 C   0  0  1  0  0  0  0  0  0  0  0  0
    2.7680   12.2290   -3.2640 C   0  0  0  0  0  0  0  0  0  0  0  0
    3.3670   13.7030   -1.3240 C   0  0  0  0  0  0  0  0  0  0  0  0
    3.0390   14.9720   -0.5150 C   0  0  0  0  0  0  0  0  0  0  0  0
    2.1910   15.9440   -1.3400 C   0  0  2  0  0  0  0  0  0  0  0  0
    3.0410   16.3890   -2.5790 C   0  0  0  0  0  0  0  0  0  0  0  0
    3.1036   18.1905    1.7184 H   0  0  0  0  0  0  0  0  0  0  0  0
    3.9024   16.9332    0.7144 H   0  0  0  0  0  0  0  0  0  0  0  0
    4.5311   18.6159    0.7144 H   0  0  0  0  0  0  0  0  0  0  0  0
    3.3255   18.4550   -1.2974 H   0  0  0  0  0  0  0  0  0  0  0  0
    2.7023   20.4485    0.0718 H   0  0  0  0  0  0  0  0  0  0  0  0
    1.4201   19.9046   -1.1128 H   0  0  0  0  0  0  0  0  0  0  0  0
    0.7793   18.5812    1.2506 H   0  0  0  0  0  0  0  0  0  0  0  0
    1.2788   20.2438    1.7734 H   0  0  0  0  0  0  0  0  0  0  0  0
    0.0925   20.8710   -0.2035 H   0  0  0  0  0  0  0  0  0  0  0  0
   -1.6566   17.7361    1.7703 H   0  0  0  0  0  0  0  0  0  0  0  0
   -2.5539   17.4030    0.2502 H   0  0  0  0  0  0  0  0  0  0  0  0
   -0.7576   17.4080    0.2502 H   0  0  0  0  0  0  0  0  0  0  0  0
   -3.5930   20.1937    0.0797 H   0  0  0  0  0  0  0  0  0  0  0  0
   -2.3792   20.6375   -1.1679 H   0  0  0  0  0  0  0  0  0  0  0  0
   -3.1081   18.9957   -1.1679 H   0  0  0  0  0  0  0  0  0  0  0  0
    1.4464   16.9858    0.4310 H   0  0  0  0  0  0  0  0  0  0  0  0
   -0.3540   17.9707   -0.8417 H   0  0  0  0  0  0  0  0  0  0  0  0
    0.7466   18.5124   -2.1266 H   0  0  0  0  0  0  0  0  0  0  0  0
   -1.0150   16.2677   -2.2854 H   0  0  0  0  0  0  0  0  0  0  0  0
    0.3190   16.5565   -3.3993 H   0  0  0  0  0  0  0  0  0  0  0  0
    0.5061   15.0889    0.4643 H   0  0  0  0  0  0  0  0  0  0  0  0
   -0.9905   15.3748   -0.4870 H   0  0  0  0  0  0  0  0  0  0  0  0
   -0.2228   13.7508   -0.4870 H   0  0  0  0  0  0  0  0  0  0  0  0
    1.5872   14.4943   -3.5020 H   0  0  0  0  0  0  0  0  0  0  0  0
   -0.9392   14.0517   -3.2625 H   0  0  0  0  0  0  0  0  0  0  0  0
    0.1606   12.8556   -4.1277 H   0  0  0  0  0  0  0  0  0  0  0  0
   -1.6608   11.8190   -2.5319 H   0  0  0  0  0  0  0  0  0  0  0  0
    1.4813   12.5185   -0.0934 H   0  0  0  0  0  0  0  0  0  0  0  0
    2.3758   10.1370   -1.8323 H   0  0  0  0  0  0  0  0  0  0  0  0
    3.3403   10.9598   -0.5275 H   0  0  0  0  0  0  0  0  0  0  0  0
    2.3739    8.8136    0.2356 H   0  0  0  0  0  0  0  0  0  0  0  0
    1.7417   10.2375    1.1516 H   0  0  0  0  0  0  0  0  0  0  0  0
   -0.0843    8.7563    0.6719 H   0  0  0  0  0  0  0  0  0  0  0  0
    0.8310    7.7110   -1.1630 H   0  0  0  0  0  0  0  0  0  0  0  0
   -0.6164   10.5470    1.7937 H   0  0  0  0  0  0  0  0  0  0  0  0
   -0.2739   12.1468    1.0522 H   0  0  0  0  0  0  0  0  0  0  0  0
   -1.9485   11.4970    1.0522 H   0  0  0  0  0  0  0  0  0  0  0  0
   -2.6207    9.7692   -0.0114 H   0  0  0  0  0  0  0  0  0  0  0  0
   -2.4839   10.7855   -1.4862 H   0  0  0  0  0  0  0  0  0  0  0  0
   -1.8349    9.1105   -1.4862 H   0  0  0  0  0  0  0  0  0  0  0  0
    3.4155   11.4156   -2.9048 H   0  0  0  0  0  0  0  0  0  0  0  0
    1.9549   11.8083   -3.8738 H   0  0  0  0  0  0  0  0  0  0  0  0
    3.3603   12.9271   -3.8738 H   0  0  0  0  0  0  0  0  0  0  0  0
    3.8202   12.9763   -0.6337 H   0  0  0  0  0  0  0  0  0  0  0  0
    4.0275   14.0420   -2.1357 H   0  0  0  0  0  0  0  0  0  0  0  0
    2.4823   14.6878    0.3902 H   0  0  0  0  0  0  0  0  0  0  0  0
    3.9822   15.4703   -0.2465 H   0  0  0  0  0  0  0  0  0  0  0  0
    3.9663   16.8734   -2.2339 H   0  0  0  0  0  0  0  0  0  0  0  0
    3.2932   15.5073   -3.1864 H   0  0  0  0  0  0  0  0  0  0  0  0
    2.4601   17.0987   -3.1864 H   0  0  0  0  0  0  0  0  0  0  0  0
  1  2  1  0
  2  3  1  0
  3  4  1  0
  4  5  1  0
  5  6  1  0
  6  7  1  0
  7  8  1  0
  7  9  1  0
  2 10  1  0
 10 11  1  0
 11 12  1  0
 12 13  1  0
 13 14  1  1
 13 15  1  0
 15 16  1  0
 16 17  1  0
 17 18  2  0
 18 19  1  0
 19 20  1  0
 20 21  1  0
 21 22  1  0
 22 23  1  0
 22 24  1  0
 24 25  1  0
 24 26  1  0
 19 27  1  0
 27 28  1  6
 27 29  1  0
 29 30  1  0
 30 31  1  0
 31 32  1  6
  7  5  1  0
 31 10  1  0
 31 13  1  0
 27 15  1  0
 24 18  1  0
  1 33  1  0
  1 34  1  0
  1 35  1  0
  2 36  1  6
  3 37  1  0
  3 38  1  0
  4 39  1  0
  4 40  1  0
  5 41  1  6
  8 42  1  0
  8 43  1  0
  8 44  1  0
  9 45  1  0
  9 46  1  0
  9 47  1  0
 10 48  1  1
 11 49  1  0
 11 50  1  0
 12 51  1  0
 12 52  1  0
 14 53  1  0
 14 54  1  0
 14 55  1  0
 15 56  1  6
 16 57  1  0
 16 58  1  0
 17 59  1  0
 19 60  1  1
 20 61  1  0
 20 62  1  0
 21 63  1  0
 21 64  1  0
 22 65  1  1
 23 66  1  0
 25 67  1  0
 25 68  1  0
 25 69  1  0
 26 70  1  0
 26 71  1  0
 26 72  1  0
 28 73  1  0
 28 74  1  0
 28 75  1  0
 29 76  1  0
 29 77  1  0
 30 78  1  0
 30 79  1  0
 32 80  1  0
 32 81  1  0
 32 82  1  0
M  END
>  <meeko>  (6) 
{"is_sidechain": [false], "intermolecular_energy": 2.731, "internal_energy": -0.839}

$$$$
EPH_relaxed_0001_pdb2pqr_Repair_48_r2_0001_out
     RDKit          3D

 82 86  0  0  0  0  0  0  0  0999 V2000
   -0.9140   19.7270   -1.7850 C   0  0  0  0  0  0  0  0  0  0  0  0
    0.0920   19.1330   -0.7950 C   0  0  2  0  0  0  0  0  0  0  0  0
    1.1560   20.1620   -0.3620 C   0  0  0  0  0  0  0  0  0  0  0  0
    1.6600   19.9610    1.0700 C   0  0  0  0  0  0  0  0  0  0  0  0
    3.1500   19.8120    1.1170 C   0  0  2  0  0  0  0  0  0  0  0  0
    3.6120   18.6160    1.7590 O   0  0  0  0  0  0  0  0  0  0  0  0
    3.9540   19.8540    2.4030 C   0  0  0  0  0  0  0  0  0  0  0  0
    3.2930   20.0520    3.7310 C   0  0  0  0  0  0  0  0  0  0  0  0
    5.4110   20.1910    2.3250 C   0  0  0  0  0  0  0  0  0  0  0  0
    0.7670   17.9120   -1.4090 C   0  0  1  0  0  0  0  0  0  0  0  0
    2.2760   18.1430   -1.6910 C   0  0  0  0  0  0  0  0  0  0  0  0
    2.9900   16.7900   -1.4380 C   0  0  0  0  0  0  0  0  0  0  0  0
    1.8440   15.7560   -1.3450 C   0  0  1  0  0  0  0  0  0  0  0  0
    1.4770   15.4290   -2.8260 C   0  0  0  0  0  0  0  0  0  0  0  0
    2.1480   14.4590   -0.5260 C   0  0  2  0  0  0  0  0  0  0  0  0
    3.2820   13.5830   -1.0880 C   0  0  0  0  0  0  0  0  0  0  0  0
    2.8540   12.5330   -2.0590 C   0  0  0  0  0  0  0  0  0  0  0  0
    1.5900   12.1120   -2.2490 C   0  0  0  0  0  0  0  0  0  0  0  0
    0.4440   12.6380   -1.3750 C   0  0  1  0  0  0  0  0  0  0  0  0
   -0.4350   11.4500   -0.9030 C   0  0  0  0  0  0  0  0  0  0  0  0
   -0.9330   10.5940   -2.0640 C   0  0  0  0  0  0  0  0  0  0  0  0
    0.2370   10.0410   -2.8750 C   0  0  2  0  0  0  0  0  0  0  0  0
    0.9640    9.1150   -2.0620 O   0  0  0  0  0  0  0  0  0  0  0  0
    1.1980   11.1460   -3.3950 C   0  0  0  0  0  0  0  0  0  0  0  0
    0.4950   11.9680   -4.5040 C   0  0  0  0  0  0  0  0  0  0  0  0
    2.4070   10.4470   -4.0730 C   0  0  0  0  0  0  0  0  0  0  0  0
    0.8680   13.5960   -0.1790 C   0  0  1  0  0  0  0  0  0  0  0  0
    1.2300   12.7480    1.0790 C   0  0  0  0  0  0  0  0  0  0  0  0
   -0.3640   14.4880    0.2260 C   0  0  0  0  0  0  0  0  0  0  0  0
   -0.5430   15.8140   -0.5390 C   0  0  0  0  0  0  0  0  0  0  0  0
    0.7680   16.6060   -0.5760 C   0  0  2  0  0  0  0  0  0  0  0  0
    1.1510   16.9690    0.8990 C   0  0  0  0  0  0  0  0  0  0  0  0
   -1.7322   20.2101   -1.2308 H   0  0  0  0  0  0  0  0  0  0  0  0
   -0.4096   20.4722   -2.4177 H   0  0  0  0  0  0  0  0  0  0  0  0
   -1.3229   18.9254   -2.4177 H   0  0  0  0  0  0  0  0  0  0  0  0
   -0.4654   18.8353    0.1054 H   0  0  0  0  0  0  0  0  0  0  0  0
    2.0137   20.0835   -1.0462 H   0  0  0  0  0  0  0  0  0  0  0  0
    0.6790   21.1525   -0.3988 H   0  0  0  0  0  0  0  0  0  0  0  0
    1.3695   20.8320    1.6758 H   0  0  0  0  0  0  0  0  0  0  0  0
    1.2104   19.0383    1.4655 H   0  0  0  0  0  0  0  0  0  0  0  0
    3.2577   20.3464    0.1616 H   0  0  0  0  0  0  0  0  0  0  0  0
    4.0126   19.8364    4.5345 H   0  0  0  0  0  0  0  0  0  0  0  0
    2.9480   21.0929    3.8173 H   0  0  0  0  0  0  0  0  0  0  0  0
    2.4325   19.3722    3.8173 H   0  0  0  0  0  0  0  0  0  0  0  0
    5.8204   20.2857    3.3416 H   0  0  0  0  0  0  0  0  0  0  0  0
    5.9438   19.3924    1.7881 H   0  0  0  0  0  0  0  0  0  0  0  0
    5.5390   21.1425    1.7881 H   0  0  0  0  0  0  0  0  0  0  0  0
    0.1414   17.7860   -2.3050 H   0  0  0  0  0  0  0  0  0  0  0  0
    2.4224   18.4594   -2.7343 H   0  0  0  0  0  0  0  0  0  0  0  0
    2.6831   18.9322   -1.0418 H   0  0  0  0  0  0  0  0  0  0  0  0
    3.6665   16.5462   -2.2704 H   0  0  0  0  0  0  0  0  0  0  0  0
    3.6099   16.8088   -0.5295 H   0  0  0  0  0  0  0  0  0  0  0  0
    0.6559   14.6974   -2.8473 H   0  0  0  0  0  0  0  0  0  0  0  0
    1.1607   16.3501   -3.3373 H   0  0  0  0  0  0  0  0  0  0  0  0
    2.3557   15.0090   -3.3373 H   0  0  0  0  0  0  0  0  0  0  0  0
    2.5264   14.8637    0.4243 H   0  0  0  0  0  0  0  0  0  0  0  0
    4.0015   14.2424   -1.5954 H   0  0  0  0  0  0  0  0  0  0  0  0
    3.7078   13.0466   -0.2272 H   0  0  0  0  0  0  0  0  0  0  0  0
    3.6383   12.0636   -2.6711 H   0  0  0  0  0  0  0  0  0  0  0  0
   -0.1467   13.3068   -2.0183 H   0  0  0  0  0  0  0  0  0  0  0  0
    0.1600   10.8172   -0.2281 H   0  0  0  0  0  0  0  0  0  0  0  0
   -1.3160   11.8677   -0.3938 H   0  0  0  0  0  0  0  0  0  0  0  0
   -1.5233    9.7555   -1.6659 H   0  0  0  0  0  0  0  0  0  0  0  0
   -1.5517   11.2212   -2.7227 H   0  0  0  0  0  0  0  0  0  0  0  0
   -0.1819    9.5460   -3.7636 H   0  0  0  0  0  0  0  0  0  0  0  0
    0.6610    8.2200   -2.2940 H   0  0  0  0  0  0  0  0  0  0  0  0
   -0.1539   12.7268   -4.0424 H   0  0  0  0  0  0  0  0  0  0  0  0
    1.2524   12.4642   -5.1285 H   0  0  0  0  0  0  0  0  0  0  0  0
   -0.1127   11.2967   -5.1285 H   0  0  0  0  0  0  0  0  0  0  0  0
    3.0847   10.0552   -3.3002 H   0  0  0  0  0  0  0  0  0  0  0  0
    2.0470    9.6177   -4.6996 H   0  0  0  0  0  0  0  0  0  0  0  0
    2.9460   11.1728   -4.6996 H   0  0  0  0  0  0  0  0  0  0  0  0
    0.9867   13.3180    1.9878 H   0  0  0  0  0  0  0  0  0  0  0  0
    0.6533   11.8114    1.0682 H   0  0  0  0  0  0  0  0  0  0  0  0
    2.3053   12.5166    1.0682 H   0  0  0  0  0  0  0  0  0  0  0  0
   -1.2736   13.8891    0.0714 H   0  0  0  0  0  0  0  0  0  0  0  0
   -0.1768   14.7807    1.2697 H   0  0  0  0  0  0  0  0  0  0  0  0
   -0.8606   15.5952   -1.5692 H   0  0  0  0  0  0  0  0  0  0  0  0
   -1.3035   16.4177   -0.0221 H   0  0  0  0  0  0  0  0  0  0  0  0
    0.5319   16.3822    1.5936 H   0  0  0  0  0  0  0  0  0  0  0  0
    2.2128   16.7379    1.0696 H   0  0  0  0  0  0  0  0  0  0  0  0
    0.9772   18.0417    1.0696 H   0  0  0  0  0  0  0  0  0  0  0  0
  1  2  1  0
  2  3  1  0
  3  4  1  0
  4  5  1  0
  5  6  1  0
  6  7  1  0
  7  8  1  0
  7  9  1  0
  2 10  1  0
 10 11  1  0
 11 12  1  0
 12 13  1  0
 13 14  1  6
 13 15  1  0
 15 16  1  0
 16 17  1  0
 17 18  2  0
 18 19  1  0
 19 20  1  0
 20 21  1  0
 21 22  1  0
 22 23  1  0
 22 24  1  0
 24 25  1  0
 24 26  1  0
 19 27  1  0
 27 28  1  1
 27 29  1  0
 29 30  1  0
 30 31  1  0
 31 32  1  1
  7  5  1  0
 31 10  1  0
 31 13  1  0
 27 15  1  0
 24 18  1  0
  1 33  1  0
  1 34  1  0
  1 35  1  0
  2 36  1  1
  3 37  1  0
  3 38  1  0
  4 39  1  0
  4 40  1  0
  5 41  1  6
  8 42  1  0
  8 43  1  0
  8 44  1  0
  9 45  1  0
  9 46  1  0
  9 47  1  0
 10 48  1  6
 11 49  1  0
 11 50  1  0
 12 51  1  0
 12 52  1  0
 14 53  1  0
 14 54  1  0
 14 55  1  0
 15 56  1  1
 16 57  1  0
 16 58  1  0
 17 59  1  0
 19 60  1  6
 20 61  1  0
 20 62  1  0
 21 63  1  0
 21 64  1  0
 22 65  1  6
 23 66  1  0
 25 67  1  0
 25 68  1  0
 25 69  1  0
 26 70  1  0
 26 71  1  0
 26 72  1  0
 28 73  1  0
 28 74  1  0
 28 75  1  0
 29 76  1  0
 29 77  1  0
 30 78  1  0
 30 79  1  0
 32 80  1  0
 32 81  1  0
 32 82  1  0
M  END
>  <meeko>  (7) 
{"is_sidechain": [false], "intermolecular_energy": 2.731, "internal_energy": -0.839}

$$$$
EPH_relaxed_0001_pdb2pqr_Repair_48_r2_0001_out
     RDKit          3D

 82 86  0  0  0  0  0  0  0  0999 V2000
    0.4580    8.8080   -2.3760 C   0  0  0  0  0  0  0  0  0  0  0  0
    1.1950    9.9560   -3.0720 C   0  0  2  0  0  0  0  0  0  0  0  0
    2.6960    9.9810   -2.7190 C   0  0  0  0  0  0  0  0  0  0  0  0
    3.5750   10.6010   -3.8080 C   0  0  0  0  0  0  0  0  0  0  0  0
    4.9750   10.8330   -3.3260 C   0  0  2  0  0  0  0  0  0  0  0  0
    5.5790   12.0430   -3.8020 O   0  0  0  0  0  0  0  0  0  0  0  0
    6.1870   10.8160   -4.2380 C   0  0  0  0  0  0  0  0  0  0  0  0
    6.0550   10.5600   -5.7070 C   0  0  0  0  0  0  0  0  0  0  0  0
    7.5330   10.5630   -3.6340 C   0  0  0  0  0  0  0  0  0  0  0  0
    0.5520   11.2870   -2.7010 C   0  0  1  0  0  0  0  0  0  0  0  0
   -0.8240   11.1120   -2.0040 C   0  0  0  0  0  0  0  0  0  0  0  0
   -0.9430   12.2500   -0.9570 C   0  0  0  0  0  0  0  0  0  0  0  0
    0.2030   13.2270   -1.3110 C   0  0  1  0  0  0  0  0  0  0  0  0
   -0.3520   14.0840   -2.4920 C   0  0  0  0  0  0  0  0  0  0  0  0
    0.7310   14.1240   -0.1450 C   0  0  2  0  0  0  0  0  0  0  0  0
   -0.3020   15.0960    0.4500 C   0  0  0  0  0  0  0  0  0  0  0  0
   -0.3520   16.4440   -0.1890 C   0  0  0  0  0  0  0  0  0  0  0  0
    0.5860   16.9580   -1.0050 C   0  0  0  0  0  0  0  0  0  0  0  0
    1.8900   16.1990   -1.2830 C   0  0  1  0  0  0  0  0  0  0  0  0
    3.0930   17.1700   -1.1530 C   0  0  0  0  0  0  0  0  0  0  0  0
    2.9410   18.4090   -2.0300 C   0  0  0  0  0  0  0  0  0  0  0  0
    1.6630   19.1690   -1.6850 C   0  0  2  0  0  0  0  0  0  0  0  0
    1.7880   19.7060   -0.3650 O   0  0  0  0  0  0  0  0  0  0  0  0
    0.3850   18.2880   -1.7720 C   0  0  0  0  0  0  0  0  0  0  0  0
    0.0820   17.9550   -3.2530 C   0  0  0  0  0  0  0  0  0  0  0  0
   -0.8130   19.1350   -1.2640 C   0  0  0  0  0  0  0  0  0  0  0  0
    2.0990   14.8560   -0.4590 C   0  0  1  0  0  0  0  0  0  0  0  0
    2.7600   15.1730    0.9180 C   0  0  0  0  0  0  0  0  0  0  0  0
    3.1090   13.9290   -1.2330 C   0  0  0  0  0  0  0  0  0  0  0  0
    2.5120   12.9800   -2.2890 C   0  0  0  0  0  0  0  0  0  0  0  0
    1.3230   12.2010   -1.7170 C   0  0  2  0  0  0  0  0  0  0  0  0
    1.8550   11.3130   -0.5410 C   0  0  0  0  0  0  0  0  0  0  0  0
    0.5362    8.9298   -1.2856 H   0  0  0  0  0  0  0  0  0  0  0  0
   -0.6016    8.8201   -2.6713 H   0  0  0  0  0  0  0  0  0  0  0  0
    0.9100    7.8496   -2.6713 H   0  0  0  0  0  0  0  0  0  0  0  0
    1.1129    9.7922   -4.1566 H   0  0  0  0  0  0  0  0  0  0  0  0
    2.8256   10.5635   -1.7949 H   0  0  0  0  0  0  0  0  0  0  0  0
    3.0164    8.9349   -2.6048 H   0  0  0  0  0  0  0  0  0  0  0  0
    3.6038    9.9215   -4.6725 H   0  0  0  0  0  0  0  0  0  0  0  0
    3.1424   11.5737   -4.0849 H   0  0  0  0  0  0  0  0  0  0  0  0
    4.7586   10.3203   -2.3771 H   0  0  0  0  0  0  0  0  0  0  0  0
    5.5563    9.5928   -5.8673 H   0  0  0  0  0  0  0  0  0  0  0  0
    5.4576   11.3612   -6.1666 H   0  0  0  0  0  0  0  0  0  0  0  0
    7.0541   10.5380   -6.1666 H   0  0  0  0  0  0  0  0  0  0  0  0
    7.4514   10.5783   -2.5371 H   0  0  0  0  0  0  0  0  0  0  0  0
    7.9024    9.5797   -3.9605 H   0  0  0  0  0  0  0  0  0  0  0  0
    8.2343   11.3451   -3.9605 H   0  0  0  0  0  0  0  0  0  0  0  0
    0.5125   11.7552   -3.6956 H   0  0  0  0  0  0  0  0  0  0  0  0
   -1.6354   11.1903   -2.7425 H   0  0  0  0  0  0  0  0  0  0  0  0
   -0.9014   10.1248   -1.5250 H   0  0  0  0  0  0  0  0  0  0  0  0
   -1.9190   12.7509   -1.0371 H   0  0  0  0  0  0  0  0  0  0  0  0
   -0.8692   11.8768    0.0751 H   0  0  0  0  0  0  0  0  0  0  0  0
   -0.9088   14.9438   -2.0911 H   0  0  0  0  0  0  0  0  0  0  0  0
    0.4847   14.4442   -3.1085 H   0  0  0  0  0  0  0  0  0  0  0  0
   -1.0230   13.4678   -3.1085 H   0  0  0  0  0  0  0  0  0  0  0  0
    0.9367   13.3866    0.6449 H   0  0  0  0  0  0  0  0  0  0  0  0
   -1.2966   14.6365    0.3521 H   0  0  0  0  0  0  0  0  0  0  0  0
    0.0050   15.2650    1.4927 H   0  0  0  0  0  0  0  0  0  0  0  0
   -1.2304   17.0704    0.0255 H   0  0  0  0  0  0  0  0  0  0  0  0
    1.8147   15.8348   -2.3182 H   0  0  0  0  0  0  0  0  0  0  0  0
    3.1773   17.4888   -0.1036 H   0  0  0  0  0  0  0  0  0  0  0  0
    3.9934   16.6331   -1.4861 H   0  0  0  0  0  0  0  0  0  0  0  0
    3.8062   19.0697   -1.8725 H   0  0  0  0  0  0  0  0  0  0  0  0
    2.8865   18.0901   -3.0813 H   0  0  0  0  0  0  0  0  0  0  0  0
    1.5438   19.9699   -2.4296 H   0  0  0  0  0  0  0  0  0  0  0  0
    1.6030   18.9880    0.2640 H   0  0  0  0  0  0  0  0  0  0  0  0
   -0.6576   17.1422   -3.3022 H   0  0  0  0  0  0  0  0  0  0  0  0
   -0.3202   18.8475   -3.7546 H   0  0  0  0  0  0  0  0  0  0  0  0
    1.0084   17.6386   -3.7546 H   0  0  0  0  0  0  0  0  0  0  0  0
   -0.8188   19.1391   -0.1640 H   0  0  0  0  0  0  0  0  0  0  0  0
   -0.7160   20.1663   -1.6340 H   0  0  0  0  0  0  0  0  0  0  0  0
   -1.7529   18.6996   -1.6340 H   0  0  0  0  0  0  0  0  0  0  0  0
    2.0899   14.8517    1.7290 H   0  0  0  0  0  0  0  0  0  0  0  0
    3.7165   14.6356    0.9980 H   0  0  0  0  0  0  0  0  0  0  0  0
    2.9397   16.2553    0.9980 H   0  0  0  0  0  0  0  0  0  0  0  0
    3.8343   14.5801   -1.7429 H   0  0  0  0  0  0  0  0  0  0  0  0
    3.5407   13.2700   -0.4653 H   0  0  0  0  0  0  0  0  0  0  0  0
    2.1731   13.5706   -3.1529 H   0  0  0  0  0  0  0  0  0  0  0  0
    3.2877   12.2620   -2.5937 H   0  0  0  0  0  0  0  0  0  0  0  0
    1.5794   11.7730    0.4195 H   0  0  0  0  0  0  0  0  0  0  0  0
    1.4091   10.3097   -0.6084 H   0  0  0  0  0  0  0  0  0  0  0  0
    2.9500   11.2329   -0.6084 H   0  0  0  0  0  0  0  0  0  0  0  0
  1  2  1  0
  2  3  1  0
  3  4  1  0
  4  5  1  0
  5  6  1  0
  6  7  1  0
  7  8  1  0
  7  9  1  0
  2 10  1  0
 10 11  1  0
 11 12  1  0
 12 13  1  0
 13 14  1  6
 13 15  1  0
 15 16  1  0
 16 17  1  0
 17 18  2  0
 18 19  1  0
 19 20  1  0
 20 21  1  0
 21 22  1  0
 22 23  1  0
 22 24  1  0
 24 25  1  0
 24 26  1  0
 19 27  1  0
 27 28  1  1
 27 29  1  0
 29 30  1  0
 30 31  1  0
 31 32  1  1
  7  5  1  0
 31 10  1  0
 31 13  1  0
 27 15  1  0
 24 18  1  0
  1 33  1  0
  1 34  1  0
  1 35  1  0
  2 36  1  6
  3 37  1  0
  3 38  1  0
  4 39  1  0
  4 40  1  0
  5 41  1  1
  8 42  1  0
  8 43  1  0
  8 44  1  0
  9 45  1  0
  9 46  1  0
  9 47  1  0
 10 48  1  6
 11 49  1  0
 11 50  1  0
 12 51  1  0
 12 52  1  0
 14 53  1  0
 14 54  1  0
 14 55  1  0
 15 56  1  1
 16 57  1  0
 16 58  1  0
 17 59  1  0
 19 60  1  6
 20 61  1  0
 20 62  1  0
 21 63  1  0
 21 64  1  0
 22 65  1  6
 23 66  1  0
 25 67  1  0
 25 68  1  0
 25 69  1  0
 26 70  1  0
 26 71  1  0
 26 72  1  0
 28 73  1  0
 28 74  1  0
 28 75  1  0
 29 76  1  0
 29 77  1  0
 30 78  1  0
 30 79  1  0
 32 80  1  0
 32 81  1  0
 32 82  1  0
M  END
>  <meeko>  (8) 
{"is_sidechain": [false], "intermolecular_energy": 2.731, "internal_energy": -0.839}

$$$$
EPH_relaxed_0001_pdb2pqr_Repair_48_r2_0001_out
     RDKit          3D

 82 86  0  0  0  0  0  0  0  0999 V2000
    3.5490   18.4770   -2.5320 C   0  0  0  0  0  0  0  0  0  0  0  0
    2.2520   17.6870   -2.7300 C   0  0  2  0  0  0  0  0  0  0  0  0
    1.0100   18.4910   -2.2940 C   0  0  0  0  0  0  0  0  0  0  0  0
    1.1760   19.1950   -0.9440 C   0  0  0  0  0  0  0  0  0  0  0  0
   -0.0350   20.0040   -0.5890 C   0  0  2  0  0  0  0  0  0  0  0  0
   -0.2360   20.1940    0.8180 O   0  0  0  0  0  0  0  0  0  0  0  0
   -1.2420   19.4320    0.1310 C   0  0  0  0  0  0  0  0  0  0  0  0
   -1.2970   17.9930    0.5380 C   0  0  0  0  0  0  0  0  0  0  0  0
   -2.5540   20.1410    0.0040 C   0  0  0  0  0  0  0  0  0  0  0  0
    2.3200   16.3750   -1.9580 C   0  0  1  0  0  0  0  0  0  0  0  0
    2.6690   16.5800   -0.4600 C   0  0  0  0  0  0  0  0  0  0  0  0
    1.8900   15.4990    0.3330 C   0  0  0  0  0  0  0  0  0  0  0  0
    1.3890   14.5100   -0.7450 C   0  0  1  0  0  0  0  0  0  0  0  0
    2.6130   13.5890   -1.0450 C   0  0  0  0  0  0  0  0  0  0  0  0
    0.1160   13.6780   -0.3820 C   0  0  2  0  0  0  0  0  0  0  0  0
    0.2750   12.7340    0.8230 C   0  0  0  0  0  0  0  0  0  0  0  0
    0.7390   11.3540    0.4950 C   0  0  0  0  0  0  0  0  0  0  0  0
    0.7450   10.8020   -0.7330 C   0  0  0  0  0  0  0  0  0  0  0  0
    0.1590   11.5520   -1.9370 C   0  0  1  0  0  0  0  0  0  0  0  0
   -0.7500   10.5950   -2.7500 C   0  0  0  0  0  0  0  0  0  0  0  0
   -0.0340    9.3100   -3.1560 C   0  0  0  0  0  0  0  0  0  0  0  0
    0.4840    8.5640   -1.9290 C   0  0  2  0  0  0  0  0  0  0  0  0
   -0.6350    8.0980   -1.1680 O   0  0  0  0  0  0  0  0  0  0  0  0
    1.4040    9.4320   -1.0260 C   0  0  0  0  0  0  0  0  0  0  0  0
    2.7510    9.6850   -1.7480 C   0  0  0  0  0  0  0  0  0  0  0  0
    1.7410    8.6080    0.2450 C   0  0  0  0  0  0  0  0  0  0  0  0
   -0.5480   12.9380   -1.6120 C   0  0  1  0  0  0  0  0  0  0  0  0
   -2.0420   12.6970   -1.2340 C   0  0  0  0  0  0  0  0  0  0  0  0
   -0.5570   13.8270   -2.9120 C   0  0  0  0  0  0  0  0  0  0  0  0
    0.6780   14.7160   -3.1540 C   0  0  0  0  0  0  0  0  0  0  0  0
    1.0300   15.5180   -1.8970 C   0  0  2  0  0  0  0  0  0  0  0  0
   -0.1740   16.4700   -1.5840 C   0  0  0  0  0  0  0  0  0  0  0  0
    3.7450   18.5964   -1.4562 H   0  0  0  0  0  0  0  0  0  0  0  0
    4.3840   17.9340   -2.9988 H   0  0  0  0  0  0  0  0  0  0  0  0
    3.4496   19.4681   -2.9988 H   0  0  0  0  0  0  0  0  0  0  0  0
    2.1510   17.4808   -3.8058 H   0  0  0  0  0  0  0  0  0  0  0  0
    0.8028   19.2528   -3.0600 H   0  0  0  0  0  0  0  0  0  0  0  0
    0.1844   17.7727   -2.1830 H   0  0  0  0  0  0  0  0  0  0  0  0
    1.3396   18.4367   -0.1641 H   0  0  0  0  0  0  0  0  0  0  0  0
    2.0357   19.8774   -1.0161 H   0  0  0  0  0  0  0  0  0  0  0  0
    0.0616   20.5968   -1.5105 H   0  0  0  0  0  0  0  0  0  0  0  0
   -1.2997   17.9223    1.6357 H   0  0  0  0  0  0  0  0  0  0  0  0
   -2.2134   17.5338    0.1387 H   0  0  0  0  0  0  0  0  0  0  0  0
   -0.4184   17.4652    0.1387 H   0  0  0  0  0  0  0  0  0  0  0  0
   -2.9528   20.3565    1.0062 H   0  0  0  0  0  0  0  0  0  0  0  0
   -2.4097   21.0839   -0.5438 H   0  0  0  0  0  0  0  0  0  0  0  0
   -3.2637   19.5036   -0.5438 H   0  0  0  0  0  0  0  0  0  0  0  0
    3.0903   15.8550   -2.5464 H   0  0  0  0  0  0  0  0  0  0  0  0
    3.7510   16.4587   -0.3031 H   0  0  0  0  0  0  0  0  0  0  0  0
    2.3933   17.5908   -0.1250 H   0  0  0  0  0  0  0  0  0  0  0  0
    2.5520   14.9902    1.0492 H   0  0  0  0  0  0  0  0  0  0  0  0
    1.0655   15.9269    0.9221 H   0  0  0  0  0  0  0  0  0  0  0  0
    3.0598   13.2528   -0.0977 H   0  0  0  0  0  0  0  0  0  0  0  0
    2.2809   12.7149   -1.6244 H   0  0  0  0  0  0  0  0  0  0  0  0
    3.3609   14.1502   -1.6244 H   0  0  0  0  0  0  0  0  0  0  0  0
   -0.5903   14.4574   -0.0600 H   0  0  0  0  0  0  0  0  0  0  0  0
    1.0050   13.1831    1.5126 H   0  0  0  0  0  0  0  0  0  0  0  0
   -0.7298   12.6222    1.2565 H   0  0  0  0  0  0  0  0  0  0  0  0
    1.1072   10.7356    1.3268 H   0  0  0  0  0  0  0  0  0  0  0  0
    1.0175   11.8614   -2.5511 H   0  0  0  0  0  0  0  0  0  0  0  0
   -1.6239   10.3325   -2.1357 H   0  0  0  0  0  0  0  0  0  0  0  0
   -1.0446   11.1180   -3.6718 H   0  0  0  0  0  0  0  0  0  0  0  0
   -0.7370    8.6627   -3.7008 H   0  0  0  0  0  0  0  0  0  0  0  0
    0.8219    9.5716   -3.7955 H   0  0  0  0  0  0  0  0  0  0  0  0
    1.0989    7.7255   -2.2880 H   0  0  0  0  0  0  0  0  0  0  0  0
   -1.3240    8.7820   -1.2070 H   0  0  0  0  0  0  0  0  0  0  0  0
    3.5449    9.8341   -1.0013 H   0  0  0  0  0  0  0  0  0  0  0  0
    2.9981    8.8176   -2.3777 H   0  0  0  0  0  0  0  0  0  0  0  0
    2.6665   10.5830   -2.3777 H   0  0  0  0  0  0  0  0  0  0  0  0
    1.4991    9.1995    1.1403 H   0  0  0  0  0  0  0  0  0  0  0  0
    1.1501    7.6802    0.2478 H   0  0  0  0  0  0  0  0  0  0  0  0
    2.8127    8.3602    0.2478 H   0  0  0  0  0  0  0  0  0  0  0  0
   -2.1451   12.6804   -0.1390 H   0  0  0  0  0  0  0  0  0  0  0  0
   -2.6603   13.5070   -1.6482 H   0  0  0  0  0  0  0  0  0  0  0  0
   -2.3742   11.7337   -1.6482 H   0  0  0  0  0  0  0  0  0  0  0  0
   -0.6562   13.1528   -3.7755 H   0  0  0  0  0  0  0  0  0  0  0  0
   -1.3939   14.5277   -2.7758 H   0  0  0  0  0  0  0  0  0  0  0  0
    1.5326   14.0789   -3.4256 H   0  0  0  0  0  0  0  0  0  0  0  0
    0.4496   15.4204   -3.9674 H   0  0  0  0  0  0  0  0  0  0  0  0
   -0.2933   16.5643   -0.4946 H   0  0  0  0  0  0  0  0  0  0  0  0
    0.0200   17.4616   -2.0188 H   0  0  0  0  0  0  0  0  0  0  0  0
   -1.0942   16.0526   -2.0188 H   0  0  0  0  0  0  0  0  0  0  0  0
  1  2  1  0
  2  3  1  0
  3  4  1  0
  4  5  1  0
  5  6  1  0
  6  7  1  0
  7  8  1  0
  7  9  1  0
  2 10  1  0
 10 11  1  0
 11 12  1  0
 12 13  1  0
 13 14  1  6
 13 15  1  0
 15 16  1  0
 16 17  1  0
 17 18  2  0
 18 19  1  0
 19 20  1  0
 20 21  1  0
 21 22  1  0
 22 23  1  0
 22 24  1  0
 24 25  1  0
 24 26  1  0
 19 27  1  0
 27 28  1  1
 27 29  1  0
 29 30  1  0
 30 31  1  0
 31 32  1  1
  7  5  1  0
 31 10  1  0
 31 13  1  0
 27 15  1  0
 24 18  1  0
  1 33  1  0
  1 34  1  0
  1 35  1  0
  2 36  1  6
  3 37  1  0
  3 38  1  0
  4 39  1  0
  4 40  1  0
  5 41  1  6
  8 42  1  0
  8 43  1  0
  8 44  1  0
  9 45  1  0
  9 46  1  0
  9 47  1  0
 10 48  1  6
 11 49  1  0
 11 50  1  0
 12 51  1  0
 12 52  1  0
 14 53  1  0
 14 54  1  0
 14 55  1  0
 15 56  1  1
 16 57  1  0
 16 58  1  0
 17 59  1  0
 19 60  1  6
 20 61  1  0
 20 62  1  0
 21 63  1  0
 21 64  1  0
 22 65  1  6
 23 66  1  0
 25 67  1  0
 25 68  1  0
 25 69  1  0
 26 70  1  0
 26 71  1  0
 26 72  1  0
 28 73  1  0
 28 74  1  0
 28 75  1  0
 29 76  1  0
 29 77  1  0
 30 78  1  0
 30 79  1  0
 32 80  1  0
 32 81  1  0
 32 82  1  0
M  END
>  <meeko>  (9) 
{"is_sidechain": [false], "intermolecular_energy": 2.731, "internal_energy": -0.839}

$$$$
EPH_relaxed_0001_pdb2pqr_Repair_48_r2_0001_out
     RDKit          3D

 82 86  0  0  0  0  0  0  0  0999 V2000
   -0.9280   16.3930   -5.8780 C   0  0  0  0  0  0  0  0  0  0  0  0
    0.1750   15.6990   -6.6820 C   0  0  2  0  0  0  0  0  0  0  0  0
   -0.2190   15.5040   -8.1600 C   0  0  0  0  0  0  0  0  0  0  0  0
    0.4360   16.5110   -9.1090 C   0  0  0  0  0  0  0  0  0  0  0  0
    1.8420   16.1190   -9.4490 C   0  0  2  0  0  0  0  0  0  0  0  0
    2.3420   16.6790  -10.6700 O   0  0  0  0  0  0  0  0  0  0  0  0
    2.2040   15.2490  -10.6390 C   0  0  0  0  0  0  0  0  0  0  0  0
    1.1550   14.7180  -11.5650 C   0  0  0  0  0  0  0  0  0  0  0  0
    3.5100   14.5180  -10.6200 C   0  0  0  0  0  0  0  0  0  0  0  0
    0.5100   14.3530   -6.0500 C   0  0  1  0  0  0  0  0  0  0  0  0
    1.7400   13.6730   -6.7090 C   0  0  0  0  0  0  0  0  0  0  0  0
    2.4920   12.9200   -5.5820 C   0  0  0  0  0  0  0  0  0  0  0  0
    1.5050   12.9120   -4.3920 C   0  0  1  0  0  0  0  0  0  0  0  0
    0.5220   11.7370   -4.6930 C   0  0  0  0  0  0  0  0  0  0  0  0
    2.1390   12.7830   -2.9680 C   0  0  2  0  0  0  0  0  0  0  0  0
    2.9080   11.4750   -2.7130 C   0  0  0  0  0  0  0  0  0  0  0  0
    2.0970   10.3580   -2.1450 C   0  0  0  0  0  0  0  0  0  0  0  0
    0.8780   10.4820   -1.5870 C   0  0  0  0  0  0  0  0  0  0  0  0
    0.2350   11.8620   -1.3970 C   0  0  1  0  0  0  0  0  0  0  0  0
   -0.3460   11.9690    0.0370 C   0  0  0  0  0  0  0  0  0  0  0  0
   -1.3040   10.8290    0.3660 C   0  0  0  0  0  0  0  0  0  0  0  0
   -0.6120    9.4760    0.2220 C   0  0  2  0  0  0  0  0  0  0  0  0
    0.3980    9.3660    1.2290 O   0  0  0  0  0  0  0  0  0  0  0  0
    0.0210    9.2580   -1.1800 C   0  0  0  0  0  0  0  0  0  0  0  0
   -1.0990    9.0770   -2.2350 C   0  0  0  0  0  0  0  0  0  0  0  0
    0.8070    7.9200   -1.1470 C   0  0  0  0  0  0  0  0  0  0  0  0
    1.1430   13.1090   -1.7830 C   0  0  1  0  0  0  0  0  0  0  0  0
    2.0220   13.5240   -0.5640 C   0  0  0  0  0  0  0  0  0  0  0  0
    0.2160   14.3410   -2.1010 C   0  0  0  0  0  0  0  0  0  0  0  0
   -0.2820   14.4790   -3.5530 C   0  0  0  0  0  0  0  0  0  0  0  0
    0.8780   14.3460   -4.5450 C   0  0  2  0  0  0  0  0  0  0  0  0
    1.8720   15.5280   -4.2800 C   0  0  0  0  0  0  0  0  0  0  0  0
   -0.7312   16.2692   -4.8028 H   0  0  0  0  0  0  0  0  0  0  0  0
   -0.9443   17.4644   -6.1268 H   0  0  0  0  0  0  0  0  0  0  0  0
   -1.9009   15.9440   -6.1268 H   0  0  0  0  0  0  0  0  0  0  0  0
    1.0608   16.3508   -6.6600 H   0  0  0  0  0  0  0  0  0  0  0  0
    0.0795   14.4912   -8.4683 H   0  0  0  0  0  0  0  0  0  0  0  0
   -1.3059   15.6594   -8.2264 H   0  0  0  0  0  0  0  0  0  0  0  0
   -0.1537   16.5628  -10.0361 H   0  0  0  0  0  0  0  0  0  0  0  0
    0.4649   17.4883   -8.6050 H   0  0  0  0  0  0  0  0  0  0  0  0
    2.1074   16.0592   -8.3832 H   0  0  0  0  0  0  0  0  0  0  0  0
    0.3255   14.2981  -10.9771 H   0  0  0  0  0  0  0  0  0  0  0  0
    0.7786   15.5341  -12.1992 H   0  0  0  0  0  0  0  0  0  0  0  0
    1.5899   13.9315  -12.1992 H   0  0  0  0  0  0  0  0  0  0  0  0
    3.8184   14.3454   -9.5783 H   0  0  0  0  0  0  0  0  0  0  0  0
    3.3970   13.5520  -11.1338 H   0  0  0  0  0  0  0  0  0  0  0  0
    4.2743   15.1194  -11.1338 H   0  0  0  0  0  0  0  0  0  0  0  0
   -0.4466   13.8329   -6.2061 H   0  0  0  0  0  0  0  0  0  0  0  0
    1.4113   12.9648   -7.4839 H   0  0  0  0  0  0  0  0  0  0  0  0
    2.3919   14.4170   -7.1901 H   0  0  0  0  0  0  0  0  0  0  0  0
    2.7320   11.8929   -5.8943 H   0  0  0  0  0  0  0  0  0  0  0  0
    3.4489   13.3989   -5.3270 H   0  0  0  0  0  0  0  0  0  0  0  0
    0.1628   11.3077   -3.7461 H   0  0  0  0  0  0  0  0  0  0  0  0
   -0.3336   12.1140   -5.2725 H   0  0  0  0  0  0  0  0  0  0  0  0
    1.0442   10.9614   -5.2725 H   0  0  0  0  0  0  0  0  0  0  0  0
    2.8978   13.5793   -2.9742 H   0  0  0  0  0  0  0  0  0  0  0  0
    3.3290   11.1361   -3.6711 H   0  0  0  0  0  0  0  0  0  0  0  0
    3.6698   11.7130   -1.9560 H   0  0  0  0  0  0  0  0  0  0  0  0
    2.5319    9.3485   -2.1857 H   0  0  0  0  0  0  0  0  0  0  0  0
   -0.5787   11.9231   -2.1347 H   0  0  0  0  0  0  0  0  0  0  0  0
    0.4856   11.9497    0.7568 H   0  0  0  0  0  0  0  0  0  0  0  0
   -0.9127   12.9098    0.0985 H   0  0  0  0  0  0  0  0  0  0  0  0
   -1.6582   10.9438    1.4011 H   0  0  0  0  0  0  0  0  0  0  0  0
   -2.1496   10.8673   -0.3364 H   0  0  0  0  0  0  0  0  0  0  0  0
   -1.3799    8.6977    0.3431 H   0  0  0  0  0  0  0  0  0  0  0  0
    1.0270    8.6830    0.9410 H   0  0  0  0  0  0  0  0  0  0  0  0
   -2.0613    8.9215   -1.7252 H   0  0  0  0  0  0  0  0  0  0  0  0
   -1.1588    9.9771   -2.8644 H   0  0  0  0  0  0  0  0  0  0  0  0
   -0.8722    8.2039   -2.8644 H   0  0  0  0  0  0  0  0  0  0  0  0
    0.9815    7.6229   -0.1023 H   0  0  0  0  0  0  0  0  0  0  0  0
    0.2239    7.1395   -1.6576 H   0  0  0  0  0  0  0  0  0  0  0  0
    1.7727    8.0493   -1.6576 H   0  0  0  0  0  0  0  0  0  0  0  0
    1.4955   13.2754    0.3693 H   0  0  0  0  0  0  0  0  0  0  0  0
    2.9788   12.9825   -0.6006 H   0  0  0  0  0  0  0  0  0  0  0  0
    2.2119   14.6069   -0.6006 H   0  0  0  0  0  0  0  0  0  0  0  0
   -0.6686   14.2684   -1.4512 H   0  0  0  0  0  0  0  0  0  0  0  0
    0.8444   15.2268   -1.9266 H   0  0  0  0  0  0  0  0  0  0  0  0
   -1.0217   13.6906   -3.7563 H   0  0  0  0  0  0  0  0  0  0  0  0
   -0.7361   15.4734   -3.6753 H   0  0  0  0  0  0  0  0  0  0  0  0
    1.9917   15.6703   -3.1958 H   0  0  0  0  0  0  0  0  0  0  0  0
    2.8484   15.2936   -4.7291 H   0  0  0  0  0  0  0  0  0  0  0  0
    1.4736   16.4498   -4.7291 H   0  0  0  0  0  0  0  0  0  0  0  0
  1  2  1  0
  2  3  1  0
  3  4  1  0
  4  5  1  0
  5  6  1  0
  6  7  1  0
  7  8  1  0
  7  9  1  0
  2 10  1  0
 10 11  1  0
 11 12  1  0
 12 13  1  0
 13 14  1  6
 13 15  1  0
 15 16  1  0
 16 17  1  0
 17 18  2  0
 18 19  1  0
 19 20  1  0
 20 21  1  0
 21 22  1  0
 22 23  1  0
 22 24  1  0
 24 25  1  0
 24 26  1  0
 19 27  1  0
 27 28  1  1
 27 29  1  0
 29 30  1  0
 30 31  1  0
 31 32  1  6
  7  5  1  0
 31 10  1  0
 31 13  1  0
 27 15  1  0
 24 18  1  0
  1 33  1  0
  1 34  1  0
  1 35  1  0
  2 36  1  6
  3 37  1  0
  3 38  1  0
  4 39  1  0
  4 40  1  0
  5 41  1  1
  8 42  1  0
  8 43  1  0
  8 44  1  0
  9 45  1  0
  9 46  1  0
  9 47  1  0
 10 48  1  1
 11 49  1  0
 11 50  1  0
 12 51  1  0
 12 52  1  0
 14 53  1  0
 14 54  1  0
 14 55  1  0
 15 56  1  6
 16 57  1  0
 16 58  1  0
 17 59  1  0
 19 60  1  6
 20 61  1  0
 20 62  1  0
 21 63  1  0
 21 64  1  0
 22 65  1  1
 23 66  1  0
 25 67  1  0
 25 68  1  0
 25 69  1  0
 26 70  1  0
 26 71  1  0
 26 72  1  0
 28 73  1  0
 28 74  1  0
 28 75  1  0
 29 76  1  0
 29 77  1  0
 30 78  1  0
 30 79  1  0
 32 80  1  0
 32 81  1  0
 32 82  1  0
M  END
>  <meeko>  (10) 
{"is_sidechain": [false], "intermolecular_energy": 2.731, "internal_energy": -0.839}

$$$$
EPH_relaxed_0001_pdb2pqr_Repair_48_r2_0001_out
     RDKit          3D

 82 86  0  0  0  0  0  0  0  0999 V2000
   -5.2110    6.8800   -0.3930 C   0  0  0  0  0  0  0  0  0  0  0  0
   -5.2850    7.9650   -1.4710 C   0  0  2  0  0  0  0  0  0  0  0  0
   -4.8000    9.3330   -0.9520 C   0  0  0  0  0  0  0  0  0  0  0  0
   -3.5920    9.2430   -0.0150 C   0  0  0  0  0  0  0  0  0  0  0  0
   -2.3360    8.9080   -0.7610 C   0  0  2  0  0  0  0  0  0  0  0  0
   -1.1240    9.2480   -0.0750 O   0  0  0  0  0  0  0  0  0  0  0  0
   -1.3790    9.9540   -1.3000 C   0  0  0  0  0  0  0  0  0  0  0  0
   -1.6380   11.4170   -1.1160 C   0  0  0  0  0  0  0  0  0  0  0  0
   -0.4580    9.5740   -2.4170 C   0  0  0  0  0  0  0  0  0  0  0  0
   -6.7120    8.0820   -1.9930 C   0  0  1  0  0  0  0  0  0  0  0  0
   -6.9020    7.3990   -3.3740 C   0  0  0  0  0  0  0  0  0  0  0  0
   -8.3320    6.8020   -3.3850 C   0  0  0  0  0  0  0  0  0  0  0  0
   -9.0300    7.4390   -2.1610 C   0  0  1  0  0  0  0  0  0  0  0  0
   -9.4800    8.8530   -2.6460 C   0  0  0  0  0  0  0  0  0  0  0  0
  -10.2220    6.6340   -1.5480 C   0  0  2  0  0  0  0  0  0  0  0  0
  -11.4220    6.4270   -2.4880 C   0  0  0  0  0  0  0  0  0  0  0  0
  -12.4720    7.4860   -2.4240 C   0  0  0  0  0  0  0  0  0  0  0  0
  -12.5970    8.4060   -1.4500 C   0  0  0  0  0  0  0  0  0  0  0  0
  -11.6810    8.3790   -0.2190 C   0  0  1  0  0  0  0  0  0  0  0  0
  -12.5330    8.5580    1.0650 C   0  0  0  0  0  0  0  0  0  0  0  0
  -13.4090    9.8060    1.0160 C   0  0  0  0  0  0  0  0  0  0  0  0
  -14.3460    9.7680   -0.1880 C   0  0  2  0  0  0  0  0  0  0  0  0
  -15.2870    8.7050   -0.0070 O   0  0  0  0  0  0  0  0  0  0  0  0
  -13.6010    9.5810   -1.5390 C   0  0  0  0  0  0  0  0  0  0  0  0
  -12.8120   10.8690   -1.8800 C   0  0  0  0  0  0  0  0  0  0  0  0
  -14.6680    9.4180   -2.6550 C   0  0  0  0  0  0  0  0  0  0  0  0
  -10.6850    7.1440   -0.1230 C   0  0  1  0  0  0  0  0  0  0  0  0
  -11.3930    5.9420    0.5720 C   0  0  0  0  0  0  0  0  0  0  0  0
   -9.4680    7.5360    0.7960 C   0  0  0  0  0  0  0  0  0  0  0  0
   -8.2710    8.2220    0.1110 C   0  0  0  0  0  0  0  0  0  0  0  0
   -7.8370    7.4470   -1.1370 C   0  0  2  0  0  0  0  0  0  0  0  0
   -7.3580    6.0280   -0.6780 C   0  0  0  0  0  0  0  0  0  0  0  0
   -5.2430    7.3486    0.6017 H   0  0  0  0  0  0  0  0  0  0  0  0
   -6.0645    6.1949   -0.5031 H   0  0  0  0  0  0  0  0  0  0  0  0
   -4.2724    6.3171   -0.5031 H   0  0  0  0  0  0  0  0  0  0  0  0
   -4.6132    7.6654   -2.2889 H   0  0  0  0  0  0  0  0  0  0  0  0
   -4.5233    9.9542   -1.8166 H   0  0  0  0  0  0  0  0  0  0  0  0
   -5.6263    9.7674   -0.3703 H   0  0  0  0  0  0  0  0  0  0  0  0
   -3.4594   10.2113    0.4898 H   0  0  0  0  0  0  0  0  0  0  0  0
   -3.7822    8.4414    0.7139 H   0  0  0  0  0  0  0  0  0  0  0  0
   -2.8187    8.0382   -1.2305 H   0  0  0  0  0  0  0  0  0  0  0  0
   -1.6792   11.6498   -0.0417 H   0  0  0  0  0  0  0  0  0  0  0  0
   -0.8282   11.9946   -1.5855 H   0  0  0  0  0  0  0  0  0  0  0  0
   -2.5969   11.6815   -1.5855 H   0  0  0  0  0  0  0  0  0  0  0  0
    0.4831    9.1857   -2.0003 H   0  0  0  0  0  0  0  0  0  0  0  0
   -0.9327    8.7983   -3.0358 H   0  0  0  0  0  0  0  0  0  0  0  0
   -0.2475   10.4588   -3.0358 H   0  0  0  0  0  0  0  0  0  0  0  0
   -6.8160    9.1771   -1.9992 H   0  0  0  0  0  0  0  0  0  0  0  0
   -6.7944    8.1392   -4.1806 H   0  0  0  0  0  0  0  0  0  0  0  0
   -6.1461    6.6162   -3.5346 H   0  0  0  0  0  0  0  0  0  0  0  0
   -8.8571    7.0689   -4.3140 H   0  0  0  0  0  0  0  0  0  0  0  0
   -8.3257    5.7031   -3.3365 H   0  0  0  0  0  0  0  0  0  0  0  0
   -9.6834    9.4921   -1.7741 H   0  0  0  0  0  0  0  0  0  0  0  0
   -8.6810    9.3040   -3.2528 H   0  0  0  0  0  0  0  0  0  0  0  0
  -10.3927    8.7592   -3.2528 H   0  0  0  0  0  0  0  0  0  0  0  0
   -9.7816    5.6366   -1.4021 H   0  0  0  0  0  0  0  0  0  0  0  0
  -11.0426    6.3864   -3.5197 H   0  0  0  0  0  0  0  0  0  0  0  0
  -11.9081    5.4962   -2.1605 H   0  0  0  0  0  0  0  0  0  0  0  0
  -13.2060    7.5170   -3.2427 H   0  0  0  0  0  0  0  0  0  0  0  0
  -10.9941    9.2306   -0.3326 H   0  0  0  0  0  0  0  0  0  0  0  0
  -13.1807    7.6769    1.1842 H   0  0  0  0  0  0  0  0  0  0  0  0
  -11.8407    8.6689    1.9126 H   0  0  0  0  0  0  0  0  0  0  0  0
  -14.0082    9.8616    1.9368 H   0  0  0  0  0  0  0  0  0  0  0  0
  -12.7582   10.6883    0.9266 H   0  0  0  0  0  0  0  0  0  0  0  0
  -14.8529   10.7428   -0.2416 H   0  0  0  0  0  0  0  0  0  0  0  0
  -16.0540    9.0690    0.4690 H   0  0  0  0  0  0  0  0  0  0  0  0
  -12.5059   11.3687   -0.9491 H   0  0  0  0  0  0  0  0  0  0  0  0
  -11.9189   10.6075   -2.4666 H   0  0  0  0  0  0  0  0  0  0  0  0
  -13.4507   11.5458   -2.4666 H   0  0  0  0  0  0  0  0  0  0  0  0
  -15.6569    9.2669   -2.1976 H   0  0  0  0  0  0  0  0  0  0  0  0
  -14.6872   10.3236   -3.2791 H   0  0  0  0  0  0  0  0  0  0  0  0
  -14.4159    8.5479   -3.2791 H   0  0  0  0  0  0  0  0  0  0  0  0
  -11.3249    6.0577    1.6638 H   0  0  0  0  0  0  0  0  0  0  0  0
  -12.4508    5.9158    0.2714 H   0  0  0  0  0  0  0  0  0  0  0  0
  -10.9030    5.0041    0.2714 H   0  0  0  0  0  0  0  0  0  0  0  0
   -9.8437    8.2196    1.5716 H   0  0  0  0  0  0  0  0  0  0  0  0
   -9.0740    6.5809    1.1735 H   0  0  0  0  0  0  0  0  0  0  0  0
   -8.5597    9.2425   -0.1811 H   0  0  0  0  0  0  0  0  0  0  0  0
   -7.4292    8.2483    0.8186 H   0  0  0  0  0  0  0  0  0  0  0  0
   -7.3431    5.9838    0.4210 H   0  0  0  0  0  0  0  0  0  0  0  0
   -8.0482    5.2646   -1.0663 H   0  0  0  0  0  0  0  0  0  0  0  0
   -6.3463    5.8391   -1.0663 H   0  0  0  0  0  0  0  0  0  0  0  0
  1  2  1  0
  2  3  1  0
  3  4  1  0
  4  5  1  0
  5  6  1  0
  6  7  1  0
  7  8  1  0
  7  9  1  0
  2 10  1  0
 10 11  1  0
 11 12  1  0
 12 13  1  0
 13 14  1  6
 13 15  1  0
 15 16  1  0
 16 17  1  0
 17 18  2  0
 18 19  1  0
 19 20  1  0
 20 21  1  0
 21 22  1  0
 22 23  1  0
 22 24  1  0
 24 25  1  0
 24 26  1  0
 19 27  1  0
 27 28  1  1
 27 29  1  0
 29 30  1  0
 30 31  1  0
 31 32  1  1
  7  5  1  0
 31 10  1  0
 31 13  1  0
 27 15  1  0
 24 18  1  0
  1 33  1  0
  1 34  1  0
  1 35  1  0
  2 36  1  6
  3 37  1  0
  3 38  1  0
  4 39  1  0
  4 40  1  0
  5 41  1  6
  8 42  1  0
  8 43  1  0
  8 44  1  0
  9 45  1  0
  9 46  1  0
  9 47  1  0
 10 48  1  6
 11 49  1  0
 11 50  1  0
 12 51  1  0
 12 52  1  0
 14 53  1  0
 14 54  1  0
 14 55  1  0
 15 56  1  1
 16 57  1  0
 16 58  1  0
 17 59  1  0
 19 60  1  6
 20 61  1  0
 20 62  1  0
 21 63  1  0
 21 64  1  0
 22 65  1  6
 23 66  1  0
 25 67  1  0
 25 68  1  0
 25 69  1  0
 26 70  1  0
 26 71  1  0
 26 72  1  0
 28 73  1  0
 28 74  1  0
 28 75  1  0
 29 76  1  0
 29 77  1  0
 30 78  1  0
 30 79  1  0
 32 80  1  0
 32 81  1  0
 32 82  1  0
M  END
>  <meeko>  (11) 
{"is_sidechain": [false], "intermolecular_energy": 2.731, "internal_energy": -0.839}

$$$$
EPH_relaxed_0001_pdb2pqr_Repair_48_r2_0001_out
     RDKit          3D

 82 86  0  0  0  0  0  0  0  0999 V2000
   -2.0640    7.8870   -2.0480 C   0  0  0  0  0  0  0  0  0  0  0  0
   -2.1210    8.5600   -0.6740 C   0  0  2  0  0  0  0  0  0  0  0  0
   -3.5500    8.5820   -0.0970 C   0  0  0  0  0  0  0  0  0  0  0  0
   -4.6390    8.3050   -1.1370 C   0  0  0  0  0  0  0  0  0  0  0  0
   -5.7470    7.4700   -0.5710 C   0  0  2  0  0  0  0  0  0  0  0  0
   -6.0660    6.3000   -1.3360 O   0  0  0  0  0  0  0  0  0  0  0  0
   -7.0950    7.2990   -1.2470 C   0  0  0  0  0  0  0  0  0  0  0  0
   -7.4060    7.9700   -2.5480 C   0  0  0  0  0  0  0  0  0  0  0  0
   -8.2670    6.8860   -0.4120 C   0  0  0  0  0  0  0  0  0  0  0  0
   -1.5740    9.9790   -0.7670 C   0  0  1  0  0  0  0  0  0  0  0  0
   -1.0630   10.5140    0.5970 C   0  0  0  0  0  0  0  0  0  0  0  0
    0.1610   11.4160    0.2940 C   0  0  0  0  0  0  0  0  0  0  0  0
    0.1120   11.6380   -1.2360 C   0  0  1  0  0  0  0  0  0  0  0  0
   -0.9370   12.7760   -1.4440 C   0  0  0  0  0  0  0  0  0  0  0  0
    1.4720   11.9740   -1.9290 C   0  0  2  0  0  0  0  0  0  0  0  0
    2.1330   13.2860   -1.4690 C   0  0  0  0  0  0  0  0  0  0  0  0
    1.7550   14.4990   -2.2530 C   0  0  0  0  0  0  0  0  0  0  0  0
    1.1480   14.4970   -3.4540 C   0  0  0  0  0  0  0  0  0  0  0  0
    0.8650   13.1810   -4.1910 C   0  0  1  0  0  0  0  0  0  0  0  0
    1.2940   13.3170   -5.6760 C   0  0  0  0  0  0  0  0  0  0  0  0
    0.6540   14.5200   -6.3620 C   0  0  0  0  0  0  0  0  0  0  0  0
    1.0050   15.8150   -5.6330 C   0  0  2  0  0  0  0  0  0  0  0  0
    2.4080   16.0570   -5.7740 O   0  0  0  0  0  0  0  0  0  0  0  0
    0.6280   15.7910   -4.1260 C   0  0  0  0  0  0  0  0  0  0  0  0
   -0.9130   15.8330   -3.9740 C   0  0  0  0  0  0  0  0  0  0  0  0
    1.1630   17.0980   -3.4790 C   0  0  0  0  0  0  0  0  0  0  0  0
    1.4400   11.8660   -3.5080 C   0  0  1  0  0  0  0  0  0  0  0  0
    2.9100   11.6270   -3.9680 C   0  0  0  0  0  0  0  0  0  0  0  0
    0.6110   10.6240   -4.0060 C   0  0  0  0  0  0  0  0  0  0  0  0
   -0.6590   10.2710   -3.2070 C   0  0  0  0  0  0  0  0  0  0  0  0
   -0.3640   10.2150   -1.7050 C   0  0  2  0  0  0  0  0  0  0  0  0
    0.6720    9.0650   -1.4630 C   0  0  0  0  0  0  0  0  0  0  0  0
   -1.9718    6.7984   -1.9195 H   0  0  0  0  0  0  0  0  0  0  0  0
   -2.9846    8.1137   -2.6058 H   0  0  0  0  0  0  0  0  0  0  0  0
   -1.1947    8.2653   -2.6058 H   0  0  0  0  0  0  0  0  0  0  0  0
   -1.4981    7.9663    0.0113 H   0  0  0  0  0  0  0  0  0  0  0  0
   -3.6185    7.8162    0.6897 H   0  0  0  0  0  0  0  0  0  0  0  0
   -3.7250    9.5973    0.2885 H   0  0  0  0  0  0  0  0  0  0  0  0
   -5.0551    9.2633   -1.4812 H   0  0  0  0  0  0  0  0  0  0  0  0
   -4.1836    7.7505   -1.9707 H   0  0  0  0  0  0  0  0  0  0  0  0
   -5.4663    7.7508    0.4548 H   0  0  0  0  0  0  0  0  0  0  0  0
   -7.8613    8.9524   -2.3542 H   0  0  0  0  0  0  0  0  0  0  0  0
   -6.4778    8.1031   -3.1230 H   0  0  0  0  0  0  0  0  0  0  0  0
   -8.1075    7.3477   -3.1230 H   0  0  0  0  0  0  0  0  0  0  0  0
   -8.0085    6.9771    0.6533 H   0  0  0  0  0  0  0  0  0  0  0  0
   -9.1253    7.5358   -0.6379 H   0  0  0  0  0  0  0  0  0  0  0  0
   -8.5283    5.8416   -0.6379 H   0  0  0  0  0  0  0  0  0  0  0  0
   -2.4627   10.4925   -1.1627 H   0  0  0  0  0  0  0  0  0  0  0  0
   -1.8510   11.0992    1.0935 H   0  0  0  0  0  0  0  0  0  0  0  0
   -0.7873    9.6866    1.2674 H   0  0  0  0  0  0  0  0  0  0  0  0
    0.0793   12.3740    0.8283 H   0  0  0  0  0  0  0  0  0  0  0  0
    1.1071   10.9589    0.6194 H   0  0  0  0  0  0  0  0  0  0  0  0
   -1.2769   13.1448   -0.4650 H   0  0  0  0  0  0  0  0  0  0  0  0
   -0.4761   13.6012   -2.0068 H   0  0  0  0  0  0  0  0  0  0  0  0
   -1.7969   12.3837   -2.0068 H   0  0  0  0  0  0  0  0  0  0  0  0
    2.1258   11.1669   -1.5670 H   0  0  0  0  0  0  0  0  0  0  0  0
    1.8523   13.4584   -0.4195 H   0  0  0  0  0  0  0  0  0  0  0  0
    3.2143   13.1512   -1.6191 H   0  0  0  0  0  0  0  0  0  0  0  0
    1.9930   15.4779   -1.8112 H   0  0  0  0  0  0  0  0  0  0  0  0
   -0.2221   13.0253   -4.1288 H   0  0  0  0  0  0  0  0  0  0  0  0
    2.3876   13.4275   -5.7184 H   0  0  0  0  0  0  0  0  0  0  0  0
    0.9576   12.4130   -6.2049 H   0  0  0  0  0  0  0  0  0  0  0  0
    1.0190   14.5799   -7.3980 H   0  0  0  0  0  0  0  0  0  0  0  0
   -0.4385   14.3931   -6.3456 H   0  0  0  0  0  0  0  0  0  0  0  0
    0.4144   16.6221   -6.0910 H   0  0  0  0  0  0  0  0  0  0  0  0
    2.6390   16.7990   -5.1910 H   0  0  0  0  0  0  0  0  0  0  0  0
   -1.1760   15.8402   -2.9059 H   0  0  0  0  0  0  0  0  0  0  0  0
   -1.3042   16.7421   -4.4541 H   0  0  0  0  0  0  0  0  0  0  0  0
   -1.3531   14.9465   -4.4541 H   0  0  0  0  0  0  0  0  0  0  0  0
    1.1256   17.0067   -2.3834 H   0  0  0  0  0  0  0  0  0  0  0  0
    2.2023   17.2661   -3.7977 H   0  0  0  0  0  0  0  0  0  0  0  0
    0.5399   17.9466   -3.7977 H   0  0  0  0  0  0  0  0  0  0  0  0
    3.5579   11.5217   -3.0853 H   0  0  0  0  0  0  0  0  0  0  0  0
    2.9606   10.7088   -4.5717 H   0  0  0  0  0  0  0  0  0  0  0  0
    3.2489   12.4818   -4.5717 H   0  0  0  0  0  0  0  0  0  0  0  0
    0.3067   10.8216   -5.0444 H   0  0  0  0  0  0  0  0  0  0  0  0
    1.2808    9.7608   -3.8784 H   0  0  0  0  0  0  0  0  0  0  0  0
   -1.4265   11.0363   -3.3947 H   0  0  0  0  0  0  0  0  0  0  0  0
   -1.0140    9.2818   -3.5318 H   0  0  0  0  0  0  0  0  0  0  0  0
    0.8072    8.9149   -0.3817 H   0  0  0  0  0  0  0  0  0  0  0  0
    0.3008    8.1352   -1.9187 H   0  0  0  0  0  0  0  0  0  0  0  0
    1.6354    9.3375   -1.9187 H   0  0  0  0  0  0  0  0  0  0  0  0
  1  2  1  0
  2  3  1  0
  3  4  1  0
  4  5  1  0
  5  6  1  0
  6  7  1  0
  7  8  1  0
  7  9  1  0
  2 10  1  0
 10 11  1  0
 11 12  1  0
 12 13  1  0
 13 14  1  1
 13 15  1  0
 15 16  1  0
 16 17  1  0
 17 18  2  0
 18 19  1  0
 19 20  1  0
 20 21  1  0
 21 22  1  0
 22 23  1  0
 22 24  1  0
 24 25  1  0
 24 26  1  0
 19 27  1  0
 27 28  1  6
 27 29  1  0
 29 30  1  0
 30 31  1  0
 31 32  1  6
  7  5  1  0
 31 10  1  0
 31 13  1  0
 27 15  1  0
 24 18  1  0
  1 33  1  0
  1 34  1  0
  1 35  1  0
  2 36  1  1
  3 37  1  0
  3 38  1  0
  4 39  1  0
  4 40  1  0
  5 41  1  1
  8 42  1  0
  8 43  1  0
  8 44  1  0
  9 45  1  0
  9 46  1  0
  9 47  1  0
 10 48  1  6
 11 49  1  0
 11 50  1  0
 12 51  1  0
 12 52  1  0
 14 53  1  0
 14 54  1  0
 14 55  1  0
 15 56  1  1
 16 57  1  0
 16 58  1  0
 17 59  1  0
 19 60  1  6
 20 61  1  0
 20 62  1  0
 21 63  1  0
 21 64  1  0
 22 65  1  6
 23 66  1  0
 25 67  1  0
 25 68  1  0
 25 69  1  0
 26 70  1  0
 26 71  1  0
 26 72  1  0
 28 73  1  0
 28 74  1  0
 28 75  1  0
 29 76  1  0
 29 77  1  0
 30 78  1  0
 30 79  1  0
 32 80  1  0
 32 81  1  0
 32 82  1  0
M  END
>  <meeko>  (12) 
{"is_sidechain": [false], "intermolecular_energy": 2.731, "internal_energy": -0.839}

$$$$
EPH_relaxed_0001_pdb2pqr_Repair_48_r2_0001_out
     RDKit          3D

 82 86  0  0  0  0  0  0  0  0999 V2000
   -4.4080    7.3420   -3.4470 C   0  0  0  0  0  0  0  0  0  0  0  0
   -4.0080    7.2610   -1.9710 C   0  0  2  0  0  0  0  0  0  0  0  0
   -5.1950    6.8700   -1.0680 C   0  0  0  0  0  0  0  0  0  0  0  0
   -6.5500    7.3620   -1.5850 C   0  0  0  0  0  0  0  0  0  0  0  0
   -7.6420    7.1320   -0.5850 C   0  0  2  0  0  0  0  0  0  0  0  0
   -8.4350    5.9620   -0.8230 O   0  0  0  0  0  0  0  0  0  0  0  0
   -9.1180    7.2220   -0.9220 C   0  0  0  0  0  0  0  0  0  0  0  0
   -9.5830    7.5550   -2.3050 C   0  0  0  0  0  0  0  0  0  0  0  0
  -10.0920    7.4690    0.1880 C   0  0  0  0  0  0  0  0  0  0  0  0
   -3.4250    8.5940   -1.5170 C   0  0  1  0  0  0  0  0  0  0  0  0
   -4.0310    9.0860   -0.1760 C   0  0  0  0  0  0  0  0  0  0  0  0
   -2.8950    9.8120    0.5890 C   0  0  0  0  0  0  0  0  0  0  0  0
   -1.7780   10.0050   -0.4620 C   0  0  1  0  0  0  0  0  0  0  0  0
   -2.2070   11.2660   -1.2760 C   0  0  0  0  0  0  0  0  0  0  0  0
   -0.3230   10.1440    0.0930 C   0  0  2  0  0  0  0  0  0  0  0  0
   -0.0830   11.3660    0.9960 C   0  0  0  0  0  0  0  0  0  0  0  0
    0.3690   12.6020    0.2900 C   0  0  0  0  0  0  0  0  0  0  0  0
    0.8470   12.6540   -0.9670 C   0  0  0  0  0  0  0  0  0  0  0  0
    1.0630   11.3720   -1.7810 C   0  0  1  0  0  0  0  0  0  0  0  0
    2.4570   11.4180   -2.4600 C   0  0  0  0  0  0  0  0  0  0  0  0
    2.6610   12.6800   -3.2930 C   0  0  0  0  0  0  0  0  0  0  0  0
    2.4950   13.9320   -2.4360 C   0  0  2  0  0  0  0  0  0  0  0  0
    3.5620   13.9840   -1.4850 O   0  0  0  0  0  0  0  0  0  0  0  0
    1.1300   13.9910   -1.6950 C   0  0  0  0  0  0  0  0  0  0  0  0
   -0.0070   14.2390   -2.7170 C   0  0  0  0  0  0  0  0  0  0  0  0
    1.1490   15.2290   -0.7580 C   0  0  0  0  0  0  0  0  0  0  0  0
    0.8060   10.0080   -1.0070 C   0  0  1  0  0  0  0  0  0  0  0  0
    2.1030    9.5660   -0.2620 C   0  0  0  0  0  0  0  0  0  0  0  0
    0.4880    8.8750   -2.0540 C   0  0  0  0  0  0  0  0  0  0  0  0
   -0.9850    8.7100   -2.4730 C   0  0  0  0  0  0  0  0  0  0  0  0
   -1.9000    8.6480   -1.2460 C   0  0  2  0  0  0  0  0  0  0  0  0
   -1.5070    7.3760   -0.4190 C   0  0  0  0  0  0  0  0  0  0  0  0
   -5.4835    7.5598   -3.5240 H   0  0  0  0  0  0  0  0  0  0  0  0
   -3.8357    8.1425   -3.9386 H   0  0  0  0  0  0  0  0  0  0  0  0
   -4.1922    6.3819   -3.9386 H   0  0  0  0  0  0  0  0  0  0  0  0
   -3.2480    6.4713   -1.8769 H   0  0  0  0  0  0  0  0  0  0  0  0
   -5.2289    5.7730   -0.9945 H   0  0  0  0  0  0  0  0  0  0  0  0
   -5.0291    7.3510   -0.0928 H   0  0  0  0  0  0  0  0  0  0  0  0
   -6.4811    8.4394   -1.7960 H   0  0  0  0  0  0  0  0  0  0  0  0
   -6.7950    6.7965   -2.4961 H   0  0  0  0  0  0  0  0  0  0  0  0
   -7.0386    7.5885    0.2135 H   0  0  0  0  0  0  0  0  0  0  0  0
  -10.4761    8.1946   -2.2475 H   0  0  0  0  0  0  0  0  0  0  0  0
   -8.7844    8.0878   -2.8420 H   0  0  0  0  0  0  0  0  0  0  0  0
   -9.8303    6.6274   -2.8420 H   0  0  0  0  0  0  0  0  0  0  0  0
   -9.5853    7.3405    1.1558 H   0  0  0  0  0  0  0  0  0  0  0  0
  -10.4824    8.4946    0.1118 H   0  0  0  0  0  0  0  0  0  0  0  0
  -10.9239    6.7534    0.1118 H   0  0  0  0  0  0  0  0  0  0  0  0
   -3.6741    9.2114   -2.3926 H   0  0  0  0  0  0  0  0  0  0  0  0
   -4.8622    9.7804   -0.3682 H   0  0  0  0  0  0  0  0  0  0  0  0
   -4.4267    8.2440    0.4109 H   0  0  0  0  0  0  0  0  0  0  0  0
   -3.2424   10.7839    0.9693 H   0  0  0  0  0  0  0  0  0  0  0  0
   -2.5503    9.2412    1.4638 H   0  0  0  0  0  0  0  0  0  0  0  0
   -2.4819   12.0742   -0.5823 H   0  0  0  0  0  0  0  0  0  0  0  0
   -1.3704   11.5955   -1.9097 H   0  0  0  0  0  0  0  0  0  0  0  0
   -3.0710   11.0169   -1.9097 H   0  0  0  0  0  0  0  0  0  0  0  0
   -0.2365    9.2658    0.7497 H   0  0  0  0  0  0  0  0  0  0  0  0
   -1.0256   11.5960    1.5142 H   0  0  0  0  0  0  0  0  0  0  0  0
    0.7362   11.0865    1.6749 H   0  0  0  0  0  0  0  0  0  0  0  0
    0.3059   13.5500    0.8443 H   0  0  0  0  0  0  0  0  0  0  0  0
    0.2746   11.3625   -2.5481 H   0  0  0  0  0  0  0  0  0  0  0  0
    3.2309   11.3821   -1.6791 H   0  0  0  0  0  0  0  0  0  0  0  0
    2.5263   10.5552   -3.1388 H   0  0  0  0  0  0  0  0  0  0  0  0
    3.6741   12.6687   -3.7214 H   0  0  0  0  0  0  0  0  0  0  0  0
    1.9056   12.6990   -4.0923 H   0  0  0  0  0  0  0  0  0  0  0  0
    2.5223   14.8000   -3.1111 H   0  0  0  0  0  0  0  0  0  0  0  0
    4.0740   14.7920   -1.6600 H   0  0  0  0  0  0  0  0  0  0  0  0
   -0.9448   14.4436   -2.1797 H   0  0  0  0  0  0  0  0  0  0  0  0
    0.2495   15.1023   -3.3486 H   0  0  0  0  0  0  0  0  0  0  0  0
   -0.1333   13.3473   -3.3486 H   0  0  0  0  0  0  0  0  0  0  0  0
    1.1439   14.8956    0.2902 H   0  0  0  0  0  0  0  0  0  0  0  0
    2.0563   15.8204   -0.9502 H   0  0  0  0  0  0  0  0  0  0  0  0
    0.2602   15.8480   -0.9502 H   0  0  0  0  0  0  0  0  0  0  0  0
    1.9390    9.6219    0.8243 H   0  0  0  0  0  0  0  0  0  0  0  0
    2.3526    8.5321   -0.5424 H   0  0  0  0  0  0  0  0  0  0  0  0
    2.9321   10.2323   -0.5424 H   0  0  0  0  0  0  0  0  0  0  0  0
    1.0705    9.0884   -2.9624 H   0  0  0  0  0  0  0  0  0  0  0  0
    0.7505    7.9340   -1.5484 H   0  0  0  0  0  0  0  0  0  0  0  0
   -1.2793    9.5656   -3.0985 H   0  0  0  0  0  0  0  0  0  0  0  0
   -1.0869    7.7697   -3.0346 H   0  0  0  0  0  0  0  0  0  0  0  0
   -1.5766    7.6013    0.6554 H   0  0  0  0  0  0  0  0  0  0  0  0
   -2.1924    6.5519   -0.6660 H   0  0  0  0  0  0  0  0  0  0  0  0
   -0.4762    7.0821   -0.6660 H   0  0  0  0  0  0  0  0  0  0  0  0
  1  2  1  0
  2  3  1  0
  3  4  1  0
  4  5  1  0
  5  6  1  0
  6  7  1  0
  7  8  1  0
  7  9  1  0
  2 10  1  0
 10 11  1  0
 11 12  1  0
 12 13  1  0
 13 14  1  6
 13 15  1  0
 15 16  1  0
 16 17  1  0
 17 18  2  0
 18 19  1  0
 19 20  1  0
 20 21  1  0
 21 22  1  0
 22 23  1  0
 22 24  1  0
 24 25  1  0
 24 26  1  0
 19 27  1  0
 27 28  1  1
 27 29  1  0
 29 30  1  0
 30 31  1  0
 31 32  1  1
  7  5  1  0
 31 10  1  0
 31 13  1  0
 27 15  1  0
 24 18  1  0
  1 33  1  0
  1 34  1  0
  1 35  1  0
  2 36  1  6
  3 37  1  0
  3 38  1  0
  4 39  1  0
  4 40  1  0
  5 41  1  1
  8 42  1  0
  8 43  1  0
  8 44  1  0
  9 45  1  0
  9 46  1  0
  9 47  1  0
 10 48  1  6
 11 49  1  0
 11 50  1  0
 12 51  1  0
 12 52  1  0
 14 53  1  0
 14 54  1  0
 14 55  1  0
 15 56  1  1
 16 57  1  0
 16 58  1  0
 17 59  1  0
 19 60  1  6
 20 61  1  0
 20 62  1  0
 21 63  1  0
 21 64  1  0
 22 65  1  6
 23 66  1  0
 25 67  1  0
 25 68  1  0
 25 69  1  0
 26 70  1  0
 26 71  1  0
 26 72  1  0
 28 73  1  0
 28 74  1  0
 28 75  1  0
 29 76  1  0
 29 77  1  0
 30 78  1  0
 30 79  1  0
 32 80  1  0
 32 81  1  0
 32 82  1  0
M  END
>  <meeko>  (13) 
{"is_sidechain": [false], "intermolecular_energy": 2.731, "internal_energy": -0.839}

$$$$
EPH_relaxed_0001_pdb2pqr_Repair_48_r2_0001_out
     RDKit          3D

 82 86  0  0  0  0  0  0  0  0999 V2000
    2.9010   11.4060   -5.3950 C   0  0  0  0  0  0  0  0  0  0  0  0
    1.9050   11.0930   -4.2740 C   0  0  2  0  0  0  0  0  0  0  0  0
    0.7940   10.1300   -4.7370 C   0  0  0  0  0  0  0  0  0  0  0  0
   -0.2880    9.8860   -3.6810 C   0  0  0  0  0  0  0  0  0  0  0  0
    0.2270    9.0660   -2.5380 C   0  0  2  0  0  0  0  0  0  0  0  0
   -0.6330    7.9910   -2.1370 O   0  0  0  0  0  0  0  0  0  0  0  0
   -0.4270    9.0330   -1.1690 C   0  0  0  0  0  0  0  0  0  0  0  0
   -1.6530    9.8380   -0.8710 C   0  0  0  0  0  0  0  0  0  0  0  0
    0.3960    8.6090    0.0070 C   0  0  0  0  0  0  0  0  0  0  0  0
    1.2900   12.3850   -3.7510 C   0  0  1  0  0  0  0  0  0  0  0  0
   -0.2510   12.2930   -3.5950 C   0  0  0  0  0  0  0  0  0  0  0  0
   -0.6270   13.1410   -2.3530 C   0  0  0  0  0  0  0  0  0  0  0  0
    0.6500   13.9550   -2.0350 C   0  0  1  0  0  0  0  0  0  0  0  0
    0.6140   15.1600   -3.0260 C   0  0  0  0  0  0  0  0  0  0  0  0
    0.8160   14.4290   -0.5550 C   0  0  2  0  0  0  0  0  0  0  0  0
   -0.2720   15.3930   -0.0520 C   0  0  0  0  0  0  0  0  0  0  0  0
    0.0190   16.8430   -0.2530 C   0  0  0  0  0  0  0  0  0  0  0  0
    1.2220   17.3660   -0.5530 C   0  0  0  0  0  0  0  0  0  0  0  0
    2.4710   16.4770   -0.6220 C   0  0  1  0  0  0  0  0  0  0  0  0
    3.6330   17.1560    0.1490 C   0  0  0  0  0  0  0  0  0  0  0  0
    3.9020   18.5790   -0.3310 C   0  0  0  0  0  0  0  0  0  0  0  0
    2.6530   19.4470   -0.1920 C   0  0  2  0  0  0  0  0  0  0  0  0
    2.3600   19.6120    1.1980 O   0  0  0  0  0  0  0  0  0  0  0  0
    1.4140   18.8580   -0.9220 C   0  0  0  0  0  0  0  0  0  0  0  0
    1.6150   18.9580   -2.4540 C   0  0  0  0  0  0  0  0  0  0  0  0
    0.1910   19.7540   -0.5850 C   0  0  0  0  0  0  0  0  0  0  0  0
    2.2660   14.9580   -0.2030 C   0  0  1  0  0  0  0  0  0  0  0  0
    2.4340   14.8050    1.3400 C   0  0  0  0  0  0  0  0  0  0  0  0
    3.3980   14.0850   -0.8620 C   0  0  0  0  0  0  0  0  0  0  0  0
    3.1240   13.5470   -2.2790 C   0  0  0  0  0  0  0  0  0  0  0  0
    1.7490   12.8770   -2.3550 C   0  0  2  0  0  0  0  0  0  0  0  0
    1.7620   11.6460   -1.3850 C   0  0  0  0  0  0  0  0  0  0  0  0
    3.8634   11.7084   -4.9565 H   0  0  0  0  0  0  0  0  0  0  0  0
    3.0467   10.5103   -6.0167 H   0  0  0  0  0  0  0  0  0  0  0  0
    2.5081   12.2240   -6.0167 H   0  0  0  0  0  0  0  0  0  0  0  0
    2.4604   10.5922   -3.4673 H   0  0  0  0  0  0  0  0  0  0  0  0
    0.3163   10.5553   -5.6319 H   0  0  0  0  0  0  0  0  0  0  0  0
    1.2722    9.1599   -4.9377 H   0  0  0  0  0  0  0  0  0  0  0  0
   -0.6350   10.8561   -3.2957 H   0  0  0  0  0  0  0  0  0  0  0  0
   -1.1115    9.3326   -4.1559 H   0  0  0  0  0  0  0  0  0  0  0  0
    1.2667    9.2355   -2.8548 H   0  0  0  0  0  0  0  0  0  0  0  0
   -1.7807    9.9219    0.2183 H   0  0  0  0  0  0  0  0  0  0  0  0
   -1.5467   10.8427   -1.3062 H   0  0  0  0  0  0  0  0  0  0  0  0
   -2.5326    9.3411   -1.3062 H   0  0  0  0  0  0  0  0  0  0  0  0
   -0.1268    8.8783    0.9366 H   0  0  0  0  0  0  0  0  0  0  0  0
    0.5485    7.5201   -0.0257 H   0  0  0  0  0  0  0  0  0  0  0  0
    1.3712    9.1169   -0.0257 H   0  0  0  0  0  0  0  0  0  0  0  0
    1.6365   13.0818   -4.5284 H   0  0  0  0  0  0  0  0  0  0  0  0
   -0.7469   12.6937   -4.4914 H   0  0  0  0  0  0  0  0  0  0  0  0
   -0.5736   11.2486   -3.4721 H   0  0  0  0  0  0  0  0  0  0  0  0
   -1.4684   13.8119   -2.5811 H   0  0  0  0  0  0  0  0  0  0  0  0
   -0.9471   12.5187   -1.5043 H   0  0  0  0  0  0  0  0  0  0  0  0
    0.5859   16.1014   -2.4577 H   0  0  0  0  0  0  0  0  0  0  0  0
    1.5131   15.1408   -3.6594 H   0  0  0  0  0  0  0  0  0  0  0  0
   -0.2824   15.0872   -3.6594 H   0  0  0  0  0  0  0  0  0  0  0  0
    0.6707   13.4959    0.0092 H   0  0  0  0  0  0  0  0  0  0  0  0
   -1.2066   15.1572   -0.5820 H   0  0  0  0  0  0  0  0  0  0  0  0
   -0.3327   15.2426    1.0360 H   0  0  0  0  0  0  0  0  0  0  0  0
   -0.8219   17.5442   -0.1468 H   0  0  0  0  0  0  0  0  0  0  0  0
    2.7274   16.3961   -1.6886 H   0  0  0  0  0  0  0  0  0  0  0  0
    3.3758   17.1873    1.2181 H   0  0  0  0  0  0  0  0  0  0  0  0
    4.5432   16.5654   -0.0317 H   0  0  0  0  0  0  0  0  0  0  0  0
    4.7124   19.0151    0.2716 H   0  0  0  0  0  0  0  0  0  0  0  0
    4.1885   18.5433   -1.3924 H   0  0  0  0  0  0  0  0  0  0  0  0
    2.8674   20.4142   -0.6701 H   0  0  0  0  0  0  0  0  0  0  0  0
    2.9940   19.0720    1.7000 H   0  0  0  0  0  0  0  0  0  0  0  0
    2.5813   19.4388   -2.6664 H   0  0  0  0  0  0  0  0  0  0  0  0
    1.6033   17.9490   -2.8920 H   0  0  0  0  0  0  0  0  0  0  0  0
    0.8032   19.5573   -2.8920 H   0  0  0  0  0  0  0  0  0  0  0  0
    0.0838   19.8325    0.5069 H   0  0  0  0  0  0  0  0  0  0  0  0
    0.3423   20.7565   -1.0116 H   0  0  0  0  0  0  0  0  0  0  0  0
   -0.7193   19.3075   -1.0116 H   0  0  0  0  0  0  0  0  0  0  0  0
    1.7149   15.4599    1.8538 H   0  0  0  0  0  0  0  0  0  0  0  0
    2.2480   13.7596    1.6272 H   0  0  0  0  0  0  0  0  0  0  0  0
    3.4575   15.0876    1.6272 H   0  0  0  0  0  0  0  0  0  0  0  0
    4.3079   14.7012   -0.9102 H   0  0  0  0  0  0  0  0  0  0  0  0
    3.4795   13.1914   -0.2257 H   0  0  0  0  0  0  0  0  0  0  0  0
    3.1571   14.3825   -2.9937 H   0  0  0  0  0  0  0  0  0  0  0  0
    3.8924   12.7992   -2.5247 H   0  0  0  0  0  0  0  0  0  0  0  0
    1.7583   11.9998   -0.3435 H   0  0  0  0  0  0  0  0  0  0  0  0
    0.8703   11.0276   -1.5654 H   0  0  0  0  0  0  0  0  0  0  0  0
    2.6665   11.0466   -1.5654 H   0  0  0  0  0  0  0  0  0  0  0  0
  1  2  1  0
  2  3  1  0
  3  4  1  0
  4  5  1  0
  5  6  1  0
  6  7  1  0
  7  8  1  0
  7  9  1  0
  2 10  1  0
 10 11  1  0
 11 12  1  0
 12 13  1  0
 13 14  1  6
 13 15  1  0
 15 16  1  0
 16 17  1  0
 17 18  2  0
 18 19  1  0
 19 20  1  0
 20 21  1  0
 21 22  1  0
 22 23  1  0
 22 24  1  0
 24 25  1  0
 24 26  1  0
 19 27  1  0
 27 28  1  1
 27 29  1  0
 29 30  1  0
 30 31  1  0
 31 32  1  1
  7  5  1  0
 31 10  1  0
 31 13  1  0
 27 15  1  0
 24 18  1  0
  1 33  1  0
  1 34  1  0
  1 35  1  0
  2 36  1  1
  3 37  1  0
  3 38  1  0
  4 39  1  0
  4 40  1  0
  5 41  1  1
  8 42  1  0
  8 43  1  0
  8 44  1  0
  9 45  1  0
  9 46  1  0
  9 47  1  0
 10 48  1  6
 11 49  1  0
 11 50  1  0
 12 51  1  0
 12 52  1  0
 14 53  1  0
 14 54  1  0
 14 55  1  0
 15 56  1  1
 16 57  1  0
 16 58  1  0
 17 59  1  0
 19 60  1  6
 20 61  1  0
 20 62  1  0
 21 63  1  0
 21 64  1  0
 22 65  1  6
 23 66  1  0
 25 67  1  0
 25 68  1  0
 25 69  1  0
 26 70  1  0
 26 71  1  0
 26 72  1  0
 28 73  1  0
 28 74  1  0
 28 75  1  0
 29 76  1  0
 29 77  1  0
 30 78  1  0
 30 79  1  0
 32 80  1  0
 32 81  1  0
 32 82  1  0
M  END
>  <meeko>  (14) 
{"is_sidechain": [false], "intermolecular_energy": 2.731, "internal_energy": -0.839}

$$$$
EPH_relaxed_0001_pdb2pqr_Repair_48_r2_0001_out
     RDKit          3D

 82 86  0  0  0  0  0  0  0  0999 V2000
    0.9680   14.8990   -2.6690 C   0  0  0  0  0  0  0  0  0  0  0  0
    1.2090   14.2190   -4.0200 C   0  0  2  0  0  0  0  0  0  0  0  0
    0.4850   14.9450   -5.1720 C   0  0  0  0  0  0  0  0  0  0  0  0
    1.0440   14.6100   -6.5580 C   0  0  0  0  0  0  0  0  0  0  0  0
    0.8360   15.7350   -7.5260 C   0  0  2  0  0  0  0  0  0  0  0  0
    0.3780   15.3310   -8.8230 O   0  0  0  0  0  0  0  0  0  0  0  0
    1.6810   15.9340   -8.7710 C   0  0  0  0  0  0  0  0  0  0  0  0
    2.7980   14.9990   -9.1130 C   0  0  0  0  0  0  0  0  0  0  0  0
    1.7390   17.2980   -9.3850 C   0  0  0  0  0  0  0  0  0  0  0  0
    0.7590   12.7640   -3.9570 C   0  0  1  0  0  0  0  0  0  0  0  0
    1.8910   11.7720   -4.3350 C   0  0  0  0  0  0  0  0  0  0  0  0
    1.6940   10.5120   -3.4540 C   0  0  0  0  0  0  0  0  0  0  0  0
    0.2810   10.6780   -2.8460 C   0  0  1  0  0  0  0  0  0  0  0  0
   -0.6960   10.2020   -3.9670 C   0  0  0  0  0  0  0  0  0  0  0  0
    0.0180    9.9340   -1.4970 C   0  0  2  0  0  0  0  0  0  0  0  0
    0.1230    8.4010   -1.5650 C   0  0  0  0  0  0  0  0  0  0  0  0
   -1.1490    7.6870   -1.8830 C   0  0  0  0  0  0  0  0  0  0  0  0
   -2.3820    8.2240   -1.8250 C   0  0  0  0  0  0  0  0  0  0  0  0
   -2.5950    9.6540   -1.3120 C   0  0  1  0  0  0  0  0  0  0  0  0
   -3.7740    9.6720   -0.3030 C   0  0  0  0  0  0  0  0  0  0  0  0
   -5.0480    9.0640   -0.8820 C   0  0  0  0  0  0  0  0  0  0  0  0
   -4.8110    7.6230   -1.3270 C   0  0  2  0  0  0  0  0  0  0  0  0
   -4.5510    6.8200   -0.1710 O   0  0  0  0  0  0  0  0  0  0  0  0
   -3.6390    7.4790   -2.3370 C   0  0  0  0  0  0  0  0  0  0  0  0
   -4.0470    8.0940   -3.6990 C   0  0  0  0  0  0  0  0  0  0  0  0
   -3.4150    5.9640   -2.5950 C   0  0  0  0  0  0  0  0  0  0  0  0
   -1.3030   10.3900   -0.7530 C   0  0  1  0  0  0  0  0  0  0  0  0
   -1.1050   10.0460    0.7550 C   0  0  0  0  0  0  0  0  0  0  0  0
   -1.5250   11.9470   -0.8280 C   0  0  0  0  0  0  0  0  0  0  0  0
   -1.1330   12.6420   -2.1460 C   0  0  0  0  0  0  0  0  0  0  0  0
    0.2740   12.2290   -2.5870 C   0  0  2  0  0  0  0  0  0  0  0  0
    1.2810   12.7140   -1.4890 C   0  0  0  0  0  0  0  0  0  0  0  0
    1.2159   14.1995   -1.8570 H   0  0  0  0  0  0  0  0  0  0  0  0
    1.6041   15.7930   -2.5898 H   0  0  0  0  0  0  0  0  0  0  0  0
   -0.0890   15.1929   -2.5898 H   0  0  0  0  0  0  0  0  0  0  0  0
    2.2884   14.2656   -4.2266 H   0  0  0  0  0  0  0  0  0  0  0  0
   -0.5775   14.6612   -5.1481 H   0  0  0  0  0  0  0  0  0  0  0  0
    0.6347   16.0237   -5.0169 H   0  0  0  0  0  0  0  0  0  0  0  0
    2.1222   14.4110   -6.4690 H   0  0  0  0  0  0  0  0  0  0  0  0
    0.5103   13.7267   -6.9388 H   0  0  0  0  0  0  0  0  0  0  0  0
    0.5518   16.4162   -6.7104 H   0  0  0  0  0  0  0  0  0  0  0  0
    3.2535   14.6177   -8.1872 H   0  0  0  0  0  0  0  0  0  0  0  0
    2.4043   14.1572   -9.7016 H   0  0  0  0  0  0  0  0  0  0  0  0
    3.5573   15.5347   -9.7016 H   0  0  0  0  0  0  0  0  0  0  0  0
    1.7713   18.0571   -8.5896 H   0  0  0  0  0  0  0  0  0  0  0  0
    2.6415   17.3814  -10.0083 H   0  0  0  0  0  0  0  0  0  0  0  0
    0.8468   17.4578  -10.0083 H   0  0  0  0  0  0  0  0  0  0  0  0
   -0.0816   12.7996   -4.6656 H   0  0  0  0  0  0  0  0  0  0  0  0
    1.8205   11.5046   -5.3997 H   0  0  0  0  0  0  0  0  0  0  0  0
    2.8814   12.2203   -4.1673 H   0  0  0  0  0  0  0  0  0  0  0  0
    1.7492    9.5987   -4.0646 H   0  0  0  0  0  0  0  0  0  0  0  0
    2.4718   10.4170   -2.6820 H   0  0  0  0  0  0  0  0  0  0  0  0
   -1.5948    9.7641   -3.5084 H   0  0  0  0  0  0  0  0  0  0  0  0
   -0.9841   11.0607   -4.5912 H   0  0  0  0  0  0  0  0  0  0  0  0
   -0.1974    9.4459   -4.5912 H   0  0  0  0  0  0  0  0  0  0  0  0
    0.8650   10.2635   -0.8773 H   0  0  0  0  0  0  0  0  0  0  0  0
    0.8593    8.1451   -2.3411 H   0  0  0  0  0  0  0  0  0  0  0  0
    0.4124    8.0713   -0.5563 H   0  0  0  0  0  0  0  0  0  0  0  0
   -1.0722    6.6337   -2.1905 H   0  0  0  0  0  0  0  0  0  0  0  0
   -2.8495   10.2587   -2.1949 H   0  0  0  0  0  0  0  0  0  0  0  0
   -3.4833    9.0983    0.5894 H   0  0  0  0  0  0  0  0  0  0  0  0
   -3.9871   10.7227   -0.0567 H   0  0  0  0  0  0  0  0  0  0  0  0
   -5.8353    9.0788   -0.1140 H   0  0  0  0  0  0  0  0  0  0  0  0
   -5.3535    9.6562   -1.7572 H   0  0  0  0  0  0  0  0  0  0  0  0
   -5.7185    7.2856   -1.8491 H   0  0  0  0  0  0  0  0  0  0  0  0
   -3.5920    6.8370   -0.0100 H   0  0  0  0  0  0  0  0  0  0  0  0
   -4.6476    8.9994   -3.5273 H   0  0  0  0  0  0  0  0  0  0  0  0
   -3.1431    8.3562   -4.2684 H   0  0  0  0  0  0  0  0  0  0  0  0
   -4.6400    7.3631   -4.2684 H   0  0  0  0  0  0  0  0  0  0  0  0
   -3.3369    5.4359   -1.6332 H   0  0  0  0  0  0  0  0  0  0  0  0
   -4.2632    5.5602   -3.1673 H   0  0  0  0  0  0  0  0  0  0  0  0
   -2.4862    5.8229   -3.1673 H   0  0  0  0  0  0  0  0  0  0  0  0
   -1.5588   10.8343    1.3736 H   0  0  0  0  0  0  0  0  0  0  0  0
   -1.5867    9.0825    0.9776 H   0  0  0  0  0  0  0  0  0  0  0  0
   -0.0299    9.9785    0.9776 H   0  0  0  0  0  0  0  0  0  0  0  0
   -2.5942   12.1394   -0.6556 H   0  0  0  0  0  0  0  0  0  0  0  0
   -0.8519   12.3706   -0.0680 H   0  0  0  0  0  0  0  0  0  0  0  0
   -1.8525   12.3604   -2.9290 H   0  0  0  0  0  0  0  0  0  0  0  0
   -1.1445   13.7301   -1.9852 H   0  0  0  0  0  0  0  0  0  0  0  0
    0.8619   12.5121   -0.4922 H   0  0  0  0  0  0  0  0  0  0  0  0
    2.2338   12.1760   -1.6020 H   0  0  0  0  0  0  0  0  0  0  0  0
    1.4543   13.7944   -1.6020 H   0  0  0  0  0  0  0  0  0  0  0  0
  1  2  1  0
  2  3  1  0
  3  4  1  0
  4  5  1  0
  5  6  1  0
  6  7  1  0
  7  8  1  0
  7  9  1  0
  2 10  1  0
 10 11  1  0
 11 12  1  0
 12 13  1  0
 13 14  1  6
 13 15  1  0
 15 16  1  0
 16 17  1  0
 17 18  2  0
 18 19  1  0
 19 20  1  0
 20 21  1  0
 21 22  1  0
 22 23  1  0
 22 24  1  0
 24 25  1  0
 24 26  1  0
 19 27  1  0
 27 28  1  1
 27 29  1  0
 29 30  1  0
 30 31  1  0
 31 32  1  1
  7  5  1  0
 31 10  1  0
 31 13  1  0
 27 15  1  0
 24 18  1  0
  1 33  1  0
  1 34  1  0
  1 35  1  0
  2 36  1  6
  3 37  1  0
  3 38  1  0
  4 39  1  0
  4 40  1  0
  5 41  1  1
  8 42  1  0
  8 43  1  0
  8 44  1  0
  9 45  1  0
  9 46  1  0
  9 47  1  0
 10 48  1  6
 11 49  1  0
 11 50  1  0
 12 51  1  0
 12 52  1  0
 14 53  1  0
 14 54  1  0
 14 55  1  0
 15 56  1  1
 16 57  1  0
 16 58  1  0
 17 59  1  0
 19 60  1  6
 20 61  1  0
 20 62  1  0
 21 63  1  0
 21 64  1  0
 22 65  1  6
 23 66  1  0
 25 67  1  0
 25 68  1  0
 25 69  1  0
 26 70  1  0
 26 71  1  0
 26 72  1  0
 28 73  1  0
 28 74  1  0
 28 75  1  0
 29 76  1  0
 29 77  1  0
 30 78  1  0
 30 79  1  0
 32 80  1  0
 32 81  1  0
 32 82  1  0
M  END
>  <meeko>  (15) 
{"is_sidechain": [false], "intermolecular_energy": 2.731, "internal_energy": -0.839}

$$$$
EPH_relaxed_0001_pdb2pqr_Repair_48_r2_0001_out
     RDKit          3D

 82 86  0  0  0  0  0  0  0  0999 V2000
   -1.7870   14.7400    0.3370 C   0  0  0  0  0  0  0  0  0  0  0  0
   -0.4260   15.4410    0.3140 C   0  0  2  0  0  0  0  0  0  0  0  0
   -0.3720   16.5710   -0.7330 C   0  0  0  0  0  0  0  0  0  0  0  0
    1.0470   17.0540   -1.0460 C   0  0  0  0  0  0  0  0  0  0  0  0
    1.4130   18.2600   -0.2340 C   0  0  2  0  0  0  0  0  0  0  0  0
    2.1680   19.2520   -0.9430 O   0  0  0  0  0  0  0  0  0  0  0  0
    2.8390   18.6070    0.1520 C   0  0  0  0  0  0  0  0  0  0  0  0
    3.9910   17.7460   -0.2630 C   0  0  0  0  0  0  0  0  0  0  0  0
    3.0640   19.5000    1.3320 C   0  0  0  0  0  0  0  0  0  0  0  0
    0.6780   14.4260    0.0410 C   0  0  1  0  0  0  0  0  0  0  0  0
    0.8370   13.3930    1.1890 C   0  0  0  0  0  0  0  0  0  0  0  0
    1.2260   12.0460    0.5290 C   0  0  0  0  0  0  0  0  0  0  0  0
    1.6010   12.4180   -0.9250 C   0  0  1  0  0  0  0  0  0  0  0  0
    3.0680   12.9440   -0.8390 C   0  0  0  0  0  0  0  0  0  0  0  0
    1.4570   11.2810   -1.9890 C   0  0  2  0  0  0  0  0  0  0  0  0
    2.3610   10.0580   -1.7620 C   0  0  0  0  0  0  0  0  0  0  0  0
    3.6980   10.1220   -2.4240 C   0  0  0  0  0  0  0  0  0  0  0  0
    4.0490   10.9840   -3.3960 C   0  0  0  0  0  0  0  0  0  0  0  0
    3.0230   11.9530   -3.9970 C   0  0  1  0  0  0  0  0  0  0  0  0
    3.1320   11.9280   -5.5450 C   0  0  0  0  0  0  0  0  0  0  0  0
    4.5500   12.2010   -6.0360 C   0  0  0  0  0  0  0  0  0  0  0  0
    5.5310   11.1820   -5.4630 C   0  0  2  0  0  0  0  0  0  0  0  0
    5.2290    9.8940   -6.0100 O   0  0  0  0  0  0  0  0  0  0  0  0
    5.5040   11.1100   -3.9110 C   0  0  0  0  0  0  0  0  0  0  0  0
    6.1180   12.4030   -3.3200 C   0  0  0  0  0  0  0  0  0  0  0  0
    6.4340    9.9480   -3.4700 C   0  0  0  0  0  0  0  0  0  0  0  0
    1.5280   11.7840   -3.4880 C   0  0  1  0  0  0  0  0  0  0  0  0
    0.7890   10.7150   -4.3510 C   0  0  0  0  0  0  0  0  0  0  0  0
    0.7540   13.1380   -3.7020 C   0  0  0  0  0  0  0  0  0  0  0  0
    0.8370   14.1730   -2.5640 C   0  0  0  0  0  0  0  0  0  0  0  0
    0.5230   13.5270   -1.2110 C   0  0  2  0  0  0  0  0  0  0  0  0
   -0.9540   13.0080   -1.2600 C   0  0  0  0  0  0  0  0  0  0  0  0
   -2.0991   14.5793    1.3795 H   0  0  0  0  0  0  0  0  0  0  0  0
   -2.5311   15.3670   -0.1760 H   0  0  0  0  0  0  0  0  0  0  0  0
   -1.7086   13.7701   -0.1760 H   0  0  0  0  0  0  0  0  0  0  0  0
   -0.2741   15.8989    1.3026 H   0  0  0  0  0  0  0  0  0  0  0  0
   -0.8268   16.2031   -1.6645 H   0  0  0  0  0  0  0  0  0  0  0  0
   -0.9166   17.4276   -0.3093 H   0  0  0  0  0  0  0  0  0  0  0  0
    1.7570   16.2442   -0.8218 H   0  0  0  0  0  0  0  0  0  0  0  0
    1.0886   17.3308   -2.1098 H   0  0  0  0  0  0  0  0  0  0  0  0
    0.4893   18.1723    0.3568 H   0  0  0  0  0  0  0  0  0  0  0  0
    4.5035   17.3630    0.6318 H   0  0  0  0  0  0  0  0  0  0  0  0
    3.6203   16.9017   -0.8629 H   0  0  0  0  0  0  0  0  0  0  0  0
    4.6957   18.3406   -0.8629 H   0  0  0  0  0  0  0  0  0  0  0  0
    2.9194   18.9259    2.2591 H   0  0  0  0  0  0  0  0  0  0  0  0
    4.0899   19.8957    1.3020 H   0  0  0  0  0  0  0  0  0  0  0  0
    2.3481   20.3346    1.3020 H   0  0  0  0  0  0  0  0  0  0  0  0
    1.5296   15.1100   -0.0892 H   0  0  0  0  0  0  0  0  0  0  0  0
    1.6268   13.7167    1.8829 H   0  0  0  0  0  0  0  0  0  0  0  0
   -0.0956   13.2957    1.7642 H   0  0  0  0  0  0  0  0  0  0  0  0
    2.0838   11.5929    1.0475 H   0  0  0  0  0  0  0  0  0  0  0  0
    0.4110   11.3086    0.5740 H   0  0  0  0  0  0  0  0  0  0  0  0
    3.3588   13.0483    0.2167 H   0  0  0  0  0  0  0  0  0  0  0  0
    3.7427   12.2318   -1.3366 H   0  0  0  0  0  0  0  0  0  0  0  0
    3.1364   13.9227   -1.3366 H   0  0  0  0  0  0  0  0  0  0  0  0
    0.4292   10.9272   -1.8201 H   0  0  0  0  0  0  0  0  0  0  0  0
    2.5225    9.9509   -0.6792 H   0  0  0  0  0  0  0  0  0  0  0  0
    1.8372    9.2037   -2.2156 H   0  0  0  0  0  0  0  0  0  0  0  0
    4.4606    9.4037   -2.0887 H   0  0  0  0  0  0  0  0  0  0  0  0
    3.2905   12.9510   -3.6197 H   0  0  0  0  0  0  0  0  0  0  0  0
    2.8191   10.9366   -5.9045 H   0  0  0  0  0  0  0  0  0  0  0  0
    2.4833   12.7246   -5.9383 H   0  0  0  0  0  0  0  0  0  0  0  0
    4.5686   12.1406   -7.1342 H   0  0  0  0  0  0  0  0  0  0  0  0
    4.8505   13.2047   -5.7009 H   0  0  0  0  0  0  0  0  0  0  0  0
    6.5442   11.5057   -5.7435 H   0  0  0  0  0  0  0  0  0  0  0  0
    6.0100    9.5950   -6.5060 H   0  0  0  0  0  0  0  0  0  0  0  0
    6.0936   12.3516   -2.2215 H   0  0  0  0  0  0  0  0  0  0  0  0
    7.1596   12.5027   -3.6594 H   0  0  0  0  0  0  0  0  0  0  0  0
    5.5370   13.2732   -3.6594 H   0  0  0  0  0  0  0  0  0  0  0  0
    6.4696    9.9036   -2.3715 H   0  0  0  0  0  0  0  0  0  0  0  0
    6.0445    8.9973   -3.8630 H   0  0  0  0  0  0  0  0  0  0  0  0
    7.4469   10.1197   -3.8630 H   0  0  0  0  0  0  0  0  0  0  0  0
    0.2891    9.9918   -3.6899 H   0  0  0  0  0  0  0  0  0  0  0  0
    0.0396   11.2104   -4.9858 H   0  0  0  0  0  0  0  0  0  0  0  0
    1.5172   10.1890   -4.9858 H   0  0  0  0  0  0  0  0  0  0  0  0
    1.1546   13.6102   -4.6111 H   0  0  0  0  0  0  0  0  0  0  0  0
   -0.3079   12.8567   -3.7582 H   0  0  0  0  0  0  0  0  0  0  0  0
    1.8526   14.5945   -2.5344 H   0  0  0  0  0  0  0  0  0  0  0  0
    0.0970   14.9642   -2.7550 H   0  0  0  0  0  0  0  0  0  0  0  0
   -1.3304   12.8757   -0.2349 H   0  0  0  0  0  0  0  0  0  0  0  0
   -1.5822   13.7392   -1.7898 H   0  0  0  0  0  0  0  0  0  0  0  0
   -0.9867   12.0445   -1.7898 H   0  0  0  0  0  0  0  0  0  0  0  0
  1  2  1  0
  2  3  1  0
  3  4  1  0
  4  5  1  0
  5  6  1  0
  6  7  1  0
  7  8  1  0
  7  9  1  0
  2 10  1  0
 10 11  1  0
 11 12  1  0
 12 13  1  0
 13 14  1  1
 13 15  1  0
 15 16  1  0
 16 17  1  0
 17 18  2  0
 18 19  1  0
 19 20  1  0
 20 21  1  0
 21 22  1  0
 22 23  1  0
 22 24  1  0
 24 25  1  0
 24 26  1  0
 19 27  1  0
 27 28  1  6
 27 29  1  0
 29 30  1  0
 30 31  1  0
 31 32  1  6
  7  5  1  0
 31 10  1  0
 31 13  1  0
 27 15  1  0
 24 18  1  0
  1 33  1  0
  1 34  1  0
  1 35  1  0
  2 36  1  1
  3 37  1  0
  3 38  1  0
  4 39  1  0
  4 40  1  0
  5 41  1  1
  8 42  1  0
  8 43  1  0
  8 44  1  0
  9 45  1  0
  9 46  1  0
  9 47  1  0
 10 48  1  6
 11 49  1  0
 11 50  1  0
 12 51  1  0
 12 52  1  0
 14 53  1  0
 14 54  1  0
 14 55  1  0
 15 56  1  6
 16 57  1  0
 16 58  1  0
 17 59  1  0
 19 60  1  1
 20 61  1  0
 20 62  1  0
 21 63  1  0
 21 64  1  0
 22 65  1  1
 23 66  1  0
 25 67  1  0
 25 68  1  0
 25 69  1  0
 26 70  1  0
 26 71  1  0
 26 72  1  0
 28 73  1  0
 28 74  1  0
 28 75  1  0
 29 76  1  0
 29 77  1  0
 30 78  1  0
 30 79  1  0
 32 80  1  0
 32 81  1  0
 32 82  1  0
M  END
>  <meeko>  (16) 
{"is_sidechain": [false], "intermolecular_energy": 2.731, "internal_energy": -0.839}

$$$$
EPH_relaxed_0001_pdb2pqr_Repair_48_r2_0001_out
     RDKit          3D

 82 86  0  0  0  0  0  0  0  0999 V2000
    3.1030   14.8250   -7.5530 C   0  0  0  0  0  0  0  0  0  0  0  0
    1.5800   14.8750   -7.4020 C   0  0  2  0  0  0  0  0  0  0  0  0
    0.9710   16.1250   -8.0680 C   0  0  0  0  0  0  0  0  0  0  0  0
    1.9000   16.7940   -9.0860 C   0  0  0  0  0  0  0  0  0  0  0  0
    1.5670   16.3900  -10.4900 C   0  0  2  0  0  0  0  0  0  0  0  0
    0.9840   15.0860  -10.6150 O   0  0  0  0  0  0  0  0  0  0  0  0
    2.2720   15.2660  -11.2260 C   0  0  0  0  0  0  0  0  0  0  0  0
    3.3670   14.4770  -10.5810 C   0  0  0  0  0  0  0  0  0  0  0  0
    2.2350   15.2580  -12.7230 C   0  0  0  0  0  0  0  0  0  0  0  0
    1.2030   14.8360   -5.9250 C   0  0  1  0  0  0  0  0  0  0  0  0
   -0.0480   15.6970   -5.6060 C   0  0  0  0  0  0  0  0  0  0  0  0
   -0.8230   14.9600   -4.4830 C   0  0  0  0  0  0  0  0  0  0  0  0
    0.1640   13.8880   -3.9670 C   0  0  1  0  0  0  0  0  0  0  0  0
    1.1090   14.6520   -2.9860 C   0  0  0  0  0  0  0  0  0  0  0  0
   -0.4730   12.6300   -3.2920 C   0  0  2  0  0  0  0  0  0  0  0  0
   -1.2830   12.9140   -2.0150 C   0  0  0  0  0  0  0  0  0  0  0  0
   -0.5070   12.8570   -0.7410 C   0  0  0  0  0  0  0  0  0  0  0  0
    0.7150   12.3130   -0.5940 C   0  0  0  0  0  0  0  0  0  0  0  0
    1.4020   11.5900   -1.7600 C   0  0  1  0  0  0  0  0  0  0  0  0
    1.9870   10.2430   -1.2620 C   0  0  0  0  0  0  0  0  0  0  0  0
    2.9090   10.4150   -0.0580 C   0  0  0  0  0  0  0  0  0  0  0  0
    2.1740   11.0840    1.1000 C   0  0  2  0  0  0  0  0  0  0  0  0
    1.1610   10.1940    1.5790 O   0  0  0  0  0  0  0  0  0  0  0  0
    1.5330   12.4460    0.7140 C   0  0  0  0  0  0  0  0  0  0  0  0
    2.6460   13.4990    0.4870 C   0  0  0  0  0  0  0  0  0  0  0  0
    0.7050   12.9450    1.9290 C   0  0  0  0  0  0  0  0  0  0  0  0
    0.5340   11.4270   -3.0820 C   0  0  1  0  0  0  0  0  0  0  0  0
   -0.3310   10.1320   -2.9940 C   0  0  0  0  0  0  0  0  0  0  0  0
    1.5000   11.2330   -4.3100 C   0  0  0  0  0  0  0  0  0  0  0  0
    2.0000   12.5120   -5.0090 C   0  0  0  0  0  0  0  0  0  0  0  0
    0.8360   13.4580   -5.3210 C   0  0  2  0  0  0  0  0  0  0  0  0
   -0.1200   12.7250   -6.3230 C   0  0  0  0  0  0  0  0  0  0  0  0
    3.5699   14.8097   -6.5571 H   0  0  0  0  0  0  0  0  0  0  0  0
    3.3871   13.9170   -8.1052 H   0  0  0  0  0  0  0  0  0  0  0  0
    3.4460   15.7124   -8.1052 H   0  0  0  0  0  0  0  0  0  0  0  0
    1.1674   13.9937   -7.9149 H   0  0  0  0  0  0  0  0  0  0  0  0
    0.0463   15.8278   -8.5844 H   0  0  0  0  0  0  0  0  0  0  0  0
    0.7880   16.8584   -7.2689 H   0  0  0  0  0  0  0  0  0  0  0  0
    1.8001   17.8858   -8.9961 H   0  0  0  0  0  0  0  0  0  0  0  0
    2.9303   16.4733   -8.8723 H   0  0  0  0  0  0  0  0  0  0  0  0
    1.3551   17.4336  -10.7657 H   0  0  0  0  0  0  0  0  0  0  0  0
    3.2726   14.5450   -9.4872 H   0  0  0  0  0  0  0  0  0  0  0  0
    3.2918   13.4242  -10.8908 H   0  0  0  0  0  0  0  0  0  0  0  0
    4.3419   14.8816  -10.8908 H   0  0  0  0  0  0  0  0  0  0  0  0
    1.2126   15.0370  -13.0633 H   0  0  0  0  0  0  0  0  0  0  0  0
    2.5428   16.2434  -13.1027 H   0  0  0  0  0  0  0  0  0  0  0  0
    2.9224   14.4877  -13.1027 H   0  0  0  0  0  0  0  0  0  0  0  0
    2.1425   15.2012   -5.4846 H   0  0  0  0  0  0  0  0  0  0  0  0
    0.2574   16.6964   -5.2626 H   0  0  0  0  0  0  0  0  0  0  0  0
   -0.6761   15.8277   -6.4995 H   0  0  0  0  0  0  0  0  0  0  0  0
   -1.0952   15.6573   -3.6770 H   0  0  0  0  0  0  0  0  0  0  0  0
   -1.7643   14.5207   -4.8448 H   0  0  0  0  0  0  0  0  0  0  0  0
    0.8243   14.4218   -1.9487 H   0  0  0  0  0  0  0  0  0  0  0  0
    2.1488   14.3377   -3.1592 H   0  0  0  0  0  0  0  0  0  0  0  0
    1.0195   15.7346   -3.1592 H   0  0  0  0  0  0  0  0  0  0  0  0
   -1.2064   12.3050   -4.0447 H   0  0  0  0  0  0  0  0  0  0  0  0
   -1.7160   13.9212   -2.1043 H   0  0  0  0  0  0  0  0  0  0  0  0
   -2.0358   12.1147   -1.9484 H   0  0  0  0  0  0  0  0  0  0  0  0
   -0.9734   13.2967    0.1529 H   0  0  0  0  0  0  0  0  0  0  0  0
    2.2170   12.2510   -2.0899 H   0  0  0  0  0  0  0  0  0  0  0  0
    1.1557    9.5810   -0.9778 H   0  0  0  0  0  0  0  0  0  0  0  0
    2.5836    9.8148   -2.0810 H   0  0  0  0  0  0  0  0  0  0  0  0
    3.2668    9.4265    0.2657 H   0  0  0  0  0  0  0  0  0  0  0  0
    3.7556   11.0528   -0.3521 H   0  0  0  0  0  0  0  0  0  0  0  0
    2.9171   11.2979    1.8823 H   0  0  0  0  0  0  0  0  0  0  0  0
    0.4020   10.7340    1.8570 H   0  0  0  0  0  0  0  0  0  0  0  0
    3.0199   13.8527    1.4592 H   0  0  0  0  0  0  0  0  0  0  0  0
    3.4715   13.0436   -0.0797 H   0  0  0  0  0  0  0  0  0  0  0  0
    2.2370   14.3485   -0.0797 H   0  0  0  0  0  0  0  0  0  0  0  0
    1.2045   12.6439    2.8616 H   0  0  0  0  0  0  0  0  0  0  0  0
    0.6255   14.0415    1.8931 H   0  0  0  0  0  0  0  0  0  0  0  0
   -0.3017   12.5030    1.8931 H   0  0  0  0  0  0  0  0  0  0  0  0
   -0.5018    9.8762   -1.9379 H   0  0  0  0  0  0  0  0  0  0  0  0
   -1.2974   10.3021   -3.4910 H   0  0  0  0  0  0  0  0  0  0  0  0
    0.1963    9.3044   -3.4910 H   0  0  0  0  0  0  0  0  0  0  0  0
    2.3827   10.6808   -3.9551 H   0  0  0  0  0  0  0  0  0  0  0  0
    0.9008   10.7063   -5.0674 H   0  0  0  0  0  0  0  0  0  0  0  0
    2.7147   13.0263   -4.3497 H   0  0  0  0  0  0  0  0  0  0  0  0
    2.4840   12.2280   -5.9551 H   0  0  0  0  0  0  0  0  0  0  0  0
   -0.8700   12.1499   -5.7601 H   0  0  0  0  0  0  0  0  0  0  0  0
   -0.6271   13.4680   -6.9561 H   0  0  0  0  0  0  0  0  0  0  0  0
    0.4659   12.0425   -6.9561 H   0  0  0  0  0  0  0  0  0  0  0  0
  1  2  1  0
  2  3  1  0
  3  4  1  0
  4  5  1  0
  5  6  1  0
  6  7  1  0
  7  8  1  0
  7  9  1  0
  2 10  1  0
 10 11  1  0
 11 12  1  0
 12 13  1  0
 13 14  1  1
 13 15  1  0
 15 16  1  0
 16 17  1  0
 17 18  2  0
 18 19  1  0
 19 20  1  0
 20 21  1  0
 21 22  1  0
 22 23  1  0
 22 24  1  0
 24 25  1  0
 24 26  1  0
 19 27  1  0
 27 28  1  1
 27 29  1  0
 29 30  1  0
 30 31  1  0
 31 32  1  6
  7  5  1  0
 31 10  1  0
 31 13  1  0
 27 15  1  0
 24 18  1  0
  1 33  1  0
  1 34  1  0
  1 35  1  0
  2 36  1  6
  3 37  1  0
  3 38  1  0
  4 39  1  0
  4 40  1  0
  5 41  1  6
  8 42  1  0
  8 43  1  0
  8 44  1  0
  9 45  1  0
  9 46  1  0
  9 47  1  0
 10 48  1  1
 11 49  1  0
 11 50  1  0
 12 51  1  0
 12 52  1  0
 14 53  1  0
 14 54  1  0
 14 55  1  0
 15 56  1  6
 16 57  1  0
 16 58  1  0
 17 59  1  0
 19 60  1  6
 20 61  1  0
 20 62  1  0
 21 63  1  0
 21 64  1  0
 22 65  1  1
 23 66  1  0
 25 67  1  0
 25 68  1  0
 25 69  1  0
 26 70  1  0
 26 71  1  0
 26 72  1  0
 28 73  1  0
 28 74  1  0
 28 75  1  0
 29 76  1  0
 29 77  1  0
 30 78  1  0
 30 79  1  0
 32 80  1  0
 32 81  1  0
 32 82  1  0
M  END
>  <meeko>  (17) 
{"is_sidechain": [false], "intermolecular_energy": 2.731, "internal_energy": -0.839}

$$$$
EPH_relaxed_0001_pdb2pqr_Repair_48_r2_0001_out
     RDKit          3D

 82 86  0  0  0  0  0  0  0  0999 V2000
   -2.8730   10.3630   -0.6600 C   0  0  0  0  0  0  0  0  0  0  0  0
   -1.4620   10.4960   -1.2390 C   0  0  2  0  0  0  0  0  0  0  0  0
   -0.6070    9.2400   -0.9810 C   0  0  0  0  0  0  0  0  0  0  0  0
    0.8950    9.5250   -0.8920 C   0  0  0  0  0  0  0  0  0  0  0  0
    1.5030    9.7220   -2.2480 C   0  0  2  0  0  0  0  0  0  0  0  0
    2.6630    8.9200   -2.5060 O   0  0  0  0  0  0  0  0  0  0  0  0
    2.8700   10.3420   -2.4700 C   0  0  0  0  0  0  0  0  0  0  0  0
    3.7120   10.8060   -1.3230 C   0  0  0  0  0  0  0  0  0  0  0  0
    3.1750   10.9410   -3.8080 C   0  0  0  0  0  0  0  0  0  0  0  0
   -0.7740   11.7240   -0.6540 C   0  0  1  0  0  0  0  0  0  0  0  0
    0.4000   11.3570    0.2910 C   0  0  0  0  0  0  0  0  0  0  0  0
    1.4840   12.4510    0.1040 C   0  0  0  0  0  0  0  0  0  0  0  0
    0.7700   13.5760   -0.6810 C   0  0  1  0  0  0  0  0  0  0  0  0
   -0.0280   14.3740    0.3970 C   0  0  0  0  0  0  0  0  0  0  0  0
    1.6880   14.5140   -1.5310 C   0  0  2  0  0  0  0  0  0  0  0  0
    2.7130   15.3310   -0.7240 C   0  0  0  0  0  0  0  0  0  0  0  0
    2.2420   16.6720   -0.2670 C   0  0  0  0  0  0  0  0  0  0  0  0
    1.1560   17.3190   -0.7300 C   0  0  0  0  0  0  0  0  0  0  0  0
    0.3300   16.7430   -1.8870 C   0  0  1  0  0  0  0  0  0  0  0  0
    0.0360   17.8620   -2.9210 C   0  0  0  0  0  0  0  0  0  0  0  0
   -0.6200   19.0850   -2.2880 C   0  0  0  0  0  0  0  0  0  0  0  0
    0.2590   19.6640   -1.1820 C   0  0  2  0  0  0  0  0  0  0  0  0
    1.4530   20.1900   -1.7690 O   0  0  0  0  0  0  0  0  0  0  0  0
    0.6290   18.6250   -0.0870 C   0  0  0  0  0  0  0  0  0  0  0  0
   -0.6280   18.2810    0.7500 C   0  0  0  0  0  0  0  0  0  0  0  0
    1.6300   19.2970    0.8910 C   0  0  0  0  0  0  0  0  0  0  0  0
    0.9060   15.4250   -2.5620 C   0  0  1  0  0  0  0  0  0  0  0  0
    1.9230   15.8020   -3.6830 C   0  0  0  0  0  0  0  0  0  0  0  0
   -0.2700   14.6530   -3.2700 C   0  0  0  0  0  0  0  0  0  0  0  0
   -1.0620   13.6520   -2.4080 C   0  0  0  0  0  0  0  0  0  0  0  0
   -0.1190   12.7140   -1.6500 C   0  0  2  0  0  0  0  0  0  0  0  0
    0.6820   11.8820   -2.7090 C   0  0  0  0  0  0  0  0  0  0  0  0
   -2.8204   10.3680    0.4387 H   0  0  0  0  0  0  0  0  0  0  0  0
   -3.4905   11.2069   -1.0014 H   0  0  0  0  0  0  0  0  0  0  0  0
   -3.3219    9.4186   -1.0014 H   0  0  0  0  0  0  0  0  0  0  0  0
   -1.5611   10.6089   -2.3287 H   0  0  0  0  0  0  0  0  0  0  0  0
   -0.9315    8.7880   -0.0321 H   0  0  0  0  0  0  0  0  0  0  0  0
   -0.7562    8.5679   -1.8389 H   0  0  0  0  0  0  0  0  0  0  0  0
    1.0503   10.4363   -0.2958 H   0  0  0  0  0  0  0  0  0  0  0  0
    1.3813    8.6582   -0.4207 H   0  0  0  0  0  0  0  0  0  0  0  0
    0.5165    9.9354   -2.6853 H   0  0  0  0  0  0  0  0  0  0  0  0
    3.2222   10.5361   -0.3758 H   0  0  0  0  0  0  0  0  0  0  0  0
    4.6998   10.3249   -1.3751 H   0  0  0  0  0  0  0  0  0  0  0  0
    3.8329   11.8981   -1.3751 H   0  0  0  0  0  0  0  0  0  0  0  0
    3.6702   11.9135   -3.6701 H   0  0  0  0  0  0  0  0  0  0  0  0
    3.8398   10.2672   -4.3684 H   0  0  0  0  0  0  0  0  0  0  0  0
    2.2391   11.0823   -4.3684 H   0  0  0  0  0  0  0  0  0  0  0  0
   -1.6342   12.2004   -0.1610 H   0  0  0  0  0  0  0  0  0  0  0  0
    0.0547   11.3405    1.3353 H   0  0  0  0  0  0  0  0  0  0  0  0
    0.8002   10.3600    0.0548 H   0  0  0  0  0  0  0  0  0  0  0  0
    1.8356   12.8202    1.0787 H   0  0  0  0  0  0  0  0  0  0  0  0
    2.3723   12.0729   -0.4232 H   0  0  0  0  0  0  0  0  0  0  0  0
    0.2911   14.0549    1.4002 H   0  0  0  0  0  0  0  0  0  0  0  0
    0.1663   15.4498    0.2753 H   0  0  0  0  0  0  0  0  0  0  0  0
   -1.1038   14.1797    0.2753 H   0  0  0  0  0  0  0  0  0  0  0  0
    2.2766   13.7961   -2.1211 H   0  0  0  0  0  0  0  0  0  0  0  0
    2.9889   14.7462    0.1659 H   0  0  0  0  0  0  0  0  0  0  0  0
    3.5555   15.5203   -1.4054 H   0  0  0  0  0  0  0  0  0  0  0  0
    2.8322   17.1738    0.5140 H   0  0  0  0  0  0  0  0  0  0  0  0
   -0.6115   16.3895   -1.4413 H   0  0  0  0  0  0  0  0  0  0  0  0
    0.9841   18.1710   -3.3854 H   0  0  0  0  0  0  0  0  0  0  0  0
   -0.6647   17.4542   -3.6644 H   0  0  0  0  0  0  0  0  0  0  0  0
   -0.7762   19.8509   -3.0619 H   0  0  0  0  0  0  0  0  0  0  0  0
   -1.5816   18.7803   -1.8492 H   0  0  0  0  0  0  0  0  0  0  0  0
   -0.3190   20.4550   -0.6817 H   0  0  0  0  0  0  0  0  0  0  0  0
    1.8950   20.7360   -1.0970 H   0  0  0  0  0  0  0  0  0  0  0  0
   -0.3850   18.3475    1.8208 H   0  0  0  0  0  0  0  0  0  0  0  0
   -1.4329   18.9919    0.5118 H   0  0  0  0  0  0  0  0  0  0  0  0
   -0.9588   17.2593    0.5118 H   0  0  0  0  0  0  0  0  0  0  0  0
    1.3240   19.0916    1.9274 H   0  0  0  0  0  0  0  0  0  0  0  0
    2.6383   18.8921    0.7193 H   0  0  0  0  0  0  0  0  0  0  0  0
    1.6370   20.3835    0.7193 H   0  0  0  0  0  0  0  0  0  0  0  0
    2.8609   16.1497   -3.2254 H   0  0  0  0  0  0  0  0  0  0  0  0
    2.1248   14.9189   -4.3071 H   0  0  0  0  0  0  0  0  0  0  0  0
    1.5005   16.6032   -4.3071 H   0  0  0  0  0  0  0  0  0  0  0  0
   -0.9810   15.4029   -3.6469 H   0  0  0  0  0  0  0  0  0  0  0  0
    0.2131   14.0436   -4.0480 H   0  0  0  0  0  0  0  0  0  0  0  0
   -1.6754   14.2078   -1.6835 H   0  0  0  0  0  0  0  0  0  0  0  0
   -1.6998   13.0477   -3.0698 H   0  0  0  0  0  0  0  0  0  0  0  0
    1.3556   11.1824   -2.1924 H   0  0  0  0  0  0  0  0  0  0  0  0
   -0.0206   11.3169   -3.3390 H   0  0  0  0  0  0  0  0  0  0  0  0
    1.2734   12.5627   -3.3390 H   0  0  0  0  0  0  0  0  0  0  0  0
  1  2  1  0
  2  3  1  0
  3  4  1  0
  4  5  1  0
  5  6  1  0
  6  7  1  0
  7  8  1  0
  7  9  1  0
  2 10  1  0
 10 11  1  0
 11 12  1  0
 12 13  1  0
 13 14  1  1
 13 15  1  0
 15 16  1  0
 16 17  1  0
 17 18  2  0
 18 19  1  0
 19 20  1  0
 20 21  1  0
 21 22  1  0
 22 23  1  0
 22 24  1  0
 24 25  1  0
 24 26  1  0
 19 27  1  0
 27 28  1  6
 27 29  1  0
 29 30  1  0
 30 31  1  0
 31 32  1  6
  7  5  1  0
 31 10  1  0
 31 13  1  0
 27 15  1  0
 24 18  1  0
  1 33  1  0
  1 34  1  0
  1 35  1  0
  2 36  1  6
  3 37  1  0
  3 38  1  0
  4 39  1  0
  4 40  1  0
  5 41  1  6
  8 42  1  0
  8 43  1  0
  8 44  1  0
  9 45  1  0
  9 46  1  0
  9 47  1  0
 10 48  1  1
 11 49  1  0
 11 50  1  0
 12 51  1  0
 12 52  1  0
 14 53  1  0
 14 54  1  0
 14 55  1  0
 15 56  1  6
 16 57  1  0
 16 58  1  0
 17 59  1  0
 19 60  1  1
 20 61  1  0
 20 62  1  0
 21 63  1  0
 21 64  1  0
 22 65  1  1
 23 66  1  0
 25 67  1  0
 25 68  1  0
 25 69  1  0
 26 70  1  0
 26 71  1  0
 26 72  1  0
 28 73  1  0
 28 74  1  0
 28 75  1  0
 29 76  1  0
 29 77  1  0
 30 78  1  0
 30 79  1  0
 32 80  1  0
 32 81  1  0
 32 82  1  0
M  END
>  <meeko>  (18) 
{"is_sidechain": [false], "intermolecular_energy": 2.731, "internal_energy": -0.839}

$$$$
EPH_relaxed_0001_pdb2pqr_Repair_48_r2_0001_out
     RDKit          3D

 82 86  0  0  0  0  0  0  0  0999 V2000
    0.2750   17.7430   -2.5850 C   0  0  0  0  0  0  0  0  0  0  0  0
   -0.0110   16.8740   -1.3570 C   0  0  2  0  0  0  0  0  0  0  0  0
   -0.0370   17.6990   -0.0550 C   0  0  0  0  0  0  0  0  0  0  0  0
    0.5740   19.0960   -0.1990 C   0  0  0  0  0  0  0  0  0  0  0  0
    1.6720   19.3260    0.7940 C   0  0  2  0  0  0  0  0  0  0  0  0
    2.7180   20.1950    0.3390 O   0  0  0  0  0  0  0  0  0  0  0  0
    3.0940   18.8320    0.5980 C   0  0  0  0  0  0  0  0  0  0  0  0
    3.4930   18.0680   -0.6250 C   0  0  0  0  0  0  0  0  0  0  0  0
    3.9660   18.6660    1.8030 C   0  0  0  0  0  0  0  0  0  0  0  0
    1.0290   15.7650   -1.2510 C   0  0  1  0  0  0  0  0  0  0  0  0
    1.1240   15.1700    0.1790 C   0  0  0  0  0  0  0  0  0  0  0  0
    1.4320   13.6590    0.0160 C   0  0  0  0  0  0  0  0  0  0  0  0
    1.8300   13.5010   -1.4700 C   0  0  1  0  0  0  0  0  0  0  0  0
    3.3260   13.9410   -1.5340 C   0  0  0  0  0  0  0  0  0  0  0  0
    1.6180   12.0830   -2.0950 C   0  0  2  0  0  0  0  0  0  0  0  0
    2.4470   10.9570   -1.4530 C   0  0  0  0  0  0  0  0  0  0  0  0
    3.7860   10.7200   -2.0700 C   0  0  0  0  0  0  0  0  0  0  0  0
    4.1890   11.1840   -3.2670 C   0  0  0  0  0  0  0  0  0  0  0  0
    3.2240   11.9530   -4.1800 C   0  0  1  0  0  0  0  0  0  0  0  0
    3.3320   11.4050   -5.6270 C   0  0  0  0  0  0  0  0  0  0  0  0
    4.7640   11.4160   -6.1510 C   0  0  0  0  0  0  0  0  0  0  0  0
    5.6820   10.5940   -5.2500 C   0  0  2  0  0  0  0  0  0  0  0  0
    5.3030    9.2170   -5.3400 O   0  0  0  0  0  0  0  0  0  0  0  0
    5.6490   11.0480   -3.7640 C   0  0  0  0  0  0  0  0  0  0  0  0
    6.3390   12.4280   -3.6270 C   0  0  0  0  0  0  0  0  0  0  0  0
    6.5060   10.0500   -2.9400 C   0  0  0  0  0  0  0  0  0  0  0  0
    1.7200   12.0490   -3.6740 C   0  0  1  0  0  0  0  0  0  0  0  0
    0.9190   10.7960   -4.1450 C   0  0  0  0  0  0  0  0  0  0  0  0
    1.0300   13.2950   -4.3450 C   0  0  0  0  0  0  0  0  0  0  0  0
    1.1750   14.6450   -3.6180 C   0  0  0  0  0  0  0  0  0  0  0  0
    0.8210   14.5080   -2.1340 C   0  0  2  0  0  0  0  0  0  0  0  0
   -0.6850   14.0880   -2.0370 C   0  0  0  0  0  0  0  0  0  0  0  0
    0.6035   18.7411   -2.2594 H   0  0  0  0  0  0  0  0  0  0  0  0
    1.0666   17.2753   -3.1888 H   0  0  0  0  0  0  0  0  0  0  0  0
   -0.6396   17.8369   -3.1888 H   0  0  0  0  0  0  0  0  0  0  0  0
   -1.0106   16.4342   -1.4886 H   0  0  0  0  0  0  0  0  0  0  0  0
   -1.0835   17.8090    0.2656 H   0  0  0  0  0  0  0  0  0  0  0  0
    0.5728   17.1558    0.6819 H   0  0  0  0  0  0  0  0  0  0  0  0
    0.9835   19.2030   -1.2143 H   0  0  0  0  0  0  0  0  0  0  0  0
   -0.2173   19.8371   -0.0128 H   0  0  0  0  0  0  0  0  0  0  0  0
    0.9665   19.2299    1.6325 H   0  0  0  0  0  0  0  0  0  0  0  0
    3.9832   17.1294   -0.3273 H   0  0  0  0  0  0  0  0  0  0  0  0
    2.5985   17.8407   -1.2234 H   0  0  0  0  0  0  0  0  0  0  0  0
    4.1907   18.6723   -1.2234 H   0  0  0  0  0  0  0  0  0  0  0  0
    3.3594   18.7815    2.7133 H   0  0  0  0  0  0  0  0  0  0  0  0
    4.4218   17.6650    1.7907 H   0  0  0  0  0  0  0  0  0  0  0  0
    4.7577   19.4296    1.7907 H   0  0  0  0  0  0  0  0  0  0  0  0
    1.9208   16.3160   -1.5844 H   0  0  0  0  0  0  0  0  0  0  0  0
    1.9311   15.6625    0.7412 H   0  0  0  0  0  0  0  0  0  0  0  0
    0.1867   15.3242    0.7337 H   0  0  0  0  0  0  0  0  0  0  0  0
    2.2605   13.3582    0.6742 H   0  0  0  0  0  0  0  0  0  0  0  0
    0.5742   13.0264    0.2880 H   0  0  0  0  0  0  0  0  0  0  0  0
    3.7183   14.0564   -0.5128 H   0  0  0  0  0  0  0  0  0  0  0  0
    3.9105   13.1767   -2.0671 H   0  0  0  0  0  0  0  0  0  0  0  0
    3.4036   14.9000   -2.0671 H   0  0  0  0  0  0  0  0  0  0  0  0
    0.5706   11.8657   -1.8386 H   0  0  0  0  0  0  0  0  0  0  0  0
    2.6008   11.2098   -0.3935 H   0  0  0  0  0  0  0  0  0  0  0  0
    1.8731   10.0312   -1.6060 H   0  0  0  0  0  0  0  0  0  0  0  0
    4.5040   10.1146   -1.4973 H   0  0  0  0  0  0  0  0  0  0  0  0
    3.5516   13.0028   -4.1538 H   0  0  0  0  0  0  0  0  0  0  0  0
    2.9594   10.3701   -5.6409 H   0  0  0  0  0  0  0  0  0  0  0  0
    2.7334   12.0596   -6.2775 H   0  0  0  0  0  0  0  0  0  0  0  0
    4.7794   10.9899   -7.1650 H   0  0  0  0  0  0  0  0  0  0  0  0
    5.1245   12.4552   -6.1644 H   0  0  0  0  0  0  0  0  0  0  0  0
    6.7129   10.7469   -5.6020 H   0  0  0  0  0  0  0  0  0  0  0  0
    5.9050    8.7080   -4.7710 H   0  0  0  0  0  0  0  0  0  0  0  0
    6.4613   12.6726   -2.5615 H   0  0  0  0  0  0  0  0  0  0  0  0
    7.3262   12.3940   -4.1111 H   0  0  0  0  0  0  0  0  0  0  0  0
    5.7195   13.1974   -4.1111 H   0  0  0  0  0  0  0  0  0  0  0  0
    6.3498   10.2319   -1.8665 H   0  0  0  0  0  0  0  0  0  0  0  0
    6.2064    9.0203   -3.1848 H   0  0  0  0  0  0  0  0  0  0  0  0
    7.5692   10.1905   -3.1848 H   0  0  0  0  0  0  0  0  0  0  0  0
    0.5621   10.2377   -3.2670 H   0  0  0  0  0  0  0  0  0  0  0  0
    0.0583   11.1171   -4.7501 H   0  0  0  0  0  0  0  0  0  0  0  0
    1.5718   10.1496   -4.7501 H   0  0  0  0  0  0  0  0  0  0  0  0
    1.4592   13.4112   -5.3511 H   0  0  0  0  0  0  0  0  0  0  0  0
   -0.0470   13.0723   -4.3258 H   0  0  0  0  0  0  0  0  0  0  0  0
    2.2143   14.9934   -3.7096 H   0  0  0  0  0  0  0  0  0  0  0  0
    0.4853   15.3677   -4.0784 H   0  0  0  0  0  0  0  0  0  0  0  0
   -0.9756   14.0069   -0.9792 H   0  0  0  0  0  0  0  0  0  0  0  0
   -1.3097   14.8462   -2.5318 H   0  0  0  0  0  0  0  0  0  0  0  0
   -0.8272   13.1159   -2.5318 H   0  0  0  0  0  0  0  0  0  0  0  0
  1  2  1  0
  2  3  1  0
  3  4  1  0
  4  5  1  0
  5  6  1  0
  6  7  1  0
  7  8  1  0
  7  9  1  0
  2 10  1  0
 10 11  1  0
 11 12  1  0
 12 13  1  0
 13 14  1  1
 13 15  1  0
 15 16  1  0
 16 17  1  0
 17 18  2  0
 18 19  1  0
 19 20  1  0
 20 21  1  0
 21 22  1  0
 22 23  1  0
 22 24  1  0
 24 25  1  0
 24 26  1  0
 19 27  1  0
 27 28  1  6
 27 29  1  0
 29 30  1  0
 30 31  1  0
 31 32  1  6
  7  5  1  0
 31 10  1  0
 31 13  1  0
 27 15  1  0
 24 18  1  0
  1 33  1  0
  1 34  1  0
  1 35  1  0
  2 36  1  6
  3 37  1  0
  3 38  1  0
  4 39  1  0
  4 40  1  0
  5 41  1  1
  8 42  1  0
  8 43  1  0
  8 44  1  0
  9 45  1  0
  9 46  1  0
  9 47  1  0
 10 48  1  6
 11 49  1  0
 11 50  1  0
 12 51  1  0
 12 52  1  0
 14 53  1  0
 14 54  1  0
 14 55  1  0
 15 56  1  6
 16 57  1  0
 16 58  1  0
 17 59  1  0
 19 60  1  6
 20 61  1  0
 20 62  1  0
 21 63  1  0
 21 64  1  0
 22 65  1  6
 23 66  1  0
 25 67  1  0
 25 68  1  0
 25 69  1  0
 26 70  1  0
 26 71  1  0
 26 72  1  0
 28 73  1  0
 28 74  1  0
 28 75  1  0
 29 76  1  0
 29 77  1  0
 30 78  1  0
 30 79  1  0
 32 80  1  0
 32 81  1  0
 32 82  1  0
M  END
>  <meeko>  (19) 
{"is_sidechain": [false], "intermolecular_energy": 2.731, "internal_energy": -0.839}

$$$$
