EPH_relaxed_0001_pdb2pqr_Repair_30_r2_0001_out
     RDKit          3D

 82 86  0  0  0  0  0  0  0  0999 V2000
   -1.7170    8.5890   -1.8890 C   0  0  0  0  0  0  0  0  0  0  0  0
   -2.0930    9.1060   -0.4980 C   0  0  2  0  0  0  0  0  0  0  0  0
   -3.5880    9.4720   -0.3990 C   0  0  0  0  0  0  0  0  0  0  0  0
   -4.5100    8.2580   -0.2500 C   0  0  0  0  0  0  0  0  0  0  0  0
   -5.2070    7.9300   -1.5360 C   0  0  2  0  0  0  0  0  0  0  0  0
   -6.3300    8.7680   -1.8380 O   0  0  0  0  0  0  0  0  0  0  0  0
   -6.6190    7.3800   -1.6050 C   0  0  0  0  0  0  0  0  0  0  0  0
   -7.4190    7.1240   -0.3660 C   0  0  0  0  0  0  0  0  0  0  0  0
   -7.0370    6.6360   -2.8350 C   0  0  0  0  0  0  0  0  0  0  0  0
   -1.2370   10.3160   -0.1440 C   0  0  1  0  0  0  0  0  0  0  0  0
   -0.2150   10.0150    0.9850 C   0  0  0  0  0  0  0  0  0  0  0  0
    1.0580   10.8410    0.6690 C   0  0  0  0  0  0  0  0  0  0  0  0
    0.6150   11.8330   -0.4320 C   0  0  1  0  0  0  0  0  0  0  0  0
   -0.0980   12.9910    0.3350 C   0  0  0  0  0  0  0  0  0  0  0  0
    1.7430   12.3720   -1.3710 C   0  0  2  0  0  0  0  0  0  0  0  0
    2.8410   13.1900   -0.6690 C   0  0  0  0  0  0  0  0  0  0  0  0
    2.5900   14.6600   -0.5940 C   0  0  0  0  0  0  0  0  0  0  0  0
    1.6740   15.3350   -1.3120 C   0  0  0  0  0  0  0  0  0  0  0  0
    0.8380   14.6280   -2.3870 C   0  0  1  0  0  0  0  0  0  0  0  0
    0.8230   15.4850   -3.6790 C   0  0  0  0  0  0  0  0  0  0  0  0
    0.3570   16.9160   -3.4260 C   0  0  0  0  0  0  0  0  0  0  0  0
    1.2480   17.6050   -2.3960 C   0  0  2  0  0  0  0  0  0  0  0  0
    2.5550   17.7720   -2.9540 O   0  0  0  0  0  0  0  0  0  0  0  0
    1.3480   16.8270   -1.0540 C   0  0  0  0  0  0  0  0  0  0  0  0
   -0.0040   16.9070   -0.3040 C   0  0  0  0  0  0  0  0  0  0  0  0
    2.3860   17.5540   -0.1570 C   0  0  0  0  0  0  0  0  0  0  0  0
    1.2120   13.1080   -2.6670 C   0  0  1  0  0  0  0  0  0  0  0  0
    2.3540   13.0280   -3.7250 C   0  0  0  0  0  0  0  0  0  0  0  0
   -0.0330   12.3810   -3.3000 C   0  0  0  0  0  0  0  0  0  0  0  0
   -1.0510   11.7660   -2.3210 C   0  0  0  0  0  0  0  0  0  0  0  0
   -0.3460   10.9090   -1.2640 C   0  0  2  0  0  0  0  0  0  0  0  0
    0.3610    9.7230   -2.0040 C   0  0  0  0  0  0  0  0  0  0  0  0
   -1.0727    7.7031   -1.7891 H   0  0  0  0  0  0  0  0  0  0  0  0
   -2.6304    8.3180   -2.4387 H   0  0  0  0  0  0  0  0  0  0  0  0
   -1.1777    9.3745   -2.4387 H   0  0  0  0  0  0  0  0  0  0  0  0
   -1.9033    8.2936    0.2190 H   0  0  0  0  0  0  0  0  0  0  0  0
   -3.7287   10.1245    0.4753 H   0  0  0  0  0  0  0  0  0  0  0  0
   -3.8606    9.9692   -1.3416 H   0  0  0  0  0  0  0  0  0  0  0  0
   -3.9096    7.3905    0.0614 H   0  0  0  0  0  0  0  0  0  0  0  0
   -5.2750    8.4987    0.5029 H   0  0  0  0  0  0  0  0  0  0  0  0
   -4.2625    7.5967   -1.9909 H   0  0  0  0  0  0  0  0  0  0  0  0
   -6.7974    7.3229    0.5194 H   0  0  0  0  0  0  0  0  0  0  0  0
   -8.2975    7.7859   -0.3535 H   0  0  0  0  0  0  0  0  0  0  0  0
   -7.7500    6.0751   -0.3535 H   0  0  0  0  0  0  0  0  0  0  0  0
   -7.5567    5.7109   -2.5451 H   0  0  0  0  0  0  0  0  0  0  0  0
   -7.7137    7.2651   -3.4319 H   0  0  0  0  0  0  0  0  0  0  0  0
   -6.1477    6.3853   -3.4319 H   0  0  0  0  0  0  0  0  0  0  0  0
   -2.0295   11.0299    0.1249 H   0  0  0  0  0  0  0  0  0  0  0  0
   -0.6283   10.3142    1.9595 H   0  0  0  0  0  0  0  0  0  0  0  0
    0.0140    8.9402    1.0337 H   0  0  0  0  0  0  0  0  0  0  0  0
    1.4023   11.3814    1.5631 H   0  0  0  0  0  0  0  0  0  0  0  0
    1.8975   10.2074    0.3469 H   0  0  0  0  0  0  0  0  0  0  0  0
    0.0017   12.8291    1.4184 H   0  0  0  0  0  0  0  0  0  0  0  0
    0.3658   13.9508    0.0635 H   0  0  0  0  0  0  0  0  0  0  0  0
   -1.1638   13.0090    0.0635 H   0  0  0  0  0  0  0  0  0  0  0  0
    2.2309   11.4457   -1.7086 H   0  0  0  0  0  0  0  0  0  0  0  0
    2.9443   12.8098    0.3580 H   0  0  0  0  0  0  0  0  0  0  0  0
    3.7492   13.0664   -1.2773 H   0  0  0  0  0  0  0  0  0  0  0  0
    3.2065   15.2405    0.1081 H   0  0  0  0  0  0  0  0  0  0  0  0
   -0.1806   14.5518   -1.9787 H   0  0  0  0  0  0  0  0  0  0  0  0
    1.8409   15.5139   -4.0949 H   0  0  0  0  0  0  0  0  0  0  0  0
    0.1128   15.0212   -4.3794 H   0  0  0  0  0  0  0  0  0  0  0  0
    0.3956   17.4795   -4.3699 H   0  0  0  0  0  0  0  0  0  0  0  0
   -0.6717   16.8871   -3.0375 H   0  0  0  0  0  0  0  0  0  0  0  0
    0.7895   18.5770   -2.1615 H   0  0  0  0  0  0  0  0  0  0  0  0
    2.6050   18.6690   -3.3250 H   0  0  0  0  0  0  0  0  0  0  0  0
    0.1773   16.8963    0.7809 H   0  0  0  0  0  0  0  0  0  0  0  0
   -0.5219   17.8374   -0.5800 H   0  0  0  0  0  0  0  0  0  0  0  0
   -0.6280   16.0442   -0.5800 H   0  0  0  0  0  0  0  0  0  0  0  0
    2.1404   17.3820    0.9013 H   0  0  0  0  0  0  0  0  0  0  0  0
    3.3918   17.1619   -0.3684 H   0  0  0  0  0  0  0  0  0  0  0  0
    2.3613   18.6332   -0.3684 H   0  0  0  0  0  0  0  0  0  0  0  0
    3.3248   12.9600   -3.2122 H   0  0  0  0  0  0  0  0  0  0  0  0
    2.2088   12.1378   -4.3547 H   0  0  0  0  0  0  0  0  0  0  0  0
    2.3343   13.9297   -4.3547 H   0  0  0  0  0  0  0  0  0  0  0  0
   -0.5686   13.1163   -3.9184 H   0  0  0  0  0  0  0  0  0  0  0  0
    0.3839   11.5276   -3.8550 H   0  0  0  0  0  0  0  0  0  0  0  0
   -1.6020   12.5751   -1.8193 H   0  0  0  0  0  0  0  0  0  0  0  0
   -1.7413   11.1251   -2.8891 H   0  0  0  0  0  0  0  0  0  0  0  0
    0.7773    9.0246   -1.2631 H   0  0  0  0  0  0  0  0  0  0  0  0
   -0.3704    9.1959   -2.6343 H   0  0  0  0  0  0  0  0  0  0  0  0
    1.1725   10.1157   -2.6343 H   0  0  0  0  0  0  0  0  0  0  0  0
  1  2  1  0
  2  3  1  0
  3  4  1  0
  4  5  1  0
  5  6  1  0
  6  7  1  0
  7  8  1  0
  7  9  1  0
  2 10  1  0
 10 11  1  0
 11 12  1  0
 12 13  1  0
 13 14  1  1
 13 15  1  0
 15 16  1  0
 16 17  1  0
 17 18  2  0
 18 19  1  0
 19 20  1  0
 20 21  1  0
 21 22  1  0
 22 23  1  0
 22 24  1  0
 24 25  1  0
 24 26  1  0
 19 27  1  0
 27 28  1  6
 27 29  1  0
 29 30  1  0
 30 31  1  0
 31 32  1  6
  7  5  1  0
 31 10  1  0
 31 13  1  0
 27 15  1  0
 24 18  1  0
  1 33  1  0
  1 34  1  0
  1 35  1  0
  2 36  1  1
  3 37  1  0
  3 38  1  0
  4 39  1  0
  4 40  1  0
  5 41  1  6
  8 42  1  0
  8 43  1  0
  8 44  1  0
  9 45  1  0
  9 46  1  0
  9 47  1  0
 10 48  1  1
 11 49  1  0
 11 50  1  0
 12 51  1  0
 12 52  1  0
 14 53  1  0
 14 54  1  0
 14 55  1  0
 15 56  1  6
 16 57  1  0
 16 58  1  0
 17 59  1  0
 19 60  1  1
 20 61  1  0
 20 62  1  0
 21 63  1  0
 21 64  1  0
 22 65  1  1
 23 66  1  0
 25 67  1  0
 25 68  1  0
 25 69  1  0
 26 70  1  0
 26 71  1  0
 26 72  1  0
 28 73  1  0
 28 74  1  0
 28 75  1  0
 29 76  1  0
 29 77  1  0
 30 78  1  0
 30 79  1  0
 32 80  1  0
 32 81  1  0
 32 82  1  0
M  END
>  <meeko>  (1) 
{"is_sidechain": [false], "intermolecular_energy": 2.731, "internal_energy": -0.839}

$$$$
EPH_relaxed_0001_pdb2pqr_Repair_30_r2_0001_out
     RDKit          3D

 82 86  0  0  0  0  0  0  0  0999 V2000
    4.2150   17.4340   -0.5500 C   0  0  0  0  0  0  0  0  0  0  0  0
    2.8530   18.0240   -0.1750 C   0  0  2  0  0  0  0  0  0  0  0  0
    2.8810   18.7280    1.1960 C   0  0  0  0  0  0  0  0  0  0  0  0
    4.2710   18.7700    1.8370 C   0  0  0  0  0  0  0  0  0  0  0  0
    4.2180   19.2900    3.2420 C   0  0  2  0  0  0  0  0  0  0  0  0
    5.2750   20.1950    3.5860 O   0  0  0  0  0  0  0  0  0  0  0  0
    5.2490   18.9480    4.3000 C   0  0  0  0  0  0  0  0  0  0  0  0
    6.4080   18.0500    3.9990 C   0  0  0  0  0  0  0  0  0  0  0  0
    4.8690   19.0870    5.7420 C   0  0  0  0  0  0  0  0  0  0  0  0
    1.7940   16.9280   -0.1760 C   0  0  1  0  0  0  0  0  0  0  0  0
    0.3750   17.4680   -0.4960 C   0  0  0  0  0  0  0  0  0  0  0  0
   -0.3510   16.3650   -1.3090 C   0  0  0  0  0  0  0  0  0  0  0  0
    0.5400   15.1110   -1.1470 C   0  0  1  0  0  0  0  0  0  0  0  0
    0.1490   14.5190    0.2430 C   0  0  0  0  0  0  0  0  0  0  0  0
    0.4360   14.0400   -2.2810 C   0  0  2  0  0  0  0  0  0  0  0  0
   -0.9490   13.3900   -2.4410 C   0  0  0  0  0  0  0  0  0  0  0  0
   -1.1700   12.1520   -1.6360 C   0  0  0  0  0  0  0  0  0  0  0  0
   -0.2070   11.4250   -1.0400 C   0  0  0  0  0  0  0  0  0  0  0  0
    1.2750   11.7750   -1.2280 C   0  0  1  0  0  0  0  0  0  0  0  0
    2.0760   10.4850   -1.5440 C   0  0  0  0  0  0  0  0  0  0  0  0
    1.8630    9.3930   -0.5000 C   0  0  0  0  0  0  0  0  0  0  0  0
    0.3850    9.0310   -0.3840 C   0  0  2  0  0  0  0  0  0  0  0  0
   -0.0360    8.4140   -1.6040 O   0  0  0  0  0  0  0  0  0  0  0  0
   -0.5230   10.2550   -0.0760 C   0  0  0  0  0  0  0  0  0  0  0  0
   -0.2720   10.7380    1.3740 C   0  0  0  0  0  0  0  0  0  0  0  0
   -2.0000    9.7780   -0.1250 C   0  0  0  0  0  0  0  0  0  0  0  0
    1.5850   12.9510   -2.2510 C   0  0  1  0  0  0  0  0  0  0  0  0
    1.6970   12.3830   -3.6980 C   0  0  0  0  0  0  0  0  0  0  0  0
    2.9900   13.5740   -1.9080 C   0  0  0  0  0  0  0  0  0  0  0  0
    3.0110   14.7100   -0.8680 C   0  0  0  0  0  0  0  0  0  0  0  0
    1.9630   15.7770   -1.2000 C   0  0  2  0  0  0  0  0  0  0  0  0
    2.3420   16.4060   -2.5830 C   0  0  0  0  0  0  0  0  0  0  0  0
    4.7743   17.1917    0.3657 H   0  0  0  0  0  0  0  0  0  0  0  0
    4.0676   16.5190   -1.1426 H   0  0  0  0  0  0  0  0  0  0  0  0
    4.7817   18.1673   -1.1426 H   0  0  0  0  0  0  0  0  0  0  0  0
    2.6032   18.7838   -0.9302 H   0  0  0  0  0  0  0  0  0  0  0  0
    2.5282   19.7614    1.0632 H   0  0  0  0  0  0  0  0  0  0  0  0
    2.2334   18.1473    1.8693 H   0  0  0  0  0  0  0  0  0  0  0  0
    4.6890   17.7526    1.8489 H   0  0  0  0  0  0  0  0  0  0  0  0
    4.9019   19.4483    1.2438 H   0  0  0  0  0  0  0  0  0  0  0  0
    3.1189   19.2454    3.2416 H   0  0  0  0  0  0  0  0  0  0  0  0
    6.8568   17.7023    4.9412 H   0  0  0  0  0  0  0  0  0  0  0  0
    6.0594   17.1839    3.4173 H   0  0  0  0  0  0  0  0  0  0  0  0
    7.1596   18.6039    3.4173 H   0  0  0  0  0  0  0  0  0  0  0  0
    5.7137   18.7780    6.3752 H   0  0  0  0  0  0  0  0  0  0  0  0
    4.6156   20.1360    5.9549 H   0  0  0  0  0  0  0  0  0  0  0  0
    3.9986   18.4491    5.9549 H   0  0  0  0  0  0  0  0  0  0  0  0
    1.9246   16.5449    0.8468 H   0  0  0  0  0  0  0  0  0  0  0  0
   -0.1714   17.6729    0.4364 H   0  0  0  0  0  0  0  0  0  0  0  0
    0.4293   18.4073   -1.0658 H   0  0  0  0  0  0  0  0  0  0  0  0
   -1.3568   16.1818   -0.9031 H   0  0  0  0  0  0  0  0  0  0  0  0
   -0.4882   16.6460   -2.3636 H   0  0  0  0  0  0  0  0  0  0  0  0
    0.5662   15.1507    1.0411 H   0  0  0  0  0  0  0  0  0  0  0  0
   -0.9468   14.4895    0.3338 H   0  0  0  0  0  0  0  0  0  0  0  0
    0.5520   13.4995    0.3338 H   0  0  0  0  0  0  0  0  0  0  0  0
    0.5893   14.6426   -3.1884 H   0  0  0  0  0  0  0  0  0  0  0  0
   -1.7075   14.1289   -2.1432 H   0  0  0  0  0  0  0  0  0  0  0  0
   -1.0214   13.0842   -3.4952 H   0  0  0  0  0  0  0  0  0  0  0  0
   -2.2074   11.8049   -1.5204 H   0  0  0  0  0  0  0  0  0  0  0  0
    1.6112   12.1978   -0.2698 H   0  0  0  0  0  0  0  0  0  0  0  0
    1.7559   10.1026   -2.5245 H   0  0  0  0  0  0  0  0  0  0  0  0
    3.1445   10.7464   -1.5403 H   0  0  0  0  0  0  0  0  0  0  0  0
    2.4310    8.4980   -0.7940 H   0  0  0  0  0  0  0  0  0  0  0  0
    2.2109    9.7660    0.4746 H   0  0  0  0  0  0  0  0  0  0  0  0
    0.2801    8.3410    0.4662 H   0  0  0  0  0  0  0  0  0  0  0  0
   -0.8740    7.9530   -1.4270 H   0  0  0  0  0  0  0  0  0  0  0  0
   -0.6603    9.9908    2.0818 H   0  0  0  0  0  0  0  0  0  0  0  0
    0.8082   10.8690    1.5350 H   0  0  0  0  0  0  0  0  0  0  0  0
   -0.7857   11.6973    1.5350 H   0  0  0  0  0  0  0  0  0  0  0  0
   -2.3799    9.6553    0.9000 H   0  0  0  0  0  0  0  0  0  0  0  0
   -2.6092   10.5251   -0.6549 H   0  0  0  0  0  0  0  0  0  0  0  0
   -2.0572    8.8157   -0.6549 H   0  0  0  0  0  0  0  0  0  0  0  0
    1.9096   11.3047   -3.6532 H   0  0  0  0  0  0  0  0  0  0  0  0
    0.7490   12.5480   -4.2311 H   0  0  0  0  0  0  0  0  0  0  0  0
    2.5114   12.8955   -4.2311 H   0  0  0  0  0  0  0  0  0  0  0  0
    3.6296   12.7636   -1.5285 H   0  0  0  0  0  0  0  0  0  0  0  0
    3.3368   14.0349   -2.8446 H   0  0  0  0  0  0  0  0  0  0  0  0
    2.7960   14.2916    0.1263 H   0  0  0  0  0  0  0  0  0  0  0  0
    4.0057   15.1794   -0.8814 H   0  0  0  0  0  0  0  0  0  0  0  0
    2.9035   17.3378   -2.4205 H   0  0  0  0  0  0  0  0  0  0  0  0
    2.9637   15.6975   -3.1500 H   0  0  0  0  0  0  0  0  0  0  0  0
    1.4251   16.6245   -3.1500 H   0  0  0  0  0  0  0  0  0  0  0  0
  1  2  1  0
  2  3  1  0
  3  4  1  0
  4  5  1  0
  5  6  1  0
  6  7  1  0
  7  8  1  0
  7  9  1  0
  2 10  1  0
 10 11  1  0
 11 12  1  0
 12 13  1  0
 13 14  1  1
 13 15  1  0
 15 16  1  0
 16 17  1  0
 17 18  2  0
 18 19  1  0
 19 20  1  0
 20 21  1  0
 21 22  1  0
 22 23  1  0
 22 24  1  0
 24 25  1  0
 24 26  1  0
 19 27  1  0
 27 28  1  6
 27 29  1  0
 29 30  1  0
 30 31  1  0
 31 32  1  6
  7  5  1  0
 31 10  1  0
 31 13  1  0
 27 15  1  0
 24 18  1  0
  1 33  1  0
  1 34  1  0
  1 35  1  0
  2 36  1  6
  3 37  1  0
  3 38  1  0
  4 39  1  0
  4 40  1  0
  5 41  1  1
  8 42  1  0
  8 43  1  0
  8 44  1  0
  9 45  1  0
  9 46  1  0
  9 47  1  0
 10 48  1  1
 11 49  1  0
 11 50  1  0
 12 51  1  0
 12 52  1  0
 14 53  1  0
 14 54  1  0
 14 55  1  0
 15 56  1  6
 16 57  1  0
 16 58  1  0
 17 59  1  0
 19 60  1  1
 20 61  1  0
 20 62  1  0
 21 63  1  0
 21 64  1  0
 22 65  1  1
 23 66  1  0
 25 67  1  0
 25 68  1  0
 25 69  1  0
 26 70  1  0
 26 71  1  0
 26 72  1  0
 28 73  1  0
 28 74  1  0
 28 75  1  0
 29 76  1  0
 29 77  1  0
 30 78  1  0
 30 79  1  0
 32 80  1  0
 32 81  1  0
 32 82  1  0
M  END
>  <meeko>  (2) 
{"is_sidechain": [false], "intermolecular_energy": 2.731, "internal_energy": -0.839}

$$$$
EPH_relaxed_0001_pdb2pqr_Repair_30_r2_0001_out
     RDKit          3D

 82 86  0  0  0  0  0  0  0  0999 V2000
    2.3550   18.0350   -2.6760 C   0  0  0  0  0  0  0  0  0  0  0  0
    1.0330   17.6820   -1.9890 C   0  0  2  0  0  0  0  0  0  0  0  0
    1.1370   17.7630   -0.4530 C   0  0  0  0  0  0  0  0  0  0  0  0
    0.7740   19.1370    0.1170 C   0  0  0  0  0  0  0  0  0  0  0  0
   -0.6780   19.2230    0.4750 C   0  0  2  0  0  0  0  0  0  0  0  0
   -1.5200   18.2850   -0.2080 O   0  0  0  0  0  0  0  0  0  0  0  0
   -1.7540   19.6730   -0.4960 C   0  0  0  0  0  0  0  0  0  0  0  0
   -1.4210   20.0680   -1.9000 C   0  0  0  0  0  0  0  0  0  0  0  0
   -3.0440   20.1940    0.0570 C   0  0  0  0  0  0  0  0  0  0  0  0
    0.5860   16.2870   -2.4080 C   0  0  1  0  0  0  0  0  0  0  0  0
    0.6540   16.0740   -3.9440 C   0  0  0  0  0  0  0  0  0  0  0  0
    1.0600   14.5950   -4.1730 C   0  0  0  0  0  0  0  0  0  0  0  0
    0.8890   13.9250   -2.7900 C   0  0  1  0  0  0  0  0  0  0  0  0
   -0.6380   13.6200   -2.6790 C   0  0  0  0  0  0  0  0  0  0  0  0
    1.7530   12.6480   -2.5290 C   0  0  2  0  0  0  0  0  0  0  0  0
    1.4620   11.4610   -3.4630 C   0  0  0  0  0  0  0  0  0  0  0  0
    0.4170   10.5100   -2.9780 C   0  0  0  0  0  0  0  0  0  0  0  0
   -0.0560   10.4430   -1.7200 C   0  0  0  0  0  0  0  0  0  0  0  0
    0.5360   11.3190   -0.6080 C   0  0  1  0  0  0  0  0  0  0  0  0
    0.7930   10.4510    0.6520 C   0  0  0  0  0  0  0  0  0  0  0  0
   -0.4520    9.6950    1.1060 C   0  0  0  0  0  0  0  0  0  0  0  0
   -0.9770    8.7920   -0.0070 C   0  0  2  0  0  0  0  0  0  0  0  0
   -0.0220    7.7530   -0.2470 O   0  0  0  0  0  0  0  0  0  0  0  0
   -1.2630    9.5540   -1.3310 C   0  0  0  0  0  0  0  0  0  0  0  0
   -2.5010   10.4670   -1.1490 C   0  0  0  0  0  0  0  0  0  0  0  0
   -1.6500    8.5070   -2.4110 C   0  0  0  0  0  0  0  0  0  0  0  0
    1.7980   12.1950   -1.0130 C   0  0  1  0  0  0  0  0  0  0  0  0
    3.1040   11.3610   -0.8370 C   0  0  0  0  0  0  0  0  0  0  0  0
    1.9150   13.4160   -0.0270 C   0  0  0  0  0  0  0  0  0  0  0  0
    1.1320   14.6890   -0.4020 C   0  0  0  0  0  0  0  0  0  0  0  0
    1.3950   15.0850   -1.8580 C   0  0  2  0  0  0  0  0  0  0  0  0
    2.9190   15.4200   -1.9950 C   0  0  0  0  0  0  0  0  0  0  0  0
    3.1212   18.2396   -1.9137 H   0  0  0  0  0  0  0  0  0  0  0  0
    2.6785   17.1918   -3.3039 H   0  0  0  0  0  0  0  0  0  0  0  0
    2.2151   18.9273   -3.3039 H   0  0  0  0  0  0  0  0  0  0  0  0
    0.2858   18.4233   -2.3085 H   0  0  0  0  0  0  0  0  0  0  0  0
    0.4560   17.0161   -0.0190 H   0  0  0  0  0  0  0  0  0  0  0  0
    2.1887   17.5742   -0.1917 H   0  0  0  0  0  0  0  0  0  0  0  0
    1.3751   19.3182    1.0203 H   0  0  0  0  0  0  0  0  0  0  0  0
    0.9822   19.8936   -0.6538 H   0  0  0  0  0  0  0  0  0  0  0  0
   -0.4307   19.5370    1.4998 H   0  0  0  0  0  0  0  0  0  0  0  0
   -0.7121   20.9089   -1.8860 H   0  0  0  0  0  0  0  0  0  0  0  0
   -0.9664   19.2138   -2.4232 H   0  0  0  0  0  0  0  0  0  0  0  0
   -2.3397   20.3716   -2.4232 H   0  0  0  0  0  0  0  0  0  0  0  0
   -3.0047   20.1781    1.1562 H   0  0  0  0  0  0  0  0  0  0  0  0
   -3.2012   21.2261   -0.2894 H   0  0  0  0  0  0  0  0  0  0  0  0
   -3.8739   19.5605   -0.2894 H   0  0  0  0  0  0  0  0  0  0  0  0
   -0.4287   16.2837   -1.9832 H   0  0  0  0  0  0  0  0  0  0  0  0
   -0.3284   16.2717   -4.3977 H   0  0  0  0  0  0  0  0  0  0  0  0
    1.3802   16.7590   -4.4060 H   0  0  0  0  0  0  0  0  0  0  0  0
    0.4022   14.1225   -4.9174 H   0  0  0  0  0  0  0  0  0  0  0  0
    2.0855   14.4989   -4.5591 H   0  0  0  0  0  0  0  0  0  0  0  0
   -0.9243   13.5628   -1.6185 H   0  0  0  0  0  0  0  0  0  0  0  0
   -1.2087   14.4219   -3.1702 H   0  0  0  0  0  0  0  0  0  0  0  0
   -0.8569   12.6604   -3.1702 H   0  0  0  0  0  0  0  0  0  0  0  0
    2.7653   12.9904   -2.7896 H   0  0  0  0  0  0  0  0  0  0  0  0
    1.1320   11.8637   -4.4320 H   0  0  0  0  0  0  0  0  0  0  0  0
    2.3962   10.8832   -3.5217 H   0  0  0  0  0  0  0  0  0  0  0  0
   -0.0012    9.8048   -3.7113 H   0  0  0  0  0  0  0  0  0  0  0  0
   -0.2227   12.0841   -0.3867 H   0  0  0  0  0  0  0  0  0  0  0  0
    1.5840    9.7219    0.4225 H   0  0  0  0  0  0  0  0  0  0  0  0
    1.0892   11.1266    1.4679 H   0  0  0  0  0  0  0  0  0  0  0  0
   -0.1997    9.0783    1.9812 H   0  0  0  0  0  0  0  0  0  0  0  0
   -1.2327   10.4260    1.3632 H   0  0  0  0  0  0  0  0  0  0  0  0
   -1.9386    8.3780    0.3306 H   0  0  0  0  0  0  0  0  0  0  0  0
   -0.0350    7.5550   -1.1990 H   0  0  0  0  0  0  0  0  0  0  0  0
   -2.6960   10.6108   -0.0760 H   0  0  0  0  0  0  0  0  0  0  0  0
   -2.3100   11.4421   -1.6209 H   0  0  0  0  0  0  0  0  0  0  0  0
   -3.3762    9.9964   -1.6209 H   0  0  0  0  0  0  0  0  0  0  0  0
   -1.9914    7.5834   -1.9206 H   0  0  0  0  0  0  0  0  0  0  0  0
   -2.4588    8.9094   -3.0386 H   0  0  0  0  0  0  0  0  0  0  0  0
   -0.7739    8.2866   -3.0386 H   0  0  0  0  0  0  0  0  0  0  0  0
    3.3124   11.2279    0.2348 H   0  0  0  0  0  0  0  0  0  0  0  0
    2.9770   10.3765   -1.3109 H   0  0  0  0  0  0  0  0  0  0  0  0
    3.9438   11.8904   -1.3109 H   0  0  0  0  0  0  0  0  0  0  0  0
    1.5572   13.0834    0.9586 H   0  0  0  0  0  0  0  0  0  0  0  0
    2.9745   13.7102   -0.0574 H   0  0  0  0  0  0  0  0  0  0  0  0
    0.0562   14.5023   -0.2685 H   0  0  0  0  0  0  0  0  0  0  0  0
    1.4640   15.5101    0.2504 H   0  0  0  0  0  0  0  0  0  0  0  0
    3.3643   15.5179   -0.9940 H   0  0  0  0  0  0  0  0  0  0  0  0
    3.4243   14.6115   -2.5436 H   0  0  0  0  0  0  0  0  0  0  0  0
    3.0386   16.3659   -2.5436 H   0  0  0  0  0  0  0  0  0  0  0  0
  1  2  1  0
  2  3  1  0
  3  4  1  0
  4  5  1  0
  5  6  1  0
  6  7  1  0
  7  8  1  0
  7  9  1  0
  2 10  1  0
 10 11  1  0
 11 12  1  0
 12 13  1  0
 13 14  1  1
 13 15  1  0
 15 16  1  0
 16 17  1  0
 17 18  2  0
 18 19  1  0
 19 20  1  0
 20 21  1  0
 21 22  1  0
 22 23  1  0
 22 24  1  0
 24 25  1  0
 24 26  1  0
 19 27  1  0
 27 28  1  6
 27 29  1  0
 29 30  1  0
 30 31  1  0
 31 32  1  1
  7  5  1  0
 31 10  1  0
 31 13  1  0
 27 15  1  0
 24 18  1  0
  1 33  1  0
  1 34  1  0
  1 35  1  0
  2 36  1  6
  3 37  1  0
  3 38  1  0
  4 39  1  0
  4 40  1  0
  5 41  1  1
  8 42  1  0
  8 43  1  0
  8 44  1  0
  9 45  1  0
  9 46  1  0
  9 47  1  0
 10 48  1  1
 11 49  1  0
 11 50  1  0
 12 51  1  0
 12 52  1  0
 14 53  1  0
 14 54  1  0
 14 55  1  0
 15 56  1  6
 16 57  1  0
 16 58  1  0
 17 59  1  0
 19 60  1  1
 20 61  1  0
 20 62  1  0
 21 63  1  0
 21 64  1  0
 22 65  1  1
 23 66  1  0
 25 67  1  0
 25 68  1  0
 25 69  1  0
 26 70  1  0
 26 71  1  0
 26 72  1  0
 28 73  1  0
 28 74  1  0
 28 75  1  0
 29 76  1  0
 29 77  1  0
 30 78  1  0
 30 79  1  0
 32 80  1  0
 32 81  1  0
 32 82  1  0
M  END
>  <meeko>  (3) 
{"is_sidechain": [false], "intermolecular_energy": 2.731, "internal_energy": -0.839}

$$$$
EPH_relaxed_0001_pdb2pqr_Repair_30_r2_0001_out
     RDKit          3D

 82 86  0  0  0  0  0  0  0  0999 V2000
    0.4220   18.4070   -0.0160 C   0  0  0  0  0  0  0  0  0  0  0  0
    1.5100   17.3550   -0.2460 C   0  0  2  0  0  0  0  0  0  0  0  0
    2.7150   17.9250   -1.0190 C   0  0  0  0  0  0  0  0  0  0  0  0
    3.9500   18.1640   -0.1460 C   0  0  0  0  0  0  0  0  0  0  0  0
    3.5740   18.6300    1.2290 C   0  0  2  0  0  0  0  0  0  0  0  0
    3.8250   20.0190    1.4790 O   0  0  0  0  0  0  0  0  0  0  0  0
    4.5860   19.0860    2.2630 C   0  0  0  0  0  0  0  0  0  0  0  0
    6.0530   19.0970    1.9670 C   0  0  0  0  0  0  0  0  0  0  0  0
    4.1970   19.0540    3.7080 C   0  0  0  0  0  0  0  0  0  0  0  0
    0.9280   16.1610   -0.9940 C   0  0  1  0  0  0  0  0  0  0  0  0
    0.7870   16.4220   -2.5180 C   0  0  0  0  0  0  0  0  0  0  0  0
    1.0690   15.0740   -3.2300 C   0  0  0  0  0  0  0  0  0  0  0  0
    1.0340   14.0200   -2.0990 C   0  0  1  0  0  0  0  0  0  0  0  0
   -0.4820   13.7270   -1.8710 C   0  0  0  0  0  0  0  0  0  0  0  0
    1.8440   12.7070   -2.3520 C   0  0  2  0  0  0  0  0  0  0  0  0
    1.3630   11.8640   -3.5460 C   0  0  0  0  0  0  0  0  0  0  0  0
    0.3320   10.8330   -3.2250 C   0  0  0  0  0  0  0  0  0  0  0  0
    0.0190   10.3980   -1.9910 C   0  0  0  0  0  0  0  0  0  0  0  0
    0.8010   10.8830   -0.7630 C   0  0  1  0  0  0  0  0  0  0  0  0
    1.1610    9.6700    0.1340 C   0  0  0  0  0  0  0  0  0  0  0  0
   -0.0600    8.8370    0.5110 C   0  0  0  0  0  0  0  0  0  0  0  0
   -0.7770    8.3250   -0.7350 C   0  0  2  0  0  0  0  0  0  0  0  0
    0.0740    7.3880   -1.4030 O   0  0  0  0  0  0  0  0  0  0  0  0
   -1.1810    9.4580   -1.7190 C   0  0  0  0  0  0  0  0  0  0  0  0
   -2.3270   10.2980   -1.1030 C   0  0  0  0  0  0  0  0  0  0  0  0
   -1.7670    8.7950   -2.9950 C   0  0  0  0  0  0  0  0  0  0  0  0
    2.0530   11.8150   -1.0620 C   0  0  1  0  0  0  0  0  0  0  0  0
    3.3160   10.9400   -1.3250 C   0  0  0  0  0  0  0  0  0  0  0  0
    2.3690   12.6780    0.2170 C   0  0  0  0  0  0  0  0  0  0  0  0
    1.6250   14.0200    0.3510 C   0  0  0  0  0  0  0  0  0  0  0  0
    1.7240   14.8330   -0.9440 C   0  0  2  0  0  0  0  0  0  0  0  0
    3.2370   15.1620   -1.1880 C   0  0  0  0  0  0  0  0  0  0  0  0
    0.2734   18.5507    1.0644 H   0  0  0  0  0  0  0  0  0  0  0  0
    0.7297   19.3588   -0.4736 H   0  0  0  0  0  0  0  0  0  0  0  0
   -0.5189   18.0675   -0.4736 H   0  0  0  0  0  0  0  0  0  0  0  0
    1.8740   17.0339    0.7411 H   0  0  0  0  0  0  0  0  0  0  0  0
    2.9845   17.2148   -1.8146 H   0  0  0  0  0  0  0  0  0  0  0  0
    2.4080   18.9039   -1.4159 H   0  0  0  0  0  0  0  0  0  0  0  0
    4.5148   17.2238   -0.0620 H   0  0  0  0  0  0  0  0  0  0  0  0
    4.5590   18.9480   -0.6198 H   0  0  0  0  0  0  0  0  0  0  0  0
    2.7478   17.9052    1.2750 H   0  0  0  0  0  0  0  0  0  0  0  0
    6.6175   19.1012    2.9111 H   0  0  0  0  0  0  0  0  0  0  0  0
    6.3166   18.2008    1.3862 H   0  0  0  0  0  0  0  0  0  0  0  0
    6.3031   19.9970    1.3862 H   0  0  0  0  0  0  0  0  0  0  0  0
    5.0995   19.1282    4.3324 H   0  0  0  0  0  0  0  0  0  0  0  0
    3.5292   19.9002    3.9268 H   0  0  0  0  0  0  0  0  0  0  0  0
    3.6764   18.1100    3.9268 H   0  0  0  0  0  0  0  0  0  0  0  0
   -0.0228   16.0499   -0.4522 H   0  0  0  0  0  0  0  0  0  0  0  0
   -0.2310   16.7677   -2.7506 H   0  0  0  0  0  0  0  0  0  0  0  0
    1.4891   17.2000   -2.8523 H   0  0  0  0  0  0  0  0  0  0  0  0
    0.2944   14.8626   -3.9818 H   0  0  0  0  0  0  0  0  0  0  0  0
    2.0295   15.0786   -3.7661 H   0  0  0  0  0  0  0  0  0  0  0  0
   -0.6894   13.6869   -0.7915 H   0  0  0  0  0  0  0  0  0  0  0  0
   -1.0829   14.5256   -2.3304 H   0  0  0  0  0  0  0  0  0  0  0  0
   -0.7421   12.7620   -2.3304 H   0  0  0  0  0  0  0  0  0  0  0  0
    2.8341   13.0922   -2.6371 H   0  0  0  0  0  0  0  0  0  0  0  0
    0.9379   12.5478   -4.2955 H   0  0  0  0  0  0  0  0  0  0  0  0
    2.2447   11.3116   -3.9031 H   0  0  0  0  0  0  0  0  0  0  0  0
   -0.2184   10.3916   -4.0690 H   0  0  0  0  0  0  0  0  0  0  0  0
    0.1254   11.5604   -0.2201 H   0  0  0  0  0  0  0  0  0  0  0  0
    1.8711    9.0288   -0.4088 H   0  0  0  0  0  0  0  0  0  0  0  0
    1.5977   10.0615    1.0646 H   0  0  0  0  0  0  0  0  0  0  0  0
    0.2633    7.9788    1.1184 H   0  0  0  0  0  0  0  0  0  0  0  0
   -0.7554    9.4712    1.0804 H   0  0  0  0  0  0  0  0  0  0  0  0
   -1.7121    7.8486   -0.4056 H   0  0  0  0  0  0  0  0  0  0  0  0
    0.9920    7.6060   -1.1710 H   0  0  0  0  0  0  0  0  0  0  0  0
   -2.2656   10.2530   -0.0056 H   0  0  0  0  0  0  0  0  0  0  0  0
   -2.2337   11.3432   -1.4329 H   0  0  0  0  0  0  0  0  0  0  0  0
   -3.2957    9.8944   -1.4329 H   0  0  0  0  0  0  0  0  0  0  0  0
   -2.4698    7.9999   -2.7053 H   0  0  0  0  0  0  0  0  0  0  0  0
   -2.2961    9.5525   -3.5918 H   0  0  0  0  0  0  0  0  0  0  0  0
   -0.9502    8.3629   -3.5918 H   0  0  0  0  0  0  0  0  0  0  0  0
    3.7569   10.6345   -0.3646 H   0  0  0  0  0  0  0  0  0  0  0  0
    3.0297   10.0457   -1.8980 H   0  0  0  0  0  0  0  0  0  0  0  0
    4.0526   11.5223   -1.8980 H   0  0  0  0  0  0  0  0  0  0  0  0
    2.1193   12.0697    1.0988 H   0  0  0  0  0  0  0  0  0  0  0  0
    3.4321   12.9461    0.1276 H   0  0  0  0  0  0  0  0  0  0  0  0
    0.5656   13.8237    0.5726 H   0  0  0  0  0  0  0  0  0  0  0  0
    2.0876   14.5981    1.1646 H   0  0  0  0  0  0  0  0  0  0  0  0
    3.7487   15.2733   -0.2206 H   0  0  0  0  0  0  0  0  0  0  0  0
    3.7029   14.3442   -1.7573 H   0  0  0  0  0  0  0  0  0  0  0  0
    3.3212   16.0994   -1.7573 H   0  0  0  0  0  0  0  0  0  0  0  0
  1  2  1  0
  2  3  1  0
  3  4  1  0
  4  5  1  0
  5  6  1  0
  6  7  1  0
  7  8  1  0
  7  9  1  0
  2 10  1  0
 10 11  1  0
 11 12  1  0
 12 13  1  0
 13 14  1  1
 13 15  1  0
 15 16  1  0
 16 17  1  0
 17 18  2  0
 18 19  1  0
 19 20  1  0
 20 21  1  0
 21 22  1  0
 22 23  1  0
 22 24  1  0
 24 25  1  0
 24 26  1  0
 19 27  1  0
 27 28  1  6
 27 29  1  0
 29 30  1  0
 30 31  1  0
 31 32  1  6
  7  5  1  0
 31 10  1  0
 31 13  1  0
 27 15  1  0
 24 18  1  0
  1 33  1  0
  1 34  1  0
  1 35  1  0
  2 36  1  1
  3 37  1  0
  3 38  1  0
  4 39  1  0
  4 40  1  0
  5 41  1  1
  8 42  1  0
  8 43  1  0
  8 44  1  0
  9 45  1  0
  9 46  1  0
  9 47  1  0
 10 48  1  1
 11 49  1  0
 11 50  1  0
 12 51  1  0
 12 52  1  0
 14 53  1  0
 14 54  1  0
 14 55  1  0
 15 56  1  6
 16 57  1  0
 16 58  1  0
 17 59  1  0
 19 60  1  1
 20 61  1  0
 20 62  1  0
 21 63  1  0
 21 64  1  0
 22 65  1  1
 23 66  1  0
 25 67  1  0
 25 68  1  0
 25 69  1  0
 26 70  1  0
 26 71  1  0
 26 72  1  0
 28 73  1  0
 28 74  1  0
 28 75  1  0
 29 76  1  0
 29 77  1  0
 30 78  1  0
 30 79  1  0
 32 80  1  0
 32 81  1  0
 32 82  1  0
M  END
>  <meeko>  (4) 
{"is_sidechain": [false], "intermolecular_energy": 2.731, "internal_energy": -0.839}

$$$$
EPH_relaxed_0001_pdb2pqr_Repair_30_r2_0001_out
     RDKit          3D

 82 86  0  0  0  0  0  0  0  0999 V2000
    3.8380   17.7000    0.3760 C   0  0  0  0  0  0  0  0  0  0  0  0
    2.8230   18.0540   -0.7140 C   0  0  2  0  0  0  0  0  0  0  0  0
    2.1700   19.4300   -0.4760 C   0  0  0  0  0  0  0  0  0  0  0  0
    1.2830   19.4830    0.7710 C   0  0  0  0  0  0  0  0  0  0  0  0
   -0.0380   20.1310    0.4850 C   0  0  2  0  0  0  0  0  0  0  0  0
   -0.9310   20.1900    1.6050 O   0  0  0  0  0  0  0  0  0  0  0  0
   -1.3570   19.3820    0.4960 C   0  0  0  0  0  0  0  0  0  0  0  0
   -1.4210   17.9180    0.7980 C   0  0  0  0  0  0  0  0  0  0  0  0
   -2.5130   19.9580   -0.2610 C   0  0  0  0  0  0  0  0  0  0  0  0
    1.7490   16.9750   -0.7950 C   0  0  1  0  0  0  0  0  0  0  0  0
    0.4570   17.4690   -1.4970 C   0  0  0  0  0  0  0  0  0  0  0  0
   -0.1140   16.2620   -2.2850 C   0  0  0  0  0  0  0  0  0  0  0  0
    0.6710   15.0410   -1.7510 C   0  0  1  0  0  0  0  0  0  0  0  0
   -0.0380   14.6630   -0.4120 C   0  0  0  0  0  0  0  0  0  0  0  0
    0.7790   13.8130   -2.7130 C   0  0  2  0  0  0  0  0  0  0  0  0
   -0.5610   13.1540   -3.0830 C   0  0  0  0  0  0  0  0  0  0  0  0
   -1.0000   12.0510   -2.1790 C   0  0  0  0  0  0  0  0  0  0  0  0
   -0.2200   11.4150   -1.2850 C   0  0  0  0  0  0  0  0  0  0  0  0
    1.2790   11.7260   -1.1860 C   0  0  1  0  0  0  0  0  0  0  0  0
    2.0800   10.3990   -1.1270 C   0  0  0  0  0  0  0  0  0  0  0  0
    1.6010    9.4750   -0.0110 C   0  0  0  0  0  0  0  0  0  0  0  0
    0.1210    9.1420   -0.1770 C   0  0  2  0  0  0  0  0  0  0  0  0
   -0.0450    8.3530   -1.3590 O   0  0  0  0  0  0  0  0  0  0  0  0
   -0.7860   10.4020   -0.2590 C   0  0  0  0  0  0  0  0  0  0  0  0
   -0.8420   11.0940    1.1260 C   0  0  0  0  0  0  0  0  0  0  0  0
   -2.2320    9.9310   -0.5670 C   0  0  0  0  0  0  0  0  0  0  0  0
    1.8510   12.7360   -2.2710 C   0  0  1  0  0  0  0  0  0  0  0  0
    2.2580   11.9580   -3.5600 C   0  0  0  0  0  0  0  0  0  0  0  0
    3.1690   13.3950   -1.7160 C   0  0  0  0  0  0  0  0  0  0  0  0
    3.0040   14.6730   -0.8720 C   0  0  0  0  0  0  0  0  0  0  0  0
    2.0960   15.6840   -1.5790 C   0  0  2  0  0  0  0  0  0  0  0  0
    2.7940   16.0990   -2.9180 C   0  0  0  0  0  0  0  0  0  0  0  0
    3.3839   17.8584    1.3653 H   0  0  0  0  0  0  0  0  0  0  0  0
    4.1339   16.6456    0.2730 H   0  0  0  0  0  0  0  0  0  0  0  0
    4.7255   18.3417    0.2730 H   0  0  0  0  0  0  0  0  0  0  0  0
    3.3684   18.1084   -1.6677 H   0  0  0  0  0  0  0  0  0  0  0  0
    2.9682   20.1789   -0.3665 H   0  0  0  0  0  0  0  0  0  0  0  0
    1.5210   19.6317   -1.3409 H   0  0  0  0  0  0  0  0  0  0  0  0
    1.1071   18.4572    1.1271 H   0  0  0  0  0  0  0  0  0  0  0  0
    1.8006   20.0823    1.5345 H   0  0  0  0  0  0  0  0  0  0  0  0
    0.4242   20.8003   -0.2556 H   0  0  0  0  0  0  0  0  0  0  0  0
   -1.4275   17.7684    1.8878 H   0  0  0  0  0  0  0  0  0  0  0  0
   -2.3385   17.4939    0.3641 H   0  0  0  0  0  0  0  0  0  0  0  0
   -0.5440   17.4154    0.3641 H   0  0  0  0  0  0  0  0  0  0  0  0
   -3.2655   20.3330    0.4483 H   0  0  0  0  0  0  0  0  0  0  0  0
   -2.1609   20.7860   -0.8938 H   0  0  0  0  0  0  0  0  0  0  0  0
   -2.9620   19.1783   -0.8938 H   0  0  0  0  0  0  0  0  0  0  0  0
    1.6362   16.7467    0.2751 H   0  0  0  0  0  0  0  0  0  0  0  0
   -0.2728   17.8124   -0.7490 H   0  0  0  0  0  0  0  0  0  0  0  0
    0.6709   18.3134   -2.1687 H   0  0  0  0  0  0  0  0  0  0  0  0
   -1.1907   16.1463   -2.0917 H   0  0  0  0  0  0  0  0  0  0  0  0
   -0.0052   16.3847   -3.3727 H   0  0  0  0  0  0  0  0  0  0  0  0
    0.5802   14.9926    0.4360 H   0  0  0  0  0  0  0  0  0  0  0  0
   -1.0194   15.1576   -0.3644 H   0  0  0  0  0  0  0  0  0  0  0  0
   -0.1743   13.5725   -0.3644 H   0  0  0  0  0  0  0  0  0  0  0  0
    1.1516   14.2720   -3.6406 H   0  0  0  0  0  0  0  0  0  0  0  0
   -1.3376   13.9329   -3.0708 H   0  0  0  0  0  0  0  0  0  0  0  0
   -0.4120   12.6958   -4.0719 H   0  0  0  0  0  0  0  0  0  0  0  0
   -2.0499   11.7304   -2.2490 H   0  0  0  0  0  0  0  0  0  0  0  0
    1.4122   12.2848   -0.2479 H   0  0  0  0  0  0  0  0  0  0  0  0
    1.9689    9.8771   -2.0889 H   0  0  0  0  0  0  0  0  0  0  0  0
    3.1308   10.6523   -0.9226 H   0  0  0  0  0  0  0  0  0  0  0  0
    2.1851    8.5433   -0.0393 H   0  0  0  0  0  0  0  0  0  0  0  0
    1.7401    9.9867    0.9528 H   0  0  0  0  0  0  0  0  0  0  0  0
   -0.1936    8.5868    0.7190 H   0  0  0  0  0  0  0  0  0  0  0  0
    0.3030    8.8670   -2.1070 H   0  0  0  0  0  0  0  0  0  0  0  0
   -0.7805   10.3337    1.9185 H   0  0  0  0  0  0  0  0  0  0  0  0
    0.0026   11.7923    1.2214 H   0  0  0  0  0  0  0  0  0  0  0  0
   -1.7879   11.6474    1.2214 H   0  0  0  0  0  0  0  0  0  0  0  0
   -2.7694    9.7559    0.3767 H   0  0  0  0  0  0  0  0  0  0  0  0
   -2.7540   10.7056   -1.1480 H   0  0  0  0  0  0  0  0  0  0  0  0
   -2.1977    8.9976   -1.1480 H   0  0  0  0  0  0  0  0  0  0  0  0
    2.7510   11.0156   -3.2792 H   0  0  0  0  0  0  0  0  0  0  0  0
    1.3592   11.7385   -4.1550 H   0  0  0  0  0  0  0  0  0  0  0  0
    2.9509   12.5712   -4.1550 H   0  0  0  0  0  0  0  0  0  0  0  0
    3.6776   12.6465   -1.0906 H   0  0  0  0  0  0  0  0  0  0  0  0
    3.7313   13.7093   -2.6076 H   0  0  0  0  0  0  0  0  0  0  0  0
    2.5600   14.4081    0.0989 H   0  0  0  0  0  0  0  0  0  0  0  0
    3.9945   15.1302   -0.7308 H   0  0  0  0  0  0  0  0  0  0  0  0
    3.7196   16.6493   -2.6937 H   0  0  0  0  0  0  0  0  0  0  0  0
    3.0353   15.1976   -3.5004 H   0  0  0  0  0  0  0  0  0  0  0  0
    2.1173   16.7416   -3.5004 H   0  0  0  0  0  0  0  0  0  0  0  0
  1  2  1  0
  2  3  1  0
  3  4  1  0
  4  5  1  0
  5  6  1  0
  6  7  1  0
  7  8  1  0
  7  9  1  0
  2 10  1  0
 10 11  1  0
 11 12  1  0
 12 13  1  0
 13 14  1  1
 13 15  1  0
 15 16  1  0
 16 17  1  0
 17 18  2  0
 18 19  1  0
 19 20  1  0
 20 21  1  0
 21 22  1  0
 22 23  1  0
 22 24  1  0
 24 25  1  0
 24 26  1  0
 19 27  1  0
 27 28  1  6
 27 29  1  0
 29 30  1  0
 30 31  1  0
 31 32  1  6
  7  5  1  0
 31 10  1  0
 31 13  1  0
 27 15  1  0
 24 18  1  0
  1 33  1  0
  1 34  1  0
  1 35  1  0
  2 36  1  6
  3 37  1  0
  3 38  1  0
  4 39  1  0
  4 40  1  0
  5 41  1  6
  8 42  1  0
  8 43  1  0
  8 44  1  0
  9 45  1  0
  9 46  1  0
  9 47  1  0
 10 48  1  1
 11 49  1  0
 11 50  1  0
 12 51  1  0
 12 52  1  0
 14 53  1  0
 14 54  1  0
 14 55  1  0
 15 56  1  6
 16 57  1  0
 16 58  1  0
 17 59  1  0
 19 60  1  1
 20 61  1  0
 20 62  1  0
 21 63  1  0
 21 64  1  0
 22 65  1  1
 23 66  1  0
 25 67  1  0
 25 68  1  0
 25 69  1  0
 26 70  1  0
 26 71  1  0
 26 72  1  0
 28 73  1  0
 28 74  1  0
 28 75  1  0
 29 76  1  0
 29 77  1  0
 30 78  1  0
 30 79  1  0
 32 80  1  0
 32 81  1  0
 32 82  1  0
M  END
>  <meeko>  (5) 
{"is_sidechain": [false], "intermolecular_energy": 2.731, "internal_energy": -0.839}

$$$$
EPH_relaxed_0001_pdb2pqr_Repair_30_r2_0001_out
     RDKit          3D

 82 86  0  0  0  0  0  0  0  0999 V2000
   -5.0290    5.9700   -2.1250 C   0  0  0  0  0  0  0  0  0  0  0  0
   -5.4360    7.4370   -1.9600 C   0  0  2  0  0  0  0  0  0  0  0  0
   -5.2510    7.9320   -0.5120 C   0  0  0  0  0  0  0  0  0  0  0  0
   -4.1810    9.0180   -0.3650 C   0  0  0  0  0  0  0  0  0  0  0  0
   -2.8300    8.5260   -0.7870 C   0  0  2  0  0  0  0  0  0  0  0  0
   -1.7680    8.8380    0.1240 O   0  0  0  0  0  0  0  0  0  0  0  0
   -1.6880    9.4470   -1.1750 C   0  0  0  0  0  0  0  0  0  0  0  0
   -1.8460   10.9350   -1.1600 C   0  0  0  0  0  0  0  0  0  0  0  0
   -0.5870    8.9010   -2.0300 C   0  0  0  0  0  0  0  0  0  0  0  0
   -6.8850    7.6250   -2.3940 C   0  0  1  0  0  0  0  0  0  0  0  0
   -7.2050    6.9120   -3.7340 C   0  0  0  0  0  0  0  0  0  0  0  0
   -8.6670    6.4040   -3.6330 C   0  0  0  0  0  0  0  0  0  0  0  0
   -9.2430    7.1220   -2.3900 C   0  0  1  0  0  0  0  0  0  0  0  0
   -9.6390    8.5450   -2.8960 C   0  0  0  0  0  0  0  0  0  0  0  0
  -10.4370    6.4110   -1.6730 C   0  0  2  0  0  0  0  0  0  0  0  0
  -11.7070    6.2490   -2.5270 C   0  0  0  0  0  0  0  0  0  0  0  0
  -12.6860    7.3720   -2.4340 C   0  0  0  0  0  0  0  0  0  0  0  0
  -12.6910    8.3290   -1.4870 C   0  0  0  0  0  0  0  0  0  0  0  0
  -11.6990    8.2840   -0.3170 C   0  0  1  0  0  0  0  0  0  0  0  0
  -12.4530    8.5560    1.0110 C   0  0  0  0  0  0  0  0  0  0  0  0
  -13.2540    9.8540    0.9750 C   0  0  0  0  0  0  0  0  0  0  0  0
  -14.2690    9.8360   -0.1650 C   0  0  2  0  0  0  0  0  0  0  0  0
  -15.2580    8.8400    0.1140 O   0  0  0  0  0  0  0  0  0  0  0  0
  -13.6270    9.5610   -1.5540 C   0  0  0  0  0  0  0  0  0  0  0  0
  -12.7870   10.7860   -1.9900 C   0  0  0  0  0  0  0  0  0  0  0  0
  -14.7730    9.4280   -2.5920 C   0  0  0  0  0  0  0  0  0  0  0  0
  -10.7740    6.9940   -0.2410 C   0  0  1  0  0  0  0  0  0  0  0  0
  -11.5050    5.8600    0.5410 C   0  0  0  0  0  0  0  0  0  0  0  0
   -9.4790    7.3390    0.5840 C   0  0  0  0  0  0  0  0  0  0  0  0
   -8.2910    7.9270   -0.2010 C   0  0  0  0  0  0  0  0  0  0  0  0
   -7.9870    7.0890   -1.4460 C   0  0  2  0  0  0  0  0  0  0  0  0
   -7.5640    5.6580   -0.9670 C   0  0  0  0  0  0  0  0  0  0  0  0
   -4.9017    5.5111   -1.1335 H   0  0  0  0  0  0  0  0  0  0  0  0
   -5.8119    5.4325   -2.6800 H   0  0  0  0  0  0  0  0  0  0  0  0
   -4.0810    5.9127   -2.6800 H   0  0  0  0  0  0  0  0  0  0  0  0
   -4.7744    8.0385   -2.6006 H   0  0  0  0  0  0  0  0  0  0  0  0
   -6.2099    8.3391   -0.1589 H   0  0  0  0  0  0  0  0  0  0  0  0
   -4.9172    7.0690    0.0828 H   0  0  0  0  0  0  0  0  0  0  0  0
   -4.4584    9.8788   -0.9911 H   0  0  0  0  0  0  0  0  0  0  0  0
   -4.1259    9.3035    0.6959 H   0  0  0  0  0  0  0  0  0  0  0  0
   -3.2774    7.6544   -1.2871 H   0  0  0  0  0  0  0  0  0  0  0  0
   -1.8836   11.2893   -0.1193 H   0  0  0  0  0  0  0  0  0  0  0  0
   -0.9921   11.3996   -1.6748 H   0  0  0  0  0  0  0  0  0  0  0  0
   -2.7784   11.2099   -1.6748 H   0  0  0  0  0  0  0  0  0  0  0  0
    0.2133    8.5041   -1.3881 H   0  0  0  0  0  0  0  0  0  0  0  0
   -0.9817    8.0942   -2.6651 H   0  0  0  0  0  0  0  0  0  0  0  0
   -0.1836    9.7035   -2.6651 H   0  0  0  0  0  0  0  0  0  0  0  0
   -6.9241    8.7236   -2.4328 H   0  0  0  0  0  0  0  0  0  0  0  0
   -7.1064    7.6181   -4.5717 H   0  0  0  0  0  0  0  0  0  0  0  0
   -6.5092    6.0793   -3.9141 H   0  0  0  0  0  0  0  0  0  0  0  0
   -9.2352    6.6735   -4.5355 H   0  0  0  0  0  0  0  0  0  0  0  0
   -8.7237    5.3089   -3.5465 H   0  0  0  0  0  0  0  0  0  0  0  0
   -9.8221    9.2030   -2.0337 H   0  0  0  0  0  0  0  0  0  0  0  0
   -8.8217    8.9581   -3.5054 H   0  0  0  0  0  0  0  0  0  0  0  0
  -10.5522    8.4765   -3.5054 H   0  0  0  0  0  0  0  0  0  0  0  0
  -10.0478    5.3937   -1.5192 H   0  0  0  0  0  0  0  0  0  0  0  0
  -11.3993    6.1527   -3.5787 H   0  0  0  0  0  0  0  0  0  0  0  0
  -12.2250    5.3608   -2.1361 H   0  0  0  0  0  0  0  0  0  0  0  0
  -13.4696    7.4219   -3.2043 H   0  0  0  0  0  0  0  0  0  0  0  0
  -10.9709    9.0870   -0.5042 H   0  0  0  0  0  0  0  0  0  0  0  0
  -13.1433    7.7211    1.2017 H   0  0  0  0  0  0  0  0  0  0  0  0
  -11.7009    8.6504    1.8081 H   0  0  0  0  0  0  0  0  0  0  0  0
  -13.7868    9.9751    1.9297 H   0  0  0  0  0  0  0  0  0  0  0  0
  -12.5592   10.6915    0.8139 H   0  0  0  0  0  0  0  0  0  0  0  0
  -14.7191   10.8381   -0.2213 H   0  0  0  0  0  0  0  0  0  0  0  0
  -15.0800    8.4900    1.0030 H   0  0  0  0  0  0  0  0  0  0  0  0
  -12.4228   11.3171   -1.0982 H   0  0  0  0  0  0  0  0  0  0  0  0
  -11.9299   10.4478   -2.5908 H   0  0  0  0  0  0  0  0  0  0  0  0
  -13.4114   11.4636   -2.5908 H   0  0  0  0  0  0  0  0  0  0  0  0
  -15.7328    9.3166   -2.0663 H   0  0  0  0  0  0  0  0  0  0  0  0
  -14.8028   10.3287   -3.2227 H   0  0  0  0  0  0  0  0  0  0  0  0
  -14.5957    8.5444   -3.2227 H   0  0  0  0  0  0  0  0  0  0  0  0
  -11.3951    6.0305    1.6221 H   0  0  0  0  0  0  0  0  0  0  0  0
  -12.5727    5.8614    0.2762 H   0  0  0  0  0  0  0  0  0  0  0  0
  -11.0629    4.8882    0.2762 H   0  0  0  0  0  0  0  0  0  0  0  0
   -9.7614    8.0693    1.3566 H   0  0  0  0  0  0  0  0  0  0  0  0
   -9.1189    6.3743    0.9709 H   0  0  0  0  0  0  0  0  0  0  0  0
   -8.5368    8.9538   -0.5098 H   0  0  0  0  0  0  0  0  0  0  0  0
   -7.4042    7.9220    0.4498 H   0  0  0  0  0  0  0  0  0  0  0  0
   -7.5549    5.6272    0.1325 H   0  0  0  0  0  0  0  0  0  0  0  0
   -8.2814    4.9166   -1.3487 H   0  0  0  0  0  0  0  0  0  0  0  0
   -6.5588    5.4258   -1.3487 H   0  0  0  0  0  0  0  0  0  0  0  0
  1  2  1  0
  2  3  1  0
  3  4  1  0
  4  5  1  0
  5  6  1  0
  6  7  1  0
  7  8  1  0
  7  9  1  0
  2 10  1  0
 10 11  1  0
 11 12  1  0
 12 13  1  0
 13 14  1  6
 13 15  1  0
 15 16  1  0
 16 17  1  0
 17 18  2  0
 18 19  1  0
 19 20  1  0
 20 21  1  0
 21 22  1  0
 22 23  1  0
 22 24  1  0
 24 25  1  0
 24 26  1  0
 19 27  1  0
 27 28  1  1
 27 29  1  0
 29 30  1  0
 30 31  1  0
 31 32  1  1
  7  5  1  0
 31 10  1  0
 31 13  1  0
 27 15  1  0
 24 18  1  0
  1 33  1  0
  1 34  1  0
  1 35  1  0
  2 36  1  6
  3 37  1  0
  3 38  1  0
  4 39  1  0
  4 40  1  0
  5 41  1  6
  8 42  1  0
  8 43  1  0
  8 44  1  0
  9 45  1  0
  9 46  1  0
  9 47  1  0
 10 48  1  6
 11 49  1  0
 11 50  1  0
 12 51  1  0
 12 52  1  0
 14 53  1  0
 14 54  1  0
 14 55  1  0
 15 56  1  1
 16 57  1  0
 16 58  1  0
 17 59  1  0
 19 60  1  6
 20 61  1  0
 20 62  1  0
 21 63  1  0
 21 64  1  0
 22 65  1  6
 23 66  1  0
 25 67  1  0
 25 68  1  0
 25 69  1  0
 26 70  1  0
 26 71  1  0
 26 72  1  0
 28 73  1  0
 28 74  1  0
 28 75  1  0
 29 76  1  0
 29 77  1  0
 30 78  1  0
 30 79  1  0
 32 80  1  0
 32 81  1  0
 32 82  1  0
M  END
>  <meeko>  (6) 
{"is_sidechain": [false], "intermolecular_energy": 2.731, "internal_energy": -0.839}

$$$$
EPH_relaxed_0001_pdb2pqr_Repair_30_r2_0001_out
     RDKit          3D

 82 86  0  0  0  0  0  0  0  0999 V2000
    0.4060    8.8060   -2.3970 C   0  0  0  0  0  0  0  0  0  0  0  0
    1.1500    9.9500   -3.0910 C   0  0  2  0  0  0  0  0  0  0  0  0
    2.6510    9.9640   -2.7380 C   0  0  0  0  0  0  0  0  0  0  0  0
    3.5340   10.5770   -3.8290 C   0  0  0  0  0  0  0  0  0  0  0  0
    4.9290   10.8240   -3.3400 C   0  0  2  0  0  0  0  0  0  0  0  0
    5.5250   12.0360   -3.8200 O   0  0  0  0  0  0  0  0  0  0  0  0
    6.1470   10.8120   -4.2450 C   0  0  0  0  0  0  0  0  0  0  0  0
    6.0260   10.5460   -5.7130 C   0  0  0  0  0  0  0  0  0  0  0  0
    7.4910   10.5740   -3.6310 C   0  0  0  0  0  0  0  0  0  0  0  0
    0.5150   11.2850   -2.7170 C   0  0  1  0  0  0  0  0  0  0  0  0
   -0.8610   11.1170   -2.0210 C   0  0  0  0  0  0  0  0  0  0  0  0
   -0.9730   12.2530   -0.9720 C   0  0  0  0  0  0  0  0  0  0  0  0
    0.1790   13.2230   -1.3230 C   0  0  1  0  0  0  0  0  0  0  0  0
   -0.3690   14.0870   -2.5020 C   0  0  0  0  0  0  0  0  0  0  0  0
    0.7130   14.1140   -0.1540 C   0  0  2  0  0  0  0  0  0  0  0  0
   -0.3140   15.0920    0.4430 C   0  0  0  0  0  0  0  0  0  0  0  0
   -0.3550   16.4420   -0.1930 C   0  0  0  0  0  0  0  0  0  0  0  0
    0.5880   16.9510   -1.0080 C   0  0  0  0  0  0  0  0  0  0  0  0
    1.8870   16.1830   -1.2860 C   0  0  1  0  0  0  0  0  0  0  0  0
    3.0960   17.1460   -1.1540 C   0  0  0  0  0  0  0  0  0  0  0  0
    2.9530   18.3880   -2.0280 C   0  0  0  0  0  0  0  0  0  0  0  0
    1.6800   19.1560   -1.6820 C   0  0  2  0  0  0  0  0  0  0  0  0
    1.8080   19.6900   -0.3610 O   0  0  0  0  0  0  0  0  0  0  0  0
    0.3960   18.2850   -1.7710 C   0  0  0  0  0  0  0  0  0  0  0  0
    0.0910   17.9570   -3.2540 C   0  0  0  0  0  0  0  0  0  0  0  0
   -0.7970   19.1380   -1.2620 C   0  0  0  0  0  0  0  0  0  0  0  0
    2.0860   14.8370   -0.4660 C   0  0  1  0  0  0  0  0  0  0  0  0
    2.7480   15.1470    0.9120 C   0  0  0  0  0  0  0  0  0  0  0  0
    3.0900   13.9060   -1.2420 C   0  0  0  0  0  0  0  0  0  0  0  0
    2.4870   12.9630   -2.3000 C   0  0  0  0  0  0  0  0  0  0  0  0
    1.2930   12.1910   -1.7300 C   0  0  2  0  0  0  0  0  0  0  0  0
    1.8180   11.2960   -0.5570 C   0  0  0  0  0  0  0  0  0  0  0  0
    0.4841    8.9261   -1.3064 H   0  0  0  0  0  0  0  0  0  0  0  0
   -0.6533    8.8246   -2.6930 H   0  0  0  0  0  0  0  0  0  0  0  0
    0.8526    7.8453   -2.6930 H   0  0  0  0  0  0  0  0  0  0  0  0
    1.0669    9.7894   -4.1760 H   0  0  0  0  0  0  0  0  0  0  0  0
    2.7852   10.5464   -1.8145 H   0  0  0  0  0  0  0  0  0  0  0  0
    2.9639    8.9158   -2.6222 H   0  0  0  0  0  0  0  0  0  0  0  0
    3.5733    9.8873   -4.6850 H   0  0  0  0  0  0  0  0  0  0  0  0
    3.0970   11.5434   -4.1208 H   0  0  0  0  0  0  0  0  0  0  0  0
    4.7115   10.3153   -2.3892 H   0  0  0  0  0  0  0  0  0  0  0  0
    5.5752    9.5550   -5.8701 H   0  0  0  0  0  0  0  0  0  0  0  0
    5.3894   11.3156   -6.1739 H   0  0  0  0  0  0  0  0  0  0  0  0
    7.0245   10.5719   -6.1739 H   0  0  0  0  0  0  0  0  0  0  0  0
    7.4013   10.5899   -2.5348 H   0  0  0  0  0  0  0  0  0  0  0  0
    7.8731    9.5942   -3.9535 H   0  0  0  0  0  0  0  0  0  0  0  0
    8.1864   11.3630   -3.9535 H   0  0  0  0  0  0  0  0  0  0  0  0
    0.4778   11.7564   -3.7102 H   0  0  0  0  0  0  0  0  0  0  0  0
   -1.6719   11.2019   -2.7594 H   0  0  0  0  0  0  0  0  0  0  0  0
   -0.9445   10.1293   -1.5441 H   0  0  0  0  0  0  0  0  0  0  0  0
   -1.9457   12.7604   -1.0515 H   0  0  0  0  0  0  0  0  0  0  0  0
   -0.9021   11.8770    0.0593 H   0  0  0  0  0  0  0  0  0  0  0  0
   -0.9172   14.9514   -2.0992 H   0  0  0  0  0  0  0  0  0  0  0  0
    0.4705   14.4403   -3.1188 H   0  0  0  0  0  0  0  0  0  0  0  0
   -1.0464   13.4782   -3.1188 H   0  0  0  0  0  0  0  0  0  0  0  0
    0.9134   13.3737    0.6345 H   0  0  0  0  0  0  0  0  0  0  0  0
   -1.3116   14.6393    0.3439 H   0  0  0  0  0  0  0  0  0  0  0  0
   -0.0060   15.2567    1.4861 H   0  0  0  0  0  0  0  0  0  0  0  0
   -1.2292   17.0740    0.0224 H   0  0  0  0  0  0  0  0  0  0  0  0
    1.8102   15.8203   -2.3216 H   0  0  0  0  0  0  0  0  0  0  0  0
    3.1821   17.4619   -0.1039 H   0  0  0  0  0  0  0  0  0  0  0  0
    3.9927   16.6038   -1.4886 H   0  0  0  0  0  0  0  0  0  0  0  0
    3.8227   19.0424   -1.8684 H   0  0  0  0  0  0  0  0  0  0  0  0
    2.8969   18.0719   -3.0801 H   0  0  0  0  0  0  0  0  0  0  0  0
    1.5669   19.9587   -2.4256 H   0  0  0  0  0  0  0  0  0  0  0  0
    0.9120   19.8610   -0.0240 H   0  0  0  0  0  0  0  0  0  0  0  0
   -0.6573   17.1523   -3.3052 H   0  0  0  0  0  0  0  0  0  0  0  0
   -0.3009   18.8545   -3.7549 H   0  0  0  0  0  0  0  0  0  0  0  0
    1.0146   17.6313   -3.7549 H   0  0  0  0  0  0  0  0  0  0  0  0
   -0.8022   19.1417   -0.1620 H   0  0  0  0  0  0  0  0  0  0  0  0
   -0.6947   20.1690   -1.6317 H   0  0  0  0  0  0  0  0  0  0  0  0
   -1.7395   18.7078   -1.6317 H   0  0  0  0  0  0  0  0  0  0  0  0
    2.0739   14.8313    1.7219 H   0  0  0  0  0  0  0  0  0  0  0  0
    3.6994   14.6008    0.9929 H   0  0  0  0  0  0  0  0  0  0  0  0
    2.9376   16.2275    0.9929 H   0  0  0  0  0  0  0  0  0  0  0  0
    3.8191   14.5538   -1.7506 H   0  0  0  0  0  0  0  0  0  0  0  0
    3.5179   13.2427   -0.4759 H   0  0  0  0  0  0  0  0  0  0  0  0
    2.1523   13.5575   -3.1629 H   0  0  0  0  0  0  0  0  0  0  0  0
    3.2580   12.2405   -2.6058 H   0  0  0  0  0  0  0  0  0  0  0  0
    1.5479   11.7565    0.4048 H   0  0  0  0  0  0  0  0  0  0  0  0
    1.3627   10.2970   -0.6259 H   0  0  0  0  0  0  0  0  0  0  0  0
    2.9121   11.2059   -0.6259 H   0  0  0  0  0  0  0  0  0  0  0  0
  1  2  1  0
  2  3  1  0
  3  4  1  0
  4  5  1  0
  5  6  1  0
  6  7  1  0
  7  8  1  0
  7  9  1  0
  2 10  1  0
 10 11  1  0
 11 12  1  0
 12 13  1  0
 13 14  1  6
 13 15  1  0
 15 16  1  0
 16 17  1  0
 17 18  2  0
 18 19  1  0
 19 20  1  0
 20 21  1  0
 21 22  1  0
 22 23  1  0
 22 24  1  0
 24 25  1  0
 24 26  1  0
 19 27  1  0
 27 28  1  1
 27 29  1  0
 29 30  1  0
 30 31  1  0
 31 32  1  1
  7  5  1  0
 31 10  1  0
 31 13  1  0
 27 15  1  0
 24 18  1  0
  1 33  1  0
  1 34  1  0
  1 35  1  0
  2 36  1  6
  3 37  1  0
  3 38  1  0
  4 39  1  0
  4 40  1  0
  5 41  1  1
  8 42  1  0
  8 43  1  0
  8 44  1  0
  9 45  1  0
  9 46  1  0
  9 47  1  0
 10 48  1  6
 11 49  1  0
 11 50  1  0
 12 51  1  0
 12 52  1  0
 14 53  1  0
 14 54  1  0
 14 55  1  0
 15 56  1  1
 16 57  1  0
 16 58  1  0
 17 59  1  0
 19 60  1  6
 20 61  1  0
 20 62  1  0
 21 63  1  0
 21 64  1  0
 22 65  1  6
 23 66  1  0
 25 67  1  0
 25 68  1  0
 25 69  1  0
 26 70  1  0
 26 71  1  0
 26 72  1  0
 28 73  1  0
 28 74  1  0
 28 75  1  0
 29 76  1  0
 29 77  1  0
 30 78  1  0
 30 79  1  0
 32 80  1  0
 32 81  1  0
 32 82  1  0
M  END
>  <meeko>  (7) 
{"is_sidechain": [false], "intermolecular_energy": 2.731, "internal_energy": -0.839}

$$$$
EPH_relaxed_0001_pdb2pqr_Repair_30_r2_0001_out
     RDKit          3D

 82 86  0  0  0  0  0  0  0  0999 V2000
    2.7800   19.2180   -0.7420 C   0  0  0  0  0  0  0  0  0  0  0  0
    2.6780   18.2530   -1.9270 C   0  0  2  0  0  0  0  0  0  0  0  0
    1.3290   18.3780   -2.6630 C   0  0  0  0  0  0  0  0  0  0  0  0
    0.4830   19.5670   -2.2010 C   0  0  0  0  0  0  0  0  0  0  0  0
   -0.8420   19.1270   -1.6570 C   0  0  2  0  0  0  0  0  0  0  0  0
   -1.7560   20.1940   -1.3720 O   0  0  0  0  0  0  0  0  0  0  0  0
   -1.3070   19.4260   -0.2440 C   0  0  0  0  0  0  0  0  0  0  0  0
   -0.4510   20.1940    0.7140 C   0  0  0  0  0  0  0  0  0  0  0  0
   -2.3700   18.5600    0.3580 C   0  0  0  0  0  0  0  0  0  0  0  0
    2.8790   16.8200   -1.4480 C   0  0  1  0  0  0  0  0  0  0  0  0
    3.5900   16.7450   -0.0700 C   0  0  0  0  0  0  0  0  0  0  0  0
    2.9850   15.5300    0.6800 C   0  0  0  0  0  0  0  0  0  0  0  0
    2.1980   14.7560   -0.4030 C   0  0  1  0  0  0  0  0  0  0  0  0
    3.2750   13.9150   -1.1580 C   0  0  0  0  0  0  0  0  0  0  0  0
    1.0200   13.8630    0.1050 C   0  0  2  0  0  0  0  0  0  0  0  0
    1.4290   12.7120    1.0410 C   0  0  0  0  0  0  0  0  0  0  0  0
    1.7450   11.4200    0.3620 C   0  0  0  0  0  0  0  0  0  0  0  0
    1.4310   11.1070   -0.9080 C   0  0  0  0  0  0  0  0  0  0  0  0
    0.6000   12.0640   -1.7730 C   0  0  1  0  0  0  0  0  0  0  0  0
   -0.5170   11.2680   -2.4980 C   0  0  0  0  0  0  0  0  0  0  0  0
    0.0280   10.0870   -3.2940 C   0  0  0  0  0  0  0  0  0  0  0  0
    0.7980    9.1280   -2.3890 C   0  0  2  0  0  0  0  0  0  0  0  0
   -0.1200    8.5210   -1.4740 O   0  0  0  0  0  0  0  0  0  0  0  0
    1.9440    9.8190   -1.5990 C   0  0  0  0  0  0  0  0  0  0  0  0
    3.0840   10.2110   -2.5710 C   0  0  0  0  0  0  0  0  0  0  0  0
    2.5470    8.7750   -0.6210 C   0  0  0  0  0  0  0  0  0  0  0  0
    0.0480   13.3600   -1.0380 C   0  0  1  0  0  0  0  0  0  0  0  0
   -1.3170   13.0430   -0.3550 C   0  0  0  0  0  0  0  0  0  0  0  0
   -0.2410   14.4750   -2.1110 C   0  0  0  0  0  0  0  0  0  0  0  0
    0.9320   15.4020   -2.4840 C   0  0  0  0  0  0  0  0  0  0  0  0
    1.6110   15.9580   -1.2280 C   0  0  2  0  0  0  0  0  0  0  0  0
    0.5580   16.8280   -0.4600 C   0  0  0  0  0  0  0  0  0  0  0  0
    2.7201   18.6511    0.1987 H   0  0  0  0  0  0  0  0  0  0  0  0
    3.7398   19.7536   -0.7868 H   0  0  0  0  0  0  0  0  0  0  0  0
    1.9534   19.9424   -0.7868 H   0  0  0  0  0  0  0  0  0  0  0  0
    3.4700   18.5211   -2.6418 H   0  0  0  0  0  0  0  0  0  0  0  0
    1.5296   18.4918   -3.7386 H   0  0  0  0  0  0  0  0  0  0  0  0
    0.7542   17.4678   -2.4368 H   0  0  0  0  0  0  0  0  0  0  0  0
    1.0290   20.1087   -1.4146 H   0  0  0  0  0  0  0  0  0  0  0  0
    0.2983   20.2147   -3.0707 H   0  0  0  0  0  0  0  0  0  0  0  0
   -0.7968   18.1933   -2.2369 H   0  0  0  0  0  0  0  0  0  0  0  0
   -0.7354   19.9389    1.7455 H   0  0  0  0  0  0  0  0  0  0  0  0
    0.6055   19.9353    0.5503 H   0  0  0  0  0  0  0  0  0  0  0  0
   -0.5941   21.2723    0.5503 H   0  0  0  0  0  0  0  0  0  0  0  0
   -2.3070   18.6113    1.4550 H   0  0  0  0  0  0  0  0  0  0  0  0
   -3.3592   18.9126    0.0306 H   0  0  0  0  0  0  0  0  0  0  0  0
   -2.2246   17.5200    0.0306 H   0  0  0  0  0  0  0  0  0  0  0  0
    3.4609   16.4238   -2.2933 H   0  0  0  0  0  0  0  0  0  0  0  0
    4.6720   16.6038   -0.2092 H   0  0  0  0  0  0  0  0  0  0  0  0
    3.4442   17.6740    0.5007 H   0  0  0  0  0  0  0  0  0  0  0  0
    3.7806   14.9010    1.1059 H   0  0  0  0  0  0  0  0  0  0  0  0
    2.3462   15.8352    1.5219 H   0  0  0  0  0  0  0  0  0  0  0  0
    3.9233   13.4088   -0.4276 H   0  0  0  0  0  0  0  0  0  0  0  0
    2.7775   13.1639   -1.7892 H   0  0  0  0  0  0  0  0  0  0  0  0
    3.8831   14.5797   -1.7892 H   0  0  0  0  0  0  0  0  0  0  0  0
    0.4453   14.5644    0.7277 H   0  0  0  0  0  0  0  0  0  0  0  0
    2.3215   13.0294    1.6003 H   0  0  0  0  0  0  0  0  0  0  0  0
    0.5559   12.5145    1.6803 H   0  0  0  0  0  0  0  0  0  0  0  0
    2.2799   10.6598    0.9503 H   0  0  0  0  0  0  0  0  0  0  0  0
    1.2953   12.4885   -2.5121 H   0  0  0  0  0  0  0  0  0  0  0  0
   -1.2250   10.8895   -1.7460 H   0  0  0  0  0  0  0  0  0  0  0  0
   -1.0065   11.9512   -3.2077 H   0  0  0  0  0  0  0  0  0  0  0  0
   -0.8109    9.5482   -3.7587 H   0  0  0  0  0  0  0  0  0  0  0  0
    0.7135   10.4693   -4.0647 H   0  0  0  0  0  0  0  0  0  0  0  0
    1.2726    8.3740   -3.0342 H   0  0  0  0  0  0  0  0  0  0  0  0
   -1.0190    8.7040   -1.7950 H   0  0  0  0  0  0  0  0  0  0  0  0
    3.9695   10.5155   -1.9938 H   0  0  0  0  0  0  0  0  0  0  0  0
    3.3382    9.3486   -3.2048 H   0  0  0  0  0  0  0  0  0  0  0  0
    2.7541   11.0473   -3.2048 H   0  0  0  0  0  0  0  0  0  0  0  0
    2.3626    9.0942    0.4154 H   0  0  0  0  0  0  0  0  0  0  0  0
    2.0751    7.7963   -0.7927 H   0  0  0  0  0  0  0  0  0  0  0  0
    3.6305    8.6947   -0.7927 H   0  0  0  0  0  0  0  0  0  0  0  0
   -1.1955   13.0712    0.7379 H   0  0  0  0  0  0  0  0  0  0  0  0
   -2.0625   13.7919   -0.6605 H   0  0  0  0  0  0  0  0  0  0  0  0
   -1.6562   12.0422   -0.6605 H   0  0  0  0  0  0  0  0  0  0  0  0
   -0.5737   13.9727   -3.0313 H   0  0  0  0  0  0  0  0  0  0  0  0
   -0.9910   15.1327   -1.6474 H   0  0  0  0  0  0  0  0  0  0  0  0
    1.6688   14.8325   -3.0695 H   0  0  0  0  0  0  0  0  0  0  0  0
    0.5404   16.2441   -3.0735 H   0  0  0  0  0  0  0  0  0  0  0  0
    0.7035   16.7078    0.6237 H   0  0  0  0  0  0  0  0  0  0  0  0
    0.6877   17.8858   -0.7323 H   0  0  0  0  0  0  0  0  0  0  0  0
   -0.4564   16.5011   -0.7323 H   0  0  0  0  0  0  0  0  0  0  0  0
  1  2  1  0
  2  3  1  0
  3  4  1  0
  4  5  1  0
  5  6  1  0
  6  7  1  0
  7  8  1  0
  7  9  1  0
  2 10  1  0
 10 11  1  0
 11 12  1  0
 12 13  1  0
 13 14  1  6
 13 15  1  0
 15 16  1  0
 16 17  1  0
 17 18  2  0
 18 19  1  0
 19 20  1  0
 20 21  1  0
 21 22  1  0
 22 23  1  0
 22 24  1  0
 24 25  1  0
 24 26  1  0
 19 27  1  0
 27 28  1  1
 27 29  1  0
 29 30  1  0
 30 31  1  0
 31 32  1  1
  7  5  1  0
 31 10  1  0
 31 13  1  0
 27 15  1  0
 24 18  1  0
  1 33  1  0
  1 34  1  0
  1 35  1  0
  2 36  1  6
  3 37  1  0
  3 38  1  0
  4 39  1  0
  4 40  1  0
  5 41  1  6
  8 42  1  0
  8 43  1  0
  8 44  1  0
  9 45  1  0
  9 46  1  0
  9 47  1  0
 10 48  1  6
 11 49  1  0
 11 50  1  0
 12 51  1  0
 12 52  1  0
 14 53  1  0
 14 54  1  0
 14 55  1  0
 15 56  1  1
 16 57  1  0
 16 58  1  0
 17 59  1  0
 19 60  1  6
 20 61  1  0
 20 62  1  0
 21 63  1  0
 21 64  1  0
 22 65  1  6
 23 66  1  0
 25 67  1  0
 25 68  1  0
 25 69  1  0
 26 70  1  0
 26 71  1  0
 26 72  1  0
 28 73  1  0
 28 74  1  0
 28 75  1  0
 29 76  1  0
 29 77  1  0
 30 78  1  0
 30 79  1  0
 32 80  1  0
 32 81  1  0
 32 82  1  0
M  END
>  <meeko>  (8) 
{"is_sidechain": [false], "intermolecular_energy": 2.731, "internal_energy": -0.839}

$$$$
EPH_relaxed_0001_pdb2pqr_Repair_30_r2_0001_out
     RDKit          3D

 82 86  0  0  0  0  0  0  0  0999 V2000
    1.2780   19.5350   -1.9310 C   0  0  0  0  0  0  0  0  0  0  0  0
    1.3970   19.2230   -0.4370 C   0  0  2  0  0  0  0  0  0  0  0  0
    2.8170   19.4930    0.1010 C   0  0  0  0  0  0  0  0  0  0  0  0
    2.8390   20.0370    1.5330 C   0  0  0  0  0  0  0  0  0  0  0  0
    4.2060   19.9450    2.1390 C   0  0  2  0  0  0  0  0  0  0  0  0
    4.5180   18.6730    2.7230 O   0  0  0  0  0  0  0  0  0  0  0  0
    4.4520   19.7870    3.6280 C   0  0  0  0  0  0  0  0  0  0  0  0
    3.3190   19.7120    4.6030 C   0  0  0  0  0  0  0  0  0  0  0  0
    5.7820   20.1940    4.1810 C   0  0  0  0  0  0  0  0  0  0  0  0
    1.0100   17.7720   -0.1770 C   0  0  1  0  0  0  0  0  0  0  0  0
   -0.3860   17.6360    0.4890 C   0  0  0  0  0  0  0  0  0  0  0  0
   -1.0280   16.3430   -0.0770 C   0  0  0  0  0  0  0  0  0  0  0  0
    0.1350   15.6080   -0.7850 C   0  0  1  0  0  0  0  0  0  0  0  0
    0.9030   14.8760    0.3600 C   0  0  0  0  0  0  0  0  0  0  0  0
   -0.2670   14.6240   -1.9320 C   0  0  2  0  0  0  0  0  0  0  0  0
   -1.1370   13.4330   -1.4950 C   0  0  0  0  0  0  0  0  0  0  0  0
   -0.3850   12.2090   -1.0890 C   0  0  0  0  0  0  0  0  0  0  0  0
    0.9150   11.9690   -1.3430 C   0  0  0  0  0  0  0  0  0  0  0  0
    1.7440   12.9420   -2.1920 C   0  0  1  0  0  0  0  0  0  0  0  0
    2.5630   12.1450   -3.2410 C   0  0  0  0  0  0  0  0  0  0  0  0
    3.4160   11.0500   -2.6080 C   0  0  0  0  0  0  0  0  0  0  0  0
    2.5500   10.0700   -1.8200 C   0  0  2  0  0  0  0  0  0  0  0  0
    1.7140    9.3560   -2.7350 O   0  0  0  0  0  0  0  0  0  0  0  0
    1.6720   10.7610   -0.7400 C   0  0  0  0  0  0  0  0  0  0  0  0
    2.5720   11.2760    0.4110 C   0  0  0  0  0  0  0  0  0  0  0  0
    0.7450    9.6820   -0.1170 C   0  0  0  0  0  0  0  0  0  0  0  0
    0.9430   14.1550   -2.8360 C   0  0  1  0  0  0  0  0  0  0  0  0
    0.3350   13.7230   -4.2060 C   0  0  0  0  0  0  0  0  0  0  0  0
    1.9480   15.3260   -3.1470 C   0  0  0  0  0  0  0  0  0  0  0  0
    2.2120   16.3340   -2.0120 C   0  0  0  0  0  0  0  0  0  0  0  0
    0.8970   16.8350   -1.4060 C   0  0  2  0  0  0  0  0  0  0  0  0
    0.1120   17.5950   -2.5290 C   0  0  0  0  0  0  0  0  0  0  0  0
    0.8888   20.5554   -2.0626 H   0  0  0  0  0  0  0  0  0  0  0  0
    2.2690   19.4570   -2.4019 H   0  0  0  0  0  0  0  0  0  0  0  0
    0.5907   18.8168   -2.4019 H   0  0  0  0  0  0  0  0  0  0  0  0
    0.7078   19.8936    0.0971 H   0  0  0  0  0  0  0  0  0  0  0  0
    3.3821   18.5495    0.0790 H   0  0  0  0  0  0  0  0  0  0  0  0
    3.2640   20.2645   -0.5432 H   0  0  0  0  0  0  0  0  0  0  0  0
    2.5254   21.0913    1.5188 H   0  0  0  0  0  0  0  0  0  0  0  0
    2.1523   19.4300    2.1413 H   0  0  0  0  0  0  0  0  0  0  0  0
    4.6088   20.6480    1.3950 H   0  0  0  0  0  0  0  0  0  0  0  0
    3.7156   19.7383    5.6287 H   0  0  0  0  0  0  0  0  0  0  0  0
    2.6450   20.5675    4.4485 H   0  0  0  0  0  0  0  0  0  0  0  0
    2.7637   18.7751    4.4485 H   0  0  0  0  0  0  0  0  0  0  0  0
    5.7414   20.1816    5.2802 H   0  0  0  0  0  0  0  0  0  0  0  0
    6.5538   19.4909    3.8346 H   0  0  0  0  0  0  0  0  0  0  0  0
    6.0282   21.2086    3.8346 H   0  0  0  0  0  0  0  0  0  0  0  0
    1.8573   17.4655    0.4540 H   0  0  0  0  0  0  0  0  0  0  0  0
   -0.2788   17.5589    1.5810 H   0  0  0  0  0  0  0  0  0  0  0  0
   -1.0128   18.5143    0.2751 H   0  0  0  0  0  0  0  0  0  0  0  0
   -1.4400   15.7262    0.7353 H   0  0  0  0  0  0  0  0  0  0  0  0
   -1.8639   16.5563   -0.7595 H   0  0  0  0  0  0  0  0  0  0  0  0
    0.5327   15.2289    1.3338 H   0  0  0  0  0  0  0  0  0  0  0  0
    0.7391   13.7915    0.2765 H   0  0  0  0  0  0  0  0  0  0  0  0
    1.9784   15.0918    0.2765 H   0  0  0  0  0  0  0  0  0  0  0  0
   -0.9141   15.2498   -2.5641 H   0  0  0  0  0  0  0  0  0  0  0  0
   -1.7493   13.7551   -0.6398 H   0  0  0  0  0  0  0  0  0  0  0  0
   -1.7283   13.1480   -2.3777 H   0  0  0  0  0  0  0  0  0  0  0  0
   -0.9403   11.4377   -0.5352 H   0  0  0  0  0  0  0  0  0  0  0  0
    2.4258   13.4505   -1.4944 H   0  0  0  0  0  0  0  0  0  0  0  0
    1.8659   11.6809   -3.9542 H   0  0  0  0  0  0  0  0  0  0  0  0
    3.2427   12.8510   -3.7405 H   0  0  0  0  0  0  0  0  0  0  0  0
    3.9470   10.5036   -3.4014 H   0  0  0  0  0  0  0  0  0  0  0  0
    4.1327   11.5186   -1.9175 H   0  0  0  0  0  0  0  0  0  0  0  0
    3.2265    9.3876   -1.2846 H   0  0  0  0  0  0  0  0  0  0  0  0
    0.9180    9.0780   -2.2510 H   0  0  0  0  0  0  0  0  0  0  0  0
    2.1162   11.0152    1.3776 H   0  0  0  0  0  0  0  0  0  0  0  0
    3.5655   10.8097    0.3363 H   0  0  0  0  0  0  0  0  0  0  0  0
    2.6733   12.3688    0.3363 H   0  0  0  0  0  0  0  0  0  0  0  0
    0.7973    9.7428    0.9801 H   0  0  0  0  0  0  0  0  0  0  0  0
   -0.2907    9.8547   -0.4449 H   0  0  0  0  0  0  0  0  0  0  0  0
    1.0718    8.6842   -0.4449 H   0  0  0  0  0  0  0  0  0  0  0  0
   -0.5504   13.0939   -4.0321 H   0  0  0  0  0  0  0  0  0  0  0  0
    0.0431   14.6174   -4.7760 H   0  0  0  0  0  0  0  0  0  0  0  0
    1.0835   13.1531   -4.7760 H   0  0  0  0  0  0  0  0  0  0  0  0
    2.9123   14.8731   -3.4210 H   0  0  0  0  0  0  0  0  0  0  0  0
    1.4701   15.9111   -3.9465 H   0  0  0  0  0  0  0  0  0  0  0  0
    2.8064   15.8440   -1.2267 H   0  0  0  0  0  0  0  0  0  0  0  0
    2.7570   17.1946   -2.4272 H   0  0  0  0  0  0  0  0  0  0  0  0
   -0.6057   18.2899   -2.0686 H   0  0  0  0  0  0  0  0  0  0  0  0
    0.8200   18.1596   -3.1534 H   0  0  0  0  0  0  0  0  0  0  0  0
   -0.4294   16.8691   -3.1534 H   0  0  0  0  0  0  0  0  0  0  0  0
  1  2  1  0
  2  3  1  0
  3  4  1  0
  4  5  1  0
  5  6  1  0
  6  7  1  0
  7  8  1  0
  7  9  1  0
  2 10  1  0
 10 11  1  0
 11 12  1  0
 12 13  1  0
 13 14  1  1
 13 15  1  0
 15 16  1  0
 16 17  1  0
 17 18  2  0
 18 19  1  0
 19 20  1  0
 20 21  1  0
 21 22  1  0
 22 23  1  0
 22 24  1  0
 24 25  1  0
 24 26  1  0
 19 27  1  0
 27 28  1  6
 27 29  1  0
 29 30  1  0
 30 31  1  0
 31 32  1  6
  7  5  1  0
 31 10  1  0
 31 13  1  0
 27 15  1  0
 24 18  1  0
  1 33  1  0
  1 34  1  0
  1 35  1  0
  2 36  1  1
  3 37  1  0
  3 38  1  0
  4 39  1  0
  4 40  1  0
  5 41  1  6
  8 42  1  0
  8 43  1  0
  8 44  1  0
  9 45  1  0
  9 46  1  0
  9 47  1  0
 10 48  1  1
 11 49  1  0
 11 50  1  0
 12 51  1  0
 12 52  1  0
 14 53  1  0
 14 54  1  0
 14 55  1  0
 15 56  1  6
 16 57  1  0
 16 58  1  0
 17 59  1  0
 19 60  1  1
 20 61  1  0
 20 62  1  0
 21 63  1  0
 21 64  1  0
 22 65  1  1
 23 66  1  0
 25 67  1  0
 25 68  1  0
 25 69  1  0
 26 70  1  0
 26 71  1  0
 26 72  1  0
 28 73  1  0
 28 74  1  0
 28 75  1  0
 29 76  1  0
 29 77  1  0
 30 78  1  0
 30 79  1  0
 32 80  1  0
 32 81  1  0
 32 82  1  0
M  END
>  <meeko>  (9) 
{"is_sidechain": [false], "intermolecular_energy": 2.731, "internal_energy": -0.839}

$$$$
EPH_relaxed_0001_pdb2pqr_Repair_30_r2_0001_out
     RDKit          3D

 82 86  0  0  0  0  0  0  0  0999 V2000
    0.8420   11.0360   -4.7590 C   0  0  0  0  0  0  0  0  0  0  0  0
    0.7430   10.4390   -3.3520 C   0  0  2  0  0  0  0  0  0  0  0  0
   -0.5390    9.6050   -3.1640 C   0  0  0  0  0  0  0  0  0  0  0  0
   -0.5900    8.8450   -1.8360 C   0  0  0  0  0  0  0  0  0  0  0  0
   -1.9360    8.9570   -1.1840 C   0  0  2  0  0  0  0  0  0  0  0  0
   -2.4980   10.2760   -1.1940 O   0  0  0  0  0  0  0  0  0  0  0  0
   -2.1830    9.7300    0.0980 C   0  0  0  0  0  0  0  0  0  0  0  0
   -1.0730   10.4420    0.8060 C   0  0  0  0  0  0  0  0  0  0  0  0
   -3.3880    9.3880    0.9180 C   0  0  0  0  0  0  0  0  0  0  0  0
    0.7990   11.5510   -2.3110 C   0  0  1  0  0  0  0  0  0  0  0  0
    1.7740   11.2310   -1.1460 C   0  0  0  0  0  0  0  0  0  0  0  0
    2.4140   12.5760   -0.7170 C   0  0  0  0  0  0  0  0  0  0  0  0
    1.5530   13.6580   -1.4110 C   0  0  1  0  0  0  0  0  0  0  0  0
    0.2980   13.8190   -0.4970 C   0  0  0  0  0  0  0  0  0  0  0  0
    2.2520   15.0300   -1.6790 C   0  0  2  0  0  0  0  0  0  0  0  0
    2.7060   15.7890   -0.4200 C   0  0  0  0  0  0  0  0  0  0  0  0
    1.7000   16.7310    0.1540 C   0  0  0  0  0  0  0  0  0  0  0  0
    0.5960   17.1740   -0.4740 C   0  0  0  0  0  0  0  0  0  0  0  0
    0.3180   16.8000   -1.9360 C   0  0  1  0  0  0  0  0  0  0  0  0
   -0.1030   18.0690   -2.7240 C   0  0  0  0  0  0  0  0  0  0  0  0
   -1.2760   18.7980   -2.0750 C   0  0  0  0  0  0  0  0  0  0  0  0
   -0.9400   19.2050   -0.6420 C   0  0  2  0  0  0  0  0  0  0  0  0
    0.0940   20.1940   -0.6740 O   0  0  0  0  0  0  0  0  0  0  0  0
   -0.4920   18.0100    0.2450 C   0  0  0  0  0  0  0  0  0  0  0  0
   -1.7050   17.0880    0.5270 C   0  0  0  0  0  0  0  0  0  0  0  0
   -0.0480   18.5760    1.6200 C   0  0  0  0  0  0  0  0  0  0  0  0
    1.4610   15.9770   -2.6710 C   0  0  1  0  0  0  0  0  0  0  0  0
    2.5100   16.9550   -3.2840 C   0  0  0  0  0  0  0  0  0  0  0  0
    0.8310   15.1870   -3.8780 C   0  0  0  0  0  0  0  0  0  0  0  0
    0.2650   13.7870   -3.5730 C   0  0  0  0  0  0  0  0  0  0  0  0
    1.2750   12.9470   -2.7860 C   0  0  2  0  0  0  0  0  0  0  0  0
    2.5400   12.7490   -3.6890 C   0  0  0  0  0  0  0  0  0  0  0  0
    1.0216   12.1188   -4.6861 H   0  0  0  0  0  0  0  0  0  0  0  0
    1.6738   10.5621   -5.3007 H   0  0  0  0  0  0  0  0  0  0  0  0
   -0.0983   10.8559   -5.3007 H   0  0  0  0  0  0  0  0  0  0  0  0
    1.5993    9.7615   -3.2188 H   0  0  0  0  0  0  0  0  0  0  0  0
   -1.4040   10.2830   -3.2095 H   0  0  0  0  0  0  0  0  0  0  0  0
   -0.5530    8.8521   -3.9658 H   0  0  0  0  0  0  0  0  0  0  0  0
   -0.3724    7.7833   -2.0243 H   0  0  0  0  0  0  0  0  0  0  0  0
    0.1565    9.2865   -1.1594 H   0  0  0  0  0  0  0  0  0  0  0  0
   -2.1952    7.9324   -1.4890 H   0  0  0  0  0  0  0  0  0  0  0  0
   -1.2140   10.3516    1.8932 H   0  0  0  0  0  0  0  0  0  0  0  0
   -0.1097    9.9929    0.5226 H   0  0  0  0  0  0  0  0  0  0  0  0
   -1.0795   11.5048    0.5226 H   0  0  0  0  0  0  0  0  0  0  0  0
   -3.1367    9.4593    1.9865 H   0  0  0  0  0  0  0  0  0  0  0  0
   -4.2016   10.0907    0.6850 H   0  0  0  0  0  0  0  0  0  0  0  0
   -3.7111    8.3627    0.6850 H   0  0  0  0  0  0  0  0  0  0  0  0
   -0.2633   11.5921   -2.0283 H   0  0  0  0  0  0  0  0  0  0  0  0
    1.2243   10.7870   -0.3030 H   0  0  0  0  0  0  0  0  0  0  0  0
    2.5429   10.5101   -1.4609 H   0  0  0  0  0  0  0  0  0  0  0  0
    2.3766   12.6924    0.3762 H   0  0  0  0  0  0  0  0  0  0  0  0
    3.4747   12.6421   -1.0008 H   0  0  0  0  0  0  0  0  0  0  0  0
    0.6055   13.7795    0.5584 H   0  0  0  0  0  0  0  0  0  0  0  0
   -0.1837   14.7863   -0.7026 H   0  0  0  0  0  0  0  0  0  0  0  0
   -0.4123   13.0046   -0.7026 H   0  0  0  0  0  0  0  0  0  0  0  0
    3.1758   14.7272   -2.1937 H   0  0  0  0  0  0  0  0  0  0  0  0
    2.9564   15.0470    0.3525 H   0  0  0  0  0  0  0  0  0  0  0  0
    3.5609   16.4082   -0.7296 H   0  0  0  0  0  0  0  0  0  0  0  0
    1.8766   17.0936    1.1774 H   0  0  0  0  0  0  0  0  0  0  0  0
   -0.5144   16.0813   -1.9127 H   0  0  0  0  0  0  0  0  0  0  0  0
    0.7555   18.7551   -2.7724 H   0  0  0  0  0  0  0  0  0  0  0  0
   -0.4222   17.7489   -3.7268 H   0  0  0  0  0  0  0  0  0  0  0  0
   -1.5078   19.6999   -2.6605 H   0  0  0  0  0  0  0  0  0  0  0  0
   -2.1422   18.1203   -2.0536 H   0  0  0  0  0  0  0  0  0  0  0  0
   -1.8589   19.6052   -0.1887 H   0  0  0  0  0  0  0  0  0  0  0  0
   -0.2130   20.9220   -1.2400 H   0  0  0  0  0  0  0  0  0  0  0  0
   -1.8418   16.9840    1.6135 H   0  0  0  0  0  0  0  0  0  0  0  0
   -2.6107   17.5277    0.0838 H   0  0  0  0  0  0  0  0  0  0  0  0
   -1.5237   16.0977    0.0838 H   0  0  0  0  0  0  0  0  0  0  0  0
   -0.5103   17.9867    2.4256 H   0  0  0  0  0  0  0  0  0  0  0  0
    1.0472   18.5169    1.7045 H   0  0  0  0  0  0  0  0  0  0  0  0
   -0.3662   19.6256    1.7045 H   0  0  0  0  0  0  0  0  0  0  0  0
    3.0547   17.4629   -2.4745 H   0  0  0  0  0  0  0  0  0  0  0  0
    3.2200   16.3890   -3.9049 H   0  0  0  0  0  0  0  0  0  0  0  0
    1.9951   17.7029   -3.9049 H   0  0  0  0  0  0  0  0  0  0  0  0
    0.0098   15.7970   -4.2824 H   0  0  0  0  0  0  0  0  0  0  0  0
    1.6643   15.0147   -4.5751 H   0  0  0  0  0  0  0  0  0  0  0  0
   -0.6553   13.8923   -2.9797 H   0  0  0  0  0  0  0  0  0  0  0  0
    0.0531   13.2792   -4.5255 H   0  0  0  0  0  0  0  0  0  0  0  0
    3.4266   12.6102   -3.0528 H   0  0  0  0  0  0  0  0  0  0  0  0
    2.4019   11.8615   -4.3241 H   0  0  0  0  0  0  0  0  0  0  0  0
    2.6797   13.6362   -4.3241 H   0  0  0  0  0  0  0  0  0  0  0  0
  1  2  1  0
  2  3  1  0
  3  4  1  0
  4  5  1  0
  5  6  1  0
  6  7  1  0
  7  8  1  0
  7  9  1  0
  2 10  1  0
 10 11  1  0
 11 12  1  0
 12 13  1  0
 13 14  1  1
 13 15  1  0
 15 16  1  0
 16 17  1  0
 17 18  2  0
 18 19  1  0
 19 20  1  0
 20 21  1  0
 21 22  1  0
 22 23  1  0
 22 24  1  0
 24 25  1  0
 24 26  1  0
 19 27  1  0
 27 28  1  6
 27 29  1  0
 29 30  1  0
 30 31  1  0
 31 32  1  6
  7  5  1  0
 31 10  1  0
 31 13  1  0
 27 15  1  0
 24 18  1  0
  1 33  1  0
  1 34  1  0
  1 35  1  0
  2 36  1  1
  3 37  1  0
  3 38  1  0
  4 39  1  0
  4 40  1  0
  5 41  1  1
  8 42  1  0
  8 43  1  0
  8 44  1  0
  9 45  1  0
  9 46  1  0
  9 47  1  0
 10 48  1  1
 11 49  1  0
 11 50  1  0
 12 51  1  0
 12 52  1  0
 14 53  1  0
 14 54  1  0
 14 55  1  0
 15 56  1  6
 16 57  1  0
 16 58  1  0
 17 59  1  0
 19 60  1  1
 20 61  1  0
 20 62  1  0
 21 63  1  0
 21 64  1  0
 22 65  1  1
 23 66  1  0
 25 67  1  0
 25 68  1  0
 25 69  1  0
 26 70  1  0
 26 71  1  0
 26 72  1  0
 28 73  1  0
 28 74  1  0
 28 75  1  0
 29 76  1  0
 29 77  1  0
 30 78  1  0
 30 79  1  0
 32 80  1  0
 32 81  1  0
 32 82  1  0
M  END
>  <meeko>  (10) 
{"is_sidechain": [false], "intermolecular_energy": 2.731, "internal_energy": -0.839}

$$$$
EPH_relaxed_0001_pdb2pqr_Repair_30_r2_0001_out
     RDKit          3D

 82 86  0  0  0  0  0  0  0  0999 V2000
   -4.1700    7.3900   -3.4880 C   0  0  0  0  0  0  0  0  0  0  0  0
   -3.7560    7.2820   -2.0180 C   0  0  2  0  0  0  0  0  0  0  0  0
   -4.9190    6.8170   -1.1180 C   0  0  0  0  0  0  0  0  0  0  0  0
   -6.0960    6.2190   -1.8940 C   0  0  0  0  0  0  0  0  0  0  0  0
   -7.4000    6.8290   -1.4790 C   0  0  2  0  0  0  0  0  0  0  0  0
   -8.4250    5.8820   -1.1480 O   0  0  0  0  0  0  0  0  0  0  0  0
   -8.6750    6.7130   -2.2940 C   0  0  0  0  0  0  0  0  0  0  0  0
   -8.7070    5.9670   -3.5910 C   0  0  0  0  0  0  0  0  0  0  0  0
   -9.7560    7.7260   -2.0790 C   0  0  0  0  0  0  0  0  0  0  0  0
   -3.2220    8.6230   -1.5280 C   0  0  1  0  0  0  0  0  0  0  0  0
   -3.8650    9.0680   -0.1880 C   0  0  0  0  0  0  0  0  0  0  0  0
   -2.7650    9.8150    0.6100 C   0  0  0  0  0  0  0  0  0  0  0  0
   -1.6390   10.0650   -0.4200 C   0  0  1  0  0  0  0  0  0  0  0  0
   -2.0950   11.3270   -1.2160 C   0  0  0  0  0  0  0  0  0  0  0  0
   -0.1970   10.2380    0.1610 C   0  0  2  0  0  0  0  0  0  0  0  0
   -0.0110   11.4490    1.0920 C   0  0  0  0  0  0  0  0  0  0  0  0
    0.4120   12.7120    0.4180 C   0  0  0  0  0  0  0  0  0  0  0  0
    0.9080   12.8050   -0.8300 C   0  0  0  0  0  0  0  0  0  0  0  0
    1.1780   11.5460   -1.6660 C   0  0  1  0  0  0  0  0  0  0  0  0
    2.5800   11.6510   -2.3210 C   0  0  0  0  0  0  0  0  0  0  0  0
    2.7560   12.9350   -3.1260 C   0  0  0  0  0  0  0  0  0  0  0  0
    2.5370   14.1640   -2.2480 C   0  0  2  0  0  0  0  0  0  0  0  0
    3.5870   14.2300   -1.2780 O   0  0  0  0  0  0  0  0  0  0  0  0
    1.1590   14.1640   -1.5270 C   0  0  0  0  0  0  0  0  0  0  0  0
    0.0310   14.3960   -2.5620 C   0  0  0  0  0  0  0  0  0  0  0  0
    1.1240   15.3830   -0.5660 C   0  0  0  0  0  0  0  0  0  0  0  0
    0.9520   10.1600   -0.9230 C   0  0  1  0  0  0  0  0  0  0  0  0
    2.2510    9.7450   -0.1660 C   0  0  0  0  0  0  0  0  0  0  0  0
    0.6870    9.0390   -1.9960 C   0  0  0  0  0  0  0  0  0  0  0  0
   -0.7740    8.8350   -2.4420 C   0  0  0  0  0  0  0  0  0  0  0  0
   -1.7050    8.7200   -1.2310 C   0  0  2  0  0  0  0  0  0  0  0  0
   -1.2840    7.4450   -0.4240 C   0  0  0  0  0  0  0  0  0  0  0  0
   -5.2327    7.6672   -3.5502 H   0  0  0  0  0  0  0  0  0  0  0  0
   -3.5607    8.1592   -3.9850 H   0  0  0  0  0  0  0  0  0  0  0  0
   -4.0141    6.4211   -3.9850 H   0  0  0  0  0  0  0  0  0  0  0  0
   -2.9648    6.5206   -1.9532 H   0  0  0  0  0  0  0  0  0  0  0  0
   -4.5373    6.0541   -0.4236 H   0  0  0  0  0  0  0  0  0  0  0  0
   -5.2975    7.7079   -0.5955 H   0  0  0  0  0  0  0  0  0  0  0  0
   -5.9436    6.3999   -2.9683 H   0  0  0  0  0  0  0  0  0  0  0  0
   -6.1372    5.1412   -1.6779 H   0  0  0  0  0  0  0  0  0  0  0  0
   -6.8826    7.6938   -1.0381 H   0  0  0  0  0  0  0  0  0  0  0  0
   -8.7534    4.8863   -3.3913 H   0  0  0  0  0  0  0  0  0  0  0  0
   -9.5929    6.2717   -4.1675 H   0  0  0  0  0  0  0  0  0  0  0  0
   -7.7983    6.1947   -4.1675 H   0  0  0  0  0  0  0  0  0  0  0  0
   -9.9121    7.8723   -1.0000 H   0  0  0  0  0  0  0  0  0  0  0  0
   -9.4610    8.6804   -2.5395 H   0  0  0  0  0  0  0  0  0  0  0  0
  -10.6893    7.3697   -2.5395 H   0  0  0  0  0  0  0  0  0  0  0  0
   -3.4758    9.2498   -2.3956 H   0  0  0  0  0  0  0  0  0  0  0  0
   -4.7152    9.7390   -0.3803 H   0  0  0  0  0  0  0  0  0  0  0  0
   -4.2425    8.2021    0.3756 H   0  0  0  0  0  0  0  0  0  0  0  0
   -3.1497   10.7673    1.0038 H   0  0  0  0  0  0  0  0  0  0  0  0
   -2.4154    9.2385    1.4791 H   0  0  0  0  0  0  0  0  0  0  0  0
   -2.3820   12.1212   -0.5111 H   0  0  0  0  0  0  0  0  0  0  0  0
   -1.2676   11.6800   -1.8491 H   0  0  0  0  0  0  0  0  0  0  0  0
   -2.9570   11.0696   -1.8491 H   0  0  0  0  0  0  0  0  0  0  0  0
   -0.0915    9.3496    0.8011 H   0  0  0  0  0  0  0  0  0  0  0  0
   -0.9687   11.6384    1.5988 H   0  0  0  0  0  0  0  0  0  0  0  0
    0.8056   11.1823    1.7790 H   0  0  0  0  0  0  0  0  0  0  0  0
    0.3097   13.6461    0.9898 H   0  0  0  0  0  0  0  0  0  0  0  0
    0.4030   11.5256   -2.4464 H   0  0  0  0  0  0  0  0  0  0  0  0
    3.3422   11.6247   -1.5283 H   0  0  0  0  0  0  0  0  0  0  0  0
    2.6879   10.8047   -3.0153 H   0  0  0  0  0  0  0  0  0  0  0  0
    3.7753   12.9643   -3.5385 H   0  0  0  0  0  0  0  0  0  0  0  0
    2.0124   12.9457   -3.9365 H   0  0  0  0  0  0  0  0  0  0  0  0
    2.5472   15.0457   -2.9056 H   0  0  0  0  0  0  0  0  0  0  0  0
    4.4060   14.4640   -1.7470 H   0  0  0  0  0  0  0  0  0  0  0  0
   -0.9151   14.5906   -2.0357 H   0  0  0  0  0  0  0  0  0  0  0  0
    0.2843   15.2608   -3.1928 H   0  0  0  0  0  0  0  0  0  0  0  0
   -0.0775   13.5014   -3.1928 H   0  0  0  0  0  0  0  0  0  0  0  0
    1.1342   15.0292    0.4755 H   0  0  0  0  0  0  0  0  0  0  0  0
    2.0043   16.0175   -0.7463 H   0  0  0  0  0  0  0  0  0  0  0  0
    0.2087   15.9659   -0.7463 H   0  0  0  0  0  0  0  0  0  0  0  0
    2.0769    9.8006    0.9187 H   0  0  0  0  0  0  0  0  0  0  0  0
    2.5228    8.7153   -0.4414 H   0  0  0  0  0  0  0  0  0  0  0  0
    3.0694   10.4264   -0.4414 H   0  0  0  0  0  0  0  0  0  0  0  0
    1.2762    9.2889   -2.8907 H   0  0  0  0  0  0  0  0  0  0  0  0
    0.9719    8.0971   -1.5044 H   0  0  0  0  0  0  0  0  0  0  0  0
   -1.0861    9.6927   -3.0559 H   0  0  0  0  0  0  0  0  0  0  0  0
   -0.8369    7.9031   -3.0230 H   0  0  0  0  0  0  0  0  0  0  0  0
   -1.3530    7.6539    0.6538 H   0  0  0  0  0  0  0  0  0  0  0  0
   -1.9546    6.6113   -0.6796 H   0  0  0  0  0  0  0  0  0  0  0  0
   -0.2489    7.1745   -0.6796 H   0  0  0  0  0  0  0  0  0  0  0  0
  1  2  1  0
  2  3  1  0
  3  4  1  0
  4  5  1  0
  5  6  1  0
  6  7  1  0
  7  8  1  0
  7  9  1  0
  2 10  1  0
 10 11  1  0
 11 12  1  0
 12 13  1  0
 13 14  1  6
 13 15  1  0
 15 16  1  0
 16 17  1  0
 17 18  2  0
 18 19  1  0
 19 20  1  0
 20 21  1  0
 21 22  1  0
 22 23  1  0
 22 24  1  0
 24 25  1  0
 24 26  1  0
 19 27  1  0
 27 28  1  1
 27 29  1  0
 29 30  1  0
 30 31  1  0
 31 32  1  1
  7  5  1  0
 31 10  1  0
 31 13  1  0
 27 15  1  0
 24 18  1  0
  1 33  1  0
  1 34  1  0
  1 35  1  0
  2 36  1  6
  3 37  1  0
  3 38  1  0
  4 39  1  0
  4 40  1  0
  5 41  1  1
  8 42  1  0
  8 43  1  0
  8 44  1  0
  9 45  1  0
  9 46  1  0
  9 47  1  0
 10 48  1  6
 11 49  1  0
 11 50  1  0
 12 51  1  0
 12 52  1  0
 14 53  1  0
 14 54  1  0
 14 55  1  0
 15 56  1  1
 16 57  1  0
 16 58  1  0
 17 59  1  0
 19 60  1  6
 20 61  1  0
 20 62  1  0
 21 63  1  0
 21 64  1  0
 22 65  1  6
 23 66  1  0
 25 67  1  0
 25 68  1  0
 25 69  1  0
 26 70  1  0
 26 71  1  0
 26 72  1  0
 28 73  1  0
 28 74  1  0
 28 75  1  0
 29 76  1  0
 29 77  1  0
 30 78  1  0
 30 79  1  0
 32 80  1  0
 32 81  1  0
 32 82  1  0
M  END
>  <meeko>  (11) 
{"is_sidechain": [false], "intermolecular_energy": 2.731, "internal_energy": -0.839}

$$$$
EPH_relaxed_0001_pdb2pqr_Repair_30_r2_0001_out
     RDKit          3D

 82 86  0  0  0  0  0  0  0  0999 V2000
   -0.8550   16.3490   -5.8440 C   0  0  0  0  0  0  0  0  0  0  0  0
    0.2330   15.6470   -6.6600 C   0  0  2  0  0  0  0  0  0  0  0  0
   -0.1720   15.4690   -8.1370 C   0  0  0  0  0  0  0  0  0  0  0  0
    0.4640   16.4950   -9.0780 C   0  0  0  0  0  0  0  0  0  0  0  0
    1.8610   16.1070   -9.4590 C   0  0  2  0  0  0  0  0  0  0  0  0
    2.3200   16.6620  -10.6980 O   0  0  0  0  0  0  0  0  0  0  0  0
    2.1900   15.2320  -10.6540 C   0  0  0  0  0  0  0  0  0  0  0  0
    1.1150   14.6910  -11.5440 C   0  0  0  0  0  0  0  0  0  0  0  0
    3.4990   14.5060  -10.6710 C   0  0  0  0  0  0  0  0  0  0  0  0
    0.5540   14.2920   -6.0410 C   0  0  1  0  0  0  0  0  0  0  0  0
    1.8200   13.6380   -6.6570 C   0  0  0  0  0  0  0  0  0  0  0  0
    2.5290   12.8700   -5.5120 C   0  0  0  0  0  0  0  0  0  0  0  0
    1.4890   12.8270   -4.3690 C   0  0  1  0  0  0  0  0  0  0  0  0
    0.5340   11.6490   -4.7380 C   0  0  0  0  0  0  0  0  0  0  0  0
    2.0600   12.6750   -2.9210 C   0  0  2  0  0  0  0  0  0  0  0  0
    2.8310   11.3700   -2.6570 C   0  0  0  0  0  0  0  0  0  0  0  0
    2.0070   10.2340   -2.1500 C   0  0  0  0  0  0  0  0  0  0  0  0
    0.7630   10.3340   -1.6450 C   0  0  0  0  0  0  0  0  0  0  0  0
    0.0970   11.7030   -1.4570 C   0  0  1  0  0  0  0  0  0  0  0  0
   -0.5500   11.7750   -0.0490 C   0  0  0  0  0  0  0  0  0  0  0  0
   -1.5100   10.6180    0.2140 C   0  0  0  0  0  0  0  0  0  0  0  0
   -0.7970    9.2750    0.0740 C   0  0  2  0  0  0  0  0  0  0  0  0
    0.1690    9.1540    1.1230 O   0  0  0  0  0  0  0  0  0  0  0  0
   -0.0980    9.0930   -1.3030 C   0  0  0  0  0  0  0  0  0  0  0  0
   -1.1670    8.9220   -2.4100 C   0  0  0  0  0  0  0  0  0  0  0  0
    0.7000    7.7620   -1.2600 C   0  0  0  0  0  0  0  0  0  0  0  0
    1.0070   12.9660   -1.7750 C   0  0  1  0  0  0  0  0  0  0  0  0
    1.8260   13.3650   -0.5100 C   0  0  0  0  0  0  0  0  0  0  0  0
    0.0820   14.1950   -2.1110 C   0  0  0  0  0  0  0  0  0  0  0  0
   -0.3510   14.3580   -3.5810 C   0  0  0  0  0  0  0  0  0  0  0  0
    0.8540   14.2570   -4.5210 C   0  0  2  0  0  0  0  0  0  0  0  0
    1.8220   15.4430   -4.1880 C   0  0  0  0  0  0  0  0  0  0  0  0
   -0.6510   16.2174   -4.7711 H   0  0  0  0  0  0  0  0  0  0  0  0
   -0.8610   17.4218   -6.0872 H   0  0  0  0  0  0  0  0  0  0  0  0
   -1.8349   15.9124   -6.0872 H   0  0  0  0  0  0  0  0  0  0  0  0
    1.1274   16.2870   -6.6382 H   0  0  0  0  0  0  0  0  0  0  0  0
    0.1337   14.4636   -8.4620 H   0  0  0  0  0  0  0  0  0  0  0  0
   -1.2609   15.6151   -8.1913 H   0  0  0  0  0  0  0  0  0  0  0  0
   -0.1467   16.5689   -9.9899 H   0  0  0  0  0  0  0  0  0  0  0  0
    0.5075   17.4608   -8.5532 H   0  0  0  0  0  0  0  0  0  0  0  0
    2.1596   16.0545   -8.4016 H   0  0  0  0  0  0  0  0  0  0  0  0
    0.3008   14.2813  -10.9282 H   0  0  0  0  0  0  0  0  0  0  0  0
    0.7233   15.4994  -12.1789 H   0  0  0  0  0  0  0  0  0  0  0  0
    1.5308   13.8948  -12.1789 H   0  0  0  0  0  0  0  0  0  0  0  0
    3.8299   14.3225   -9.6381 H   0  0  0  0  0  0  0  0  0  0  0  0
    3.3789   13.5456  -11.1937 H   0  0  0  0  0  0  0  0  0  0  0  0
    4.2501   15.1165  -11.1937 H   0  0  0  0  0  0  0  0  0  0  0  0
   -0.3890   13.7661   -6.2510 H   0  0  0  0  0  0  0  0  0  0  0  0
    1.5345   12.9422   -7.4597 H   0  0  0  0  0  0  0  0  0  0  0  0
    2.4846   14.3982   -7.0934 H   0  0  0  0  0  0  0  0  0  0  0  0
    2.7950   11.8522   -5.8335 H   0  0  0  0  0  0  0  0  0  0  0  0
    3.4677   13.3537   -5.2040 H   0  0  0  0  0  0  0  0  0  0  0  0
    0.1552   11.1818   -3.8170 H   0  0  0  0  0  0  0  0  0  0  0  0
   -0.3108   12.0331   -5.3285 H   0  0  0  0  0  0  0  0  0  0  0  0
    1.0845   10.9019   -5.3285 H   0  0  0  0  0  0  0  0  0  0  0  0
    2.8097   13.4788   -2.8778 H   0  0  0  0  0  0  0  0  0  0  0  0
    3.2995   11.0552   -3.6011 H   0  0  0  0  0  0  0  0  0  0  0  0
    3.5546   11.5999   -1.8611 H   0  0  0  0  0  0  0  0  0  0  0  0
    2.4538    9.2297   -2.1925 H   0  0  0  0  0  0  0  0  0  0  0  0
   -0.6825   11.7706   -2.2301 H   0  0  0  0  0  0  0  0  0  0  0  0
    0.2482   11.7498    0.7075 H   0  0  0  0  0  0  0  0  0  0  0  0
   -1.1295   12.7084    0.0047 H   0  0  0  0  0  0  0  0  0  0  0  0
   -1.9113   10.7079    1.2342 H   0  0  0  0  0  0  0  0  0  0  0  0
   -2.3239   10.6622   -0.5246 H   0  0  0  0  0  0  0  0  0  0  0  0
   -1.5613    8.4871    0.1448 H   0  0  0  0  0  0  0  0  0  0  0  0
   -0.2960    8.8360    1.9150 H   0  0  0  0  0  0  0  0  0  0  0  0
   -2.1523    8.7644   -1.9470 H   0  0  0  0  0  0  0  0  0  0  0  0
   -1.1959    9.8269   -3.0347 H   0  0  0  0  0  0  0  0  0  0  0  0
   -0.9122    8.0532   -3.0347 H   0  0  0  0  0  0  0  0  0  0  0  0
    0.8737    7.4723   -0.2132 H   0  0  0  0  0  0  0  0  0  0  0  0
    0.1256    6.9735   -1.7682 H   0  0  0  0  0  0  0  0  0  0  0  0
    1.6662    7.8972   -1.7682 H   0  0  0  0  0  0  0  0  0  0  0  0
    1.2621   13.0903    0.3936 H   0  0  0  0  0  0  0  0  0  0  0  0
    2.7903   12.8357   -0.5155 H   0  0  0  0  0  0  0  0  0  0  0  0
    2.0036   14.4506   -0.5155 H   0  0  0  0  0  0  0  0  0  0  0  0
   -0.8304   14.1004   -1.5040 H   0  0  0  0  0  0  0  0  0  0  0  0
    0.6925   15.0831   -1.8908 H   0  0  0  0  0  0  0  0  0  0  0  0
   -1.0721   13.5667   -3.8338 H   0  0  0  0  0  0  0  0  0  0  0  0
   -0.8099   15.3501   -3.7039 H   0  0  0  0  0  0  0  0  0  0  0  0
    1.9092   15.5498   -3.0967 H   0  0  0  0  0  0  0  0  0  0  0  0
    2.8140   15.2381   -4.6168 H   0  0  0  0  0  0  0  0  0  0  0  0
    1.4224   16.3739   -4.6168 H   0  0  0  0  0  0  0  0  0  0  0  0
  1  2  1  0
  2  3  1  0
  3  4  1  0
  4  5  1  0
  5  6  1  0
  6  7  1  0
  7  8  1  0
  7  9  1  0
  2 10  1  0
 10 11  1  0
 11 12  1  0
 12 13  1  0
 13 14  1  6
 13 15  1  0
 15 16  1  0
 16 17  1  0
 17 18  2  0
 18 19  1  0
 19 20  1  0
 20 21  1  0
 21 22  1  0
 22 23  1  0
 22 24  1  0
 24 25  1  0
 24 26  1  0
 19 27  1  0
 27 28  1  1
 27 29  1  0
 29 30  1  0
 30 31  1  0
 31 32  1  1
  7  5  1  0
 31 10  1  0
 31 13  1  0
 27 15  1  0
 24 18  1  0
  1 33  1  0
  1 34  1  0
  1 35  1  0
  2 36  1  6
  3 37  1  0
  3 38  1  0
  4 39  1  0
  4 40  1  0
  5 41  1  1
  8 42  1  0
  8 43  1  0
  8 44  1  0
  9 45  1  0
  9 46  1  0
  9 47  1  0
 10 48  1  1
 11 49  1  0
 11 50  1  0
 12 51  1  0
 12 52  1  0
 14 53  1  0
 14 54  1  0
 14 55  1  0
 15 56  1  6
 16 57  1  0
 16 58  1  0
 17 59  1  0
 19 60  1  6
 20 61  1  0
 20 62  1  0
 21 63  1  0
 21 64  1  0
 22 65  1  1
 23 66  1  0
 25 67  1  0
 25 68  1  0
 25 69  1  0
 26 70  1  0
 26 71  1  0
 26 72  1  0
 28 73  1  0
 28 74  1  0
 28 75  1  0
 29 76  1  0
 29 77  1  0
 30 78  1  0
 30 79  1  0
 32 80  1  0
 32 81  1  0
 32 82  1  0
M  END
>  <meeko>  (12) 
{"is_sidechain": [false], "intermolecular_energy": 2.731, "internal_energy": -0.839}

$$$$
EPH_relaxed_0001_pdb2pqr_Repair_30_r2_0001_out
     RDKit          3D

 82 86  0  0  0  0  0  0  0  0999 V2000
    0.0100    9.2830   -2.1160 C   0  0  0  0  0  0  0  0  0  0  0  0
    1.0620   10.2790   -2.6120 C   0  0  2  0  0  0  0  0  0  0  0  0
    2.4650    9.6450   -2.7020 C   0  0  0  0  0  0  0  0  0  0  0  0
    3.3470   10.2550   -3.7940 C   0  0  0  0  0  0  0  0  0  0  0  0
    4.7290   10.5460   -3.2920 C   0  0  2  0  0  0  0  0  0  0  0  0
    5.2460   11.8290   -3.6700 O   0  0  0  0  0  0  0  0  0  0  0  0
    5.9370   10.6850   -4.2000 C   0  0  0  0  0  0  0  0  0  0  0  0
    5.8180   10.5370   -5.6840 C   0  0  0  0  0  0  0  0  0  0  0  0
    7.2990   10.4800   -3.6150 C   0  0  0  0  0  0  0  0  0  0  0  0
    1.0980   11.4960   -1.6960 C   0  0  1  0  0  0  0  0  0  0  0  0
    2.1650   11.3700   -0.5760 C   0  0  0  0  0  0  0  0  0  0  0  0
    2.7270   12.7940   -0.3310 C   0  0  0  0  0  0  0  0  0  0  0  0
    1.7450   13.7330   -1.0690 C   0  0  1  0  0  0  0  0  0  0  0  0
    0.5400   13.9040   -0.0910 C   0  0  0  0  0  0  0  0  0  0  0  0
    2.3190   15.1140   -1.5240 C   0  0  2  0  0  0  0  0  0  0  0  0
    2.7920   16.0320   -0.3830 C   0  0  0  0  0  0  0  0  0  0  0  0
    1.7560   16.9580    0.1620 C   0  0  0  0  0  0  0  0  0  0  0  0
    0.5830   17.2550   -0.4290 C   0  0  0  0  0  0  0  0  0  0  0  0
    0.2430   16.7100   -1.8220 C   0  0  1  0  0  0  0  0  0  0  0  0
   -0.3210   17.8550   -2.7030 C   0  0  0  0  0  0  0  0  0  0  0  0
   -1.5020   18.5670   -2.0510 C   0  0  0  0  0  0  0  0  0  0  0  0
   -1.1090   19.1450   -0.6940 C   0  0  2  0  0  0  0  0  0  0  0  0
   -0.1580   20.1940   -0.8990 O   0  0  0  0  0  0  0  0  0  0  0  0
   -0.5180   18.0850    0.2760 C   0  0  0  0  0  0  0  0  0  0  0  0
   -1.6370   17.1170    0.7350 C   0  0  0  0  0  0  0  0  0  0  0  0
   -0.0320   18.8240    1.5520 C   0  0  0  0  0  0  0  0  0  0  0  0
    1.3980   15.8940   -2.5480 C   0  0  1  0  0  0  0  0  0  0  0  0
    2.3290   16.8710   -3.3300 C   0  0  0  0  0  0  0  0  0  0  0  0
    0.7560   14.9380   -3.6220 C   0  0  0  0  0  0  0  0  0  0  0  0
    0.3180   13.5430   -3.1370 C   0  0  0  0  0  0  0  0  0  0  0  0
    1.4360   12.8630   -2.3420 C   0  0  2  0  0  0  0  0  0  0  0  0
    2.6530   12.6580   -3.3070 C   0  0  0  0  0  0  0  0  0  0  0  0
    0.0020    9.2755   -1.0161 H   0  0  0  0  0  0  0  0  0  0  0  0
   -0.9814    9.5812   -2.4878 H   0  0  0  0  0  0  0  0  0  0  0  0
    0.2536    8.2768   -2.4878 H   0  0  0  0  0  0  0  0  0  0  0  0
    0.7733   10.5870   -3.6278 H   0  0  0  0  0  0  0  0  0  0  0  0
    2.9692    9.7785   -1.7335 H   0  0  0  0  0  0  0  0  0  0  0  0
    2.3228    8.5848   -2.9586 H   0  0  0  0  0  0  0  0  0  0  0  0
    3.4144    9.5481   -4.6341 H   0  0  0  0  0  0  0  0  0  0  0  0
    2.8911   11.2039   -4.1129 H   0  0  0  0  0  0  0  0  0  0  0  0
    4.5516    9.9468   -2.3867 H   0  0  0  0  0  0  0  0  0  0  0  0
    5.1442    9.6990   -5.9161 H   0  0  0  0  0  0  0  0  0  0  0  0
    5.4112   11.4644   -6.1135 H   0  0  0  0  0  0  0  0  0  0  0  0
    6.8111   10.3388   -6.1135 H   0  0  0  0  0  0  0  0  0  0  0  0
    7.2318   10.4901   -2.5171 H   0  0  0  0  0  0  0  0  0  0  0  0
    7.6995    9.5115   -3.9489 H   0  0  0  0  0  0  0  0  0  0  0  0
    7.9669   11.2877   -3.9489 H   0  0  0  0  0  0  0  0  0  0  0  0
    0.0553   11.4931   -1.3455 H   0  0  0  0  0  0  0  0  0  0  0  0
    1.7042   10.9812    0.3441 H   0  0  0  0  0  0  0  0  0  0  0  0
    2.9653   10.6748   -0.8695 H   0  0  0  0  0  0  0  0  0  0  0  0
    2.7491   13.0230    0.7447 H   0  0  0  0  0  0  0  0  0  0  0  0
    3.7600   12.9028   -0.6930 H   0  0  0  0  0  0  0  0  0  0  0  0
    0.9002   13.8529    0.9471 H   0  0  0  0  0  0  0  0  0  0  0  0
    0.0616   14.8790   -0.2655 H   0  0  0  0  0  0  0  0  0  0  0  0
   -0.1908   13.1006   -0.2655 H   0  0  0  0  0  0  0  0  0  0  0  0
    3.2282   14.8223   -2.0702 H   0  0  0  0  0  0  0  0  0  0  0  0
    3.1458   15.3951    0.4411 H   0  0  0  0  0  0  0  0  0  0  0  0
    3.5762   16.6723   -0.8131 H   0  0  0  0  0  0  0  0  0  0  0  0
    1.9687   17.4386    1.1283 H   0  0  0  0  0  0  0  0  0  0  0  0
   -0.5300   15.9427   -1.6677 H   0  0  0  0  0  0  0  0  0  0  0  0
    0.4785   18.5891   -2.8815 H   0  0  0  0  0  0  0  0  0  0  0  0
   -0.6777   17.4085   -3.6429 H   0  0  0  0  0  0  0  0  0  0  0  0
   -1.8366   19.3841   -2.7071 H   0  0  0  0  0  0  0  0  0  0  0  0
   -2.3120   17.8381   -1.9009 H   0  0  0  0  0  0  0  0  0  0  0  0
   -2.0252   19.5262   -0.2195 H   0  0  0  0  0  0  0  0  0  0  0  0
   -0.5670   20.8530   -1.4850 H   0  0  0  0  0  0  0  0  0  0  0  0
   -1.6695   17.0889    1.8342 H   0  0  0  0  0  0  0  0  0  0  0  0
   -2.6057   17.4666    0.3484 H   0  0  0  0  0  0  0  0  0  0  0  0
   -1.4305   16.1081    0.3484 H   0  0  0  0  0  0  0  0  0  0  0  0
   -0.3856   18.2864    2.4442 H   0  0  0  0  0  0  0  0  0  0  0  0
    1.0674   18.8611    1.5579 H   0  0  0  0  0  0  0  0  0  0  0  0
   -0.4335   19.8481    1.5579 H   0  0  0  0  0  0  0  0  0  0  0  0
    2.9066   17.4771   -2.6165 H   0  0  0  0  0  0  0  0  0  0  0  0
    3.0187   16.2929   -3.9625 H   0  0  0  0  0  0  0  0  0  0  0  0
    1.7183   17.5321   -3.9625 H   0  0  0  0  0  0  0  0  0  0  0  0
   -0.1326   15.4432   -4.0284 H   0  0  0  0  0  0  0  0  0  0  0  0
    1.5550   14.7503   -4.3544 H   0  0  0  0  0  0  0  0  0  0  0  0
   -0.5684   13.6475   -2.4941 H   0  0  0  0  0  0  0  0  0  0  0  0
    0.0856   12.9233   -4.0156 H   0  0  0  0  0  0  0  0  0  0  0  0
    3.5678   12.5039   -2.7159 H   0  0  0  0  0  0  0  0  0  0  0  0
    2.4737   11.7774   -3.9414 H   0  0  0  0  0  0  0  0  0  0  0  0
    2.7721   13.5487   -3.9414 H   0  0  0  0  0  0  0  0  0  0  0  0
  1  2  1  0
  2  3  1  0
  3  4  1  0
  4  5  1  0
  5  6  1  0
  6  7  1  0
  7  8  1  0
  7  9  1  0
  2 10  1  0
 10 11  1  0
 11 12  1  0
 12 13  1  0
 13 14  1  1
 13 15  1  0
 15 16  1  0
 16 17  1  0
 17 18  2  0
 18 19  1  0
 19 20  1  0
 20 21  1  0
 21 22  1  0
 22 23  1  0
 22 24  1  0
 24 25  1  0
 24 26  1  0
 19 27  1  0
 27 28  1  6
 27 29  1  0
 29 30  1  0
 30 31  1  0
 31 32  1  6
  7  5  1  0
 31 10  1  0
 31 13  1  0
 27 15  1  0
 24 18  1  0
  1 33  1  0
  1 34  1  0
  1 35  1  0
  2 36  1  6
  3 37  1  0
  3 38  1  0
  4 39  1  0
  4 40  1  0
  5 41  1  1
  8 42  1  0
  8 43  1  0
  8 44  1  0
  9 45  1  0
  9 46  1  0
  9 47  1  0
 10 48  1  1
 11 49  1  0
 11 50  1  0
 12 51  1  0
 12 52  1  0
 14 53  1  0
 14 54  1  0
 14 55  1  0
 15 56  1  6
 16 57  1  0
 16 58  1  0
 17 59  1  0
 19 60  1  1
 20 61  1  0
 20 62  1  0
 21 63  1  0
 21 64  1  0
 22 65  1  1
 23 66  1  0
 25 67  1  0
 25 68  1  0
 25 69  1  0
 26 70  1  0
 26 71  1  0
 26 72  1  0
 28 73  1  0
 28 74  1  0
 28 75  1  0
 29 76  1  0
 29 77  1  0
 30 78  1  0
 30 79  1  0
 32 80  1  0
 32 81  1  0
 32 82  1  0
M  END
>  <meeko>  (13) 
{"is_sidechain": [false], "intermolecular_energy": 2.731, "internal_energy": -0.839}

$$$$
EPH_relaxed_0001_pdb2pqr_Repair_30_r2_0001_out
     RDKit          3D

 82 86  0  0  0  0  0  0  0  0999 V2000
   -2.1020    7.8330   -2.0280 C   0  0  0  0  0  0  0  0  0  0  0  0
   -2.1450    8.4940   -0.6480 C   0  0  2  0  0  0  0  0  0  0  0  0
   -3.5690    8.5080   -0.0550 C   0  0  0  0  0  0  0  0  0  0  0  0
   -4.6730    8.6250   -1.1090 C   0  0  0  0  0  0  0  0  0  0  0  0
   -5.7800    7.6440   -0.8630 C   0  0  2  0  0  0  0  0  0  0  0  0
   -5.3760    6.2690   -0.8780 O   0  0  0  0  0  0  0  0  0  0  0  0
   -6.2860    6.6740   -1.9130 C   0  0  0  0  0  0  0  0  0  0  0  0
   -5.6980    6.6360   -3.2890 C   0  0  0  0  0  0  0  0  0  0  0  0
   -7.6630    6.1070   -1.7600 C   0  0  0  0  0  0  0  0  0  0  0  0
   -1.6030    9.9160   -0.7350 C   0  0  1  0  0  0  0  0  0  0  0  0
   -1.1070   10.4510    0.6350 C   0  0  0  0  0  0  0  0  0  0  0  0
    0.1160   11.3580    0.3440 C   0  0  0  0  0  0  0  0  0  0  0  0
    0.0810   11.5820   -1.1860 C   0  0  1  0  0  0  0  0  0  0  0  0
   -0.9700   12.7150   -1.4020 C   0  0  0  0  0  0  0  0  0  0  0  0
    1.4460   11.9240   -1.8660 C   0  0  2  0  0  0  0  0  0  0  0  0
    2.0970   13.2370   -1.3980 C   0  0  0  0  0  0  0  0  0  0  0  0
    1.7230   14.4500   -2.1840 C   0  0  0  0  0  0  0  0  0  0  0  0
    1.1260   14.4470   -3.3900 C   0  0  0  0  0  0  0  0  0  0  0  0
    0.8560   13.1310   -4.1320 C   0  0  1  0  0  0  0  0  0  0  0  0
    1.2980   13.2710   -5.6120 C   0  0  0  0  0  0  0  0  0  0  0  0
    0.6590   14.4720   -6.3030 C   0  0  0  0  0  0  0  0  0  0  0  0
    0.9990   15.7670   -5.5700 C   0  0  2  0  0  0  0  0  0  0  0  0
    2.4020   16.0140   -5.6980 O   0  0  0  0  0  0  0  0  0  0  0  0
    0.6070   15.7400   -4.0660 C   0  0  0  0  0  0  0  0  0  0  0  0
   -0.9350   15.7760   -3.9280 C   0  0  0  0  0  0  0  0  0  0  0  0
    1.1310   17.0480   -3.4130 C   0  0  0  0  0  0  0  0  0  0  0  0
    1.4290   11.8180   -3.4450 C   0  0  1  0  0  0  0  0  0  0  0  0
    2.9040   11.5840   -3.8920 C   0  0  0  0  0  0  0  0  0  0  0  0
    0.6090   10.5730   -3.9520 C   0  0  0  0  0  0  0  0  0  0  0  0
   -0.6660   10.2140   -3.1660 C   0  0  0  0  0  0  0  0  0  0  0  0
   -0.3850   10.1570   -1.6610 C   0  0  2  0  0  0  0  0  0  0  0  0
    0.6520    9.0110   -1.4110 C   0  0  0  0  0  0  0  0  0  0  0  0
   -2.0310    6.7417   -1.9098 H   0  0  0  0  0  0  0  0  0  0  0  0
   -3.0183    8.0829   -2.5830 H   0  0  0  0  0  0  0  0  0  0  0  0
   -1.2258    8.1995   -2.5830 H   0  0  0  0  0  0  0  0  0  0  0  0
   -1.5128    7.8961    0.0249 H   0  0  0  0  0  0  0  0  0  0  0  0
   -3.7212    7.5736    0.5052 H   0  0  0  0  0  0  0  0  0  0  0  0
   -3.6414    9.3984    0.5868 H   0  0  0  0  0  0  0  0  0  0  0  0
   -5.0866    9.6439   -1.0806 H   0  0  0  0  0  0  0  0  0  0  0  0
   -4.2327    8.4059   -2.0929 H   0  0  0  0  0  0  0  0  0  0  0  0
   -6.2992    8.3585   -0.2073 H   0  0  0  0  0  0  0  0  0  0  0  0
   -4.6026    6.5652   -3.2178 H   0  0  0  0  0  0  0  0  0  0  0  0
   -6.0876    5.7612   -3.8302 H   0  0  0  0  0  0  0  0  0  0  0  0
   -5.9717    7.5537   -3.8302 H   0  0  0  0  0  0  0  0  0  0  0  0
   -7.9023    6.0085   -0.6909 H   0  0  0  0  0  0  0  0  0  0  0  0
   -8.3912    6.7784   -2.2384 H   0  0  0  0  0  0  0  0  0  0  0  0
   -7.7073    5.1174   -2.2384 H   0  0  0  0  0  0  0  0  0  0  0  0
   -2.4894   10.4271   -1.1389 H   0  0  0  0  0  0  0  0  0  0  0  0
   -1.9019   11.0324    1.1250 H   0  0  0  0  0  0  0  0  0  0  0  0
   -0.8346    9.6239    1.3071 H   0  0  0  0  0  0  0  0  0  0  0  0
    0.0256   12.3151    0.8787 H   0  0  0  0  0  0  0  0  0  0  0  0
    1.0607   10.9037    0.6774 H   0  0  0  0  0  0  0  0  0  0  0  0
   -1.3146   13.0865   -0.4256 H   0  0  0  0  0  0  0  0  0  0  0  0
   -0.5097   13.5394   -1.9663 H   0  0  0  0  0  0  0  0  0  0  0  0
   -1.8266   12.3178   -1.9663 H   0  0  0  0  0  0  0  0  0  0  0  0
    2.0998   11.1189   -1.4995 H   0  0  0  0  0  0  0  0  0  0  0  0
    1.8049   13.4069   -0.3512 H   0  0  0  0  0  0  0  0  0  0  0  0
    3.1802   13.1061   -1.5375 H   0  0  0  0  0  0  0  0  0  0  0  0
    1.9551   15.4291   -1.7396 H   0  0  0  0  0  0  0  0  0  0  0  0
   -0.2310   12.9704   -4.0812 H   0  0  0  0  0  0  0  0  0  0  0  0
    2.3914   13.3866   -5.6439 H   0  0  0  0  0  0  0  0  0  0  0  0
    0.9705   12.3662   -6.1450 H   0  0  0  0  0  0  0  0  0  0  0  0
    1.0326   14.5340   -7.3358 H   0  0  0  0  0  0  0  0  0  0  0  0
   -0.4332   14.3410   -6.2965 H   0  0  0  0  0  0  0  0  0  0  0  0
    0.4106   16.5730   -6.0327 H   0  0  0  0  0  0  0  0  0  0  0  0
    2.8370   15.1620   -5.8670 H   0  0  0  0  0  0  0  0  0  0  0  0
   -1.2077   15.7824   -2.8624 H   0  0  0  0  0  0  0  0  0  0  0  0
   -1.3253   16.6835   -4.4118 H   0  0  0  0  0  0  0  0  0  0  0  0
   -1.3673   14.8877   -4.4118 H   0  0  0  0  0  0  0  0  0  0  0  0
    1.0925   16.9520   -2.3179 H   0  0  0  0  0  0  0  0  0  0  0  0
    2.1695   17.2252   -3.7293 H   0  0  0  0  0  0  0  0  0  0  0  0
    0.5021   17.8932   -3.7293 H   0  0  0  0  0  0  0  0  0  0  0  0
    3.5446   11.4824   -3.0036 H   0  0  0  0  0  0  0  0  0  0  0  0
    2.9634   10.6652   -4.4939 H   0  0  0  0  0  0  0  0  0  0  0  0
    3.2448   12.4393   -4.4939 H   0  0  0  0  0  0  0  0  0  0  0  0
    0.3135   10.7707   -4.9930 H   0  0  0  0  0  0  0  0  0  0  0  0
    1.2810    9.7123   -3.8189 H   0  0  0  0  0  0  0  0  0  0  0  0
   -1.4348   10.9765   -3.3598 H   0  0  0  0  0  0  0  0  0  0  0  0
   -1.0138    9.2238   -3.4955 H   0  0  0  0  0  0  0  0  0  0  0  0
    0.7837    8.8654   -0.3287 H   0  0  0  0  0  0  0  0  0  0  0  0
    0.2845    8.0786   -1.8643 H   0  0  0  0  0  0  0  0  0  0  0  0
    1.6164    9.2838   -1.8643 H   0  0  0  0  0  0  0  0  0  0  0  0
  1  2  1  0
  2  3  1  0
  3  4  1  0
  4  5  1  0
  5  6  1  0
  6  7  1  0
  7  8  1  0
  7  9  1  0
  2 10  1  0
 10 11  1  0
 11 12  1  0
 12 13  1  0
 13 14  1  1
 13 15  1  0
 15 16  1  0
 16 17  1  0
 17 18  2  0
 18 19  1  0
 19 20  1  0
 20 21  1  0
 21 22  1  0
 22 23  1  0
 22 24  1  0
 24 25  1  0
 24 26  1  0
 19 27  1  0
 27 28  1  6
 27 29  1  0
 29 30  1  0
 30 31  1  0
 31 32  1  6
  7  5  1  0
 31 10  1  0
 31 13  1  0
 27 15  1  0
 24 18  1  0
  1 33  1  0
  1 34  1  0
  1 35  1  0
  2 36  1  1
  3 37  1  0
  3 38  1  0
  4 39  1  0
  4 40  1  0
  5 41  1  1
  8 42  1  0
  8 43  1  0
  8 44  1  0
  9 45  1  0
  9 46  1  0
  9 47  1  0
 10 48  1  6
 11 49  1  0
 11 50  1  0
 12 51  1  0
 12 52  1  0
 14 53  1  0
 14 54  1  0
 14 55  1  0
 15 56  1  1
 16 57  1  0
 16 58  1  0
 17 59  1  0
 19 60  1  6
 20 61  1  0
 20 62  1  0
 21 63  1  0
 21 64  1  0
 22 65  1  6
 23 66  1  0
 25 67  1  0
 25 68  1  0
 25 69  1  0
 26 70  1  0
 26 71  1  0
 26 72  1  0
 28 73  1  0
 28 74  1  0
 28 75  1  0
 29 76  1  0
 29 77  1  0
 30 78  1  0
 30 79  1  0
 32 80  1  0
 32 81  1  0
 32 82  1  0
M  END
>  <meeko>  (14) 
{"is_sidechain": [false], "intermolecular_energy": 2.731, "internal_energy": -0.839}

$$$$
EPH_relaxed_0001_pdb2pqr_Repair_30_r2_0001_out
     RDKit          3D

 82 86  0  0  0  0  0  0  0  0999 V2000
    2.8640   11.4260   -5.5480 C   0  0  0  0  0  0  0  0  0  0  0  0
    1.9590   11.1240   -4.3510 C   0  0  2  0  0  0  0  0  0  0  0  0
    0.8460   10.1160   -4.7040 C   0  0  0  0  0  0  0  0  0  0  0  0
   -0.2370    9.9950   -3.6290 C   0  0  0  0  0  0  0  0  0  0  0  0
    0.1630    9.0420   -2.5440 C   0  0  2  0  0  0  0  0  0  0  0  0
   -0.8200    8.0470   -2.2280 O   0  0  0  0  0  0  0  0  0  0  0  0
   -0.5140    8.9870   -1.1860 C   0  0  0  0  0  0  0  0  0  0  0  0
   -1.6450    9.9030   -0.8410 C   0  0  0  0  0  0  0  0  0  0  0  0
    0.2360    8.3900   -0.0370 C   0  0  0  0  0  0  0  0  0  0  0  0
    1.3440   12.4160   -3.8250 C   0  0  1  0  0  0  0  0  0  0  0  0
   -0.2010   12.3370   -3.7070 C   0  0  0  0  0  0  0  0  0  0  0  0
   -0.5980   13.1730   -2.4630 C   0  0  0  0  0  0  0  0  0  0  0  0
    0.6790   13.9690   -2.1050 C   0  0  1  0  0  0  0  0  0  0  0  0
    0.6790   15.1880   -3.0800 C   0  0  0  0  0  0  0  0  0  0  0  0
    0.8150   14.4230   -0.6150 C   0  0  2  0  0  0  0  0  0  0  0  0
   -0.2750   15.3920   -0.1250 C   0  0  0  0  0  0  0  0  0  0  0  0
    0.0350   16.8410   -0.3010 C   0  0  0  0  0  0  0  0  0  0  0  0
    1.2500   17.3550   -0.5650 C   0  0  0  0  0  0  0  0  0  0  0  0
    2.4910   16.4550   -0.6160 C   0  0  1  0  0  0  0  0  0  0  0  0
    3.6410   17.1120    0.1910 C   0  0  0  0  0  0  0  0  0  0  0  0
    3.9360   18.5380   -0.2640 C   0  0  0  0  0  0  0  0  0  0  0  0
    2.6930   19.4160   -0.1430 C   0  0  2  0  0  0  0  0  0  0  0  0
    2.3680   19.5670    1.2420 O   0  0  0  0  0  0  0  0  0  0  0  0
    1.4650   18.8490   -0.9100 C   0  0  0  0  0  0  0  0  0  0  0  0
    1.7040   18.9670   -2.4350 C   0  0  0  0  0  0  0  0  0  0  0  0
    0.2440   19.7540   -0.5910 C   0  0  0  0  0  0  0  0  0  0  0  0
    2.2610   14.9330   -0.2220 C   0  0  1  0  0  0  0  0  0  0  0  0
    2.3900   14.7580    1.3220 C   0  0  0  0  0  0  0  0  0  0  0  0
    3.4000   14.0560   -0.8650 C   0  0  0  0  0  0  0  0  0  0  0  0
    3.1540   13.5390   -2.2950 C   0  0  0  0  0  0  0  0  0  0  0  0
    1.7740   12.8840   -2.4120 C   0  0  2  0  0  0  0  0  0  0  0  0
    1.7520   11.6410   -1.4580 C   0  0  0  0  0  0  0  0  0  0  0  0
    3.8501   11.7551   -5.1883 H   0  0  0  0  0  0  0  0  0  0  0  0
    2.9804   10.5180   -6.1579 H   0  0  0  0  0  0  0  0  0  0  0  0
    2.4118   12.2219   -6.1579 H   0  0  0  0  0  0  0  0  0  0  0  0
    2.5844   10.6655   -3.5708 H   0  0  0  0  0  0  0  0  0  0  0  0
    0.3701   10.4383   -5.6419 H   0  0  0  0  0  0  0  0  0  0  0  0
    1.3225    9.1286   -4.7933 H   0  0  0  0  0  0  0  0  0  0  0  0
   -0.4118   10.9865   -3.1859 H   0  0  0  0  0  0  0  0  0  0  0  0
   -1.1507    9.6091   -4.1047 H   0  0  0  0  0  0  0  0  0  0  0  0
    1.2202    9.1132   -2.8394 H   0  0  0  0  0  0  0  0  0  0  0  0
   -1.7364    9.9770    0.2527 H   0  0  0  0  0  0  0  0  0  0  0  0
   -1.4499   10.9008   -1.2610 H   0  0  0  0  0  0  0  0  0  0  0  0
   -2.5805    9.5049   -1.2610 H   0  0  0  0  0  0  0  0  0  0  0  0
   -0.2033    8.7397    0.9089 H   0  0  0  0  0  0  0  0  0  0  0  0
    0.1720    7.2930   -0.0876 H   0  0  0  0  0  0  0  0  0  0  0  0
    1.2907    8.6984   -0.0876 H   0  0  0  0  0  0  0  0  0  0  0  0
    1.7157   13.1200   -4.5841 H   0  0  0  0  0  0  0  0  0  0  0  0
   -0.6716   12.7540   -4.6096 H   0  0  0  0  0  0  0  0  0  0  0  0
   -0.5365   11.2943   -3.6056 H   0  0  0  0  0  0  0  0  0  0  0  0
   -1.4269   13.8555   -2.7020 H   0  0  0  0  0  0  0  0  0  0  0  0
   -0.9446   12.5434   -1.6302 H   0  0  0  0  0  0  0  0  0  0  0  0
    1.7161   15.4743   -3.3090 H   0  0  0  0  0  0  0  0  0  0  0  0
    0.1605   14.9133   -4.0104 H   0  0  0  0  0  0  0  0  0  0  0  0
    0.1605   16.0353   -2.6076 H   0  0  0  0  0  0  0  0  0  0  0  0
    0.6474   13.4841   -0.0670 H   0  0  0  0  0  0  0  0  0  0  0  0
   -1.1994   15.1723   -0.6793 H   0  0  0  0  0  0  0  0  0  0  0  0
   -0.3625   15.2288    0.9593 H   0  0  0  0  0  0  0  0  0  0  0  0
   -0.8013   17.5494   -0.2069 H   0  0  0  0  0  0  0  0  0  0  0  0
    2.7721   16.3855   -1.6772 H   0  0  0  0  0  0  0  0  0  0  0  0
    3.3586   17.1325    1.2539 H   0  0  0  0  0  0  0  0  0  0  0  0
    4.5492   16.5142    0.0243 H   0  0  0  0  0  0  0  0  0  0  0  0
    4.7362   18.9580    0.3632 H   0  0  0  0  0  0  0  0  0  0  0  0
    4.2478   18.5133   -1.3186 H   0  0  0  0  0  0  0  0  0  0  0  0
    2.9289   20.3868   -0.6033 H   0  0  0  0  0  0  0  0  0  0  0  0
    2.3870   20.5180    1.4470 H   0  0  0  0  0  0  0  0  0  0  0  0
    2.6766   19.4472   -2.6176 H   0  0  0  0  0  0  0  0  0  0  0  0
    1.7002   17.9635   -2.8855 H   0  0  0  0  0  0  0  0  0  0  0  0
    0.9050   19.5742   -2.8855 H   0  0  0  0  0  0  0  0  0  0  0  0
    0.1269   19.8408    0.4993 H   0  0  0  0  0  0  0  0  0  0  0  0
    0.4049   20.7527   -1.0232 H   0  0  0  0  0  0  0  0  0  0  0  0
   -0.6647   19.3096   -1.0232 H   0  0  0  0  0  0  0  0  0  0  0  0
    1.8110   15.5435    1.8297 H   0  0  0  0  0  0  0  0  0  0  0  0
    2.0021   13.7706    1.6128 H   0  0  0  0  0  0  0  0  0  0  0  0
    3.4480   14.8364    1.6128 H   0  0  0  0  0  0  0  0  0  0  0  0
    4.3171   14.6630   -0.8837 H   0  0  0  0  0  0  0  0  0  0  0  0
    3.4574   13.1538   -0.2383 H   0  0  0  0  0  0  0  0  0  0  0  0
    3.2123   14.3832   -2.9978 H   0  0  0  0  0  0  0  0  0  0  0  0
    3.9204   12.7865   -2.5324 H   0  0  0  0  0  0  0  0  0  0  0  0
    1.7580   11.9814   -0.4120 H   0  0  0  0  0  0  0  0  0  0  0  0
    0.8433   11.0504   -1.6462 H   0  0  0  0  0  0  0  0  0  0  0  0
    2.6393   11.0186   -1.6462 H   0  0  0  0  0  0  0  0  0  0  0  0
  1  2  1  0
  2  3  1  0
  3  4  1  0
  4  5  1  0
  5  6  1  0
  6  7  1  0
  7  8  1  0
  7  9  1  0
  2 10  1  0
 10 11  1  0
 11 12  1  0
 12 13  1  0
 13 14  1  6
 13 15  1  0
 15 16  1  0
 16 17  1  0
 17 18  2  0
 18 19  1  0
 19 20  1  0
 20 21  1  0
 21 22  1  0
 22 23  1  0
 22 24  1  0
 24 25  1  0
 24 26  1  0
 19 27  1  0
 27 28  1  1
 27 29  1  0
 29 30  1  0
 30 31  1  0
 31 32  1  1
  7  5  1  0
 31 10  1  0
 31 13  1  0
 27 15  1  0
 24 18  1  0
  1 33  1  0
  1 34  1  0
  1 35  1  0
  2 36  1  1
  3 37  1  0
  3 38  1  0
  4 39  1  0
  4 40  1  0
  5 41  1  1
  8 42  1  0
  8 43  1  0
  8 44  1  0
  9 45  1  0
  9 46  1  0
  9 47  1  0
 10 48  1  6
 11 49  1  0
 11 50  1  0
 12 51  1  0
 12 52  1  0
 14 53  1  0
 14 54  1  0
 14 55  1  0
 15 56  1  1
 16 57  1  0
 16 58  1  0
 17 59  1  0
 19 60  1  6
 20 61  1  0
 20 62  1  0
 21 63  1  0
 21 64  1  0
 22 65  1  6
 23 66  1  0
 25 67  1  0
 25 68  1  0
 25 69  1  0
 26 70  1  0
 26 71  1  0
 26 72  1  0
 28 73  1  0
 28 74  1  0
 28 75  1  0
 29 76  1  0
 29 77  1  0
 30 78  1  0
 30 79  1  0
 32 80  1  0
 32 81  1  0
 32 82  1  0
M  END
>  <meeko>  (15) 
{"is_sidechain": [false], "intermolecular_energy": 2.731, "internal_energy": -0.839}

$$$$
EPH_relaxed_0001_pdb2pqr_Repair_30_r2_0001_out
     RDKit          3D

 82 86  0  0  0  0  0  0  0  0999 V2000
    0.1320   17.6140   -2.8860 C   0  0  0  0  0  0  0  0  0  0  0  0
    0.0950   17.0140   -1.4770 C   0  0  2  0  0  0  0  0  0  0  0  0
    0.3270   18.0790   -0.3870 C   0  0  0  0  0  0  0  0  0  0  0  0
    1.3430   19.1540   -0.7820 C   0  0  0  0  0  0  0  0  0  0  0  0
    2.6520   18.9670   -0.0760 C   0  0  2  0  0  0  0  0  0  0  0  0
    2.6000   18.0910    1.0580 O   0  0  0  0  0  0  0  0  0  0  0  0
    2.9210   19.4650    1.3320 C   0  0  0  0  0  0  0  0  0  0  0  0
    1.8730   20.1890    2.1170 C   0  0  0  0  0  0  0  0  0  0  0  0
    4.3400   19.6790    1.7560 C   0  0  0  0  0  0  0  0  0  0  0  0
    1.1370   15.9090   -1.3560 C   0  0  1  0  0  0  0  0  0  0  0  0
    1.2820   15.3810    0.0960 C   0  0  0  0  0  0  0  0  0  0  0  0
    1.5820   13.8640   -0.0070 C   0  0  0  0  0  0  0  0  0  0  0  0
    1.9270   13.6340   -1.4970 C   0  0  1  0  0  0  0  0  0  0  0  0
    3.4200   14.0670   -1.6350 C   0  0  0  0  0  0  0  0  0  0  0  0
    1.6910   12.1900   -2.0470 C   0  0  2  0  0  0  0  0  0  0  0  0
    2.5410   11.0920   -1.3830 C   0  0  0  0  0  0  0  0  0  0  0  0
    3.8570   10.8230   -2.0340 C   0  0  0  0  0  0  0  0  0  0  0  0
    4.2170   11.2290   -3.2660 C   0  0  0  0  0  0  0  0  0  0  0  0
    3.2220   11.9570   -4.1780 C   0  0  1  0  0  0  0  0  0  0  0  0
    3.2770   11.3410   -5.6010 C   0  0  0  0  0  0  0  0  0  0  0  0
    4.6900   11.3230   -6.1760 C   0  0  0  0  0  0  0  0  0  0  0  0
    5.6380   10.5420   -5.2700 C   0  0  2  0  0  0  0  0  0  0  0  0
    5.2550    9.1630   -5.2820 O   0  0  0  0  0  0  0  0  0  0  0  0
    5.6590   11.0660   -3.8070 C   0  0  0  0  0  0  0  0  0  0  0  0
    6.3560   12.4480   -3.7590 C   0  0  0  0  0  0  0  0  0  0  0  0
    6.5440   10.1050   -2.9680 C   0  0  0  0  0  0  0  0  0  0  0  0
    1.7370   12.0810   -3.6250 C   0  0  1  0  0  0  0  0  0  0  0  0
    0.9180   10.8100   -4.0070 C   0  0  0  0  0  0  0  0  0  0  0  0
    1.0250   13.2960   -4.3290 C   0  0  0  0  0  0  0  0  0  0  0  0
    1.1970   14.6780   -3.6710 C   0  0  0  0  0  0  0  0  0  0  0  0
    0.8970   14.6130   -2.1710 C   0  0  2  0  0  0  0  0  0  0  0  0
   -0.6060   14.2020   -2.0020 C   0  0  0  0  0  0  0  0  0  0  0  0
    0.1996   18.7097   -2.8163 H   0  0  0  0  0  0  0  0  0  0  0  0
    1.0079   17.2263   -3.4267 H   0  0  0  0  0  0  0  0  0  0  0  0
   -0.7849   17.3368   -3.4267 H   0  0  0  0  0  0  0  0  0  0  0  0
   -0.9103   16.5956   -1.3210 H   0  0  0  0  0  0  0  0  0  0  0  0
   -0.6332   18.5710   -0.1724 H   0  0  0  0  0  0  0  0  0  0  0  0
    0.7368   17.5567    0.4901 H   0  0  0  0  0  0  0  0  0  0  0  0
    1.5130   19.1019   -1.8675 H   0  0  0  0  0  0  0  0  0  0  0  0
    0.9349   20.1338   -0.4930 H   0  0  0  0  0  0  0  0  0  0  0  0
    3.2055   19.0864   -1.0191 H   0  0  0  0  0  0  0  0  0  0  0  0
    2.0639   20.0572    3.1923 H   0  0  0  0  0  0  0  0  0  0  0  0
    1.9028   21.2600    1.8679 H   0  0  0  0  0  0  0  0  0  0  0  0
    0.8818   19.7821    1.8679 H   0  0  0  0  0  0  0  0  0  0  0  0
    4.3971   19.6876    2.8545 H   0  0  0  0  0  0  0  0  0  0  0  0
    4.9669   18.8652    1.3626 H   0  0  0  0  0  0  0  0  0  0  0  0
    4.6991   20.6415    1.3626 H   0  0  0  0  0  0  0  0  0  0  0  0
    2.0168   16.4418   -1.7460 H   0  0  0  0  0  0  0  0  0  0  0  0
    2.1091   15.8968    0.6057 H   0  0  0  0  0  0  0  0  0  0  0  0
    0.3652   15.5635    0.6757 H   0  0  0  0  0  0  0  0  0  0  0  0
    2.4329   13.5921    0.6349 H   0  0  0  0  0  0  0  0  0  0  0  0
    0.7331   13.2478    0.3242 H   0  0  0  0  0  0  0  0  0  0  0  0
    3.8588   14.1943   -0.6344 H   0  0  0  0  0  0  0  0  0  0  0  0
    3.9769   13.2934   -2.1839 H   0  0  0  0  0  0  0  0  0  0  0  0
    3.4766   15.0186   -2.1839 H   0  0  0  0  0  0  0  0  0  0  0  0
    0.6528   11.9893   -1.7437 H   0  0  0  0  0  0  0  0  0  0  0  0
    2.7318   11.3927   -0.3423 H   0  0  0  0  0  0  0  0  0  0  0  0
    1.9610   10.1618   -1.4736 H   0  0  0  0  0  0  0  0  0  0  0  0
    4.5947   10.2444   -1.4587 H   0  0  0  0  0  0  0  0  0  0  0  0
    3.5523   13.0057   -4.2117 H   0  0  0  0  0  0  0  0  0  0  0  0
    2.9027   10.3078   -5.5528 H   0  0  0  0  0  0  0  0  0  0  0  0
    2.6562   11.9659   -6.2598 H   0  0  0  0  0  0  0  0  0  0  0  0
    4.6687   10.8492   -7.1685 H   0  0  0  0  0  0  0  0  0  0  0  0
    5.0512   12.3592   -6.2520 H   0  0  0  0  0  0  0  0  0  0  0  0
    6.6560   10.6753   -5.6647 H   0  0  0  0  0  0  0  0  0  0  0  0
    4.4410    9.0890   -5.8080 H   0  0  0  0  0  0  0  0  0  0  0  0
    6.5066   12.7465   -2.7110 H   0  0  0  0  0  0  0  0  0  0  0  0
    7.3302   12.3851   -4.2659 H   0  0  0  0  0  0  0  0  0  0  0  0
    5.7263   13.1940   -4.2659 H   0  0  0  0  0  0  0  0  0  0  0  0
    6.3734   10.2903   -1.8972 H   0  0  0  0  0  0  0  0  0  0  0  0
    6.2821    9.0635   -3.2062 H   0  0  0  0  0  0  0  0  0  0  0  0
    7.6035   10.2804   -3.2062 H   0  0  0  0  0  0  0  0  0  0  0  0
    0.5878   10.2976   -3.0913 H   0  0  0  0  0  0  0  0  0  0  0  0
    0.0393   11.1044   -4.5996 H   0  0  0  0  0  0  0  0  0  0  0  0
    1.5492   10.1314   -4.5996 H   0  0  0  0  0  0  0  0  0  0  0  0
    1.4187   13.3641   -5.3539 H   0  0  0  0  0  0  0  0  0  0  0  0
   -0.0509   13.0772   -4.2620 H   0  0  0  0  0  0  0  0  0  0  0  0
    2.2326   15.0191   -3.8162 H   0  0  0  0  0  0  0  0  0  0  0  0
    0.4908   15.3794   -4.1394 H   0  0  0  0  0  0  0  0  0  0  0  0
   -0.8497   14.1353   -0.9314 H   0  0  0  0  0  0  0  0  0  0  0  0
   -1.2485   14.9574   -2.4780 H   0  0  0  0  0  0  0  0  0  0  0  0
   -0.7747   13.2248   -2.4780 H   0  0  0  0  0  0  0  0  0  0  0  0
  1  2  1  0
  2  3  1  0
  3  4  1  0
  4  5  1  0
  5  6  1  0
  6  7  1  0
  7  8  1  0
  7  9  1  0
  2 10  1  0
 10 11  1  0
 11 12  1  0
 12 13  1  0
 13 14  1  1
 13 15  1  0
 15 16  1  0
 16 17  1  0
 17 18  2  0
 18 19  1  0
 19 20  1  0
 20 21  1  0
 21 22  1  0
 22 23  1  0
 22 24  1  0
 24 25  1  0
 24 26  1  0
 19 27  1  0
 27 28  1  1
 27 29  1  0
 29 30  1  0
 30 31  1  0
 31 32  1  6
  7  5  1  0
 31 10  1  0
 31 13  1  0
 27 15  1  0
 24 18  1  0
  1 33  1  0
  1 34  1  0
  1 35  1  0
  2 36  1  1
  3 37  1  0
  3 38  1  0
  4 39  1  0
  4 40  1  0
  5 41  1  6
  8 42  1  0
  8 43  1  0
  8 44  1  0
  9 45  1  0
  9 46  1  0
  9 47  1  0
 10 48  1  6
 11 49  1  0
 11 50  1  0
 12 51  1  0
 12 52  1  0
 14 53  1  0
 14 54  1  0
 14 55  1  0
 15 56  1  1
 16 57  1  0
 16 58  1  0
 17 59  1  0
 19 60  1  6
 20 61  1  0
 20 62  1  0
 21 63  1  0
 21 64  1  0
 22 65  1  6
 23 66  1  0
 25 67  1  0
 25 68  1  0
 25 69  1  0
 26 70  1  0
 26 71  1  0
 26 72  1  0
 28 73  1  0
 28 74  1  0
 28 75  1  0
 29 76  1  0
 29 77  1  0
 30 78  1  0
 30 79  1  0
 32 80  1  0
 32 81  1  0
 32 82  1  0
M  END
>  <meeko>  (16) 
{"is_sidechain": [false], "intermolecular_energy": 2.731, "internal_energy": -0.839}

$$$$
EPH_relaxed_0001_pdb2pqr_Repair_30_r2_0001_out
     RDKit          3D

 82 86  0  0  0  0  0  0  0  0999 V2000
    0.9000   14.9110   -2.6540 C   0  0  0  0  0  0  0  0  0  0  0  0
    1.1660   14.2350   -4.0020 C   0  0  2  0  0  0  0  0  0  0  0  0
    0.4600   14.9610   -5.1640 C   0  0  0  0  0  0  0  0  0  0  0  0
    0.9950   14.5760   -6.5460 C   0  0  0  0  0  0  0  0  0  0  0  0
    0.7780   15.6680   -7.5490 C   0  0  2  0  0  0  0  0  0  0  0  0
    0.4220   15.2140   -8.8610 O   0  0  0  0  0  0  0  0  0  0  0  0
    1.6810   15.8960   -8.7470 C   0  0  0  0  0  0  0  0  0  0  0  0
    2.8710   15.0240   -9.0040 C   0  0  0  0  0  0  0  0  0  0  0  0
    1.6940   17.2490   -9.3860 C   0  0  0  0  0  0  0  0  0  0  0  0
    0.7210   12.7790   -3.9490 C   0  0  1  0  0  0  0  0  0  0  0  0
    1.8540   11.7930   -4.3420 C   0  0  0  0  0  0  0  0  0  0  0  0
    1.6650   10.5240   -3.4720 C   0  0  0  0  0  0  0  0  0  0  0  0
    0.2560   10.6810   -2.8550 C   0  0  1  0  0  0  0  0  0  0  0  0
   -0.7260   10.2120   -3.9740 C   0  0  0  0  0  0  0  0  0  0  0  0
    0.0020    9.9240   -1.5110 C   0  0  2  0  0  0  0  0  0  0  0  0
    0.1110    8.3910   -1.5940 C   0  0  0  0  0  0  0  0  0  0  0  0
   -1.1610    7.6770   -1.9110 C   0  0  0  0  0  0  0  0  0  0  0  0
   -2.3950    8.2100   -1.8400 C   0  0  0  0  0  0  0  0  0  0  0  0
   -2.6090    9.6350   -1.3130 C   0  0  1  0  0  0  0  0  0  0  0  0
   -3.7820    9.6400   -0.2980 C   0  0  0  0  0  0  0  0  0  0  0  0
   -5.0580    9.0330   -0.8750 C   0  0  0  0  0  0  0  0  0  0  0  0
   -4.8190    7.5970   -1.3340 C   0  0  2  0  0  0  0  0  0  0  0  0
   -4.5500    6.7850   -0.1870 O   0  0  0  0  0  0  0  0  0  0  0  0
   -3.6530    7.4660   -2.3530 C   0  0  0  0  0  0  0  0  0  0  0  0
   -4.0700    8.0920   -3.7060 C   0  0  0  0  0  0  0  0  0  0  0  0
   -3.4250    5.9540   -2.6260 C   0  0  0  0  0  0  0  0  0  0  0  0
   -1.3150   10.3690   -0.7550 C   0  0  1  0  0  0  0  0  0  0  0  0
   -1.1080   10.0120    0.7490 C   0  0  0  0  0  0  0  0  0  0  0  0
   -1.5420   11.9260   -0.8140 C   0  0  0  0  0  0  0  0  0  0  0  0
   -1.1600   12.6340   -2.1280 C   0  0  0  0  0  0  0  0  0  0  0  0
    0.2460   12.2290   -2.5810 C   0  0  2  0  0  0  0  0  0  0  0  0
    1.2580   12.7070   -1.4850 C   0  0  0  0  0  0  0  0  0  0  0  0
    1.1706   14.2233   -1.8392 H   0  0  0  0  0  0  0  0  0  0  0  0
    1.5049   15.8265   -2.5772 H   0  0  0  0  0  0  0  0  0  0  0  0
   -0.1666   15.1688   -2.5772 H   0  0  0  0  0  0  0  0  0  0  0  0
    2.2485   14.2857   -4.1909 H   0  0  0  0  0  0  0  0  0  0  0  0
   -0.6118   14.7166   -5.1261 H   0  0  0  0  0  0  0  0  0  0  0  0
    0.6501   16.0366   -5.0339 H   0  0  0  0  0  0  0  0  0  0  0  0
    2.0734   14.3738   -6.4670 H   0  0  0  0  0  0  0  0  0  0  0  0
    0.4503   13.6836   -6.8879 H   0  0  0  0  0  0  0  0  0  0  0  0
    0.4063   16.3451   -6.7658 H   0  0  0  0  0  0  0  0  0  0  0  0
    3.3059   14.7053   -8.0452 H   0  0  0  0  0  0  0  0  0  0  0  0
    2.5597   14.1386   -9.5778 H   0  0  0  0  0  0  0  0  0  0  0  0
    3.6215   15.5876   -9.5778 H   0  0  0  0  0  0  0  0  0  0  0  0
    1.7014   18.0234   -8.6048 H   0  0  0  0  0  0  0  0  0  0  0  0
    2.5932   17.3505  -10.0115 H   0  0  0  0  0  0  0  0  0  0  0  0
    0.7970   17.3677  -10.0115 H   0  0  0  0  0  0  0  0  0  0  0  0
   -0.1240   12.8196   -4.6521 H   0  0  0  0  0  0  0  0  0  0  0  0
    1.7788   11.5355   -5.4088 H   0  0  0  0  0  0  0  0  0  0  0  0
    2.8440   12.2424   -4.1748 H   0  0  0  0  0  0  0  0  0  0  0  0
    1.7188    9.6167   -4.0916 H   0  0  0  0  0  0  0  0  0  0  0  0
    2.4474   10.4232   -2.7054 H   0  0  0  0  0  0  0  0  0  0  0  0
   -1.6276    9.7814   -3.5138 H   0  0  0  0  0  0  0  0  0  0  0  0
   -1.0083   11.0725   -4.5984 H   0  0  0  0  0  0  0  0  0  0  0  0
   -0.2342    9.4516   -4.5984 H   0  0  0  0  0  0  0  0  0  0  0  0
    0.8512   10.2509   -0.8930 H   0  0  0  0  0  0  0  0  0  0  0  0
    0.8433    8.1443   -2.3769 H   0  0  0  0  0  0  0  0  0  0  0  0
    0.4077    8.0525   -0.5903 H   0  0  0  0  0  0  0  0  0  0  0  0
   -1.0834    6.6270   -2.2294 H   0  0  0  0  0  0  0  0  0  0  0  0
   -2.8704   10.2479   -2.1883 H   0  0  0  0  0  0  0  0  0  0  0  0
   -3.4845    9.0593    0.5876 H   0  0  0  0  0  0  0  0  0  0  0  0
   -3.9971   10.6878   -0.0416 H   0  0  0  0  0  0  0  0  0  0  0  0
   -5.8408    9.0385   -0.1022 H   0  0  0  0  0  0  0  0  0  0  0  0
   -5.3707    9.6319   -1.7430 H   0  0  0  0  0  0  0  0  0  0  0  0
   -5.7284    7.2608   -1.8536 H   0  0  0  0  0  0  0  0  0  0  0  0
   -3.7270    6.2970   -0.3590 H   0  0  0  0  0  0  0  0  0  0  0  0
   -4.6713    8.9947   -3.5226 H   0  0  0  0  0  0  0  0  0  0  0  0
   -3.1700    8.3610   -4.2784 H   0  0  0  0  0  0  0  0  0  0  0  0
   -4.6650    7.3652   -4.2784 H   0  0  0  0  0  0  0  0  0  0  0  0
   -3.3440    5.4168   -1.6695 H   0  0  0  0  0  0  0  0  0  0  0  0
   -4.2729    5.5533   -3.2009 H   0  0  0  0  0  0  0  0  0  0  0  0
   -2.4967    5.8211   -3.2009 H   0  0  0  0  0  0  0  0  0  0  0  0
   -1.5610   10.7933    1.3770 H   0  0  0  0  0  0  0  0  0  0  0  0
   -1.5855    9.0449    0.9654 H   0  0  0  0  0  0  0  0  0  0  0  0
   -0.0315    9.9460    0.9654 H   0  0  0  0  0  0  0  0  0  0  0  0
   -2.6107   12.1136   -0.6333 H   0  0  0  0  0  0  0  0  0  0  0  0
   -0.8658   12.3447   -0.0541 H   0  0  0  0  0  0  0  0  0  0  0  0
   -1.8833   12.3573   -2.9092 H   0  0  0  0  0  0  0  0  0  0  0  0
   -1.1739   13.7206   -1.9575 H   0  0  0  0  0  0  0  0  0  0  0  0
    0.8388   12.5090   -0.4875 H   0  0  0  0  0  0  0  0  0  0  0  0
    2.2065   12.1617   -1.5989 H   0  0  0  0  0  0  0  0  0  0  0  0
    1.4393   13.7859   -1.5989 H   0  0  0  0  0  0  0  0  0  0  0  0
  1  2  1  0
  2  3  1  0
  3  4  1  0
  4  5  1  0
  5  6  1  0
  6  7  1  0
  7  8  1  0
  7  9  1  0
  2 10  1  0
 10 11  1  0
 11 12  1  0
 12 13  1  0
 13 14  1  6
 13 15  1  0
 15 16  1  0
 16 17  1  0
 17 18  2  0
 18 19  1  0
 19 20  1  0
 20 21  1  0
 21 22  1  0
 22 23  1  0
 22 24  1  0
 24 25  1  0
 24 26  1  0
 19 27  1  0
 27 28  1  1
 27 29  1  0
 29 30  1  0
 30 31  1  0
 31 32  1  1
  7  5  1  0
 31 10  1  0
 31 13  1  0
 27 15  1  0
 24 18  1  0
  1 33  1  0
  1 34  1  0
  1 35  1  0
  2 36  1  6
  3 37  1  0
  3 38  1  0
  4 39  1  0
  4 40  1  0
  5 41  1  1
  8 42  1  0
  8 43  1  0
  8 44  1  0
  9 45  1  0
  9 46  1  0
  9 47  1  0
 10 48  1  6
 11 49  1  0
 11 50  1  0
 12 51  1  0
 12 52  1  0
 14 53  1  0
 14 54  1  0
 14 55  1  0
 15 56  1  1
 16 57  1  0
 16 58  1  0
 17 59  1  0
 19 60  1  6
 20 61  1  0
 20 62  1  0
 21 63  1  0
 21 64  1  0
 22 65  1  6
 23 66  1  0
 25 67  1  0
 25 68  1  0
 25 69  1  0
 26 70  1  0
 26 71  1  0
 26 72  1  0
 28 73  1  0
 28 74  1  0
 28 75  1  0
 29 76  1  0
 29 77  1  0
 30 78  1  0
 30 79  1  0
 32 80  1  0
 32 81  1  0
 32 82  1  0
M  END
>  <meeko>  (17) 
{"is_sidechain": [false], "intermolecular_energy": 2.731, "internal_energy": -0.839}

$$$$
EPH_relaxed_0001_pdb2pqr_Repair_30_r2_0001_out
     RDKit          3D

 82 86  0  0  0  0  0  0  0  0999 V2000
   -1.7520   14.8090    0.3650 C   0  0  0  0  0  0  0  0  0  0  0  0
   -0.3980   15.5130    0.2300 C   0  0  2  0  0  0  0  0  0  0  0  0
   -0.4020   16.5670   -0.8950 C   0  0  0  0  0  0  0  0  0  0  0  0
   -0.0250   17.9730   -0.4220 C   0  0  0  0  0  0  0  0  0  0  0  0
    1.4140   18.0520   -0.0070 C   0  0  2  0  0  0  0  0  0  0  0  0
    2.0780   19.2670   -0.3780 O   0  0  0  0  0  0  0  0  0  0  0  0
    2.5680   18.0630   -0.9910 C   0  0  0  0  0  0  0  0  0  0  0  0
    2.3360   17.9950   -2.4680 C   0  0  0  0  0  0  0  0  0  0  0  0
    3.9240   17.6500   -0.5090 C   0  0  0  0  0  0  0  0  0  0  0  0
    0.6990   14.4850   -0.0230 C   0  0  1  0  0  0  0  0  0  0  0  0
    0.8380   13.4620    1.1360 C   0  0  0  0  0  0  0  0  0  0  0  0
    1.2210   12.1050    0.4920 C   0  0  0  0  0  0  0  0  0  0  0  0
    1.6130   12.4610   -0.9610 C   0  0  1  0  0  0  0  0  0  0  0  0
    3.0840   12.9740   -0.8660 C   0  0  0  0  0  0  0  0  0  0  0  0
    1.4690   11.3150   -2.0150 C   0  0  2  0  0  0  0  0  0  0  0  0
    2.3610   10.0860   -1.7690 C   0  0  0  0  0  0  0  0  0  0  0  0
    3.7040   10.1320   -2.4180 C   0  0  0  0  0  0  0  0  0  0  0  0
    4.0720   10.9810   -3.3960 C   0  0  0  0  0  0  0  0  0  0  0  0
    3.0600   11.9540   -4.0160 C   0  0  1  0  0  0  0  0  0  0  0  0
    3.1830   11.9130   -5.5620 C   0  0  0  0  0  0  0  0  0  0  0  0
    4.6080   12.1690   -6.0420 C   0  0  0  0  0  0  0  0  0  0  0  0
    5.5750   11.1470   -5.4500 C   0  0  2  0  0  0  0  0  0  0  0  0
    5.2670    9.8570   -5.9870 O   0  0  0  0  0  0  0  0  0  0  0  0
    5.5330   11.0900   -3.8980 C   0  0  0  0  0  0  0  0  0  0  0  0
    6.1520   12.3840   -3.3130 C   0  0  0  0  0  0  0  0  0  0  0  0
    6.4480    9.9240   -3.4370 C   0  0  0  0  0  0  0  0  0  0  0  0
    1.5580   11.8020   -3.5190 C   0  0  1  0  0  0  0  0  0  0  0  0
    0.8190   10.7320   -4.3780 C   0  0  0  0  0  0  0  0  0  0  0  0
    0.7990   13.1610   -3.7530 C   0  0  0  0  0  0  0  0  0  0  0  0
    0.8810   14.2070   -2.6240 C   0  0  0  0  0  0  0  0  0  0  0  0
    0.5480   13.5760   -1.2680 C   0  0  2  0  0  0  0  0  0  0  0  0
   -0.9330   13.0700   -1.3260 C   0  0  0  0  0  0  0  0  0  0  0  0
   -1.9950   14.6827    1.4304 H   0  0  0  0  0  0  0  0  0  0  0  0
   -2.5309   15.4163   -0.1192 H   0  0  0  0  0  0  0  0  0  0  0  0
   -1.7023   13.8226   -0.1192 H   0  0  0  0  0  0  0  0  0  0  0  0
   -0.2027   16.0400    1.1756 H   0  0  0  0  0  0  0  0  0  0  0  0
    0.3182   16.2551   -1.6657 H   0  0  0  0  0  0  0  0  0  0  0  0
   -1.4309   16.6224   -1.2800 H   0  0  0  0  0  0  0  0  0  0  0  0
   -0.1986   18.6838   -1.2434 H   0  0  0  0  0  0  0  0  0  0  0  0
   -0.6474   18.2192    0.4509 H   0  0  0  0  0  0  0  0  0  0  0  0
    1.2139   17.4454    0.8886 H   0  0  0  0  0  0  0  0  0  0  0  0
    1.2970   17.6905   -2.6623 H   0  0  0  0  0  0  0  0  0  0  0  0
    2.5176   18.9842   -2.9136 H   0  0  0  0  0  0  0  0  0  0  0  0
    3.0229   17.2604   -2.9136 H   0  0  0  0  0  0  0  0  0  0  0  0
    3.9367   17.6461    0.5909 H   0  0  0  0  0  0  0  0  0  0  0  0
    4.1541   16.6410   -0.8819 H   0  0  0  0  0  0  0  0  0  0  0  0
    4.6775   18.3594   -0.8819 H   0  0  0  0  0  0  0  0  0  0  0  0
    1.5580   15.1600   -0.1515 H   0  0  0  0  0  0  0  0  0  0  0  0
    1.6242   13.7852    1.8341 H   0  0  0  0  0  0  0  0  0  0  0  0
   -0.1006   13.3786    1.7036 H   0  0  0  0  0  0  0  0  0  0  0  0
    2.0697   11.6488    1.0227 H   0  0  0  0  0  0  0  0  0  0  0  0
    0.3992   11.3751    0.5360 H   0  0  0  0  0  0  0  0  0  0  0  0
    3.3700   13.0737    0.1915 H   0  0  0  0  0  0  0  0  0  0  0  0
    3.7551   12.2569   -1.3613 H   0  0  0  0  0  0  0  0  0  0  0  0
    3.1636   13.9530   -1.3613 H   0  0  0  0  0  0  0  0  0  0  0  0
    0.4367   10.9725   -1.8507 H   0  0  0  0  0  0  0  0  0  0  0  0
    2.5113    9.9870   -0.6838 H   0  0  0  0  0  0  0  0  0  0  0  0
    1.8341    9.2327   -2.2209 H   0  0  0  0  0  0  0  0  0  0  0  0
    4.4573    9.4110   -2.0676 H   0  0  0  0  0  0  0  0  0  0  0  0
    3.3327   12.9534   -3.6461 H   0  0  0  0  0  0  0  0  0  0  0  0
    2.8648   10.9209   -5.9149 H   0  0  0  0  0  0  0  0  0  0  0  0
    2.5449   12.7112   -5.9692 H   0  0  0  0  0  0  0  0  0  0  0  0
    4.6365   12.0980   -7.1393 H   0  0  0  0  0  0  0  0  0  0  0  0
    4.9140   13.1732   -5.7135 H   0  0  0  0  0  0  0  0  0  0  0  0
    6.5934   11.4595   -5.7242 H   0  0  0  0  0  0  0  0  0  0  0  0
    6.1010    9.4550   -6.2850 H   0  0  0  0  0  0  0  0  0  0  0  0
    6.1295   12.3370   -2.2142 H   0  0  0  0  0  0  0  0  0  0  0  0
    7.1932   12.4794   -3.6547 H   0  0  0  0  0  0  0  0  0  0  0  0
    5.5728   13.2545   -3.6547 H   0  0  0  0  0  0  0  0  0  0  0  0
    6.4740    9.8909   -2.3378 H   0  0  0  0  0  0  0  0  0  0  0  0
    6.0527    8.9729   -3.8232 H   0  0  0  0  0  0  0  0  0  0  0  0
    7.4658   10.0819   -3.8232 H   0  0  0  0  0  0  0  0  0  0  0  0
    0.3203   10.0099   -3.7148 H   0  0  0  0  0  0  0  0  0  0  0  0
    0.0685   11.2258   -5.0128 H   0  0  0  0  0  0  0  0  0  0  0  0
    1.5466   10.2050   -5.0128 H   0  0  0  0  0  0  0  0  0  0  0  0
    1.2125   13.6205   -4.6629 H   0  0  0  0  0  0  0  0  0  0  0  0
   -0.2649   12.8889   -3.8161 H   0  0  0  0  0  0  0  0  0  0  0  0
    1.9001   14.6194   -2.5886 H   0  0  0  0  0  0  0  0  0  0  0  0
    0.1508   15.0036   -2.8295 H   0  0  0  0  0  0  0  0  0  0  0  0
   -1.3161   12.9391   -0.3032 H   0  0  0  0  0  0  0  0  0  0  0  0
   -1.5519   13.8076   -1.8578 H   0  0  0  0  0  0  0  0  0  0  0  0
   -0.9712   12.1078   -1.8578 H   0  0  0  0  0  0  0  0  0  0  0  0
  1  2  1  0
  2  3  1  0
  3  4  1  0
  4  5  1  0
  5  6  1  0
  6  7  1  0
  7  8  1  0
  7  9  1  0
  2 10  1  0
 10 11  1  0
 11 12  1  0
 12 13  1  0
 13 14  1  1
 13 15  1  0
 15 16  1  0
 16 17  1  0
 17 18  2  0
 18 19  1  0
 19 20  1  0
 20 21  1  0
 21 22  1  0
 22 23  1  0
 22 24  1  0
 24 25  1  0
 24 26  1  0
 19 27  1  0
 27 28  1  6
 27 29  1  0
 29 30  1  0
 30 31  1  0
 31 32  1  6
  7  5  1  0
 31 10  1  0
 31 13  1  0
 27 15  1  0
 24 18  1  0
  1 33  1  0
  1 34  1  0
  1 35  1  0
  2 36  1  1
  3 37  1  0
  3 38  1  0
  4 39  1  0
  4 40  1  0
  5 41  1  1
  8 42  1  0
  8 43  1  0
  8 44  1  0
  9 45  1  0
  9 46  1  0
  9 47  1  0
 10 48  1  6
 11 49  1  0
 11 50  1  0
 12 51  1  0
 12 52  1  0
 14 53  1  0
 14 54  1  0
 14 55  1  0
 15 56  1  6
 16 57  1  0
 16 58  1  0
 17 59  1  0
 19 60  1  1
 20 61  1  0
 20 62  1  0
 21 63  1  0
 21 64  1  0
 22 65  1  1
 23 66  1  0
 25 67  1  0
 25 68  1  0
 25 69  1  0
 26 70  1  0
 26 71  1  0
 26 72  1  0
 28 73  1  0
 28 74  1  0
 28 75  1  0
 29 76  1  0
 29 77  1  0
 30 78  1  0
 30 79  1  0
 32 80  1  0
 32 81  1  0
 32 82  1  0
M  END
>  <meeko>  (18) 
{"is_sidechain": [false], "intermolecular_energy": 2.731, "internal_energy": -0.839}

$$$$
EPH_relaxed_0001_pdb2pqr_Repair_30_r2_0001_out
     RDKit          3D

 82 86  0  0  0  0  0  0  0  0999 V2000
   -0.0800    9.3200   -4.1970 C   0  0  0  0  0  0  0  0  0  0  0  0
    0.1020    9.5320   -2.6910 C   0  0  2  0  0  0  0  0  0  0  0  0
   -0.6800    8.4960   -1.8600 C   0  0  0  0  0  0  0  0  0  0  0  0
   -2.1980    8.5750   -2.0470 C   0  0  0  0  0  0  0  0  0  0  0  0
   -2.7450    7.3270   -2.6730 C   0  0  2  0  0  0  0  0  0  0  0  0
   -3.7830    7.5460   -3.6370 O   0  0  0  0  0  0  0  0  0  0  0  0
   -4.1610    6.8310   -2.4490 C   0  0  0  0  0  0  0  0  0  0  0  0
   -5.1190    7.5740   -1.5710 C   0  0  0  0  0  0  0  0  0  0  0  0
   -4.4590    5.3840   -2.6860 C   0  0  0  0  0  0  0  0  0  0  0  0
   -0.3340   10.9420   -2.3090 C   0  0  1  0  0  0  0  0  0  0  0  0
   -1.5470   10.9500   -1.3410 C   0  0  0  0  0  0  0  0  0  0  0  0
   -1.3490   12.1560   -0.3870 C   0  0  0  0  0  0  0  0  0  0  0  0
   -0.2200   12.9880   -1.0380 C   0  0  1  0  0  0  0  0  0  0  0  0
   -0.9290   13.8240   -2.1500 C   0  0  0  0  0  0  0  0  0  0  0  0
    0.6120   13.8970   -0.0760 C   0  0  2  0  0  0  0  0  0  0  0  0
   -0.1890   15.0030    0.6330 C   0  0  0  0  0  0  0  0  0  0  0  0
   -0.2510   16.3080   -0.0900 C   0  0  0  0  0  0  0  0  0  0  0  0
    0.5410   16.6730   -1.1150 C   0  0  0  0  0  0  0  0  0  0  0  0
    1.6890   15.7700   -1.5840 C   0  0  1  0  0  0  0  0  0  0  0  0
    2.9730   16.6200   -1.7740 C   0  0  0  0  0  0  0  0  0  0  0  0
    2.7530   17.8120   -2.7000 C   0  0  0  0  0  0  0  0  0  0  0  0
    1.6430   18.7170   -2.1710 C   0  0  2  0  0  0  0  0  0  0  0  0
    2.0830   19.3190   -0.9490 O   0  0  0  0  0  0  0  0  0  0  0  0
    0.3030   17.9680   -1.9310 C   0  0  0  0  0  0  0  0  0  0  0  0
   -0.3250   17.5770   -3.2910 C   0  0  0  0  0  0  0  0  0  0  0  0
   -0.6870   18.9610   -1.2650 C   0  0  0  0  0  0  0  0  0  0  0  0
    1.9450   14.4650   -0.7120 C   0  0  1  0  0  0  0  0  0  0  0  0
    2.8990   14.7970    0.4750 C   0  0  0  0  0  0  0  0  0  0  0  0
    2.6900   13.3950   -1.5950 C   0  0  0  0  0  0  0  0  0  0  0  0
    1.8090   12.4490   -2.4320 C   0  0  0  0  0  0  0  0  0  0  0  0
    0.7000   11.8310   -1.5740 C   0  0  2  0  0  0  0  0  0  0  0  0
    1.3820   10.9670   -0.4600 C   0  0  0  0  0  0  0  0  0  0  0  0
   -0.7878    8.4956   -4.3683 H   0  0  0  0  0  0  0  0  0  0  0  0
   -0.4729   10.2411   -4.6521 H   0  0  0  0  0  0  0  0  0  0  0  0
    0.8900    9.0711   -4.6521 H   0  0  0  0  0  0  0  0  0  0  0  0
    1.1701    9.3982   -2.4645 H   0  0  0  0  0  0  0  0  0  0  0  0
   -0.3457    7.4905   -2.1552 H   0  0  0  0  0  0  0  0  0  0  0  0
   -0.4751    8.7128   -0.8012 H   0  0  0  0  0  0  0  0  0  0  0  0
   -2.6713    8.7180   -1.0644 H   0  0  0  0  0  0  0  0  0  0  0  0
   -2.4177    9.4195   -2.7168 H   0  0  0  0  0  0  0  0  0  0  0  0
   -1.7674    6.8294   -2.5918 H   0  0  0  0  0  0  0  0  0  0  0  0
   -4.8730    7.3832   -0.5160 H   0  0  0  0  0  0  0  0  0  0  0  0
   -5.0436    8.6521   -1.7759 H   0  0  0  0  0  0  0  0  0  0  0  0
   -6.1444    7.2327   -1.7759 H   0  0  0  0  0  0  0  0  0  0  0  0
   -4.5652    4.8685   -1.7201 H   0  0  0  0  0  0  0  0  0  0  0  0
   -5.3951    5.2910   -3.2561 H   0  0  0  0  0  0  0  0  0  0  0  0
   -3.6358    4.9287   -3.2561 H   0  0  0  0  0  0  0  0  0  0  0  0
   -0.5370   11.3504   -3.3100 H   0  0  0  0  0  0  0  0  0  0  0  0
   -2.4830   11.0645   -1.9074 H   0  0  0  0  0  0  0  0  0  0  0  0
   -1.6098   10.0070   -0.7782 H   0  0  0  0  0  0  0  0  0  0  0  0
   -2.2734   12.7475   -0.3121 H   0  0  0  0  0  0  0  0  0  0  0  0
   -1.0976   11.8410    0.6365 H   0  0  0  0  0  0  0  0  0  0  0  0
   -1.5732   14.5836   -1.6831 H   0  0  0  0  0  0  0  0  0  0  0  0
   -0.1717   14.3196   -2.7752 H   0  0  0  0  0  0  0  0  0  0  0  0
   -1.5416   13.1578   -2.7752 H   0  0  0  0  0  0  0  0  0  0  0  0
    0.9107   13.1924    0.7141 H   0  0  0  0  0  0  0  0  0  0  0  0
   -1.2187   14.6416    0.7713 H   0  0  0  0  0  0  0  0  0  0  0  0
    0.3380   15.2029    1.5776 H   0  0  0  0  0  0  0  0  0  0  0  0
   -1.0084   17.0326    0.2435 H   0  0  0  0  0  0  0  0  0  0  0  0
    1.3715   15.3525   -2.5509 H   0  0  0  0  0  0  0  0  0  0  0  0
    3.2983   16.9921   -0.7913 H   0  0  0  0  0  0  0  0  0  0  0  0
    3.7355   15.9750   -2.2350 H   0  0  0  0  0  0  0  0  0  0  0  0
    3.6861   18.3903   -2.7701 H   0  0  0  0  0  0  0  0  0  0  0  0
    2.4574   17.4367   -3.6908 H   0  0  0  0  0  0  0  0  0  0  0  0
    1.4431   19.4776   -2.9401 H   0  0  0  0  0  0  0  0  0  0  0  0
    1.6760   18.8280   -0.2160 H   0  0  0  0  0  0  0  0  0  0  0  0
   -1.2471   17.0029   -3.1175 H   0  0  0  0  0  0  0  0  0  0  0  0
   -0.5617   18.4876   -3.8609 H   0  0  0  0  0  0  0  0  0  0  0  0
    0.3877   16.9627   -3.8609 H   0  0  0  0  0  0  0  0  0  0  0  0
   -0.6067   18.8804   -0.1709 H   0  0  0  0  0  0  0  0  0  0  0  0
   -0.4419   19.9872   -1.5761 H   0  0  0  0  0  0  0  0  0  0  0  0
   -1.7140   18.7190   -1.5761 H   0  0  0  0  0  0  0  0  0  0  0  0
    2.3775   14.6155    1.4264 H   0  0  0  0  0  0  0  0  0  0  0  0
    3.7916   14.1567    0.4182 H   0  0  0  0  0  0  0  0  0  0  0  0
    3.2012   15.8531    0.4182 H   0  0  0  0  0  0  0  0  0  0  0  0
    3.3488   13.9372   -2.2893 H   0  0  0  0  0  0  0  0  0  0  0  0
    3.2111   12.7433   -0.8782 H   0  0  0  0  0  0  0  0  0  0  0  0
    1.3524   13.0171   -3.2558 H   0  0  0  0  0  0  0  0  0  0  0  0
    2.4400   11.6391   -2.8267 H   0  0  0  0  0  0  0  0  0  0  0  0
    1.0846   11.3438    0.5297 H   0  0  0  0  0  0  0  0  0  0  0  0
    1.0652    9.9187   -0.5636 H   0  0  0  0  0  0  0  0  0  0  0  0
    2.4752   11.0317   -0.5636 H   0  0  0  0  0  0  0  0  0  0  0  0
  1  2  1  0
  2  3  1  0
  3  4  1  0
  4  5  1  0
  5  6  1  0
  6  7  1  0
  7  8  1  0
  7  9  1  0
  2 10  1  0
 10 11  1  0
 11 12  1  0
 12 13  1  0
 13 14  1  6
 13 15  1  0
 15 16  1  0
 16 17  1  0
 17 18  2  0
 18 19  1  0
 19 20  1  0
 20 21  1  0
 21 22  1  0
 22 23  1  0
 22 24  1  0
 24 25  1  0
 24 26  1  0
 19 27  1  0
 27 28  1  1
 27 29  1  0
 29 30  1  0
 30 31  1  0
 31 32  1  1
  7  5  1  0
 31 10  1  0
 31 13  1  0
 27 15  1  0
 24 18  1  0
  1 33  1  0
  1 34  1  0
  1 35  1  0
  2 36  1  6
  3 37  1  0
  3 38  1  0
  4 39  1  0
  4 40  1  0
  5 41  1  6
  8 42  1  0
  8 43  1  0
  8 44  1  0
  9 45  1  0
  9 46  1  0
  9 47  1  0
 10 48  1  6
 11 49  1  0
 11 50  1  0
 12 51  1  0
 12 52  1  0
 14 53  1  0
 14 54  1  0
 14 55  1  0
 15 56  1  1
 16 57  1  0
 16 58  1  0
 17 59  1  0
 19 60  1  6
 20 61  1  0
 20 62  1  0
 21 63  1  0
 21 64  1  0
 22 65  1  6
 23 66  1  0
 25 67  1  0
 25 68  1  0
 25 69  1  0
 26 70  1  0
 26 71  1  0
 26 72  1  0
 28 73  1  0
 28 74  1  0
 28 75  1  0
 29 76  1  0
 29 77  1  0
 30 78  1  0
 30 79  1  0
 32 80  1  0
 32 81  1  0
 32 82  1  0
M  END
>  <meeko>  (19) 
{"is_sidechain": [false], "intermolecular_energy": 2.731, "internal_energy": -0.839}

$$$$
EPH_relaxed_0001_pdb2pqr_Repair_30_r2_0001_out
     RDKit          3D

 82 86  0  0  0  0  0  0  0  0999 V2000
   -2.5270    7.6960   -0.1350 C   0  0  0  0  0  0  0  0  0  0  0  0
   -3.0720    9.1220   -0.0280 C   0  0  2  0  0  0  0  0  0  0  0  0
   -4.5850    9.1890   -0.3180 C   0  0  0  0  0  0  0  0  0  0  0  0
   -5.0860    8.0690   -1.2340 C   0  0  0  0  0  0  0  0  0  0  0  0
   -6.2360    7.3260   -0.6230 C   0  0  2  0  0  0  0  0  0  0  0  0
   -6.6340    6.1490   -1.3360 O   0  0  0  0  0  0  0  0  0  0  0  0
   -7.6000    7.2110   -1.2780 C   0  0  0  0  0  0  0  0  0  0  0  0
   -7.8860    7.8470   -2.6020 C   0  0  0  0  0  0  0  0  0  0  0  0
   -8.7830    6.9030   -0.4150 C   0  0  0  0  0  0  0  0  0  0  0  0
   -2.3170   10.0400   -0.9820 C   0  0  1  0  0  0  0  0  0  0  0  0
   -2.9820   11.4360   -1.1200 C   0  0  0  0  0  0  0  0  0  0  0  0
   -1.8340   12.4630   -1.2970 C   0  0  0  0  0  0  0  0  0  0  0  0
   -0.5820   11.6020   -1.5870 C   0  0  1  0  0  0  0  0  0  0  0  0
   -0.6770   11.2570   -3.1060 C   0  0  0  0  0  0  0  0  0  0  0  0
    0.7970   12.2440   -1.2260 C   0  0  2  0  0  0  0  0  0  0  0  0
    1.1430   13.5270   -2.0020 C   0  0  0  0  0  0  0  0  0  0  0  0
    1.8910   13.3180   -3.2770 C   0  0  0  0  0  0  0  0  0  0  0  0
    2.5180   12.1840   -3.6390 C   0  0  0  0  0  0  0  0  0  0  0  0
    2.5960   10.9870   -2.6830 C   0  0  1  0  0  0  0  0  0  0  0  0
    4.0470   10.4390   -2.6570 C   0  0  0  0  0  0  0  0  0  0  0  0
    4.5720   10.1070   -4.0500 C   0  0  0  0  0  0  0  0  0  0  0  0
    4.5330   11.3360   -4.9550 C   0  0  2  0  0  0  0  0  0  0  0  0
    5.4700   12.3000   -4.4640 O   0  0  0  0  0  0  0  0  0  0  0  0
    3.1220   11.9810   -5.0510 C   0  0  0  0  0  0  0  0  0  0  0  0
    2.1790   11.0530   -5.8550 C   0  0  0  0  0  0  0  0  0  0  0  0
    3.2510   13.2900   -5.8770 C   0  0  0  0  0  0  0  0  0  0  0  0
    2.0070   11.2240   -1.2260 C   0  0  1  0  0  0  0  0  0  0  0  0
    3.1040   11.8350   -0.3010 C   0  0  0  0  0  0  0  0  0  0  0  0
    1.6180    9.8350   -0.5960 C   0  0  0  0  0  0  0  0  0  0  0  0
    0.2000    9.3100   -0.8920 C   0  0  0  0  0  0  0  0  0  0  0  0
   -0.8520   10.3910   -0.6220 C   0  0  2  0  0  0  0  0  0  0  0  0
   -0.7960   10.7430    0.9040 C   0  0  0  0  0  0  0  0  0  0  0  0
   -2.3705    7.2866    0.8739 H   0  0  0  0  0  0  0  0  0  0  0  0
   -3.2483    7.0676   -0.6779 H   0  0  0  0  0  0  0  0  0  0  0  0
   -1.5704    7.7088   -0.6779 H   0  0  0  0  0  0  0  0  0  0  0  0
   -2.9199    9.4574    1.0085 H   0  0  0  0  0  0  0  0  0  0  0  0
   -5.1251    9.1236    0.6380 H   0  0  0  0  0  0  0  0  0  0  0  0
   -4.7705   10.1390   -0.8405 H   0  0  0  0  0  0  0  0  0  0  0  0
   -5.4119    8.5080   -2.1885 H   0  0  0  0  0  0  0  0  0  0  0  0
   -4.2613    7.3576   -1.3887 H   0  0  0  0  0  0  0  0  0  0  0  0
   -5.9263    7.6298    0.3878 H   0  0  0  0  0  0  0  0  0  0  0  0
   -8.3324    8.8397   -2.4431 H   0  0  0  0  0  0  0  0  0  0  0  0
   -6.9488    7.9528   -3.1681 H   0  0  0  0  0  0  0  0  0  0  0  0
   -8.5870    7.2160   -3.1681 H   0  0  0  0  0  0  0  0  0  0  0  0
   -8.4941    6.9782    0.6437 H   0  0  0  0  0  0  0  0  0  0  0  0
   -9.5886    7.6213   -0.6271 H   0  0  0  0  0  0  0  0  0  0  0  0
   -9.1360    5.8830   -0.6271 H   0  0  0  0  0  0  0  0  0  0  0  0
   -2.3431    9.4214   -1.8912 H   0  0  0  0  0  0  0  0  0  0  0  0
   -3.6454   11.4545   -1.9973 H   0  0  0  0  0  0  0  0  0  0  0  0
   -3.5906   11.6727   -0.2348 H   0  0  0  0  0  0  0  0  0  0  0  0
   -2.0440   13.1390   -2.1390 H   0  0  0  0  0  0  0  0  0  0  0  0
   -1.7051   13.1017   -0.4107 H   0  0  0  0  0  0  0  0  0  0  0  0
   -0.9673   10.2027   -3.2251 H   0  0  0  0  0  0  0  0  0  0  0  0
   -1.4312   11.9010   -3.5818 H   0  0  0  0  0  0  0  0  0  0  0  0
    0.3006   11.4241   -3.5818 H   0  0  0  0  0  0  0  0  0  0  0  0
    0.6447   12.5582   -0.1829 H   0  0  0  0  0  0  0  0  0  0  0  0
    0.2020   14.0443   -2.2407 H   0  0  0  0  0  0  0  0  0  0  0  0
    1.8109   14.1075   -1.3486 H   0  0  0  0  0  0  0  0  0  0  0  0
    1.9331   14.1629   -3.9801 H   0  0  0  0  0  0  0  0  0  0  0  0
    1.9166   10.2253   -3.0931 H   0  0  0  0  0  0  0  0  0  0  0  0
    4.7024   11.1979   -2.2048 H   0  0  0  0  0  0  0  0  0  0  0  0
    4.0417    9.5078   -2.0715 H   0  0  0  0  0  0  0  0  0  0  0  0
    5.6102    9.7528   -3.9685 H   0  0  0  0  0  0  0  0  0  0  0  0
    3.9329    9.3270   -4.4894 H   0  0  0  0  0  0  0  0  0  0  0  0
    4.7974   11.0065   -5.9707 H   0  0  0  0  0  0  0  0  0  0  0  0
    4.9700   12.9710   -3.9690 H   0  0  0  0  0  0  0  0  0  0  0  0
    1.5718   10.4554   -5.1591 H   0  0  0  0  0  0  0  0  0  0  0  0
    1.5176   11.6623   -6.4886 H   0  0  0  0  0  0  0  0  0  0  0  0
    2.7776   10.3819   -6.4886 H   0  0  0  0  0  0  0  0  0  0  0  0
    3.3355   14.1479   -5.1937 H   0  0  0  0  0  0  0  0  0  0  0  0
    4.1482   13.2365   -6.5111 H   0  0  0  0  0  0  0  0  0  0  0  0
    2.3606   13.4127   -6.5111 H   0  0  0  0  0  0  0  0  0  0  0  0
    2.8245   11.6793    0.7515 H   0  0  0  0  0  0  0  0  0  0  0  0
    4.0676   11.3437   -0.5010 H   0  0  0  0  0  0  0  0  0  0  0  0
    3.1936   12.9129   -0.5010 H   0  0  0  0  0  0  0  0  0  0  0  0
    2.3340    9.0881   -0.9695 H   0  0  0  0  0  0  0  0  0  0  0  0
    1.6440    9.9953    0.4919 H   0  0  0  0  0  0  0  0  0  0  0  0
    0.1416    9.0066   -1.9477 H   0  0  0  0  0  0  0  0  0  0  0  0
   -0.0012    8.4522   -0.2335 H   0  0  0  0  0  0  0  0  0  0  0  0
   -0.9416    9.8280    1.4969 H   0  0  0  0  0  0  0  0  0  0  0  0
    0.1834   11.1829    1.1431 H   0  0  0  0  0  0  0  0  0  0  0  0
   -1.5906   11.4652    1.1431 H   0  0  0  0  0  0  0  0  0  0  0  0
  1  2  1  0
  2  3  1  0
  3  4  1  0
  4  5  1  0
  5  6  1  0
  6  7  1  0
  7  8  1  0
  7  9  1  0
  2 10  1  0
 10 11  1  0
 11 12  1  0
 12 13  1  0
 13 14  1  6
 13 15  1  0
 15 16  1  0
 16 17  1  0
 17 18  2  0
 18 19  1  0
 19 20  1  0
 20 21  1  0
 21 22  1  0
 22 23  1  0
 22 24  1  0
 24 25  1  0
 24 26  1  0
 19 27  1  0
 27 28  1  1
 27 29  1  0
 29 30  1  0
 30 31  1  0
 31 32  1  1
  7  5  1  0
 31 10  1  0
 31 13  1  0
 27 15  1  0
 24 18  1  0
  1 33  1  0
  1 34  1  0
  1 35  1  0
  2 36  1  1
  3 37  1  0
  3 38  1  0
  4 39  1  0
  4 40  1  0
  5 41  1  1
  8 42  1  0
  8 43  1  0
  8 44  1  0
  9 45  1  0
  9 46  1  0
  9 47  1  0
 10 48  1  6
 11 49  1  0
 11 50  1  0
 12 51  1  0
 12 52  1  0
 14 53  1  0
 14 54  1  0
 14 55  1  0
 15 56  1  1
 16 57  1  0
 16 58  1  0
 17 59  1  0
 19 60  1  6
 20 61  1  0
 20 62  1  0
 21 63  1  0
 21 64  1  0
 22 65  1  6
 23 66  1  0
 25 67  1  0
 25 68  1  0
 25 69  1  0
 26 70  1  0
 26 71  1  0
 26 72  1  0
 28 73  1  0
 28 74  1  0
 28 75  1  0
 29 76  1  0
 29 77  1  0
 30 78  1  0
 30 79  1  0
 32 80  1  0
 32 81  1  0
 32 82  1  0
M  END
>  <meeko>  (20) 
{"is_sidechain": [false], "intermolecular_energy": 2.731, "internal_energy": -0.839}

$$$$
