EPH_relaxed_0001_pdb2pqr_Repair_94_r2_0001_out
     RDKit          3D

 82 86  0  0  0  0  0  0  0  0999 V2000
    4.2270   17.6170   -0.5700 C   0  0  0  0  0  0  0  0  0  0  0  0
    2.8720   18.1670   -0.1150 C   0  0  2  0  0  0  0  0  0  0  0  0
    2.9450   18.8020    1.2880 C   0  0  0  0  0  0  0  0  0  0  0  0
    4.3210   18.6830    1.9470 C   0  0  0  0  0  0  0  0  0  0  0  0
    4.3330   19.2860    3.3190 C   0  0  2  0  0  0  0  0  0  0  0  0
    5.4170   20.1910    3.5660 O   0  0  0  0  0  0  0  0  0  0  0  0
    5.4020   18.9890    4.3540 C   0  0  0  0  0  0  0  0  0  0  0  0
    6.5350   18.0560    4.0610 C   0  0  0  0  0  0  0  0  0  0  0  0
    5.0840   19.2200    5.7980 C   0  0  0  0  0  0  0  0  0  0  0  0
    1.8280   17.0570   -0.1310 C   0  0  1  0  0  0  0  0  0  0  0  0
    0.4050   17.5800   -0.4610 C   0  0  0  0  0  0  0  0  0  0  0  0
   -0.2990   16.4730   -1.2860 C   0  0  0  0  0  0  0  0  0  0  0  0
    0.6060   15.2300   -1.1230 C   0  0  1  0  0  0  0  0  0  0  0  0
    0.2120   14.6250    0.2610 C   0  0  0  0  0  0  0  0  0  0  0  0
    0.5270   14.1630   -2.2630 C   0  0  2  0  0  0  0  0  0  0  0  0
   -0.8480   13.4960   -2.4380 C   0  0  0  0  0  0  0  0  0  0  0  0
   -1.0600   12.2510   -1.6410 C   0  0  0  0  0  0  0  0  0  0  0  0
   -0.0920   11.5330   -1.0410 C   0  0  0  0  0  0  0  0  0  0  0  0
    1.3860   11.9040   -1.2140 C   0  0  1  0  0  0  0  0  0  0  0  0
    2.2070   10.6260   -1.5290 C   0  0  0  0  0  0  0  0  0  0  0  0
    1.9990    9.5260   -0.4920 C   0  0  0  0  0  0  0  0  0  0  0  0
    0.5240    9.1440   -0.3910 C   0  0  2  0  0  0  0  0  0  0  0  0
    0.1220    8.5280   -1.6180 O   0  0  0  0  0  0  0  0  0  0  0  0
   -0.4030   10.3540   -0.0850 C   0  0  0  0  0  0  0  0  0  0  0  0
   -0.1710   10.8330    1.3690 C   0  0  0  0  0  0  0  0  0  0  0  0
   -1.8720    9.8580   -0.1500 C   0  0  0  0  0  0  0  0  0  0  0  0
    1.6900   13.0890   -2.2280 C   0  0  1  0  0  0  0  0  0  0  0  0
    1.8220   12.5290   -3.6770 C   0  0  0  0  0  0  0  0  0  0  0  0
    3.0830   13.7280   -1.8690 C   0  0  0  0  0  0  0  0  0  0  0  0
    3.0800   14.8600   -0.8230 C   0  0  0  0  0  0  0  0  0  0  0  0
    2.0210   15.9140   -1.1590 C   0  0  2  0  0  0  0  0  0  0  0  0
    2.4040   16.5550   -2.5360 C   0  0  0  0  0  0  0  0  0  0  0  0
    4.8369   17.3694    0.3113 H   0  0  0  0  0  0  0  0  0  0  0  0
    4.0709   16.7111   -1.1741 H   0  0  0  0  0  0  0  0  0  0  0  0
    4.7465   18.3755   -1.1741 H   0  0  0  0  0  0  0  0  0  0  0  0
    2.5824   18.9591   -0.8212 H   0  0  0  0  0  0  0  0  0  0  0  0
    2.6936   19.8692    1.1995 H   0  0  0  0  0  0  0  0  0  0  0  0
    2.2351   18.2547    1.9256 H   0  0  0  0  0  0  0  0  0  0  0  0
    4.5889   17.6188    2.0230 H   0  0  0  0  0  0  0  0  0  0  0  0
    5.0466   19.2290    1.3263 H   0  0  0  0  0  0  0  0  0  0  0  0
    3.2343   19.2609    3.3652 H   0  0  0  0  0  0  0  0  0  0  0  0
    6.9693   17.6984    5.0062 H   0  0  0  0  0  0  0  0  0  0  0  0
    6.1633   17.1986    3.4807 H   0  0  0  0  0  0  0  0  0  0  0  0
    7.3051   18.5853    3.4807 H   0  0  0  0  0  0  0  0  0  0  0  0
    5.8157   18.6885    6.4242 H   0  0  0  0  0  0  0  0  0  0  0  0
    5.1291   20.2973    6.0156 H   0  0  0  0  0  0  0  0  0  0  0  0
    4.0734   18.8440    6.0156 H   0  0  0  0  0  0  0  0  0  0  0  0
    1.9549   16.6701    0.8909 H   0  0  0  0  0  0  0  0  0  0  0  0
   -0.1524   17.7726    0.4676 H   0  0  0  0  0  0  0  0  0  0  0  0
    0.4522   18.5230   -1.0254 H   0  0  0  0  0  0  0  0  0  0  0  0
   -1.3060   16.2748   -0.8902 H   0  0  0  0  0  0  0  0  0  0  0  0
   -0.4302   16.7581   -2.3403 H   0  0  0  0  0  0  0  0  0  0  0  0
    0.6212   15.2534    1.0658 H   0  0  0  0  0  0  0  0  0  0  0  0
   -0.8841   14.5878    0.3463 H   0  0  0  0  0  0  0  0  0  0  0  0
    0.6212   13.6075    0.3463 H   0  0  0  0  0  0  0  0  0  0  0  0
    0.6813   14.7715   -3.1663 H   0  0  0  0  0  0  0  0  0  0  0  0
   -1.6185   14.2235   -2.1431 H   0  0  0  0  0  0  0  0  0  0  0  0
   -0.9074   13.1945   -3.4942 H   0  0  0  0  0  0  0  0  0  0  0  0
   -2.0938   11.8903   -1.5353 H   0  0  0  0  0  0  0  0  0  0  0  0
    1.7075   12.3271   -0.2509 H   0  0  0  0  0  0  0  0  0  0  0  0
    1.9009   10.2442   -2.5142 H   0  0  0  0  0  0  0  0  0  0  0  0
    3.2719   10.9014   -1.5144 H   0  0  0  0  0  0  0  0  0  0  0  0
    2.5812    8.6400   -0.7852 H   0  0  0  0  0  0  0  0  0  0  0  0
    2.3333    9.8987    0.4875 H   0  0  0  0  0  0  0  0  0  0  0  0
    0.4208    8.4484    0.4549 H   0  0  0  0  0  0  0  0  0  0  0  0
   -0.7370    8.1000   -1.4650 H   0  0  0  0  0  0  0  0  0  0  0  0
   -0.5406   10.0699    2.0698 H   0  0  0  0  0  0  0  0  0  0  0  0
    0.9045   10.9932    1.5351 H   0  0  0  0  0  0  0  0  0  0  0  0
   -0.7121   11.7762    1.5351 H   0  0  0  0  0  0  0  0  0  0  0  0
   -2.2602    9.7269    0.8708 H   0  0  0  0  0  0  0  0  0  0  0  0
   -2.4858   10.5987   -0.6834 H   0  0  0  0  0  0  0  0  0  0  0  0
   -1.9112    8.8968   -0.6834 H   0  0  0  0  0  0  0  0  0  0  0  0
    2.0742   11.4591   -3.6351 H   0  0  0  0  0  0  0  0  0  0  0  0
    0.8683   12.6603   -4.2091 H   0  0  0  0  0  0  0  0  0  0  0  0
    2.6167   13.0724   -4.2091 H   0  0  0  0  0  0  0  0  0  0  0  0
    3.7293   12.9240   -1.4872 H   0  0  0  0  0  0  0  0  0  0  0  0
    3.4324   14.1978   -2.8002 H   0  0  0  0  0  0  0  0  0  0  0  0
    2.8622   14.4341    0.1675 H   0  0  0  0  0  0  0  0  0  0  0  0
    4.0684   15.3427   -0.8257 H   0  0  0  0  0  0  0  0  0  0  0  0
    2.9613   17.4877   -2.3639 H   0  0  0  0  0  0  0  0  0  0  0  0
    3.0308   15.8531   -3.1055 H   0  0  0  0  0  0  0  0  0  0  0  0
    1.4888   16.7744   -3.1055 H   0  0  0  0  0  0  0  0  0  0  0  0
  1  2  1  0
  2  3  1  0
  3  4  1  0
  4  5  1  0
  5  6  1  0
  6  7  1  0
  7  8  1  0
  7  9  1  0
  2 10  1  0
 10 11  1  0
 11 12  1  0
 12 13  1  0
 13 14  1  1
 13 15  1  0
 15 16  1  0
 16 17  1  0
 17 18  2  0
 18 19  1  0
 19 20  1  0
 20 21  1  0
 21 22  1  0
 22 23  1  0
 22 24  1  0
 24 25  1  0
 24 26  1  0
 19 27  1  0
 27 28  1  6
 27 29  1  0
 29 30  1  0
 30 31  1  0
 31 32  1  6
  7  5  1  0
 31 10  1  0
 31 13  1  0
 27 15  1  0
 24 18  1  0
  1 33  1  0
  1 34  1  0
  1 35  1  0
  2 36  1  6
  3 37  1  0
  3 38  1  0
  4 39  1  0
  4 40  1  0
  5 41  1  1
  8 42  1  0
  8 43  1  0
  8 44  1  0
  9 45  1  0
  9 46  1  0
  9 47  1  0
 10 48  1  1
 11 49  1  0
 11 50  1  0
 12 51  1  0
 12 52  1  0
 14 53  1  0
 14 54  1  0
 14 55  1  0
 15 56  1  6
 16 57  1  0
 16 58  1  0
 17 59  1  0
 19 60  1  1
 20 61  1  0
 20 62  1  0
 21 63  1  0
 21 64  1  0
 22 65  1  1
 23 66  1  0
 25 67  1  0
 25 68  1  0
 25 69  1  0
 26 70  1  0
 26 71  1  0
 26 72  1  0
 28 73  1  0
 28 74  1  0
 28 75  1  0
 29 76  1  0
 29 77  1  0
 30 78  1  0
 30 79  1  0
 32 80  1  0
 32 81  1  0
 32 82  1  0
M  END
>  <meeko>  (1) 
{"is_sidechain": [false], "intermolecular_energy": 2.731, "internal_energy": -0.839}

$$$$
EPH_relaxed_0001_pdb2pqr_Repair_94_r2_0001_out
     RDKit          3D

 82 86  0  0  0  0  0  0  0  0999 V2000
    2.3550   18.0070   -2.7370 C   0  0  0  0  0  0  0  0  0  0  0  0
    1.0610   17.6190   -2.0170 C   0  0  2  0  0  0  0  0  0  0  0  0
    1.2080   17.6830   -0.4830 C   0  0  0  0  0  0  0  0  0  0  0  0
    0.9000   19.0620    0.1080 C   0  0  0  0  0  0  0  0  0  0  0  0
   -0.5350   19.1780    0.5240 C   0  0  2  0  0  0  0  0  0  0  0  0
   -1.4220   18.2540   -0.1190 O   0  0  0  0  0  0  0  0  0  0  0  0
   -1.6410   19.6450   -0.4040 C   0  0  0  0  0  0  0  0  0  0  0  0
   -1.3580   20.0270   -1.8230 C   0  0  0  0  0  0  0  0  0  0  0  0
   -2.8970   20.1930    0.1970 C   0  0  0  0  0  0  0  0  0  0  0  0
    0.6300   16.2200   -2.4400 C   0  0  1  0  0  0  0  0  0  0  0  0
    0.7580   15.9930   -3.9700 C   0  0  0  0  0  0  0  0  0  0  0  0
    1.1710   14.5120   -4.1700 C   0  0  0  0  0  0  0  0  0  0  0  0
    0.9450   13.8550   -2.7880 C   0  0  1  0  0  0  0  0  0  0  0  0
   -0.5850   13.5510   -2.7340 C   0  0  0  0  0  0  0  0  0  0  0  0
    1.7980   12.5800   -2.4820 C   0  0  2  0  0  0  0  0  0  0  0  0
    1.5420   11.3840   -3.4160 C   0  0  0  0  0  0  0  0  0  0  0  0
    0.4790   10.4390   -2.9640 C   0  0  0  0  0  0  0  0  0  0  0  0
   -0.0440   10.3830   -1.7250 C   0  0  0  0  0  0  0  0  0  0  0  0
    0.5050   11.2690   -0.5980 C   0  0  1  0  0  0  0  0  0  0  0  0
    0.7120   10.4130    0.6790 C   0  0  0  0  0  0  0  0  0  0  0  0
   -0.5510    9.6610    1.0900 C   0  0  0  0  0  0  0  0  0  0  0  0
   -1.0320    8.7480   -0.0350 C   0  0  2  0  0  0  0  0  0  0  0  0
   -0.0700    7.7070   -0.2270 O   0  0  0  0  0  0  0  0  0  0  0  0
   -1.2660    9.4980   -1.3760 C   0  0  0  0  0  0  0  0  0  0  0  0
   -2.5090   10.4130   -1.2500 C   0  0  0  0  0  0  0  0  0  0  0  0
   -1.6120    8.4420   -2.4600 C   0  0  0  0  0  0  0  0  0  0  0  0
    1.7830   12.1410   -0.9620 C   0  0  1  0  0  0  0  0  0  0  0  0
    3.0800   11.3080   -0.7270 C   0  0  0  0  0  0  0  0  0  0  0  0
    1.8620   13.3710    0.0170 C   0  0  0  0  0  0  0  0  0  0  0  0
    1.0960   14.6410   -0.3990 C   0  0  0  0  0  0  0  0  0  0  0  0
    1.4150   15.0230   -1.8480 C   0  0  2  0  0  0  0  0  0  0  0  0
    2.9440   15.3560   -1.9280 C   0  0  0  0  0  0  0  0  0  0  0  0
    3.1322   18.2400   -1.9942 H   0  0  0  0  0  0  0  0  0  0  0  0
    2.6893   17.1696   -3.3671 H   0  0  0  0  0  0  0  0  0  0  0  0
    2.1734   18.8902   -3.3671 H   0  0  0  0  0  0  0  0  0  0  0  0
    0.2905   18.3490   -2.3059 H   0  0  0  0  0  0  0  0  0  0  0  0
    0.5175   16.9520   -0.0372 H   0  0  0  0  0  0  0  0  0  0  0  0
    2.2603   17.4617   -0.2514 H   0  0  0  0  0  0  0  0  0  0  0  0
    1.5405   19.2242    0.9875 H   0  0  0  0  0  0  0  0  0  0  0  0
    1.0951   19.8186   -0.6663 H   0  0  0  0  0  0  0  0  0  0  0  0
   -0.2398   19.4915    1.5362 H   0  0  0  0  0  0  0  0  0  0  0  0
   -0.7033   20.9108   -1.8412 H   0  0  0  0  0  0  0  0  0  0  0  0
   -0.8597   19.1909   -2.3354 H   0  0  0  0  0  0  0  0  0  0  0  0
   -2.3030   20.2602   -2.3354 H   0  0  0  0  0  0  0  0  0  0  0  0
   -2.8230   20.1607    1.2940 H   0  0  0  0  0  0  0  0  0  0  0  0
   -3.0365   21.2338   -0.1306 H   0  0  0  0  0  0  0  0  0  0  0  0
   -3.7548   19.5874   -0.1306 H   0  0  0  0  0  0  0  0  0  0  0  0
   -0.4004   16.2210   -2.0548 H   0  0  0  0  0  0  0  0  0  0  0  0
   -0.2056   16.1874   -4.4636 H   0  0  0  0  0  0  0  0  0  0  0  0
    1.5027   16.6732   -4.4091 H   0  0  0  0  0  0  0  0  0  0  0  0
    0.5423   14.0333   -4.9352 H   0  0  0  0  0  0  0  0  0  0  0  0
    2.2106   14.4114   -4.5152 H   0  0  0  0  0  0  0  0  0  0  0  0
   -0.9092   13.4866   -1.6848 H   0  0  0  0  0  0  0  0  0  0  0  0
   -1.1371   14.3570   -3.2395 H   0  0  0  0  0  0  0  0  0  0  0  0
   -0.7870   12.5952   -3.2395 H   0  0  0  0  0  0  0  0  0  0  0  0
    2.8200   12.9195   -2.7061 H   0  0  0  0  0  0  0  0  0  0  0  0
    1.2504   11.7780   -4.4008 H   0  0  0  0  0  0  0  0  0  0  0  0
    2.4772   10.8050   -3.4328 H   0  0  0  0  0  0  0  0  0  0  0  0
    0.0896    9.7274   -3.7069 H   0  0  0  0  0  0  0  0  0  0  0  0
   -0.2614   12.0360   -0.4130 H   0  0  0  0  0  0  0  0  0  0  0  0
    1.5113    9.6819    0.4878 H   0  0  0  0  0  0  0  0  0  0  0  0
    0.9762   11.0960    1.4998 H   0  0  0  0  0  0  0  0  0  0  0  0
   -0.3340    9.0521    1.9800 H   0  0  0  0  0  0  0  0  0  0  0  0
   -1.3409   10.3944    1.3094 H   0  0  0  0  0  0  0  0  0  0  0  0
   -2.0065    8.3372    0.2678 H   0  0  0  0  0  0  0  0  0  0  0  0
    0.8110    8.0890   -0.0770 H   0  0  0  0  0  0  0  0  0  0  0  0
   -2.7354   10.5796   -0.1865 H   0  0  0  0  0  0  0  0  0  0  0  0
   -2.3048   11.3780   -1.7370 H   0  0  0  0  0  0  0  0  0  0  0  0
   -3.3697    9.9314   -1.7370 H   0  0  0  0  0  0  0  0  0  0  0  0
   -1.9192    7.5044   -1.9737 H   0  0  0  0  0  0  0  0  0  0  0  0
   -2.4345    8.8163   -3.0872 H   0  0  0  0  0  0  0  0  0  0  0  0
   -0.7275    8.2570   -3.0872 H   0  0  0  0  0  0  0  0  0  0  0  0
    3.2535   11.1966    0.3535 H   0  0  0  0  0  0  0  0  0  0  0  0
    2.9654   10.3142   -1.1844 H   0  0  0  0  0  0  0  0  0  0  0  0
    3.9361   11.8256   -1.1844 H   0  0  0  0  0  0  0  0  0  0  0  0
    1.4654   13.0472    0.9906 H   0  0  0  0  0  0  0  0  0  0  0  0
    2.9221   13.6644    0.0251 H   0  0  0  0  0  0  0  0  0  0  0  0
    0.0156   14.4568   -0.3048 H   0  0  0  0  0  0  0  0  0  0  0  0
    1.4040   15.4678    0.2580 H   0  0  0  0  0  0  0  0  0  0  0  0
    3.3535   15.4452   -0.9110 H   0  0  0  0  0  0  0  0  0  0  0  0
    3.4671   14.5507   -2.4646 H   0  0  0  0  0  0  0  0  0  0  0  0
    3.0848   16.3059   -2.4646 H   0  0  0  0  0  0  0  0  0  0  0  0
  1  2  1  0
  2  3  1  0
  3  4  1  0
  4  5  1  0
  5  6  1  0
  6  7  1  0
  7  8  1  0
  7  9  1  0
  2 10  1  0
 10 11  1  0
 11 12  1  0
 12 13  1  0
 13 14  1  1
 13 15  1  0
 15 16  1  0
 16 17  1  0
 17 18  2  0
 18 19  1  0
 19 20  1  0
 20 21  1  0
 21 22  1  0
 22 23  1  0
 22 24  1  0
 24 25  1  0
 24 26  1  0
 19 27  1  0
 27 28  1  6
 27 29  1  0
 29 30  1  0
 30 31  1  0
 31 32  1  1
  7  5  1  0
 31 10  1  0
 31 13  1  0
 27 15  1  0
 24 18  1  0
  1 33  1  0
  1 34  1  0
  1 35  1  0
  2 36  1  6
  3 37  1  0
  3 38  1  0
  4 39  1  0
  4 40  1  0
  5 41  1  1
  8 42  1  0
  8 43  1  0
  8 44  1  0
  9 45  1  0
  9 46  1  0
  9 47  1  0
 10 48  1  1
 11 49  1  0
 11 50  1  0
 12 51  1  0
 12 52  1  0
 14 53  1  0
 14 54  1  0
 14 55  1  0
 15 56  1  6
 16 57  1  0
 16 58  1  0
 17 59  1  0
 19 60  1  1
 20 61  1  0
 20 62  1  0
 21 63  1  0
 21 64  1  0
 22 65  1  1
 23 66  1  0
 25 67  1  0
 25 68  1  0
 25 69  1  0
 26 70  1  0
 26 71  1  0
 26 72  1  0
 28 73  1  0
 28 74  1  0
 28 75  1  0
 29 76  1  0
 29 77  1  0
 30 78  1  0
 30 79  1  0
 32 80  1  0
 32 81  1  0
 32 82  1  0
M  END
>  <meeko>  (2) 
{"is_sidechain": [false], "intermolecular_energy": 2.731, "internal_energy": -0.839}

$$$$
EPH_relaxed_0001_pdb2pqr_Repair_94_r2_0001_out
     RDKit          3D

 82 86  0  0  0  0  0  0  0  0999 V2000
    0.4380   18.4980    0.0170 C   0  0  0  0  0  0  0  0  0  0  0  0
    1.5150   17.4290   -0.1870 C   0  0  2  0  0  0  0  0  0  0  0  0
    2.7450   17.9780   -0.9360 C   0  0  0  0  0  0  0  0  0  0  0  0
    3.9830   18.1420   -0.0500 C   0  0  0  0  0  0  0  0  0  0  0  0
    3.6220   18.6260    1.3220 C   0  0  2  0  0  0  0  0  0  0  0  0
    3.8710   20.0200    1.5500 O   0  0  0  0  0  0  0  0  0  0  0  0
    4.6450   19.1010    2.3370 C   0  0  0  0  0  0  0  0  0  0  0  0
    6.1080   19.1130    2.0240 C   0  0  0  0  0  0  0  0  0  0  0  0
    4.2730   19.0880    3.7870 C   0  0  0  0  0  0  0  0  0  0  0  0
    0.9310   16.2410   -0.9430 C   0  0  1  0  0  0  0  0  0  0  0  0
    0.7570   16.5260   -2.4590 C   0  0  0  0  0  0  0  0  0  0  0  0
    1.0390   15.1940   -3.2000 C   0  0  0  0  0  0  0  0  0  0  0  0
    1.0380   14.1200   -2.0860 C   0  0  1  0  0  0  0  0  0  0  0  0
   -0.4700   13.8070   -1.8330 C   0  0  0  0  0  0  0  0  0  0  0  0
    1.8560   12.8210   -2.3780 C   0  0  2  0  0  0  0  0  0  0  0  0
    1.3610   11.9930   -3.5760 C   0  0  0  0  0  0  0  0  0  0  0  0
    0.3480   10.9450   -3.2520 C   0  0  0  0  0  0  0  0  0  0  0  0
    0.0640   10.4860   -2.0190 C   0  0  0  0  0  0  0  0  0  0  0  0
    0.8650   10.9590   -0.7990 C   0  0  1  0  0  0  0  0  0  0  0  0
    1.2570    9.7350    0.0690 C   0  0  0  0  0  0  0  0  0  0  0  0
    0.0530    8.8830    0.4570 C   0  0  0  0  0  0  0  0  0  0  0  0
   -0.6830    8.3830   -0.7840 C   0  0  2  0  0  0  0  0  0  0  0  0
    0.1630    7.4670   -1.4850 O   0  0  0  0  0  0  0  0  0  0  0  0
   -1.1200    9.5280   -1.7400 C   0  0  0  0  0  0  0  0  0  0  0  0
   -2.2620   10.3450   -1.0870 C   0  0  0  0  0  0  0  0  0  0  0  0
   -1.7240    8.8810   -3.0150 C   0  0  0  0  0  0  0  0  0  0  0  0
    2.1010   11.9100   -1.1070 C   0  0  1  0  0  0  0  0  0  0  0  0
    3.3680   11.0540   -1.4110 C   0  0  0  0  0  0  0  0  0  0  0  0
    2.4330   12.7540    0.1790 C   0  0  0  0  0  0  0  0  0  0  0  0
    1.6780   14.0860    0.3500 C   0  0  0  0  0  0  0  0  0  0  0  0
    1.7430   14.9220   -0.9320 C   0  0  2  0  0  0  0  0  0  0  0  0
    3.2460   15.2720   -1.2000 C   0  0  0  0  0  0  0  0  0  0  0  0
    0.2782   18.6567    1.0937 H   0  0  0  0  0  0  0  0  0  0  0  0
    0.7638   19.4401   -0.4481 H   0  0  0  0  0  0  0  0  0  0  0  0
   -0.5017   18.1652   -0.4481 H   0  0  0  0  0  0  0  0  0  0  0  0
    1.8534   17.1063    0.8087 H   0  0  0  0  0  0  0  0  0  0  0  0
    2.9922   17.2842   -1.7530 H   0  0  0  0  0  0  0  0  0  0  0  0
    2.4772   18.9800   -1.3025 H   0  0  0  0  0  0  0  0  0  0  0  0
    4.4906   17.1700    0.0369 H   0  0  0  0  0  0  0  0  0  0  0  0
    4.6415   18.8901   -0.5156 H   0  0  0  0  0  0  0  0  0  0  0  0
    2.7992   17.8989    1.3881 H   0  0  0  0  0  0  0  0  0  0  0  0
    6.6835   19.1177    2.9614 H   0  0  0  0  0  0  0  0  0  0  0  0
    6.3654   18.2169    1.4402 H   0  0  0  0  0  0  0  0  0  0  0  0
    6.3507   20.0132    1.4402 H   0  0  0  0  0  0  0  0  0  0  0  0
    5.1858   19.1199    4.4000 H   0  0  0  0  0  0  0  0  0  0  0  0
    3.6486   19.9649    4.0132 H   0  0  0  0  0  0  0  0  0  0  0  0
    3.7113   18.1697    4.0132 H   0  0  0  0  0  0  0  0  0  0  0  0
   -0.0073   16.1096   -0.3842 H   0  0  0  0  0  0  0  0  0  0  0  0
   -0.2691   16.8644   -2.6654 H   0  0  0  0  0  0  0  0  0  0  0  0
    1.4443   17.3171   -2.7935 H   0  0  0  0  0  0  0  0  0  0  0  0
    0.2517   14.9869   -3.9398 H   0  0  0  0  0  0  0  0  0  0  0  0
    1.9883   15.2183   -3.7552 H   0  0  0  0  0  0  0  0  0  0  0  0
   -0.6597   13.7676   -0.7502 H   0  0  0  0  0  0  0  0  0  0  0  0
   -1.0891   14.5958   -2.2853 H   0  0  0  0  0  0  0  0  0  0  0  0
   -0.7240   12.8370   -2.2853 H   0  0  0  0  0  0  0  0  0  0  0  0
    2.8356   13.2219   -2.6773 H   0  0  0  0  0  0  0  0  0  0  0  0
    0.9135   12.6843   -4.3053 H   0  0  0  0  0  0  0  0  0  0  0  0
    2.2414   11.4568   -3.9599 H   0  0  0  0  0  0  0  0  0  0  0  0
   -0.2139   10.5112   -4.0923 H   0  0  0  0  0  0  0  0  0  0  0  0
    0.1929   11.6193   -0.2313 H   0  0  0  0  0  0  0  0  0  0  0  0
    1.9620    9.1108   -0.4997 H   0  0  0  0  0  0  0  0  0  0  0  0
    1.7097   10.1150    0.9967 H   0  0  0  0  0  0  0  0  0  0  0  0
    0.3974    8.0189    1.0441 H   0  0  0  0  0  0  0  0  0  0  0  0
   -0.6376    9.5000    1.0506 H   0  0  0  0  0  0  0  0  0  0  0  0
   -1.6054    7.8897   -0.4436 H   0  0  0  0  0  0  0  0  0  0  0  0
   -0.3590    6.6690   -1.6720 H   0  0  0  0  0  0  0  0  0  0  0  0
   -2.1767   10.2840    0.0080 H   0  0  0  0  0  0  0  0  0  0  0  0
   -2.1877   11.3961   -1.4026 H   0  0  0  0  0  0  0  0  0  0  0  0
   -3.2328    9.9352   -1.4026 H   0  0  0  0  0  0  0  0  0  0  0  0
   -2.4480    8.1054   -2.7248 H   0  0  0  0  0  0  0  0  0  0  0  0
   -2.2325    9.6524   -3.6119 H   0  0  0  0  0  0  0  0  0  0  0  0
   -0.9195    8.4266   -3.6119 H   0  0  0  0  0  0  0  0  0  0  0  0
    3.8336   10.7395   -0.4653 H   0  0  0  0  0  0  0  0  0  0  0  0
    3.0794   10.1651   -1.9911 H   0  0  0  0  0  0  0  0  0  0  0  0
    4.0850   11.6535   -1.9911 H   0  0  0  0  0  0  0  0  0  0  0  0
    2.2068   12.1285    1.0551 H   0  0  0  0  0  0  0  0  0  0  0  0
    3.4914   13.0346    0.0737 H   0  0  0  0  0  0  0  0  0  0  0  0
    0.6252   13.8747    0.5888 H   0  0  0  0  0  0  0  0  0  0  0  0
    2.1509   14.6550    1.1640 H   0  0  0  0  0  0  0  0  0  0  0  0
    3.7707   15.3942   -0.2409 H   0  0  0  0  0  0  0  0  0  0  0  0
    3.7151   14.4591   -1.7736 H   0  0  0  0  0  0  0  0  0  0  0  0
    3.3077   16.2086   -1.7736 H   0  0  0  0  0  0  0  0  0  0  0  0
  1  2  1  0
  2  3  1  0
  3  4  1  0
  4  5  1  0
  5  6  1  0
  6  7  1  0
  7  8  1  0
  7  9  1  0
  2 10  1  0
 10 11  1  0
 11 12  1  0
 12 13  1  0
 13 14  1  1
 13 15  1  0
 15 16  1  0
 16 17  1  0
 17 18  2  0
 18 19  1  0
 19 20  1  0
 20 21  1  0
 21 22  1  0
 22 23  1  0
 22 24  1  0
 24 25  1  0
 24 26  1  0
 19 27  1  0
 27 28  1  6
 27 29  1  0
 29 30  1  0
 30 31  1  0
 31 32  1  6
  7  5  1  0
 31 10  1  0
 31 13  1  0
 27 15  1  0
 24 18  1  0
  1 33  1  0
  1 34  1  0
  1 35  1  0
  2 36  1  1
  3 37  1  0
  3 38  1  0
  4 39  1  0
  4 40  1  0
  5 41  1  1
  8 42  1  0
  8 43  1  0
  8 44  1  0
  9 45  1  0
  9 46  1  0
  9 47  1  0
 10 48  1  1
 11 49  1  0
 11 50  1  0
 12 51  1  0
 12 52  1  0
 14 53  1  0
 14 54  1  0
 14 55  1  0
 15 56  1  6
 16 57  1  0
 16 58  1  0
 17 59  1  0
 19 60  1  1
 20 61  1  0
 20 62  1  0
 21 63  1  0
 21 64  1  0
 22 65  1  1
 23 66  1  0
 25 67  1  0
 25 68  1  0
 25 69  1  0
 26 70  1  0
 26 71  1  0
 26 72  1  0
 28 73  1  0
 28 74  1  0
 28 75  1  0
 29 76  1  0
 29 77  1  0
 30 78  1  0
 30 79  1  0
 32 80  1  0
 32 81  1  0
 32 82  1  0
M  END
>  <meeko>  (3) 
{"is_sidechain": [false], "intermolecular_energy": 2.731, "internal_energy": -0.839}

$$$$
EPH_relaxed_0001_pdb2pqr_Repair_94_r2_0001_out
     RDKit          3D

 82 86  0  0  0  0  0  0  0  0999 V2000
   -0.7800    8.2260   -0.7930 C   0  0  0  0  0  0  0  0  0  0  0  0
   -1.6780    9.2950   -0.1650 C   0  0  2  0  0  0  0  0  0  0  0  0
   -2.8830    9.6420   -1.0620 C   0  0  0  0  0  0  0  0  0  0  0  0
   -4.0490    8.6590   -0.9340 C   0  0  0  0  0  0  0  0  0  0  0  0
   -3.7400    7.3440   -1.5850 C   0  0  2  0  0  0  0  0  0  0  0  0
   -3.3590    7.4340   -2.9640 O   0  0  0  0  0  0  0  0  0  0  0  0
   -4.5860    6.7380   -2.6890 C   0  0  0  0  0  0  0  0  0  0  0  0
   -5.8080    7.4310   -3.2060 C   0  0  0  0  0  0  0  0  0  0  0  0
   -4.5070    5.2620   -2.9220 C   0  0  0  0  0  0  0  0  0  0  0  0
   -0.8650   10.5510    0.1250 C   0  0  1  0  0  0  0  0  0  0  0  0
    0.2360   10.3180    1.1940 C   0  0  0  0  0  0  0  0  0  0  0  0
    1.4440   11.2030    0.7930 C   0  0  0  0  0  0  0  0  0  0  0  0
    0.8860   12.1570   -0.2890 C   0  0  1  0  0  0  0  0  0  0  0  0
    0.1610   13.2870    0.5070 C   0  0  0  0  0  0  0  0  0  0  0  0
    1.9270   12.7400   -1.3000 C   0  0  2  0  0  0  0  0  0  0  0  0
    3.0210   13.6220   -0.6730 C   0  0  0  0  0  0  0  0  0  0  0  0
    2.6990   15.0780   -0.5980 C   0  0  0  0  0  0  0  0  0  0  0  0
    1.7080   15.6960   -1.2670 C   0  0  0  0  0  0  0  0  0  0  0  0
    0.8480   14.9330   -2.2820 C   0  0  1  0  0  0  0  0  0  0  0  0
    0.7120   15.7720   -3.5800 C   0  0  0  0  0  0  0  0  0  0  0  0
    0.1890   17.1800   -3.3140 C   0  0  0  0  0  0  0  0  0  0  0  0
    1.1030   17.9270   -2.3460 C   0  0  2  0  0  0  0  0  0  0  0  0
    2.3640   18.1530   -2.9830 O   0  0  0  0  0  0  0  0  0  0  0  0
    1.3220   17.1730   -1.0050 C   0  0  0  0  0  0  0  0  0  0  0  0
    0.0140   17.1940   -0.1760 C   0  0  0  0  0  0  0  0  0  0  0  0
    2.3720   17.9640   -0.1790 C   0  0  0  0  0  0  0  0  0  0  0  0
    1.2820   13.4310   -2.5680 C   0  0  1  0  0  0  0  0  0  0  0  0
    2.3620   13.3950   -3.6930 C   0  0  0  0  0  0  0  0  0  0  0  0
    0.0410   12.6340   -3.1190 C   0  0  0  0  0  0  0  0  0  0  0  0
   -0.8840   11.9800   -2.0740 C   0  0  0  0  0  0  0  0  0  0  0  0
   -0.0750   11.1740   -1.0530 C   0  0  2  0  0  0  0  0  0  0  0  0
    0.6480   10.0160   -1.8220 C   0  0  0  0  0  0  0  0  0  0  0  0
   -0.2913    7.6442    0.0024 H   0  0  0  0  0  0  0  0  0  0  0  0
   -1.3894    7.5551   -1.4163 H   0  0  0  0  0  0  0  0  0  0  0  0
   -0.0140    8.7105   -1.4163 H   0  0  0  0  0  0  0  0  0  0  0  0
   -2.0748    8.8836    0.7749 H   0  0  0  0  0  0  0  0  0  0  0  0
   -3.2426   10.6448   -0.7878 H   0  0  0  0  0  0  0  0  0  0  0  0
   -2.5332    9.5916   -2.1037 H   0  0  0  0  0  0  0  0  0  0  0  0
   -4.2561    8.4887    0.1328 H   0  0  0  0  0  0  0  0  0  0  0  0
   -4.9225    9.0954   -1.4405 H   0  0  0  0  0  0  0  0  0  0  0  0
   -3.3635    6.9354   -0.6356 H   0  0  0  0  0  0  0  0  0  0  0  0
   -6.4189    7.7774   -2.3594 H   0  0  0  0  0  0  0  0  0  0  0  0
   -5.5085    8.2937   -3.8193 H   0  0  0  0  0  0  0  0  0  0  0  0
   -6.3946    6.7311   -3.8193 H   0  0  0  0  0  0  0  0  0  0  0  0
   -4.4790    4.7391   -1.9547 H   0  0  0  0  0  0  0  0  0  0  0  0
   -5.3888    4.9329   -3.4913 H   0  0  0  0  0  0  0  0  0  0  0  0
   -3.5951    5.0290   -3.4913 H   0  0  0  0  0  0  0  0  0  0  0  0
   -1.6755   11.2271    0.4346 H   0  0  0  0  0  0  0  0  0  0  0  0
   -0.1336   10.6096    2.1881 H   0  0  0  0  0  0  0  0  0  0  0  0
    0.5224    9.2570    1.2409 H   0  0  0  0  0  0  0  0  0  0  0  0
    1.8133   11.7717    1.6591 H   0  0  0  0  0  0  0  0  0  0  0  0
    2.2938   10.6082    0.4269 H   0  0  0  0  0  0  0  0  0  0  0  0
    0.2763   13.1073    1.5861 H   0  0  0  0  0  0  0  0  0  0  0  0
    0.6038   14.2600    0.2480 H   0  0  0  0  0  0  0  0  0  0  0  0
   -0.9081   13.2900    0.2480 H   0  0  0  0  0  0  0  0  0  0  0  0
    2.4413   11.8359   -1.6578 H   0  0  0  0  0  0  0  0  0  0  0  0
    3.2044   13.2610    0.3498 H   0  0  0  0  0  0  0  0  0  0  0  0
    3.8969   13.5369   -1.3330 H   0  0  0  0  0  0  0  0  0  0  0  0
    3.3250   15.6985    0.0601 H   0  0  0  0  0  0  0  0  0  0  0  0
   -0.1392   14.8096   -1.8127 H   0  0  0  0  0  0  0  0  0  0  0  0
    1.7006   15.8472   -4.0565 H   0  0  0  0  0  0  0  0  0  0  0  0
   -0.0139   15.2637   -4.2317 H   0  0  0  0  0  0  0  0  0  0  0  0
    0.1424   17.7323   -4.2641 H   0  0  0  0  0  0  0  0  0  0  0  0
   -0.8120   17.1039   -2.8642 H   0  0  0  0  0  0  0  0  0  0  0  0
    0.6100   18.8775   -2.0941 H   0  0  0  0  0  0  0  0  0  0  0  0
    3.0250   18.2960   -2.2850 H   0  0  0  0  0  0  0  0  0  0  0  0
    0.2594   17.1901    0.8963 H   0  0  0  0  0  0  0  0  0  0  0  0
   -0.5588   18.1015   -0.4177 H   0  0  0  0  0  0  0  0  0  0  0  0
   -0.5876   16.3054   -0.4177 H   0  0  0  0  0  0  0  0  0  0  0  0
    2.1793   17.8188    0.8942 H   0  0  0  0  0  0  0  0  0  0  0  0
    3.3807   17.5994   -0.4230 H   0  0  0  0  0  0  0  0  0  0  0  0
    2.2999   19.0342   -0.4230 H   0  0  0  0  0  0  0  0  0  0  0  0
    3.3634   13.3616   -3.2390 H   0  0  0  0  0  0  0  0  0  0  0  0
    2.2122   12.5014   -4.3167 H   0  0  0  0  0  0  0  0  0  0  0  0
    2.2720   14.2966   -4.3167 H   0  0  0  0  0  0  0  0  0  0  0  0
   -0.5676   13.3334   -3.7110 H   0  0  0  0  0  0  0  0  0  0  0  0
    0.4673   11.7964   -3.6907 H   0  0  0  0  0  0  0  0  0  0  0  0
   -1.4454   12.7664   -1.5482 H   0  0  0  0  0  0  0  0  0  0  0  0
   -1.5723   11.2972   -2.5936 H   0  0  0  0  0  0  0  0  0  0  0  0
    1.0868    9.3133   -1.0984 H   0  0  0  0  0  0  0  0  0  0  0  0
   -0.0794    9.4852   -2.4538 H   0  0  0  0  0  0  0  0  0  0  0  0
    1.4443   10.4365   -2.4538 H   0  0  0  0  0  0  0  0  0  0  0  0
  1  2  1  0
  2  3  1  0
  3  4  1  0
  4  5  1  0
  5  6  1  0
  6  7  1  0
  7  8  1  0
  7  9  1  0
  2 10  1  0
 10 11  1  0
 11 12  1  0
 12 13  1  0
 13 14  1  1
 13 15  1  0
 15 16  1  0
 16 17  1  0
 17 18  2  0
 18 19  1  0
 19 20  1  0
 20 21  1  0
 21 22  1  0
 22 23  1  0
 22 24  1  0
 24 25  1  0
 24 26  1  0
 19 27  1  0
 27 28  1  6
 27 29  1  0
 29 30  1  0
 30 31  1  0
 31 32  1  6
  7  5  1  0
 31 10  1  0
 31 13  1  0
 27 15  1  0
 24 18  1  0
  1 33  1  0
  1 34  1  0
  1 35  1  0
  2 36  1  1
  3 37  1  0
  3 38  1  0
  4 39  1  0
  4 40  1  0
  5 41  1  1
  8 42  1  0
  8 43  1  0
  8 44  1  0
  9 45  1  0
  9 46  1  0
  9 47  1  0
 10 48  1  1
 11 49  1  0
 11 50  1  0
 12 51  1  0
 12 52  1  0
 14 53  1  0
 14 54  1  0
 14 55  1  0
 15 56  1  6
 16 57  1  0
 16 58  1  0
 17 59  1  0
 19 60  1  1
 20 61  1  0
 20 62  1  0
 21 63  1  0
 21 64  1  0
 22 65  1  1
 23 66  1  0
 25 67  1  0
 25 68  1  0
 25 69  1  0
 26 70  1  0
 26 71  1  0
 26 72  1  0
 28 73  1  0
 28 74  1  0
 28 75  1  0
 29 76  1  0
 29 77  1  0
 30 78  1  0
 30 79  1  0
 32 80  1  0
 32 81  1  0
 32 82  1  0
M  END
>  <meeko>  (4) 
{"is_sidechain": [false], "intermolecular_energy": 2.731, "internal_energy": -0.839}

$$$$
EPH_relaxed_0001_pdb2pqr_Repair_94_r2_0001_out
     RDKit          3D

 82 86  0  0  0  0  0  0  0  0999 V2000
    3.7440   17.6540    0.5360 C   0  0  0  0  0  0  0  0  0  0  0  0
    2.8010   17.9690   -0.6300 C   0  0  2  0  0  0  0  0  0  0  0  0
    2.1300   19.3490   -0.4770 C   0  0  0  0  0  0  0  0  0  0  0  0
    1.2100   19.4540    0.7420 C   0  0  0  0  0  0  0  0  0  0  0  0
   -0.0960   20.1030    0.3960 C   0  0  2  0  0  0  0  0  0  0  0  0
   -1.0260   20.1920    1.4830 O   0  0  0  0  0  0  0  0  0  0  0  0
   -1.4190   19.3610    0.3790 C   0  0  0  0  0  0  0  0  0  0  0  0
   -1.5020   17.9040    0.7120 C   0  0  0  0  0  0  0  0  0  0  0  0
   -2.5460   19.9260   -0.4300 C   0  0  0  0  0  0  0  0  0  0  0  0
    1.7380   16.8830   -0.7460 C   0  0  1  0  0  0  0  0  0  0  0  0
    0.4820   17.3570   -1.5240 C   0  0  0  0  0  0  0  0  0  0  0  0
   -0.0410   16.1330   -2.3190 C   0  0  0  0  0  0  0  0  0  0  0  0
    0.7200   14.9260   -1.7220 C   0  0  1  0  0  0  0  0  0  0  0  0
   -0.0560   14.5690   -0.4160 C   0  0  0  0  0  0  0  0  0  0  0  0
    0.8840   13.6820   -2.6550 C   0  0  2  0  0  0  0  0  0  0  0  0
   -0.4320   13.0100   -3.0830 C   0  0  0  0  0  0  0  0  0  0  0  0
   -0.9130   11.9200   -2.1830 C   0  0  0  0  0  0  0  0  0  0  0  0
   -0.1780   11.3040   -1.2380 C   0  0  0  0  0  0  0  0  0  0  0  0
    1.3120   11.6250   -1.0660 C   0  0  1  0  0  0  0  0  0  0  0  0
    2.1150   10.3040   -0.9400 C   0  0  0  0  0  0  0  0  0  0  0  0
    1.5820    9.3980    0.1660 C   0  0  0  0  0  0  0  0  0  0  0  0
    0.1130    9.0540   -0.0720 C   0  0  2  0  0  0  0  0  0  0  0  0
    0.0140    8.2430   -1.2470 O   0  0  0  0  0  0  0  0  0  0  0  0
   -0.7930   10.3080   -0.2240 C   0  0  0  0  0  0  0  0  0  0  0  0
   -0.9240   11.0240    1.1430 C   0  0  0  0  0  0  0  0  0  0  0  0
   -2.2190    9.8230   -0.6000 C   0  0  0  0  0  0  0  0  0  0  0  0
    1.9360   12.6190   -2.1380 C   0  0  1  0  0  0  0  0  0  0  0  0
    2.4130   11.8200   -3.3890 C   0  0  0  0  0  0  0  0  0  0  0  0
    3.2200   13.2950   -1.5270 C   0  0  0  0  0  0  0  0  0  0  0  0
    3.0050   14.5870   -0.7150 C   0  0  0  0  0  0  0  0  0  0  0  0
    2.1310   15.5800   -1.4870 C   0  0  2  0  0  0  0  0  0  0  0  0
    2.8960   15.9750   -2.7960 C   0  0  0  0  0  0  0  0  0  0  0  0
    3.2211   17.8287    1.4879 H   0  0  0  0  0  0  0  0  0  0  0  0
    4.0593   16.6017    0.4786 H   0  0  0  0  0  0  0  0  0  0  0  0
    4.6285   18.3055    0.4786 H   0  0  0  0  0  0  0  0  0  0  0  0
    3.4065   17.9962   -1.5479 H   0  0  0  0  0  0  0  0  0  0  0  0
    2.9186   20.1102   -0.3835 H   0  0  0  0  0  0  0  0  0  0  0  0
    1.5026   19.5019   -1.3675 H   0  0  0  0  0  0  0  0  0  0  0  0
    1.0143   18.4432    1.1292 H   0  0  0  0  0  0  0  0  0  0  0  0
    1.7121   20.0752    1.4983 H   0  0  0  0  0  0  0  0  0  0  0  0
    0.3950   20.7530   -0.3432 H   0  0  0  0  0  0  0  0  0  0  0  0
   -1.5092   17.7774    1.8047 H   0  0  0  0  0  0  0  0  0  0  0  0
   -2.4256   17.4830    0.2880 H   0  0  0  0  0  0  0  0  0  0  0  0
   -0.6322   17.3808    0.2880 H   0  0  0  0  0  0  0  0  0  0  0  0
   -3.3226   20.3153    0.2448 H   0  0  0  0  0  0  0  0  0  0  0  0
   -2.1690   20.7417   -1.0644 H   0  0  0  0  0  0  0  0  0  0  0  0
   -2.9740   19.1359   -1.0644 H   0  0  0  0  0  0  0  0  0  0  0  0
    1.5708   16.6737    0.3209 H   0  0  0  0  0  0  0  0  0  0  0  0
   -0.2878   17.7094   -0.8217 H   0  0  0  0  0  0  0  0  0  0  0  0
    0.7270   18.1905   -2.1988 H   0  0  0  0  0  0  0  0  0  0  0  0
   -1.1259   16.0150   -2.1809 H   0  0  0  0  0  0  0  0  0  0  0  0
    0.1248   16.2368   -3.4015 H   0  0  0  0  0  0  0  0  0  0  0  0
    0.5502   14.8479    0.4585 H   0  0  0  0  0  0  0  0  0  0  0  0
   -1.0080   15.1197   -0.3930 H   0  0  0  0  0  0  0  0  0  0  0  0
   -0.2572   13.4878   -0.3930 H   0  0  0  0  0  0  0  0  0  0  0  0
    1.3031   14.1259   -3.5700 H   0  0  0  0  0  0  0  0  0  0  0  0
   -1.2115   13.7850   -3.1251 H   0  0  0  0  0  0  0  0  0  0  0  0
   -0.2298   12.5357   -4.0547 H   0  0  0  0  0  0  0  0  0  0  0  0
   -1.9563   11.5925   -2.3021 H   0  0  0  0  0  0  0  0  0  0  0  0
    1.3929   12.2015   -0.1326 H   0  0  0  0  0  0  0  0  0  0  0  0
    2.0575    9.7639   -1.8965 H   0  0  0  0  0  0  0  0  0  0  0  0
    3.1522   10.5670   -0.6851 H   0  0  0  0  0  0  0  0  0  0  0  0
    2.1708    8.4691    0.1857 H   0  0  0  0  0  0  0  0  0  0  0  0
    1.6679    9.9277    1.1262 H   0  0  0  0  0  0  0  0  0  0  0  0
   -0.2473    8.5129    0.8154 H   0  0  0  0  0  0  0  0  0  0  0  0
   -0.6530    7.5570   -1.0750 H   0  0  0  0  0  0  0  0  0  0  0  0
   -0.7903   10.2931    1.9541 H   0  0  0  0  0  0  0  0  0  0  0  0
   -0.1539   11.8054    1.2229 H   0  0  0  0  0  0  0  0  0  0  0  0
   -1.9209   11.4821    1.2229 H   0  0  0  0  0  0  0  0  0  0  0  0
   -2.7936    9.6276    0.3174 H   0  0  0  0  0  0  0  0  0  0  0  0
   -2.7261   10.5992   -1.1919 H   0  0  0  0  0  0  0  0  0  0  0  0
   -2.1477    8.8986   -1.1919 H   0  0  0  0  0  0  0  0  0  0  0  0
    2.9517   10.9176   -3.0642 H   0  0  0  0  0  0  0  0  0  0  0  0
    1.5407   11.5290   -3.9927 H   0  0  0  0  0  0  0  0  0  0  0  0
    3.0831   12.4497   -3.9927 H   0  0  0  0  0  0  0  0  0  0  0  0
    3.6989   12.5604   -0.8630 H   0  0  0  0  0  0  0  0  0  0  0  0
    3.8265   13.5971   -2.3936 H   0  0  0  0  0  0  0  0  0  0  0  0
    2.5116   14.3367    0.2357 H   0  0  0  0  0  0  0  0  0  0  0  0
    3.9845   15.0520   -0.5295 H   0  0  0  0  0  0  0  0  0  0  0  0
    3.8449   16.4650   -2.5324 H   0  0  0  0  0  0  0  0  0  0  0  0
    3.1021   15.0706   -3.3873 H   0  0  0  0  0  0  0  0  0  0  0  0
    2.2780   16.6667   -3.3873 H   0  0  0  0  0  0  0  0  0  0  0  0
  1  2  1  0
  2  3  1  0
  3  4  1  0
  4  5  1  0
  5  6  1  0
  6  7  1  0
  7  8  1  0
  7  9  1  0
  2 10  1  0
 10 11  1  0
 11 12  1  0
 12 13  1  0
 13 14  1  1
 13 15  1  0
 15 16  1  0
 16 17  1  0
 17 18  2  0
 18 19  1  0
 19 20  1  0
 20 21  1  0
 21 22  1  0
 22 23  1  0
 22 24  1  0
 24 25  1  0
 24 26  1  0
 19 27  1  0
 27 28  1  6
 27 29  1  0
 29 30  1  0
 30 31  1  0
 31 32  1  6
  7  5  1  0
 31 10  1  0
 31 13  1  0
 27 15  1  0
 24 18  1  0
  1 33  1  0
  1 34  1  0
  1 35  1  0
  2 36  1  6
  3 37  1  0
  3 38  1  0
  4 39  1  0
  4 40  1  0
  5 41  1  6
  8 42  1  0
  8 43  1  0
  8 44  1  0
  9 45  1  0
  9 46  1  0
  9 47  1  0
 10 48  1  1
 11 49  1  0
 11 50  1  0
 12 51  1  0
 12 52  1  0
 14 53  1  0
 14 54  1  0
 14 55  1  0
 15 56  1  6
 16 57  1  0
 16 58  1  0
 17 59  1  0
 19 60  1  1
 20 61  1  0
 20 62  1  0
 21 63  1  0
 21 64  1  0
 22 65  1  1
 23 66  1  0
 25 67  1  0
 25 68  1  0
 25 69  1  0
 26 70  1  0
 26 71  1  0
 26 72  1  0
 28 73  1  0
 28 74  1  0
 28 75  1  0
 29 76  1  0
 29 77  1  0
 30 78  1  0
 30 79  1  0
 32 80  1  0
 32 81  1  0
 32 82  1  0
M  END
>  <meeko>  (5) 
{"is_sidechain": [false], "intermolecular_energy": 2.731, "internal_energy": -0.839}

$$$$
EPH_relaxed_0001_pdb2pqr_Repair_94_r2_0001_out
     RDKit          3D

 82 86  0  0  0  0  0  0  0  0999 V2000
   -0.0090   10.4630   -3.7780 C   0  0  0  0  0  0  0  0  0  0  0  0
    1.0710   10.2670   -2.7110 C   0  0  2  0  0  0  0  0  0  0  0  0
    0.8450    8.9850   -1.8840 C   0  0  0  0  0  0  0  0  0  0  0  0
    0.2290    9.2410   -0.5060 C   0  0  0  0  0  0  0  0  0  0  0  0
   -1.1990    8.7890   -0.4440 C   0  0  2  0  0  0  0  0  0  0  0  0
   -1.9070    8.8700   -1.6880 O   0  0  0  0  0  0  0  0  0  0  0  0
   -2.3810    9.7210   -0.6320 C   0  0  0  0  0  0  0  0  0  0  0  0
   -2.1880   11.1820   -0.8960 C   0  0  0  0  0  0  0  0  0  0  0  0
   -3.7100    9.3120   -0.0790 C   0  0  0  0  0  0  0  0  0  0  0  0
    1.1160   11.4800   -1.7880 C   0  0  1  0  0  0  0  0  0  0  0  0
    2.1680   11.3300   -0.6570 C   0  0  0  0  0  0  0  0  0  0  0  0
    2.7510   12.7440   -0.3990 C   0  0  0  0  0  0  0  0  0  0  0  0
    1.7940   13.7030   -1.1440 C   0  0  1  0  0  0  0  0  0  0  0  0
    0.5810   13.8890   -0.1790 C   0  0  0  0  0  0  0  0  0  0  0  0
    2.3970   15.0760   -1.5860 C   0  0  2  0  0  0  0  0  0  0  0  0
    2.8710   15.9800   -0.4350 C   0  0  0  0  0  0  0  0  0  0  0  0
    1.8450   16.9220    0.1010 C   0  0  0  0  0  0  0  0  0  0  0  0
    0.6850   17.2410   -0.5020 C   0  0  0  0  0  0  0  0  0  0  0  0
    0.3520   16.7070   -1.9020 C   0  0  1  0  0  0  0  0  0  0  0  0
   -0.1820   17.8660   -2.7840 C   0  0  0  0  0  0  0  0  0  0  0  0
   -1.3590   18.5950   -2.1430 C   0  0  0  0  0  0  0  0  0  0  0  0
   -0.9720   19.1610   -0.7790 C   0  0  2  0  0  0  0  0  0  0  0  0
   -0.0010   20.1940   -0.9670 O   0  0  0  0  0  0  0  0  0  0  0  0
   -0.4110   18.0860    0.1940 C   0  0  0  0  0  0  0  0  0  0  0  0
   -1.5510   17.1360    0.6350 C   0  0  0  0  0  0  0  0  0  0  0  0
    0.0720   18.8110    1.4790 C   0  0  0  0  0  0  0  0  0  0  0  0
    1.5020   15.8750   -2.6170 C   0  0  1  0  0  0  0  0  0  0  0  0
    2.4580   16.8390   -3.3830 C   0  0  0  0  0  0  0  0  0  0  0  0
    0.8560   14.9350   -3.7030 C   0  0  0  0  0  0  0  0  0  0  0  0
    0.3890   13.5460   -3.2300 C   0  0  0  0  0  0  0  0  0  0  0  0
    1.4860   12.8430   -2.4240 C   0  0  2  0  0  0  0  0  0  0  0  0
    2.7110   12.6220   -3.3760 C   0  0  0  0  0  0  0  0  0  0  0  0
   -0.9790   10.6390   -3.2899 H   0  0  0  0  0  0  0  0  0  0  0  0
    0.2483   11.3291   -4.4054 H   0  0  0  0  0  0  0  0  0  0  0  0
   -0.0724    9.5617   -4.4054 H   0  0  0  0  0  0  0  0  0  0  0  0
    2.0341   10.1590   -3.2314 H   0  0  0  0  0  0  0  0  0  0  0  0
    0.1715    8.3226   -2.4476 H   0  0  0  0  0  0  0  0  0  0  0  0
    1.8338    8.5336   -1.7148 H   0  0  0  0  0  0  0  0  0  0  0  0
    0.8094    8.6934    0.2512 H   0  0  0  0  0  0  0  0  0  0  0  0
    0.2543   10.3240   -0.3151 H   0  0  0  0  0  0  0  0  0  0  0  0
   -0.9566    8.0536    0.3373 H   0  0  0  0  0  0  0  0  0  0  0  0
   -2.1168   11.7211    0.0602 H   0  0  0  0  0  0  0  0  0  0  0  0
   -1.2623   11.3315   -1.4711 H   0  0  0  0  0  0  0  0  0  0  0  0
   -3.0431   11.5668   -1.4711 H   0  0  0  0  0  0  0  0  0  0  0  0
   -3.6693    9.3245    1.0202 H   0  0  0  0  0  0  0  0  0  0  0  0
   -4.4830   10.0138   -0.4253 H   0  0  0  0  0  0  0  0  0  0  0  0
   -3.9546    8.2970   -0.4253 H   0  0  0  0  0  0  0  0  0  0  0  0
    0.0695   11.4943   -1.4494 H   0  0  0  0  0  0  0  0  0  0  0  0
    1.6906   10.9446    0.2560 H   0  0  0  0  0  0  0  0  0  0  0  0
    2.9596   10.6225   -0.9447 H   0  0  0  0  0  0  0  0  0  0  0  0
    2.7643   12.9679    0.6779 H   0  0  0  0  0  0  0  0  0  0  0  0
    3.7898   12.8368   -0.7487 H   0  0  0  0  0  0  0  0  0  0  0  0
    0.9298   13.8355    0.8629 H   0  0  0  0  0  0  0  0  0  0  0  0
    0.1154   14.8690   -0.3600 H   0  0  0  0  0  0  0  0  0  0  0  0
   -0.1569   13.0935   -0.3600 H   0  0  0  0  0  0  0  0  0  0  0  0
    3.3079   14.7724   -2.1228 H   0  0  0  0  0  0  0  0  0  0  0  0
    3.2025   15.3331    0.3906 H   0  0  0  0  0  0  0  0  0  0  0  0
    3.6719   16.6082   -0.8521 H   0  0  0  0  0  0  0  0  0  0  0  0
    2.0548   17.3958    1.0713 H   0  0  0  0  0  0  0  0  0  0  0  0
   -0.4356   15.9521   -1.7615 H   0  0  0  0  0  0  0  0  0  0  0  0
    0.6319   18.5873   -2.9490 H   0  0  0  0  0  0  0  0  0  0  0  0
   -0.5348   17.4300   -3.7303 H   0  0  0  0  0  0  0  0  0  0  0  0
   -1.6723   19.4201   -2.7995 H   0  0  0  0  0  0  0  0  0  0  0  0
   -2.1829   17.8792   -2.0055 H   0  0  0  0  0  0  0  0  0  0  0  0
   -1.8873   19.5566   -0.3145 H   0  0  0  0  0  0  0  0  0  0  0  0
    0.8760   19.7740   -0.9850 H   0  0  0  0  0  0  0  0  0  0  0  0
   -1.5940   17.1001    1.7336 H   0  0  0  0  0  0  0  0  0  0  0  0
   -2.5095   17.5064    0.2424 H   0  0  0  0  0  0  0  0  0  0  0  0
   -1.3595   16.1264    0.2424 H   0  0  0  0  0  0  0  0  0  0  0  0
   -0.2899   18.2678    2.3645 H   0  0  0  0  0  0  0  0  0  0  0  0
    1.1715   18.8415    1.4915 H   0  0  0  0  0  0  0  0  0  0  0  0
   -0.3234   19.8374    1.4915 H   0  0  0  0  0  0  0  0  0  0  0  0
    3.0417   17.4276   -2.6599 H   0  0  0  0  0  0  0  0  0  0  0  0
    3.1412   16.2524   -4.0148 H   0  0  0  0  0  0  0  0  0  0  0  0
    1.8657   17.5173   -4.0148 H   0  0  0  0  0  0  0  0  0  0  0  0
   -0.0192   15.4572   -4.1169 H   0  0  0  0  0  0  0  0  0  0  0  0
    1.6599   14.7371   -4.4272 H   0  0  0  0  0  0  0  0  0  0  0  0
   -0.5034   13.6626   -2.5975 H   0  0  0  0  0  0  0  0  0  0  0  0
    0.1573   12.9342   -4.1143 H   0  0  0  0  0  0  0  0  0  0  0  0
    3.6176   12.4584   -2.7750 H   0  0  0  0  0  0  0  0  0  0  0  0
    2.5282   11.7423   -4.0106 H   0  0  0  0  0  0  0  0  0  0  0  0
    2.8471   13.5101   -4.0106 H   0  0  0  0  0  0  0  0  0  0  0  0
  1  2  1  0
  2  3  1  0
  3  4  1  0
  4  5  1  0
  5  6  1  0
  6  7  1  0
  7  8  1  0
  7  9  1  0
  2 10  1  0
 10 11  1  0
 11 12  1  0
 12 13  1  0
 13 14  1  1
 13 15  1  0
 15 16  1  0
 16 17  1  0
 17 18  2  0
 18 19  1  0
 19 20  1  0
 20 21  1  0
 21 22  1  0
 22 23  1  0
 22 24  1  0
 24 25  1  0
 24 26  1  0
 19 27  1  0
 27 28  1  6
 27 29  1  0
 29 30  1  0
 30 31  1  0
 31 32  1  6
  7  5  1  0
 31 10  1  0
 31 13  1  0
 27 15  1  0
 24 18  1  0
  1 33  1  0
  1 34  1  0
  1 35  1  0
  2 36  1  6
  3 37  1  0
  3 38  1  0
  4 39  1  0
  4 40  1  0
  5 41  1  1
  8 42  1  0
  8 43  1  0
  8 44  1  0
  9 45  1  0
  9 46  1  0
  9 47  1  0
 10 48  1  1
 11 49  1  0
 11 50  1  0
 12 51  1  0
 12 52  1  0
 14 53  1  0
 14 54  1  0
 14 55  1  0
 15 56  1  6
 16 57  1  0
 16 58  1  0
 17 59  1  0
 19 60  1  1
 20 61  1  0
 20 62  1  0
 21 63  1  0
 21 64  1  0
 22 65  1  1
 23 66  1  0
 25 67  1  0
 25 68  1  0
 25 69  1  0
 26 70  1  0
 26 71  1  0
 26 72  1  0
 28 73  1  0
 28 74  1  0
 28 75  1  0
 29 76  1  0
 29 77  1  0
 30 78  1  0
 30 79  1  0
 32 80  1  0
 32 81  1  0
 32 82  1  0
M  END
>  <meeko>  (6) 
{"is_sidechain": [false], "intermolecular_energy": 2.731, "internal_energy": -0.839}

$$$$
EPH_relaxed_0001_pdb2pqr_Repair_94_r2_0001_out
     RDKit          3D

 82 86  0  0  0  0  0  0  0  0999 V2000
    0.4560    8.7930   -2.3520 C   0  0  0  0  0  0  0  0  0  0  0  0
    1.1900    9.9360   -3.0590 C   0  0  2  0  0  0  0  0  0  0  0  0
    2.6930    9.9610   -2.7160 C   0  0  0  0  0  0  0  0  0  0  0  0
    3.5610   10.6080   -3.7990 C   0  0  0  0  0  0  0  0  0  0  0  0
    4.9610   10.8430   -3.3200 C   0  0  2  0  0  0  0  0  0  0  0  0
    5.5670   12.0460   -3.8100 O   0  0  0  0  0  0  0  0  0  0  0  0
    6.1730   10.8140   -4.2320 C   0  0  0  0  0  0  0  0  0  0  0  0
    6.0410   10.5410   -5.6980 C   0  0  0  0  0  0  0  0  0  0  0  0
    7.5190   10.5650   -3.6260 C   0  0  0  0  0  0  0  0  0  0  0  0
    0.5500   11.2690   -2.6930 C   0  0  1  0  0  0  0  0  0  0  0  0
   -0.8270   11.1000   -1.9970 C   0  0  0  0  0  0  0  0  0  0  0  0
   -0.9440   12.2410   -0.9530 C   0  0  0  0  0  0  0  0  0  0  0  0
    0.2050   13.2130   -1.3090 C   0  0  1  0  0  0  0  0  0  0  0  0
   -0.3460   14.0690   -2.4920 C   0  0  0  0  0  0  0  0  0  0  0  0
    0.7350   14.1120   -0.1440 C   0  0  2  0  0  0  0  0  0  0  0  0
   -0.2970   15.0880    0.4480 C   0  0  0  0  0  0  0  0  0  0  0  0
   -0.3420   16.4350   -0.1950 C   0  0  0  0  0  0  0  0  0  0  0  0
    0.5990   16.9440   -1.0120 C   0  0  0  0  0  0  0  0  0  0  0  0
    1.9010   16.1800   -1.2850 C   0  0  1  0  0  0  0  0  0  0  0  0
    3.1060   17.1490   -1.1570 C   0  0  0  0  0  0  0  0  0  0  0  0
    2.9590   18.3860   -2.0370 C   0  0  0  0  0  0  0  0  0  0  0  0
    1.6820   19.1500   -1.6960 C   0  0  2  0  0  0  0  0  0  0  0  0
    1.8080   19.6910   -0.3770 O   0  0  0  0  0  0  0  0  0  0  0  0
    0.4020   18.2730   -1.7810 C   0  0  0  0  0  0  0  0  0  0  0  0
    0.1000   17.9370   -3.2630 C   0  0  0  0  0  0  0  0  0  0  0  0
   -0.7940   19.1250   -1.2770 C   0  0  0  0  0  0  0  0  0  0  0  0
    2.1050   14.8390   -0.4580 C   0  0  1  0  0  0  0  0  0  0  0  0
    2.7650   15.1580    0.9190 C   0  0  0  0  0  0  0  0  0  0  0  0
    3.1130   13.9080   -1.2290 C   0  0  0  0  0  0  0  0  0  0  0  0
    2.5140   12.9570   -2.2830 C   0  0  0  0  0  0  0  0  0  0  0  0
    1.3230   12.1840   -1.7100 C   0  0  2  0  0  0  0  0  0  0  0  0
    1.8510   11.2960   -0.5320 C   0  0  0  0  0  0  0  0  0  0  0  0
    0.5390    8.9222   -1.2628 H   0  0  0  0  0  0  0  0  0  0  0  0
   -0.6048    8.8032   -2.6427 H   0  0  0  0  0  0  0  0  0  0  0  0
    0.9066    7.8326   -2.6427 H   0  0  0  0  0  0  0  0  0  0  0  0
    1.1017    9.7662   -4.1422 H   0  0  0  0  0  0  0  0  0  0  0  0
    2.8265   10.5250   -1.7811 H   0  0  0  0  0  0  0  0  0  0  0  0
    3.0194    8.9145   -2.6252 H   0  0  0  0  0  0  0  0  0  0  0  0
    3.5909    9.9442   -4.6757 H   0  0  0  0  0  0  0  0  0  0  0  0
    3.1187   11.5817   -4.0567 H   0  0  0  0  0  0  0  0  0  0  0  0
    4.7438   10.3415   -2.3654 H   0  0  0  0  0  0  0  0  0  0  0  0
    5.5666    9.5598   -5.8470 H   0  0  0  0  0  0  0  0  0  0  0  0
    5.4211   11.3223   -6.1621 H   0  0  0  0  0  0  0  0  0  0  0  0
    7.0383   10.5403   -6.1621 H   0  0  0  0  0  0  0  0  0  0  0  0
    7.4359   10.5804   -2.5293 H   0  0  0  0  0  0  0  0  0  0  0  0
    7.8917    9.5827   -3.9517 H   0  0  0  0  0  0  0  0  0  0  0  0
    8.2185   11.3490   -3.9517 H   0  0  0  0  0  0  0  0  0  0  0  0
    0.5124   11.7342   -3.6891 H   0  0  0  0  0  0  0  0  0  0  0  0
   -1.6374   11.1788   -2.7366 H   0  0  0  0  0  0  0  0  0  0  0  0
   -0.9077   10.1143   -1.5154 H   0  0  0  0  0  0  0  0  0  0  0  0
   -1.9185   12.7446   -1.0353 H   0  0  0  0  0  0  0  0  0  0  0  0
   -0.8727   11.8706    0.0803 H   0  0  0  0  0  0  0  0  0  0  0  0
   -0.9009   14.9311   -2.0935 H   0  0  0  0  0  0  0  0  0  0  0  0
    0.4925   14.4257   -3.1082 H   0  0  0  0  0  0  0  0  0  0  0  0
   -1.0179   13.4535   -3.1082 H   0  0  0  0  0  0  0  0  0  0  0  0
    0.9388   13.3763    0.6480 H   0  0  0  0  0  0  0  0  0  0  0  0
   -1.2927   14.6309    0.3498 H   0  0  0  0  0  0  0  0  0  0  0  0
    0.0082   15.2584    1.4910 H   0  0  0  0  0  0  0  0  0  0  0  0
   -1.2186   17.0648    0.0170 H   0  0  0  0  0  0  0  0  0  0  0  0
    1.8264   15.8115   -2.3187 H   0  0  0  0  0  0  0  0  0  0  0  0
    3.1899   17.4704   -0.1084 H   0  0  0  0  0  0  0  0  0  0  0  0
    4.0050   16.6088   -1.4886 H   0  0  0  0  0  0  0  0  0  0  0  0
    3.8256   19.0449   -1.8794 H   0  0  0  0  0  0  0  0  0  0  0  0
    2.9058   18.0649   -3.0877 H   0  0  0  0  0  0  0  0  0  0  0  0
    1.5649   19.9481   -2.4439 H   0  0  0  0  0  0  0  0  0  0  0  0
    2.7460   19.9020   -0.2330 H   0  0  0  0  0  0  0  0  0  0  0  0
   -0.6346   17.1197   -3.3113 H   0  0  0  0  0  0  0  0  0  0  0  0
   -0.3079   18.8268   -3.7649 H   0  0  0  0  0  0  0  0  0  0  0  0
    1.0281   17.6260   -3.7649 H   0  0  0  0  0  0  0  0  0  0  0  0
   -0.8023   19.1309   -0.1770 H   0  0  0  0  0  0  0  0  0  0  0  0
   -0.6925   20.1554   -1.6484 H   0  0  0  0  0  0  0  0  0  0  0  0
   -1.7347   18.6924   -1.6484 H   0  0  0  0  0  0  0  0  0  0  0  0
    2.0959   14.8346    1.7300 H   0  0  0  0  0  0  0  0  0  0  0  0
    3.7231   14.6235    0.9990 H   0  0  0  0  0  0  0  0  0  0  0  0
    2.9414   16.2408    0.9990 H   0  0  0  0  0  0  0  0  0  0  0  0
    3.8398   14.5561   -1.7405 H   0  0  0  0  0  0  0  0  0  0  0  0
    3.5431   13.2502   -0.4594 H   0  0  0  0  0  0  0  0  0  0  0  0
    2.1777   13.5458   -3.1492 H   0  0  0  0  0  0  0  0  0  0  0  0
    3.2878   12.2358   -2.5847 H   0  0  0  0  0  0  0  0  0  0  0  0
    1.5761   11.7584    0.4275 H   0  0  0  0  0  0  0  0  0  0  0  0
    1.4018   10.2941   -0.5982 H   0  0  0  0  0  0  0  0  0  0  0  0
    2.9458   11.2121   -0.5982 H   0  0  0  0  0  0  0  0  0  0  0  0
  1  2  1  0
  2  3  1  0
  3  4  1  0
  4  5  1  0
  5  6  1  0
  6  7  1  0
  7  8  1  0
  7  9  1  0
  2 10  1  0
 10 11  1  0
 11 12  1  0
 12 13  1  0
 13 14  1  6
 13 15  1  0
 15 16  1  0
 16 17  1  0
 17 18  2  0
 18 19  1  0
 19 20  1  0
 20 21  1  0
 21 22  1  0
 22 23  1  0
 22 24  1  0
 24 25  1  0
 24 26  1  0
 19 27  1  0
 27 28  1  1
 27 29  1  0
 29 30  1  0
 30 31  1  0
 31 32  1  1
  7  5  1  0
 31 10  1  0
 31 13  1  0
 27 15  1  0
 24 18  1  0
  1 33  1  0
  1 34  1  0
  1 35  1  0
  2 36  1  6
  3 37  1  0
  3 38  1  0
  4 39  1  0
  4 40  1  0
  5 41  1  1
  8 42  1  0
  8 43  1  0
  8 44  1  0
  9 45  1  0
  9 46  1  0
  9 47  1  0
 10 48  1  6
 11 49  1  0
 11 50  1  0
 12 51  1  0
 12 52  1  0
 14 53  1  0
 14 54  1  0
 14 55  1  0
 15 56  1  1
 16 57  1  0
 16 58  1  0
 17 59  1  0
 19 60  1  6
 20 61  1  0
 20 62  1  0
 21 63  1  0
 21 64  1  0
 22 65  1  6
 23 66  1  0
 25 67  1  0
 25 68  1  0
 25 69  1  0
 26 70  1  0
 26 71  1  0
 26 72  1  0
 28 73  1  0
 28 74  1  0
 28 75  1  0
 29 76  1  0
 29 77  1  0
 30 78  1  0
 30 79  1  0
 32 80  1  0
 32 81  1  0
 32 82  1  0
M  END
>  <meeko>  (7) 
{"is_sidechain": [false], "intermolecular_energy": 2.731, "internal_energy": -0.839}

$$$$
EPH_relaxed_0001_pdb2pqr_Repair_94_r2_0001_out
     RDKit          3D

 82 86  0  0  0  0  0  0  0  0999 V2000
    1.6930   19.5150   -2.2060 C   0  0  0  0  0  0  0  0  0  0  0  0
    1.4640   19.3750   -0.6990 C   0  0  2  0  0  0  0  0  0  0  0  0
    2.6890   19.8290    0.1190 C   0  0  0  0  0  0  0  0  0  0  0  0
    3.0170   18.9090    1.2980 C   0  0  0  0  0  0  0  0  0  0  0  0
    4.4050   19.1430    1.8150 C   0  0  2  0  0  0  0  0  0  0  0  0
    4.8620   18.1710    2.7640 O   0  0  0  0  0  0  0  0  0  0  0  0
    4.7100   19.5120    3.2550 C   0  0  0  0  0  0  0  0  0  0  0  0
    3.6190   19.6700    4.2680 C   0  0  0  0  0  0  0  0  0  0  0  0
    6.0070   20.1940    3.5590 C   0  0  0  0  0  0  0  0  0  0  0  0
    1.1150   17.9310   -0.3580 C   0  0  1  0  0  0  0  0  0  0  0  0
   -0.2020   17.8100    0.4540 C   0  0  0  0  0  0  0  0  0  0  0  0
   -0.8900   16.4990   -0.0040 C   0  0  0  0  0  0  0  0  0  0  0  0
    0.1970   15.7470   -0.8070 C   0  0  1  0  0  0  0  0  0  0  0  0
    1.0850   15.0530    0.2720 C   0  0  0  0  0  0  0  0  0  0  0  0
   -0.3150   14.7280   -1.8760 C   0  0  2  0  0  0  0  0  0  0  0  0
   -1.1270   13.5470   -1.3160 C   0  0  0  0  0  0  0  0  0  0  0  0
   -0.3280   12.3380   -0.9550 C   0  0  0  0  0  0  0  0  0  0  0  0
    0.9400   12.0960   -1.3360 C   0  0  0  0  0  0  0  0  0  0  0  0
    1.6690   13.0460   -2.2950 C   0  0  1  0  0  0  0  0  0  0  0  0
    2.3800   12.2210   -3.4000 C   0  0  0  0  0  0  0  0  0  0  0  0
    3.3020   11.1490   -2.8270 C   0  0  0  0  0  0  0  0  0  0  0  0
    2.5300   10.1900   -1.9250 C   0  0  2  0  0  0  0  0  0  0  0  0
    1.6080    9.4450   -2.7270 O   0  0  0  0  0  0  0  0  0  0  0  0
    1.7640   10.9090   -0.7790 C   0  0  0  0  0  0  0  0  0  0  0  0
    2.7750   11.4620    0.2560 C   0  0  0  0  0  0  0  0  0  0  0  0
    0.9150    9.8460   -0.0320 C   0  0  0  0  0  0  0  0  0  0  0  0
    0.7980   14.2360   -2.8880 C   0  0  1  0  0  0  0  0  0  0  0  0
    0.0530   13.7610   -4.1730 C   0  0  0  0  0  0  0  0  0  0  0  0
    1.7570   15.4020   -3.3350 C   0  0  0  0  0  0  0  0  0  0  0  0
    2.1310   16.4440   -2.2640 C   0  0  0  0  0  0  0  0  0  0  0  0
    0.8820   16.9570   -1.5400 C   0  0  2  0  0  0  0  0  0  0  0  0
   -0.0200   17.6810   -2.5970 C   0  0  0  0  0  0  0  0  0  0  0  0
    2.6190   20.0811   -2.3851 H   0  0  0  0  0  0  0  0  0  0  0  0
    1.7808   18.5160   -2.6579 H   0  0  0  0  0  0  0  0  0  0  0  0
    0.8438   20.0485   -2.6579 H   0  0  0  0  0  0  0  0  0  0  0  0
    0.6251   20.0333   -0.4292 H   0  0  0  0  0  0  0  0  0  0  0  0
    3.5614   19.8602   -0.5503 H   0  0  0  0  0  0  0  0  0  0  0  0
    2.4470   20.8163    0.5393 H   0  0  0  0  0  0  0  0  0  0  0  0
    2.2980   19.0984    2.1087 H   0  0  0  0  0  0  0  0  0  0  0  0
    2.9523   17.8679    0.9488 H   0  0  0  0  0  0  0  0  0  0  0  0
    4.7117   19.5898    0.8578 H   0  0  0  0  0  0  0  0  0  0  0  0
    4.0463   19.6081    5.2797 H   0  0  0  0  0  0  0  0  0  0  0  0
    3.1333   20.6479    4.1343 H   0  0  0  0  0  0  0  0  0  0  0  0
    2.8758   18.8701    4.1343 H   0  0  0  0  0  0  0  0  0  0  0  0
    6.1383   20.2630    4.6490 H   0  0  0  0  0  0  0  0  0  0  0  0
    6.8360   19.6152    3.1257 H   0  0  0  0  0  0  0  0  0  0  0  0
    6.0000   21.2051    3.1257 H   0  0  0  0  0  0  0  0  0  0  0  0
    2.0254   17.6464    0.1899 H   0  0  0  0  0  0  0  0  0  0  0  0
    0.0193   17.7657    1.5306 H   0  0  0  0  0  0  0  0  0  0  0  0
   -0.8537   18.6793    0.2819 H   0  0  0  0  0  0  0  0  0  0  0  0
   -1.2114   15.9054    0.8645 H   0  0  0  0  0  0  0  0  0  0  0  0
   -1.7933   16.6893   -0.6021 H   0  0  0  0  0  0  0  0  0  0  0  0
    0.7286   15.3315    1.2747 H   0  0  0  0  0  0  0  0  0  0  0  0
    1.0232   13.9614    0.1510 H   0  0  0  0  0  0  0  0  0  0  0  0
    2.1293   15.3768    0.1510 H   0  0  0  0  0  0  0  0  0  0  0  0
   -1.0284   15.3327   -2.4552 H   0  0  0  0  0  0  0  0  0  0  0  0
   -1.6491   13.8920   -0.4113 H   0  0  0  0  0  0  0  0  0  0  0  0
   -1.8052   13.2338   -2.1235 H   0  0  0  0  0  0  0  0  0  0  0  0
   -0.8173   11.5812   -0.3243 H   0  0  0  0  0  0  0  0  0  0  0  0
    2.4156   13.5777   -1.6868 H   0  0  0  0  0  0  0  0  0  0  0  0
    1.6157   11.7329   -4.0226 H   0  0  0  0  0  0  0  0  0  0  0  0
    2.9989   12.9143   -3.9885 H   0  0  0  0  0  0  0  0  0  0  0  0
    3.7517   10.5811   -3.6548 H   0  0  0  0  0  0  0  0  0  0  0  0
    4.0830   11.6412   -2.2289 H   0  0  0  0  0  0  0  0  0  0  0  0
    3.2637    9.5269   -1.4434 H   0  0  0  0  0  0  0  0  0  0  0  0
    2.1180    8.7820   -3.2220 H   0  0  0  0  0  0  0  0  0  0  0  0
    2.4063   11.2604    1.2726 H   0  0  0  0  0  0  0  0  0  0  0  0
    3.7493   10.9712    0.1152 H   0  0  0  0  0  0  0  0  0  0  0  0
    2.8873   12.5472    0.1152 H   0  0  0  0  0  0  0  0  0  0  0  0
    1.0259    9.9849    1.0535 H   0  0  0  0  0  0  0  0  0  0  0  0
   -0.1431    9.9604   -0.3101 H   0  0  0  0  0  0  0  0  0  0  0  0
    1.2605    8.8393   -0.3101 H   0  0  0  0  0  0  0  0  0  0  0  0
   -0.8427   13.1899   -3.8875 H   0  0  0  0  0  0  0  0  0  0  0  0
   -0.2447   14.6363   -4.7689 H   0  0  0  0  0  0  0  0  0  0  0  0
    0.7210   13.1217   -4.7689 H   0  0  0  0  0  0  0  0  0  0  0  0
    2.6907   14.9452   -3.6950 H   0  0  0  0  0  0  0  0  0  0  0  0
    1.1936   15.9617   -4.0962 H   0  0  0  0  0  0  0  0  0  0  0  0
    2.8071   15.9800   -1.5308 H   0  0  0  0  0  0  0  0  0  0  0  0
    2.6246   17.2939   -2.7580 H   0  0  0  0  0  0  0  0  0  0  0  0
   -0.7767   18.2884   -2.0788 H   0  0  0  0  0  0  0  0  0  0  0  0
    0.6039   18.3319   -3.2271 H   0  0  0  0  0  0  0  0  0  0  0  0
   -0.5205   16.9310   -3.2271 H   0  0  0  0  0  0  0  0  0  0  0  0
  1  2  1  0
  2  3  1  0
  3  4  1  0
  4  5  1  0
  5  6  1  0
  6  7  1  0
  7  8  1  0
  7  9  1  0
  2 10  1  0
 10 11  1  0
 11 12  1  0
 12 13  1  0
 13 14  1  1
 13 15  1  0
 15 16  1  0
 16 17  1  0
 17 18  2  0
 18 19  1  0
 19 20  1  0
 20 21  1  0
 21 22  1  0
 22 23  1  0
 22 24  1  0
 24 25  1  0
 24 26  1  0
 19 27  1  0
 27 28  1  6
 27 29  1  0
 29 30  1  0
 30 31  1  0
 31 32  1  6
  7  5  1  0
 31 10  1  0
 31 13  1  0
 27 15  1  0
 24 18  1  0
  1 33  1  0
  1 34  1  0
  1 35  1  0
  2 36  1  1
  3 37  1  0
  3 38  1  0
  4 39  1  0
  4 40  1  0
  5 41  1  6
  8 42  1  0
  8 43  1  0
  8 44  1  0
  9 45  1  0
  9 46  1  0
  9 47  1  0
 10 48  1  1
 11 49  1  0
 11 50  1  0
 12 51  1  0
 12 52  1  0
 14 53  1  0
 14 54  1  0
 14 55  1  0
 15 56  1  6
 16 57  1  0
 16 58  1  0
 17 59  1  0
 19 60  1  1
 20 61  1  0
 20 62  1  0
 21 63  1  0
 21 64  1  0
 22 65  1  1
 23 66  1  0
 25 67  1  0
 25 68  1  0
 25 69  1  0
 26 70  1  0
 26 71  1  0
 26 72  1  0
 28 73  1  0
 28 74  1  0
 28 75  1  0
 29 76  1  0
 29 77  1  0
 30 78  1  0
 30 79  1  0
 32 80  1  0
 32 81  1  0
 32 82  1  0
M  END
>  <meeko>  (8) 
{"is_sidechain": [false], "intermolecular_energy": 2.731, "internal_energy": -0.839}

$$$$
EPH_relaxed_0001_pdb2pqr_Repair_94_r2_0001_out
     RDKit          3D

 82 86  0  0  0  0  0  0  0  0999 V2000
    0.1790   17.8050   -2.5530 C   0  0  0  0  0  0  0  0  0  0  0  0
   -0.0750   16.9050   -1.3400 C   0  0  2  0  0  0  0  0  0  0  0  0
   -0.1350   17.7080   -0.0240 C   0  0  0  0  0  0  0  0  0  0  0  0
    0.4850   19.1040   -0.1260 C   0  0  0  0  0  0  0  0  0  0  0  0
    1.6410   19.2660    0.8140 C   0  0  2  0  0  0  0  0  0  0  0  0
    2.6440   20.1920    0.3750 O   0  0  0  0  0  0  0  0  0  0  0  0
    3.0540   18.8200    0.4870 C   0  0  0  0  0  0  0  0  0  0  0  0
    3.3860   18.1750   -0.8220 C   0  0  0  0  0  0  0  0  0  0  0  0
    4.0030   18.5640    1.6160 C   0  0  0  0  0  0  0  0  0  0  0  0
    1.0080   15.8370   -1.2490 C   0  0  1  0  0  0  0  0  0  0  0  0
    1.2220   15.3240    0.2010 C   0  0  0  0  0  0  0  0  0  0  0  0
    1.5700   13.8170    0.0950 C   0  0  0  0  0  0  0  0  0  0  0  0
    1.8720   13.5910   -1.4050 C   0  0  1  0  0  0  0  0  0  0  0  0
    3.3440   14.0740   -1.5960 C   0  0  0  0  0  0  0  0  0  0  0  0
    1.6680   12.1360   -1.9390 C   0  0  2  0  0  0  0  0  0  0  0  0
    2.5780   11.0730   -1.2990 C   0  0  0  0  0  0  0  0  0  0  0  0
    3.8790   10.8450   -1.9940 C   0  0  0  0  0  0  0  0  0  0  0  0
    4.1830   11.2560   -3.2390 C   0  0  0  0  0  0  0  0  0  0  0  0
    3.1320   11.9420   -4.1200 C   0  0  1  0  0  0  0  0  0  0  0  0
    3.1610   11.3200   -5.5410 C   0  0  0  0  0  0  0  0  0  0  0  0
    4.5540   11.3480   -6.1640 C   0  0  0  0  0  0  0  0  0  0  0  0
    5.5580   10.6050   -5.2870 C   0  0  2  0  0  0  0  0  0  0  0  0
    5.2230    9.2140   -5.2790 O   0  0  0  0  0  0  0  0  0  0  0  0
    5.6110   11.1390   -3.8280 C   0  0  0  0  0  0  0  0  0  0  0  0
    6.2600   12.5450   -3.8110 C   0  0  0  0  0  0  0  0  0  0  0  0
    6.5570   10.2140   -3.0150 C   0  0  0  0  0  0  0  0  0  0  0  0
    1.6640   12.0180   -3.5170 C   0  0  1  0  0  0  0  0  0  0  0  0
    0.8780   10.7180   -3.8650 C   0  0  0  0  0  0  0  0  0  0  0  0
    0.8870   13.2040   -4.2030 C   0  0  0  0  0  0  0  0  0  0  0  0
    1.0330   14.5950   -3.5580 C   0  0  0  0  0  0  0  0  0  0  0  0
    0.7860   14.5290   -2.0480 C   0  0  2  0  0  0  0  0  0  0  0  0
   -0.6940   14.0670   -1.8250 C   0  0  0  0  0  0  0  0  0  0  0  0
    0.4629   18.8109   -2.2102 H   0  0  0  0  0  0  0  0  0  0  0  0
    0.9926   17.3813   -3.1600 H   0  0  0  0  0  0  0  0  0  0  0  0
   -0.7361   17.8692   -3.1600 H   0  0  0  0  0  0  0  0  0  0  0  0
   -1.0561   16.4281   -1.4814 H   0  0  0  0  0  0  0  0  0  0  0  0
   -1.1898   17.8170    0.2685 H   0  0  0  0  0  0  0  0  0  0  0  0
    0.4514   17.1494    0.7204 H   0  0  0  0  0  0  0  0  0  0  0  0
    0.8376   19.2633   -1.1557 H   0  0  0  0  0  0  0  0  0  0  0  0
   -0.2842   19.8420    0.1453 H   0  0  0  0  0  0  0  0  0  0  0  0
    0.9914   19.0818    1.6824 H   0  0  0  0  0  0  0  0  0  0  0  0
    3.8825   17.2104   -0.6400 H   0  0  0  0  0  0  0  0  0  0  0  0
    2.4612   18.0092   -1.3941 H   0  0  0  0  0  0  0  0  0  0  0  0
    4.0583   18.8313   -1.3941 H   0  0  0  0  0  0  0  0  0  0  0  0
    3.4803   18.7050    2.5735 H   0  0  0  0  0  0  0  0  0  0  0  0
    4.3791   17.5323    1.5521 H   0  0  0  0  0  0  0  0  0  0  0  0
    4.8470   19.2666    1.5521 H   0  0  0  0  0  0  0  0  0  0  0  0
    1.8547   16.3973   -1.6723 H   0  0  0  0  0  0  0  0  0  0  0  0
    2.0484   15.8710    0.6783 H   0  0  0  0  0  0  0  0  0  0  0  0
    0.3207   15.4794    0.8122 H   0  0  0  0  0  0  0  0  0  0  0  0
    2.4509   13.5777    0.7088 H   0  0  0  0  0  0  0  0  0  0  0  0
    0.7546   13.1740    0.4579 H   0  0  0  0  0  0  0  0  0  0  0  0
    3.8103   14.2270   -0.6116 H   0  0  0  0  0  0  0  0  0  0  0  0
    3.9095   13.3143   -2.1555 H   0  0  0  0  0  0  0  0  0  0  0  0
    3.3495   15.0211   -2.1555 H   0  0  0  0  0  0  0  0  0  0  0  0
    0.6484   11.9016   -1.5993 H   0  0  0  0  0  0  0  0  0  0  0  0
    2.7944   11.3874   -0.2673 H   0  0  0  0  0  0  0  0  0  0  0  0
    2.0278   10.1227   -1.3639 H   0  0  0  0  0  0  0  0  0  0  0  0
    4.6550   10.2945   -1.4420 H   0  0  0  0  0  0  0  0  0  0  0  0
    3.4230   13.0016   -4.1705 H   0  0  0  0  0  0  0  0  0  0  0  0
    2.8251   10.2746   -5.4752 H   0  0  0  0  0  0  0  0  0  0  0  0
    2.4969   11.9192   -6.1813 H   0  0  0  0  0  0  0  0  0  0  0  0
    4.5158   10.8684   -7.1532 H   0  0  0  0  0  0  0  0  0  0  0  0
    4.8763   12.3956   -6.2570 H   0  0  0  0  0  0  0  0  0  0  0  0
    6.5568   10.7701   -5.7172 H   0  0  0  0  0  0  0  0  0  0  0  0
    5.8680    8.7530   -5.8410 H   0  0  0  0  0  0  0  0  0  0  0  0
    6.4089   12.8676   -2.7699 H   0  0  0  0  0  0  0  0  0  0  0  0
    7.2315   12.5066   -4.3255 H   0  0  0  0  0  0  0  0  0  0  0  0
    5.6006   13.2595   -4.3255 H   0  0  0  0  0  0  0  0  0  0  0  0
    6.3922   10.3752   -1.9394 H   0  0  0  0  0  0  0  0  0  0  0  0
    6.3466    9.1636   -3.2648 H   0  0  0  0  0  0  0  0  0  0  0  0
    7.6024   10.4480   -3.2648 H   0  0  0  0  0  0  0  0  0  0  0  0
    0.5733   10.2140   -2.9360 H   0  0  0  0  0  0  0  0  0  0  0  0
   -0.0156   10.9759   -4.4523 H   0  0  0  0  0  0  0  0  0  0  0  0
    1.5216   10.0465   -4.4523 H   0  0  0  0  0  0  0  0  0  0  0  0
    1.2437   13.2793   -5.2408 H   0  0  0  0  0  0  0  0  0  0  0  0
   -0.1779   12.9488   -4.0989 H   0  0  0  0  0  0  0  0  0  0  0  0
    2.0507   14.9707   -3.7398 H   0  0  0  0  0  0  0  0  0  0  0  0
    0.2875   15.2687   -4.0057 H   0  0  0  0  0  0  0  0  0  0  0  0
   -0.8995   14.0029   -0.7463 H   0  0  0  0  0  0  0  0  0  0  0  0
   -1.3785   14.7942   -2.2861 H   0  0  0  0  0  0  0  0  0  0  0  0
   -0.8433   13.0795   -2.2861 H   0  0  0  0  0  0  0  0  0  0  0  0
  1  2  1  0
  2  3  1  0
  3  4  1  0
  4  5  1  0
  5  6  1  0
  6  7  1  0
  7  8  1  0
  7  9  1  0
  2 10  1  0
 10 11  1  0
 11 12  1  0
 12 13  1  0
 13 14  1  1
 13 15  1  0
 15 16  1  0
 16 17  1  0
 17 18  2  0
 18 19  1  0
 19 20  1  0
 20 21  1  0
 21 22  1  0
 22 23  1  0
 22 24  1  0
 24 25  1  0
 24 26  1  0
 19 27  1  0
 27 28  1  1
 27 29  1  0
 29 30  1  0
 30 31  1  0
 31 32  1  6
  7  5  1  0
 31 10  1  0
 31 13  1  0
 27 15  1  0
 24 18  1  0
  1 33  1  0
  1 34  1  0
  1 35  1  0
  2 36  1  6
  3 37  1  0
  3 38  1  0
  4 39  1  0
  4 40  1  0
  5 41  1  1
  8 42  1  0
  8 43  1  0
  8 44  1  0
  9 45  1  0
  9 46  1  0
  9 47  1  0
 10 48  1  6
 11 49  1  0
 11 50  1  0
 12 51  1  0
 12 52  1  0
 14 53  1  0
 14 54  1  0
 14 55  1  0
 15 56  1  1
 16 57  1  0
 16 58  1  0
 17 59  1  0
 19 60  1  6
 20 61  1  0
 20 62  1  0
 21 63  1  0
 21 64  1  0
 22 65  1  6
 23 66  1  0
 25 67  1  0
 25 68  1  0
 25 69  1  0
 26 70  1  0
 26 71  1  0
 26 72  1  0
 28 73  1  0
 28 74  1  0
 28 75  1  0
 29 76  1  0
 29 77  1  0
 30 78  1  0
 30 79  1  0
 32 80  1  0
 32 81  1  0
 32 82  1  0
M  END
>  <meeko>  (9) 
{"is_sidechain": [false], "intermolecular_energy": 2.731, "internal_energy": -0.839}

$$$$
EPH_relaxed_0001_pdb2pqr_Repair_94_r2_0001_out
     RDKit          3D

 82 86  0  0  0  0  0  0  0  0999 V2000
    2.8620   18.8470   -1.4390 C   0  0  0  0  0  0  0  0  0  0  0  0
    2.3710   17.7650   -2.4040 C   0  0  2  0  0  0  0  0  0  0  0  0
    0.9030   17.9820   -2.8230 C   0  0  0  0  0  0  0  0  0  0  0  0
    0.2900   19.2730   -2.2710 C   0  0  0  0  0  0  0  0  0  0  0  0
   -1.0110   19.0140   -1.5730 C   0  0  2  0  0  0  0  0  0  0  0  0
   -1.7350   20.1940   -1.2010 O   0  0  0  0  0  0  0  0  0  0  0  0
   -1.2660   19.3710   -0.1210 C   0  0  0  0  0  0  0  0  0  0  0  0
   -0.2110   20.0170    0.7220 C   0  0  0  0  0  0  0  0  0  0  0  0
   -2.3590   18.6560    0.6100 C   0  0  0  0  0  0  0  0  0  0  0  0
    2.5320   16.3890   -1.7680 C   0  0  1  0  0  0  0  0  0  0  0  0
    3.1580   16.4570   -0.3490 C   0  0  0  0  0  0  0  0  0  0  0  0
    2.5000   15.3280    0.4850 C   0  0  0  0  0  0  0  0  0  0  0  0
    1.7740   14.4460   -0.5580 C   0  0  1  0  0  0  0  0  0  0  0  0
    2.8880   13.5290   -1.1540 C   0  0  0  0  0  0  0  0  0  0  0  0
    0.5600   13.6120   -0.0320 C   0  0  2  0  0  0  0  0  0  0  0  0
    0.9040   12.5640    1.0410 C   0  0  0  0  0  0  0  0  0  0  0  0
    1.2510   11.2090    0.5210 C   0  0  0  0  0  0  0  0  0  0  0  0
    1.0120   10.7650   -0.7270 C   0  0  0  0  0  0  0  0  0  0  0  0
    0.2420   11.6270   -1.7350 C   0  0  1  0  0  0  0  0  0  0  0  0
   -0.8350   10.7620   -2.4410 C   0  0  0  0  0  0  0  0  0  0  0  0
   -0.2520    9.5030   -3.0750 C   0  0  0  0  0  0  0  0  0  0  0  0
    0.4550    8.6430   -2.0300 C   0  0  2  0  0  0  0  0  0  0  0  0
   -0.5200    8.1360   -1.1150 O   0  0  0  0  0  0  0  0  0  0  0  0
    1.5560    9.4120   -1.2480 C   0  0  0  0  0  0  0  0  0  0  0  0
    2.7560    9.6990   -2.1840 C   0  0  0  0  0  0  0  0  0  0  0  0
    2.0910    8.4740   -0.1320 C   0  0  0  0  0  0  0  0  0  0  0  0
   -0.3440   12.9940   -1.1740 C   0  0  1  0  0  0  0  0  0  0  0  0
   -1.7510   12.7510   -0.5460 C   0  0  0  0  0  0  0  0  0  0  0  0
   -0.5600   13.9910   -2.3730 C   0  0  0  0  0  0  0  0  0  0  0  0
    0.6400   14.8730   -2.7670 C   0  0  0  0  0  0  0  0  0  0  0  0
    1.2460   15.5560   -1.5370 C   0  0  2  0  0  0  0  0  0  0  0  0
    0.1550   16.5020   -0.9300 C   0  0  0  0  0  0  0  0  0  0  0  0
    2.7094   18.5108   -0.4028 H   0  0  0  0  0  0  0  0  0  0  0  0
    3.9326   19.0327   -1.6104 H   0  0  0  0  0  0  0  0  0  0  0  0
    2.2968   19.7750   -1.6104 H   0  0  0  0  0  0  0  0  0  0  0  0
    2.9869   17.8295   -3.3131 H   0  0  0  0  0  0  0  0  0  0  0  0
    0.8569   18.0175   -3.9215 H   0  0  0  0  0  0  0  0  0  0  0  0
    0.3224   17.1461   -2.4057 H   0  0  0  0  0  0  0  0  0  0  0  0
    0.9940   19.7251   -1.5569 H   0  0  0  0  0  0  0  0  0  0  0  0
    0.0971   19.9501   -3.1162 H   0  0  0  0  0  0  0  0  0  0  0  0
   -1.1582   18.0834   -2.1407 H   0  0  0  0  0  0  0  0  0  0  0  0
   -0.4507   19.8703    1.7855 H   0  0  0  0  0  0  0  0  0  0  0  0
    0.7655   19.5618    0.5000 H   0  0  0  0  0  0  0  0  0  0  0  0
   -0.1726   21.0937    0.5000 H   0  0  0  0  0  0  0  0  0  0  0  0
   -2.2029   18.7581    1.6941 H   0  0  0  0  0  0  0  0  0  0  0  0
   -3.3304   19.0938    0.3366 H   0  0  0  0  0  0  0  0  0  0  0  0
   -2.3470   17.5906    0.3366 H   0  0  0  0  0  0  0  0  0  0  0  0
    3.1606   15.9062   -2.5307 H   0  0  0  0  0  0  0  0  0  0  0  0
    4.2453   16.3007   -0.4068 H   0  0  0  0  0  0  0  0  0  0  0  0
    2.9850   17.4406    0.1121 H   0  0  0  0  0  0  0  0  0  0  0  0
    3.2637   14.7460    1.0217 H   0  0  0  0  0  0  0  0  0  0  0  0
    1.8139   15.7200    1.2503 H   0  0  0  0  0  0  0  0  0  0  0  0
    3.4553   13.0620   -0.3354 H   0  0  0  0  0  0  0  0  0  0  0  0
    2.4260   12.7460   -1.7733 H   0  0  0  0  0  0  0  0  0  0  0  0
    3.5676   14.1329   -1.7733 H   0  0  0  0  0  0  0  0  0  0  0  0
   -0.0466   14.3743    0.4789 H   0  0  0  0  0  0  0  0  0  0  0  0
    1.7634   12.9372    1.6173 H   0  0  0  0  0  0  0  0  0  0  0  0
   -0.0075   12.4345    1.6429 H   0  0  0  0  0  0  0  0  0  0  0  0
    1.7440   10.5140    1.2167 H   0  0  0  0  0  0  0  0  0  0  0  0
    0.9846   11.9709   -2.4700 H   0  0  0  0  0  0  0  0  0  0  0  0
   -1.5909   10.4653   -1.6989 H   0  0  0  0  0  0  0  0  0  0  0  0
   -1.2743   11.3684   -3.2468 H   0  0  0  0  0  0  0  0  0  0  0  0
   -1.0656    8.9196   -3.5307 H   0  0  0  0  0  0  0  0  0  0  0  0
    0.4815    9.8017   -3.8384 H   0  0  0  0  0  0  0  0  0  0  0  0
    0.9622    7.8253   -2.5631 H   0  0  0  0  0  0  0  0  0  0  0  0
   -1.0950    7.5240   -1.6060 H   0  0  0  0  0  0  0  0  0  0  0  0
    3.6497    9.9127   -1.5794 H   0  0  0  0  0  0  0  0  0  0  0  0
    2.9442    8.8205   -2.8187 H   0  0  0  0  0  0  0  0  0  0  0  0
    2.5264   10.5676   -2.8187 H   0  0  0  0  0  0  0  0  0  0  0  0
    1.8481    8.8999    0.8527 H   0  0  0  0  0  0  0  0  0  0  0  0
    1.6218    7.4838   -0.2291 H   0  0  0  0  0  0  0  0  0  0  0  0
    3.1821    8.3738   -0.2291 H   0  0  0  0  0  0  0  0  0  0  0  0
   -1.6703   12.7649    0.5509 H   0  0  0  0  0  0  0  0  0  0  0  0
   -2.4403   13.5434   -0.8730 H   0  0  0  0  0  0  0  0  0  0  0  0
   -2.1346   11.7733   -0.8730 H   0  0  0  0  0  0  0  0  0  0  0  0
   -0.8393   13.3957   -3.2548 H   0  0  0  0  0  0  0  0  0  0  0  0
   -1.3329   14.6935   -2.0278 H   0  0  0  0  0  0  0  0  0  0  0  0
    1.4068   14.2450   -3.2442 H   0  0  0  0  0  0  0  0  0  0  0  0
    0.2906   15.6499   -3.4630 H   0  0  0  0  0  0  0  0  0  0  0  0
    0.2033   16.4602    0.1681 H   0  0  0  0  0  0  0  0  0  0  0  0
    0.3362   17.5337   -1.2659 H   0  0  0  0  0  0  0  0  0  0  0  0
   -0.8406   16.1765   -1.2659 H   0  0  0  0  0  0  0  0  0  0  0  0
  1  2  1  0
  2  3  1  0
  3  4  1  0
  4  5  1  0
  5  6  1  0
  6  7  1  0
  7  8  1  0
  7  9  1  0
  2 10  1  0
 10 11  1  0
 11 12  1  0
 12 13  1  0
 13 14  1  6
 13 15  1  0
 15 16  1  0
 16 17  1  0
 17 18  2  0
 18 19  1  0
 19 20  1  0
 20 21  1  0
 21 22  1  0
 22 23  1  0
 22 24  1  0
 24 25  1  0
 24 26  1  0
 19 27  1  0
 27 28  1  1
 27 29  1  0
 29 30  1  0
 30 31  1  0
 31 32  1  1
  7  5  1  0
 31 10  1  0
 31 13  1  0
 27 15  1  0
 24 18  1  0
  1 33  1  0
  1 34  1  0
  1 35  1  0
  2 36  1  6
  3 37  1  0
  3 38  1  0
  4 39  1  0
  4 40  1  0
  5 41  1  6
  8 42  1  0
  8 43  1  0
  8 44  1  0
  9 45  1  0
  9 46  1  0
  9 47  1  0
 10 48  1  6
 11 49  1  0
 11 50  1  0
 12 51  1  0
 12 52  1  0
 14 53  1  0
 14 54  1  0
 14 55  1  0
 15 56  1  1
 16 57  1  0
 16 58  1  0
 17 59  1  0
 19 60  1  6
 20 61  1  0
 20 62  1  0
 21 63  1  0
 21 64  1  0
 22 65  1  6
 23 66  1  0
 25 67  1  0
 25 68  1  0
 25 69  1  0
 26 70  1  0
 26 71  1  0
 26 72  1  0
 28 73  1  0
 28 74  1  0
 28 75  1  0
 29 76  1  0
 29 77  1  0
 30 78  1  0
 30 79  1  0
 32 80  1  0
 32 81  1  0
 32 82  1  0
M  END
>  <meeko>  (10) 
{"is_sidechain": [false], "intermolecular_energy": 2.731, "internal_energy": -0.839}

$$$$
EPH_relaxed_0001_pdb2pqr_Repair_94_r2_0001_out
     RDKit          3D

 82 86  0  0  0  0  0  0  0  0999 V2000
   -0.9060   16.3840   -5.8660 C   0  0  0  0  0  0  0  0  0  0  0  0
    0.1900   15.6830   -6.6740 C   0  0  2  0  0  0  0  0  0  0  0  0
   -0.2140   15.4840   -8.1490 C   0  0  0  0  0  0  0  0  0  0  0  0
    0.4270   16.4930   -9.1050 C   0  0  0  0  0  0  0  0  0  0  0  0
    1.8350   16.1130   -9.4490 C   0  0  2  0  0  0  0  0  0  0  0  0
    2.3270   16.6790  -10.6710 O   0  0  0  0  0  0  0  0  0  0  0  0
    2.2000   15.2480  -10.6420 C   0  0  0  0  0  0  0  0  0  0  0  0
    1.1530   14.7110  -11.5650 C   0  0  0  0  0  0  0  0  0  0  0  0
    3.5120   14.5280  -10.6280 C   0  0  0  0  0  0  0  0  0  0  0  0
    0.5250   14.3390   -6.0390 C   0  0  1  0  0  0  0  0  0  0  0  0
    1.7610   13.6630   -6.6900 C   0  0  0  0  0  0  0  0  0  0  0  0
    2.5080   12.9120   -5.5570 C   0  0  0  0  0  0  0  0  0  0  0  0
    1.5120   12.9020   -4.3740 C   0  0  1  0  0  0  0  0  0  0  0  0
    0.5360   11.7240   -4.6820 C   0  0  0  0  0  0  0  0  0  0  0  0
    2.1370   12.7750   -2.9460 C   0  0  2  0  0  0  0  0  0  0  0  0
    2.9090   11.4700   -2.6850 C   0  0  0  0  0  0  0  0  0  0  0  0
    2.0970   10.3510   -2.1220 C   0  0  0  0  0  0  0  0  0  0  0  0
    0.8740   10.4710   -1.5730 C   0  0  0  0  0  0  0  0  0  0  0  0
    0.2260   11.8490   -1.3880 C   0  0  1  0  0  0  0  0  0  0  0  0
   -0.3660   11.9550    0.0420 C   0  0  0  0  0  0  0  0  0  0  0  0
   -1.3230   10.8110    0.3650 C   0  0  0  0  0  0  0  0  0  0  0  0
   -0.6260    9.4610    0.2260 C   0  0  2  0  0  0  0  0  0  0  0  0
    0.3780    9.3540    1.2400 O   0  0  0  0  0  0  0  0  0  0  0  0
    0.0180    9.2440   -1.1720 C   0  0  0  0  0  0  0  0  0  0  0  0
   -1.0940    9.0590   -2.2340 C   0  0  0  0  0  0  0  0  0  0  0  0
    0.8070    7.9080   -1.1320 C   0  0  0  0  0  0  0  0  0  0  0  0
    1.1320   13.0980   -1.7680 C   0  0  1  0  0  0  0  0  0  0  0  0
    2.0010   13.5160   -0.5430 C   0  0  0  0  0  0  0  0  0  0  0  0
    0.2030   14.3270   -2.0930 C   0  0  0  0  0  0  0  0  0  0  0  0
   -0.2850   14.4630   -3.5480 C   0  0  0  0  0  0  0  0  0  0  0  0
    0.8820   14.3330   -4.5320 C   0  0  2  0  0  0  0  0  0  0  0  0
    1.8710   15.5180   -4.2610 C   0  0  0  0  0  0  0  0  0  0  0  0
   -0.7075   16.2570   -4.7915 H   0  0  0  0  0  0  0  0  0  0  0  0
   -0.9149   17.4559   -6.1131 H   0  0  0  0  0  0  0  0  0  0  0  0
   -1.8828   15.9426   -6.1131 H   0  0  0  0  0  0  0  0  0  0  0  0
    1.0783   16.3317   -6.6598 H   0  0  0  0  0  0  0  0  0  0  0  0
    0.0882   14.4725   -8.4582 H   0  0  0  0  0  0  0  0  0  0  0  0
   -1.3023   15.6335   -8.2068 H   0  0  0  0  0  0  0  0  0  0  0  0
   -0.1670   16.5350  -10.0299 H   0  0  0  0  0  0  0  0  0  0  0  0
    0.4485   17.4729   -8.6056 H   0  0  0  0  0  0  0  0  0  0  0  0
    2.1042   16.0536   -8.3841 H   0  0  0  0  0  0  0  0  0  0  0  0
    0.3268   14.2872  -10.9753 H   0  0  0  0  0  0  0  0  0  0  0  0
    0.7712   15.5246  -12.1993 H   0  0  0  0  0  0  0  0  0  0  0  0
    1.5909   13.9262  -12.1993 H   0  0  0  0  0  0  0  0  0  0  0  0
    3.8249   14.3563   -9.5875 H   0  0  0  0  0  0  0  0  0  0  0  0
    3.4056   13.5619  -11.1431 H   0  0  0  0  0  0  0  0  0  0  0  0
    4.2698   15.1366  -11.1431 H   0  0  0  0  0  0  0  0  0  0  0  0
   -0.4290   13.8159   -6.2008 H   0  0  0  0  0  0  0  0  0  0  0  0
    1.4396   12.9537   -7.4670 H   0  0  0  0  0  0  0  0  0  0  0  0
    2.4138   14.4088   -7.1671 H   0  0  0  0  0  0  0  0  0  0  0  0
    2.7530   11.8855   -5.8672 H   0  0  0  0  0  0  0  0  0  0  0  0
    3.4620   13.3932   -5.2955 H   0  0  0  0  0  0  0  0  0  0  0  0
    0.1761   11.2896   -3.7377 H   0  0  0  0  0  0  0  0  0  0  0  0
   -0.3196   12.0990   -5.2627 H   0  0  0  0  0  0  0  0  0  0  0  0
    1.0636   10.9530   -5.2627 H   0  0  0  0  0  0  0  0  0  0  0  0
    2.8935   13.5735   -2.9478 H   0  0  0  0  0  0  0  0  0  0  0  0
    3.3379   11.1319   -3.6399 H   0  0  0  0  0  0  0  0  0  0  0  0
    3.6652   11.7107   -1.9233 H   0  0  0  0  0  0  0  0  0  0  0  0
    2.5354    9.3428   -2.1590 H   0  0  0  0  0  0  0  0  0  0  0  0
   -0.5824   11.9073   -2.1317 H   0  0  0  0  0  0  0  0  0  0  0  0
    0.4603   11.9392    0.7679 H   0  0  0  0  0  0  0  0  0  0  0  0
   -0.9364   12.8938    0.0987 H   0  0  0  0  0  0  0  0  0  0  0  0
   -1.6845   10.9248    1.3976 H   0  0  0  0  0  0  0  0  0  0  0  0
   -2.1640   10.8464   -0.3432 H   0  0  0  0  0  0  0  0  0  0  0  0
   -1.3928    8.6809    0.3419 H   0  0  0  0  0  0  0  0  0  0  0  0
    1.2430    9.3320    0.7970 H   0  0  0  0  0  0  0  0  0  0  0  0
   -2.0588    8.8985   -1.7306 H   0  0  0  0  0  0  0  0  0  0  0  0
   -1.1539    9.9595   -2.8629 H   0  0  0  0  0  0  0  0  0  0  0  0
   -0.8591    8.1876   -2.8629 H   0  0  0  0  0  0  0  0  0  0  0  0
    0.9798    7.6154   -0.0858 H   0  0  0  0  0  0  0  0  0  0  0  0
    0.2268    7.1242   -1.6409 H   0  0  0  0  0  0  0  0  0  0  0  0
    1.7735    8.0376   -1.6409 H   0  0  0  0  0  0  0  0  0  0  0  0
    1.4710   13.2611    0.3866 H   0  0  0  0  0  0  0  0  0  0  0  0
    2.9619   12.9816   -0.5756 H   0  0  0  0  0  0  0  0  0  0  0  0
    2.1832   14.6003   -0.5756 H   0  0  0  0  0  0  0  0  0  0  0  0
   -0.6859   14.2516   -1.4495 H   0  0  0  0  0  0  0  0  0  0  0  0
    0.8272   15.2150   -1.9145 H   0  0  0  0  0  0  0  0  0  0  0  0
   -1.0210   13.6724   -3.7561 H   0  0  0  0  0  0  0  0  0  0  0  0
   -0.7409   15.4561   -3.6737 H   0  0  0  0  0  0  0  0  0  0  0  0
    1.9875   15.6576   -3.1761 H   0  0  0  0  0  0  0  0  0  0  0  0
    2.8494   15.2886   -4.7083 H   0  0  0  0  0  0  0  0  0  0  0  0
    1.4703   16.4396   -4.7083 H   0  0  0  0  0  0  0  0  0  0  0  0
  1  2  1  0
  2  3  1  0
  3  4  1  0
  4  5  1  0
  5  6  1  0
  6  7  1  0
  7  8  1  0
  7  9  1  0
  2 10  1  0
 10 11  1  0
 11 12  1  0
 12 13  1  0
 13 14  1  6
 13 15  1  0
 15 16  1  0
 16 17  1  0
 17 18  2  0
 18 19  1  0
 19 20  1  0
 20 21  1  0
 21 22  1  0
 22 23  1  0
 22 24  1  0
 24 25  1  0
 24 26  1  0
 19 27  1  0
 27 28  1  1
 27 29  1  0
 29 30  1  0
 30 31  1  0
 31 32  1  6
  7  5  1  0
 31 10  1  0
 31 13  1  0
 27 15  1  0
 24 18  1  0
  1 33  1  0
  1 34  1  0
  1 35  1  0
  2 36  1  6
  3 37  1  0
  3 38  1  0
  4 39  1  0
  4 40  1  0
  5 41  1  1
  8 42  1  0
  8 43  1  0
  8 44  1  0
  9 45  1  0
  9 46  1  0
  9 47  1  0
 10 48  1  1
 11 49  1  0
 11 50  1  0
 12 51  1  0
 12 52  1  0
 14 53  1  0
 14 54  1  0
 14 55  1  0
 15 56  1  6
 16 57  1  0
 16 58  1  0
 17 59  1  0
 19 60  1  6
 20 61  1  0
 20 62  1  0
 21 63  1  0
 21 64  1  0
 22 65  1  1
 23 66  1  0
 25 67  1  0
 25 68  1  0
 25 69  1  0
 26 70  1  0
 26 71  1  0
 26 72  1  0
 28 73  1  0
 28 74  1  0
 28 75  1  0
 29 76  1  0
 29 77  1  0
 30 78  1  0
 30 79  1  0
 32 80  1  0
 32 81  1  0
 32 82  1  0
M  END
>  <meeko>  (11) 
{"is_sidechain": [false], "intermolecular_energy": 2.731, "internal_energy": -0.839}

$$$$
EPH_relaxed_0001_pdb2pqr_Repair_94_r2_0001_out
     RDKit          3D

 82 86  0  0  0  0  0  0  0  0999 V2000
   -0.5370   18.7370   -2.3480 C   0  0  0  0  0  0  0  0  0  0  0  0
    0.5800   18.2320   -1.4320 C   0  0  2  0  0  0  0  0  0  0  0  0
    1.8270   19.1380   -1.4820 C   0  0  0  0  0  0  0  0  0  0  0  0
    2.1490   19.8180   -0.1490 C   0  0  0  0  0  0  0  0  0  0  0  0
    3.4720   19.3720    0.3960 C   0  0  2  0  0  0  0  0  0  0  0  0
    3.3990   18.2940    1.3390 O   0  0  0  0  0  0  0  0  0  0  0  0
    3.8820   19.5490    1.8460 C   0  0  0  0  0  0  0  0  0  0  0  0
    2.9700   20.1940    2.8420 C   0  0  0  0  0  0  0  0  0  0  0  0
    5.3410   19.5410    2.1830 C   0  0  0  0  0  0  0  0  0  0  0  0
    0.9580   16.8050   -1.8100 C   0  0  1  0  0  0  0  0  0  0  0  0
    2.4000   16.6970   -2.3720 C   0  0  0  0  0  0  0  0  0  0  0  0
    2.9660   15.3350   -1.8960 C   0  0  0  0  0  0  0  0  0  0  0  0
    1.7340   14.5660   -1.3640 C   0  0  1  0  0  0  0  0  0  0  0  0
    1.0480   13.9780   -2.6370 C   0  0  0  0  0  0  0  0  0  0  0  0
    2.0180   13.4580   -0.2980 C   0  0  2  0  0  0  0  0  0  0  0  0
    2.8970   12.2930   -0.7870 C   0  0  0  0  0  0  0  0  0  0  0  0
    2.1550   11.1390   -1.3780 C   0  0  0  0  0  0  0  0  0  0  0  0
    0.8340   10.9130   -1.2550 C   0  0  0  0  0  0  0  0  0  0  0  0
   -0.0420   11.8170   -0.3780 C   0  0  1  0  0  0  0  0  0  0  0  0
   -0.9610   10.9410    0.5120 C   0  0  0  0  0  0  0  0  0  0  0  0
   -1.7820    9.9430   -0.2990 C   0  0  0  0  0  0  0  0  0  0  0  0
   -0.8740    9.0240   -1.1130 C   0  0  2  0  0  0  0  0  0  0  0  0
   -0.1320    8.1950   -0.2130 O   0  0  0  0  0  0  0  0  0  0  0  0
    0.1050    9.7960   -2.0410 C   0  0  0  0  0  0  0  0  0  0  0  0
   -0.6850   10.4530   -3.2000 C   0  0  0  0  0  0  0  0  0  0  0  0
    1.0570    8.7600   -2.6970 C   0  0  0  0  0  0  0  0  0  0  0  0
    0.7270   12.9330    0.4520 C   0  0  1  0  0  0  0  0  0  0  0  0
    1.2110   12.3460    1.8130 C   0  0  0  0  0  0  0  0  0  0  0  0
   -0.2750   14.0960    0.8020 C   0  0  0  0  0  0  0  0  0  0  0  0
   -0.4230   15.2230   -0.2390 C   0  0  0  0  0  0  0  0  0  0  0  0
    0.9480   15.7440   -0.6810 C   0  0  2  0  0  0  0  0  0  0  0  0
    1.6530   16.3610    0.5740 C   0  0  0  0  0  0  0  0  0  0  0  0
   -1.3703   19.1137   -1.7367 H   0  0  0  0  0  0  0  0  0  0  0  0
   -0.1518   19.5485   -2.9829 H   0  0  0  0  0  0  0  0  0  0  0  0
   -0.8918   17.9117   -2.9829 H   0  0  0  0  0  0  0  0  0  0  0  0
    0.1969   18.2542   -0.4011 H   0  0  0  0  0  0  0  0  0  0  0  0
    2.6908   18.5235   -1.7757 H   0  0  0  0  0  0  0  0  0  0  0  0
    1.6139   19.9375   -2.2068 H   0  0  0  0  0  0  0  0  0  0  0  0
    2.1753   20.9070   -0.3017 H   0  0  0  0  0  0  0  0  0  0  0  0
    1.3688   19.5399    0.5749 H   0  0  0  0  0  0  0  0  0  0  0  0
    3.9737   19.6272   -0.5491 H   0  0  0  0  0  0  0  0  0  0  0  0
    3.3101   19.9535    3.8601 H   0  0  0  0  0  0  0  0  0  0  0  0
    2.9834   21.2846    2.6990 H   0  0  0  0  0  0  0  0  0  0  0  0
    1.9462   19.8180    2.6990 H   0  0  0  0  0  0  0  0  0  0  0  0
    5.4649   19.5403    3.2760 H   0  0  0  0  0  0  0  0  0  0  0  0
    5.8100   18.6403    1.7603 H   0  0  0  0  0  0  0  0  0  0  0  0
    5.8199   20.4365    1.7603 H   0  0  0  0  0  0  0  0  0  0  0  0
    0.1603   16.5899   -2.5362 H   0  0  0  0  0  0  0  0  0  0  0  0
    2.3818   16.7361   -3.4712 H   0  0  0  0  0  0  0  0  0  0  0  0
    3.0251   17.5296   -2.0170 H   0  0  0  0  0  0  0  0  0  0  0  0
    3.4303   14.7933   -2.7332 H   0  0  0  0  0  0  0  0  0  0  0  0
    3.7475   15.4521   -1.1308 H   0  0  0  0  0  0  0  0  0  0  0  0
    0.2447   13.2895   -2.3357 H   0  0  0  0  0  0  0  0  0  0  0  0
    0.6234   14.7970   -3.2361 H   0  0  0  0  0  0  0  0  0  0  0  0
    1.7924   13.4332   -3.2361 H   0  0  0  0  0  0  0  0  0  0  0  0
    2.6221   13.9966    0.4470 H   0  0  0  0  0  0  0  0  0  0  0  0
    3.5840   12.6834   -1.5523 H   0  0  0  0  0  0  0  0  0  0  0  0
    3.4081   11.9018    0.1050 H   0  0  0  0  0  0  0  0  0  0  0  0
    2.7377   10.4124   -1.9633 H   0  0  0  0  0  0  0  0  0  0  0  0
   -0.6526   12.4142   -1.0712 H   0  0  0  0  0  0  0  0  0  0  0  0
   -0.3350   10.3852    1.2256 H   0  0  0  0  0  0  0  0  0  0  0  0
   -1.6645   11.6115    1.0273 H   0  0  0  0  0  0  0  0  0  0  0  0
   -2.3887    9.3340    0.3873 H   0  0  0  0  0  0  0  0  0  0  0  0
   -2.4290   10.5011   -0.9918 H   0  0  0  0  0  0  0  0  0  0  0  0
   -1.5177    8.4204   -1.7697 H   0  0  0  0  0  0  0  0  0  0  0  0
   -0.0420    7.3200   -0.6270 H   0  0  0  0  0  0  0  0  0  0  0  0
   -1.4687   11.1047   -2.7864 H   0  0  0  0  0  0  0  0  0  0  0  0
    0.0006   11.0510   -3.8184 H   0  0  0  0  0  0  0  0  0  0  0  0
   -1.1480    9.6699   -3.8184 H   0  0  0  0  0  0  0  0  0  0  0  0
    1.5784    8.1926   -1.9120 H   0  0  0  0  0  0  0  0  0  0  0  0
    0.4723    8.0689   -3.3219 H   0  0  0  0  0  0  0  0  0  0  0  0
    1.7949    9.2844   -3.3219 H   0  0  0  0  0  0  0  0  0  0  0  0
    0.7489   12.9064    2.6391 H   0  0  0  0  0  0  0  0  0  0  0  0
    0.9198   11.2874    1.8800 H   0  0  0  0  0  0  0  0  0  0  0  0
    2.3057   12.4301    1.8800 H   0  0  0  0  0  0  0  0  0  0  0  0
   -1.2681   13.6465    0.9492 H   0  0  0  0  0  0  0  0  0  0  0  0
    0.1481   14.5817    1.6937 H   0  0  0  0  0  0  0  0  0  0  0  0
   -0.9603   14.8341   -1.1166 H   0  0  0  0  0  0  0  0  0  0  0  0
   -0.9827   16.0521    0.2186 H   0  0  0  0  0  0  0  0  0  0  0  0
    1.1927   15.9581    1.4882 H   0  0  0  0  0  0  0  0  0  0  0  0
    2.7223   16.1033    0.5576 H   0  0  0  0  0  0  0  0  0  0  0  0
    1.5393   17.4550    0.5576 H   0  0  0  0  0  0  0  0  0  0  0  0
  1  2  1  0
  2  3  1  0
  3  4  1  0
  4  5  1  0
  5  6  1  0
  6  7  1  0
  7  8  1  0
  7  9  1  0
  2 10  1  0
 10 11  1  0
 11 12  1  0
 12 13  1  0
 13 14  1  6
 13 15  1  0
 15 16  1  0
 16 17  1  0
 17 18  2  0
 18 19  1  0
 19 20  1  0
 20 21  1  0
 21 22  1  0
 22 23  1  0
 22 24  1  0
 24 25  1  0
 24 26  1  0
 19 27  1  0
 27 28  1  1
 27 29  1  0
 29 30  1  0
 30 31  1  0
 31 32  1  1
  7  5  1  0
 31 10  1  0
 31 13  1  0
 27 15  1  0
 24 18  1  0
  1 33  1  0
  1 34  1  0
  1 35  1  0
  2 36  1  1
  3 37  1  0
  3 38  1  0
  4 39  1  0
  4 40  1  0
  5 41  1  6
  8 42  1  0
  8 43  1  0
  8 44  1  0
  9 45  1  0
  9 46  1  0
  9 47  1  0
 10 48  1  6
 11 49  1  0
 11 50  1  0
 12 51  1  0
 12 52  1  0
 14 53  1  0
 14 54  1  0
 14 55  1  0
 15 56  1  1
 16 57  1  0
 16 58  1  0
 17 59  1  0
 19 60  1  6
 20 61  1  0
 20 62  1  0
 21 63  1  0
 21 64  1  0
 22 65  1  6
 23 66  1  0
 25 67  1  0
 25 68  1  0
 25 69  1  0
 26 70  1  0
 26 71  1  0
 26 72  1  0
 28 73  1  0
 28 74  1  0
 28 75  1  0
 29 76  1  0
 29 77  1  0
 30 78  1  0
 30 79  1  0
 32 80  1  0
 32 81  1  0
 32 82  1  0
M  END
>  <meeko>  (12) 
{"is_sidechain": [false], "intermolecular_energy": 2.731, "internal_energy": -0.839}

$$$$
EPH_relaxed_0001_pdb2pqr_Repair_94_r2_0001_out
     RDKit          3D

 82 86  0  0  0  0  0  0  0  0999 V2000
   -0.1720    9.3270   -2.2060 C   0  0  0  0  0  0  0  0  0  0  0  0
    0.9370   10.2780   -2.6640 C   0  0  2  0  0  0  0  0  0  0  0  0
    2.3120    9.5830   -2.7200 C   0  0  0  0  0  0  0  0  0  0  0  0
    3.2260   10.1140   -3.8270 C   0  0  0  0  0  0  0  0  0  0  0  0
    4.5770   10.4900   -3.2990 C   0  0  2  0  0  0  0  0  0  0  0  0
    5.0180   11.8040   -3.6630 O   0  0  0  0  0  0  0  0  0  0  0  0
    5.7900   10.7100   -4.1830 C   0  0  0  0  0  0  0  0  0  0  0  0
    5.7090   10.5600   -5.6700 C   0  0  0  0  0  0  0  0  0  0  0  0
    7.1520   10.5890   -3.5730 C   0  0  0  0  0  0  0  0  0  0  0  0
    1.0010   11.4860   -1.7360 C   0  0  1  0  0  0  0  0  0  0  0  0
    2.0780   11.3320   -0.6290 C   0  0  0  0  0  0  0  0  0  0  0  0
    2.6650   12.7450   -0.3770 C   0  0  0  0  0  0  0  0  0  0  0  0
    1.6900   13.7060   -1.0960 C   0  0  1  0  0  0  0  0  0  0  0  0
    0.4990   13.8860   -0.1030 C   0  0  0  0  0  0  0  0  0  0  0  0
    2.2810   15.0830   -1.5430 C   0  0  2  0  0  0  0  0  0  0  0  0
    2.7810   15.9810   -0.3980 C   0  0  0  0  0  0  0  0  0  0  0  0
    1.7650   16.9190    0.1660 C   0  0  0  0  0  0  0  0  0  0  0  0
    0.5910   17.2390   -0.4100 C   0  0  0  0  0  0  0  0  0  0  0  0
    0.2280   16.7130   -1.8050 C   0  0  1  0  0  0  0  0  0  0  0  0
   -0.3270   17.8750   -2.6690 C   0  0  0  0  0  0  0  0  0  0  0  0
   -1.4900   18.5990   -1.9980 C   0  0  0  0  0  0  0  0  0  0  0  0
   -1.0740   19.1590   -0.6400 C   0  0  2  0  0  0  0  0  0  0  0  0
   -0.1080   20.1940   -0.8440 O   0  0  0  0  0  0  0  0  0  0  0  0
   -0.4890   18.0800    0.3140 C   0  0  0  0  0  0  0  0  0  0  0  0
   -1.6190   17.1260    0.7750 C   0  0  0  0  0  0  0  0  0  0  0  0
    0.0210   18.7990    1.5920 C   0  0  0  0  0  0  0  0  0  0  0  0
    1.3630   15.8860   -2.5500 C   0  0  1  0  0  0  0  0  0  0  0  0
    2.3010   16.8560   -3.3320 C   0  0  0  0  0  0  0  0  0  0  0  0
    0.6940   14.9510   -3.6270 C   0  0  0  0  0  0  0  0  0  0  0  0
    0.2390   13.5590   -3.1500 C   0  0  0  0  0  0  0  0  0  0  0  0
    1.3550   12.8530   -2.3730 C   0  0  2  0  0  0  0  0  0  0  0  0
    2.5580   12.6390   -3.3530 C   0  0  0  0  0  0  0  0  0  0  0  0
   -0.2021    9.3012   -1.1067 H   0  0  0  0  0  0  0  0  0  0  0  0
   -1.1400    9.6801   -2.5911 H   0  0  0  0  0  0  0  0  0  0  0  0
    0.0293    8.3165   -2.5911 H   0  0  0  0  0  0  0  0  0  0  0  0
    0.6915   10.6056   -3.6850 H   0  0  0  0  0  0  0  0  0  0  0  0
    2.8155    9.7311   -1.7533 H   0  0  0  0  0  0  0  0  0  0  0  0
    2.1264    8.5210   -2.9386 H   0  0  0  0  0  0  0  0  0  0  0  0
    3.3474    9.3343   -4.5934 H   0  0  0  0  0  0  0  0  0  0  0  0
    2.7611   11.0160   -4.2516 H   0  0  0  0  0  0  0  0  0  0  0  0
    4.4213    9.8764   -2.3994 H   0  0  0  0  0  0  0  0  0  0  0  0
    5.1996    9.6167   -5.9162 H   0  0  0  0  0  0  0  0  0  0  0  0
    5.1437   11.4033   -6.0933 H   0  0  0  0  0  0  0  0  0  0  0  0
    6.7242   10.5498   -6.0933 H   0  0  0  0  0  0  0  0  0  0  0  0
    7.0647   10.5968   -2.4765 H   0  0  0  0  0  0  0  0  0  0  0  0
    7.6165    9.6461   -3.8972 H   0  0  0  0  0  0  0  0  0  0  0  0
    7.7755   11.4353   -3.8972 H   0  0  0  0  0  0  0  0  0  0  0  0
   -0.0377   11.4967   -1.3742 H   0  0  0  0  0  0  0  0  0  0  0  0
    1.6212   10.9416    0.2924 H   0  0  0  0  0  0  0  0  0  0  0  0
    2.8639   10.6269   -0.9376 H   0  0  0  0  0  0  0  0  0  0  0  0
    2.7020   12.9637    0.7004 H   0  0  0  0  0  0  0  0  0  0  0  0
    3.6957   12.8411   -0.7489 H   0  0  0  0  0  0  0  0  0  0  0  0
    0.8715   13.8297    0.9305 H   0  0  0  0  0  0  0  0  0  0  0  0
    0.0273   14.8656   -0.2699 H   0  0  0  0  0  0  0  0  0  0  0  0
   -0.2411   13.0895   -0.2699 H   0  0  0  0  0  0  0  0  0  0  0  0
    3.1802   14.7838   -2.1014 H   0  0  0  0  0  0  0  0  0  0  0  0
    3.1319   15.3300    0.4163 H   0  0  0  0  0  0  0  0  0  0  0  0
    3.5723   16.6120   -0.8289 H   0  0  0  0  0  0  0  0  0  0  0  0
    1.9954   17.3881    1.1339 H   0  0  0  0  0  0  0  0  0  0  0  0
   -0.5557   15.9567   -1.6507 H   0  0  0  0  0  0  0  0  0  0  0  0
    0.4820   18.5983   -2.8488 H   0  0  0  0  0  0  0  0  0  0  0  0
   -0.7004   17.4432   -3.6093 H   0  0  0  0  0  0  0  0  0  0  0  0
   -1.8190   19.4269   -2.6433 H   0  0  0  0  0  0  0  0  0  0  0  0
   -2.3093   17.8810   -1.8455 H   0  0  0  0  0  0  0  0  0  0  0  0
   -1.9795   19.5510   -0.1537 H   0  0  0  0  0  0  0  0  0  0  0  0
   -0.5810   20.9770   -1.1740 H   0  0  0  0  0  0  0  0  0  0  0  0
   -1.6506   17.0993    1.8742 H   0  0  0  0  0  0  0  0  0  0  0  0
   -2.5838   17.4869    0.3891 H   0  0  0  0  0  0  0  0  0  0  0  0
   -1.4250   16.1144    0.3891 H   0  0  0  0  0  0  0  0  0  0  0  0
   -0.3525   18.2725    2.4827 H   0  0  0  0  0  0  0  0  0  0  0  0
    1.1210   18.7973    1.5994 H   0  0  0  0  0  0  0  0  0  0  0  0
   -0.3442   19.8366    1.5994 H   0  0  0  0  0  0  0  0  0  0  0  0
    2.8830   17.4579   -2.6186 H   0  0  0  0  0  0  0  0  0  0  0  0
    2.9864   16.2728   -3.9645 H   0  0  0  0  0  0  0  0  0  0  0  0
    1.6951   17.5215   -3.9645 H   0  0  0  0  0  0  0  0  0  0  0  0
   -0.1906   15.4743   -4.0189 H   0  0  0  0  0  0  0  0  0  0  0  0
    1.4815   14.7579   -4.3703 H   0  0  0  0  0  0  0  0  0  0  0  0
   -0.6386   13.6718   -2.4964 H   0  0  0  0  0  0  0  0  0  0  0  0
   -0.0127   12.9514   -4.0317 H   0  0  0  0  0  0  0  0  0  0  0  0
    3.4785   12.4753   -2.7734 H   0  0  0  0  0  0  0  0  0  0  0  0
    2.3629   11.7615   -3.9869 H   0  0  0  0  0  0  0  0  0  0  0  0
    2.6775   13.5300   -3.9869 H   0  0  0  0  0  0  0  0  0  0  0  0
  1  2  1  0
  2  3  1  0
  3  4  1  0
  4  5  1  0
  5  6  1  0
  6  7  1  0
  7  8  1  0
  7  9  1  0
  2 10  1  0
 10 11  1  0
 11 12  1  0
 12 13  1  0
 13 14  1  1
 13 15  1  0
 15 16  1  0
 16 17  1  0
 17 18  2  0
 18 19  1  0
 19 20  1  0
 20 21  1  0
 21 22  1  0
 22 23  1  0
 22 24  1  0
 24 25  1  0
 24 26  1  0
 19 27  1  0
 27 28  1  6
 27 29  1  0
 29 30  1  0
 30 31  1  0
 31 32  1  6
  7  5  1  0
 31 10  1  0
 31 13  1  0
 27 15  1  0
 24 18  1  0
  1 33  1  0
  1 34  1  0
  1 35  1  0
  2 36  1  6
  3 37  1  0
  3 38  1  0
  4 39  1  0
  4 40  1  0
  5 41  1  1
  8 42  1  0
  8 43  1  0
  8 44  1  0
  9 45  1  0
  9 46  1  0
  9 47  1  0
 10 48  1  1
 11 49  1  0
 11 50  1  0
 12 51  1  0
 12 52  1  0
 14 53  1  0
 14 54  1  0
 14 55  1  0
 15 56  1  6
 16 57  1  0
 16 58  1  0
 17 59  1  0
 19 60  1  1
 20 61  1  0
 20 62  1  0
 21 63  1  0
 21 64  1  0
 22 65  1  1
 23 66  1  0
 25 67  1  0
 25 68  1  0
 25 69  1  0
 26 70  1  0
 26 71  1  0
 26 72  1  0
 28 73  1  0
 28 74  1  0
 28 75  1  0
 29 76  1  0
 29 77  1  0
 30 78  1  0
 30 79  1  0
 32 80  1  0
 32 81  1  0
 32 82  1  0
M  END
>  <meeko>  (13) 
{"is_sidechain": [false], "intermolecular_energy": 2.731, "internal_energy": -0.839}

$$$$
EPH_relaxed_0001_pdb2pqr_Repair_94_r2_0001_out
     RDKit          3D

 82 86  0  0  0  0  0  0  0  0999 V2000
    2.8580   11.3880   -5.3960 C   0  0  0  0  0  0  0  0  0  0  0  0
    1.8650   11.0780   -4.2720 C   0  0  2  0  0  0  0  0  0  0  0  0
    0.7480   10.1200   -4.7320 C   0  0  0  0  0  0  0  0  0  0  0  0
   -0.3210    9.8640   -3.6660 C   0  0  0  0  0  0  0  0  0  0  0  0
    0.2210    9.0690   -2.5170 C   0  0  2  0  0  0  0  0  0  0  0  0
   -0.6070    7.9760   -2.1020 O   0  0  0  0  0  0  0  0  0  0  0  0
   -0.4260    9.0330   -1.1460 C   0  0  0  0  0  0  0  0  0  0  0  0
   -1.6730    9.8060   -0.8510 C   0  0  0  0  0  0  0  0  0  0  0  0
    0.4130    8.6430    0.0310 C   0  0  0  0  0  0  0  0  0  0  0  0
    1.2570   12.3730   -3.7450 C   0  0  1  0  0  0  0  0  0  0  0  0
   -0.2830   12.2840   -3.5760 C   0  0  0  0  0  0  0  0  0  0  0  0
   -0.6470   13.1340   -2.3320 C   0  0  0  0  0  0  0  0  0  0  0  0
    0.6340   13.9450   -2.0260 C   0  0  1  0  0  0  0  0  0  0  0  0
    0.5930   15.1500   -3.0170 C   0  0  0  0  0  0  0  0  0  0  0  0
    0.8140   14.4200   -0.5470 C   0  0  2  0  0  0  0  0  0  0  0  0
   -0.2680   15.3880   -0.0360 C   0  0  0  0  0  0  0  0  0  0  0  0
    0.0240   16.8370   -0.2420 C   0  0  0  0  0  0  0  0  0  0  0  0
    1.2260   17.3560   -0.5520 C   0  0  0  0  0  0  0  0  0  0  0  0
    2.4730   16.4650   -0.6310 C   0  0  1  0  0  0  0  0  0  0  0  0
    3.6420   17.1430    0.1300 C   0  0  0  0  0  0  0  0  0  0  0  0
    3.9100   18.5650   -0.3540 C   0  0  0  0  0  0  0  0  0  0  0  0
    2.6650   19.4350   -0.2060 C   0  0  2  0  0  0  0  0  0  0  0  0
    2.3830   19.6030    1.1870 O   0  0  0  0  0  0  0  0  0  0  0  0
    1.4180   18.8480   -0.9240 C   0  0  0  0  0  0  0  0  0  0  0  0
    1.6070   18.9460   -2.4580 C   0  0  0  0  0  0  0  0  0  0  0  0
    0.2000   19.7470   -0.5790 C   0  0  0  0  0  0  0  0  0  0  0  0
    2.2670   14.9470   -0.2080 C   0  0  1  0  0  0  0  0  0  0  0  0
    2.4480   14.7950    1.3330 C   0  0  0  0  0  0  0  0  0  0  0  0
    3.3920   14.0710   -0.8760 C   0  0  0  0  0  0  0  0  0  0  0  0
    3.1060   13.5310   -2.2900 C   0  0  0  0  0  0  0  0  0  0  0  0
    1.7280   12.8640   -2.3530 C   0  0  2  0  0  0  0  0  0  0  0  0
    1.7470   11.6350   -1.3820 C   0  0  0  0  0  0  0  0  0  0  0  0
    3.8223   11.6890   -4.9607 H   0  0  0  0  0  0  0  0  0  0  0  0
    3.0001   10.4915   -6.0173 H   0  0  0  0  0  0  0  0  0  0  0  0
    2.4648   12.2061   -6.0173 H   0  0  0  0  0  0  0  0  0  0  0  0
    2.4212   10.5739   -3.4679 H   0  0  0  0  0  0  0  0  0  0  0  0
    0.2595   10.5553   -5.6162 H   0  0  0  0  0  0  0  0  0  0  0  0
    1.2237    9.1522   -4.9491 H   0  0  0  0  0  0  0  0  0  0  0  0
   -0.6875   10.8304   -3.2894 H   0  0  0  0  0  0  0  0  0  0  0  0
   -1.1351    9.2867   -4.1286 H   0  0  0  0  0  0  0  0  0  0  0  0
    1.2545    9.2628   -2.8401 H   0  0  0  0  0  0  0  0  0  0  0  0
   -1.8048    9.8877    0.2380 H   0  0  0  0  0  0  0  0  0  0  0  0
   -1.5922   10.8126   -1.2871 H   0  0  0  0  0  0  0  0  0  0  0  0
   -2.5386    9.2859   -1.2871 H   0  0  0  0  0  0  0  0  0  0  0  0
   -0.1209    8.8912    0.9602 H   0  0  0  0  0  0  0  0  0  0  0  0
    0.6096    7.5612   -0.0012 H   0  0  0  0  0  0  0  0  0  0  0  0
    1.3668    9.1901   -0.0012 H   0  0  0  0  0  0  0  0  0  0  0  0
    1.5986   13.0688   -4.5255 H   0  0  0  0  0  0  0  0  0  0  0  0
   -0.7857   12.6846   -4.4686 H   0  0  0  0  0  0  0  0  0  0  0  0
   -0.6064   11.2403   -3.4492 H   0  0  0  0  0  0  0  0  0  0  0  0
   -1.4888   13.8065   -2.5538 H   0  0  0  0  0  0  0  0  0  0  0  0
   -0.9617   12.5135   -1.4800 H   0  0  0  0  0  0  0  0  0  0  0  0
    0.5610   16.0912   -2.4486 H   0  0  0  0  0  0  0  0  0  0  0  0
    1.4922   15.1346   -3.6504 H   0  0  0  0  0  0  0  0  0  0  0  0
   -0.3031   15.0735   -3.6504 H   0  0  0  0  0  0  0  0  0  0  0  0
    0.6721   13.4875    0.0190 H   0  0  0  0  0  0  0  0  0  0  0  0
   -1.2077   15.1532   -0.5574 H   0  0  0  0  0  0  0  0  0  0  0  0
   -0.3192   15.2398    1.0528 H   0  0  0  0  0  0  0  0  0  0  0  0
   -0.8145   17.5403   -0.1310 H   0  0  0  0  0  0  0  0  0  0  0  0
    2.7220   16.3823   -1.6992 H   0  0  0  0  0  0  0  0  0  0  0  0
    3.3931   17.1763    1.2009 H   0  0  0  0  0  0  0  0  0  0  0  0
    4.5497   16.5505   -0.0570 H   0  0  0  0  0  0  0  0  0  0  0  0
    4.7262   19.0002    0.2414 H   0  0  0  0  0  0  0  0  0  0  0  0
    4.1878   18.5274   -1.4177 H   0  0  0  0  0  0  0  0  0  0  0  0
    2.8785   20.4006   -0.6878 H   0  0  0  0  0  0  0  0  0  0  0  0
    2.5300   18.7460    1.6230 H   0  0  0  0  0  0  0  0  0  0  0  0
    2.5637   19.4421   -2.6786 H   0  0  0  0  0  0  0  0  0  0  0  0
    1.6092   17.9354   -2.8925 H   0  0  0  0  0  0  0  0  0  0  0  0
    0.7823   19.5301   -2.8925 H   0  0  0  0  0  0  0  0  0  0  0  0
    0.0978   19.8225    0.5136 H   0  0  0  0  0  0  0  0  0  0  0  0
    0.3530   20.7504   -1.0031 H   0  0  0  0  0  0  0  0  0  0  0  0
   -0.7137   19.3051   -1.0031 H   0  0  0  0  0  0  0  0  0  0  0  0
    1.7056   15.4185    1.8527 H   0  0  0  0  0  0  0  0  0  0  0  0
    2.3055   13.7418    1.6168 H   0  0  0  0  0  0  0  0  0  0  0  0
    3.4607   15.1174    1.6168 H   0  0  0  0  0  0  0  0  0  0  0  0
    4.3024   14.6858   -0.9327 H   0  0  0  0  0  0  0  0  0  0  0  0
    3.4767   13.1780   -0.2393 H   0  0  0  0  0  0  0  0  0  0  0  0
    3.1354   14.3650   -3.0066 H   0  0  0  0  0  0  0  0  0  0  0  0
    3.8708   12.7813   -2.5409 H   0  0  0  0  0  0  0  0  0  0  0  0
    1.7415   11.9901   -0.3409 H   0  0  0  0  0  0  0  0  0  0  0  0
    0.8584   11.0120   -1.5616 H   0  0  0  0  0  0  0  0  0  0  0  0
    2.6545   11.0398   -1.5616 H   0  0  0  0  0  0  0  0  0  0  0  0
  1  2  1  0
  2  3  1  0
  3  4  1  0
  4  5  1  0
  5  6  1  0
  6  7  1  0
  7  8  1  0
  7  9  1  0
  2 10  1  0
 10 11  1  0
 11 12  1  0
 12 13  1  0
 13 14  1  6
 13 15  1  0
 15 16  1  0
 16 17  1  0
 17 18  2  0
 18 19  1  0
 19 20  1  0
 20 21  1  0
 21 22  1  0
 22 23  1  0
 22 24  1  0
 24 25  1  0
 24 26  1  0
 19 27  1  0
 27 28  1  1
 27 29  1  0
 29 30  1  0
 30 31  1  0
 31 32  1  1
  7  5  1  0
 31 10  1  0
 31 13  1  0
 27 15  1  0
 24 18  1  0
  1 33  1  0
  1 34  1  0
  1 35  1  0
  2 36  1  1
  3 37  1  0
  3 38  1  0
  4 39  1  0
  4 40  1  0
  5 41  1  1
  8 42  1  0
  8 43  1  0
  8 44  1  0
  9 45  1  0
  9 46  1  0
  9 47  1  0
 10 48  1  6
 11 49  1  0
 11 50  1  0
 12 51  1  0
 12 52  1  0
 14 53  1  0
 14 54  1  0
 14 55  1  0
 15 56  1  1
 16 57  1  0
 16 58  1  0
 17 59  1  0
 19 60  1  6
 20 61  1  0
 20 62  1  0
 21 63  1  0
 21 64  1  0
 22 65  1  6
 23 66  1  0
 25 67  1  0
 25 68  1  0
 25 69  1  0
 26 70  1  0
 26 71  1  0
 26 72  1  0
 28 73  1  0
 28 74  1  0
 28 75  1  0
 29 76  1  0
 29 77  1  0
 30 78  1  0
 30 79  1  0
 32 80  1  0
 32 81  1  0
 32 82  1  0
M  END
>  <meeko>  (14) 
{"is_sidechain": [false], "intermolecular_energy": 2.731, "internal_energy": -0.839}

$$$$
EPH_relaxed_0001_pdb2pqr_Repair_94_r2_0001_out
     RDKit          3D

 82 86  0  0  0  0  0  0  0  0999 V2000
   -2.3100    9.7450   -0.2540 C   0  0  0  0  0  0  0  0  0  0  0  0
   -1.6080   10.5430   -1.3570 C   0  0  2  0  0  0  0  0  0  0  0  0
   -0.6100    9.6790   -2.1530 C   0  0  0  0  0  0  0  0  0  0  0  0
    0.7920    9.6330   -1.5390 C   0  0  0  0  0  0  0  0  0  0  0  0
    1.8460   10.0200   -2.5320 C   0  0  2  0  0  0  0  0  0  0  0  0
    2.9950    9.1630   -2.5490 O   0  0  0  0  0  0  0  0  0  0  0  0
    3.2230   10.5210   -2.1390 C   0  0  0  0  0  0  0  0  0  0  0  0
    3.6200   10.6650   -0.7030 C   0  0  0  0  0  0  0  0  0  0  0  0
    4.0000   11.3280   -3.1310 C   0  0  0  0  0  0  0  0  0  0  0  0
   -0.8900   11.7440   -0.7520 C   0  0  1  0  0  0  0  0  0  0  0  0
    0.2760   11.3330    0.1850 C   0  0  0  0  0  0  0  0  0  0  0  0
    1.3850   12.4040    0.0150 C   0  0  0  0  0  0  0  0  0  0  0  0
    0.6980   13.5590   -0.7500 C   0  0  1  0  0  0  0  0  0  0  0  0
   -0.0800   14.3570    0.3430 C   0  0  0  0  0  0  0  0  0  0  0  0
    1.6360   14.4890   -1.5850 C   0  0  2  0  0  0  0  0  0  0  0  0
    2.6810   15.2670   -0.7660 C   0  0  0  0  0  0  0  0  0  0  0  0
    2.2420   16.6110   -0.2860 C   0  0  0  0  0  0  0  0  0  0  0  0
    1.1720   17.2920   -0.7360 C   0  0  0  0  0  0  0  0  0  0  0  0
    0.3300   16.7550   -1.9020 C   0  0  1  0  0  0  0  0  0  0  0  0
    0.0620   17.8980   -2.9160 C   0  0  0  0  0  0  0  0  0  0  0  0
   -0.5640   19.1260   -2.2610 C   0  0  0  0  0  0  0  0  0  0  0  0
    0.3300   19.6650   -1.1470 C   0  0  2  0  0  0  0  0  0  0  0  0
    1.5350   20.1720   -1.7270 O   0  0  0  0  0  0  0  0  0  0  0  0
    0.6760   18.5990   -0.0700 C   0  0  0  0  0  0  0  0  0  0  0  0
   -0.5870   18.2700    0.7630 C   0  0  0  0  0  0  0  0  0  0  0  0
    1.6950   19.2310    0.9170 C   0  0  0  0  0  0  0  0  0  0  0  0
    0.8750   15.4360   -2.6000 C   0  0  1  0  0  0  0  0  0  0  0  0
    1.8990   15.8070   -3.7160 C   0  0  0  0  0  0  0  0  0  0  0  0
   -0.3200   14.7040   -3.3190 C   0  0  0  0  0  0  0  0  0  0  0  0
   -1.1350   13.7080   -2.4730 C   0  0  0  0  0  0  0  0  0  0  0  0
   -0.2130   12.7350   -1.7320 C   0  0  2  0  0  0  0  0  0  0  0  0
    0.5670   11.9020   -2.8060 C   0  0  0  0  0  0  0  0  0  0  0  0
   -1.9848   10.1147    0.7296 H   0  0  0  0  0  0  0  0  0  0  0  0
   -3.3990    9.8668   -0.3498 H   0  0  0  0  0  0  0  0  0  0  0  0
   -2.0503    8.6804   -0.3498 H   0  0  0  0  0  0  0  0  0  0  0  0
   -2.3809   10.8868   -2.0602 H   0  0  0  0  0  0  0  0  0  0  0  0
   -1.0015    8.6522   -2.2015 H   0  0  0  0  0  0  0  0  0  0  0  0
   -0.5100   10.1380   -3.1476 H   0  0  0  0  0  0  0  0  0  0  0  0
    0.8314   10.3290   -0.6881 H   0  0  0  0  0  0  0  0  0  0  0  0
    0.9900    8.6009   -1.2141 H   0  0  0  0  0  0  0  0  0  0  0  0
    1.0853   10.4176   -3.2199 H   0  0  0  0  0  0  0  0  0  0  0  0
    2.7819   10.3610   -0.0586 H   0  0  0  0  0  0  0  0  0  0  0  0
    4.4912   10.0256   -0.4975 H   0  0  0  0  0  0  0  0  0  0  0  0
    3.8787   11.7142   -0.4975 H   0  0  0  0  0  0  0  0  0  0  0  0
    4.6673   12.0210   -2.5976 H   0  0  0  0  0  0  0  0  0  0  0  0
    4.5990   10.6552   -3.7623 H   0  0  0  0  0  0  0  0  0  0  0  0
    3.3050   11.9011   -3.7623 H   0  0  0  0  0  0  0  0  0  0  0  0
   -1.7379   12.2323   -0.2494 H   0  0  0  0  0  0  0  0  0  0  0  0
   -0.0684   11.3068    1.2293 H   0  0  0  0  0  0  0  0  0  0  0  0
    0.6522   10.3309   -0.0686 H   0  0  0  0  0  0  0  0  0  0  0  0
    1.7460   12.7482    0.9954 H   0  0  0  0  0  0  0  0  0  0  0  0
    2.2633   12.0137   -0.5200 H   0  0  0  0  0  0  0  0  0  0  0  0
    0.2442   14.0245    1.3402 H   0  0  0  0  0  0  0  0  0  0  0  0
    0.1269   15.4314    0.2295 H   0  0  0  0  0  0  0  0  0  0  0  0
   -1.1593   14.1774    0.2295 H   0  0  0  0  0  0  0  0  0  0  0  0
    2.2061   13.7674   -2.1885 H   0  0  0  0  0  0  0  0  0  0  0  0
    2.9437   14.6609    0.1135 H   0  0  0  0  0  0  0  0  0  0  0  0
    3.5275   15.4474   -1.4449 H   0  0  0  0  0  0  0  0  0  0  0  0
    2.8446   17.0850    0.5028 H   0  0  0  0  0  0  0  0  0  0  0  0
   -0.6194   16.4164   -1.4615 H   0  0  0  0  0  0  0  0  0  0  0  0
    1.0167   18.1920   -3.3765 H   0  0  0  0  0  0  0  0  0  0  0  0
   -0.6492   17.5200   -3.6652 H   0  0  0  0  0  0  0  0  0  0  0  0
   -0.7028   19.9084   -3.0216 H   0  0  0  0  0  0  0  0  0  0  0  0
   -1.5320   18.8370   -1.8258 H   0  0  0  0  0  0  0  0  0  0  0  0
   -0.2279   20.4612   -0.6324 H   0  0  0  0  0  0  0  0  0  0  0  0
    2.2520   19.5540   -1.5040 H   0  0  0  0  0  0  0  0  0  0  0  0
   -0.3462   18.3327    1.8345 H   0  0  0  0  0  0  0  0  0  0  0  0
   -1.3825   18.9909    0.5232 H   0  0  0  0  0  0  0  0  0  0  0  0
   -0.9297   17.2526    0.5232 H   0  0  0  0  0  0  0  0  0  0  0  0
    1.3755   19.0328    1.9507 H   0  0  0  0  0  0  0  0  0  0  0  0
    2.6890   18.7906    0.7497 H   0  0  0  0  0  0  0  0  0  0  0  0
    1.7423   20.3172    0.7497 H   0  0  0  0  0  0  0  0  0  0  0  0
    2.8376   16.1471   -3.2541 H   0  0  0  0  0  0  0  0  0  0  0  0
    2.0968   14.9234   -4.3406 H   0  0  0  0  0  0  0  0  0  0  0  0
    1.4849   16.6123   -4.3406 H   0  0  0  0  0  0  0  0  0  0  0  0
   -1.0132   15.4769   -3.6825 H   0  0  0  0  0  0  0  0  0  0  0  0
    0.1478   14.0961   -4.1075 H   0  0  0  0  0  0  0  0  0  0  0  0
   -1.7343   14.2659   -1.7384 H   0  0  0  0  0  0  0  0  0  0  0  0
   -1.7880   13.1304   -3.1438 H   0  0  0  0  0  0  0  0  0  0  0  0
    1.2353   11.1883   -2.3021 H   0  0  0  0  0  0  0  0  0  0  0  0
   -0.1490   11.3526   -3.4349 H   0  0  0  0  0  0  0  0  0  0  0  0
    1.1622   12.5804   -3.4349 H   0  0  0  0  0  0  0  0  0  0  0  0
  1  2  1  0
  2  3  1  0
  3  4  1  0
  4  5  1  0
  5  6  1  0
  6  7  1  0
  7  8  1  0
  7  9  1  0
  2 10  1  0
 10 11  1  0
 11 12  1  0
 12 13  1  0
 13 14  1  1
 13 15  1  0
 15 16  1  0
 16 17  1  0
 17 18  2  0
 18 19  1  0
 19 20  1  0
 20 21  1  0
 21 22  1  0
 22 23  1  0
 22 24  1  0
 24 25  1  0
 24 26  1  0
 19 27  1  0
 27 28  1  6
 27 29  1  0
 29 30  1  0
 30 31  1  0
 31 32  1  6
  7  5  1  0
 31 10  1  0
 31 13  1  0
 27 15  1  0
 24 18  1  0
  1 33  1  0
  1 34  1  0
  1 35  1  0
  2 36  1  6
  3 37  1  0
  3 38  1  0
  4 39  1  0
  4 40  1  0
  5 41  1  6
  8 42  1  0
  8 43  1  0
  8 44  1  0
  9 45  1  0
  9 46  1  0
  9 47  1  0
 10 48  1  1
 11 49  1  0
 11 50  1  0
 12 51  1  0
 12 52  1  0
 14 53  1  0
 14 54  1  0
 14 55  1  0
 15 56  1  6
 16 57  1  0
 16 58  1  0
 17 59  1  0
 19 60  1  1
 20 61  1  0
 20 62  1  0
 21 63  1  0
 21 64  1  0
 22 65  1  1
 23 66  1  0
 25 67  1  0
 25 68  1  0
 25 69  1  0
 26 70  1  0
 26 71  1  0
 26 72  1  0
 28 73  1  0
 28 74  1  0
 28 75  1  0
 29 76  1  0
 29 77  1  0
 30 78  1  0
 30 79  1  0
 32 80  1  0
 32 81  1  0
 32 82  1  0
M  END
>  <meeko>  (15) 
{"is_sidechain": [false], "intermolecular_energy": 2.731, "internal_energy": -0.839}

$$$$
EPH_relaxed_0001_pdb2pqr_Repair_94_r2_0001_out
     RDKit          3D

 82 86  0  0  0  0  0  0  0  0999 V2000
   -0.1170    9.2940   -4.0480 C   0  0  0  0  0  0  0  0  0  0  0  0
   -0.0870    9.5050   -2.5320 C   0  0  2  0  0  0  0  0  0  0  0  0
   -1.0050    8.5140   -1.7890 C   0  0  0  0  0  0  0  0  0  0  0  0
   -1.7760    7.5730   -2.7190 C   0  0  0  0  0  0  0  0  0  0  0  0
   -3.2400    7.8940   -2.7440 C   0  0  2  0  0  0  0  0  0  0  0  0
   -3.9600    7.4950   -1.5700 O   0  0  0  0  0  0  0  0  0  0  0  0
   -4.3270    6.8370   -2.7930 C   0  0  0  0  0  0  0  0  0  0  0  0
   -3.9960    5.3780   -2.8220 C   0  0  0  0  0  0  0  0  0  0  0  0
   -5.6790    7.2250   -3.3040 C   0  0  0  0  0  0  0  0  0  0  0  0
   -0.4880   10.9380   -2.1990 C   0  0  1  0  0  0  0  0  0  0  0  0
   -1.7100   11.0090   -1.2450 C   0  0  0  0  0  0  0  0  0  0  0  0
   -1.4890   12.2390   -0.3270 C   0  0  0  0  0  0  0  0  0  0  0  0
   -0.3320   13.0190   -0.9920 C   0  0  1  0  0  0  0  0  0  0  0  0
   -1.0060   13.8380   -2.1370 C   0  0  0  0  0  0  0  0  0  0  0  0
    0.5150   13.9360   -0.0500 C   0  0  2  0  0  0  0  0  0  0  0  0
   -0.2630   15.0850    0.6150 C   0  0  0  0  0  0  0  0  0  0  0  0
   -0.2830   16.3670   -0.1500 C   0  0  0  0  0  0  0  0  0  0  0  0
    0.5290   16.6780   -1.1770 C   0  0  0  0  0  0  0  0  0  0  0  0
    1.6570   15.7300   -1.6040 C   0  0  1  0  0  0  0  0  0  0  0  0
    2.9650   16.5400   -1.8070 C   0  0  0  0  0  0  0  0  0  0  0  0
    2.7870   17.7070   -2.7730 C   0  0  0  0  0  0  0  0  0  0  0  0
    1.6970   18.6580   -2.2840 C   0  0  2  0  0  0  0  0  0  0  0  0
    2.1410   19.2860   -1.0780 O   0  0  0  0  0  0  0  0  0  0  0  0
    0.3340   17.9520   -2.0350 C   0  0  0  0  0  0  0  0  0  0  0  0
   -0.2910   17.5350   -3.3900 C   0  0  0  0  0  0  0  0  0  0  0  0
   -0.6350   18.9920   -1.4120 C   0  0  0  0  0  0  0  0  0  0  0  0
    1.8690   14.4480   -0.6890 C   0  0  1  0  0  0  0  0  0  0  0  0
    2.8200   14.7920    0.4980 C   0  0  0  0  0  0  0  0  0  0  0  0
    2.5940   13.3310   -1.5290 C   0  0  0  0  0  0  0  0  0  0  0  0
    1.6950   12.3820   -2.3450 C   0  0  0  0  0  0  0  0  0  0  0  0
    0.5620   11.8220   -1.4810 C   0  0  2  0  0  0  0  0  0  0  0  0
    1.2090   10.9750   -0.3330 C   0  0  0  0  0  0  0  0  0  0  0  0
   -0.2687    8.2267   -4.2667 H   0  0  0  0  0  0  0  0  0  0  0  0
   -0.9411    9.8783   -4.4833 H   0  0  0  0  0  0  0  0  0  0  0  0
    0.8373    9.6254   -4.4833 H   0  0  0  0  0  0  0  0  0  0  0  0
    0.9424    9.3184   -2.1921 H   0  0  0  0  0  0  0  0  0  0  0  0
   -0.3849    7.9048   -1.1149 H   0  0  0  0  0  0  0  0  0  0  0  0
   -1.7516    9.1125   -1.2464 H   0  0  0  0  0  0  0  0  0  0  0  0
   -1.3726    7.6694   -3.7378 H   0  0  0  0  0  0  0  0  0  0  0  0
   -1.6568    6.5462   -2.3430 H   0  0  0  0  0  0  0  0  0  0  0  0
   -3.0570    8.7929   -3.3511 H   0  0  0  0  0  0  0  0  0  0  0  0
   -3.9104    5.0009   -1.7922 H   0  0  0  0  0  0  0  0  0  0  0  0
   -4.7930    4.8316   -3.3476 H   0  0  0  0  0  0  0  0  0  0  0  0
   -3.0412    5.2290   -3.3476 H   0  0  0  0  0  0  0  0  0  0  0  0
   -6.3506    7.4177   -2.4544 H   0  0  0  0  0  0  0  0  0  0  0  0
   -5.5923    8.1345   -3.9166 H   0  0  0  0  0  0  0  0  0  0  0  0
   -6.0878    6.4079   -3.9166 H   0  0  0  0  0  0  0  0  0  0  0  0
   -0.6692   11.3199   -3.2146 H   0  0  0  0  0  0  0  0  0  0  0  0
   -2.6368   11.1306   -1.8248 H   0  0  0  0  0  0  0  0  0  0  0  0
   -1.8040   10.0862   -0.6537 H   0  0  0  0  0  0  0  0  0  0  0  0
   -2.3977   12.8571   -0.2805 H   0  0  0  0  0  0  0  0  0  0  0  0
   -1.2564   11.9502    0.7086 H   0  0  0  0  0  0  0  0  0  0  0  0
   -1.6478   14.6179   -1.7012 H   0  0  0  0  0  0  0  0  0  0  0  0
   -0.2291   14.3074   -2.7584 H   0  0  0  0  0  0  0  0  0  0  0  0
   -1.6161   13.1660   -2.7584 H   0  0  0  0  0  0  0  0  0  0  0  0
    0.7869   13.2490    0.7649 H   0  0  0  0  0  0  0  0  0  0  0  0
   -1.3033   14.7556    0.7540 H   0  0  0  0  0  0  0  0  0  0  0  0
    0.2598   15.3012    1.5583 H   0  0  0  0  0  0  0  0  0  0  0  0
   -1.0245   17.1214    0.1515 H   0  0  0  0  0  0  0  0  0  0  0  0
    1.3384   15.2894   -2.5602 H   0  0  0  0  0  0  0  0  0  0  0  0
    3.2898   16.9350   -0.8331 H   0  0  0  0  0  0  0  0  0  0  0  0
    3.7145   15.8606   -2.2390 H   0  0  0  0  0  0  0  0  0  0  0  0
    3.7362   18.2573   -2.8518 H   0  0  0  0  0  0  0  0  0  0  0  0
    2.4912   17.3085   -3.7547 H   0  0  0  0  0  0  0  0  0  0  0  0
    1.5252   19.3995   -3.0781 H   0  0  0  0  0  0  0  0  0  0  0  0
    1.7420   18.8060   -0.3320 H   0  0  0  0  0  0  0  0  0  0  0  0
   -1.1934   16.9329   -3.2077 H   0  0  0  0  0  0  0  0  0  0  0  0
   -0.5602   18.4351   -3.9621 H   0  0  0  0  0  0  0  0  0  0  0  0
    0.4368   16.9409   -3.9621 H   0  0  0  0  0  0  0  0  0  0  0  0
   -0.5801   18.9331   -0.3149 H   0  0  0  0  0  0  0  0  0  0  0  0
   -0.3487   20.0023   -1.7397 H   0  0  0  0  0  0  0  0  0  0  0  0
   -1.6629   18.7777   -1.7397 H   0  0  0  0  0  0  0  0  0  0  0  0
    2.3013   14.6044    1.4497 H   0  0  0  0  0  0  0  0  0  0  0  0
    3.7203   14.1626    0.4408 H   0  0  0  0  0  0  0  0  0  0  0  0
    3.1093   15.8517    0.4408 H   0  0  0  0  0  0  0  0  0  0  0  0
    3.2739   13.8328   -2.2332 H   0  0  0  0  0  0  0  0  0  0  0  0
    3.0909   12.6893   -0.7865 H   0  0  0  0  0  0  0  0  0  0  0  0
    1.2622   12.9355   -3.1913 H   0  0  0  0  0  0  0  0  0  0  0  0
    2.3078   11.5430   -2.7064 H   0  0  0  0  0  0  0  0  0  0  0  0
    0.8991   11.3807    0.6413 H   0  0  0  0  0  0  0  0  0  0  0  0
    0.8774    9.9296   -0.4171 H   0  0  0  0  0  0  0  0  0  0  0  0
    2.3049   11.0200   -0.4171 H   0  0  0  0  0  0  0  0  0  0  0  0
  1  2  1  0
  2  3  1  0
  3  4  1  0
  4  5  1  0
  5  6  1  0
  6  7  1  0
  7  8  1  0
  7  9  1  0
  2 10  1  0
 10 11  1  0
 11 12  1  0
 12 13  1  0
 13 14  1  6
 13 15  1  0
 15 16  1  0
 16 17  1  0
 17 18  2  0
 18 19  1  0
 19 20  1  0
 20 21  1  0
 21 22  1  0
 22 23  1  0
 22 24  1  0
 24 25  1  0
 24 26  1  0
 19 27  1  0
 27 28  1  1
 27 29  1  0
 29 30  1  0
 30 31  1  0
 31 32  1  1
  7  5  1  0
 31 10  1  0
 31 13  1  0
 27 15  1  0
 24 18  1  0
  1 33  1  0
  1 34  1  0
  1 35  1  0
  2 36  1  1
  3 37  1  0
  3 38  1  0
  4 39  1  0
  4 40  1  0
  5 41  1  6
  8 42  1  0
  8 43  1  0
  8 44  1  0
  9 45  1  0
  9 46  1  0
  9 47  1  0
 10 48  1  6
 11 49  1  0
 11 50  1  0
 12 51  1  0
 12 52  1  0
 14 53  1  0
 14 54  1  0
 14 55  1  0
 15 56  1  1
 16 57  1  0
 16 58  1  0
 17 59  1  0
 19 60  1  6
 20 61  1  0
 20 62  1  0
 21 63  1  0
 21 64  1  0
 22 65  1  6
 23 66  1  0
 25 67  1  0
 25 68  1  0
 25 69  1  0
 26 70  1  0
 26 71  1  0
 26 72  1  0
 28 73  1  0
 28 74  1  0
 28 75  1  0
 29 76  1  0
 29 77  1  0
 30 78  1  0
 30 79  1  0
 32 80  1  0
 32 81  1  0
 32 82  1  0
M  END
>  <meeko>  (16) 
{"is_sidechain": [false], "intermolecular_energy": 2.731, "internal_energy": -0.839}

$$$$
EPH_relaxed_0001_pdb2pqr_Repair_94_r2_0001_out
     RDKit          3D

 82 86  0  0  0  0  0  0  0  0999 V2000
   -0.5230    7.5550   -1.2680 C   0  0  0  0  0  0  0  0  0  0  0  0
   -1.6210    8.4630   -0.7060 C   0  0  2  0  0  0  0  0  0  0  0  0
   -2.9670    8.2620   -1.4300 C   0  0  0  0  0  0  0  0  0  0  0  0
   -2.8670    7.3920   -2.6850 C   0  0  0  0  0  0  0  0  0  0  0  0
   -4.1940    7.2490   -3.3680 C   0  0  2  0  0  0  0  0  0  0  0  0
   -5.3170    7.1620   -2.4820 O   0  0  0  0  0  0  0  0  0  0  0  0
   -5.0490    5.9990   -3.2810 C   0  0  0  0  0  0  0  0  0  0  0  0
   -4.6100    4.8060   -2.4920 C   0  0  0  0  0  0  0  0  0  0  0  0
   -6.0690    5.7540   -4.3500 C   0  0  0  0  0  0  0  0  0  0  0  0
   -1.1890    9.9220   -0.8040 C   0  0  1  0  0  0  0  0  0  0  0  0
   -0.7270   10.5010    0.5590 C   0  0  0  0  0  0  0  0  0  0  0  0
    0.4220   11.4970    0.2550 C   0  0  0  0  0  0  0  0  0  0  0  0
    0.3600   11.7080   -1.2750 C   0  0  1  0  0  0  0  0  0  0  0  0
   -0.7750   12.7570   -1.4900 C   0  0  0  0  0  0  0  0  0  0  0  0
    1.6920   12.1490   -1.9660 C   0  0  2  0  0  0  0  0  0  0  0  0
    2.2440   13.5110   -1.5100 C   0  0  0  0  0  0  0  0  0  0  0  0
    1.7730   14.6870   -2.2990 C   0  0  0  0  0  0  0  0  0  0  0  0
    1.1710   14.6320   -3.5020 C   0  0  0  0  0  0  0  0  0  0  0  0
    0.9970   13.2950   -4.2340 C   0  0  1  0  0  0  0  0  0  0  0  0
    1.4180   13.4600   -5.7180 C   0  0  0  0  0  0  0  0  0  0  0  0
    0.6850   14.6050   -6.4110 C   0  0  0  0  0  0  0  0  0  0  0  0
    0.9300   15.9260   -5.6870 C   0  0  2  0  0  0  0  0  0  0  0  0
    2.3100   16.2790   -5.8250 O   0  0  0  0  0  0  0  0  0  0  0  0
    0.5510   15.8780   -4.1800 C   0  0  0  0  0  0  0  0  0  0  0  0
   -0.9880   15.7970   -4.0330 C   0  0  0  0  0  0  0  0  0  0  0  0
    0.9780   17.2260   -3.5380 C   0  0  0  0  0  0  0  0  0  0  0  0
    1.6730   12.0330   -3.5440 C   0  0  1  0  0  0  0  0  0  0  0  0
    3.1590   11.9100   -4.0000 C   0  0  0  0  0  0  0  0  0  0  0  0
    0.9470   10.7270   -4.0390 C   0  0  0  0  0  0  0  0  0  0  0  0
   -0.2920   10.2760   -3.2430 C   0  0  0  0  0  0  0  0  0  0  0  0
    0.0010   10.2500   -1.7400 C   0  0  2  0  0  0  0  0  0  0  0  0
    1.1250    9.1870   -1.4910 C   0  0  0  0  0  0  0  0  0  0  0  0
    0.0331    7.0951   -0.4378 H   0  0  0  0  0  0  0  0  0  0  0  0
   -0.9791    6.7667   -1.8849 H   0  0  0  0  0  0  0  0  0  0  0  0
    0.1656    8.1510   -1.8849 H   0  0  0  0  0  0  0  0  0  0  0  0
   -1.7698    8.1894    0.3490 H   0  0  0  0  0  0  0  0  0  0  0  0
   -3.6692    7.7839   -0.7311 H   0  0  0  0  0  0  0  0  0  0  0  0
   -3.3089    9.2559   -1.7545 H   0  0  0  0  0  0  0  0  0  0  0  0
   -2.1545    7.8548   -3.3837 H   0  0  0  0  0  0  0  0  0  0  0  0
   -2.5278    6.3905   -2.3818 H   0  0  0  0  0  0  0  0  0  0  0  0
   -3.8445    7.8459   -4.2233 H   0  0  0  0  0  0  0  0  0  0  0  0
   -4.6913    5.0269   -1.4175 H   0  0  0  0  0  0  0  0  0  0  0  0
   -5.2509    3.9468   -2.7392 H   0  0  0  0  0  0  0  0  0  0  0  0
   -3.5651    4.5672   -2.7392 H   0  0  0  0  0  0  0  0  0  0  0  0
   -7.0385    5.5211   -3.8853 H   0  0  0  0  0  0  0  0  0  0  0  0
   -6.1686    6.6538   -4.9749 H   0  0  0  0  0  0  0  0  0  0  0  0
   -5.7491    4.9072   -4.9749 H   0  0  0  0  0  0  0  0  0  0  0  0
   -2.1144   10.3617   -1.2044 H   0  0  0  0  0  0  0  0  0  0  0  0
   -1.5608   11.0232    1.0510 H   0  0  0  0  0  0  0  0  0  0  0  0
   -0.3883    9.7010    1.2338 H   0  0  0  0  0  0  0  0  0  0  0  0
    0.2624   12.4476    0.7849 H   0  0  0  0  0  0  0  0  0  0  0  0
    1.4007   11.1183    0.5847 H   0  0  0  0  0  0  0  0  0  0  0  0
   -1.1466   13.1005   -0.5133 H   0  0  0  0  0  0  0  0  0  0  0  0
   -0.3796   13.6146   -2.0541 H   0  0  0  0  0  0  0  0  0  0  0  0
   -1.5988   12.2954   -2.0541 H   0  0  0  0  0  0  0  0  0  0  0  0
    2.4073   11.3983   -1.5989 H   0  0  0  0  0  0  0  0  0  0  0  0
    1.9473   13.6642   -0.4619 H   0  0  0  0  0  0  0  0  0  0  0  0
    3.3330   13.4624   -1.6574 H   0  0  0  0  0  0  0  0  0  0  0  0
    1.9311   15.6833   -1.8604 H   0  0  0  0  0  0  0  0  0  0  0  0
   -0.0742   13.0520   -4.1741 H   0  0  0  0  0  0  0  0  0  0  0  0
    2.4992   13.6584   -5.7577 H   0  0  0  0  0  0  0  0  0  0  0  0
    1.1571   12.5299   -6.2442 H   0  0  0  0  0  0  0  0  0  0  0  0
    1.0463   14.6895   -7.4465 H   0  0  0  0  0  0  0  0  0  0  0  0
   -0.3939   14.3913   -6.3967 H   0  0  0  0  0  0  0  0  0  0  0  0
    0.2787   16.6817   -6.1505 H   0  0  0  0  0  0  0  0  0  0  0  0
    2.4600   17.0880   -5.3080 H   0  0  0  0  0  0  0  0  0  0  0  0
   -1.2542   15.7830   -2.9658 H   0  0  0  0  0  0  0  0  0  0  0  0
   -1.4489   16.6721   -4.5144 H   0  0  0  0  0  0  0  0  0  0  0  0
   -1.3545   14.8783   -4.5144 H   0  0  0  0  0  0  0  0  0  0  0  0
    0.9493   17.1355   -2.4421 H   0  0  0  0  0  0  0  0  0  0  0  0
    1.9998   17.4774   -3.8586 H   0  0  0  0  0  0  0  0  0  0  0  0
    0.2873   18.0199   -3.8586 H   0  0  0  0  0  0  0  0  0  0  0  0
    3.8107   11.8561   -3.1155 H   0  0  0  0  0  0  0  0  0  0  0  0
    3.2832   10.9985   -4.6031 H   0  0  0  0  0  0  0  0  0  0  0  0
    3.4314   12.7887   -4.6031 H   0  0  0  0  0  0  0  0  0  0  0  0
    0.6308   10.8960   -5.0789 H   0  0  0  0  0  0  0  0  0  0  0  0
    1.6834    9.9207   -3.9058 H   0  0  0  0  0  0  0  0  0  0  0  0
   -1.1182   10.9760   -3.4364 H   0  0  0  0  0  0  0  0  0  0  0  0
   -0.5645    9.2600   -3.5646 H   0  0  0  0  0  0  0  0  0  0  0  0
    1.2683    9.0515   -0.4088 H   0  0  0  0  0  0  0  0  0  0  0  0
    0.8308    8.2291   -1.9447 H   0  0  0  0  0  0  0  0  0  0  0  0
    2.0650    9.5342   -1.9447 H   0  0  0  0  0  0  0  0  0  0  0  0
  1  2  1  0
  2  3  1  0
  3  4  1  0
  4  5  1  0
  5  6  1  0
  6  7  1  0
  7  8  1  0
  7  9  1  0
  2 10  1  0
 10 11  1  0
 11 12  1  0
 12 13  1  0
 13 14  1  1
 13 15  1  0
 15 16  1  0
 16 17  1  0
 17 18  2  0
 18 19  1  0
 19 20  1  0
 20 21  1  0
 21 22  1  0
 22 23  1  0
 22 24  1  0
 24 25  1  0
 24 26  1  0
 19 27  1  0
 27 28  1  6
 27 29  1  0
 29 30  1  0
 30 31  1  0
 31 32  1  6
  7  5  1  0
 31 10  1  0
 31 13  1  0
 27 15  1  0
 24 18  1  0
  1 33  1  0
  1 34  1  0
  1 35  1  0
  2 36  1  1
  3 37  1  0
  3 38  1  0
  4 39  1  0
  4 40  1  0
  5 41  1  6
  8 42  1  0
  8 43  1  0
  8 44  1  0
  9 45  1  0
  9 46  1  0
  9 47  1  0
 10 48  1  6
 11 49  1  0
 11 50  1  0
 12 51  1  0
 12 52  1  0
 14 53  1  0
 14 54  1  0
 14 55  1  0
 15 56  1  1
 16 57  1  0
 16 58  1  0
 17 59  1  0
 19 60  1  6
 20 61  1  0
 20 62  1  0
 21 63  1  0
 21 64  1  0
 22 65  1  6
 23 66  1  0
 25 67  1  0
 25 68  1  0
 25 69  1  0
 26 70  1  0
 26 71  1  0
 26 72  1  0
 28 73  1  0
 28 74  1  0
 28 75  1  0
 29 76  1  0
 29 77  1  0
 30 78  1  0
 30 79  1  0
 32 80  1  0
 32 81  1  0
 32 82  1  0
M  END
>  <meeko>  (17) 
{"is_sidechain": [false], "intermolecular_energy": 2.731, "internal_energy": -0.839}

$$$$
EPH_relaxed_0001_pdb2pqr_Repair_94_r2_0001_out
     RDKit          3D

 82 86  0  0  0  0  0  0  0  0999 V2000
    3.3270   18.1220   -1.4550 C   0  0  0  0  0  0  0  0  0  0  0  0
    1.9420   17.4670   -1.4230 C   0  0  2  0  0  0  0  0  0  0  0  0
    1.2240   17.6920   -0.0780 C   0  0  0  0  0  0  0  0  0  0  0  0
    0.7800   19.1400    0.1490 C   0  0  0  0  0  0  0  0  0  0  0  0
   -0.6860   19.2300    0.4460 C   0  0  2  0  0  0  0  0  0  0  0  0
   -1.4990   18.2820   -0.2580 O   0  0  0  0  0  0  0  0  0  0  0  0
   -1.7210   19.6670   -0.5730 C   0  0  0  0  0  0  0  0  0  0  0  0
   -1.3320   20.0430   -1.9680 C   0  0  0  0  0  0  0  0  0  0  0  0
   -3.0330   20.1940   -0.0800 C   0  0  0  0  0  0  0  0  0  0  0  0
    2.0670   15.9740   -1.7040 C   0  0  1  0  0  0  0  0  0  0  0  0
    3.5300   15.5400   -1.9860 C   0  0  0  0  0  0  0  0  0  0  0  0
    3.6960   14.1170   -1.3930 C   0  0  0  0  0  0  0  0  0  0  0  0
    2.2530   13.6500   -1.0900 C   0  0  1  0  0  0  0  0  0  0  0  0
    1.6960   13.1510   -2.4600 C   0  0  0  0  0  0  0  0  0  0  0  0
    2.0970   12.5660    0.0260 C   0  0  2  0  0  0  0  0  0  0  0  0
    2.7780   11.2190   -0.2740 C   0  0  0  0  0  0  0  0  0  0  0  0
    1.9260   10.2150   -0.9760 C   0  0  0  0  0  0  0  0  0  0  0  0
    0.5870   10.2760   -1.0990 C   0  0  0  0  0  0  0  0  0  0  0  0
   -0.2180   11.3880   -0.4140 C   0  0  1  0  0  0  0  0  0  0  0  0
   -1.4480   10.7710    0.3020 C   0  0  0  0  0  0  0  0  0  0  0  0
   -2.3050    9.9230   -0.6340 C   0  0  0  0  0  0  0  0  0  0  0  0
   -1.4840    8.7930   -1.2510 C   0  0  2  0  0  0  0  0  0  0  0  0
   -1.1100    7.8770   -0.2180 O   0  0  0  0  0  0  0  0  0  0  0  0
   -0.2120    9.2940   -1.9910 C   0  0  0  0  0  0  0  0  0  0  0  0
   -0.6220   10.0380   -3.2860 C   0  0  0  0  0  0  0  0  0  0  0  0
    0.5980    8.0490   -2.4440 C   0  0  0  0  0  0  0  0  0  0  0  0
    0.6110   12.3620    0.5290 C   0  0  1  0  0  0  0  0  0  0  0  0
    0.7050   11.7610    1.9650 C   0  0  0  0  0  0  0  0  0  0  0  0
   -0.1650   13.7250    0.6690 C   0  0  0  0  0  0  0  0  0  0  0  0
    0.1210   14.8000   -0.3960 C   0  0  0  0  0  0  0  0  0  0  0  0
    1.6280   15.0000   -0.5820 C   0  0  2  0  0  0  0  0  0  0  0  0
    2.2120   15.5240    0.7740 C   0  0  0  0  0  0  0  0  0  0  0  0
    3.6780   18.2880   -0.4258 H   0  0  0  0  0  0  0  0  0  0  0  0
    4.0326   17.4622   -1.9811 H   0  0  0  0  0  0  0  0  0  0  0  0
    3.2646   19.0860   -1.9811 H   0  0  0  0  0  0  0  0  0  0  0  0
    1.3326   17.9429   -2.2054 H   0  0  0  0  0  0  0  0  0  0  0  0
    0.3334   17.0470   -0.0478 H   0  0  0  0  0  0  0  0  0  0  0  0
    1.9457   17.4492    0.7159 H   0  0  0  0  0  0  0  0  0  0  0  0
    1.3420   19.5563    0.9981 H   0  0  0  0  0  0  0  0  0  0  0  0
    0.9789   19.7080   -0.7717 H   0  0  0  0  0  0  0  0  0  0  0  0
   -0.4808   19.5578    1.4758 H   0  0  0  0  0  0  0  0  0  0  0  0
   -0.5414   20.8071   -1.9349 H   0  0  0  0  0  0  0  0  0  0  0  0
   -0.9601   19.1534   -2.4974 H   0  0  0  0  0  0  0  0  0  0  0  0
   -2.2085   20.4449   -2.4974 H   0  0  0  0  0  0  0  0  0  0  0  0
   -3.0374   20.1958    1.0200 H   0  0  0  0  0  0  0  0  0  0  0  0
   -3.1779   21.2201   -0.4489 H   0  0  0  0  0  0  0  0  0  0  0  0
   -3.8475   19.5533   -0.4489 H   0  0  0  0  0  0  0  0  0  0  0  0
    1.3848   15.8900   -2.5628 H   0  0  0  0  0  0  0  0  0  0  0  0
    3.7180   15.5232   -3.0697 H   0  0  0  0  0  0  0  0  0  0  0  0
    4.2450   16.2427   -1.5332 H   0  0  0  0  0  0  0  0  0  0  0  0
    4.1764   13.4466   -2.1208 H   0  0  0  0  0  0  0  0  0  0  0  0
    4.3336   14.1103   -0.4966 H   0  0  0  0  0  0  0  0  0  0  0  0
    0.8871   12.4264   -2.2849 H   0  0  0  0  0  0  0  0  0  0  0  0
    1.3049   14.0064   -3.0303 H   0  0  0  0  0  0  0  0  0  0  0  0
    2.5035   12.6685   -3.0303 H   0  0  0  0  0  0  0  0  0  0  0  0
    2.6592   13.0064    0.8626 H   0  0  0  0  0  0  0  0  0  0  0  0
    3.6586   11.4163   -0.9030 H   0  0  0  0  0  0  0  0  0  0  0  0
    3.0237   10.7785    0.7035 H   0  0  0  0  0  0  0  0  0  0  0  0
    2.4350    9.3526   -1.4312 H   0  0  0  0  0  0  0  0  0  0  0  0
   -0.5526   12.0608   -1.2174 H   0  0  0  0  0  0  0  0  0  0  0  0
   -1.0938   10.1364    1.1278 H   0  0  0  0  0  0  0  0  0  0  0  0
   -2.0722   11.5997    0.6676 H   0  0  0  0  0  0  0  0  0  0  0  0
   -3.1411    9.4911   -0.0644 H   0  0  0  0  0  0  0  0  0  0  0  0
   -2.6824   10.5654   -1.4433 H   0  0  0  0  0  0  0  0  0  0  0  0
   -2.1144    8.3023   -2.0072 H   0  0  0  0  0  0  0  0  0  0  0  0
   -1.5000    7.0140   -0.4340 H   0  0  0  0  0  0  0  0  0  0  0  0
   -1.1376   10.9736   -3.0237 H   0  0  0  0  0  0  0  0  0  0  0  0
    0.2768   10.2679   -3.8770 H   0  0  0  0  0  0  0  0  0  0  0  0
   -1.2964    9.4009   -3.8770 H   0  0  0  0  0  0  0  0  0  0  0  0
    0.9542    7.5014   -1.5590 H   0  0  0  0  0  0  0  0  0  0  0  0
   -0.0461    7.3920   -3.0470 H   0  0  0  0  0  0  0  0  0  0  0  0
    1.4596    8.3716   -3.0470 H   0  0  0  0  0  0  0  0  0  0  0  0
    0.5795   12.5632    2.7071 H   0  0  0  0  0  0  0  0  0  0  0  0
   -0.0865   11.0092    2.1004 H   0  0  0  0  0  0  0  0  0  0  0  0
    1.6882   11.2867    2.1004 H   0  0  0  0  0  0  0  0  0  0  0  0
   -1.2412   13.5002    0.6341 H   0  0  0  0  0  0  0  0  0  0  0  0
    0.1851   14.1592    1.6171 H   0  0  0  0  0  0  0  0  0  0  0  0
   -0.3210   14.4852   -1.3528 H   0  0  0  0  0  0  0  0  0  0  0  0
   -0.3205   15.7506   -0.0622 H   0  0  0  0  0  0  0  0  0  0  0  0
    1.6806   15.0472    1.6108 H   0  0  0  0  0  0  0  0  0  0  0  0
    3.2826   15.2779    0.8317 H   0  0  0  0  0  0  0  0  0  0  0  0
    2.0829   16.6149    0.8317 H   0  0  0  0  0  0  0  0  0  0  0  0
  1  2  1  0
  2  3  1  0
  3  4  1  0
  4  5  1  0
  5  6  1  0
  6  7  1  0
  7  8  1  0
  7  9  1  0
  2 10  1  0
 10 11  1  0
 11 12  1  0
 12 13  1  0
 13 14  1  6
 13 15  1  0
 15 16  1  0
 16 17  1  0
 17 18  2  0
 18 19  1  0
 19 20  1  0
 20 21  1  0
 21 22  1  0
 22 23  1  0
 22 24  1  0
 24 25  1  0
 24 26  1  0
 19 27  1  0
 27 28  1  1
 27 29  1  0
 29 30  1  0
 30 31  1  0
 31 32  1  1
  7  5  1  0
 31 10  1  0
 31 13  1  0
 27 15  1  0
 24 18  1  0
  1 33  1  0
  1 34  1  0
  1 35  1  0
  2 36  1  6
  3 37  1  0
  3 38  1  0
  4 39  1  0
  4 40  1  0
  5 41  1  1
  8 42  1  0
  8 43  1  0
  8 44  1  0
  9 45  1  0
  9 46  1  0
  9 47  1  0
 10 48  1  6
 11 49  1  0
 11 50  1  0
 12 51  1  0
 12 52  1  0
 14 53  1  0
 14 54  1  0
 14 55  1  0
 15 56  1  1
 16 57  1  0
 16 58  1  0
 17 59  1  0
 19 60  1  6
 20 61  1  0
 20 62  1  0
 21 63  1  0
 21 64  1  0
 22 65  1  6
 23 66  1  0
 25 67  1  0
 25 68  1  0
 25 69  1  0
 26 70  1  0
 26 71  1  0
 26 72  1  0
 28 73  1  0
 28 74  1  0
 28 75  1  0
 29 76  1  0
 29 77  1  0
 30 78  1  0
 30 79  1  0
 32 80  1  0
 32 81  1  0
 32 82  1  0
M  END
>  <meeko>  (18) 
{"is_sidechain": [false], "intermolecular_energy": 2.731, "internal_energy": -0.839}

$$$$
EPH_relaxed_0001_pdb2pqr_Repair_94_r2_0001_out
     RDKit          3D

 82 86  0  0  0  0  0  0  0  0999 V2000
    3.1150   14.8480   -7.5550 C   0  0  0  0  0  0  0  0  0  0  0  0
    1.5910   14.8700   -7.4050 C   0  0  2  0  0  0  0  0  0  0  0  0
    0.9590   16.1040   -8.0800 C   0  0  0  0  0  0  0  0  0  0  0  0
    1.8790   16.7900   -9.0930 C   0  0  0  0  0  0  0  0  0  0  0  0
    1.5560   16.3840  -10.4990 C   0  0  2  0  0  0  0  0  0  0  0  0
    0.9790   15.0790  -10.6270 O   0  0  0  0  0  0  0  0  0  0  0  0
    2.2700   15.2630  -11.2300 C   0  0  0  0  0  0  0  0  0  0  0  0
    3.3640   14.4770  -10.5770 C   0  0  0  0  0  0  0  0  0  0  0  0
    2.2430   15.2540  -12.7270 C   0  0  0  0  0  0  0  0  0  0  0  0
    1.2130   14.8310   -5.9290 C   0  0  1  0  0  0  0  0  0  0  0  0
   -0.0370   15.6940   -5.6100 C   0  0  0  0  0  0  0  0  0  0  0  0
   -0.8140   14.9590   -4.4880 C   0  0  0  0  0  0  0  0  0  0  0  0
    0.1720   13.8850   -3.9710 C   0  0  1  0  0  0  0  0  0  0  0  0
    1.1170   14.6480   -2.9900 C   0  0  0  0  0  0  0  0  0  0  0  0
   -0.4670   12.6280   -3.2960 C   0  0  2  0  0  0  0  0  0  0  0  0
   -1.2780   12.9140   -2.0200 C   0  0  0  0  0  0  0  0  0  0  0  0
   -0.5020   12.8550   -0.7450 C   0  0  0  0  0  0  0  0  0  0  0  0
    0.7190   12.3100   -0.5970 C   0  0  0  0  0  0  0  0  0  0  0  0
    1.4050   11.5860   -1.7630 C   0  0  1  0  0  0  0  0  0  0  0  0
    1.9890   10.2380   -1.2650 C   0  0  0  0  0  0  0  0  0  0  0  0
    2.9100   10.4090   -0.0610 C   0  0  0  0  0  0  0  0  0  0  0  0
    2.1760   11.0790    1.0980 C   0  0  2  0  0  0  0  0  0  0  0  0
    1.1610   10.1910    1.5760 O   0  0  0  0  0  0  0  0  0  0  0  0
    1.5370   12.4420    0.7110 C   0  0  0  0  0  0  0  0  0  0  0  0
    2.6510   13.4940    0.4840 C   0  0  0  0  0  0  0  0  0  0  0  0
    0.7090   12.9430    1.9260 C   0  0  0  0  0  0  0  0  0  0  0  0
    0.5380   11.4240   -3.0850 C   0  0  1  0  0  0  0  0  0  0  0  0
   -0.3290   10.1310   -2.9970 C   0  0  0  0  0  0  0  0  0  0  0  0
    1.5040   11.2290   -4.3130 C   0  0  0  0  0  0  0  0  0  0  0  0
    2.0060   12.5060   -5.0120 C   0  0  0  0  0  0  0  0  0  0  0  0
    0.8440   13.4530   -5.3250 C   0  0  2  0  0  0  0  0  0  0  0  0
   -0.1130   12.7220   -6.3270 C   0  0  0  0  0  0  0  0  0  0  0  0
    3.5814   14.8413   -6.5588 H   0  0  0  0  0  0  0  0  0  0  0  0
    3.4161   13.9454   -8.1070 H   0  0  0  0  0  0  0  0  0  0  0  0
    3.4421   15.7415   -8.1070 H   0  0  0  0  0  0  0  0  0  0  0  0
    1.1954   13.9780   -7.9127 H   0  0  0  0  0  0  0  0  0  0  0  0
    0.0449   15.7844   -8.6018 H   0  0  0  0  0  0  0  0  0  0  0  0
    0.7542   16.8358   -7.2847 H   0  0  0  0  0  0  0  0  0  0  0  0
    1.7612   17.8798   -9.0007 H   0  0  0  0  0  0  0  0  0  0  0  0
    2.9138   16.4857   -8.8774 H   0  0  0  0  0  0  0  0  0  0  0  0
    1.3417   17.4267  -10.7764 H   0  0  0  0  0  0  0  0  0  0  0  0
    3.2646   14.5484   -9.4838 H   0  0  0  0  0  0  0  0  0  0  0  0
    3.2916   13.4231  -10.8837 H   0  0  0  0  0  0  0  0  0  0  0  0
    4.3397   14.8819  -10.8837 H   0  0  0  0  0  0  0  0  0  0  0  0
    1.2527   14.9239  -13.0739 H   0  0  0  0  0  0  0  0  0  0  0  0
    2.4442   16.2678  -13.1035 H   0  0  0  0  0  0  0  0  0  0  0  0
    3.0122   14.5637  -13.1035 H   0  0  0  0  0  0  0  0  0  0  0  0
    2.1529   15.1948   -5.4883 H   0  0  0  0  0  0  0  0  0  0  0  0
    0.2700   16.6928   -5.2663 H   0  0  0  0  0  0  0  0  0  0  0  0
   -0.6645   15.8255   -6.5038 H   0  0  0  0  0  0  0  0  0  0  0  0
   -1.0858   15.6569   -3.6823 H   0  0  0  0  0  0  0  0  0  0  0  0
   -1.7559   14.5213   -4.8502 H   0  0  0  0  0  0  0  0  0  0  0  0
    0.8319   14.4178   -1.9528 H   0  0  0  0  0  0  0  0  0  0  0  0
    2.1567   14.3331   -3.1630 H   0  0  0  0  0  0  0  0  0  0  0  0
    1.0282   15.7307   -3.1630 H   0  0  0  0  0  0  0  0  0  0  0  0
   -1.2001   12.3030   -4.0490 H   0  0  0  0  0  0  0  0  0  0  0  0
   -1.7086   13.9222   -2.1096 H   0  0  0  0  0  0  0  0  0  0  0  0
   -2.0333   12.1170   -1.9541 H   0  0  0  0  0  0  0  0  0  0  0  0
   -0.9686   13.2946    0.1489 H   0  0  0  0  0  0  0  0  0  0  0  0
    2.2205   12.2466   -2.0927 H   0  0  0  0  0  0  0  0  0  0  0  0
    1.1571    9.5765   -0.9815 H   0  0  0  0  0  0  0  0  0  0  0  0
    2.5857    9.8097   -2.0838 H   0  0  0  0  0  0  0  0  0  0  0  0
    3.2666    9.4200    0.2626 H   0  0  0  0  0  0  0  0  0  0  0  0
    3.7569   11.0465   -0.3551 H   0  0  0  0  0  0  0  0  0  0  0  0
    2.9190   11.2910    1.8809 H   0  0  0  0  0  0  0  0  0  0  0  0
    1.3540    9.9990    2.5090 H   0  0  0  0  0  0  0  0  0  0  0  0
    3.0252   13.8474    1.4562 H   0  0  0  0  0  0  0  0  0  0  0  0
    3.4761   13.0379   -0.0827 H   0  0  0  0  0  0  0  0  0  0  0  0
    2.2428   14.3439   -0.0827 H   0  0  0  0  0  0  0  0  0  0  0  0
    1.2076   12.6413    2.8589 H   0  0  0  0  0  0  0  0  0  0  0  0
    0.6315   14.0397    1.8897 H   0  0  0  0  0  0  0  0  0  0  0  0
   -0.2984   12.5028    1.8897 H   0  0  0  0  0  0  0  0  0  0  0  0
   -0.5003    9.8756   -1.9409 H   0  0  0  0  0  0  0  0  0  0  0  0
   -1.2951   10.3028   -3.4940 H   0  0  0  0  0  0  0  0  0  0  0  0
    0.1968    9.3024   -3.4940 H   0  0  0  0  0  0  0  0  0  0  0  0
    2.3858   10.6756   -3.9579 H   0  0  0  0  0  0  0  0  0  0  0  0
    0.9037   10.7036   -5.0704 H   0  0  0  0  0  0  0  0  0  0  0  0
    2.7211   13.0196   -4.3526 H   0  0  0  0  0  0  0  0  0  0  0  0
    2.4902   12.2208   -5.9576 H   0  0  0  0  0  0  0  0  0  0  0  0
   -0.8641   12.1483   -5.7643 H   0  0  0  0  0  0  0  0  0  0  0  0
   -0.6186   13.4660   -6.9601 H   0  0  0  0  0  0  0  0  0  0  0  0
    0.4718   12.0385   -6.9601 H   0  0  0  0  0  0  0  0  0  0  0  0
  1  2  1  0
  2  3  1  0
  3  4  1  0
  4  5  1  0
  5  6  1  0
  6  7  1  0
  7  8  1  0
  7  9  1  0
  2 10  1  0
 10 11  1  0
 11 12  1  0
 12 13  1  0
 13 14  1  1
 13 15  1  0
 15 16  1  0
 16 17  1  0
 17 18  2  0
 18 19  1  0
 19 20  1  0
 20 21  1  0
 21 22  1  0
 22 23  1  0
 22 24  1  0
 24 25  1  0
 24 26  1  0
 19 27  1  0
 27 28  1  1
 27 29  1  0
 29 30  1  0
 30 31  1  0
 31 32  1  6
  7  5  1  0
 31 10  1  0
 31 13  1  0
 27 15  1  0
 24 18  1  0
  1 33  1  0
  1 34  1  0
  1 35  1  0
  2 36  1  6
  3 37  1  0
  3 38  1  0
  4 39  1  0
  4 40  1  0
  5 41  1  6
  8 42  1  0
  8 43  1  0
  8 44  1  0
  9 45  1  0
  9 46  1  0
  9 47  1  0
 10 48  1  1
 11 49  1  0
 11 50  1  0
 12 51  1  0
 12 52  1  0
 14 53  1  0
 14 54  1  0
 14 55  1  0
 15 56  1  6
 16 57  1  0
 16 58  1  0
 17 59  1  0
 19 60  1  6
 20 61  1  0
 20 62  1  0
 21 63  1  0
 21 64  1  0
 22 65  1  1
 23 66  1  0
 25 67  1  0
 25 68  1  0
 25 69  1  0
 26 70  1  0
 26 71  1  0
 26 72  1  0
 28 73  1  0
 28 74  1  0
 28 75  1  0
 29 76  1  0
 29 77  1  0
 30 78  1  0
 30 79  1  0
 32 80  1  0
 32 81  1  0
 32 82  1  0
M  END
>  <meeko>  (19) 
{"is_sidechain": [false], "intermolecular_energy": 2.731, "internal_energy": -0.839}

$$$$
EPH_relaxed_0001_pdb2pqr_Repair_94_r2_0001_out
     RDKit          3D

 82 86  0  0  0  0  0  0  0  0999 V2000
    3.5640    9.5350   -0.0040 C   0  0  0  0  0  0  0  0  0  0  0  0
    2.1760   10.0330   -0.4190 C   0  0  2  0  0  0  0  0  0  0  0  0
    1.4140    8.9920   -1.2620 C   0  0  0  0  0  0  0  0  0  0  0  0
    0.1510    8.4550   -0.5820 C   0  0  0  0  0  0  0  0  0  0  0  0
   -0.8860    8.0460   -1.5840 C   0  0  2  0  0  0  0  0  0  0  0  0
   -1.3890    9.1140   -2.3960 O   0  0  0  0  0  0  0  0  0  0  0  0
   -2.3360    8.4880   -1.5150 C   0  0  0  0  0  0  0  0  0  0  0  0
   -2.8290    9.3800   -0.4190 C   0  0  0  0  0  0  0  0  0  0  0  0
   -3.3690    7.6690   -2.2250 C   0  0  0  0  0  0  0  0  0  0  0  0
    2.3040   11.3390   -1.1940 C   0  0  1  0  0  0  0  0  0  0  0  0
    2.1380   11.1440   -2.7250 C   0  0  0  0  0  0  0  0  0  0  0  0
    1.4210   12.4090   -3.2620 C   0  0  0  0  0  0  0  0  0  0  0  0
    1.4960   13.4240   -2.0980 C   0  0  1  0  0  0  0  0  0  0  0  0
    2.9270   14.0400   -2.1940 C   0  0  0  0  0  0  0  0  0  0  0  0
    0.3920   14.5300   -2.0730 C   0  0  2  0  0  0  0  0  0  0  0  0
    0.3930   15.4800   -3.2840 C   0  0  0  0  0  0  0  0  0  0  0  0
    1.2300   16.7070   -3.1310 C   0  0  0  0  0  0  0  0  0  0  0  0
    1.7230   17.1780   -1.9700 C   0  0  0  0  0  0  0  0  0  0  0  0
    1.3680   16.5100   -0.6350 C   0  0  1  0  0  0  0  0  0  0  0  0
    0.9790   17.5970    0.4010 C   0  0  0  0  0  0  0  0  0  0  0  0
    2.0510   18.6710    0.5530 C   0  0  0  0  0  0  0  0  0  0  0  0
    2.3340   19.3520   -0.7840 C   0  0  2  0  0  0  0  0  0  0  0  0
    1.1740   20.0910   -1.1800 O   0  0  0  0  0  0  0  0  0  0  0  0
    2.7280   18.3550   -1.9090 C   0  0  0  0  0  0  0  0  0  0  0  0
    4.1360   17.7770   -1.6230 C   0  0  0  0  0  0  0  0  0  0  0  0
    2.8480   19.1530   -3.2350 C   0  0  0  0  0  0  0  0  0  0  0  0
    0.3060   15.3310   -0.7110 C   0  0  1  0  0  0  0  0  0  0  0  0
   -1.1390   15.9100   -0.6250 C   0  0  0  0  0  0  0  0  0  0  0  0
    0.4850   14.3960    0.5440 C   0  0  0  0  0  0  0  0  0  0  0  0
    1.5040   13.2480    0.4160 C   0  0  0  0  0  0  0  0  0  0  0  0
    1.2800   12.4580   -0.8770 C   0  0  2  0  0  0  0  0  0  0  0  0
   -0.1440   11.8080   -0.7990 C   0  0  0  0  0  0  0  0  0  0  0  0
    3.6318    9.5107    1.0936 H   0  0  0  0  0  0  0  0  0  0  0  0
    3.7251    8.5230   -0.4038 H   0  0  0  0  0  0  0  0  0  0  0  0
    4.3318   10.2137   -0.4038 H   0  0  0  0  0  0  0  0  0  0  0  0
    1.5955   10.2012    0.5001 H   0  0  0  0  0  0  0  0  0  0  0  0
    1.1235    9.4611   -2.2136 H   0  0  0  0  0  0  0  0  0  0  0  0
    2.0906    8.1366   -1.4053 H   0  0  0  0  0  0  0  0  0  0  0  0
    0.4195    7.5814    0.0301 H   0  0  0  0  0  0  0  0  0  0  0  0
   -0.2711    9.2575    0.0407 H   0  0  0  0  0  0  0  0  0  0  0  0
   -0.4210    7.0554   -1.6954 H   0  0  0  0  0  0  0  0  0  0  0  0
   -2.5824    8.9338    0.5557 H   0  0  0  0  0  0  0  0  0  0  0  0
   -2.3474   10.3653   -0.5036 H   0  0  0  0  0  0  0  0  0  0  0  0
   -3.9195    9.4964   -0.5036 H   0  0  0  0  0  0  0  0  0  0  0  0
   -4.0073    7.1629   -1.4858 H   0  0  0  0  0  0  0  0  0  0  0  0
   -3.9873    8.3250   -2.8554 H   0  0  0  0  0  0  0  0  0  0  0  0
   -2.8713    6.9174   -2.8554 H   0  0  0  0  0  0  0  0  0  0  0  0
    3.3097   11.6465   -0.8714 H   0  0  0  0  0  0  0  0  0  0  0  0
    3.1232   11.0358   -3.2021 H   0  0  0  0  0  0  0  0  0  0  0  0
    1.5570   10.2367   -2.9468 H   0  0  0  0  0  0  0  0  0  0  0  0
    1.9369   12.7996   -4.1516 H   0  0  0  0  0  0  0  0  0  0  0  0
    0.3851   12.2025   -3.5691 H   0  0  0  0  0  0  0  0  0  0  0  0
    3.3217   14.2099   -1.1814 H   0  0  0  0  0  0  0  0  0  0  0  0
    3.5890   13.3471   -2.7341 H   0  0  0  0  0  0  0  0  0  0  0  0
    2.8787   14.9971   -2.7341 H   0  0  0  0  0  0  0  0  0  0  0  0
   -0.5332   13.9407   -2.1551 H   0  0  0  0  0  0  0  0  0  0  0  0
    0.7658   14.9205   -4.1546 H   0  0  0  0  0  0  0  0  0  0  0  0
   -0.6435   15.8306   -3.3967 H   0  0  0  0  0  0  0  0  0  0  0  0
    1.4636   17.2741   -4.0441 H   0  0  0  0  0  0  0  0  0  0  0  0
    2.2784   15.9887   -0.3042 H   0  0  0  0  0  0  0  0  0  0  0  0
    0.0439   18.0759    0.0752 H   0  0  0  0  0  0  0  0  0  0  0  0
    0.8621   17.1018    1.3763 H   0  0  0  0  0  0  0  0  0  0  0  0
    1.7052   19.4252    1.2752 H   0  0  0  0  0  0  0  0  0  0  0  0
    2.9771   18.1952    0.9078 H   0  0  0  0  0  0  0  0  0  0  0  0
    3.1981   20.0170   -0.6385 H   0  0  0  0  0  0  0  0  0  0  0  0
    1.2610   20.9900   -0.8210 H   0  0  0  0  0  0  0  0  0  0  0  0
    4.2922   17.7129   -0.5360 H   0  0  0  0  0  0  0  0  0  0  0  0
    4.2169   16.7729   -2.0649 H   0  0  0  0  0  0  0  0  0  0  0  0
    4.8990   18.4346   -2.0649 H   0  0  0  0  0  0  0  0  0  0  0  0
    3.0081   20.2176   -3.0091 H   0  0  0  0  0  0  0  0  0  0  0  0
    3.6986   18.7699   -3.8178 H   0  0  0  0  0  0  0  0  0  0  0  0
    1.9223   19.0370   -3.8178 H   0  0  0  0  0  0  0  0  0  0  0  0
   -1.4257   16.0249    0.4307 H   0  0  0  0  0  0  0  0  0  0  0  0
   -1.1713   16.8905   -1.1225 H   0  0  0  0  0  0  0  0  0  0  0  0
   -1.8395   15.2231   -1.1225 H   0  0  0  0  0  0  0  0  0  0  0  0
    0.8001   15.0280    1.3874 H   0  0  0  0  0  0  0  0  0  0  0  0
   -0.4891   13.9024    0.6760 H   0  0  0  0  0  0  0  0  0  0  0  0
    2.5206   13.6682    0.4095 H   0  0  0  0  0  0  0  0  0  0  0  0
    1.3744   12.5670    1.2701 H   0  0  0  0  0  0  0  0  0  0  0  0
   -0.4302   11.6774    0.2551 H   0  0  0  0  0  0  0  0  0  0  0  0
   -0.8736   12.4623   -1.2987 H   0  0  0  0  0  0  0  0  0  0  0  0
   -0.1277   10.8282   -1.2987 H   0  0  0  0  0  0  0  0  0  0  0  0
  1  2  1  0
  2  3  1  0
  3  4  1  0
  4  5  1  0
  5  6  1  0
  6  7  1  0
  7  8  1  0
  7  9  1  0
  2 10  1  0
 10 11  1  0
 11 12  1  0
 12 13  1  0
 13 14  1  1
 13 15  1  0
 15 16  1  0
 16 17  1  0
 17 18  2  0
 18 19  1  0
 19 20  1  0
 20 21  1  0
 21 22  1  0
 22 23  1  0
 22 24  1  0
 24 25  1  0
 24 26  1  0
 19 27  1  0
 27 28  1  1
 27 29  1  0
 29 30  1  0
 30 31  1  0
 31 32  1  1
  7  5  1  0
 31 10  1  0
 31 13  1  0
 27 15  1  0
 24 18  1  0
  1 33  1  0
  1 34  1  0
  1 35  1  0
  2 36  1  1
  3 37  1  0
  3 38  1  0
  4 39  1  0
  4 40  1  0
  5 41  1  6
  8 42  1  0
  8 43  1  0
  8 44  1  0
  9 45  1  0
  9 46  1  0
  9 47  1  0
 10 48  1  6
 11 49  1  0
 11 50  1  0
 12 51  1  0
 12 52  1  0
 14 53  1  0
 14 54  1  0
 14 55  1  0
 15 56  1  6
 16 57  1  0
 16 58  1  0
 17 59  1  0
 19 60  1  1
 20 61  1  0
 20 62  1  0
 21 63  1  0
 21 64  1  0
 22 65  1  1
 23 66  1  0
 25 67  1  0
 25 68  1  0
 25 69  1  0
 26 70  1  0
 26 71  1  0
 26 72  1  0
 28 73  1  0
 28 74  1  0
 28 75  1  0
 29 76  1  0
 29 77  1  0
 30 78  1  0
 30 79  1  0
 32 80  1  0
 32 81  1  0
 32 82  1  0
M  END
>  <meeko>  (20) 
{"is_sidechain": [false], "intermolecular_energy": 2.731, "internal_energy": -0.839}

$$$$
