EPH_relaxed_0001_pdb2pqr_Repair_393_r2_0001_out
     RDKit          3D

 82 86  0  0  0  0  0  0  0  0999 V2000
   -1.8430    8.7880   -1.8910 C   0  0  0  0  0  0  0  0  0  0  0  0
   -1.8190    9.0390   -0.3810 C   0  0  2  0  0  0  0  0  0  0  0  0
   -3.2360    9.2140    0.2020 C   0  0  0  0  0  0  0  0  0  0  0  0
   -4.3430    9.1880   -0.8550 C   0  0  0  0  0  0  0  0  0  0  0  0
   -5.0780    7.8810   -0.8560 C   0  0  2  0  0  0  0  0  0  0  0  0
   -5.3620    7.3550   -2.1590 O   0  0  0  0  0  0  0  0  0  0  0  0
   -6.5000    7.7210   -1.3610 C   0  0  0  0  0  0  0  0  0  0  0  0
   -7.2720    8.8840   -1.9000 C   0  0  0  0  0  0  0  0  0  0  0  0
   -7.3010    6.5510   -0.8820 C   0  0  0  0  0  0  0  0  0  0  0  0
   -0.9730   10.2690   -0.0720 C   0  0  1  0  0  0  0  0  0  0  0  0
    0.1200    9.9900    0.9930 C   0  0  0  0  0  0  0  0  0  0  0  0
    1.3510   10.8490    0.6070 C   0  0  0  0  0  0  0  0  0  0  0  0
    0.8200   11.8340   -0.4610 C   0  0  1  0  0  0  0  0  0  0  0  0
    0.1240   12.9700    0.3530 C   0  0  0  0  0  0  0  0  0  0  0  0
    1.8760   12.4050   -1.4620 C   0  0  2  0  0  0  0  0  0  0  0  0
    2.9930   13.2480   -0.8220 C   0  0  0  0  0  0  0  0  0  0  0  0
    2.7100   14.7110   -0.7240 C   0  0  0  0  0  0  0  0  0  0  0  0
    1.7360   15.3650   -1.3840 C   0  0  0  0  0  0  0  0  0  0  0  0
    0.8560   14.6410   -2.4110 C   0  0  1  0  0  0  0  0  0  0  0  0
    0.7420   15.5020   -3.6950 C   0  0  0  0  0  0  0  0  0  0  0  0
    0.2570   16.9200   -3.4080 C   0  0  0  0  0  0  0  0  0  0  0  0
    1.1900   17.6280   -2.4290 C   0  0  2  0  0  0  0  0  0  0  0  0
    2.4570   17.8300   -3.0620 O   0  0  0  0  0  0  0  0  0  0  0  0
    1.3890   16.8470   -1.0990 C   0  0  0  0  0  0  0  0  0  0  0  0
    0.0810   16.8900   -0.2700 C   0  0  0  0  0  0  0  0  0  0  0  0
    2.4590   17.5970   -0.2610 C   0  0  0  0  0  0  0  0  0  0  0  0
    1.2500   13.1320   -2.7200 C   0  0  1  0  0  0  0  0  0  0  0  0
    2.3300   13.0850   -3.8450 C   0  0  0  0  0  0  0  0  0  0  0  0
   -0.0110   12.3760   -3.2830 C   0  0  0  0  0  0  0  0  0  0  0  0
   -0.9530   11.7320   -2.2480 C   0  0  0  0  0  0  0  0  0  0  0  0
   -0.1660   10.8890   -1.2400 C   0  0  2  0  0  0  0  0  0  0  0  0
    0.5260    9.7250   -2.0260 C   0  0  0  0  0  0  0  0  0  0  0  0
   -1.9461    7.7096   -2.0818 H   0  0  0  0  0  0  0  0  0  0  0  0
   -2.6941    9.3225   -2.3381 H   0  0  0  0  0  0  0  0  0  0  0  0
   -0.9060    9.1515   -2.3381 H   0  0  0  0  0  0  0  0  0  0  0  0
   -1.3741    8.1524    0.0945 H   0  0  0  0  0  0  0  0  0  0  0  0
   -3.4201    8.3995    0.9180 H   0  0  0  0  0  0  0  0  0  0  0  0
   -3.2682   10.2055    0.6774 H   0  0  0  0  0  0  0  0  0  0  0  0
   -5.0565    9.9981   -0.6440 H   0  0  0  0  0  0  0  0  0  0  0  0
   -3.8773    9.3204   -1.8427 H   0  0  0  0  0  0  0  0  0  0  0  0
   -4.5902    7.5790    0.0825 H   0  0  0  0  0  0  0  0  0  0  0  0
   -7.6678    9.4802   -1.0646 H   0  0  0  0  0  0  0  0  0  0  0  0
   -6.6096    9.5101   -2.5158 H   0  0  0  0  0  0  0  0  0  0  0  0
   -8.1062    8.5166   -2.5158 H   0  0  0  0  0  0  0  0  0  0  0  0
   -7.3097    6.5382    0.2179 H   0  0  0  0  0  0  0  0  0  0  0  0
   -8.3321    6.6348   -1.2559 H   0  0  0  0  0  0  0  0  0  0  0  0
   -6.8499    5.6200   -1.2559 H   0  0  0  0  0  0  0  0  0  0  0  0
   -1.7654   10.9620    0.2472 H   0  0  0  0  0  0  0  0  0  0  0  0
   -0.2427   10.2752    1.9916 H   0  0  0  0  0  0  0  0  0  0  0  0
    0.3783    8.9212    1.0229 H   0  0  0  0  0  0  0  0  0  0  0  0
    1.7338   11.3944    1.4822 H   0  0  0  0  0  0  0  0  0  0  0  0
    2.1854   10.2377    0.2326 H   0  0  0  0  0  0  0  0  0  0  0  0
    0.2430   12.7757    1.4291 H   0  0  0  0  0  0  0  0  0  0  0  0
    0.5851   13.9365    0.1017 H   0  0  0  0  0  0  0  0  0  0  0  0
   -0.9465   12.9981    0.1017 H   0  0  0  0  0  0  0  0  0  0  0  0
    2.3666   11.4930   -1.8330 H   0  0  0  0  0  0  0  0  0  0  0  0
    3.1669   12.8664    0.1949 H   0  0  0  0  0  0  0  0  0  0  0  0
    3.8661   13.1501   -1.4840 H   0  0  0  0  0  0  0  0  0  0  0  0
    3.3517   15.3044   -0.0560 H   0  0  0  0  0  0  0  0  0  0  0  0
   -0.1342   14.5374   -1.9434 H   0  0  0  0  0  0  0  0  0  0  0  0
    1.7320   15.5576   -4.1712 H   0  0  0  0  0  0  0  0  0  0  0  0
    0.0022   15.0231   -4.3533 H   0  0  0  0  0  0  0  0  0  0  0  0
    0.2258   17.4873   -4.3499 H   0  0  0  0  0  0  0  0  0  0  0  0
   -0.7458   16.8640   -2.9593 H   0  0  0  0  0  0  0  0  0  0  0  0
    0.7220   18.5873   -2.1632 H   0  0  0  0  0  0  0  0  0  0  0  0
    2.2950   18.2930   -3.9010 H   0  0  0  0  0  0  0  0  0  0  0  0
    0.3261   16.8819    0.8023 H   0  0  0  0  0  0  0  0  0  0  0  0
   -0.4764   17.8070   -0.5118 H   0  0  0  0  0  0  0  0  0  0  0  0
   -0.5354   16.0116   -0.5118 H   0  0  0  0  0  0  0  0  0  0  0  0
    2.2533   17.4528    0.8099 H   0  0  0  0  0  0  0  0  0  0  0  0
    3.4565   17.1994   -0.4996 H   0  0  0  0  0  0  0  0  0  0  0  0
    2.4255   18.6703   -0.4996 H   0  0  0  0  0  0  0  0  0  0  0  0
    3.3309   13.0414   -3.3908 H   0  0  0  0  0  0  0  0  0  0  0  0
    2.1712   12.1929   -4.4687 H   0  0  0  0  0  0  0  0  0  0  0  0
    2.2493   13.9875   -4.4687 H   0  0  0  0  0  0  0  0  0  0  0  0
   -0.6006   13.0996   -3.8651 H   0  0  0  0  0  0  0  0  0  0  0  0
    0.3934   11.5359   -3.8668 H   0  0  0  0  0  0  0  0  0  0  0  0
   -1.4926   12.5253   -1.7100 H   0  0  0  0  0  0  0  0  0  0  0  0
   -1.6599   11.0762   -2.7774 H   0  0  0  0  0  0  0  0  0  0  0  0
    0.9541    9.0049   -1.3131 H   0  0  0  0  0  0  0  0  0  0  0  0
   -0.2170    9.2172   -2.6585 H   0  0  0  0  0  0  0  0  0  0  0  0
    1.3271   10.1351   -2.6585 H   0  0  0  0  0  0  0  0  0  0  0  0
  1  2  1  0
  2  3  1  0
  3  4  1  0
  4  5  1  0
  5  6  1  0
  6  7  1  0
  7  8  1  0
  7  9  1  0
  2 10  1  0
 10 11  1  0
 11 12  1  0
 12 13  1  0
 13 14  1  1
 13 15  1  0
 15 16  1  0
 16 17  1  0
 17 18  2  0
 18 19  1  0
 19 20  1  0
 20 21  1  0
 21 22  1  0
 22 23  1  0
 22 24  1  0
 24 25  1  0
 24 26  1  0
 19 27  1  0
 27 28  1  6
 27 29  1  0
 29 30  1  0
 30 31  1  0
 31 32  1  6
  7  5  1  0
 31 10  1  0
 31 13  1  0
 27 15  1  0
 24 18  1  0
  1 33  1  0
  1 34  1  0
  1 35  1  0
  2 36  1  1
  3 37  1  0
  3 38  1  0
  4 39  1  0
  4 40  1  0
  5 41  1  1
  8 42  1  0
  8 43  1  0
  8 44  1  0
  9 45  1  0
  9 46  1  0
  9 47  1  0
 10 48  1  1
 11 49  1  0
 11 50  1  0
 12 51  1  0
 12 52  1  0
 14 53  1  0
 14 54  1  0
 14 55  1  0
 15 56  1  6
 16 57  1  0
 16 58  1  0
 17 59  1  0
 19 60  1  1
 20 61  1  0
 20 62  1  0
 21 63  1  0
 21 64  1  0
 22 65  1  1
 23 66  1  0
 25 67  1  0
 25 68  1  0
 25 69  1  0
 26 70  1  0
 26 71  1  0
 26 72  1  0
 28 73  1  0
 28 74  1  0
 28 75  1  0
 29 76  1  0
 29 77  1  0
 30 78  1  0
 30 79  1  0
 32 80  1  0
 32 81  1  0
 32 82  1  0
M  END
>  <meeko>  (1) 
{"is_sidechain": [false], "intermolecular_energy": 2.731, "internal_energy": -0.839}

$$$$
EPH_relaxed_0001_pdb2pqr_Repair_393_r2_0001_out
     RDKit          3D

 82 86  0  0  0  0  0  0  0  0999 V2000
    4.1680   17.5850   -0.5970 C   0  0  0  0  0  0  0  0  0  0  0  0
    2.8080   18.1360   -0.1600 C   0  0  2  0  0  0  0  0  0  0  0  0
    2.8700   18.7970    1.2320 C   0  0  0  0  0  0  0  0  0  0  0  0
    4.2840   18.8750    1.8140 C   0  0  0  0  0  0  0  0  0  0  0  0
    4.2740   19.3660    3.2300 C   0  0  2  0  0  0  0  0  0  0  0  0
    5.3890   20.1940    3.5840 O   0  0  0  0  0  0  0  0  0  0  0  0
    5.2900   18.9370    4.2720 C   0  0  0  0  0  0  0  0  0  0  0  0
    6.3870   17.9740    3.9410 C   0  0  0  0  0  0  0  0  0  0  0  0
    4.9300   19.0680    5.7190 C   0  0  0  0  0  0  0  0  0  0  0  0
    1.7710   17.0190   -0.1600 C   0  0  1  0  0  0  0  0  0  0  0  0
    0.3400   17.5320   -0.4740 C   0  0  0  0  0  0  0  0  0  0  0  0
   -0.3670   16.4180   -1.2870 C   0  0  0  0  0  0  0  0  0  0  0  0
    0.5490   15.1810   -1.1310 C   0  0  1  0  0  0  0  0  0  0  0  0
    0.1750   14.5780    0.2590 C   0  0  0  0  0  0  0  0  0  0  0  0
    0.4630   14.1100   -2.2670 C   0  0  2  0  0  0  0  0  0  0  0  0
   -0.9100   13.4340   -2.4230 C   0  0  0  0  0  0  0  0  0  0  0  0
   -1.1040   12.1900   -1.6210 C   0  0  0  0  0  0  0  0  0  0  0  0
   -0.1250   11.4800   -1.0300 C   0  0  0  0  0  0  0  0  0  0  0  0
    1.3490   11.8600   -1.2220 C   0  0  1  0  0  0  0  0  0  0  0  0
    2.1740   10.5860   -1.5430 C   0  0  0  0  0  0  0  0  0  0  0  0
    1.9850    9.4880   -0.5000 C   0  0  0  0  0  0  0  0  0  0  0  0
    0.5140    9.0970   -0.3800 C   0  0  2  0  0  0  0  0  0  0  0  0
    0.1020    8.4750   -1.6010 O   0  0  0  0  0  0  0  0  0  0  0  0
   -0.4160   10.3020   -0.0670 C   0  0  0  0  0  0  0  0  0  0  0  0
   -0.1700   10.7870    1.3830 C   0  0  0  0  0  0  0  0  0  0  0  0
   -1.8830    9.7970   -0.1130 C   0  0  0  0  0  0  0  0  0  0  0  0
    1.6330   13.0440   -2.2430 C   0  0  1  0  0  0  0  0  0  0  0  0
    1.7510   12.4810   -3.6920 C   0  0  0  0  0  0  0  0  0  0  0  0
    3.0260   13.6930   -1.9030 C   0  0  0  0  0  0  0  0  0  0  0  0
    3.0290   14.8270   -0.8600 C   0  0  0  0  0  0  0  0  0  0  0  0
    1.9590   15.8740   -1.1860 C   0  0  2  0  0  0  0  0  0  0  0  0
    2.3210   16.5140   -2.5700 C   0  0  0  0  0  0  0  0  0  0  0  0
    4.7680   17.3419    0.2923 H   0  0  0  0  0  0  0  0  0  0  0  0
    4.0193   16.6762   -1.1986 H   0  0  0  0  0  0  0  0  0  0  0  0
    4.6938   18.3410   -1.1986 H   0  0  0  0  0  0  0  0  0  0  0  0
    2.5177   18.9132   -0.8823 H   0  0  0  0  0  0  0  0  0  0  0  0
    2.4717   19.8190    1.1492 H   0  0  0  0  0  0  0  0  0  0  0  0
    2.2764   18.1691    1.9127 H   0  0  0  0  0  0  0  0  0  0  0  0
    4.7363   17.8726    1.7874 H   0  0  0  0  0  0  0  0  0  0  0  0
    4.8654   19.5859    1.2085 H   0  0  0  0  0  0  0  0  0  0  0  0
    3.1743   19.3907    3.2383 H   0  0  0  0  0  0  0  0  0  0  0  0
    6.8281   17.5868    4.8713 H   0  0  0  0  0  0  0  0  0  0  0  0
    5.9770   17.1388    3.3542 H   0  0  0  0  0  0  0  0  0  0  0  0
    7.1621   18.4887    3.3542 H   0  0  0  0  0  0  0  0  0  0  0  0
    5.7839   18.7573    6.3389 H   0  0  0  0  0  0  0  0  0  0  0  0
    4.6779   20.1155    5.9407 H   0  0  0  0  0  0  0  0  0  0  0  0
    4.0636   18.4275    5.9407 H   0  0  0  0  0  0  0  0  0  0  0  0
    1.9129   16.6361    0.8614 H   0  0  0  0  0  0  0  0  0  0  0  0
   -0.2071   17.7237    0.4608 H   0  0  0  0  0  0  0  0  0  0  0  0
    0.3741   18.4736   -1.0417 H   0  0  0  0  0  0  0  0  0  0  0  0
   -1.3677   16.2144   -0.8782 H   0  0  0  0  0  0  0  0  0  0  0  0
   -0.5134   16.6989   -2.3404 H   0  0  0  0  0  0  0  0  0  0  0  0
    0.5740   15.2213    1.0571 H   0  0  0  0  0  0  0  0  0  0  0  0
   -0.9196   14.5172    0.3498 H   0  0  0  0  0  0  0  0  0  0  0  0
    0.6070   13.5704    0.3498 H   0  0  0  0  0  0  0  0  0  0  0  0
    0.6024   14.7163   -3.1742 H   0  0  0  0  0  0  0  0  0  0  0  0
   -1.6812   14.1574   -2.1198 H   0  0  0  0  0  0  0  0  0  0  0  0
   -0.9809   13.1298   -3.4777 H   0  0  0  0  0  0  0  0  0  0  0  0
   -2.1341   11.8225   -1.5030 H   0  0  0  0  0  0  0  0  0  0  0  0
    1.6798   12.2881   -0.2643 H   0  0  0  0  0  0  0  0  0  0  0  0
    1.8584   10.1993   -2.5232 H   0  0  0  0  0  0  0  0  0  0  0  0
    3.2373   10.8678   -1.5421 H   0  0  0  0  0  0  0  0  0  0  0  0
    2.5692    8.6046   -0.7973 H   0  0  0  0  0  0  0  0  0  0  0  0
    2.3284    9.8662    0.4742 H   0  0  0  0  0  0  0  0  0  0  0  0
    0.4244    8.4033    0.4690 H   0  0  0  0  0  0  0  0  0  0  0  0
    0.6720    7.7000   -1.7440 H   0  0  0  0  0  0  0  0  0  0  0  0
   -0.5510   10.0358    2.0905 H   0  0  0  0  0  0  0  0  0  0  0  0
    0.9089   10.9286    1.5442 H   0  0  0  0  0  0  0  0  0  0  0  0
   -0.6931   11.7411    1.5442 H   0  0  0  0  0  0  0  0  0  0  0  0
   -2.2586    9.6677    0.9128 H   0  0  0  0  0  0  0  0  0  0  0  0
   -2.5074   10.5319   -0.6422 H   0  0  0  0  0  0  0  0  0  0  0  0
   -1.9227    8.8335   -0.6422 H   0  0  0  0  0  0  0  0  0  0  0  0
    1.9765   11.4052   -3.6501 H   0  0  0  0  0  0  0  0  0  0  0  0
    0.8008   12.6361   -4.2241 H   0  0  0  0  0  0  0  0  0  0  0  0
    2.5589   13.0045   -4.2241 H   0  0  0  0  0  0  0  0  0  0  0  0
    3.6824   12.8941   -1.5276 H   0  0  0  0  0  0  0  0  0  0  0  0
    3.3604   14.1631   -2.8396 H   0  0  0  0  0  0  0  0  0  0  0  0
    2.8259   14.4022    0.1341 H   0  0  0  0  0  0  0  0  0  0  0  0
    4.0144   15.3156   -0.8756 H   0  0  0  0  0  0  0  0  0  0  0  0
    2.8566   17.4609   -2.4072 H   0  0  0  0  0  0  0  0  0  0  0  0
    2.9620   15.8230   -3.1371 H   0  0  0  0  0  0  0  0  0  0  0  0
    1.3985   16.7073   -3.1371 H   0  0  0  0  0  0  0  0  0  0  0  0
  1  2  1  0
  2  3  1  0
  3  4  1  0
  4  5  1  0
  5  6  1  0
  6  7  1  0
  7  8  1  0
  7  9  1  0
  2 10  1  0
 10 11  1  0
 11 12  1  0
 12 13  1  0
 13 14  1  1
 13 15  1  0
 15 16  1  0
 16 17  1  0
 17 18  2  0
 18 19  1  0
 19 20  1  0
 20 21  1  0
 21 22  1  0
 22 23  1  0
 22 24  1  0
 24 25  1  0
 24 26  1  0
 19 27  1  0
 27 28  1  6
 27 29  1  0
 29 30  1  0
 30 31  1  0
 31 32  1  6
  7  5  1  0
 31 10  1  0
 31 13  1  0
 27 15  1  0
 24 18  1  0
  1 33  1  0
  1 34  1  0
  1 35  1  0
  2 36  1  6
  3 37  1  0
  3 38  1  0
  4 39  1  0
  4 40  1  0
  5 41  1  1
  8 42  1  0
  8 43  1  0
  8 44  1  0
  9 45  1  0
  9 46  1  0
  9 47  1  0
 10 48  1  1
 11 49  1  0
 11 50  1  0
 12 51  1  0
 12 52  1  0
 14 53  1  0
 14 54  1  0
 14 55  1  0
 15 56  1  6
 16 57  1  0
 16 58  1  0
 17 59  1  0
 19 60  1  1
 20 61  1  0
 20 62  1  0
 21 63  1  0
 21 64  1  0
 22 65  1  1
 23 66  1  0
 25 67  1  0
 25 68  1  0
 25 69  1  0
 26 70  1  0
 26 71  1  0
 26 72  1  0
 28 73  1  0
 28 74  1  0
 28 75  1  0
 29 76  1  0
 29 77  1  0
 30 78  1  0
 30 79  1  0
 32 80  1  0
 32 81  1  0
 32 82  1  0
M  END
>  <meeko>  (2) 
{"is_sidechain": [false], "intermolecular_energy": 2.731, "internal_energy": -0.839}

$$$$
EPH_relaxed_0001_pdb2pqr_Repair_393_r2_0001_out
     RDKit          3D

 82 86  0  0  0  0  0  0  0  0999 V2000
    2.2490   18.0470   -2.6970 C   0  0  0  0  0  0  0  0  0  0  0  0
    0.9660   17.6330   -1.9700 C   0  0  2  0  0  0  0  0  0  0  0  0
    1.1220   17.6920   -0.4370 C   0  0  0  0  0  0  0  0  0  0  0  0
    0.7910   19.0610    0.1630 C   0  0  0  0  0  0  0  0  0  0  0  0
   -0.6570   19.1700    0.5310 C   0  0  2  0  0  0  0  0  0  0  0  0
   -1.5210   18.2580   -0.1610 O   0  0  0  0  0  0  0  0  0  0  0  0
   -1.7300   19.6550   -0.4270 C   0  0  0  0  0  0  0  0  0  0  0  0
   -1.3980   20.0640   -1.8280 C   0  0  0  0  0  0  0  0  0  0  0  0
   -3.0060   20.1920    0.1410 C   0  0  0  0  0  0  0  0  0  0  0  0
    0.5560   16.2290   -2.3980 C   0  0  1  0  0  0  0  0  0  0  0  0
    0.7080   16.0020   -3.9260 C   0  0  0  0  0  0  0  0  0  0  0  0
    1.1400   14.5260   -4.1180 C   0  0  0  0  0  0  0  0  0  0  0  0
    0.9030   13.8670   -2.7390 C   0  0  1  0  0  0  0  0  0  0  0  0
   -0.6240   13.5470   -2.7050 C   0  0  0  0  0  0  0  0  0  0  0  0
    1.7650   12.6020   -2.4200 C   0  0  2  0  0  0  0  0  0  0  0  0
    1.5350   11.4030   -3.3550 C   0  0  0  0  0  0  0  0  0  0  0  0
    0.4770   10.4460   -2.9170 C   0  0  0  0  0  0  0  0  0  0  0  0
   -0.0620   10.3860   -1.6850 C   0  0  0  0  0  0  0  0  0  0  0  0
    0.4620   11.2780   -0.5520 C   0  0  1  0  0  0  0  0  0  0  0  0
    0.6610   10.4260    0.7290 C   0  0  0  0  0  0  0  0  0  0  0  0
   -0.5980    9.6600    1.1240 C   0  0  0  0  0  0  0  0  0  0  0  0
   -1.0550    8.7410   -0.0060 C   0  0  2  0  0  0  0  0  0  0  0  0
   -0.0780    7.7100   -0.1850 O   0  0  0  0  0  0  0  0  0  0  0  0
   -1.2780    9.4870   -1.3510 C   0  0  0  0  0  0  0  0  0  0  0  0
   -2.5330   10.3890   -1.2440 C   0  0  0  0  0  0  0  0  0  0  0  0
   -1.5980    8.4260   -2.4390 C   0  0  0  0  0  0  0  0  0  0  0  0
    1.7350   12.1640   -0.9000 C   0  0  1  0  0  0  0  0  0  0  0  0
    3.0380   11.3460   -0.6460 C   0  0  0  0  0  0  0  0  0  0  0  0
    1.7870   13.3960    0.0790 C   0  0  0  0  0  0  0  0  0  0  0  0
    1.0120   14.6570   -0.3490 C   0  0  0  0  0  0  0  0  0  0  0  0
    1.3470   15.0420   -1.7930 C   0  0  2  0  0  0  0  0  0  0  0  0
    2.8730   15.3910   -1.8540 C   0  0  0  0  0  0  0  0  0  0  0  0
    3.0246   18.2973   -1.9582 H   0  0  0  0  0  0  0  0  0  0  0  0
    2.5977   17.2158   -3.3274 H   0  0  0  0  0  0  0  0  0  0  0  0
    2.0461   18.9253   -3.3274 H   0  0  0  0  0  0  0  0  0  0  0  0
    0.1811   18.3511   -2.2497 H   0  0  0  0  0  0  0  0  0  0  0  0
    0.4490   16.9452    0.0096 H   0  0  0  0  0  0  0  0  0  0  0  0
    2.1800   17.4904   -0.2135 H   0  0  0  0  0  0  0  0  0  0  0  0
    1.4005   19.2110    1.0663 H   0  0  0  0  0  0  0  0  0  0  0  0
    1.0110   19.8288   -0.5934 H   0  0  0  0  0  0  0  0  0  0  0  0
   -0.3979   19.4642    1.5588 H   0  0  0  0  0  0  0  0  0  0  0  0
   -0.7049   20.9179   -1.8062 H   0  0  0  0  0  0  0  0  0  0  0  0
   -0.9252   19.2213   -2.3537 H   0  0  0  0  0  0  0  0  0  0  0  0
   -2.3199   20.3534   -2.3537 H   0  0  0  0  0  0  0  0  0  0  0  0
   -2.9558   20.1709    1.2397 H   0  0  0  0  0  0  0  0  0  0  0  0
   -3.1517   21.2278   -0.1996 H   0  0  0  0  0  0  0  0  0  0  0  0
   -3.8485   19.5721   -0.1996 H   0  0  0  0  0  0  0  0  0  0  0  0
   -0.4800   16.2184   -2.0284 H   0  0  0  0  0  0  0  0  0  0  0  0
   -0.2507   16.1852   -4.4334 H   0  0  0  0  0  0  0  0  0  0  0  0
    1.4510   16.6901   -4.3555 H   0  0  0  0  0  0  0  0  0  0  0  0
    0.5272   14.0396   -4.8912 H   0  0  0  0  0  0  0  0  0  0  0  0
    2.1854   14.4372   -4.4484 H   0  0  0  0  0  0  0  0  0  0  0  0
   -0.9607   13.4764   -1.6602 H   0  0  0  0  0  0  0  0  0  0  0  0
   -1.1781   14.3485   -3.2154 H   0  0  0  0  0  0  0  0  0  0  0  0
   -0.8096   12.5904   -3.2154 H   0  0  0  0  0  0  0  0  0  0  0  0
    2.7859   12.9531   -2.6309 H   0  0  0  0  0  0  0  0  0  0  0  0
    1.2523   11.7927   -4.3440 H   0  0  0  0  0  0  0  0  0  0  0  0
    2.4768   10.8346   -3.3578 H   0  0  0  0  0  0  0  0  0  0  0  0
    0.1062    9.7289   -3.6642 H   0  0  0  0  0  0  0  0  0  0  0  0
   -0.3155   12.0364   -0.3778 H   0  0  0  0  0  0  0  0  0  0  0  0
    1.4713    9.7040    0.5498 H   0  0  0  0  0  0  0  0  0  0  0  0
    0.9056   11.1133    1.5523 H   0  0  0  0  0  0  0  0  0  0  0  0
   -0.3853    9.0540    2.0170 H   0  0  0  0  0  0  0  0  0  0  0  0
   -1.3988   10.3847    1.3325 H   0  0  0  0  0  0  0  0  0  0  0  0
   -2.0290    8.3206    0.2847 H   0  0  0  0  0  0  0  0  0  0  0  0
   -0.5380    6.8560   -0.1240 H   0  0  0  0  0  0  0  0  0  0  0  0
   -2.7719   10.5607   -0.1841 H   0  0  0  0  0  0  0  0  0  0  0  0
   -2.3349   11.3527   -1.7360 H   0  0  0  0  0  0  0  0  0  0  0  0
   -3.3833    9.8941   -1.7360 H   0  0  0  0  0  0  0  0  0  0  0  0
   -1.8833    7.4799   -1.9558 H   0  0  0  0  0  0  0  0  0  0  0  0
   -2.4285    8.7826   -3.0659 H   0  0  0  0  0  0  0  0  0  0  0  0
   -0.7088    8.2640   -3.0659 H   0  0  0  0  0  0  0  0  0  0  0  0
    3.2013   11.2435    0.4370 H   0  0  0  0  0  0  0  0  0  0  0  0
    2.9384   10.3481   -1.0979 H   0  0  0  0  0  0  0  0  0  0  0  0
    3.8935   11.8694   -1.0979 H   0  0  0  0  0  0  0  0  0  0  0  0
    1.3810   13.0687    1.0475 H   0  0  0  0  0  0  0  0  0  0  0  0
    2.8435   13.7014    0.1013 H   0  0  0  0  0  0  0  0  0  0  0  0
   -0.0674   14.4602   -0.2701 H   0  0  0  0  0  0  0  0  0  0  0  0
    1.3010   15.4876    0.3117 H   0  0  0  0  0  0  0  0  0  0  0  0
    3.2695   15.4817   -0.8320 H   0  0  0  0  0  0  0  0  0  0  0  0
    3.4107   14.5926   -2.3864 H   0  0  0  0  0  0  0  0  0  0  0  0
    3.0102   16.3437   -2.3864 H   0  0  0  0  0  0  0  0  0  0  0  0
  1  2  1  0
  2  3  1  0
  3  4  1  0
  4  5  1  0
  5  6  1  0
  6  7  1  0
  7  8  1  0
  7  9  1  0
  2 10  1  0
 10 11  1  0
 11 12  1  0
 12 13  1  0
 13 14  1  1
 13 15  1  0
 15 16  1  0
 16 17  1  0
 17 18  2  0
 18 19  1  0
 19 20  1  0
 20 21  1  0
 21 22  1  0
 22 23  1  0
 22 24  1  0
 24 25  1  0
 24 26  1  0
 19 27  1  0
 27 28  1  1
 27 29  1  0
 29 30  1  0
 30 31  1  0
 31 32  1  1
  7  5  1  0
 31 10  1  0
 31 13  1  0
 27 15  1  0
 24 18  1  0
  1 33  1  0
  1 34  1  0
  1 35  1  0
  2 36  1  6
  3 37  1  0
  3 38  1  0
  4 39  1  0
  4 40  1  0
  5 41  1  1
  8 42  1  0
  8 43  1  0
  8 44  1  0
  9 45  1  0
  9 46  1  0
  9 47  1  0
 10 48  1  6
 11 49  1  0
 11 50  1  0
 12 51  1  0
 12 52  1  0
 14 53  1  0
 14 54  1  0
 14 55  1  0
 15 56  1  6
 16 57  1  0
 16 58  1  0
 17 59  1  0
 19 60  1  1
 20 61  1  0
 20 62  1  0
 21 63  1  0
 21 64  1  0
 22 65  1  1
 23 66  1  0
 25 67  1  0
 25 68  1  0
 25 69  1  0
 26 70  1  0
 26 71  1  0
 26 72  1  0
 28 73  1  0
 28 74  1  0
 28 75  1  0
 29 76  1  0
 29 77  1  0
 30 78  1  0
 30 79  1  0
 32 80  1  0
 32 81  1  0
 32 82  1  0
M  END
>  <meeko>  (3) 
{"is_sidechain": [false], "intermolecular_energy": 2.731, "internal_energy": -0.839}

$$$$
EPH_relaxed_0001_pdb2pqr_Repair_393_r2_0001_out
     RDKit          3D

 82 86  0  0  0  0  0  0  0  0999 V2000
    0.3820   18.4440   -0.1310 C   0  0  0  0  0  0  0  0  0  0  0  0
    1.4680   17.3780   -0.2990 C   0  0  2  0  0  0  0  0  0  0  0  0
    2.7050   17.9210   -1.0430 C   0  0  0  0  0  0  0  0  0  0  0  0
    3.9280   18.1140   -0.1430 C   0  0  0  0  0  0  0  0  0  0  0  0
    3.5430   18.6070    1.2190 C   0  0  2  0  0  0  0  0  0  0  0  0
    3.7640   20.0070    1.4340 O   0  0  0  0  0  0  0  0  0  0  0  0
    4.5450   19.1110    2.2410 C   0  0  0  0  0  0  0  0  0  0  0  0
    6.0110   19.1460    1.9450 C   0  0  0  0  0  0  0  0  0  0  0  0
    4.1550   19.1080    3.6860 C   0  0  0  0  0  0  0  0  0  0  0  0
    0.9020   16.1720   -1.0400 C   0  0  1  0  0  0  0  0  0  0  0  0
    0.7920   16.4090   -2.5700 C   0  0  0  0  0  0  0  0  0  0  0  0
    1.0890   15.0510   -3.2560 C   0  0  0  0  0  0  0  0  0  0  0  0
    1.0320   14.0150   -2.1100 C   0  0  1  0  0  0  0  0  0  0  0  0
   -0.4880   13.7230   -1.9080 C   0  0  0  0  0  0  0  0  0  0  0  0
    1.8480   12.6990   -2.3270 C   0  0  2  0  0  0  0  0  0  0  0  0
    1.3920   11.8370   -3.5170 C   0  0  0  0  0  0  0  0  0  0  0  0
    0.3560   10.8100   -3.2010 C   0  0  0  0  0  0  0  0  0  0  0  0
    0.0180   10.3930   -1.9660 C   0  0  0  0  0  0  0  0  0  0  0  0
    0.7750   10.8980   -0.7310 C   0  0  1  0  0  0  0  0  0  0  0  0
    1.1190    9.6990    0.1910 C   0  0  0  0  0  0  0  0  0  0  0  0
   -0.1090    8.8710    0.5570 C   0  0  0  0  0  0  0  0  0  0  0  0
   -0.8010    8.3390   -0.6950 C   0  0  2  0  0  0  0  0  0  0  0  0
    0.0640    7.3930   -1.3320 O   0  0  0  0  0  0  0  0  0  0  0  0
   -1.1860    9.4560   -1.7040 C   0  0  0  0  0  0  0  0  0  0  0  0
   -2.3450   10.3040   -1.1240 C   0  0  0  0  0  0  0  0  0  0  0  0
   -1.7460    8.7740   -2.9820 C   0  0  0  0  0  0  0  0  0  0  0  0
    2.0320   11.8270   -1.0190 C   0  0  1  0  0  0  0  0  0  0  0  0
    3.3010   10.9490   -1.2440 C   0  0  0  0  0  0  0  0  0  0  0  0
    2.3210   12.7090    0.2520 C   0  0  0  0  0  0  0  0  0  0  0  0
    1.5740   14.0530    0.3500 C   0  0  0  0  0  0  0  0  0  0  0  0
    1.6990   14.8460   -0.9540 C   0  0  2  0  0  0  0  0  0  0  0  0
    3.2150   15.1730   -1.1720 C   0  0  0  0  0  0  0  0  0  0  0  0
    0.2031   18.6196    0.9401 H   0  0  0  0  0  0  0  0  0  0  0  0
    0.7105   19.3801   -0.6062 H   0  0  0  0  0  0  0  0  0  0  0  0
   -0.5479   18.0982   -0.6062 H   0  0  0  0  0  0  0  0  0  0  0  0
    1.7944   17.0766    0.7073 H   0  0  0  0  0  0  0  0  0  0  0  0
    2.9695   17.2117   -1.8411 H   0  0  0  0  0  0  0  0  0  0  0  0
    2.4348   18.9124   -1.4356 H   0  0  0  0  0  0  0  0  0  0  0  0
    4.4494   17.1510   -0.0391 H   0  0  0  0  0  0  0  0  0  0  0  0
    4.5801   18.8678   -0.6084 H   0  0  0  0  0  0  0  0  0  0  0  0
    2.7327   17.8659    1.2835 H   0  0  0  0  0  0  0  0  0  0  0  0
    6.5755   19.1595    2.8890 H   0  0  0  0  0  0  0  0  0  0  0  0
    6.2892   18.2542    1.3642 H   0  0  0  0  0  0  0  0  0  0  0  0
    6.2463   20.0500    1.3642 H   0  0  0  0  0  0  0  0  0  0  0  0
    5.0607   19.1150    4.3102 H   0  0  0  0  0  0  0  0  0  0  0  0
    3.5519   20.0015    3.9049 H   0  0  0  0  0  0  0  0  0  0  0  0
    3.5657   18.2053    3.9049 H   0  0  0  0  0  0  0  0  0  0  0  0
   -0.0595   16.0681   -0.5159 H   0  0  0  0  0  0  0  0  0  0  0  0
   -0.2213   16.7502   -2.8285 H   0  0  0  0  0  0  0  0  0  0  0  0
    1.5007   17.1821   -2.9016 H   0  0  0  0  0  0  0  0  0  0  0  0
    0.3297   14.8274   -4.0198 H   0  0  0  0  0  0  0  0  0  0  0  0
    2.0598   15.0482   -3.7732 H   0  0  0  0  0  0  0  0  0  0  0  0
   -0.7132   13.6797   -0.8322 H   0  0  0  0  0  0  0  0  0  0  0  0
   -1.0804   14.5238   -2.3747 H   0  0  0  0  0  0  0  0  0  0  0  0
   -0.7415   12.7597   -2.3747 H   0  0  0  0  0  0  0  0  0  0  0  0
    2.8431   13.0811   -2.5988 H   0  0  0  0  0  0  0  0  0  0  0  0
    0.9815   12.5085   -4.2854 H   0  0  0  0  0  0  0  0  0  0  0  0
    2.2812   11.2802   -3.8476 H   0  0  0  0  0  0  0  0  0  0  0  0
   -0.1767   10.3551   -4.0491 H   0  0  0  0  0  0  0  0  0  0  0  0
    0.0880   11.5830   -0.2125 H   0  0  0  0  0  0  0  0  0  0  0  0
    1.8397    9.0502   -0.3284 H   0  0  0  0  0  0  0  0  0  0  0  0
    1.5382   10.1046    1.1236 H   0  0  0  0  0  0  0  0  0  0  0  0
    0.2026    8.0227    1.1841 H   0  0  0  0  0  0  0  0  0  0  0  0
   -0.8158    9.5134    1.1027 H   0  0  0  0  0  0  0  0  0  0  0  0
   -1.7420    7.8666   -0.3765 H   0  0  0  0  0  0  0  0  0  0  0  0
   -0.4360    6.5660   -1.4440 H   0  0  0  0  0  0  0  0  0  0  0  0
   -2.3059   10.2754   -0.0251 H   0  0  0  0  0  0  0  0  0  0  0  0
   -2.2458   11.3443   -1.4675 H   0  0  0  0  0  0  0  0  0  0  0  0
   -3.3064    9.8946   -1.4675 H   0  0  0  0  0  0  0  0  0  0  0  0
   -2.4198    7.9534   -2.6944 H   0  0  0  0  0  0  0  0  0  0  0  0
   -2.3016    9.5127   -3.5784 H   0  0  0  0  0  0  0  0  0  0  0  0
   -0.9133    8.3728   -3.5784 H   0  0  0  0  0  0  0  0  0  0  0  0
    3.7224   10.6574   -0.2707 H   0  0  0  0  0  0  0  0  0  0  0  0
    3.0268   10.0465   -1.8100 H   0  0  0  0  0  0  0  0  0  0  0  0
    4.0489   11.5237   -1.8100 H   0  0  0  0  0  0  0  0  0  0  0  0
    2.0531   12.1141    1.1377 H   0  0  0  0  0  0  0  0  0  0  0  0
    3.3857   12.9762    0.1806 H   0  0  0  0  0  0  0  0  0  0  0  0
    0.5103   13.8595    0.5529 H   0  0  0  0  0  0  0  0  0  0  0  0
    2.0200   14.6436    1.1638 H   0  0  0  0  0  0  0  0  0  0  0  0
    3.7110   15.2800   -0.1960 H   0  0  0  0  0  0  0  0  0  0  0  0
    3.6888   14.3564   -1.7365 H   0  0  0  0  0  0  0  0  0  0  0  0
    3.3100   16.1123   -1.7365 H   0  0  0  0  0  0  0  0  0  0  0  0
  1  2  1  0
  2  3  1  0
  3  4  1  0
  4  5  1  0
  5  6  1  0
  6  7  1  0
  7  8  1  0
  7  9  1  0
  2 10  1  0
 10 11  1  0
 11 12  1  0
 12 13  1  0
 13 14  1  1
 13 15  1  0
 15 16  1  0
 16 17  1  0
 17 18  2  0
 18 19  1  0
 19 20  1  0
 20 21  1  0
 21 22  1  0
 22 23  1  0
 22 24  1  0
 24 25  1  0
 24 26  1  0
 19 27  1  0
 27 28  1  6
 27 29  1  0
 29 30  1  0
 30 31  1  0
 31 32  1  6
  7  5  1  0
 31 10  1  0
 31 13  1  0
 27 15  1  0
 24 18  1  0
  1 33  1  0
  1 34  1  0
  1 35  1  0
  2 36  1  1
  3 37  1  0
  3 38  1  0
  4 39  1  0
  4 40  1  0
  5 41  1  1
  8 42  1  0
  8 43  1  0
  8 44  1  0
  9 45  1  0
  9 46  1  0
  9 47  1  0
 10 48  1  1
 11 49  1  0
 11 50  1  0
 12 51  1  0
 12 52  1  0
 14 53  1  0
 14 54  1  0
 14 55  1  0
 15 56  1  6
 16 57  1  0
 16 58  1  0
 17 59  1  0
 19 60  1  1
 20 61  1  0
 20 62  1  0
 21 63  1  0
 21 64  1  0
 22 65  1  1
 23 66  1  0
 25 67  1  0
 25 68  1  0
 25 69  1  0
 26 70  1  0
 26 71  1  0
 26 72  1  0
 28 73  1  0
 28 74  1  0
 28 75  1  0
 29 76  1  0
 29 77  1  0
 30 78  1  0
 30 79  1  0
 32 80  1  0
 32 81  1  0
 32 82  1  0
M  END
>  <meeko>  (4) 
{"is_sidechain": [false], "intermolecular_energy": 2.731, "internal_energy": -0.839}

$$$$
EPH_relaxed_0001_pdb2pqr_Repair_393_r2_0001_out
     RDKit          3D

 82 86  0  0  0  0  0  0  0  0999 V2000
    3.7740   17.5750    0.4390 C   0  0  0  0  0  0  0  0  0  0  0  0
    2.7750   17.8960   -0.6760 C   0  0  2  0  0  0  0  0  0  0  0  0
    2.1110   19.2730   -0.4820 C   0  0  0  0  0  0  0  0  0  0  0  0
    1.1810   19.3430    0.7330 C   0  0  0  0  0  0  0  0  0  0  0  0
   -0.1020   20.0470    0.4100 C   0  0  2  0  0  0  0  0  0  0  0  0
   -1.0000   20.1940    1.5180 O   0  0  0  0  0  0  0  0  0  0  0  0
   -1.4590   19.3670    0.4360 C   0  0  0  0  0  0  0  0  0  0  0  0
   -1.6000   17.9210    0.7940 C   0  0  0  0  0  0  0  0  0  0  0  0
   -2.5770   19.9730   -0.3530 C   0  0  0  0  0  0  0  0  0  0  0  0
    1.7090   16.8090   -0.7470 C   0  0  1  0  0  0  0  0  0  0  0  0
    0.4160   17.2860   -1.4600 C   0  0  0  0  0  0  0  0  0  0  0  0
   -0.1440   16.0670   -2.2360 C   0  0  0  0  0  0  0  0  0  0  0  0
    0.6470   14.8570   -1.6850 C   0  0  1  0  0  0  0  0  0  0  0  0
   -0.0640   14.4900   -0.3450 C   0  0  0  0  0  0  0  0  0  0  0  0
    0.7660   13.6200   -2.6330 C   0  0  2  0  0  0  0  0  0  0  0  0
   -0.5680   12.9480   -3.0000 C   0  0  0  0  0  0  0  0  0  0  0  0
   -1.0030   11.8510   -2.0850 C   0  0  0  0  0  0  0  0  0  0  0  0
   -0.2220   11.2310   -1.1820 C   0  0  0  0  0  0  0  0  0  0  0  0
    1.2750   11.5530   -1.0810 C   0  0  1  0  0  0  0  0  0  0  0  0
    2.0850   10.2320   -1.0040 C   0  0  0  0  0  0  0  0  0  0  0  0
    1.6080    9.3180    0.1200 C   0  0  0  0  0  0  0  0  0  0  0  0
    0.1300    8.9730   -0.0470 C   0  0  2  0  0  0  0  0  0  0  0  0
   -0.0260    8.1700   -1.2210 O   0  0  0  0  0  0  0  0  0  0  0  0
   -0.7840   10.2260   -0.1460 C   0  0  0  0  0  0  0  0  0  0  0  0
   -0.8490   10.9330    1.2310 C   0  0  0  0  0  0  0  0  0  0  0  0
   -2.2270    9.7420   -0.4540 C   0  0  0  0  0  0  0  0  0  0  0  0
    1.8440   12.5540   -2.1760 C   0  0  1  0  0  0  0  0  0  0  0  0
    2.2590   11.7650   -3.4550 C   0  0  0  0  0  0  0  0  0  0  0  0
    3.1550   13.2290   -1.6240 C   0  0  0  0  0  0  0  0  0  0  0  0
    2.9790   14.5150   -0.7950 C   0  0  0  0  0  0  0  0  0  0  0  0
    2.0660   15.5120   -1.5160 C   0  0  2  0  0  0  0  0  0  0  0  0
    2.7660   15.9170   -2.8580 C   0  0  0  0  0  0  0  0  0  0  0  0
    3.2942   17.7292    1.4168 H   0  0  0  0  0  0  0  0  0  0  0  0
    4.0980   16.5275    0.3506 H   0  0  0  0  0  0  0  0  0  0  0  0
    4.6475   18.2377    0.3506 H   0  0  0  0  0  0  0  0  0  0  0  0
    3.3349   17.9303   -1.6222 H   0  0  0  0  0  0  0  0  0  0  0  0
    2.9032   20.0259   -0.3567 H   0  0  0  0  0  0  0  0  0  0  0  0
    1.4916   19.4592   -1.3718 H   0  0  0  0  0  0  0  0  0  0  0  0
    0.9521   18.3199    1.0659 H   0  0  0  0  0  0  0  0  0  0  0  0
    1.6932   19.9101    1.5243 H   0  0  0  0  0  0  0  0  0  0  0  0
    0.4002   20.6634   -0.3502 H   0  0  0  0  0  0  0  0  0  0  0  0
   -1.6105   17.8136    1.8887 H   0  0  0  0  0  0  0  0  0  0  0  0
   -2.5405   17.5303    0.3782 H   0  0  0  0  0  0  0  0  0  0  0  0
   -0.7527   17.3560    0.3782 H   0  0  0  0  0  0  0  0  0  0  0  0
   -3.3316   20.3820    0.3349 H   0  0  0  0  0  0  0  0  0  0  0  0
   -2.1826   20.7808   -0.9869 H   0  0  0  0  0  0  0  0  0  0  0  0
   -3.0386   19.2016   -0.9869 H   0  0  0  0  0  0  0  0  0  0  0  0
    1.5951   16.5925    0.3255 H   0  0  0  0  0  0  0  0  0  0  0  0
   -0.3190   17.6331   -0.7188 H   0  0  0  0  0  0  0  0  0  0  0  0
    0.6272   18.1238   -2.1408 H   0  0  0  0  0  0  0  0  0  0  0  0
   -1.2206   15.9465   -2.0454 H   0  0  0  0  0  0  0  0  0  0  0  0
   -0.0319   16.1780   -3.3246 H   0  0  0  0  0  0  0  0  0  0  0  0
    0.5602   14.8122    0.5015 H   0  0  0  0  0  0  0  0  0  0  0  0
   -1.0386   14.9977   -0.2960 H   0  0  0  0  0  0  0  0  0  0  0  0
   -0.2147   13.4015   -0.2960 H   0  0  0  0  0  0  0  0  0  0  0  0
    1.1385   14.0720   -3.5641 H   0  0  0  0  0  0  0  0  0  0  0  0
   -1.3499   13.7217   -2.9987 H   0  0  0  0  0  0  0  0  0  0  0  0
   -0.4125   12.4801   -3.9833 H   0  0  0  0  0  0  0  0  0  0  0  0
   -2.0503   11.5221   -2.1553 H   0  0  0  0  0  0  0  0  0  0  0  0
    1.4010   12.1231   -0.1487 H   0  0  0  0  0  0  0  0  0  0  0  0
    1.9812    9.6985   -1.9603 H   0  0  0  0  0  0  0  0  0  0  0  0
    3.1332   10.4946   -0.7986 H   0  0  0  0  0  0  0  0  0  0  0  0
    2.1983    8.3899    0.1043 H   0  0  0  0  0  0  0  0  0  0  0  0
    1.7401    9.8418    1.0782 H   0  0  0  0  0  0  0  0  0  0  0  0
   -0.1848    8.4255    0.8536 H   0  0  0  0  0  0  0  0  0  0  0  0
   -0.9780    8.1070   -1.4090 H   0  0  0  0  0  0  0  0  0  0  0  0
   -0.7800   10.1824    2.0322 H   0  0  0  0  0  0  0  0  0  0  0  0
   -0.0122   11.6415    1.3193 H   0  0  0  0  0  0  0  0  0  0  0  0
   -1.8010   11.4771    1.3193 H   0  0  0  0  0  0  0  0  0  0  0  0
   -2.7627    9.5623    0.4898 H   0  0  0  0  0  0  0  0  0  0  0  0
   -2.7558   10.5119   -1.0350 H   0  0  0  0  0  0  0  0  0  0  0  0
   -2.1846    8.8089   -1.0350 H   0  0  0  0  0  0  0  0  0  0  0  0
    2.7527   10.8264   -3.1628 H   0  0  0  0  0  0  0  0  0  0  0  0
    1.3637   11.5378   -4.0523 H   0  0  0  0  0  0  0  0  0  0  0  0
    2.9535   12.3740   -4.0523 H   0  0  0  0  0  0  0  0  0  0  0  0
    3.6668   12.4912   -0.9886 H   0  0  0  0  0  0  0  0  0  0  0  0
    3.7174   13.5378   -2.5175 H   0  0  0  0  0  0  0  0  0  0  0  0
    2.5340   14.2580    0.1776 H   0  0  0  0  0  0  0  0  0  0  0  0
    3.9660   14.9804   -0.6562 H   0  0  0  0  0  0  0  0  0  0  0  0
    3.6987   16.4566   -2.6368 H   0  0  0  0  0  0  0  0  0  0  0  0
    2.9952   15.0120   -3.4397 H   0  0  0  0  0  0  0  0  0  0  0  0
    2.0956   16.5668   -3.4397 H   0  0  0  0  0  0  0  0  0  0  0  0
  1  2  1  0
  2  3  1  0
  3  4  1  0
  4  5  1  0
  5  6  1  0
  6  7  1  0
  7  8  1  0
  7  9  1  0
  2 10  1  0
 10 11  1  0
 11 12  1  0
 12 13  1  0
 13 14  1  1
 13 15  1  0
 15 16  1  0
 16 17  1  0
 17 18  2  0
 18 19  1  0
 19 20  1  0
 20 21  1  0
 21 22  1  0
 22 23  1  0
 22 24  1  0
 24 25  1  0
 24 26  1  0
 19 27  1  0
 27 28  1  6
 27 29  1  0
 29 30  1  0
 30 31  1  0
 31 32  1  6
  7  5  1  0
 31 10  1  0
 31 13  1  0
 27 15  1  0
 24 18  1  0
  1 33  1  0
  1 34  1  0
  1 35  1  0
  2 36  1  6
  3 37  1  0
  3 38  1  0
  4 39  1  0
  4 40  1  0
  5 41  1  6
  8 42  1  0
  8 43  1  0
  8 44  1  0
  9 45  1  0
  9 46  1  0
  9 47  1  0
 10 48  1  1
 11 49  1  0
 11 50  1  0
 12 51  1  0
 12 52  1  0
 14 53  1  0
 14 54  1  0
 14 55  1  0
 15 56  1  6
 16 57  1  0
 16 58  1  0
 17 59  1  0
 19 60  1  1
 20 61  1  0
 20 62  1  0
 21 63  1  0
 21 64  1  0
 22 65  1  1
 23 66  1  0
 25 67  1  0
 25 68  1  0
 25 69  1  0
 26 70  1  0
 26 71  1  0
 26 72  1  0
 28 73  1  0
 28 74  1  0
 28 75  1  0
 29 76  1  0
 29 77  1  0
 30 78  1  0
 30 79  1  0
 32 80  1  0
 32 81  1  0
 32 82  1  0
M  END
>  <meeko>  (5) 
{"is_sidechain": [false], "intermolecular_energy": 2.731, "internal_energy": -0.839}

$$$$
EPH_relaxed_0001_pdb2pqr_Repair_393_r2_0001_out
     RDKit          3D

 82 86  0  0  0  0  0  0  0  0999 V2000
    0.3950    8.8330   -2.4350 C   0  0  0  0  0  0  0  0  0  0  0  0
    1.1490    9.9790   -3.1160 C   0  0  2  0  0  0  0  0  0  0  0  0
    2.6480    9.9830   -2.7560 C   0  0  0  0  0  0  0  0  0  0  0  0
    3.5380   10.6060   -3.8340 C   0  0  0  0  0  0  0  0  0  0  0  0
    4.9350   10.8300   -3.3390 C   0  0  2  0  0  0  0  0  0  0  0  0
    5.5480   12.0400   -3.8010 O   0  0  0  0  0  0  0  0  0  0  0  0
    6.1550   10.8150   -4.2410 C   0  0  0  0  0  0  0  0  0  0  0  0
    6.0350   10.5690   -5.7120 C   0  0  0  0  0  0  0  0  0  0  0  0
    7.4950   10.5520   -3.6270 C   0  0  0  0  0  0  0  0  0  0  0  0
    0.5180   11.3140   -2.7380 C   0  0  1  0  0  0  0  0  0  0  0  0
   -0.8630   11.1480   -2.0490 C   0  0  0  0  0  0  0  0  0  0  0  0
   -0.9740   12.2780   -0.9930 C   0  0  0  0  0  0  0  0  0  0  0  0
    0.1840   13.2450   -1.3320 C   0  0  1  0  0  0  0  0  0  0  0  0
   -0.3550   14.1190   -2.5080 C   0  0  0  0  0  0  0  0  0  0  0  0
    0.7160   14.1260   -0.1550 C   0  0  2  0  0  0  0  0  0  0  0  0
   -0.3100   15.1040    0.4430 C   0  0  0  0  0  0  0  0  0  0  0  0
   -0.3410   16.4580   -0.1840 C   0  0  0  0  0  0  0  0  0  0  0  0
    0.6070   16.9680   -0.9910 C   0  0  0  0  0  0  0  0  0  0  0  0
    1.9040   16.1970   -1.2680 C   0  0  1  0  0  0  0  0  0  0  0  0
    3.1170   17.1540   -1.1230 C   0  0  0  0  0  0  0  0  0  0  0  0
    2.9840   18.4020   -1.9910 C   0  0  0  0  0  0  0  0  0  0  0  0
    1.7120   19.1730   -1.6450 C   0  0  2  0  0  0  0  0  0  0  0  0
    1.8370   19.6970   -0.3200 O   0  0  0  0  0  0  0  0  0  0  0  0
    0.4250   18.3080   -1.7460 C   0  0  0  0  0  0  0  0  0  0  0  0
    0.1260   17.9910   -3.2330 C   0  0  0  0  0  0  0  0  0  0  0  0
   -0.7660   19.1630   -1.2370 C   0  0  0  0  0  0  0  0  0  0  0  0
    2.0940   14.8440   -0.4550 C   0  0  1  0  0  0  0  0  0  0  0  0
    2.7510   15.1420    0.9270 C   0  0  0  0  0  0  0  0  0  0  0  0
    3.0970   13.9130   -1.2330 C   0  0  0  0  0  0  0  0  0  0  0  0
    2.4950   12.9800   -2.3000 C   0  0  0  0  0  0  0  0  0  0  0  0
    1.2950   12.2100   -1.7410 C   0  0  2  0  0  0  0  0  0  0  0  0
    1.8100   11.3050   -0.5710 C   0  0  0  0  0  0  0  0  0  0  0  0
    0.4680    8.9439   -1.3430 H   0  0  0  0  0  0  0  0  0  0  0  0
   -0.6626    8.8597   -2.7364 H   0  0  0  0  0  0  0  0  0  0  0  0
    0.8381    7.8724   -2.7364 H   0  0  0  0  0  0  0  0  0  0  0  0
    1.0715    9.8263   -4.2026 H   0  0  0  0  0  0  0  0  0  0  0  0
    2.7799   10.5531   -1.8246 H   0  0  0  0  0  0  0  0  0  0  0  0
    2.9565    8.9322   -2.6522 H   0  0  0  0  0  0  0  0  0  0  0  0
    3.5714    9.9314   -4.7022 H   0  0  0  0  0  0  0  0  0  0  0  0
    3.1112   11.5819   -4.1089 H   0  0  0  0  0  0  0  0  0  0  0  0
    4.7082   10.3118   -2.3956 H   0  0  0  0  0  0  0  0  0  0  0  0
    5.5586    9.5923   -5.8828 H   0  0  0  0  0  0  0  0  0  0  0  0
    5.4219   11.3607   -6.1673 H   0  0  0  0  0  0  0  0  0  0  0  0
    7.0363   10.5731   -6.1673 H   0  0  0  0  0  0  0  0  0  0  0  0
    7.4058   10.5695   -2.5308 H   0  0  0  0  0  0  0  0  0  0  0  0
    7.8588    9.5653   -3.9496 H   0  0  0  0  0  0  0  0  0  0  0  0
    8.2048   11.3280   -3.9496 H   0  0  0  0  0  0  0  0  0  0  0  0
    0.4876   11.7914   -3.7286 H   0  0  0  0  0  0  0  0  0  0  0  0
   -1.6701   11.2417   -2.7905 H   0  0  0  0  0  0  0  0  0  0  0  0
   -0.9537   10.1576   -1.5791 H   0  0  0  0  0  0  0  0  0  0  0  0
   -1.9439   12.7906   -1.0735 H   0  0  0  0  0  0  0  0  0  0  0  0
   -0.9092   11.8947    0.0360 H   0  0  0  0  0  0  0  0  0  0  0  0
   -0.8917   14.9892   -2.1021 H   0  0  0  0  0  0  0  0  0  0  0  0
    0.4879   14.4633   -3.1253 H   0  0  0  0  0  0  0  0  0  0  0  0
   -1.0410   13.5204   -3.1253 H   0  0  0  0  0  0  0  0  0  0  0  0
    0.9094   13.3802    0.6301 H   0  0  0  0  0  0  0  0  0  0  0  0
   -1.3091   14.6565    0.3350 H   0  0  0  0  0  0  0  0  0  0  0  0
   -0.0077   15.2600    1.4891 H   0  0  0  0  0  0  0  0  0  0  0  0
   -1.2129   17.0929    0.0320 H   0  0  0  0  0  0  0  0  0  0  0  0
    1.8303   15.8422   -2.3066 H   0  0  0  0  0  0  0  0  0  0  0  0
    3.1984   17.4634   -0.0705 H   0  0  0  0  0  0  0  0  0  0  0  0
    4.0135   16.6099   -1.4552 H   0  0  0  0  0  0  0  0  0  0  0  0
    3.8557   19.0517   -1.8237 H   0  0  0  0  0  0  0  0  0  0  0  0
    2.9320   18.0930   -3.0454 H   0  0  0  0  0  0  0  0  0  0  0  0
    1.6049   19.9814   -2.3832 H   0  0  0  0  0  0  0  0  0  0  0  0
    1.7150   18.9590    0.3010 H   0  0  0  0  0  0  0  0  0  0  0  0
   -0.6276   17.1920   -3.2932 H   0  0  0  0  0  0  0  0  0  0  0  0
   -0.2567   18.8942   -3.7307 H   0  0  0  0  0  0  0  0  0  0  0  0
    1.0501   17.6617   -3.7307 H   0  0  0  0  0  0  0  0  0  0  0  0
   -0.7711   19.1666   -0.1370 H   0  0  0  0  0  0  0  0  0  0  0  0
   -0.6618   20.1938   -1.6066 H   0  0  0  0  0  0  0  0  0  0  0  0
   -1.7093   18.7346   -1.6066 H   0  0  0  0  0  0  0  0  0  0  0  0
    2.0683   14.8323    1.7320 H   0  0  0  0  0  0  0  0  0  0  0  0
    3.6952   14.5840    1.0121 H   0  0  0  0  0  0  0  0  0  0  0  0
    2.9532   16.2199    1.0121 H   0  0  0  0  0  0  0  0  0  0  0  0
    3.8316   14.5607   -1.7339 H   0  0  0  0  0  0  0  0  0  0  0  0
    3.5177   13.2423   -0.4693 H   0  0  0  0  0  0  0  0  0  0  0  0
    2.1672   13.5817   -3.1605 H   0  0  0  0  0  0  0  0  0  0  0  0
    3.2641   12.2560   -2.6069 H   0  0  0  0  0  0  0  0  0  0  0  0
    1.5474   11.7665    0.3924 H   0  0  0  0  0  0  0  0  0  0  0  0
    1.3415   10.3123   -0.6418 H   0  0  0  0  0  0  0  0  0  0  0  0
    2.9027   11.2007   -0.6418 H   0  0  0  0  0  0  0  0  0  0  0  0
  1  2  1  0
  2  3  1  0
  3  4  1  0
  4  5  1  0
  5  6  1  0
  6  7  1  0
  7  8  1  0
  7  9  1  0
  2 10  1  0
 10 11  1  0
 11 12  1  0
 12 13  1  0
 13 14  1  6
 13 15  1  0
 15 16  1  0
 16 17  1  0
 17 18  2  0
 18 19  1  0
 19 20  1  0
 20 21  1  0
 21 22  1  0
 22 23  1  0
 22 24  1  0
 24 25  1  0
 24 26  1  0
 19 27  1  0
 27 28  1  1
 27 29  1  0
 29 30  1  0
 30 31  1  0
 31 32  1  1
  7  5  1  0
 31 10  1  0
 31 13  1  0
 27 15  1  0
 24 18  1  0
  1 33  1  0
  1 34  1  0
  1 35  1  0
  2 36  1  6
  3 37  1  0
  3 38  1  0
  4 39  1  0
  4 40  1  0
  5 41  1  1
  8 42  1  0
  8 43  1  0
  8 44  1  0
  9 45  1  0
  9 46  1  0
  9 47  1  0
 10 48  1  6
 11 49  1  0
 11 50  1  0
 12 51  1  0
 12 52  1  0
 14 53  1  0
 14 54  1  0
 14 55  1  0
 15 56  1  1
 16 57  1  0
 16 58  1  0
 17 59  1  0
 19 60  1  6
 20 61  1  0
 20 62  1  0
 21 63  1  0
 21 64  1  0
 22 65  1  6
 23 66  1  0
 25 67  1  0
 25 68  1  0
 25 69  1  0
 26 70  1  0
 26 71  1  0
 26 72  1  0
 28 73  1  0
 28 74  1  0
 28 75  1  0
 29 76  1  0
 29 77  1  0
 30 78  1  0
 30 79  1  0
 32 80  1  0
 32 81  1  0
 32 82  1  0
M  END
>  <meeko>  (6) 
{"is_sidechain": [false], "intermolecular_energy": 2.731, "internal_energy": -0.839}

$$$$
EPH_relaxed_0001_pdb2pqr_Repair_393_r2_0001_out
     RDKit          3D

 82 86  0  0  0  0  0  0  0  0999 V2000
    2.7910   18.8780   -1.1480 C   0  0  0  0  0  0  0  0  0  0  0  0
    2.4750   17.8470   -2.2360 C   0  0  2  0  0  0  0  0  0  0  0  0
    1.0410   18.0020   -2.7820 C   0  0  0  0  0  0  0  0  0  0  0  0
    0.3520   19.2970   -2.3450 C   0  0  0  0  0  0  0  0  0  0  0  0
   -0.9330   19.0250   -1.6230 C   0  0  2  0  0  0  0  0  0  0  0  0
   -1.7050   20.1930   -1.3150 O   0  0  0  0  0  0  0  0  0  0  0  0
   -1.1950   19.4570   -0.1920 C   0  0  0  0  0  0  0  0  0  0  0  0
   -0.1640   20.1940    0.6030 C   0  0  0  0  0  0  0  0  0  0  0  0
   -2.2530   18.7400    0.5890 C   0  0  0  0  0  0  0  0  0  0  0  0
    2.6760   16.4380   -1.6910 C   0  0  1  0  0  0  0  0  0  0  0  0
    3.5070   16.4170   -0.3810 C   0  0  0  0  0  0  0  0  0  0  0  0
    2.9370   15.2700    0.4920 C   0  0  0  0  0  0  0  0  0  0  0  0
    2.0310   14.4630   -0.4670 C   0  0  1  0  0  0  0  0  0  0  0  0
    3.0080   13.5420   -1.2620 C   0  0  0  0  0  0  0  0  0  0  0  0
    0.8780   13.6430    0.1980 C   0  0  2  0  0  0  0  0  0  0  0  0
    1.3360   12.5340    1.1610 C   0  0  0  0  0  0  0  0  0  0  0  0
    1.5490   11.1950    0.5370 C   0  0  0  0  0  0  0  0  0  0  0  0
    1.1100   10.8200   -0.6790 C   0  0  0  0  0  0  0  0  0  0  0  0
    0.2330   11.7550   -1.5220 C   0  0  1  0  0  0  0  0  0  0  0  0
   -0.9690   10.9600   -2.0950 C   0  0  0  0  0  0  0  0  0  0  0  0
   -0.5350    9.7150   -2.8640 C   0  0  0  0  0  0  0  0  0  0  0  0
    0.2850    8.7840   -1.9750 C   0  0  2  0  0  0  0  0  0  0  0  0
   -0.5620    8.2630   -0.9470 O   0  0  0  0  0  0  0  0  0  0  0  0
    1.5190    9.4780   -1.3340 C   0  0  0  0  0  0  0  0  0  0  0  0
    2.5770    9.7720   -2.4260 C   0  0  0  0  0  0  0  0  0  0  0  0
    2.1780    8.4710   -0.3530 C   0  0  0  0  0  0  0  0  0  0  0  0
   -0.2100   13.1100   -0.8210 C   0  0  1  0  0  0  0  0  0  0  0  0
   -1.5150   12.8820    0.0010 C   0  0  0  0  0  0  0  0  0  0  0  0
   -0.5620   14.1720   -1.9290 C   0  0  0  0  0  0  0  0  0  0  0  0
    0.5990   15.0330   -2.4600 C   0  0  0  0  0  0  0  0  0  0  0  0
    1.4070   15.6360   -1.3070 C   0  0  2  0  0  0  0  0  0  0  0  0
    0.4550   16.5850   -0.5020 C   0  0  0  0  0  0  0  0  0  0  0  0
    2.6508   18.4205   -0.1575 H   0  0  0  0  0  0  0  0  0  0  0  0
    3.8333   19.2137   -1.2526 H   0  0  0  0  0  0  0  0  0  0  0  0
    2.1159   19.7401   -1.2526 H   0  0  0  0  0  0  0  0  0  0  0  0
    3.1678   18.0238   -3.0719 H   0  0  0  0  0  0  0  0  0  0  0  0
    1.0844   17.9857   -3.8810 H   0  0  0  0  0  0  0  0  0  0  0  0
    0.4498   17.1697   -2.3725 H   0  0  0  0  0  0  0  0  0  0  0  0
    1.0265   19.8513   -1.6758 H   0  0  0  0  0  0  0  0  0  0  0  0
    0.1213   19.8837   -3.2464 H   0  0  0  0  0  0  0  0  0  0  0  0
   -1.0434   18.0571   -2.1339 H   0  0  0  0  0  0  0  0  0  0  0  0
   -0.3597   20.0541    1.6764 H   0  0  0  0  0  0  0  0  0  0  0  0
    0.8352   19.8042    0.3586 H   0  0  0  0  0  0  0  0  0  0  0  0
   -0.2094   21.2655    0.3586 H   0  0  0  0  0  0  0  0  0  0  0  0
   -2.0643   18.8679    1.6651 H   0  0  0  0  0  0  0  0  0  0  0  0
   -3.2397   19.1563    0.3377 H   0  0  0  0  0  0  0  0  0  0  0  0
   -2.2320   17.6693    0.3377 H   0  0  0  0  0  0  0  0  0  0  0  0
    3.1666   15.9732   -2.5589 H   0  0  0  0  0  0  0  0  0  0  0  0
    4.5669   16.2295   -0.6078 H   0  0  0  0  0  0  0  0  0  0  0  0
    3.4422   17.3819    0.1433 H   0  0  0  0  0  0  0  0  0  0  0  0
    3.7489   14.6388    0.8823 H   0  0  0  0  0  0  0  0  0  0  0  0
    2.3874   15.6459    1.3676 H   0  0  0  0  0  0  0  0  0  0  0  0
    3.6221   12.9631   -0.5564 H   0  0  0  0  0  0  0  0  0  0  0  0
    2.4293   12.8533   -1.8950 H   0  0  0  0  0  0  0  0  0  0  0  0
    3.6614   14.1603   -1.8950 H   0  0  0  0  0  0  0  0  0  0  0  0
    0.3845   14.3990    0.8265 H   0  0  0  0  0  0  0  0  0  0  0  0
    2.2853   12.8510    1.6175 H   0  0  0  0  0  0  0  0  0  0  0  0
    0.5194   12.4049    1.8866 H   0  0  0  0  0  0  0  0  0  0  0  0
    2.1124   10.4517    1.1201 H   0  0  0  0  0  0  0  0  0  0  0  0
    0.8713   12.1111   -2.3441 H   0  0  0  0  0  0  0  0  0  0  0  0
   -1.6170   10.6514   -1.2614 H   0  0  0  0  0  0  0  0  0  0  0  0
   -1.4996   11.6185   -2.7984 H   0  0  0  0  0  0  0  0  0  0  0  0
   -1.4289    9.1803   -3.2177 H   0  0  0  0  0  0  0  0  0  0  0  0
    0.0880   10.0271   -3.7152 H   0  0  0  0  0  0  0  0  0  0  0  0
    0.6755    7.9781   -2.6138 H   0  0  0  0  0  0  0  0  0  0  0  0
   -0.5160    8.8720   -0.1900 H   0  0  0  0  0  0  0  0  0  0  0  0
    3.5321   10.0374   -1.9492 H   0  0  0  0  0  0  0  0  0  0  0  0
    2.7157    8.8784   -3.0522 H   0  0  0  0  0  0  0  0  0  0  0  0
    2.2347   10.6091   -3.0522 H   0  0  0  0  0  0  0  0  0  0  0  0
    1.9748    8.7815    0.6825 H   0  0  0  0  0  0  0  0  0  0  0  0
    1.7615    7.4672   -0.5233 H   0  0  0  0  0  0  0  0  0  0  0  0
    3.2646    8.4509   -0.5233 H   0  0  0  0  0  0  0  0  0  0  0  0
   -1.2833   12.9225    1.0756 H   0  0  0  0  0  0  0  0  0  0  0  0
   -2.2458   13.6661   -0.2463 H   0  0  0  0  0  0  0  0  0  0  0  0
   -1.9367   11.8966   -0.2463 H   0  0  0  0  0  0  0  0  0  0  0  0
   -0.9927   13.6304   -2.7841 H   0  0  0  0  0  0  0  0  0  0  0  0
   -1.2461   14.8814   -1.4404 H   0  0  0  0  0  0  0  0  0  0  0  0
    1.2615   14.4047   -3.0735 H   0  0  0  0  0  0  0  0  0  0  0  0
    0.1804   15.8535   -3.0613 H   0  0  0  0  0  0  0  0  0  0  0  0
    0.6096   16.4309    0.5761 H   0  0  0  0  0  0  0  0  0  0  0  0
    0.6776   17.6313   -0.7585 H   0  0  0  0  0  0  0  0  0  0  0  0
   -0.5906   16.3591   -0.7585 H   0  0  0  0  0  0  0  0  0  0  0  0
  1  2  1  0
  2  3  1  0
  3  4  1  0
  4  5  1  0
  5  6  1  0
  6  7  1  0
  7  8  1  0
  7  9  1  0
  2 10  1  0
 10 11  1  0
 11 12  1  0
 12 13  1  0
 13 14  1  6
 13 15  1  0
 15 16  1  0
 16 17  1  0
 17 18  2  0
 18 19  1  0
 19 20  1  0
 20 21  1  0
 21 22  1  0
 22 23  1  0
 22 24  1  0
 24 25  1  0
 24 26  1  0
 19 27  1  0
 27 28  1  1
 27 29  1  0
 29 30  1  0
 30 31  1  0
 31 32  1  1
  7  5  1  0
 31 10  1  0
 31 13  1  0
 27 15  1  0
 24 18  1  0
  1 33  1  0
  1 34  1  0
  1 35  1  0
  2 36  1  6
  3 37  1  0
  3 38  1  0
  4 39  1  0
  4 40  1  0
  5 41  1  1
  8 42  1  0
  8 43  1  0
  8 44  1  0
  9 45  1  0
  9 46  1  0
  9 47  1  0
 10 48  1  6
 11 49  1  0
 11 50  1  0
 12 51  1  0
 12 52  1  0
 14 53  1  0
 14 54  1  0
 14 55  1  0
 15 56  1  1
 16 57  1  0
 16 58  1  0
 17 59  1  0
 19 60  1  6
 20 61  1  0
 20 62  1  0
 21 63  1  0
 21 64  1  0
 22 65  1  6
 23 66  1  0
 25 67  1  0
 25 68  1  0
 25 69  1  0
 26 70  1  0
 26 71  1  0
 26 72  1  0
 28 73  1  0
 28 74  1  0
 28 75  1  0
 29 76  1  0
 29 77  1  0
 30 78  1  0
 30 79  1  0
 32 80  1  0
 32 81  1  0
 32 82  1  0
M  END
>  <meeko>  (7) 
{"is_sidechain": [false], "intermolecular_energy": 2.731, "internal_energy": -0.839}

$$$$
EPH_relaxed_0001_pdb2pqr_Repair_393_r2_0001_out
     RDKit          3D

 82 86  0  0  0  0  0  0  0  0999 V2000
   -0.8730   16.3520   -5.8380 C   0  0  0  0  0  0  0  0  0  0  0  0
    0.2190   15.6550   -6.6540 C   0  0  2  0  0  0  0  0  0  0  0  0
   -0.1860   15.4750   -8.1310 C   0  0  0  0  0  0  0  0  0  0  0  0
    0.4480   16.5030   -9.0720 C   0  0  0  0  0  0  0  0  0  0  0  0
    1.8520   16.1270   -9.4380 C   0  0  2  0  0  0  0  0  0  0  0  0
    2.3200   16.6890  -10.6710 O   0  0  0  0  0  0  0  0  0  0  0  0
    2.2010   15.2570  -10.6320 C   0  0  0  0  0  0  0  0  0  0  0  0
    1.1410   14.7100  -11.5350 C   0  0  0  0  0  0  0  0  0  0  0  0
    3.5170   14.5430  -10.6360 C   0  0  0  0  0  0  0  0  0  0  0  0
    0.5460   14.3010   -6.0350 C   0  0  1  0  0  0  0  0  0  0  0  0
    1.8130   13.6520   -6.6520 C   0  0  0  0  0  0  0  0  0  0  0  0
    2.5260   12.8860   -5.5080 C   0  0  0  0  0  0  0  0  0  0  0  0
    1.4870   12.8400   -4.3640 C   0  0  1  0  0  0  0  0  0  0  0  0
    0.5370   11.6580   -4.7320 C   0  0  0  0  0  0  0  0  0  0  0  0
    2.0600   12.6900   -2.9160 C   0  0  2  0  0  0  0  0  0  0  0  0
    2.8360   11.3880   -2.6540 C   0  0  0  0  0  0  0  0  0  0  0  0
    2.0170   10.2480   -2.1450 C   0  0  0  0  0  0  0  0  0  0  0  0
    0.7730   10.3430   -1.6400 C   0  0  0  0  0  0  0  0  0  0  0  0
    0.1020   11.7100   -1.4510 C   0  0  1  0  0  0  0  0  0  0  0  0
   -0.5440   11.7790   -0.0420 C   0  0  0  0  0  0  0  0  0  0  0  0
   -1.4990   10.6190    0.2210 C   0  0  0  0  0  0  0  0  0  0  0  0
   -0.7810    9.2790    0.0810 C   0  0  2  0  0  0  0  0  0  0  0  0
    0.1860    9.1620    1.1290 O   0  0  0  0  0  0  0  0  0  0  0  0
   -0.0830    9.0990   -1.2960 C   0  0  0  0  0  0  0  0  0  0  0  0
   -1.1520    8.9240   -2.4030 C   0  0  0  0  0  0  0  0  0  0  0  0
    0.7200    7.7710   -1.2550 C   0  0  0  0  0  0  0  0  0  0  0  0
    1.0070   12.9770   -1.7700 C   0  0  1  0  0  0  0  0  0  0  0  0
    1.8260   13.3780   -0.5050 C   0  0  0  0  0  0  0  0  0  0  0  0
    0.0770   14.2020   -2.1050 C   0  0  0  0  0  0  0  0  0  0  0  0
   -0.3580   14.3630   -3.5740 C   0  0  0  0  0  0  0  0  0  0  0  0
    0.8470   14.2670   -4.5160 C   0  0  2  0  0  0  0  0  0  0  0  0
    1.8100   15.4570   -4.1830 C   0  0  0  0  0  0  0  0  0  0  0  0
   -0.6686   16.2215   -4.7651 H   0  0  0  0  0  0  0  0  0  0  0  0
   -0.8843   17.4247   -6.0813 H   0  0  0  0  0  0  0  0  0  0  0  0
   -1.8507   15.9105   -6.0813 H   0  0  0  0  0  0  0  0  0  0  0  0
    1.1106   16.2988   -6.6320 H   0  0  0  0  0  0  0  0  0  0  0  0
    0.1222   14.4702   -8.4558 H   0  0  0  0  0  0  0  0  0  0  0  0
   -1.2753   15.6176   -8.1856 H   0  0  0  0  0  0  0  0  0  0  0  0
   -0.1551   16.5659   -9.9898 H   0  0  0  0  0  0  0  0  0  0  0  0
    0.4767   17.4721   -8.5523 H   0  0  0  0  0  0  0  0  0  0  0  0
    2.1396   16.0743   -8.3776 H   0  0  0  0  0  0  0  0  0  0  0  0
    0.3249   14.2889  -10.9294 H   0  0  0  0  0  0  0  0  0  0  0  0
    0.7475   15.5176  -12.1698 H   0  0  0  0  0  0  0  0  0  0  0  0
    1.5712   13.9213  -12.1698 H   0  0  0  0  0  0  0  0  0  0  0  0
    3.8417   14.3668   -9.5999 H   0  0  0  0  0  0  0  0  0  0  0  0
    3.4098   13.5794  -11.1555 H   0  0  0  0  0  0  0  0  0  0  0  0
    4.2664   15.1582  -11.1555 H   0  0  0  0  0  0  0  0  0  0  0  0
   -0.3952   13.7715   -6.2441 H   0  0  0  0  0  0  0  0  0  0  0  0
    1.5291   12.9555   -7.4547 H   0  0  0  0  0  0  0  0  0  0  0  0
    2.4745   14.4147   -7.0886 H   0  0  0  0  0  0  0  0  0  0  0  0
    2.7947   11.8690   -5.8299 H   0  0  0  0  0  0  0  0  0  0  0  0
    3.4638   13.3722   -5.2010 H   0  0  0  0  0  0  0  0  0  0  0  0
    0.1606   11.1896   -3.8106 H   0  0  0  0  0  0  0  0  0  0  0  0
   -0.3097   12.0382   -5.3224 H   0  0  0  0  0  0  0  0  0  0  0  0
    1.0904   10.9129   -5.3224 H   0  0  0  0  0  0  0  0  0  0  0  0
    2.8068   13.4964   -2.8720 H   0  0  0  0  0  0  0  0  0  0  0  0
    3.3035   11.0751   -3.5992 H   0  0  0  0  0  0  0  0  0  0  0  0
    3.5604   11.6205   -1.8595 H   0  0  0  0  0  0  0  0  0  0  0  0
    2.4685    9.2458   -2.1862 H   0  0  0  0  0  0  0  0  0  0  0  0
   -0.6785   11.7751   -2.2234 H   0  0  0  0  0  0  0  0  0  0  0  0
    0.2550   11.7563    0.7137 H   0  0  0  0  0  0  0  0  0  0  0  0
   -1.1268   12.7103    0.0129 H   0  0  0  0  0  0  0  0  0  0  0  0
   -1.9005   10.7074    1.2413 H   0  0  0  0  0  0  0  0  0  0  0  0
   -2.3132   10.6600   -0.5175 H   0  0  0  0  0  0  0  0  0  0  0  0
   -1.5422    8.4882    0.1528 H   0  0  0  0  0  0  0  0  0  0  0  0
    0.4160    8.2210    1.2140 H   0  0  0  0  0  0  0  0  0  0  0  0
   -2.1366    8.7628   -1.9397 H   0  0  0  0  0  0  0  0  0  0  0  0
   -1.1844    9.8288   -3.0277 H   0  0  0  0  0  0  0  0  0  0  0  0
   -0.8942    8.0561   -3.0277 H   0  0  0  0  0  0  0  0  0  0  0  0
    0.8955    7.4808   -0.2086 H   0  0  0  0  0  0  0  0  0  0  0  0
    0.1482    6.9809   -1.7637 H   0  0  0  0  0  0  0  0  0  0  0  0
    1.6853    7.9104   -1.7637 H   0  0  0  0  0  0  0  0  0  0  0  0
    1.2630   13.1023    0.3989 H   0  0  0  0  0  0  0  0  0  0  0  0
    2.7913   12.8506   -0.5108 H   0  0  0  0  0  0  0  0  0  0  0  0
    2.0014   14.4639   -0.5108 H   0  0  0  0  0  0  0  0  0  0  0  0
   -0.8344   14.1039   -1.4970 H   0  0  0  0  0  0  0  0  0  0  0  0
    0.6842   15.0926   -1.8855 H   0  0  0  0  0  0  0  0  0  0  0  0
   -1.0760   13.5686   -3.8259 H   0  0  0  0  0  0  0  0  0  0  0  0
   -0.8211   15.3532   -3.6964 H   0  0  0  0  0  0  0  0  0  0  0  0
    1.8967   15.5642   -3.0917 H   0  0  0  0  0  0  0  0  0  0  0  0
    2.8029   15.2562   -4.6118 H   0  0  0  0  0  0  0  0  0  0  0  0
    1.4066   16.3862   -4.6118 H   0  0  0  0  0  0  0  0  0  0  0  0
  1  2  1  0
  2  3  1  0
  3  4  1  0
  4  5  1  0
  5  6  1  0
  6  7  1  0
  7  8  1  0
  7  9  1  0
  2 10  1  0
 10 11  1  0
 11 12  1  0
 12 13  1  0
 13 14  1  6
 13 15  1  0
 15 16  1  0
 16 17  1  0
 17 18  2  0
 18 19  1  0
 19 20  1  0
 20 21  1  0
 21 22  1  0
 22 23  1  0
 22 24  1  0
 24 25  1  0
 24 26  1  0
 19 27  1  0
 27 28  1  1
 27 29  1  0
 29 30  1  0
 30 31  1  0
 31 32  1  1
  7  5  1  0
 31 10  1  0
 31 13  1  0
 27 15  1  0
 24 18  1  0
  1 33  1  0
  1 34  1  0
  1 35  1  0
  2 36  1  6
  3 37  1  0
  3 38  1  0
  4 39  1  0
  4 40  1  0
  5 41  1  1
  8 42  1  0
  8 43  1  0
  8 44  1  0
  9 45  1  0
  9 46  1  0
  9 47  1  0
 10 48  1  1
 11 49  1  0
 11 50  1  0
 12 51  1  0
 12 52  1  0
 14 53  1  0
 14 54  1  0
 14 55  1  0
 15 56  1  6
 16 57  1  0
 16 58  1  0
 17 59  1  0
 19 60  1  6
 20 61  1  0
 20 62  1  0
 21 63  1  0
 21 64  1  0
 22 65  1  1
 23 66  1  0
 25 67  1  0
 25 68  1  0
 25 69  1  0
 26 70  1  0
 26 71  1  0
 26 72  1  0
 28 73  1  0
 28 74  1  0
 28 75  1  0
 29 76  1  0
 29 77  1  0
 30 78  1  0
 30 79  1  0
 32 80  1  0
 32 81  1  0
 32 82  1  0
M  END
>  <meeko>  (8) 
{"is_sidechain": [false], "intermolecular_energy": 2.731, "internal_energy": -0.839}

$$$$
EPH_relaxed_0001_pdb2pqr_Repair_393_r2_0001_out
     RDKit          3D

 82 86  0  0  0  0  0  0  0  0999 V2000
    2.0060   19.7180   -1.7220 C   0  0  0  0  0  0  0  0  0  0  0  0
    1.4080   19.5550   -0.3220 C   0  0  2  0  0  0  0  0  0  0  0  0
    2.3730   20.0350    0.7810 C   0  0  0  0  0  0  0  0  0  0  0  0
    3.3550   18.9580    1.2510 C   0  0  0  0  0  0  0  0  0  0  0  0
    4.6730   19.5480    1.6550 C   0  0  2  0  0  0  0  0  0  0  0  0
    5.7530   18.6080    1.7250 O   0  0  0  0  0  0  0  0  0  0  0  0
    5.3670   19.2250    2.9640 C   0  0  0  0  0  0  0  0  0  0  0  0
    4.7650   18.2780    3.9540 C   0  0  0  0  0  0  0  0  0  0  0  0
    6.3780   20.1940    3.4960 C   0  0  0  0  0  0  0  0  0  0  0  0
    1.0300   18.0980   -0.0850 C   0  0  1  0  0  0  0  0  0  0  0  0
   -0.3430   17.9440    0.6230 C   0  0  0  0  0  0  0  0  0  0  0  0
   -1.0020   16.6650    0.0470 C   0  0  0  0  0  0  0  0  0  0  0  0
    0.1360   15.9480   -0.7160 C   0  0  1  0  0  0  0  0  0  0  0  0
    0.9420   15.1900    0.3850 C   0  0  0  0  0  0  0  0  0  0  0  0
   -0.3020   14.9920   -1.8730 C   0  0  2  0  0  0  0  0  0  0  0  0
   -1.1570   13.7900   -1.4360 C   0  0  0  0  0  0  0  0  0  0  0  0
   -0.3920   12.5570   -1.0850 C   0  0  0  0  0  0  0  0  0  0  0  0
    0.8990   12.3250   -1.3870 C   0  0  0  0  0  0  0  0  0  0  0  0
    1.6990   13.3190   -2.2400 C   0  0  1  0  0  0  0  0  0  0  0  0
    2.4840   12.5480   -3.3340 C   0  0  0  0  0  0  0  0  0  0  0  0
    3.3580   11.4390   -2.7550 C   0  0  0  0  0  0  0  0  0  0  0  0
    2.5190   10.4400   -1.9640 C   0  0  2  0  0  0  0  0  0  0  0  0
    1.6530    9.7470   -2.8680 O   0  0  0  0  0  0  0  0  0  0  0  0
    1.6760   11.1030   -0.8380 C   0  0  0  0  0  0  0  0  0  0  0  0
    2.6120   11.5910    0.2940 C   0  0  0  0  0  0  0  0  0  0  0  0
    0.7710   10.0080   -0.2120 C   0  0  0  0  0  0  0  0  0  0  0  0
    0.8780   14.5460   -2.8280 C   0  0  1  0  0  0  0  0  0  0  0  0
    0.2250   14.1470   -4.1860 C   0  0  0  0  0  0  0  0  0  0  0  0
    1.8720   15.7260   -3.1420 C   0  0  0  0  0  0  0  0  0  0  0  0
    2.1720   16.7060   -1.9920 C   0  0  0  0  0  0  0  0  0  0  0  0
    0.8780   17.1900   -1.3320 C   0  0  2  0  0  0  0  0  0  0  0  0
    0.0560   17.9770   -2.4100 C   0  0  0  0  0  0  0  0  0  0  0  0
    3.0641   20.0064   -1.6374 H   0  0  0  0  0  0  0  0  0  0  0  0
    1.9279   18.7658   -2.2672 H   0  0  0  0  0  0  0  0  0  0  0  0
    1.4556   20.4989   -2.2672 H   0  0  0  0  0  0  0  0  0  0  0  0
    0.5082   20.1857   -0.2709 H   0  0  0  0  0  0  0  0  0  0  0  0
    2.9511   20.8856    0.3907 H   0  0  0  0  0  0  0  0  0  0  0  0
    1.7570   20.3097    1.6499 H   0  0  0  0  0  0  0  0  0  0  0  0
    2.9207   18.4314    2.1136 H   0  0  0  0  0  0  0  0  0  0  0  0
    3.5310   18.2656    0.4145 H   0  0  0  0  0  0  0  0  0  0  0  0
    4.4219   20.5024    1.1691 H   0  0  0  0  0  0  0  0  0  0  0  0
    4.9856   18.6250    4.9743 H   0  0  0  0  0  0  0  0  0  0  0  0
    3.6755   18.2383    3.8077 H   0  0  0  0  0  0  0  0  0  0  0  0
    5.1914   17.2746    3.8077 H   0  0  0  0  0  0  0  0  0  0  0  0
    6.3596   20.1763    4.5957 H   0  0  0  0  0  0  0  0  0  0  0  0
    7.3799   19.9102    3.1415 H   0  0  0  0  0  0  0  0  0  0  0  0
    6.1369   21.2070    3.1415 H   0  0  0  0  0  0  0  0  0  0  0  0
    1.8977   17.7776    0.5104 H   0  0  0  0  0  0  0  0  0  0  0  0
   -0.1998   17.8403    1.7087 H   0  0  0  0  0  0  0  0  0  0  0  0
   -0.9770   18.8265    0.4516 H   0  0  0  0  0  0  0  0  0  0  0  0
   -1.3873   16.0284    0.8571 H   0  0  0  0  0  0  0  0  0  0  0  0
   -1.8593   16.8945   -0.6029 H   0  0  0  0  0  0  0  0  0  0  0  0
    0.5984   15.5131    1.3788 H   0  0  0  0  0  0  0  0  0  0  0  0
    0.7825   14.1071    0.2761 H   0  0  0  0  0  0  0  0  0  0  0  0
    2.0131   15.4156    0.2761 H   0  0  0  0  0  0  0  0  0  0  0  0
   -0.9686   15.6325   -2.4692 H   0  0  0  0  0  0  0  0  0  0  0  0
   -1.7403   14.0909   -0.5533 H   0  0  0  0  0  0  0  0  0  0  0  0
   -1.7774   13.5260   -2.3051 H   0  0  0  0  0  0  0  0  0  0  0  0
   -0.9288   11.7716   -0.5328 H   0  0  0  0  0  0  0  0  0  0  0  0
    2.4027   13.8117   -1.5530 H   0  0  0  0  0  0  0  0  0  0  0  0
    1.7642   12.1001   -4.0350 H   0  0  0  0  0  0  0  0  0  0  0  0
    3.1468   13.2665   -3.8385 H   0  0  0  0  0  0  0  0  0  0  0  0
    3.8636   10.9125   -3.5779 H   0  0  0  0  0  0  0  0  0  0  0  0
    4.0962   11.8919   -2.0769 H   0  0  0  0  0  0  0  0  0  0  0  0
    3.2137    9.7459   -1.4684 H   0  0  0  0  0  0  0  0  0  0  0  0
    1.0640   10.4050   -3.2750 H   0  0  0  0  0  0  0  0  0  0  0  0
    2.1612   11.3559    1.2694 H   0  0  0  0  0  0  0  0  0  0  0  0
    3.5852   11.0855    0.2085 H   0  0  0  0  0  0  0  0  0  0  0  0
    2.7548   12.6783    0.2085 H   0  0  0  0  0  0  0  0  0  0  0  0
    0.8237   10.0717    0.8849 H   0  0  0  0  0  0  0  0  0  0  0  0
   -0.2683   10.1604   -0.5387 H   0  0  0  0  0  0  0  0  0  0  0  0
    1.1163    9.0160   -0.5387 H   0  0  0  0  0  0  0  0  0  0  0  0
   -0.6996   13.5821   -3.9963 H   0  0  0  0  0  0  0  0  0  0  0  0
   -0.0114   15.0551   -4.7600 H   0  0  0  0  0  0  0  0  0  0  0  0
    0.9252   13.5223   -4.7600 H   0  0  0  0  0  0  0  0  0  0  0  0
    2.8272   15.2813   -3.4580 H   0  0  0  0  0  0  0  0  0  0  0  0
    1.3680   16.3300   -3.9108 H   0  0  0  0  0  0  0  0  0  0  0  0
    2.7918   16.1977   -1.2387 H   0  0  0  0  0  0  0  0  0  0  0  0
    2.7027   17.5772   -2.4034 H   0  0  0  0  0  0  0  0  0  0  0  0
   -0.6514   18.6543   -1.9092 H   0  0  0  0  0  0  0  0  0  0  0  0
    0.7424   18.5632   -3.0386 H   0  0  0  0  0  0  0  0  0  0  0  0
   -0.4998   17.2657   -3.0386 H   0  0  0  0  0  0  0  0  0  0  0  0
  1  2  1  0
  2  3  1  0
  3  4  1  0
  4  5  1  0
  5  6  1  0
  6  7  1  0
  7  8  1  0
  7  9  1  0
  2 10  1  0
 10 11  1  0
 11 12  1  0
 12 13  1  0
 13 14  1  1
 13 15  1  0
 15 16  1  0
 16 17  1  0
 17 18  2  0
 18 19  1  0
 19 20  1  0
 20 21  1  0
 21 22  1  0
 22 23  1  0
 22 24  1  0
 24 25  1  0
 24 26  1  0
 19 27  1  0
 27 28  1  6
 27 29  1  0
 29 30  1  0
 30 31  1  0
 31 32  1  6
  7  5  1  0
 31 10  1  0
 31 13  1  0
 27 15  1  0
 24 18  1  0
  1 33  1  0
  1 34  1  0
  1 35  1  0
  2 36  1  6
  3 37  1  0
  3 38  1  0
  4 39  1  0
  4 40  1  0
  5 41  1  6
  8 42  1  0
  8 43  1  0
  8 44  1  0
  9 45  1  0
  9 46  1  0
  9 47  1  0
 10 48  1  1
 11 49  1  0
 11 50  1  0
 12 51  1  0
 12 52  1  0
 14 53  1  0
 14 54  1  0
 14 55  1  0
 15 56  1  6
 16 57  1  0
 16 58  1  0
 17 59  1  0
 19 60  1  1
 20 61  1  0
 20 62  1  0
 21 63  1  0
 21 64  1  0
 22 65  1  1
 23 66  1  0
 25 67  1  0
 25 68  1  0
 25 69  1  0
 26 70  1  0
 26 71  1  0
 26 72  1  0
 28 73  1  0
 28 74  1  0
 28 75  1  0
 29 76  1  0
 29 77  1  0
 30 78  1  0
 30 79  1  0
 32 80  1  0
 32 81  1  0
 32 82  1  0
M  END
>  <meeko>  (9) 
{"is_sidechain": [false], "intermolecular_energy": 2.731, "internal_energy": -0.839}

$$$$
EPH_relaxed_0001_pdb2pqr_Repair_393_r2_0001_out
     RDKit          3D

 82 86  0  0  0  0  0  0  0  0999 V2000
   -2.2550    7.8760   -2.1780 C   0  0  0  0  0  0  0  0  0  0  0  0
   -2.1430    8.4740   -0.7730 C   0  0  2  0  0  0  0  0  0  0  0  0
   -3.4880    8.4460   -0.0200 C   0  0  0  0  0  0  0  0  0  0  0  0
   -4.7000    8.7170   -0.9160 C   0  0  0  0  0  0  0  0  0  0  0  0
   -5.4750    7.4650   -1.1960 C   0  0  2  0  0  0  0  0  0  0  0  0
   -5.7790    7.2460   -2.5790 O   0  0  0  0  0  0  0  0  0  0  0  0
   -6.9020    7.4620   -1.7100 C   0  0  0  0  0  0  0  0  0  0  0  0
   -7.6400    8.7370   -1.9740 C   0  0  0  0  0  0  0  0  0  0  0  0
   -7.7390    6.2400   -1.4910 C   0  0  0  0  0  0  0  0  0  0  0  0
   -1.6240    9.9050   -0.8570 C   0  0  1  0  0  0  0  0  0  0  0  0
   -1.1640   10.4560    0.5190 C   0  0  0  0  0  0  0  0  0  0  0  0
    0.0490   11.3830    0.2470 C   0  0  0  0  0  0  0  0  0  0  0  0
    0.0400   11.5970   -1.2850 C   0  0  1  0  0  0  0  0  0  0  0  0
   -1.0260   12.7110   -1.5280 C   0  0  0  0  0  0  0  0  0  0  0  0
    1.4130   11.9590   -1.9390 C   0  0  2  0  0  0  0  0  0  0  0  0
    2.0320   13.2860   -1.4660 C   0  0  0  0  0  0  0  0  0  0  0  0
    1.6530   14.4880   -2.2660 C   0  0  0  0  0  0  0  0  0  0  0  0
    1.0810   14.4680   -3.4840 C   0  0  0  0  0  0  0  0  0  0  0  0
    0.8480   13.1430   -4.2230 C   0  0  1  0  0  0  0  0  0  0  0  0
    1.3170   13.2830   -5.6950 C   0  0  0  0  0  0  0  0  0  0  0  0
    0.6720   14.4690   -6.4060 C   0  0  0  0  0  0  0  0  0  0  0  0
    0.9740   15.7730   -5.6730 C   0  0  2  0  0  0  0  0  0  0  0  0
    2.3760   16.0440   -5.7740 O   0  0  0  0  0  0  0  0  0  0  0  0
    0.5540   15.7480   -4.1770 C   0  0  0  0  0  0  0  0  0  0  0  0
   -0.9910   15.7580   -4.0710 C   0  0  0  0  0  0  0  0  0  0  0  0
    1.0420   17.0680   -3.5220 C   0  0  0  0  0  0  0  0  0  0  0  0
    1.4290   11.8440   -3.5170 C   0  0  1  0  0  0  0  0  0  0  0  0
    2.9170   11.6330   -3.9330 C   0  0  0  0  0  0  0  0  0  0  0  0
    0.6410   10.5820   -4.0330 C   0  0  0  0  0  0  0  0  0  0  0  0
   -0.6430   10.2060   -3.2710 C   0  0  0  0  0  0  0  0  0  0  0  0
   -0.3920   10.1620   -1.7610 C   0  0  2  0  0  0  0  0  0  0  0  0
    0.6600    9.0350   -1.4830 C   0  0  0  0  0  0  0  0  0  0  0  0
   -2.4570    6.7974   -2.1024 H   0  0  0  0  0  0  0  0  0  0  0  0
   -3.0770    8.3658   -2.7205 H   0  0  0  0  0  0  0  0  0  0  0  0
   -1.3114    8.0352   -2.7205 H   0  0  0  0  0  0  0  0  0  0  0  0
   -1.4341    7.8532   -0.2056 H   0  0  0  0  0  0  0  0  0  0  0  0
   -3.6093    7.4531    0.4376 H   0  0  0  0  0  0  0  0  0  0  0  0
   -3.4546    9.2514    0.7285 H   0  0  0  0  0  0  0  0  0  0  0  0
   -5.3599    9.4396   -0.4137 H   0  0  0  0  0  0  0  0  0  0  0  0
   -4.3351    9.1153   -1.8742 H   0  0  0  0  0  0  0  0  0  0  0  0
   -4.9941    6.9504   -0.3511 H   0  0  0  0  0  0  0  0  0  0  0  0
   -7.9124    9.2077   -1.0178 H   0  0  0  0  0  0  0  0  0  0  0  0
   -6.9977    9.4201   -2.5491 H   0  0  0  0  0  0  0  0  0  0  0  0
   -8.5523    8.5203   -2.5491 H   0  0  0  0  0  0  0  0  0  0  0  0
   -7.8583    6.0659   -0.4114 H   0  0  0  0  0  0  0  0  0  0  0  0
   -8.7278    6.3857   -1.9503 H   0  0  0  0  0  0  0  0  0  0  0  0
   -7.2458    5.3706   -1.9503 H   0  0  0  0  0  0  0  0  0  0  0  0
   -2.5113   10.3985   -1.2803 H   0  0  0  0  0  0  0  0  0  0  0  0
   -1.9783   11.0261    0.9901 H   0  0  0  0  0  0  0  0  0  0  0  0
   -0.8903    9.6373    1.2008 H   0  0  0  0  0  0  0  0  0  0  0  0
   -0.0688   12.3415    0.7738 H   0  0  0  0  0  0  0  0  0  0  0  0
    0.9948   10.9478    0.6021 H   0  0  0  0  0  0  0  0  0  0  0  0
   -1.3880   13.0893   -0.5606 H   0  0  0  0  0  0  0  0  0  0  0  0
   -0.5717   13.5353   -2.0973 H   0  0  0  0  0  0  0  0  0  0  0  0
   -1.8695   12.2934   -2.0973 H   0  0  0  0  0  0  0  0  0  0  0  0
    2.0733   11.1679   -1.5541 H   0  0  0  0  0  0  0  0  0  0  0  0
    1.7164   13.4566   -0.4262 H   0  0  0  0  0  0  0  0  0  0  0  0
    3.1198   13.1731   -1.5837 H   0  0  0  0  0  0  0  0  0  0  0  0
    1.8586   15.4734   -1.8224 H   0  0  0  0  0  0  0  0  0  0  0  0
   -0.2368   12.9634   -4.1925 H   0  0  0  0  0  0  0  0  0  0  0  0
    2.4087   13.4171   -5.7057 H   0  0  0  0  0  0  0  0  0  0  0  0
    1.0152   12.3700   -6.2291 H   0  0  0  0  0  0  0  0  0  0  0  0
    1.0662   14.5323   -7.4310 H   0  0  0  0  0  0  0  0  0  0  0  0
   -0.4176   14.3190   -6.4221 H   0  0  0  0  0  0  0  0  0  0  0  0
    0.3796   16.5651   -6.1518 H   0  0  0  0  0  0  0  0  0  0  0  0
    2.5870   16.1510   -6.7170 H   0  0  0  0  0  0  0  0  0  0  0  0
   -1.2858   15.7599   -3.0112 H   0  0  0  0  0  0  0  0  0  0  0  0
   -1.3865   16.6587   -4.5632 H   0  0  0  0  0  0  0  0  0  0  0  0
   -1.3981   14.8625   -4.5632 H   0  0  0  0  0  0  0  0  0  0  0  0
    1.0055   16.9693   -2.4270 H   0  0  0  0  0  0  0  0  0  0  0  0
    2.0756   17.2736   -3.8374 H   0  0  0  0  0  0  0  0  0  0  0  0
    0.3907   17.8965   -3.8374 H   0  0  0  0  0  0  0  0  0  0  0  0
    3.5408   11.5445   -3.0313 H   0  0  0  0  0  0  0  0  0  0  0  0
    3.0038   10.7136   -4.5306 H   0  0  0  0  0  0  0  0  0  0  0  0
    3.2560   12.4921   -4.5306 H   0  0  0  0  0  0  0  0  0  0  0  0
    0.3635   10.7685   -5.0810 H   0  0  0  0  0  0  0  0  0  0  0  0
    1.3247    9.7338   -3.8811 H   0  0  0  0  0  0  0  0  0  0  0  0
   -1.4204   10.9543   -3.4848 H   0  0  0  0  0  0  0  0  0  0  0  0
   -0.9673    9.2082   -3.6016 H   0  0  0  0  0  0  0  0  0  0  0  0
    0.7806    8.9058   -0.3973 H   0  0  0  0  0  0  0  0  0  0  0  0
    0.3125    8.0911   -1.9282 H   0  0  0  0  0  0  0  0  0  0  0  0
    1.6256    9.3168   -1.9282 H   0  0  0  0  0  0  0  0  0  0  0  0
  1  2  1  0
  2  3  1  0
  3  4  1  0
  4  5  1  0
  5  6  1  0
  6  7  1  0
  7  8  1  0
  7  9  1  0
  2 10  1  0
 10 11  1  0
 11 12  1  0
 12 13  1  0
 13 14  1  1
 13 15  1  0
 15 16  1  0
 16 17  1  0
 17 18  2  0
 18 19  1  0
 19 20  1  0
 20 21  1  0
 21 22  1  0
 22 23  1  0
 22 24  1  0
 24 25  1  0
 24 26  1  0
 19 27  1  0
 27 28  1  6
 27 29  1  0
 29 30  1  0
 30 31  1  0
 31 32  1  6
  7  5  1  0
 31 10  1  0
 31 13  1  0
 27 15  1  0
 24 18  1  0
  1 33  1  0
  1 34  1  0
  1 35  1  0
  2 36  1  1
  3 37  1  0
  3 38  1  0
  4 39  1  0
  4 40  1  0
  5 41  1  1
  8 42  1  0
  8 43  1  0
  8 44  1  0
  9 45  1  0
  9 46  1  0
  9 47  1  0
 10 48  1  6
 11 49  1  0
 11 50  1  0
 12 51  1  0
 12 52  1  0
 14 53  1  0
 14 54  1  0
 14 55  1  0
 15 56  1  1
 16 57  1  0
 16 58  1  0
 17 59  1  0
 19 60  1  6
 20 61  1  0
 20 62  1  0
 21 63  1  0
 21 64  1  0
 22 65  1  6
 23 66  1  0
 25 67  1  0
 25 68  1  0
 25 69  1  0
 26 70  1  0
 26 71  1  0
 26 72  1  0
 28 73  1  0
 28 74  1  0
 28 75  1  0
 29 76  1  0
 29 77  1  0
 30 78  1  0
 30 79  1  0
 32 80  1  0
 32 81  1  0
 32 82  1  0
M  END
>  <meeko>  (10) 
{"is_sidechain": [false], "intermolecular_energy": 2.731, "internal_energy": -0.839}

$$$$
EPH_relaxed_0001_pdb2pqr_Repair_393_r2_0001_out
     RDKit          3D

 82 86  0  0  0  0  0  0  0  0999 V2000
   -4.0990    7.3610   -3.4590 C   0  0  0  0  0  0  0  0  0  0  0  0
   -3.7460    7.2840   -1.9710 C   0  0  2  0  0  0  0  0  0  0  0  0
   -4.9520    6.8620   -1.1090 C   0  0  0  0  0  0  0  0  0  0  0  0
   -6.0990    6.2460   -1.9150 C   0  0  0  0  0  0  0  0  0  0  0  0
   -7.4200    6.8550   -1.5550 C   0  0  2  0  0  0  0  0  0  0  0  0
   -8.4430    5.9100   -1.2160 O   0  0  0  0  0  0  0  0  0  0  0  0
   -8.6720    6.6960   -2.3970 C   0  0  0  0  0  0  0  0  0  0  0  0
   -8.6630    5.9030   -3.6660 C   0  0  0  0  0  0  0  0  0  0  0  0
   -9.7680    7.7040   -2.2470 C   0  0  0  0  0  0  0  0  0  0  0  0
   -3.2100    8.6290   -1.4940 C   0  0  1  0  0  0  0  0  0  0  0  0
   -3.8470    9.0850   -0.1550 C   0  0  0  0  0  0  0  0  0  0  0  0
   -2.7440    9.8360    0.6330 C   0  0  0  0  0  0  0  0  0  0  0  0
   -1.6200   10.0770   -0.4030 C   0  0  1  0  0  0  0  0  0  0  0  0
   -2.0790   11.3340   -1.2060 C   0  0  0  0  0  0  0  0  0  0  0  0
   -0.1770   10.2540    0.1720 C   0  0  2  0  0  0  0  0  0  0  0  0
    0.0140   11.4720    1.0930 C   0  0  0  0  0  0  0  0  0  0  0  0
    0.4360   12.7290    0.4070 C   0  0  0  0  0  0  0  0  0  0  0  0
    0.9270   12.8120   -0.8430 C   0  0  0  0  0  0  0  0  0  0  0  0
    1.1920   11.5470   -1.6700 C   0  0  1  0  0  0  0  0  0  0  0  0
    2.5920   11.6450   -2.3310 C   0  0  0  0  0  0  0  0  0  0  0  0
    2.7660   12.9230   -3.1470 C   0  0  0  0  0  0  0  0  0  0  0  0
    2.5520   14.1590   -2.2770 C   0  0  2  0  0  0  0  0  0  0  0  0
    3.6050   14.2310   -1.3110 O   0  0  0  0  0  0  0  0  0  0  0  0
    1.1770   14.1660   -1.5510 C   0  0  0  0  0  0  0  0  0  0  0  0
    0.0450   14.3910   -2.5840 C   0  0  0  0  0  0  0  0  0  0  0  0
    1.1460   15.3920   -0.5990 C   0  0  0  0  0  0  0  0  0  0  0  0
    0.9690   10.1660   -0.9160 C   0  0  1  0  0  0  0  0  0  0  0  0
    2.2700    9.7560   -0.1600 C   0  0  0  0  0  0  0  0  0  0  0  0
    0.6990    9.0370   -1.9800 C   0  0  0  0  0  0  0  0  0  0  0  0
   -0.7640    8.8320   -2.4180 C   0  0  0  0  0  0  0  0  0  0  0  0
   -1.6910    8.7260   -1.2040 C   0  0  2  0  0  0  0  0  0  0  0  0
   -1.2680    7.4570   -0.3880 C   0  0  0  0  0  0  0  0  0  0  0  0
   -5.1682    7.5942   -3.5706 H   0  0  0  0  0  0  0  0  0  0  0  0
   -3.4998    8.1496   -3.9377 H   0  0  0  0  0  0  0  0  0  0  0  0
   -3.8826    6.3945   -3.9377 H   0  0  0  0  0  0  0  0  0  0  0  0
   -2.9711    6.5121   -1.8543 H   0  0  0  0  0  0  0  0  0  0  0  0
   -4.6094    6.1217   -0.3710 H   0  0  0  0  0  0  0  0  0  0  0  0
   -5.3447    7.7746   -0.6367 H   0  0  0  0  0  0  0  0  0  0  0  0
   -5.9106    6.4110   -2.9861 H   0  0  0  0  0  0  0  0  0  0  0  0
   -6.1424    5.1716   -1.6829 H   0  0  0  0  0  0  0  0  0  0  0  0
   -6.9227    7.7405   -1.1323 H   0  0  0  0  0  0  0  0  0  0  0  0
   -8.6508    4.8293   -3.4273 H   0  0  0  0  0  0  0  0  0  0  0  0
   -9.5639    6.1382   -4.2518 H   0  0  0  0  0  0  0  0  0  0  0  0
   -7.7677    6.1586   -4.2518 H   0  0  0  0  0  0  0  0  0  0  0  0
   -9.9600    7.8806   -1.1784 H   0  0  0  0  0  0  0  0  0  0  0  0
   -9.4668    8.6472   -2.7262 H   0  0  0  0  0  0  0  0  0  0  0  0
  -10.6828    7.3251   -2.7262 H   0  0  0  0  0  0  0  0  0  0  0  0
   -3.4676    9.2499   -2.3648 H   0  0  0  0  0  0  0  0  0  0  0  0
   -4.6970    9.7557   -0.3491 H   0  0  0  0  0  0  0  0  0  0  0  0
   -4.2233    8.2237    0.4165 H   0  0  0  0  0  0  0  0  0  0  0  0
   -3.1262   10.7918    1.0208 H   0  0  0  0  0  0  0  0  0  0  0  0
   -2.3923    9.2654    1.5052 H   0  0  0  0  0  0  0  0  0  0  0  0
   -2.3699   12.1306   -0.5054 H   0  0  0  0  0  0  0  0  0  0  0  0
   -1.2517   11.6868   -1.8393 H   0  0  0  0  0  0  0  0  0  0  0  0
   -2.9390   11.0706   -1.8393 H   0  0  0  0  0  0  0  0  0  0  0  0
   -0.0710    9.3712    0.8196 H   0  0  0  0  0  0  0  0  0  0  0  0
   -0.9415   11.6667    1.6020 H   0  0  0  0  0  0  0  0  0  0  0  0
    0.8327   11.2097    1.7793 H   0  0  0  0  0  0  0  0  0  0  0  0
    0.3371   13.6677    0.9718 H   0  0  0  0  0  0  0  0  0  0  0  0
    0.4130   11.5224   -2.4462 H   0  0  0  0  0  0  0  0  0  0  0  0
    3.3571   11.6242   -1.5410 H   0  0  0  0  0  0  0  0  0  0  0  0
    2.6968   10.7930   -3.0188 H   0  0  0  0  0  0  0  0  0  0  0  0
    3.7836   12.9481   -3.5641 H   0  0  0  0  0  0  0  0  0  0  0  0
    2.0191   12.9284   -3.9546 H   0  0  0  0  0  0  0  0  0  0  0  0
    2.5615   15.0356   -2.9414 H   0  0  0  0  0  0  0  0  0  0  0  0
    3.6090   13.3950   -0.8160 H   0  0  0  0  0  0  0  0  0  0  0  0
   -0.9014   14.5791   -2.0558 H   0  0  0  0  0  0  0  0  0  0  0  0
    0.2913   15.2578   -3.2149 H   0  0  0  0  0  0  0  0  0  0  0  0
   -0.0589   13.4959   -3.2149 H   0  0  0  0  0  0  0  0  0  0  0  0
    1.1548   15.0458    0.4451 H   0  0  0  0  0  0  0  0  0  0  0  0
    2.0285   16.0221   -0.7838 H   0  0  0  0  0  0  0  0  0  0  0  0
    0.2328   15.9767   -0.7838 H   0  0  0  0  0  0  0  0  0  0  0  0
    2.0964    9.8107    0.9248 H   0  0  0  0  0  0  0  0  0  0  0  0
    2.5457    8.7274   -0.4358 H   0  0  0  0  0  0  0  0  0  0  0  0
    3.0856   10.4407   -0.4358 H   0  0  0  0  0  0  0  0  0  0  0  0
    1.2848    9.2796   -2.8789 H   0  0  0  0  0  0  0  0  0  0  0  0
    0.9854    8.0983   -1.4832 H   0  0  0  0  0  0  0  0  0  0  0  0
   -1.0774    9.6861   -3.0363 H   0  0  0  0  0  0  0  0  0  0  0  0
   -0.8299    7.8958   -2.9918 H   0  0  0  0  0  0  0  0  0  0  0  0
   -1.3398    7.6724    0.6883 H   0  0  0  0  0  0  0  0  0  0  0  0
   -1.9357    6.6198   -0.6397 H   0  0  0  0  0  0  0  0  0  0  0  0
   -0.2316    7.1879   -0.6397 H   0  0  0  0  0  0  0  0  0  0  0  0
  1  2  1  0
  2  3  1  0
  3  4  1  0
  4  5  1  0
  5  6  1  0
  6  7  1  0
  7  8  1  0
  7  9  1  0
  2 10  1  0
 10 11  1  0
 11 12  1  0
 12 13  1  0
 13 14  1  6
 13 15  1  0
 15 16  1  0
 16 17  1  0
 17 18  2  0
 18 19  1  0
 19 20  1  0
 20 21  1  0
 21 22  1  0
 22 23  1  0
 22 24  1  0
 24 25  1  0
 24 26  1  0
 19 27  1  0
 27 28  1  1
 27 29  1  0
 29 30  1  0
 30 31  1  0
 31 32  1  1
  7  5  1  0
 31 10  1  0
 31 13  1  0
 27 15  1  0
 24 18  1  0
  1 33  1  0
  1 34  1  0
  1 35  1  0
  2 36  1  6
  3 37  1  0
  3 38  1  0
  4 39  1  0
  4 40  1  0
  5 41  1  1
  8 42  1  0
  8 43  1  0
  8 44  1  0
  9 45  1  0
  9 46  1  0
  9 47  1  0
 10 48  1  6
 11 49  1  0
 11 50  1  0
 12 51  1  0
 12 52  1  0
 14 53  1  0
 14 54  1  0
 14 55  1  0
 15 56  1  1
 16 57  1  0
 16 58  1  0
 17 59  1  0
 19 60  1  6
 20 61  1  0
 20 62  1  0
 21 63  1  0
 21 64  1  0
 22 65  1  6
 23 66  1  0
 25 67  1  0
 25 68  1  0
 25 69  1  0
 26 70  1  0
 26 71  1  0
 26 72  1  0
 28 73  1  0
 28 74  1  0
 28 75  1  0
 29 76  1  0
 29 77  1  0
 30 78  1  0
 30 79  1  0
 32 80  1  0
 32 81  1  0
 32 82  1  0
M  END
>  <meeko>  (11) 
{"is_sidechain": [false], "intermolecular_energy": 2.731, "internal_energy": -0.839}

$$$$
EPH_relaxed_0001_pdb2pqr_Repair_393_r2_0001_out
     RDKit          3D

 82 86  0  0  0  0  0  0  0  0999 V2000
    0.3970   20.1940   -1.4670 C   0  0  0  0  0  0  0  0  0  0  0  0
    1.2890   19.3820   -0.5250 C   0  0  2  0  0  0  0  0  0  0  0  0
    2.5150   20.1860   -0.0470 C   0  0  0  0  0  0  0  0  0  0  0  0
    2.7400   20.1250    1.4660 C   0  0  0  0  0  0  0  0  0  0  0  0
    4.1800   19.8840    1.8030 C   0  0  2  0  0  0  0  0  0  0  0  0
    4.4600   18.5850    2.3430 O   0  0  0  0  0  0  0  0  0  0  0  0
    4.6890   19.7000    3.2200 C   0  0  0  0  0  0  0  0  0  0  0  0
    3.7620   19.7510    4.3940 C   0  0  0  0  0  0  0  0  0  0  0  0
    6.1360   19.9590    3.5010 C   0  0  0  0  0  0  0  0  0  0  0  0
    1.7430   18.1000   -1.2140 C   0  0  1  0  0  0  0  0  0  0  0  0
    3.2770   18.0580   -1.4460 C   0  0  0  0  0  0  0  0  0  0  0  0
    3.7140   16.5800   -1.2810 C   0  0  0  0  0  0  0  0  0  0  0  0
    2.3900   15.7790   -1.2900 C   0  0  1  0  0  0  0  0  0  0  0  0
    2.0210   15.6320   -2.8000 C   0  0  0  0  0  0  0  0  0  0  0  0
    2.4160   14.3940   -0.5650 C   0  0  2  0  0  0  0  0  0  0  0  0
    3.3830   13.3590   -1.1680 C   0  0  0  0  0  0  0  0  0  0  0  0
    2.7990   12.4800   -2.2240 C   0  0  0  0  0  0  0  0  0  0  0  0
    1.4860   12.3230   -2.4720 C   0  0  0  0  0  0  0  0  0  0  0  0
    0.4300   12.9950   -1.5860 C   0  0  1  0  0  0  0  0  0  0  0  0
   -0.6740   11.9670   -1.2240 C   0  0  0  0  0  0  0  0  0  0  0  0
   -1.2830   11.3050   -2.4570 C   0  0  0  0  0  0  0  0  0  0  0  0
   -0.2110   10.5980   -3.2820 C   0  0  2  0  0  0  0  0  0  0  0  0
    0.2990    9.4950   -2.5260 O   0  0  0  0  0  0  0  0  0  0  0  0
    0.9600   11.5330   -3.6960 C   0  0  0  0  0  0  0  0  0  0  0  0
    0.4640   12.5490   -4.7540 C   0  0  0  0  0  0  0  0  0  0  0  0
    2.0380   10.6650   -4.4000 C   0  0  0  0  0  0  0  0  0  0  0  0
    0.9840   13.7680   -0.3130 C   0  0  1  0  0  0  0  0  0  0  0  0
    1.1350   12.7810    0.8850 C   0  0  0  0  0  0  0  0  0  0  0  0
   -0.0710   14.8490    0.1320 C   0  0  0  0  0  0  0  0  0  0  0  0
    0.0310   16.2350   -0.5330 C   0  0  0  0  0  0  0  0  0  0  0  0
    1.4680   16.7630   -0.4830 C   0  0  2  0  0  0  0  0  0  0  0  0
    1.8590   16.9410    1.0240 C   0  0  0  0  0  0  0  0  0  0  0  0
   -0.2887   20.8182   -0.8753 H   0  0  0  0  0  0  0  0  0  0  0  0
    1.0239   20.8379   -2.1014 H   0  0  0  0  0  0  0  0  0  0  0  0
   -0.1853   19.5095   -2.1014 H   0  0  0  0  0  0  0  0  0  0  0  0
    0.6904   19.1343    0.3640 H   0  0  0  0  0  0  0  0  0  0  0  0
    3.4092   19.7858   -0.5473 H   0  0  0  0  0  0  0  0  0  0  0  0
    2.3273   21.2396   -0.3016 H   0  0  0  0  0  0  0  0  0  0  0  0
    2.4245   21.0797    1.9121 H   0  0  0  0  0  0  0  0  0  0  0  0
    2.1493   19.2881    1.8670 H   0  0  0  0  0  0  0  0  0  0  0  0
    4.5055   20.5392    0.9816 H   0  0  0  0  0  0  0  0  0  0  0  0
    4.3471   19.7188    5.3249 H   0  0  0  0  0  0  0  0  0  0  0  0
    3.1781   20.6826    4.3600 H   0  0  0  0  0  0  0  0  0  0  0  0
    3.0794   18.8890    4.3600 H   0  0  0  0  0  0  0  0  0  0  0  0
    6.2988   19.9881    4.5885 H   0  0  0  0  0  0  0  0  0  0  0  0
    6.7446   19.1555    3.0605 H   0  0  0  0  0  0  0  0  0  0  0  0
    6.4281   20.9237    3.0605 H   0  0  0  0  0  0  0  0  0  0  0  0
    1.1364   18.1587   -2.1298 H   0  0  0  0  0  0  0  0  0  0  0  0
    3.5167   18.4130   -2.4592 H   0  0  0  0  0  0  0  0  0  0  0  0
    3.8026   18.7075   -0.7305 H   0  0  0  0  0  0  0  0  0  0  0  0
    4.3608   16.2707   -2.1152 H   0  0  0  0  0  0  0  0  0  0  0  0
    4.2946   16.4165   -0.3611 H   0  0  0  0  0  0  0  0  0  0  0  0
    1.0026   15.2263   -2.8908 H   0  0  0  0  0  0  0  0  0  0  0  0
    2.0678   16.6174   -3.2865 H   0  0  0  0  0  0  0  0  0  0  0  0
    2.7326   14.9487   -3.2865 H   0  0  0  0  0  0  0  0  0  0  0  0
    2.8309   14.6516    0.4207 H   0  0  0  0  0  0  0  0  0  0  0  0
    4.2311   13.9030   -1.6093 H   0  0  0  0  0  0  0  0  0  0  0  0
    3.6694   12.6923   -0.3413 H   0  0  0  0  0  0  0  0  0  0  0  0
    3.5015   11.9128   -2.8523 H   0  0  0  0  0  0  0  0  0  0  0  0
   -0.0005   13.8074   -2.1899 H   0  0  0  0  0  0  0  0  0  0  0  0
   -0.2338   11.1867   -0.5858 H   0  0  0  0  0  0  0  0  0  0  0  0
   -1.4778   12.5089   -0.7041 H   0  0  0  0  0  0  0  0  0  0  0  0
   -2.0344   10.5685   -2.1361 H   0  0  0  0  0  0  0  0  0  0  0  0
   -1.7487   12.0832   -3.0795 H   0  0  0  0  0  0  0  0  0  0  0  0
   -0.6842   10.2565   -4.2144 H   0  0  0  0  0  0  0  0  0  0  0  0
   -0.4600    8.9590   -2.2390 H   0  0  0  0  0  0  0  0  0  0  0  0
    0.0357   13.4264   -4.2473 H   0  0  0  0  0  0  0  0  0  0  0  0
    1.3091   12.8652   -5.3832 H   0  0  0  0  0  0  0  0  0  0  0  0
   -0.3051   12.0772   -5.3832 H   0  0  0  0  0  0  0  0  0  0  0  0
    2.6588   10.1651   -3.6419 H   0  0  0  0  0  0  0  0  0  0  0  0
    1.5462    9.9079   -5.0284 H   0  0  0  0  0  0  0  0  0  0  0  0
    2.6727   11.3070   -5.0284 H   0  0  0  0  0  0  0  0  0  0  0  0
    1.0500   13.3365    1.8306 H   0  0  0  0  0  0  0  0  0  0  0  0
    0.3429   12.0194    0.8347 H   0  0  0  0  0  0  0  0  0  0  0  0
    2.1186   12.2910    0.8347 H   0  0  0  0  0  0  0  0  0  0  0  0
   -1.0714   14.4476   -0.0874 H   0  0  0  0  0  0  0  0  0  0  0  0
    0.1313   15.0262    1.1986 H   0  0  0  0  0  0  0  0  0  0  0  0
   -0.2864   16.1544   -1.5831 H   0  0  0  0  0  0  0  0  0  0  0  0
   -0.6188   16.9346    0.0132 H   0  0  0  0  0  0  0  0  0  0  0  0
    1.0428   16.5694    1.6609 H   0  0  0  0  0  0  0  0  0  0  0  0
    2.7765   16.3718    1.2345 H   0  0  0  0  0  0  0  0  0  0  0  0
    2.0322   18.0067    1.2345 H   0  0  0  0  0  0  0  0  0  0  0  0
  1  2  1  0
  2  3  1  0
  3  4  1  0
  4  5  1  0
  5  6  1  0
  6  7  1  0
  7  8  1  0
  7  9  1  0
  2 10  1  0
 10 11  1  0
 11 12  1  0
 12 13  1  0
 13 14  1  6
 13 15  1  0
 15 16  1  0
 16 17  1  0
 17 18  2  0
 18 19  1  0
 19 20  1  0
 20 21  1  0
 21 22  1  0
 22 23  1  0
 22 24  1  0
 24 25  1  0
 24 26  1  0
 19 27  1  0
 27 28  1  1
 27 29  1  0
 29 30  1  0
 30 31  1  0
 31 32  1  1
  7  5  1  0
 31 10  1  0
 31 13  1  0
 27 15  1  0
 24 18  1  0
  1 33  1  0
  1 34  1  0
  1 35  1  0
  2 36  1  1
  3 37  1  0
  3 38  1  0
  4 39  1  0
  4 40  1  0
  5 41  1  6
  8 42  1  0
  8 43  1  0
  8 44  1  0
  9 45  1  0
  9 46  1  0
  9 47  1  0
 10 48  1  6
 11 49  1  0
 11 50  1  0
 12 51  1  0
 12 52  1  0
 14 53  1  0
 14 54  1  0
 14 55  1  0
 15 56  1  1
 16 57  1  0
 16 58  1  0
 17 59  1  0
 19 60  1  6
 20 61  1  0
 20 62  1  0
 21 63  1  0
 21 64  1  0
 22 65  1  6
 23 66  1  0
 25 67  1  0
 25 68  1  0
 25 69  1  0
 26 70  1  0
 26 71  1  0
 26 72  1  0
 28 73  1  0
 28 74  1  0
 28 75  1  0
 29 76  1  0
 29 77  1  0
 30 78  1  0
 30 79  1  0
 32 80  1  0
 32 81  1  0
 32 82  1  0
M  END
>  <meeko>  (12) 
{"is_sidechain": [false], "intermolecular_energy": 2.731, "internal_energy": -0.839}

$$$$
EPH_relaxed_0001_pdb2pqr_Repair_393_r2_0001_out
     RDKit          3D

 82 86  0  0  0  0  0  0  0  0999 V2000
    0.2050    9.8310   -4.5780 C   0  0  0  0  0  0  0  0  0  0  0  0
    1.2810   10.5560   -3.7640 C   0  0  2  0  0  0  0  0  0  0  0  0
    1.7260    9.7400   -2.5340 C   0  0  0  0  0  0  0  0  0  0  0  0
    0.7220    8.6650   -2.1120 C   0  0  0  0  0  0  0  0  0  0  0  0
   -0.1510    9.1320   -0.9870 C   0  0  2  0  0  0  0  0  0  0  0  0
   -0.7320    8.0810   -0.2040 O   0  0  0  0  0  0  0  0  0  0  0  0
   -1.6500    8.9050   -0.9410 C   0  0  0  0  0  0  0  0  0  0  0  0
   -2.3650    8.1860   -2.0420 C   0  0  0  0  0  0  0  0  0  0  0  0
   -2.4830    9.8000   -0.0770 C   0  0  0  0  0  0  0  0  0  0  0  0
    0.7680   11.9220   -3.3260 C   0  0  1  0  0  0  0  0  0  0  0  0
   -0.7420   11.9070   -2.9680 C   0  0  0  0  0  0  0  0  0  0  0  0
   -0.9340   12.9070   -1.7990 C   0  0  0  0  0  0  0  0  0  0  0  0
    0.3910   13.7030   -1.7440 C   0  0  1  0  0  0  0  0  0  0  0  0
    0.2550   14.7860   -2.8590 C   0  0  0  0  0  0  0  0  0  0  0  0
    0.7590   14.3380   -0.3630 C   0  0  2  0  0  0  0  0  0  0  0  0
   -0.2330   15.3950    0.1530 C   0  0  0  0  0  0  0  0  0  0  0  0
    0.0620   16.8000   -0.2550 C   0  0  0  0  0  0  0  0  0  0  0  0
    1.2280   17.2380   -0.7640 C   0  0  0  0  0  0  0  0  0  0  0  0
    2.4370   16.3010   -0.8830 C   0  0  1  0  0  0  0  0  0  0  0  0
    3.7040   17.0200   -0.3500 C   0  0  0  0  0  0  0  0  0  0  0  0
    3.9410   18.3670   -1.0270 C   0  0  0  0  0  0  0  0  0  0  0  0
    2.7410   19.2910   -0.8380 C   0  0  2  0  0  0  0  0  0  0  0  0
    2.6330   19.6280    0.5490 O   0  0  0  0  0  0  0  0  0  0  0  0
    1.4050   18.6690   -1.3300 C   0  0  0  0  0  0  0  0  0  0  0  0
    1.4080   18.5840   -2.8760 C   0  0  0  0  0  0  0  0  0  0  0  0
    0.2570   19.6440   -0.9520 C   0  0  0  0  0  0  0  0  0  0  0  0
    2.2530   14.8500   -0.2620 C   0  0  1  0  0  0  0  0  0  0  0  0
    2.6150   14.8700    1.2540 C   0  0  0  0  0  0  0  0  0  0  0  0
    3.2700   13.8640   -0.9490 C   0  0  0  0  0  0  0  0  0  0  0  0
    2.8030   13.1760   -2.2460 C   0  0  0  0  0  0  0  0  0  0  0  0
    1.4150   12.5540   -2.0670 C   0  0  2  0  0  0  0  0  0  0  0  0
    1.5250   11.4450   -0.9670 C   0  0  0  0  0  0  0  0  0  0  0  0
   -0.5097    9.3495   -3.8944 H   0  0  0  0  0  0  0  0  0  0  0  0
   -0.3259   10.5563   -5.2121 H   0  0  0  0  0  0  0  0  0  0  0  0
    0.6778    9.0666   -5.2121 H   0  0  0  0  0  0  0  0  0  0  0  0
    2.1604   10.6802   -4.4130 H   0  0  0  0  0  0  0  0  0  0  0  0
    2.6815    9.2490   -2.7704 H   0  0  0  0  0  0  0  0  0  0  0  0
    1.8127   10.4457   -1.6947 H   0  0  0  0  0  0  0  0  0  0  0  0
    0.0874    8.4120   -2.9741 H   0  0  0  0  0  0  0  0  0  0  0  0
    1.2861    7.7863   -1.7659 H   0  0  0  0  0  0  0  0  0  0  0  0
    0.4625   10.0355   -0.8552 H   0  0  0  0  0  0  0  0  0  0  0  0
   -3.0781    7.4689   -1.6091 H   0  0  0  0  0  0  0  0  0  0  0  0
   -2.9080    8.9136   -2.6630 H   0  0  0  0  0  0  0  0  0  0  0  0
   -1.6343    7.6470   -2.6630 H   0  0  0  0  0  0  0  0  0  0  0  0
   -2.2792    9.5811    0.9816 H   0  0  0  0  0  0  0  0  0  0  0  0
   -2.2334   10.8502   -0.2889 H   0  0  0  0  0  0  0  0  0  0  0  0
   -3.5483    9.6264   -0.2889 H   0  0  0  0  0  0  0  0  0  0  0  0
    1.0266   12.5110   -4.2183 H   0  0  0  0  0  0  0  0  0  0  0  0
   -1.3404   12.2199   -3.8364 H   0  0  0  0  0  0  0  0  0  0  0  0
   -1.0702   10.8969   -2.6818 H   0  0  0  0  0  0  0  0  0  0  0  0
   -1.7823   13.5785   -1.9979 H   0  0  0  0  0  0  0  0  0  0  0  0
   -1.1553   12.3996   -0.8484 H   0  0  0  0  0  0  0  0  0  0  0  0
    0.1307   15.7758   -2.3955 H   0  0  0  0  0  0  0  0  0  0  0  0
    1.1604   14.7847   -3.4838 H   0  0  0  0  0  0  0  0  0  0  0  0
   -0.6219   14.5609   -3.4838 H   0  0  0  0  0  0  0  0  0  0  0  0
    0.6683   13.4822    0.3221 H   0  0  0  0  0  0  0  0  0  0  0  0
   -1.2332   15.1347   -0.2236 H   0  0  0  0  0  0  0  0  0  0  0  0
   -0.1558   15.3744    1.2501 H   0  0  0  0  0  0  0  0  0  0  0  0
   -0.7419   17.5402   -0.1289 H   0  0  0  0  0  0  0  0  0  0  0  0
    2.5520   16.0881   -1.9561 H   0  0  0  0  0  0  0  0  0  0  0  0
    3.5874   17.1845    0.7314 H   0  0  0  0  0  0  0  0  0  0  0  0
    4.5698   16.3784   -0.5709 H   0  0  0  0  0  0  0  0  0  0  0  0
    4.8318   18.8392   -0.5871 H   0  0  0  0  0  0  0  0  0  0  0  0
    4.0876   18.1977   -2.1040 H   0  0  0  0  0  0  0  0  0  0  0  0
    2.9144   20.1867   -1.4525 H   0  0  0  0  0  0  0  0  0  0  0  0
    2.9000   18.8470    1.0630 H   0  0  0  0  0  0  0  0  0  0  0  0
    1.4452   17.5290   -3.1851 H   0  0  0  0  0  0  0  0  0  0  0  0
    0.4929   19.0496   -3.2706 H   0  0  0  0  0  0  0  0  0  0  0  0
    2.2880   19.1130   -3.2706 H   0  0  0  0  0  0  0  0  0  0  0  0
    0.1784   19.7108    0.1431 H   0  0  0  0  0  0  0  0  0  0  0  0
    0.4711   20.6405   -1.3657 H   0  0  0  0  0  0  0  0  0  0  0  0
   -0.6917   19.2714   -1.3657 H   0  0  0  0  0  0  0  0  0  0  0  0
    1.6930   14.8191    1.8518 H   0  0  0  0  0  0  0  0  0  0  0  0
    3.2533   14.0057    1.4900 H   0  0  0  0  0  0  0  0  0  0  0  0
    3.1542   15.7993    1.4900 H   0  0  0  0  0  0  0  0  0  0  0  0
    4.1799   14.4355   -1.1846 H   0  0  0  0  0  0  0  0  0  0  0  0
    3.4124   13.0476   -0.2256 H   0  0  0  0  0  0  0  0  0  0  0  0
    2.7619   13.9212   -3.0541 H   0  0  0  0  0  0  0  0  0  0  0  0
    3.5162   12.3766   -2.4956 H   0  0  0  0  0  0  0  0  0  0  0  0
    1.4788   11.9103    0.0287 H   0  0  0  0  0  0  0  0  0  0  0  0
    0.6930   10.7342   -1.0785 H   0  0  0  0  0  0  0  0  0  0  0  0
    2.4805   10.9115   -1.0785 H   0  0  0  0  0  0  0  0  0  0  0  0
  1  2  1  0
  2  3  1  0
  3  4  1  0
  4  5  1  0
  5  6  1  0
  6  7  1  0
  7  8  1  0
  7  9  1  0
  2 10  1  0
 10 11  1  0
 11 12  1  0
 12 13  1  0
 13 14  1  6
 13 15  1  0
 15 16  1  0
 16 17  1  0
 17 18  2  0
 18 19  1  0
 19 20  1  0
 20 21  1  0
 21 22  1  0
 22 23  1  0
 22 24  1  0
 24 25  1  0
 24 26  1  0
 19 27  1  0
 27 28  1  1
 27 29  1  0
 29 30  1  0
 30 31  1  0
 31 32  1  1
  7  5  1  0
 31 10  1  0
 31 13  1  0
 27 15  1  0
 24 18  1  0
  1 33  1  0
  1 34  1  0
  1 35  1  0
  2 36  1  6
  3 37  1  0
  3 38  1  0
  4 39  1  0
  4 40  1  0
  5 41  1  1
  8 42  1  0
  8 43  1  0
  8 44  1  0
  9 45  1  0
  9 46  1  0
  9 47  1  0
 10 48  1  6
 11 49  1  0
 11 50  1  0
 12 51  1  0
 12 52  1  0
 14 53  1  0
 14 54  1  0
 14 55  1  0
 15 56  1  1
 16 57  1  0
 16 58  1  0
 17 59  1  0
 19 60  1  6
 20 61  1  0
 20 62  1  0
 21 63  1  0
 21 64  1  0
 22 65  1  6
 23 66  1  0
 25 67  1  0
 25 68  1  0
 25 69  1  0
 26 70  1  0
 26 71  1  0
 26 72  1  0
 28 73  1  0
 28 74  1  0
 28 75  1  0
 29 76  1  0
 29 77  1  0
 30 78  1  0
 30 79  1  0
 32 80  1  0
 32 81  1  0
 32 82  1  0
M  END
>  <meeko>  (13) 
{"is_sidechain": [false], "intermolecular_energy": 2.731, "internal_energy": -0.839}

$$$$
EPH_relaxed_0001_pdb2pqr_Repair_393_r2_0001_out
     RDKit          3D

 82 86  0  0  0  0  0  0  0  0999 V2000
    0.9000   14.9170   -2.6340 C   0  0  0  0  0  0  0  0  0  0  0  0
    1.1680   14.2440   -3.9830 C   0  0  2  0  0  0  0  0  0  0  0  0
    0.4650   14.9730   -5.1450 C   0  0  0  0  0  0  0  0  0  0  0  0
    1.0050   14.5930   -6.5270 C   0  0  0  0  0  0  0  0  0  0  0  0
    0.7770   15.6830   -7.5300 C   0  0  2  0  0  0  0  0  0  0  0  0
    0.4140   15.2250   -8.8390 O   0  0  0  0  0  0  0  0  0  0  0  0
    1.6720   15.9130   -8.7340 C   0  0  0  0  0  0  0  0  0  0  0  0
    2.8630   15.0460   -8.9970 C   0  0  0  0  0  0  0  0  0  0  0  0
    1.6750   17.2650   -9.3750 C   0  0  0  0  0  0  0  0  0  0  0  0
    0.7220   12.7880   -3.9350 C   0  0  1  0  0  0  0  0  0  0  0  0
    1.8530   11.8020   -4.3310 C   0  0  0  0  0  0  0  0  0  0  0  0
    1.6630   10.5310   -3.4640 C   0  0  0  0  0  0  0  0  0  0  0  0
    0.2540   10.6870   -2.8460 C   0  0  1  0  0  0  0  0  0  0  0  0
   -0.7290   10.2230   -3.9670 C   0  0  0  0  0  0  0  0  0  0  0  0
   -0.0000    9.9270   -1.5040 C   0  0  2  0  0  0  0  0  0  0  0  0
    0.1080    8.3950   -1.5920 C   0  0  0  0  0  0  0  0  0  0  0  0
   -1.1660    7.6830   -1.9100 C   0  0  0  0  0  0  0  0  0  0  0  0
   -2.3990    8.2160   -1.8380 C   0  0  0  0  0  0  0  0  0  0  0  0
   -2.6120    9.6400   -1.3070 C   0  0  1  0  0  0  0  0  0  0  0  0
   -3.7840    9.6440   -0.2910 C   0  0  0  0  0  0  0  0  0  0  0  0
   -5.0610    9.0400   -0.8690 C   0  0  0  0  0  0  0  0  0  0  0  0
   -4.8240    7.6050   -1.3320 C   0  0  2  0  0  0  0  0  0  0  0  0
   -4.5550    6.7890   -0.1880 O   0  0  0  0  0  0  0  0  0  0  0  0
   -3.6580    7.4750   -2.3520 C   0  0  0  0  0  0  0  0  0  0  0  0
   -4.0750    8.1060   -3.7030 C   0  0  0  0  0  0  0  0  0  0  0  0
   -3.4320    5.9640   -2.6290 C   0  0  0  0  0  0  0  0  0  0  0  0
   -1.3170   10.3710   -0.7470 C   0  0  1  0  0  0  0  0  0  0  0  0
   -1.1090   10.0100    0.7560 C   0  0  0  0  0  0  0  0  0  0  0  0
   -1.5420   11.9290   -0.8010 C   0  0  0  0  0  0  0  0  0  0  0  0
   -1.1590   12.6400   -2.1130 C   0  0  0  0  0  0  0  0  0  0  0  0
    0.2460   12.2350   -2.5680 C   0  0  2  0  0  0  0  0  0  0  0  0
    1.2590   12.7090   -1.4710 C   0  0  0  0  0  0  0  0  0  0  0  0
    1.1739   14.2293   -1.8203 H   0  0  0  0  0  0  0  0  0  0  0  0
    1.5012   15.8349   -2.5563 H   0  0  0  0  0  0  0  0  0  0  0  0
   -0.1676   15.1703   -2.5563 H   0  0  0  0  0  0  0  0  0  0  0  0
    2.2510   14.2946   -4.1690 H   0  0  0  0  0  0  0  0  0  0  0  0
   -0.6067   14.7274   -5.1114 H   0  0  0  0  0  0  0  0  0  0  0  0
    0.6536   16.0484   -5.0108 H   0  0  0  0  0  0  0  0  0  0  0  0
    2.0854   14.4020   -6.4474 H   0  0  0  0  0  0  0  0  0  0  0  0
    0.4701   13.6948   -6.8691 H   0  0  0  0  0  0  0  0  0  0  0  0
    0.4075   16.3600   -6.7457 H   0  0  0  0  0  0  0  0  0  0  0  0
    3.3022   14.7263   -8.0405 H   0  0  0  0  0  0  0  0  0  0  0  0
    2.5526   14.1611   -9.5719 H   0  0  0  0  0  0  0  0  0  0  0  0
    3.6097   15.6133   -9.5719 H   0  0  0  0  0  0  0  0  0  0  0  0
    1.6767   18.0406   -8.5950 H   0  0  0  0  0  0  0  0  0  0  0  0
    2.5734   17.3722  -10.0006 H   0  0  0  0  0  0  0  0  0  0  0  0
    0.7771   17.3762  -10.0006 H   0  0  0  0  0  0  0  0  0  0  0  0
   -0.1223   12.8312   -4.6388 H   0  0  0  0  0  0  0  0  0  0  0  0
    1.7767   11.5472   -5.3984 H   0  0  0  0  0  0  0  0  0  0  0  0
    2.8437   12.2497   -4.1633 H   0  0  0  0  0  0  0  0  0  0  0  0
    1.7161    9.6252   -4.0859 H   0  0  0  0  0  0  0  0  0  0  0  0
    2.4454   10.4281   -2.6977 H   0  0  0  0  0  0  0  0  0  0  0  0
   -1.6331    9.7962   -3.5083 H   0  0  0  0  0  0  0  0  0  0  0  0
   -1.0066   11.0852   -4.5912 H   0  0  0  0  0  0  0  0  0  0  0  0
   -0.2398    9.4607   -4.5912 H   0  0  0  0  0  0  0  0  0  0  0  0
    0.8490   10.2515   -0.8844 H   0  0  0  0  0  0  0  0  0  0  0  0
    0.8392    8.1503   -2.3766 H   0  0  0  0  0  0  0  0  0  0  0  0
    0.4060    8.0528   -0.5900 H   0  0  0  0  0  0  0  0  0  0  0  0
   -1.0894    6.6335   -2.2303 H   0  0  0  0  0  0  0  0  0  0  0  0
   -2.8738   10.2547   -2.1808 H   0  0  0  0  0  0  0  0  0  0  0  0
   -3.4866    9.0606    0.5929 H   0  0  0  0  0  0  0  0  0  0  0  0
   -3.9975   10.6914   -0.0314 H   0  0  0  0  0  0  0  0  0  0  0  0
   -5.8434    9.0443   -0.0958 H   0  0  0  0  0  0  0  0  0  0  0  0
   -5.3734    9.6416   -1.7353 H   0  0  0  0  0  0  0  0  0  0  0  0
   -5.7345    7.2721   -1.8518 H   0  0  0  0  0  0  0  0  0  0  0  0
   -3.5950    6.8030   -0.0350 H   0  0  0  0  0  0  0  0  0  0  0  0
   -4.6727    9.0104   -3.5163 H   0  0  0  0  0  0  0  0  0  0  0  0
   -3.1750    8.3731   -4.2762 H   0  0  0  0  0  0  0  0  0  0  0  0
   -4.6736    7.3828   -4.2762 H   0  0  0  0  0  0  0  0  0  0  0  0
   -3.3513    5.4242   -1.6740 H   0  0  0  0  0  0  0  0  0  0  0  0
   -4.2806    5.5658   -3.2046 H   0  0  0  0  0  0  0  0  0  0  0  0
   -2.5041    5.8315   -3.2046 H   0  0  0  0  0  0  0  0  0  0  0  0
   -1.5590   10.7911    1.3864 H   0  0  0  0  0  0  0  0  0  0  0  0
   -1.5888    9.0438    0.9708 H   0  0  0  0  0  0  0  0  0  0  0  0
   -0.0324    9.9405    0.9708 H   0  0  0  0  0  0  0  0  0  0  0  0
   -2.6104   12.1176   -0.6197 H   0  0  0  0  0  0  0  0  0  0  0  0
   -0.8654   12.3446   -0.0397 H   0  0  0  0  0  0  0  0  0  0  0  0
   -1.8829   12.3664   -2.8948 H   0  0  0  0  0  0  0  0  0  0  0  0
   -1.1710   13.7261   -1.9389 H   0  0  0  0  0  0  0  0  0  0  0  0
    0.8383   12.5122   -0.4739 H   0  0  0  0  0  0  0  0  0  0  0  0
    2.2056   12.1603   -1.5844 H   0  0  0  0  0  0  0  0  0  0  0  0
    1.4443   13.7873   -1.5844 H   0  0  0  0  0  0  0  0  0  0  0  0
  1  2  1  0
  2  3  1  0
  3  4  1  0
  4  5  1  0
  5  6  1  0
  6  7  1  0
  7  8  1  0
  7  9  1  0
  2 10  1  0
 10 11  1  0
 11 12  1  0
 12 13  1  0
 13 14  1  6
 13 15  1  0
 15 16  1  0
 16 17  1  0
 17 18  2  0
 18 19  1  0
 19 20  1  0
 20 21  1  0
 21 22  1  0
 22 23  1  0
 22 24  1  0
 24 25  1  0
 24 26  1  0
 19 27  1  0
 27 28  1  1
 27 29  1  0
 29 30  1  0
 30 31  1  0
 31 32  1  1
  7  5  1  0
 31 10  1  0
 31 13  1  0
 27 15  1  0
 24 18  1  0
  1 33  1  0
  1 34  1  0
  1 35  1  0
  2 36  1  6
  3 37  1  0
  3 38  1  0
  4 39  1  0
  4 40  1  0
  5 41  1  1
  8 42  1  0
  8 43  1  0
  8 44  1  0
  9 45  1  0
  9 46  1  0
  9 47  1  0
 10 48  1  6
 11 49  1  0
 11 50  1  0
 12 51  1  0
 12 52  1  0
 14 53  1  0
 14 54  1  0
 14 55  1  0
 15 56  1  1
 16 57  1  0
 16 58  1  0
 17 59  1  0
 19 60  1  6
 20 61  1  0
 20 62  1  0
 21 63  1  0
 21 64  1  0
 22 65  1  6
 23 66  1  0
 25 67  1  0
 25 68  1  0
 25 69  1  0
 26 70  1  0
 26 71  1  0
 26 72  1  0
 28 73  1  0
 28 74  1  0
 28 75  1  0
 29 76  1  0
 29 77  1  0
 30 78  1  0
 30 79  1  0
 32 80  1  0
 32 81  1  0
 32 82  1  0
M  END
>  <meeko>  (14) 
{"is_sidechain": [false], "intermolecular_energy": 2.731, "internal_energy": -0.839}

$$$$
EPH_relaxed_0001_pdb2pqr_Repair_393_r2_0001_out
     RDKit          3D

 82 86  0  0  0  0  0  0  0  0999 V2000
   -2.8490    7.6170   -0.5150 C   0  0  0  0  0  0  0  0  0  0  0  0
   -3.2020    9.0710   -0.1920 C   0  0  2  0  0  0  0  0  0  0  0  0
   -4.7100    9.3520   -0.3490 C   0  0  0  0  0  0  0  0  0  0  0  0
   -5.5170    8.1370   -0.8140 C   0  0  0  0  0  0  0  0  0  0  0  0
   -6.8550    8.5350   -1.3570 C   0  0  2  0  0  0  0  0  0  0  0  0
   -7.9680    8.1890   -0.5220 O   0  0  0  0  0  0  0  0  0  0  0  0
   -7.9090    7.5370   -1.8010 C   0  0  0  0  0  0  0  0  0  0  0  0
   -7.6690    6.0620   -1.7230 C   0  0  0  0  0  0  0  0  0  0  0  0
   -8.9660    7.9920   -2.7590 C   0  0  0  0  0  0  0  0  0  0  0  0
   -2.4020   10.0110   -1.0870 C   0  0  1  0  0  0  0  0  0  0  0  0
   -3.0200   11.4320   -1.1650 C   0  0  0  0  0  0  0  0  0  0  0  0
   -1.8380   12.4290   -1.2720 C   0  0  0  0  0  0  0  0  0  0  0  0
   -0.6080   11.5440   -1.5840 C   0  0  1  0  0  0  0  0  0  0  0  0
   -0.6860   11.2770   -3.1200 C   0  0  0  0  0  0  0  0  0  0  0  0
    0.7830   12.1240   -1.1680 C   0  0  2  0  0  0  0  0  0  0  0  0
    1.1830   13.4310   -1.8740 C   0  0  0  0  0  0  0  0  0  0  0  0
    1.9470   13.2620   -3.1450 C   0  0  0  0  0  0  0  0  0  0  0  0
    2.5450   12.1270   -3.5530 C   0  0  0  0  0  0  0  0  0  0  0  0
    2.5690   10.8830   -2.6560 C   0  0  1  0  0  0  0  0  0  0  0  0
    4.0010   10.2880   -2.6330 C   0  0  0  0  0  0  0  0  0  0  0  0
    4.5410   10.0090   -4.0330 C   0  0  0  0  0  0  0  0  0  0  0  0
    4.5570   11.2820   -4.8750 C   0  0  2  0  0  0  0  0  0  0  0  0
    5.5140   12.1900   -4.3210 O   0  0  0  0  0  0  0  0  0  0  0  0
    3.1680   11.9760   -4.9620 C   0  0  0  0  0  0  0  0  0  0  0  0
    2.2120   11.1180   -5.8270 C   0  0  0  0  0  0  0  0  0  0  0  0
    3.3530   13.3180   -5.7200 C   0  0  0  0  0  0  0  0  0  0  0  0
    1.9610   11.0670   -1.1990 C   0  0  1  0  0  0  0  0  0  0  0  0
    3.0590   11.5960   -0.2270 C   0  0  0  0  0  0  0  0  0  0  0  0
    1.5180    9.6610   -0.6460 C   0  0  0  0  0  0  0  0  0  0  0  0
    0.0900    9.1970   -0.9910 C   0  0  0  0  0  0  0  0  0  0  0  0
   -0.9330   10.2960   -0.6850 C   0  0  2  0  0  0  0  0  0  0  0  0
   -0.8930   10.5700    0.8570 C   0  0  0  0  0  0  0  0  0  0  0  0
   -2.7128    7.0560    0.4214 H   0  0  0  0  0  0  0  0  0  0  0  0
   -3.6630    7.1631   -1.0992 H   0  0  0  0  0  0  0  0  0  0  0  0
   -1.9175    7.5869   -1.0992 H   0  0  0  0  0  0  0  0  0  0  0  0
   -2.9412    9.2480    0.8619 H   0  0  0  0  0  0  0  0  0  0  0  0
   -5.1053    9.6799    0.6237 H   0  0  0  0  0  0  0  0  0  0  0  0
   -4.8141   10.1237   -1.1259 H   0  0  0  0  0  0  0  0  0  0  0  0
   -4.9536    7.6151   -1.6016 H   0  0  0  0  0  0  0  0  0  0  0  0
   -5.6806    7.4816    0.0541 H   0  0  0  0  0  0  0  0  0  0  0  0
   -6.4183    9.4158   -1.8504 H   0  0  0  0  0  0  0  0  0  0  0  0
   -7.6189    5.7539   -0.6682 H   0  0  0  0  0  0  0  0  0  0  0  0
   -8.4923    5.5297   -2.2217 H   0  0  0  0  0  0  0  0  0  0  0  0
   -6.7194    5.8181   -2.2217 H   0  0  0  0  0  0  0  0  0  0  0  0
   -9.8343    8.3658   -2.1965 H   0  0  0  0  0  0  0  0  0  0  0  0
   -8.5650    8.7972   -3.3921 H   0  0  0  0  0  0  0  0  0  0  0  0
   -9.2752    7.1473   -3.3921 H   0  0  0  0  0  0  0  0  0  0  0  0
   -2.4316    9.4404   -2.0270 H   0  0  0  0  0  0  0  0  0  0  0  0
   -3.6672   11.5154   -2.0506 H   0  0  0  0  0  0  0  0  0  0  0  0
   -3.6360   11.6438   -0.2786 H   0  0  0  0  0  0  0  0  0  0  0  0
   -2.0119   13.1519   -2.0826 H   0  0  0  0  0  0  0  0  0  0  0  0
   -1.7052   13.0188   -0.3530 H   0  0  0  0  0  0  0  0  0  0  0  0
   -0.9905   10.2347   -3.2960 H   0  0  0  0  0  0  0  0  0  0  0  0
   -1.4234   11.9559   -3.5732 H   0  0  0  0  0  0  0  0  0  0  0  0
    0.3009   11.4522   -3.5732 H   0  0  0  0  0  0  0  0  0  0  0  0
    0.6209   12.3918   -0.1135 H   0  0  0  0  0  0  0  0  0  0  0  0
    0.2630   13.9891   -2.1023 H   0  0  0  0  0  0  0  0  0  0  0  0
    1.8573   13.9564   -1.1816 H   0  0  0  0  0  0  0  0  0  0  0  0
    2.0283   14.1390   -3.8040 H   0  0  0  0  0  0  0  0  0  0  0  0
    1.8740   10.1643   -3.1148 H   0  0  0  0  0  0  0  0  0  0  0  0
    4.6715   11.0018   -2.1321 H   0  0  0  0  0  0  0  0  0  0  0  0
    3.9559    9.3295   -2.0952 H   0  0  0  0  0  0  0  0  0  0  0  0
    5.5659    9.6179   -3.9522 H   0  0  0  0  0  0  0  0  0  0  0  0
    3.8859    9.2729   -4.5218 H   0  0  0  0  0  0  0  0  0  0  0  0
    4.8299   10.9951   -5.9013 H   0  0  0  0  0  0  0  0  0  0  0  0
    5.2100   12.4300   -3.4290 H   0  0  0  0  0  0  0  0  0  0  0  0
    1.5546   10.5279   -5.1716 H   0  0  0  0  0  0  0  0  0  0  0  0
    1.6013   11.7767   -6.4619 H   0  0  0  0  0  0  0  0  0  0  0  0
    2.8011   10.4399   -6.4619 H   0  0  0  0  0  0  0  0  0  0  0  0
    3.4659   14.1366   -4.9940 H   0  0  0  0  0  0  0  0  0  0  0  0
    4.2519   13.2615   -6.3516 H   0  0  0  0  0  0  0  0  0  0  0  0
    2.4724   13.5068   -6.3516 H   0  0  0  0  0  0  0  0  0  0  0  0
    2.7347   11.4398    0.8124 H   0  0  0  0  0  0  0  0  0  0  0  0
    3.9984   11.0516   -0.4038 H   0  0  0  0  0  0  0  0  0  0  0  0
    3.2187   12.6699   -0.4038 H   0  0  0  0  0  0  0  0  0  0  0  0
    2.2170    8.9112   -1.0451 H   0  0  0  0  0  0  0  0  0  0  0  0
    1.5298    9.7658    0.4489 H   0  0  0  0  0  0  0  0  0  0  0  0
    0.0413    8.9480   -2.0614 H   0  0  0  0  0  0  0  0  0  0  0  0
   -0.1495    8.3148   -0.3791 H   0  0  0  0  0  0  0  0  0  0  0  0
   -1.0311    9.6241    1.4012 H   0  0  0  0  0  0  0  0  0  0  0  0
    0.0788   11.0094    1.1262 H   0  0  0  0  0  0  0  0  0  0  0  0
   -1.6986   11.2689    1.1262 H   0  0  0  0  0  0  0  0  0  0  0  0
  1  2  1  0
  2  3  1  0
  3  4  1  0
  4  5  1  0
  5  6  1  0
  6  7  1  0
  7  8  1  0
  7  9  1  0
  2 10  1  0
 10 11  1  0
 11 12  1  0
 12 13  1  0
 13 14  1  6
 13 15  1  0
 15 16  1  0
 16 17  1  0
 17 18  2  0
 18 19  1  0
 19 20  1  0
 20 21  1  0
 21 22  1  0
 22 23  1  0
 22 24  1  0
 24 25  1  0
 24 26  1  0
 19 27  1  0
 27 28  1  1
 27 29  1  0
 29 30  1  0
 30 31  1  0
 31 32  1  1
  7  5  1  0
 31 10  1  0
 31 13  1  0
 27 15  1  0
 24 18  1  0
  1 33  1  0
  1 34  1  0
  1 35  1  0
  2 36  1  1
  3 37  1  0
  3 38  1  0
  4 39  1  0
  4 40  1  0
  5 41  1  6
  8 42  1  0
  8 43  1  0
  8 44  1  0
  9 45  1  0
  9 46  1  0
  9 47  1  0
 10 48  1  6
 11 49  1  0
 11 50  1  0
 12 51  1  0
 12 52  1  0
 14 53  1  0
 14 54  1  0
 14 55  1  0
 15 56  1  1
 16 57  1  0
 16 58  1  0
 17 59  1  0
 19 60  1  6
 20 61  1  0
 20 62  1  0
 21 63  1  0
 21 64  1  0
 22 65  1  6
 23 66  1  0
 25 67  1  0
 25 68  1  0
 25 69  1  0
 26 70  1  0
 26 71  1  0
 26 72  1  0
 28 73  1  0
 28 74  1  0
 28 75  1  0
 29 76  1  0
 29 77  1  0
 30 78  1  0
 30 79  1  0
 32 80  1  0
 32 81  1  0
 32 82  1  0
M  END
>  <meeko>  (15) 
{"is_sidechain": [false], "intermolecular_energy": 2.731, "internal_energy": -0.839}

$$$$
EPH_relaxed_0001_pdb2pqr_Repair_393_r2_0001_out
     RDKit          3D

 82 86  0  0  0  0  0  0  0  0999 V2000
    3.1430   14.8410   -7.5410 C   0  0  0  0  0  0  0  0  0  0  0  0
    1.6190   14.8980   -7.3970 C   0  0  2  0  0  0  0  0  0  0  0  0
    1.0200   16.1540   -8.0620 C   0  0  0  0  0  0  0  0  0  0  0  0
    1.9470   16.8070   -9.0910 C   0  0  0  0  0  0  0  0  0  0  0  0
    1.5930   16.4030  -10.4900 C   0  0  2  0  0  0  0  0  0  0  0  0
    0.9890   15.1080  -10.6050 O   0  0  0  0  0  0  0  0  0  0  0  0
    2.2730   15.2650  -11.2300 C   0  0  0  0  0  0  0  0  0  0  0  0
    3.3630   14.4610  -10.5920 C   0  0  0  0  0  0  0  0  0  0  0  0
    2.2210   15.2520  -12.7260 C   0  0  0  0  0  0  0  0  0  0  0  0
    1.2350   14.8550   -5.9230 C   0  0  1  0  0  0  0  0  0  0  0  0
   -0.0180   15.7140   -5.6070 C   0  0  0  0  0  0  0  0  0  0  0  0
   -0.7990   14.9740   -4.4910 C   0  0  0  0  0  0  0  0  0  0  0  0
    0.1870   13.9000   -3.9720 C   0  0  1  0  0  0  0  0  0  0  0  0
    1.1260   14.6620   -2.9850 C   0  0  0  0  0  0  0  0  0  0  0  0
   -0.4530   12.6400   -3.3040 C   0  0  2  0  0  0  0  0  0  0  0  0
   -1.2700   12.9200   -2.0310 C   0  0  0  0  0  0  0  0  0  0  0  0
   -0.5000   12.8600   -0.7530 C   0  0  0  0  0  0  0  0  0  0  0  0
    0.7220   12.3160   -0.6010 C   0  0  0  0  0  0  0  0  0  0  0  0
    1.4140   11.5970   -1.7660 C   0  0  1  0  0  0  0  0  0  0  0  0
    1.9980   10.2490   -1.2690 C   0  0  0  0  0  0  0  0  0  0  0  0
    2.9140   10.4180   -0.0600 C   0  0  0  0  0  0  0  0  0  0  0  0
    2.1730   11.0830    1.0970 C   0  0  2  0  0  0  0  0  0  0  0  0
    1.1580   10.1910    1.5680 O   0  0  0  0  0  0  0  0  0  0  0  0
    1.5330   12.4460    0.7110 C   0  0  0  0  0  0  0  0  0  0  0  0
    2.6460   13.5000    0.4920 C   0  0  0  0  0  0  0  0  0  0  0  0
    0.6990   12.9420    1.9240 C   0  0  0  0  0  0  0  0  0  0  0  0
    0.5530   11.4370   -3.0920 C   0  0  1  0  0  0  0  0  0  0  0  0
   -0.3110   10.1420   -3.0120 C   0  0  0  0  0  0  0  0  0  0  0  0
    1.5250   11.2480   -4.3160 C   0  0  0  0  0  0  0  0  0  0  0  0
    2.0280   12.5280   -5.0090 C   0  0  0  0  0  0  0  0  0  0  0  0
    0.8660   13.4740   -5.3250 C   0  0  2  0  0  0  0  0  0  0  0  0
   -0.0850   12.7440   -6.3340 C   0  0  0  0  0  0  0  0  0  0  0  0
    3.6052   14.8237   -6.5430 H   0  0  0  0  0  0  0  0  0  0  0  0
    3.4255   13.9317   -8.0917 H   0  0  0  0  0  0  0  0  0  0  0  0
    3.4926   15.7267   -8.0917 H   0  0  0  0  0  0  0  0  0  0  0  0
    1.2038   14.0208   -7.9148 H   0  0  0  0  0  0  0  0  0  0  0  0
    0.0865   15.8672   -8.5682 H   0  0  0  0  0  0  0  0  0  0  0  0
    0.8547   16.8926   -7.2638 H   0  0  0  0  0  0  0  0  0  0  0  0
    1.8631   17.9003   -9.0035 H   0  0  0  0  0  0  0  0  0  0  0  0
    2.9752   16.4734   -8.8872 H   0  0  0  0  0  0  0  0  0  0  0  0
    1.3943   17.4489  -10.7667 H   0  0  0  0  0  0  0  0  0  0  0  0
    3.2743   14.5264   -9.4975 H   0  0  0  0  0  0  0  0  0  0  0  0
    3.2746   13.4101  -10.9049 H   0  0  0  0  0  0  0  0  0  0  0  0
    4.3409   14.8557  -10.9049 H   0  0  0  0  0  0  0  0  0  0  0  0
    1.2028   14.9974  -13.0553 H   0  0  0  0  0  0  0  0  0  0  0  0
    2.4932   16.2458  -13.1110 H   0  0  0  0  0  0  0  0  0  0  0  0
    2.9288   14.5032  -13.1110 H   0  0  0  0  0  0  0  0  0  0  0  0
    2.1719   15.2203   -5.4771 H   0  0  0  0  0  0  0  0  0  0  0  0
    0.2854   16.7123   -5.2586 H   0  0  0  0  0  0  0  0  0  0  0  0
   -0.6416   15.8468   -6.5034 H   0  0  0  0  0  0  0  0  0  0  0  0
   -1.0762   15.6689   -3.6846 H   0  0  0  0  0  0  0  0  0  0  0  0
   -1.7382   14.5354   -4.8592 H   0  0  0  0  0  0  0  0  0  0  0  0
    0.8374   14.4278   -1.9497 H   0  0  0  0  0  0  0  0  0  0  0  0
    2.1671   14.3502   -3.1549 H   0  0  0  0  0  0  0  0  0  0  0  0
    1.0352   15.7450   -3.1549 H   0  0  0  0  0  0  0  0  0  0  0  0
   -1.1821   12.3168   -4.0616 H   0  0  0  0  0  0  0  0  0  0  0  0
   -1.7033   13.9272   -2.1198 H   0  0  0  0  0  0  0  0  0  0  0  0
   -2.0229   12.1203   -1.9705 H   0  0  0  0  0  0  0  0  0  0  0  0
   -0.9711   13.2973    0.1397 H   0  0  0  0  0  0  0  0  0  0  0  0
    2.2294   12.2600   -2.0908 H   0  0  0  0  0  0  0  0  0  0  0  0
    1.1659    9.5854   -0.9909 H   0  0  0  0  0  0  0  0  0  0  0  0
    2.5991    9.8240   -2.0864 H   0  0  0  0  0  0  0  0  0  0  0  0
    3.2710    9.4287    0.2623 H   0  0  0  0  0  0  0  0  0  0  0  0
    3.7613   11.0575   -0.3481 H   0  0  0  0  0  0  0  0  0  0  0  0
    2.9117   11.2947    1.8841 H   0  0  0  0  0  0  0  0  0  0  0  0
    0.9530   10.4370    2.4860 H   0  0  0  0  0  0  0  0  0  0  0  0
    3.0161   13.8504    1.4668 H   0  0  0  0  0  0  0  0  0  0  0  0
    3.4739   13.0470   -0.0732 H   0  0  0  0  0  0  0  0  0  0  0  0
    2.2387   14.3513   -0.0732 H   0  0  0  0  0  0  0  0  0  0  0  0
    1.1982   12.6451    2.8582 H   0  0  0  0  0  0  0  0  0  0  0  0
    0.6132   14.0380    1.8864 H   0  0  0  0  0  0  0  0  0  0  0  0
   -0.3050   12.4941    1.8864 H   0  0  0  0  0  0  0  0  0  0  0  0
   -0.4847    9.8817   -1.9575 H   0  0  0  0  0  0  0  0  0  0  0  0
   -1.2761   10.3137   -3.5110 H   0  0  0  0  0  0  0  0  0  0  0  0
    0.2181    9.3168   -3.5110 H   0  0  0  0  0  0  0  0  0  0  0  0
    2.4062   10.6952   -3.9585 H   0  0  0  0  0  0  0  0  0  0  0  0
    0.9290   10.7241   -5.0778 H   0  0  0  0  0  0  0  0  0  0  0  0
    2.7390   13.0410   -4.3447 H   0  0  0  0  0  0  0  0  0  0  0  0
    2.5171   12.2462   -5.9531 H   0  0  0  0  0  0  0  0  0  0  0  0
   -0.8373   12.1666   -5.7766 H   0  0  0  0  0  0  0  0  0  0  0  0
   -0.5896   13.4889   -6.9668 H   0  0  0  0  0  0  0  0  0  0  0  0
    0.5042   12.0640   -6.9668 H   0  0  0  0  0  0  0  0  0  0  0  0
  1  2  1  0
  2  3  1  0
  3  4  1  0
  4  5  1  0
  5  6  1  0
  6  7  1  0
  7  8  1  0
  7  9  1  0
  2 10  1  0
 10 11  1  0
 11 12  1  0
 12 13  1  0
 13 14  1  1
 13 15  1  0
 15 16  1  0
 16 17  1  0
 17 18  2  0
 18 19  1  0
 19 20  1  0
 20 21  1  0
 21 22  1  0
 22 23  1  0
 22 24  1  0
 24 25  1  0
 24 26  1  0
 19 27  1  0
 27 28  1  1
 27 29  1  0
 29 30  1  0
 30 31  1  0
 31 32  1  6
  7  5  1  0
 31 10  1  0
 31 13  1  0
 27 15  1  0
 24 18  1  0
  1 33  1  0
  1 34  1  0
  1 35  1  0
  2 36  1  6
  3 37  1  0
  3 38  1  0
  4 39  1  0
  4 40  1  0
  5 41  1  6
  8 42  1  0
  8 43  1  0
  8 44  1  0
  9 45  1  0
  9 46  1  0
  9 47  1  0
 10 48  1  1
 11 49  1  0
 11 50  1  0
 12 51  1  0
 12 52  1  0
 14 53  1  0
 14 54  1  0
 14 55  1  0
 15 56  1  6
 16 57  1  0
 16 58  1  0
 17 59  1  0
 19 60  1  6
 20 61  1  0
 20 62  1  0
 21 63  1  0
 21 64  1  0
 22 65  1  1
 23 66  1  0
 25 67  1  0
 25 68  1  0
 25 69  1  0
 26 70  1  0
 26 71  1  0
 26 72  1  0
 28 73  1  0
 28 74  1  0
 28 75  1  0
 29 76  1  0
 29 77  1  0
 30 78  1  0
 30 79  1  0
 32 80  1  0
 32 81  1  0
 32 82  1  0
M  END
>  <meeko>  (16) 
{"is_sidechain": [false], "intermolecular_energy": 2.731, "internal_energy": -0.839}

$$$$
EPH_relaxed_0001_pdb2pqr_Repair_393_r2_0001_out
     RDKit          3D

 82 86  0  0  0  0  0  0  0  0999 V2000
    0.8500   14.7750   -4.8380 C   0  0  0  0  0  0  0  0  0  0  0  0
    0.5850   14.2360   -3.4290 C   0  0  2  0  0  0  0  0  0  0  0  0
    1.7920   14.4400   -2.4920 C   0  0  0  0  0  0  0  0  0  0  0  0
    1.5810   15.5400   -1.4480 C   0  0  0  0  0  0  0  0  0  0  0  0
    1.2120   16.8450   -2.0840 C   0  0  2  0  0  0  0  0  0  0  0  0
    2.3050   17.5450   -2.6920 O   0  0  0  0  0  0  0  0  0  0  0  0
    1.6870   18.1910   -1.5680 C   0  0  0  0  0  0  0  0  0  0  0  0
    2.5710   18.2980   -0.3650 C   0  0  0  0  0  0  0  0  0  0  0  0
    0.9030   19.4140   -1.9310 C   0  0  0  0  0  0  0  0  0  0  0  0
    0.2240   12.7570   -3.4990 C   0  0  1  0  0  0  0  0  0  0  0  0
    1.4460   11.8590   -3.8300 C   0  0  0  0  0  0  0  0  0  0  0  0
    1.2510   10.5320   -3.0510 C   0  0  0  0  0  0  0  0  0  0  0  0
   -0.2180   10.5760   -2.5690 C   0  0  1  0  0  0  0  0  0  0  0  0
   -1.0590   10.1220   -3.8030 C   0  0  0  0  0  0  0  0  0  0  0  0
   -0.5540    9.7290   -1.2980 C   0  0  2  0  0  0  0  0  0  0  0  0
   -0.3460    8.2120   -1.4510 C   0  0  0  0  0  0  0  0  0  0  0  0
   -1.5370    7.4510   -1.9290 C   0  0  0  0  0  0  0  0  0  0  0  0
   -2.8020    7.9110   -1.9530 C   0  0  0  0  0  0  0  0  0  0  0  0
   -3.1500    9.2880   -1.3750 C   0  0  1  0  0  0  0  0  0  0  0  0
   -4.4130    9.1710   -0.4820 C   0  0  0  0  0  0  0  0  0  0  0  0
   -5.5890    8.5310   -1.2130 C   0  0  0  0  0  0  0  0  0  0  0  0
   -5.2230    7.1390   -1.7220 C   0  0  2  0  0  0  0  0  0  0  0  0
   -5.0170    6.2770   -0.5990 O   0  0  0  0  0  0  0  0  0  0  0  0
   -3.9590    7.1310   -2.6260 C   0  0  0  0  0  0  0  0  0  0  0  0
   -4.2820    7.8120   -3.9790 C   0  0  0  0  0  0  0  0  0  0  0  0
   -3.6170    5.6530   -2.9550 C   0  0  0  0  0  0  0  0  0  0  0  0
   -1.9610   10.0580   -0.6530 C   0  0  1  0  0  0  0  0  0  0  0  0
   -1.8780    9.6250    0.8420 C   0  0  0  0  0  0  0  0  0  0  0  0
   -2.2730   11.6010   -0.6520 C   0  0  0  0  0  0  0  0  0  0  0  0
   -1.8110   12.4040   -1.8830 C   0  0  0  0  0  0  0  0  0  0  0  0
   -0.3460   12.1030   -2.2150 C   0  0  2  0  0  0  0  0  0  0  0  0
    0.5260   12.5700   -1.0010 C   0  0  0  0  0  0  0  0  0  0  0  0
    1.3344   15.7602   -4.7686 H   0  0  0  0  0  0  0  0  0  0  0  0
    1.5090   14.0797   -5.3786 H   0  0  0  0  0  0  0  0  0  0  0  0
   -0.1030   14.8722   -5.3786 H   0  0  0  0  0  0  0  0  0  0  0  0
   -0.2574   14.8056   -3.0096 H   0  0  0  0  0  0  0  0  0  0  0  0
    1.9868   13.4941   -1.9654 H   0  0  0  0  0  0  0  0  0  0  0  0
    2.6387   14.7518   -3.1212 H   0  0  0  0  0  0  0  0  0  0  0  0
    0.7731   15.2345   -0.7668 H   0  0  0  0  0  0  0  0  0  0  0  0
    2.5257   15.6799   -0.9021 H   0  0  0  0  0  0  0  0  0  0  0  0
    0.2127   16.4640   -2.3413 H   0  0  0  0  0  0  0  0  0  0  0  0
    1.9600   18.2240    0.5467 H   0  0  0  0  0  0  0  0  0  0  0  0
    3.3093   17.4827   -0.3788 H   0  0  0  0  0  0  0  0  0  0  0  0
    3.0934   19.2659   -0.3788 H   0  0  0  0  0  0  0  0  0  0  0  0
    0.5753   19.9251   -1.0137 H   0  0  0  0  0  0  0  0  0  0  0  0
    1.5350   20.0924   -2.5230 H   0  0  0  0  0  0  0  0  0  0  0  0
    0.0227   19.1229   -2.5230 H   0  0  0  0  0  0  0  0  0  0  0  0
   -0.5505   12.7926   -4.2793 H   0  0  0  0  0  0  0  0  0  0  0  0
    1.4885   11.6607   -4.9111 H   0  0  0  0  0  0  0  0  0  0  0  0
    2.3868   12.3510   -3.5423 H   0  0  0  0  0  0  0  0  0  0  0  0
    1.4181    9.6668   -3.7094 H   0  0  0  0  0  0  0  0  0  0  0  0
    1.9611   10.4290   -2.2173 H   0  0  0  0  0  0  0  0  0  0  0  0
   -1.9781    9.6258   -3.4579 H   0  0  0  0  0  0  0  0  0  0  0  0
   -1.3225   11.0004   -4.4104 H   0  0  0  0  0  0  0  0  0  0  0  0
   -0.4692    9.4198   -4.4104 H   0  0  0  0  0  0  0  0  0  0  0  0
    0.2110   10.0643   -0.5822 H   0  0  0  0  0  0  0  0  0  0  0  0
    0.4709    8.0516   -2.1699 H   0  0  0  0  0  0  0  0  0  0  0  0
   -0.1261    7.8315   -0.4426 H   0  0  0  0  0  0  0  0  0  0  0  0
   -1.3670    6.4269   -2.2928 H   0  0  0  0  0  0  0  0  0  0  0  0
   -3.3625    9.9352   -2.2387 H   0  0  0  0  0  0  0  0  0  0  0  0
   -4.1677    8.5568    0.3970 H   0  0  0  0  0  0  0  0  0  0  0  0
   -4.7134   10.1891   -0.1934 H   0  0  0  0  0  0  0  0  0  0  0  0
   -6.4409    8.4491   -0.5219 H   0  0  0  0  0  0  0  0  0  0  0  0
   -5.8520    9.1620   -2.0748 H   0  0  0  0  0  0  0  0  0  0  0  0
   -6.0572    6.7855   -2.3458 H   0  0  0  0  0  0  0  0  0  0  0  0
   -4.0900    5.9860   -0.6170 H   0  0  0  0  0  0  0  0  0  0  0  0
   -4.7467    8.7918   -3.7946 H   0  0  0  0  0  0  0  0  0  0  0  0
   -3.3528    7.9488   -4.5517 H   0  0  0  0  0  0  0  0  0  0  0  0
   -4.9758    7.1790   -4.5517 H   0  0  0  0  0  0  0  0  0  0  0  0
   -3.4867    5.0897   -2.0192 H   0  0  0  0  0  0  0  0  0  0  0  0
   -4.4360    5.2085   -3.5395 H   0  0  0  0  0  0  0  0  0  0  0  0
   -2.6860    5.6134   -3.5395 H   0  0  0  0  0  0  0  0  0  0  0  0
   -2.0457   10.5001    1.4870 H   0  0  0  0  0  0  0  0  0  0  0  0
   -2.6469    8.8656    1.0470 H   0  0  0  0  0  0  0  0  0  0  0  0
   -0.8828    9.2037    1.0470 H   0  0  0  0  0  0  0  0  0  0  0  0
   -3.3632   11.7200   -0.5671 H   0  0  0  0  0  0  0  0  0  0  0  0
   -1.6975   12.0104    0.1913 H   0  0  0  0  0  0  0  0  0  0  0  0
   -2.4383   12.1338   -2.7452 H   0  0  0  0  0  0  0  0  0  0  0  0
   -1.9068   13.4766   -1.6586 H   0  0  0  0  0  0  0  0  0  0  0  0
    0.0214   12.2998   -0.0616 H   0  0  0  0  0  0  0  0  0  0  0  0
    1.5086   12.0774   -1.0443 H   0  0  0  0  0  0  0  0  0  0  0  0
    0.6605   13.6609   -1.0443 H   0  0  0  0  0  0  0  0  0  0  0  0
  1  2  1  0
  2  3  1  0
  3  4  1  0
  4  5  1  0
  5  6  1  0
  6  7  1  0
  7  8  1  0
  7  9  1  0
  2 10  1  0
 10 11  1  0
 11 12  1  0
 12 13  1  0
 13 14  1  6
 13 15  1  0
 15 16  1  0
 16 17  1  0
 17 18  2  0
 18 19  1  0
 19 20  1  0
 20 21  1  0
 21 22  1  0
 22 23  1  0
 22 24  1  0
 24 25  1  0
 24 26  1  0
 19 27  1  0
 27 28  1  1
 27 29  1  0
 29 30  1  0
 30 31  1  0
 31 32  1  1
  7  5  1  0
 31 10  1  0
 31 13  1  0
 27 15  1  0
 24 18  1  0
  1 33  1  0
  1 34  1  0
  1 35  1  0
  2 36  1  1
  3 37  1  0
  3 38  1  0
  4 39  1  0
  4 40  1  0
  5 41  1  6
  8 42  1  0
  8 43  1  0
  8 44  1  0
  9 45  1  0
  9 46  1  0
  9 47  1  0
 10 48  1  6
 11 49  1  0
 11 50  1  0
 12 51  1  0
 12 52  1  0
 14 53  1  0
 14 54  1  0
 14 55  1  0
 15 56  1  1
 16 57  1  0
 16 58  1  0
 17 59  1  0
 19 60  1  6
 20 61  1  0
 20 62  1  0
 21 63  1  0
 21 64  1  0
 22 65  1  6
 23 66  1  0
 25 67  1  0
 25 68  1  0
 25 69  1  0
 26 70  1  0
 26 71  1  0
 26 72  1  0
 28 73  1  0
 28 74  1  0
 28 75  1  0
 29 76  1  0
 29 77  1  0
 30 78  1  0
 30 79  1  0
 32 80  1  0
 32 81  1  0
 32 82  1  0
M  END
>  <meeko>  (17) 
{"is_sidechain": [false], "intermolecular_energy": 2.731, "internal_energy": -0.839}

$$$$
