EPH_relaxed_0001_pdb2pqr_Repair_73_r2_0001_out
     RDKit          3D

 82 86  0  0  0  0  0  0  0  0999 V2000
   -1.7080    8.5800   -1.8830 C   0  0  0  0  0  0  0  0  0  0  0  0
   -2.0860    9.1020   -0.4940 C   0  0  2  0  0  0  0  0  0  0  0  0
   -3.5800    9.4710   -0.3990 C   0  0  0  0  0  0  0  0  0  0  0  0
   -4.5050    8.2600   -0.2530 C   0  0  0  0  0  0  0  0  0  0  0  0
   -5.2030    7.9360   -1.5390 C   0  0  2  0  0  0  0  0  0  0  0  0
   -6.3420    8.7590   -1.8260 O   0  0  0  0  0  0  0  0  0  0  0  0
   -6.6060    7.3640   -1.6080 C   0  0  0  0  0  0  0  0  0  0  0  0
   -7.3960    7.0800   -0.3690 C   0  0  0  0  0  0  0  0  0  0  0  0
   -7.0190    6.6280   -2.8450 C   0  0  0  0  0  0  0  0  0  0  0  0
   -1.2280   10.3110   -0.1420 C   0  0  1  0  0  0  0  0  0  0  0  0
   -0.1980   10.0060    0.9790 C   0  0  0  0  0  0  0  0  0  0  0  0
    1.0730   10.8350    0.6560 C   0  0  0  0  0  0  0  0  0  0  0  0
    0.6210   11.8310   -0.4380 C   0  0  1  0  0  0  0  0  0  0  0  0
   -0.0870   12.9850    0.3390 C   0  0  0  0  0  0  0  0  0  0  0  0
    1.7410   12.3740   -1.3830 C   0  0  2  0  0  0  0  0  0  0  0  0
    2.8440   13.1910   -0.6870 C   0  0  0  0  0  0  0  0  0  0  0  0
    2.5920   14.6600   -0.6030 C   0  0  0  0  0  0  0  0  0  0  0  0
    1.6700   15.3370   -1.3120 C   0  0  0  0  0  0  0  0  0  0  0  0
    0.8270   14.6330   -2.3830 C   0  0  1  0  0  0  0  0  0  0  0  0
    0.8010   15.4960   -3.6720 C   0  0  0  0  0  0  0  0  0  0  0  0
    0.3360   16.9260   -3.4100 C   0  0  0  0  0  0  0  0  0  0  0  0
    1.2340   17.6110   -2.3830 C   0  0  2  0  0  0  0  0  0  0  0  0
    2.5370   17.7810   -2.9510 O   0  0  0  0  0  0  0  0  0  0  0  0
    1.3450   16.8280   -1.0460 C   0  0  0  0  0  0  0  0  0  0  0  0
   -0.0020   16.9030   -0.2850 C   0  0  0  0  0  0  0  0  0  0  0  0
    2.3890   17.5520   -0.1530 C   0  0  0  0  0  0  0  0  0  0  0  0
    1.1990   13.1160   -2.6720 C   0  0  1  0  0  0  0  0  0  0  0  0
    2.3330   13.0400   -3.7390 C   0  0  0  0  0  0  0  0  0  0  0  0
   -0.0500   12.3900   -3.2990 C   0  0  0  0  0  0  0  0  0  0  0  0
   -1.0600   11.7700   -2.3140 C   0  0  0  0  0  0  0  0  0  0  0  0
   -0.3470   10.9100   -1.2660 C   0  0  2  0  0  0  0  0  0  0  0  0
    0.3570    9.7270   -2.0160 C   0  0  0  0  0  0  0  0  0  0  0  0
   -1.0657    7.6930   -1.7791 H   0  0  0  0  0  0  0  0  0  0  0  0
   -2.6208    8.3092   -2.4339 H   0  0  0  0  0  0  0  0  0  0  0  0
   -1.1659    9.3628   -2.4339 H   0  0  0  0  0  0  0  0  0  0  0  0
   -1.8997    8.2914    0.2259 H   0  0  0  0  0  0  0  0  0  0  0  0
   -3.7216   10.1235    0.4752 H   0  0  0  0  0  0  0  0  0  0  0  0
   -3.8487    9.9688   -1.3424 H   0  0  0  0  0  0  0  0  0  0  0  0
   -3.9070    7.3902    0.0568 H   0  0  0  0  0  0  0  0  0  0  0  0
   -5.2695    8.5019    0.5000 H   0  0  0  0  0  0  0  0  0  0  0  0
   -4.2553    7.6238   -2.0021 H   0  0  0  0  0  0  0  0  0  0  0  0
   -6.7816    7.3009    0.5163 H   0  0  0  0  0  0  0  0  0  0  0  0
   -8.2974    7.7104   -0.3563 H   0  0  0  0  0  0  0  0  0  0  0  0
   -7.6897    6.0200   -0.3563 H   0  0  0  0  0  0  0  0  0  0  0  0
   -7.5394    5.7007   -2.5634 H   0  0  0  0  0  0  0  0  0  0  0  0
   -7.6938    7.2609   -3.4401 H   0  0  0  0  0  0  0  0  0  0  0  0
   -6.1273    6.3818   -3.4401 H   0  0  0  0  0  0  0  0  0  0  0  0
   -2.0187   11.0236    0.1354 H   0  0  0  0  0  0  0  0  0  0  0  0
   -0.6044   10.3014    1.9576 H   0  0  0  0  0  0  0  0  0  0  0  0
    0.0318    8.9312    1.0227 H   0  0  0  0  0  0  0  0  0  0  0  0
    1.4238   11.3723    1.5495 H   0  0  0  0  0  0  0  0  0  0  0  0
    1.9104   10.2032    0.3250 H   0  0  0  0  0  0  0  0  0  0  0  0
    0.0167   12.8161    1.4210 H   0  0  0  0  0  0  0  0  0  0  0  0
    0.3773   13.9458    0.0718 H   0  0  0  0  0  0  0  0  0  0  0  0
   -1.1538   13.0064    0.0718 H   0  0  0  0  0  0  0  0  0  0  0  0
    2.2266   11.4490   -1.7272 H   0  0  0  0  0  0  0  0  0  0  0  0
    2.9569   12.8063    0.3373 H   0  0  0  0  0  0  0  0  0  0  0  0
    3.7467   13.0717   -1.3042 H   0  0  0  0  0  0  0  0  0  0  0  0
    3.2124   15.2380    0.0977 H   0  0  0  0  0  0  0  0  0  0  0  0
   -0.1880   14.5534   -1.9666 H   0  0  0  0  0  0  0  0  0  0  0  0
    1.8156   15.5273   -4.0959 H   0  0  0  0  0  0  0  0  0  0  0  0
    0.0852   15.0346   -4.3682 H   0  0  0  0  0  0  0  0  0  0  0  0
    0.3680   17.4934   -4.3518 H   0  0  0  0  0  0  0  0  0  0  0  0
   -0.6901   16.8952   -3.0148 H   0  0  0  0  0  0  0  0  0  0  0  0
    0.7763   18.5813   -2.1401 H   0  0  0  0  0  0  0  0  0  0  0  0
    2.4960   17.4840   -3.8760 H   0  0  0  0  0  0  0  0  0  0  0  0
    0.1879   16.8924    0.7984 H   0  0  0  0  0  0  0  0  0  0  0  0
   -0.5253   17.8317   -0.5565 H   0  0  0  0  0  0  0  0  0  0  0  0
   -0.6252   16.0382   -0.5565 H   0  0  0  0  0  0  0  0  0  0  0  0
    2.1454   17.3831    0.9063 H   0  0  0  0  0  0  0  0  0  0  0  0
    3.3924   17.1548   -0.3664 H   0  0  0  0  0  0  0  0  0  0  0  0
    2.3687   18.6309   -0.3664 H   0  0  0  0  0  0  0  0  0  0  0  0
    3.3080   12.9747   -3.2339 H   0  0  0  0  0  0  0  0  0  0  0  0
    2.1855   12.1497   -4.3680 H   0  0  0  0  0  0  0  0  0  0  0  0
    2.3057   13.9420   -4.3680 H   0  0  0  0  0  0  0  0  0  0  0  0
   -0.5911   13.1271   -3.9105 H   0  0  0  0  0  0  0  0  0  0  0  0
    0.3634   11.5395   -3.8608 H   0  0  0  0  0  0  0  0  0  0  0  0
   -1.6079   12.5768   -1.8051 H   0  0  0  0  0  0  0  0  0  0  0  0
   -1.7537   11.1304   -2.8794 H   0  0  0  0  0  0  0  0  0  0  0  0
    0.7754    9.0239   -1.2807 H   0  0  0  0  0  0  0  0  0  0  0  0
   -0.3770    9.2042   -2.6468 H   0  0  0  0  0  0  0  0  0  0  0  0
    1.1666   10.1228   -2.6468 H   0  0  0  0  0  0  0  0  0  0  0  0
  1  2  1  0
  2  3  1  0
  3  4  1  0
  4  5  1  0
  5  6  1  0
  6  7  1  0
  7  8  1  0
  7  9  1  0
  2 10  1  0
 10 11  1  0
 11 12  1  0
 12 13  1  0
 13 14  1  1
 13 15  1  0
 15 16  1  0
 16 17  1  0
 17 18  2  0
 18 19  1  0
 19 20  1  0
 20 21  1  0
 21 22  1  0
 22 23  1  0
 22 24  1  0
 24 25  1  0
 24 26  1  0
 19 27  1  0
 27 28  1  6
 27 29  1  0
 29 30  1  0
 30 31  1  0
 31 32  1  6
  7  5  1  0
 31 10  1  0
 31 13  1  0
 27 15  1  0
 24 18  1  0
  1 33  1  0
  1 34  1  0
  1 35  1  0
  2 36  1  1
  3 37  1  0
  3 38  1  0
  4 39  1  0
  4 40  1  0
  5 41  1  6
  8 42  1  0
  8 43  1  0
  8 44  1  0
  9 45  1  0
  9 46  1  0
  9 47  1  0
 10 48  1  1
 11 49  1  0
 11 50  1  0
 12 51  1  0
 12 52  1  0
 14 53  1  0
 14 54  1  0
 14 55  1  0
 15 56  1  6
 16 57  1  0
 16 58  1  0
 17 59  1  0
 19 60  1  1
 20 61  1  0
 20 62  1  0
 21 63  1  0
 21 64  1  0
 22 65  1  1
 23 66  1  0
 25 67  1  0
 25 68  1  0
 25 69  1  0
 26 70  1  0
 26 71  1  0
 26 72  1  0
 28 73  1  0
 28 74  1  0
 28 75  1  0
 29 76  1  0
 29 77  1  0
 30 78  1  0
 30 79  1  0
 32 80  1  0
 32 81  1  0
 32 82  1  0
M  END
>  <meeko>  (1) 
{"is_sidechain": [false], "intermolecular_energy": 2.731, "internal_energy": -0.839}

$$$$
EPH_relaxed_0001_pdb2pqr_Repair_73_r2_0001_out
     RDKit          3D

 82 86  0  0  0  0  0  0  0  0999 V2000
    2.3540   18.0310   -2.6180 C   0  0  0  0  0  0  0  0  0  0  0  0
    1.0190   17.6620   -1.9650 C   0  0  2  0  0  0  0  0  0  0  0  0
    1.0820   17.7470   -0.4270 C   0  0  0  0  0  0  0  0  0  0  0  0
    0.7210   19.1270    0.1280 C   0  0  0  0  0  0  0  0  0  0  0  0
   -0.7270   19.2120    0.5050 C   0  0  2  0  0  0  0  0  0  0  0  0
   -1.5790   18.2840   -0.1790 O   0  0  0  0  0  0  0  0  0  0  0  0
   -1.8140   19.6760   -0.4470 C   0  0  0  0  0  0  0  0  0  0  0  0
   -1.4980   20.0870   -1.8500 C   0  0  0  0  0  0  0  0  0  0  0  0
   -3.0960   20.1920    0.1280 C   0  0  0  0  0  0  0  0  0  0  0  0
    0.6020   16.2590   -2.3930 C   0  0  1  0  0  0  0  0  0  0  0  0
    0.7520   16.0310   -3.9200 C   0  0  0  0  0  0  0  0  0  0  0  0
    1.1770   14.5520   -4.1120 C   0  0  0  0  0  0  0  0  0  0  0  0
    0.9350   13.8960   -2.7330 C   0  0  1  0  0  0  0  0  0  0  0  0
   -0.5940   13.5830   -2.6990 C   0  0  0  0  0  0  0  0  0  0  0  0
    1.7910   12.6260   -2.4130 C   0  0  2  0  0  0  0  0  0  0  0  0
    1.5550   11.4280   -3.3480 C   0  0  0  0  0  0  0  0  0  0  0  0
    0.4910   10.4770   -2.9090 C   0  0  0  0  0  0  0  0  0  0  0  0
   -0.0480   10.4200   -1.6770 C   0  0  0  0  0  0  0  0  0  0  0  0
    0.4800   11.3100   -0.5450 C   0  0  1  0  0  0  0  0  0  0  0  0
    0.6740   10.4570    0.7370 C   0  0  0  0  0  0  0  0  0  0  0  0
   -0.5890    9.6990    1.1320 C   0  0  0  0  0  0  0  0  0  0  0  0
   -1.0500    8.7820    0.0020 C   0  0  2  0  0  0  0  0  0  0  0  0
   -0.0800    7.7450   -0.1760 O   0  0  0  0  0  0  0  0  0  0  0  0
   -1.2700    9.5290   -1.3430 C   0  0  0  0  0  0  0  0  0  0  0  0
   -2.5200   10.4370   -1.2360 C   0  0  0  0  0  0  0  0  0  0  0  0
   -1.5950    8.4690   -2.4300 C   0  0  0  0  0  0  0  0  0  0  0  0
    1.7580   12.1890   -0.8920 C   0  0  1  0  0  0  0  0  0  0  0  0
    3.0560   11.3640   -0.6380 C   0  0  0  0  0  0  0  0  0  0  0  0
    1.8160   13.4210    0.0860 C   0  0  0  0  0  0  0  0  0  0  0  0
    1.0490   14.6860   -0.3430 C   0  0  0  0  0  0  0  0  0  0  0  0
    1.3860   15.0680   -1.7870 C   0  0  2  0  0  0  0  0  0  0  0  0
    2.9140   15.4090   -1.8480 C   0  0  0  0  0  0  0  0  0  0  0  0
    3.0999   18.2372   -1.8363 H   0  0  0  0  0  0  0  0  0  0  0  0
    2.6998   17.1948   -3.2434 H   0  0  0  0  0  0  0  0  0  0  0  0
    2.2213   18.9261   -3.2434 H   0  0  0  0  0  0  0  0  0  0  0  0
    0.2704   18.3927   -2.3052 H   0  0  0  0  0  0  0  0  0  0  0  0
    0.3801   17.0102   -0.0094 H   0  0  0  0  0  0  0  0  0  0  0  0
    2.1236   17.5459   -0.1362 H   0  0  0  0  0  0  0  0  0  0  0  0
    1.3337   19.3237    1.0201 H   0  0  0  0  0  0  0  0  0  0  0  0
    0.9152   19.8733   -0.6564 H   0  0  0  0  0  0  0  0  0  0  0  0
   -0.4666   19.5132    1.5304 H   0  0  0  0  0  0  0  0  0  0  0  0
   -0.8276   20.9590   -1.8345 H   0  0  0  0  0  0  0  0  0  0  0  0
   -1.0050   19.2547   -2.3737 H   0  0  0  0  0  0  0  0  0  0  0  0
   -2.4290   20.3496   -2.3737 H   0  0  0  0  0  0  0  0  0  0  0  0
   -3.0405   20.1696    1.2264 H   0  0  0  0  0  0  0  0  0  0  0  0
   -3.2595   21.2260   -0.2099 H   0  0  0  0  0  0  0  0  0  0  0  0
   -3.9302   19.5596   -0.2099 H   0  0  0  0  0  0  0  0  0  0  0  0
   -0.4340   16.2539   -2.0234 H   0  0  0  0  0  0  0  0  0  0  0  0
   -0.2060   16.2187   -4.4269 H   0  0  0  0  0  0  0  0  0  0  0  0
    1.4981   16.7153   -4.3501 H   0  0  0  0  0  0  0  0  0  0  0  0
    0.5624   14.0684   -4.8856 H   0  0  0  0  0  0  0  0  0  0  0  0
    2.2220   14.4572   -4.4421 H   0  0  0  0  0  0  0  0  0  0  0  0
   -0.9310   13.5140   -1.6542 H   0  0  0  0  0  0  0  0  0  0  0  0
   -1.1443   14.3871   -3.2094 H   0  0  0  0  0  0  0  0  0  0  0  0
   -0.7841   12.6273   -3.2094 H   0  0  0  0  0  0  0  0  0  0  0  0
    2.8140   12.9711   -2.6235 H   0  0  0  0  0  0  0  0  0  0  0  0
    1.2746   11.8188   -4.3373 H   0  0  0  0  0  0  0  0  0  0  0  0
    2.4937   10.8545   -3.3511 H   0  0  0  0  0  0  0  0  0  0  0  0
    0.1157    9.7621   -3.6560 H   0  0  0  0  0  0  0  0  0  0  0  0
   -0.2934   12.0729   -0.3726 H   0  0  0  0  0  0  0  0  0  0  0  0
    1.4800    9.7301    0.5582 H   0  0  0  0  0  0  0  0  0  0  0  0
    0.9226   11.1432    1.5600 H   0  0  0  0  0  0  0  0  0  0  0  0
   -0.3803    9.0924    2.0256 H   0  0  0  0  0  0  0  0  0  0  0  0
   -1.3859   10.4282    1.3400 H   0  0  0  0  0  0  0  0  0  0  0  0
   -2.0262    8.3666    0.2926 H   0  0  0  0  0  0  0  0  0  0  0  0
    0.5100    8.0160   -0.8990 H   0  0  0  0  0  0  0  0  0  0  0  0
   -2.7580   10.6099   -0.1761 H   0  0  0  0  0  0  0  0  0  0  0  0
   -2.3171   11.3997   -1.7280 H   0  0  0  0  0  0  0  0  0  0  0  0
   -3.3728    9.9464   -1.7280 H   0  0  0  0  0  0  0  0  0  0  0  0
   -1.8846    7.5245   -1.9461 H   0  0  0  0  0  0  0  0  0  0  0  0
   -2.4240    8.8290   -3.0570 H   0  0  0  0  0  0  0  0  0  0  0  0
   -0.7066    8.3025   -3.0570 H   0  0  0  0  0  0  0  0  0  0  0  0
    3.2187   11.2606    0.4450 H   0  0  0  0  0  0  0  0  0  0  0  0
    2.9508   10.3666   -1.0899 H   0  0  0  0  0  0  0  0  0  0  0  0
    3.9144   11.8826   -1.0899 H   0  0  0  0  0  0  0  0  0  0  0  0
    1.4072   13.0965    1.0543 H   0  0  0  0  0  0  0  0  0  0  0  0
    2.8742   13.7203    0.1088 H   0  0  0  0  0  0  0  0  0  0  0  0
   -0.0315   14.4958   -0.2639 H   0  0  0  0  0  0  0  0  0  0  0  0
    1.3433   15.5153    0.3170 H   0  0  0  0  0  0  0  0  0  0  0  0
    3.3110   15.4976   -0.8260 H   0  0  0  0  0  0  0  0  0  0  0  0
    3.4475   14.6078   -2.3804 H   0  0  0  0  0  0  0  0  0  0  0  0
    3.0563   16.3610   -2.3804 H   0  0  0  0  0  0  0  0  0  0  0  0
  1  2  1  0
  2  3  1  0
  3  4  1  0
  4  5  1  0
  5  6  1  0
  6  7  1  0
  7  8  1  0
  7  9  1  0
  2 10  1  0
 10 11  1  0
 11 12  1  0
 12 13  1  0
 13 14  1  1
 13 15  1  0
 15 16  1  0
 16 17  1  0
 17 18  2  0
 18 19  1  0
 19 20  1  0
 20 21  1  0
 21 22  1  0
 22 23  1  0
 22 24  1  0
 24 25  1  0
 24 26  1  0
 19 27  1  0
 27 28  1  1
 27 29  1  0
 29 30  1  0
 30 31  1  0
 31 32  1  1
  7  5  1  0
 31 10  1  0
 31 13  1  0
 27 15  1  0
 24 18  1  0
  1 33  1  0
  1 34  1  0
  1 35  1  0
  2 36  1  6
  3 37  1  0
  3 38  1  0
  4 39  1  0
  4 40  1  0
  5 41  1  1
  8 42  1  0
  8 43  1  0
  8 44  1  0
  9 45  1  0
  9 46  1  0
  9 47  1  0
 10 48  1  1
 11 49  1  0
 11 50  1  0
 12 51  1  0
 12 52  1  0
 14 53  1  0
 14 54  1  0
 14 55  1  0
 15 56  1  6
 16 57  1  0
 16 58  1  0
 17 59  1  0
 19 60  1  1
 20 61  1  0
 20 62  1  0
 21 63  1  0
 21 64  1  0
 22 65  1  1
 23 66  1  0
 25 67  1  0
 25 68  1  0
 25 69  1  0
 26 70  1  0
 26 71  1  0
 26 72  1  0
 28 73  1  0
 28 74  1  0
 28 75  1  0
 29 76  1  0
 29 77  1  0
 30 78  1  0
 30 79  1  0
 32 80  1  0
 32 81  1  0
 32 82  1  0
M  END
>  <meeko>  (2) 
{"is_sidechain": [false], "intermolecular_energy": 2.731, "internal_energy": -0.839}

$$$$
EPH_relaxed_0001_pdb2pqr_Repair_73_r2_0001_out
     RDKit          3D

 82 86  0  0  0  0  0  0  0  0999 V2000
    4.2080   17.6390   -0.5880 C   0  0  0  0  0  0  0  0  0  0  0  0
    2.8490   18.2020   -0.1630 C   0  0  2  0  0  0  0  0  0  0  0  0
    2.9100   18.8860    1.2170 C   0  0  0  0  0  0  0  0  0  0  0  0
    4.2320   18.6640    1.9570 C   0  0  0  0  0  0  0  0  0  0  0  0
    4.1910   19.2260    3.3450 C   0  0  2  0  0  0  0  0  0  0  0  0
    5.2090   20.1940    3.6290 O   0  0  0  0  0  0  0  0  0  0  0  0
    5.2700   18.9720    4.3820 C   0  0  0  0  0  0  0  0  0  0  0  0
    6.4650   18.1260    4.0740 C   0  0  0  0  0  0  0  0  0  0  0  0
    4.9240   19.1380    5.8290 C   0  0  0  0  0  0  0  0  0  0  0  0
    1.8070   17.0890   -0.1480 C   0  0  1  0  0  0  0  0  0  0  0  0
    0.3760   17.6070   -0.4530 C   0  0  0  0  0  0  0  0  0  0  0  0
   -0.3410   16.4890   -1.2540 C   0  0  0  0  0  0  0  0  0  0  0  0
    0.5700   15.2500   -1.0970 C   0  0  1  0  0  0  0  0  0  0  0  0
    0.2050   14.6580    0.3010 C   0  0  0  0  0  0  0  0  0  0  0  0
    0.4700   14.1720   -2.2240 C   0  0  2  0  0  0  0  0  0  0  0  0
   -0.9070   13.5000   -2.3650 C   0  0  0  0  0  0  0  0  0  0  0  0
   -1.0990   12.2630   -1.5530 C   0  0  0  0  0  0  0  0  0  0  0  0
   -0.1180   11.5530   -0.9650 C   0  0  0  0  0  0  0  0  0  0  0  0
    1.3560   11.9250   -1.1710 C   0  0  1  0  0  0  0  0  0  0  0  0
    2.1730   10.6450   -1.4910 C   0  0  0  0  0  0  0  0  0  0  0  0
    1.9880    9.5550   -0.4390 C   0  0  0  0  0  0  0  0  0  0  0  0
    0.5160    9.1720   -0.3050 C   0  0  2  0  0  0  0  0  0  0  0  0
    0.0910    8.5430   -1.5180 O   0  0  0  0  0  0  0  0  0  0  0  0
   -0.4070   10.3830    0.0080 C   0  0  0  0  0  0  0  0  0  0  0  0
   -0.1470   10.8760    1.4520 C   0  0  0  0  0  0  0  0  0  0  0  0
   -1.8760    9.8830   -0.0220 C   0  0  0  0  0  0  0  0  0  0  0  0
    1.6360   13.1010   -2.2020 C   0  0  1  0  0  0  0  0  0  0  0  0
    1.7410   12.5270   -3.6490 C   0  0  0  0  0  0  0  0  0  0  0  0
    3.0350   13.7460   -1.8780 C   0  0  0  0  0  0  0  0  0  0  0  0
    3.0510   14.8880   -0.8440 C   0  0  0  0  0  0  0  0  0  0  0  0
    1.9820   15.9370   -1.1680 C   0  0  2  0  0  0  0  0  0  0  0  0
    2.3360   16.5660   -2.5590 C   0  0  0  0  0  0  0  0  0  0  0  0
    4.7994   17.3940    0.3066 H   0  0  0  0  0  0  0  0  0  0  0  0
    4.0567   16.7295   -1.1879 H   0  0  0  0  0  0  0  0  0  0  0  0
    4.7442   18.3890   -1.1879 H   0  0  0  0  0  0  0  0  0  0  0  0
    2.5633   18.9684   -0.8985 H   0  0  0  0  0  0  0  0  0  0  0  0
    2.7692   19.9676    1.0748 H   0  0  0  0  0  0  0  0  0  0  0  0
    2.1175   18.4366    1.8335 H   0  0  0  0  0  0  0  0  0  0  0  0
    4.4308   17.5837    2.0155 H   0  0  0  0  0  0  0  0  0  0  0  0
    5.0275   19.1815    1.4008 H   0  0  0  0  0  0  0  0  0  0  0  0
    3.0961   19.1255    3.3792 H   0  0  0  0  0  0  0  0  0  0  0  0
    6.9321   17.7953    5.0134 H   0  0  0  0  0  0  0  0  0  0  0  0
    6.1518   17.2473    3.4911 H   0  0  0  0  0  0  0  0  0  0  0  0
    7.1897   18.7134    3.4911 H   0  0  0  0  0  0  0  0  0  0  0  0
    5.7431   18.7450    6.4493 H   0  0  0  0  0  0  0  0  0  0  0  0
    4.7759   20.2052    6.0505 H   0  0  0  0  0  0  0  0  0  0  0  0
    3.9988   18.5857    6.0505 H   0  0  0  0  0  0  0  0  0  0  0  0
    1.9554   16.7110    0.8743 H   0  0  0  0  0  0  0  0  0  0  0  0
   -0.1629   17.8066    0.4849 H   0  0  0  0  0  0  0  0  0  0  0  0
    0.4085   18.5456   -1.0257 H   0  0  0  0  0  0  0  0  0  0  0  0
   -1.3396   16.2920   -0.8368 H   0  0  0  0  0  0  0  0  0  0  0  0
   -0.4930   16.7636   -2.3083 H   0  0  0  0  0  0  0  0  0  0  0  0
    0.6066   15.3094    1.0912 H   0  0  0  0  0  0  0  0  0  0  0  0
   -0.8889   14.5952    0.3983 H   0  0  0  0  0  0  0  0  0  0  0  0
    0.6401   13.6524    0.3983 H   0  0  0  0  0  0  0  0  0  0  0  0
    0.6040   14.7721   -3.1361 H   0  0  0  0  0  0  0  0  0  0  0  0
   -1.6733   14.2283   -2.0611 H   0  0  0  0  0  0  0  0  0  0  0  0
   -0.9873   13.1888   -3.4170 H   0  0  0  0  0  0  0  0  0  0  0  0
   -2.1295   11.9005   -1.4239 H   0  0  0  0  0  0  0  0  0  0  0  0
    1.6970   12.3572   -0.2187 H   0  0  0  0  0  0  0  0  0  0  0  0
    1.8473   10.2532   -2.4659 H   0  0  0  0  0  0  0  0  0  0  0  0
    3.2375   10.9220   -1.5015 H   0  0  0  0  0  0  0  0  0  0  0  0
    2.5658    8.6670   -0.7349 H   0  0  0  0  0  0  0  0  0  0  0  0
    2.3414    9.9377    0.5298 H   0  0  0  0  0  0  0  0  0  0  0  0
    0.4307    8.4848    0.5496 H   0  0  0  0  0  0  0  0  0  0  0  0
   -0.8110    8.2090   -1.3750 H   0  0  0  0  0  0  0  0  0  0  0  0
   -0.5367   10.1370    2.1675 H   0  0  0  0  0  0  0  0  0  0  0  0
    0.9347   11.0017    1.6073 H   0  0  0  0  0  0  0  0  0  0  0  0
   -0.6542   11.8397    1.6073 H   0  0  0  0  0  0  0  0  0  0  0  0
   -2.2420    9.7584    1.0078 H   0  0  0  0  0  0  0  0  0  0  0  0
   -2.5030   10.6183   -0.5475 H   0  0  0  0  0  0  0  0  0  0  0  0
   -1.9242    8.9179   -0.5475 H   0  0  0  0  0  0  0  0  0  0  0  0
    1.9387   11.4460   -3.6012 H   0  0  0  0  0  0  0  0  0  0  0  0
    0.7957   12.7036   -4.1830 H   0  0  0  0  0  0  0  0  0  0  0  0
    2.5626   13.0268   -4.1830 H   0  0  0  0  0  0  0  0  0  0  0  0
    3.6906   12.9470   -1.5014 H   0  0  0  0  0  0  0  0  0  0  0  0
    3.3646   14.2069   -2.8208 H   0  0  0  0  0  0  0  0  0  0  0  0
    2.8551   14.4715    0.1551 H   0  0  0  0  0  0  0  0  0  0  0  0
    4.0379   15.3729   -0.8726 H   0  0  0  0  0  0  0  0  0  0  0  0
    2.8703   17.5154   -2.4068 H   0  0  0  0  0  0  0  0  0  0  0  0
    2.9758   15.8716   -3.1233 H   0  0  0  0  0  0  0  0  0  0  0  0
    1.4104   16.7526   -3.1233 H   0  0  0  0  0  0  0  0  0  0  0  0
  1  2  1  0
  2  3  1  0
  3  4  1  0
  4  5  1  0
  5  6  1  0
  6  7  1  0
  7  8  1  0
  7  9  1  0
  2 10  1  0
 10 11  1  0
 11 12  1  0
 12 13  1  0
 13 14  1  1
 13 15  1  0
 15 16  1  0
 16 17  1  0
 17 18  2  0
 18 19  1  0
 19 20  1  0
 20 21  1  0
 21 22  1  0
 22 23  1  0
 22 24  1  0
 24 25  1  0
 24 26  1  0
 19 27  1  0
 27 28  1  6
 27 29  1  0
 29 30  1  0
 30 31  1  0
 31 32  1  6
  7  5  1  0
 31 10  1  0
 31 13  1  0
 27 15  1  0
 24 18  1  0
  1 33  1  0
  1 34  1  0
  1 35  1  0
  2 36  1  6
  3 37  1  0
  3 38  1  0
  4 39  1  0
  4 40  1  0
  5 41  1  1
  8 42  1  0
  8 43  1  0
  8 44  1  0
  9 45  1  0
  9 46  1  0
  9 47  1  0
 10 48  1  1
 11 49  1  0
 11 50  1  0
 12 51  1  0
 12 52  1  0
 14 53  1  0
 14 54  1  0
 14 55  1  0
 15 56  1  6
 16 57  1  0
 16 58  1  0
 17 59  1  0
 19 60  1  1
 20 61  1  0
 20 62  1  0
 21 63  1  0
 21 64  1  0
 22 65  1  1
 23 66  1  0
 25 67  1  0
 25 68  1  0
 25 69  1  0
 26 70  1  0
 26 71  1  0
 26 72  1  0
 28 73  1  0
 28 74  1  0
 28 75  1  0
 29 76  1  0
 29 77  1  0
 30 78  1  0
 30 79  1  0
 32 80  1  0
 32 81  1  0
 32 82  1  0
M  END
>  <meeko>  (3) 
{"is_sidechain": [false], "intermolecular_energy": 2.731, "internal_energy": -0.839}

$$$$
EPH_relaxed_0001_pdb2pqr_Repair_73_r2_0001_out
     RDKit          3D

 82 86  0  0  0  0  0  0  0  0999 V2000
    2.1740   18.0540   -2.7250 C   0  0  0  0  0  0  0  0  0  0  0  0
    0.8970   17.6450   -1.9860 C   0  0  2  0  0  0  0  0  0  0  0  0
    1.0660   17.7060   -0.4550 C   0  0  0  0  0  0  0  0  0  0  0  0
    2.4760   18.1010   -0.0070 C   0  0  0  0  0  0  0  0  0  0  0  0
    2.4470   19.2070    1.0050 C   0  0  2  0  0  0  0  0  0  0  0  0
    3.4750   20.1930    0.8430 O   0  0  0  0  0  0  0  0  0  0  0  0
    3.5280   19.4130    2.0490 C   0  0  0  0  0  0  0  0  0  0  0  0
    4.7140   18.5050    2.1350 C   0  0  0  0  0  0  0  0  0  0  0  0
    3.1900   20.1900    3.2840 C   0  0  0  0  0  0  0  0  0  0  0  0
    0.4790   16.2410   -2.4090 C   0  0  1  0  0  0  0  0  0  0  0  0
    0.5540   16.0320   -3.9450 C   0  0  0  0  0  0  0  0  0  0  0  0
    0.9910   14.5630   -4.1760 C   0  0  0  0  0  0  0  0  0  0  0  0
    0.8320   13.8870   -2.7940 C   0  0  1  0  0  0  0  0  0  0  0  0
   -0.6880   13.5500   -2.6850 C   0  0  0  0  0  0  0  0  0  0  0  0
    1.7220   12.6280   -2.5340 C   0  0  2  0  0  0  0  0  0  0  0  0
    1.4570   11.4360   -3.4700 C   0  0  0  0  0  0  0  0  0  0  0  0
    0.4320   10.4630   -2.9880 C   0  0  0  0  0  0  0  0  0  0  0  0
   -0.0420   10.3840   -1.7310 C   0  0  0  0  0  0  0  0  0  0  0  0
    0.5310   11.2700   -0.6160 C   0  0  1  0  0  0  0  0  0  0  0  0
    0.8040   10.4060    0.6430 C   0  0  0  0  0  0  0  0  0  0  0  0
   -0.4250    9.6230    1.0930 C   0  0  0  0  0  0  0  0  0  0  0  0
   -0.9300    8.7110   -0.0220 C   0  0  2  0  0  0  0  0  0  0  0  0
    0.0460    7.6930   -0.2620 O   0  0  0  0  0  0  0  0  0  0  0  0
   -1.2300    9.4690   -1.3450 C   0  0  0  0  0  0  0  0  0  0  0  0
   -2.4870   10.3560   -1.1630 C   0  0  0  0  0  0  0  0  0  0  0  0
   -1.5940    8.4170   -2.4270 C   0  0  0  0  0  0  0  0  0  0  0  0
    1.7750   12.1730   -1.0190 C   0  0  1  0  0  0  0  0  0  0  0  0
    3.0980   11.3660   -0.8420 C   0  0  0  0  0  0  0  0  0  0  0  0
    1.8650   13.3950   -0.0300 C   0  0  0  0  0  0  0  0  0  0  0  0
    1.0560   14.6520   -0.4040 C   0  0  0  0  0  0  0  0  0  0  0  0
    1.3120   15.0560   -1.8590 C   0  0  2  0  0  0  0  0  0  0  0  0
    2.8300   15.4220   -1.9940 C   0  0  0  0  0  0  0  0  0  0  0  0
    2.9565   18.3046   -1.9937 H   0  0  0  0  0  0  0  0  0  0  0  0
    2.5154   17.2203   -3.3561 H   0  0  0  0  0  0  0  0  0  0  0  0
    1.9675   18.9310   -3.3561 H   0  0  0  0  0  0  0  0  0  0  0  0
    0.1118   18.3652   -2.2594 H   0  0  0  0  0  0  0  0  0  0  0  0
    0.3551   18.4447   -0.0562 H   0  0  0  0  0  0  0  0  0  0  0  0
    0.8782   16.6928   -0.0701 H   0  0  0  0  0  0  0  0  0  0  0  0
    2.9676   17.2234    0.4381 H   0  0  0  0  0  0  0  0  0  0  0  0
    3.0286   18.4575   -0.8888 H   0  0  0  0  0  0  0  0  0  0  0  0
    1.3515   19.1420    1.0804 H   0  0  0  0  0  0  0  0  0  0  0  0
    4.9573   18.3187    3.1915 H   0  0  0  0  0  0  0  0  0  0  0  0
    4.4823   17.5512    1.6384 H   0  0  0  0  0  0  0  0  0  0  0  0
    5.5743   18.9775    1.6384 H   0  0  0  0  0  0  0  0  0  0  0  0
    3.4484   19.5960    4.1731 H   0  0  0  0  0  0  0  0  0  0  0  0
    3.7603   21.1306    3.2930 H   0  0  0  0  0  0  0  0  0  0  0  0
    2.1131   20.4140    3.2930 H   0  0  0  0  0  0  0  0  0  0  0  0
   -0.5366   16.2158   -1.9871 H   0  0  0  0  0  0  0  0  0  0  0  0
   -0.4315   16.2100   -4.4000 H   0  0  0  0  0  0  0  0  0  0  0  0
    1.2666   16.7328   -4.4045 H   0  0  0  0  0  0  0  0  0  0  0  0
    0.3443   14.0782   -4.9222 H   0  0  0  0  0  0  0  0  0  0  0  0
    2.0188   14.4890   -4.5609 H   0  0  0  0  0  0  0  0  0  0  0  0
   -0.9744   13.4865   -1.6248 H   0  0  0  0  0  0  0  0  0  0  0  0
   -1.2749   14.3398   -3.1767 H   0  0  0  0  0  0  0  0  0  0  0  0
   -0.8861   12.5861   -3.1767 H   0  0  0  0  0  0  0  0  0  0  0  0
    2.7269   12.9928   -2.7931 H   0  0  0  0  0  0  0  0  0  0  0  0
    1.1199   11.8329   -4.4389 H   0  0  0  0  0  0  0  0  0  0  0  0
    2.4032   10.8780   -3.5280 H   0  0  0  0  0  0  0  0  0  0  0  0
    0.0301    9.7501   -3.7230 H   0  0  0  0  0  0  0  0  0  0  0  0
   -0.2436   12.0186   -0.3934 H   0  0  0  0  0  0  0  0  0  0  0  0
    1.6110    9.6945    0.4141 H   0  0  0  0  0  0  0  0  0  0  0  0
    1.0840   11.0866    1.4606 H   0  0  0  0  0  0  0  0  0  0  0  0
   -0.1609    9.0101    1.9674 H   0  0  0  0  0  0  0  0  0  0  0  0
   -1.2213   10.3371    1.3498 H   0  0  0  0  0  0  0  0  0  0  0  0
   -1.8833    8.2767    0.3136 H   0  0  0  0  0  0  0  0  0  0  0  0
    0.7700    7.8230    0.3740 H   0  0  0  0  0  0  0  0  0  0  0  0
   -2.6850   10.4957   -0.0900 H   0  0  0  0  0  0  0  0  0  0  0  0
   -2.3165   11.3349   -1.6349 H   0  0  0  0  0  0  0  0  0  0  0  0
   -3.3521    9.8672   -1.6349 H   0  0  0  0  0  0  0  0  0  0  0  0
   -1.9163    7.4854   -1.9389 H   0  0  0  0  0  0  0  0  0  0  0  0
   -2.4106    8.8038   -3.0544 H   0  0  0  0  0  0  0  0  0  0  0  0
   -0.7130    8.2164   -3.0544 H   0  0  0  0  0  0  0  0  0  0  0  0
    3.3085   11.2376    0.2300 H   0  0  0  0  0  0  0  0  0  0  0  0
    2.9915   10.3789   -1.3156 H   0  0  0  0  0  0  0  0  0  0  0  0
    3.9269   11.9124   -1.3156 H   0  0  0  0  0  0  0  0  0  0  0  0
    1.5127   13.0531    0.9544 H   0  0  0  0  0  0  0  0  0  0  0  0
    2.9182   13.7114   -0.0582 H   0  0  0  0  0  0  0  0  0  0  0  0
   -0.0158   14.4426   -0.2720 H   0  0  0  0  0  0  0  0  0  0  0  0
    1.3703   15.4788    0.2500 H   0  0  0  0  0  0  0  0  0  0  0  0
    3.2720   15.5286   -0.9923 H   0  0  0  0  0  0  0  0  0  0  0  0
    3.3522   14.6240   -2.5422 H   0  0  0  0  0  0  0  0  0  0  0  0
    2.9312   16.3703   -2.5422 H   0  0  0  0  0  0  0  0  0  0  0  0
  1  2  1  0
  2  3  1  0
  3  4  1  0
  4  5  1  0
  5  6  1  0
  6  7  1  0
  7  8  1  0
  7  9  1  0
  2 10  1  0
 10 11  1  0
 11 12  1  0
 12 13  1  0
 13 14  1  1
 13 15  1  0
 15 16  1  0
 16 17  1  0
 17 18  2  0
 18 19  1  0
 19 20  1  0
 20 21  1  0
 21 22  1  0
 22 23  1  0
 22 24  1  0
 24 25  1  0
 24 26  1  0
 19 27  1  0
 27 28  1  6
 27 29  1  0
 29 30  1  0
 30 31  1  0
 31 32  1  1
  7  5  1  0
 31 10  1  0
 31 13  1  0
 27 15  1  0
 24 18  1  0
  1 33  1  0
  1 34  1  0
  1 35  1  0
  2 36  1  6
  3 37  1  0
  3 38  1  0
  4 39  1  0
  4 40  1  0
  5 41  1  1
  8 42  1  0
  8 43  1  0
  8 44  1  0
  9 45  1  0
  9 46  1  0
  9 47  1  0
 10 48  1  1
 11 49  1  0
 11 50  1  0
 12 51  1  0
 12 52  1  0
 14 53  1  0
 14 54  1  0
 14 55  1  0
 15 56  1  6
 16 57  1  0
 16 58  1  0
 17 59  1  0
 19 60  1  1
 20 61  1  0
 20 62  1  0
 21 63  1  0
 21 64  1  0
 22 65  1  1
 23 66  1  0
 25 67  1  0
 25 68  1  0
 25 69  1  0
 26 70  1  0
 26 71  1  0
 26 72  1  0
 28 73  1  0
 28 74  1  0
 28 75  1  0
 29 76  1  0
 29 77  1  0
 30 78  1  0
 30 79  1  0
 32 80  1  0
 32 81  1  0
 32 82  1  0
M  END
>  <meeko>  (4) 
{"is_sidechain": [false], "intermolecular_energy": 2.731, "internal_energy": -0.839}

$$$$
EPH_relaxed_0001_pdb2pqr_Repair_73_r2_0001_out
     RDKit          3D

 82 86  0  0  0  0  0  0  0  0999 V2000
   -3.3900    9.2840    0.5340 C   0  0  0  0  0  0  0  0  0  0  0  0
   -2.5730    9.6580   -0.7060 C   0  0  2  0  0  0  0  0  0  0  0  0
   -1.9080    8.4290   -1.3560 C   0  0  0  0  0  0  0  0  0  0  0  0
   -2.8300    7.6600   -2.3070 C   0  0  0  0  0  0  0  0  0  0  0  0
   -4.2650    7.7600   -1.8880 C   0  0  2  0  0  0  0  0  0  0  0  0
   -4.8090    6.5600   -1.3230 O   0  0  0  0  0  0  0  0  0  0  0  0
   -5.3890    6.9960   -2.5630 C   0  0  0  0  0  0  0  0  0  0  0  0
   -5.1260    6.0780   -3.7150 C   0  0  0  0  0  0  0  0  0  0  0  0
   -6.7880    7.5120   -2.4260 C   0  0  0  0  0  0  0  0  0  0  0  0
   -1.5140   10.6910   -0.3390 C   0  0  1  0  0  0  0  0  0  0  0  0
   -0.4120   10.1120    0.5880 C   0  0  0  0  0  0  0  0  0  0  0  0
    0.9170   10.8060    0.1910 C   0  0  0  0  0  0  0  0  0  0  0  0
    0.4850   11.9870   -0.7090 C   0  0  1  0  0  0  0  0  0  0  0  0
    0.0490   13.1100    0.2840 C   0  0  0  0  0  0  0  0  0  0  0  0
    1.5510   12.5030   -1.7300 C   0  0  2  0  0  0  0  0  0  0  0  0
    2.8350   13.0730   -1.1020 C   0  0  0  0  0  0  0  0  0  0  0  0
    2.8090   14.5380   -0.8180 C   0  0  0  0  0  0  0  0  0  0  0  0
    1.9160   15.4150   -1.3130 C   0  0  0  0  0  0  0  0  0  0  0  0
    0.8580   14.9720   -2.3310 C   0  0  1  0  0  0  0  0  0  0  0  0
    0.8020   15.9930   -3.4980 C   0  0  0  0  0  0  0  0  0  0  0  0
    0.5830   17.4230   -3.0130 C   0  0  0  0  0  0  0  0  0  0  0  0
    1.6860   17.8470   -2.0480 C   0  0  2  0  0  0  0  0  0  0  0  0
    2.9220   17.9230   -2.7650 O   0  0  0  0  0  0  0  0  0  0  0  0
    1.8430   16.8870   -0.8360 C   0  0  0  0  0  0  0  0  0  0  0  0
    0.6210   17.0330    0.1050 C   0  0  0  0  0  0  0  0  0  0  0  0
    3.0790   17.3480   -0.0170 C   0  0  0  0  0  0  0  0  0  0  0  0
    0.9710   13.4710   -2.8400 C   0  0  1  0  0  0  0  0  0  0  0  0
    1.9460   13.3920   -4.0540 C   0  0  0  0  0  0  0  0  0  0  0  0
   -0.4350   13.0000   -3.3690 C   0  0  0  0  0  0  0  0  0  0  0  0
   -1.3990   12.3890   -2.3330 C   0  0  0  0  0  0  0  0  0  0  0  0
   -0.6970   11.3150   -1.4980 C   0  0  2  0  0  0  0  0  0  0  0  0
   -0.2660   10.1610   -2.4670 C   0  0  0  0  0  0  0  0  0  0  0  0
   -2.8220    9.5440    1.4394 H   0  0  0  0  0  0  0  0  0  0  0  0
   -4.3413    9.8363    0.5266 H   0  0  0  0  0  0  0  0  0  0  0  0
   -3.5936    8.2030    0.5266 H   0  0  0  0  0  0  0  0  0  0  0  0
   -3.2684   10.0850   -1.4436 H   0  0  0  0  0  0  0  0  0  0  0  0
   -1.0295    8.7694   -1.9239 H   0  0  0  0  0  0  0  0  0  0  0  0
   -1.6405    7.7401   -0.5412 H   0  0  0  0  0  0  0  0  0  0  0  0
   -2.7244    8.0758   -3.3199 H   0  0  0  0  0  0  0  0  0  0  0  0
   -2.5390    6.5994   -2.2843 H   0  0  0  0  0  0  0  0  0  0  0  0
   -4.1422    8.8242   -1.6382 H   0  0  0  0  0  0  0  0  0  0  0  0
   -4.8417    5.0855   -3.3354 H   0  0  0  0  0  0  0  0  0  0  0  0
   -6.0349    5.9895   -4.3282 H   0  0  0  0  0  0  0  0  0  0  0  0
   -4.3081    6.4842   -4.3282 H   0  0  0  0  0  0  0  0  0  0  0  0
   -7.0415    7.6055   -1.3597 H   0  0  0  0  0  0  0  0  0  0  0  0
   -6.8643    8.4974   -2.9088 H   0  0  0  0  0  0  0  0  0  0  0  0
   -7.4859    6.8121   -2.9088 H   0  0  0  0  0  0  0  0  0  0  0  0
   -2.1547   11.4562    0.1235 H   0  0  0  0  0  0  0  0  0  0  0  0
   -0.6513   10.3257    1.6402 H   0  0  0  0  0  0  0  0  0  0  0  0
   -0.3359    9.0203    0.4769 H   0  0  0  0  0  0  0  0  0  0  0  0
    1.4465   11.1710    1.0834 H   0  0  0  0  0  0  0  0  0  0  0  0
    1.6088   10.1214   -0.3216 H   0  0  0  0  0  0  0  0  0  0  0  0
    0.1853   12.7588    1.3175 H   0  0  0  0  0  0  0  0  0  0  0  0
    0.6645   14.0063    0.1171 H   0  0  0  0  0  0  0  0  0  0  0  0
   -1.0100   13.3562    0.1171 H   0  0  0  0  0  0  0  0  0  0  0  0
    1.8545   11.5773   -2.2409 H   0  0  0  0  0  0  0  0  0  0  0  0
    3.0124   12.5458   -0.1530 H   0  0  0  0  0  0  0  0  0  0  0  0
    3.6312   12.9210   -1.8456 H   0  0  0  0  0  0  0  0  0  0  0  0
    3.5855   14.9346   -0.1473 H   0  0  0  0  0  0  0  0  0  0  0  0
   -0.1002   14.9690   -1.7908 H   0  0  0  0  0  0  0  0  0  0  0  0
    1.7521   15.9495   -4.0507 H   0  0  0  0  0  0  0  0  0  0  0  0
   -0.0508   15.7227   -4.1380 H   0  0  0  0  0  0  0  0  0  0  0  0
    0.5826   18.1008   -3.8794 H   0  0  0  0  0  0  0  0  0  0  0  0
   -0.3815   17.4710   -2.4863 H   0  0  0  0  0  0  0  0  0  0  0  0
    1.4046   18.8275   -1.6364 H   0  0  0  0  0  0  0  0  0  0  0  0
    3.5540   18.4130   -2.2120 H   0  0  0  0  0  0  0  0  0  0  0  0
    0.9573   16.9928    1.1516 H   0  0  0  0  0  0  0  0  0  0  0  0
    0.1256   17.9967   -0.0842 H   0  0  0  0  0  0  0  0  0  0  0  0
   -0.0875   16.2131   -0.0842 H   0  0  0  0  0  0  0  0  0  0  0  0
    2.8583   17.2657    1.0575 H   0  0  0  0  0  0  0  0  0  0  0  0
    3.9410   16.7109   -0.2641 H   0  0  0  0  0  0  0  0  0  0  0  0
    3.3133   18.3940   -0.2641 H   0  0  0  0  0  0  0  0  0  0  0  0
    2.9802   13.3082   -3.6888 H   0  0  0  0  0  0  0  0  0  0  0  0
    1.7003   12.5108   -4.6649 H   0  0  0  0  0  0  0  0  0  0  0  0
    1.8454   14.3012   -4.6649 H   0  0  0  0  0  0  0  0  0  0  0  0
   -0.9337   13.8746   -3.8122 H   0  0  0  0  0  0  0  0  0  0  0  0
   -0.2182   12.1853   -4.0756 H   0  0  0  0  0  0  0  0  0  0  0  0
   -1.7609   13.1846   -1.6651 H   0  0  0  0  0  0  0  0  0  0  0  0
   -2.2398   11.9234   -2.8681 H   0  0  0  0  0  0  0  0  0  0  0  0
    0.0592    9.2904   -1.8786 H   0  0  0  0  0  0  0  0  0  0  0  0
   -1.1187    9.8771   -3.1013 H   0  0  0  0  0  0  0  0  0  0  0  0
    0.5640   10.5056   -3.1013 H   0  0  0  0  0  0  0  0  0  0  0  0
  1  2  1  0
  2  3  1  0
  3  4  1  0
  4  5  1  0
  5  6  1  0
  6  7  1  0
  7  8  1  0
  7  9  1  0
  2 10  1  0
 10 11  1  0
 11 12  1  0
 12 13  1  0
 13 14  1  1
 13 15  1  0
 15 16  1  0
 16 17  1  0
 17 18  2  0
 18 19  1  0
 19 20  1  0
 20 21  1  0
 21 22  1  0
 22 23  1  0
 22 24  1  0
 24 25  1  0
 24 26  1  0
 19 27  1  0
 27 28  1  6
 27 29  1  0
 29 30  1  0
 30 31  1  0
 31 32  1  6
  7  5  1  0
 31 10  1  0
 31 13  1  0
 27 15  1  0
 24 18  1  0
  1 33  1  0
  1 34  1  0
  1 35  1  0
  2 36  1  6
  3 37  1  0
  3 38  1  0
  4 39  1  0
  4 40  1  0
  5 41  1  1
  8 42  1  0
  8 43  1  0
  8 44  1  0
  9 45  1  0
  9 46  1  0
  9 47  1  0
 10 48  1  1
 11 49  1  0
 11 50  1  0
 12 51  1  0
 12 52  1  0
 14 53  1  0
 14 54  1  0
 14 55  1  0
 15 56  1  6
 16 57  1  0
 16 58  1  0
 17 59  1  0
 19 60  1  1
 20 61  1  0
 20 62  1  0
 21 63  1  0
 21 64  1  0
 22 65  1  1
 23 66  1  0
 25 67  1  0
 25 68  1  0
 25 69  1  0
 26 70  1  0
 26 71  1  0
 26 72  1  0
 28 73  1  0
 28 74  1  0
 28 75  1  0
 29 76  1  0
 29 77  1  0
 30 78  1  0
 30 79  1  0
 32 80  1  0
 32 81  1  0
 32 82  1  0
M  END
>  <meeko>  (5) 
{"is_sidechain": [false], "intermolecular_energy": 2.731, "internal_energy": -0.839}

$$$$
EPH_relaxed_0001_pdb2pqr_Repair_73_r2_0001_out
     RDKit          3D

 82 86  0  0  0  0  0  0  0  0999 V2000
    3.8110   17.6070    0.5900 C   0  0  0  0  0  0  0  0  0  0  0  0
    2.8110   17.9830   -0.5070 C   0  0  2  0  0  0  0  0  0  0  0  0
    2.1420   19.3460   -0.2410 C   0  0  0  0  0  0  0  0  0  0  0  0
    1.0710   19.3030    0.8520 C   0  0  0  0  0  0  0  0  0  0  0  0
   -0.1880   19.9930    0.4230 C   0  0  2  0  0  0  0  0  0  0  0  0
   -1.1490   20.1910    1.4680 O   0  0  0  0  0  0  0  0  0  0  0  0
   -1.5460   19.3170    0.3990 C   0  0  0  0  0  0  0  0  0  0  0  0
   -1.7140   17.8880    0.8120 C   0  0  0  0  0  0  0  0  0  0  0  0
   -2.6140   19.8870   -0.4810 C   0  0  0  0  0  0  0  0  0  0  0  0
    1.7490   16.8980   -0.6360 C   0  0  1  0  0  0  0  0  0  0  0  0
    0.5030   17.3730   -1.4310 C   0  0  0  0  0  0  0  0  0  0  0  0
   -0.0110   16.1480   -2.2310 C   0  0  0  0  0  0  0  0  0  0  0  0
    0.7410   14.9410   -1.6230 C   0  0  1  0  0  0  0  0  0  0  0  0
   -0.0520   14.5860   -0.3270 C   0  0  0  0  0  0  0  0  0  0  0  0
    0.9160   13.6970   -2.5530 C   0  0  2  0  0  0  0  0  0  0  0  0
   -0.3950   13.0250   -2.9970 C   0  0  0  0  0  0  0  0  0  0  0  0
   -0.8890   11.9360   -2.1020 C   0  0  0  0  0  0  0  0  0  0  0  0
   -0.1660   11.3210   -1.1480 C   0  0  0  0  0  0  0  0  0  0  0  0
    1.3220   11.6400   -0.9570 C   0  0  1  0  0  0  0  0  0  0  0  0
    2.1220   10.3180   -0.8200 C   0  0  0  0  0  0  0  0  0  0  0  0
    1.5740    9.4140    0.2790 C   0  0  0  0  0  0  0  0  0  0  0  0
    0.1090    9.0710    0.0240 C   0  0  2  0  0  0  0  0  0  0  0  0
    0.0230    8.2590   -1.1520 O   0  0  0  0  0  0  0  0  0  0  0  0
   -0.7940   10.3250   -0.1410 C   0  0  0  0  0  0  0  0  0  0  0  0
   -0.9430   11.0430    1.2230 C   0  0  0  0  0  0  0  0  0  0  0  0
   -2.2160    9.8420   -0.5340 C   0  0  0  0  0  0  0  0  0  0  0  0
    1.9600   12.6320   -2.0220 C   0  0  1  0  0  0  0  0  0  0  0  0
    2.4520   11.8320   -3.2670 C   0  0  0  0  0  0  0  0  0  0  0  0
    3.2370   13.3080   -1.3950 C   0  0  0  0  0  0  0  0  0  0  0  0
    3.0130   14.6010   -0.5880 C   0  0  0  0  0  0  0  0  0  0  0  0
    2.1490   15.5940   -1.3710 C   0  0  2  0  0  0  0  0  0  0  0  0
    2.9320   15.9870   -2.6710 C   0  0  0  0  0  0  0  0  0  0  0  0
    3.3550   17.7785    1.5762 H   0  0  0  0  0  0  0  0  0  0  0  0
    4.0821   16.5455    0.4909 H   0  0  0  0  0  0  0  0  0  0  0  0
    4.7143   18.2269    0.4909 H   0  0  0  0  0  0  0  0  0  0  0  0
    3.3712   18.0690   -1.4497 H   0  0  0  0  0  0  0  0  0  0  0  0
    2.9203   20.0613    0.0633 H   0  0  0  0  0  0  0  0  0  0  0  0
    1.6388   19.6444   -1.1725 H   0  0  0  0  0  0  0  0  0  0  0  0
    0.8405   18.2527    1.0838 H   0  0  0  0  0  0  0  0  0  0  0  0
    1.4635   19.8255    1.7368 H   0  0  0  0  0  0  0  0  0  0  0  0
    0.3606   20.5739   -0.3330 H   0  0  0  0  0  0  0  0  0  0  0  0
   -1.7217   17.8222    1.9100 H   0  0  0  0  0  0  0  0  0  0  0  0
   -2.6639   17.5008    0.4147 H   0  0  0  0  0  0  0  0  0  0  0  0
   -0.8799   17.2910    0.4147 H   0  0  0  0  0  0  0  0  0  0  0  0
   -3.4136   20.3138    0.1423 H   0  0  0  0  0  0  0  0  0  0  0  0
   -2.1838   20.6754   -1.1160 H   0  0  0  0  0  0  0  0  0  0  0  0
   -3.0296   19.0907   -1.1160 H   0  0  0  0  0  0  0  0  0  0  0  0
    1.5688   16.6897    0.4290 H   0  0  0  0  0  0  0  0  0  0  0  0
   -0.2753   17.7273   -0.7391 H   0  0  0  0  0  0  0  0  0  0  0  0
    0.7574   18.2055   -2.1035 H   0  0  0  0  0  0  0  0  0  0  0  0
   -1.0977   16.0312   -2.1065 H   0  0  0  0  0  0  0  0  0  0  0  0
    0.1689   16.2502   -3.3114 H   0  0  0  0  0  0  0  0  0  0  0  0
    0.5479   14.8545    0.5551 H   0  0  0  0  0  0  0  0  0  0  0  0
   -0.9985   15.1463   -0.3112 H   0  0  0  0  0  0  0  0  0  0  0  0
   -0.2645   13.5068   -0.3112 H   0  0  0  0  0  0  0  0  0  0  0  0
    1.3474   14.1412   -3.4622 H   0  0  0  0  0  0  0  0  0  0  0  0
   -1.1733   13.8005   -3.0502 H   0  0  0  0  0  0  0  0  0  0  0  0
   -0.1802   12.5491   -3.9652 H   0  0  0  0  0  0  0  0  0  0  0  0
   -1.9311   11.6093   -2.2337 H   0  0  0  0  0  0  0  0  0  0  0  0
    1.3921   12.2165   -0.0228 H   0  0  0  0  0  0  0  0  0  0  0  0
    2.0761    9.7773   -1.7769 H   0  0  0  0  0  0  0  0  0  0  0  0
    3.1562   10.5799   -0.5521 H   0  0  0  0  0  0  0  0  0  0  0  0
    2.1616    8.4845    0.3068 H   0  0  0  0  0  0  0  0  0  0  0  0
    1.6479    9.9451    1.2395 H   0  0  0  0  0  0  0  0  0  0  0  0
   -0.2616    8.5311    0.9079 H   0  0  0  0  0  0  0  0  0  0  0  0
    0.5170    7.4390   -0.9790 H   0  0  0  0  0  0  0  0  0  0  0  0
   -0.7927   10.3186    2.0370 H   0  0  0  0  0  0  0  0  0  0  0  0
   -0.1917   11.8427    1.3004 H   0  0  0  0  0  0  0  0  0  0  0  0
   -1.9505   11.4777    1.3004 H   0  0  0  0  0  0  0  0  0  0  0  0
   -2.8005    9.6435    0.3765 H   0  0  0  0  0  0  0  0  0  0  0  0
   -2.7164   10.6206   -1.1285 H   0  0  0  0  0  0  0  0  0  0  0  0
   -2.1387    8.9197   -1.1285 H   0  0  0  0  0  0  0  0  0  0  0  0
    3.0014   10.9387   -2.9352 H   0  0  0  0  0  0  0  0  0  0  0  0
    1.5858   11.5260   -3.8720 H   0  0  0  0  0  0  0  0  0  0  0  0
    3.1159   12.4670   -3.8720 H   0  0  0  0  0  0  0  0  0  0  0  0
    3.7065   12.5739   -0.7237 H   0  0  0  0  0  0  0  0  0  0  0  0
    3.8549   13.6083   -2.2541 H   0  0  0  0  0  0  0  0  0  0  0  0
    2.5082   14.3522    0.3571 H   0  0  0  0  0  0  0  0  0  0  0  0
    3.9906   15.0656   -0.3921 H   0  0  0  0  0  0  0  0  0  0  0  0
    3.8838   16.4647   -2.3955 H   0  0  0  0  0  0  0  0  0  0  0  0
    3.1337   15.0833   -3.2649 H   0  0  0  0  0  0  0  0  0  0  0  0
    2.3279   16.6887   -3.2649 H   0  0  0  0  0  0  0  0  0  0  0  0
  1  2  1  0
  2  3  1  0
  3  4  1  0
  4  5  1  0
  5  6  1  0
  6  7  1  0
  7  8  1  0
  7  9  1  0
  2 10  1  0
 10 11  1  0
 11 12  1  0
 12 13  1  0
 13 14  1  1
 13 15  1  0
 15 16  1  0
 16 17  1  0
 17 18  2  0
 18 19  1  0
 19 20  1  0
 20 21  1  0
 21 22  1  0
 22 23  1  0
 22 24  1  0
 24 25  1  0
 24 26  1  0
 19 27  1  0
 27 28  1  6
 27 29  1  0
 29 30  1  0
 30 31  1  0
 31 32  1  6
  7  5  1  0
 31 10  1  0
 31 13  1  0
 27 15  1  0
 24 18  1  0
  1 33  1  0
  1 34  1  0
  1 35  1  0
  2 36  1  6
  3 37  1  0
  3 38  1  0
  4 39  1  0
  4 40  1  0
  5 41  1  6
  8 42  1  0
  8 43  1  0
  8 44  1  0
  9 45  1  0
  9 46  1  0
  9 47  1  0
 10 48  1  1
 11 49  1  0
 11 50  1  0
 12 51  1  0
 12 52  1  0
 14 53  1  0
 14 54  1  0
 14 55  1  0
 15 56  1  6
 16 57  1  0
 16 58  1  0
 17 59  1  0
 19 60  1  1
 20 61  1  0
 20 62  1  0
 21 63  1  0
 21 64  1  0
 22 65  1  1
 23 66  1  0
 25 67  1  0
 25 68  1  0
 25 69  1  0
 26 70  1  0
 26 71  1  0
 26 72  1  0
 28 73  1  0
 28 74  1  0
 28 75  1  0
 29 76  1  0
 29 77  1  0
 30 78  1  0
 30 79  1  0
 32 80  1  0
 32 81  1  0
 32 82  1  0
M  END
>  <meeko>  (6) 
{"is_sidechain": [false], "intermolecular_energy": 2.731, "internal_energy": -0.839}

$$$$
EPH_relaxed_0001_pdb2pqr_Repair_73_r2_0001_out
     RDKit          3D

 82 86  0  0  0  0  0  0  0  0999 V2000
   -5.1470    5.9270   -1.8060 C   0  0  0  0  0  0  0  0  0  0  0  0
   -5.4640    7.4240   -1.8780 C   0  0  2  0  0  0  0  0  0  0  0  0
   -5.2260    8.1330   -0.5300 C   0  0  0  0  0  0  0  0  0  0  0  0
   -4.2380    9.2990   -0.6130 C   0  0  0  0  0  0  0  0  0  0  0  0
   -2.8240    8.8420   -0.4180 C   0  0  2  0  0  0  0  0  0  0  0  0
   -2.1180    9.5120    0.6350 O   0  0  0  0  0  0  0  0  0  0  0  0
   -1.6160    9.7170   -0.6960 C   0  0  0  0  0  0  0  0  0  0  0  0
   -1.7670   11.1210   -1.1930 C   0  0  0  0  0  0  0  0  0  0  0  0
   -0.2970    9.0570   -0.9520 C   0  0  0  0  0  0  0  0  0  0  0  0
   -6.9050    7.6290   -2.3280 C   0  0  1  0  0  0  0  0  0  0  0  0
   -7.2210    6.9110   -3.6670 C   0  0  0  0  0  0  0  0  0  0  0  0
   -8.6900    6.4230   -3.5780 C   0  0  0  0  0  0  0  0  0  0  0  0
   -9.2700    7.1560   -2.3450 C   0  0  1  0  0  0  0  0  0  0  0  0
   -9.6420    8.5800   -2.8640 C   0  0  0  0  0  0  0  0  0  0  0  0
  -10.4810    6.4650   -1.6370 C   0  0  2  0  0  0  0  0  0  0  0  0
  -11.7440    6.3140   -2.5030 C   0  0  0  0  0  0  0  0  0  0  0  0
  -12.7090    7.4500   -2.4270 C   0  0  0  0  0  0  0  0  0  0  0  0
  -12.7110    8.4120   -1.4850 C   0  0  0  0  0  0  0  0  0  0  0  0
  -11.7320    8.3620   -0.3050 C   0  0  1  0  0  0  0  0  0  0  0  0
  -12.4960    8.6510    1.0140 C   0  0  0  0  0  0  0  0  0  0  0  0
  -13.2800    9.9590    0.9610 C   0  0  0  0  0  0  0  0  0  0  0  0
  -14.2830    9.9470   -0.1890 C   0  0  2  0  0  0  0  0  0  0  0  0
  -15.2870    8.9650    0.0850 O   0  0  0  0  0  0  0  0  0  0  0  0
  -13.6300    9.6560   -1.5690 C   0  0  0  0  0  0  0  0  0  0  0  0
  -12.7700   10.8670   -2.0040 C   0  0  0  0  0  0  0  0  0  0  0  0
  -14.7670    9.5320   -2.6190 C   0  0  0  0  0  0  0  0  0  0  0  0
  -10.8250    7.0600   -0.2120 C   0  0  1  0  0  0  0  0  0  0  0  0
  -11.5780    5.9410    0.5680 C   0  0  0  0  0  0  0  0  0  0  0  0
   -9.5330    7.3930    0.6250 C   0  0  0  0  0  0  0  0  0  0  0  0
   -8.3300    7.9620   -0.1510 C   0  0  0  0  0  0  0  0  0  0  0  0
   -8.0240    7.1120   -1.3880 C   0  0  2  0  0  0  0  0  0  0  0  0
   -7.6240    5.6790   -0.8970 C   0  0  0  0  0  0  0  0  0  0  0  0
   -5.0812    5.6164   -0.7528 H   0  0  0  0  0  0  0  0  0  0  0  0
   -5.9447    5.3588   -2.3067 H   0  0  0  0  0  0  0  0  0  0  0  0
   -4.1874    5.7309   -2.3067 H   0  0  0  0  0  0  0  0  0  0  0  0
   -4.7786    7.8728   -2.6121 H   0  0  0  0  0  0  0  0  0  0  0  0
   -6.1895    8.5197   -0.1663 H   0  0  0  0  0  0  0  0  0  0  0  0
   -4.7878    7.3888    0.1512 H   0  0  0  0  0  0  0  0  0  0  0  0
   -4.3267    9.7717   -1.6023 H   0  0  0  0  0  0  0  0  0  0  0  0
   -4.4814   10.0126    0.1880 H   0  0  0  0  0  0  0  0  0  0  0  0
   -3.0850    7.8219   -0.7364 H   0  0  0  0  0  0  0  0  0  0  0  0
   -1.8408   11.8072   -0.3365 H   0  0  0  0  0  0  0  0  0  0  0  0
   -0.8926   11.3898   -1.8039 H   0  0  0  0  0  0  0  0  0  0  0  0
   -2.6786   11.1977   -1.8039 H   0  0  0  0  0  0  0  0  0  0  0  0
    0.1847    8.8160    0.0071 H   0  0  0  0  0  0  0  0  0  0  0  0
   -0.4551    8.1318   -1.5256 H   0  0  0  0  0  0  0  0  0  0  0  0
    0.3487    9.7382   -1.5256 H   0  0  0  0  0  0  0  0  0  0  0  0
   -6.9291    8.7278   -2.3740 H   0  0  0  0  0  0  0  0  0  0  0  0
   -7.1046    7.6101   -4.5082 H   0  0  0  0  0  0  0  0  0  0  0  0
   -6.5345    6.0679   -3.8343 H   0  0  0  0  0  0  0  0  0  0  0  0
   -9.2453    6.6944   -4.4880 H   0  0  0  0  0  0  0  0  0  0  0  0
   -8.7616    5.3293   -3.4853 H   0  0  0  0  0  0  0  0  0  0  0  0
   -9.8166    9.2483   -2.0079 H   0  0  0  0  0  0  0  0  0  0  0  0
   -8.8168    8.9747   -3.4750 H   0  0  0  0  0  0  0  0  0  0  0  0
  -10.5548    8.5207   -3.4750 H   0  0  0  0  0  0  0  0  0  0  0  0
  -10.1067    5.4435   -1.4741 H   0  0  0  0  0  0  0  0  0  0  0  0
  -11.4268    6.2071   -3.5508 H   0  0  0  0  0  0  0  0  0  0  0  0
  -12.2775    5.4350   -2.1121 H   0  0  0  0  0  0  0  0  0  0  0  0
  -13.4836    7.5060   -3.2060 H   0  0  0  0  0  0  0  0  0  0  0  0
  -10.9922    9.1550   -0.4893 H   0  0  0  0  0  0  0  0  0  0  0  0
  -13.1987    7.8260    1.2026 H   0  0  0  0  0  0  0  0  0  0  0  0
  -11.7514    8.7402    1.8187 H   0  0  0  0  0  0  0  0  0  0  0  0
  -13.8211   10.0932    1.9093 H   0  0  0  0  0  0  0  0  0  0  0  0
  -12.5727   10.7862    0.8016 H   0  0  0  0  0  0  0  0  0  0  0  0
  -14.7202   10.9542   -0.2555 H   0  0  0  0  0  0  0  0  0  0  0  0
  -15.8830    9.3340    0.7590 H   0  0  0  0  0  0  0  0  0  0  0  0
  -12.3975   11.3916   -1.1118 H   0  0  0  0  0  0  0  0  0  0  0  0
  -11.9184   10.5150   -2.6047 H   0  0  0  0  0  0  0  0  0  0  0  0
  -13.3829   11.5551   -2.6047 H   0  0  0  0  0  0  0  0  0  0  0  0
  -15.7327    9.4267   -2.1030 H   0  0  0  0  0  0  0  0  0  0  0  0
  -14.7843   10.4336   -3.2490 H   0  0  0  0  0  0  0  0  0  0  0  0
  -14.5895    8.6479   -3.2490 H   0  0  0  0  0  0  0  0  0  0  0  0
  -11.4653    6.1084    1.6493 H   0  0  0  0  0  0  0  0  0  0  0  0
  -12.6453    5.9637    0.3027 H   0  0  0  0  0  0  0  0  0  0  0  0
  -11.1550    4.9609    0.3027 H   0  0  0  0  0  0  0  0  0  0  0  0
   -9.8138    8.1307    1.3911 H   0  0  0  0  0  0  0  0  0  0  0  0
   -9.1890    6.4258    1.0203 H   0  0  0  0  0  0  0  0  0  0  0  0
   -8.5601    8.9897   -0.4685 H   0  0  0  0  0  0  0  0  0  0  0  0
   -7.4499    7.9508    0.5088 H   0  0  0  0  0  0  0  0  0  0  0  0
   -7.6178    5.6567    0.2028 H   0  0  0  0  0  0  0  0  0  0  0  0
   -8.3518    4.9456   -1.2745 H   0  0  0  0  0  0  0  0  0  0  0  0
   -6.6216    5.4286   -1.2745 H   0  0  0  0  0  0  0  0  0  0  0  0
  1  2  1  0
  2  3  1  0
  3  4  1  0
  4  5  1  0
  5  6  1  0
  6  7  1  0
  7  8  1  0
  7  9  1  0
  2 10  1  0
 10 11  1  0
 11 12  1  0
 12 13  1  0
 13 14  1  6
 13 15  1  0
 15 16  1  0
 16 17  1  0
 17 18  2  0
 18 19  1  0
 19 20  1  0
 20 21  1  0
 21 22  1  0
 22 23  1  0
 22 24  1  0
 24 25  1  0
 24 26  1  0
 19 27  1  0
 27 28  1  1
 27 29  1  0
 29 30  1  0
 30 31  1  0
 31 32  1  1
  7  5  1  0
 31 10  1  0
 31 13  1  0
 27 15  1  0
 24 18  1  0
  1 33  1  0
  1 34  1  0
  1 35  1  0
  2 36  1  6
  3 37  1  0
  3 38  1  0
  4 39  1  0
  4 40  1  0
  5 41  1  1
  8 42  1  0
  8 43  1  0
  8 44  1  0
  9 45  1  0
  9 46  1  0
  9 47  1  0
 10 48  1  6
 11 49  1  0
 11 50  1  0
 12 51  1  0
 12 52  1  0
 14 53  1  0
 14 54  1  0
 14 55  1  0
 15 56  1  1
 16 57  1  0
 16 58  1  0
 17 59  1  0
 19 60  1  6
 20 61  1  0
 20 62  1  0
 21 63  1  0
 21 64  1  0
 22 65  1  6
 23 66  1  0
 25 67  1  0
 25 68  1  0
 25 69  1  0
 26 70  1  0
 26 71  1  0
 26 72  1  0
 28 73  1  0
 28 74  1  0
 28 75  1  0
 29 76  1  0
 29 77  1  0
 30 78  1  0
 30 79  1  0
 32 80  1  0
 32 81  1  0
 32 82  1  0
M  END
>  <meeko>  (7) 
{"is_sidechain": [false], "intermolecular_energy": 2.731, "internal_energy": -0.839}

$$$$
EPH_relaxed_0001_pdb2pqr_Repair_73_r2_0001_out
     RDKit          3D

 82 86  0  0  0  0  0  0  0  0999 V2000
    3.2910   17.7820    0.6370 C   0  0  0  0  0  0  0  0  0  0  0  0
    3.1140   16.9260   -0.6200 C   0  0  2  0  0  0  0  0  0  0  0  0
    2.7990   17.7790   -1.8650 C   0  0  0  0  0  0  0  0  0  0  0  0
    2.1010   19.1040   -1.5430 C   0  0  0  0  0  0  0  0  0  0  0  0
    0.6120   18.9460   -1.4840 C   0  0  2  0  0  0  0  0  0  0  0  0
   -0.1180   20.1770   -1.4000 O   0  0  0  0  0  0  0  0  0  0  0  0
   -0.2200   19.3010   -0.2650 C   0  0  0  0  0  0  0  0  0  0  0  0
    0.4120   19.8410    0.9800 C   0  0  0  0  0  0  0  0  0  0  0  0
   -1.5680   18.6690   -0.1110 C   0  0  0  0  0  0  0  0  0  0  0  0
    2.0080   15.9000   -0.3980 C   0  0  1  0  0  0  0  0  0  0  0  0
    0.6280   16.5580   -0.1300 C   0  0  0  0  0  0  0  0  0  0  0  0
   -0.4380   15.6390   -0.7790 C   0  0  0  0  0  0  0  0  0  0  0  0
    0.3200   14.3300   -1.1040 C   0  0  1  0  0  0  0  0  0  0  0  0
    0.3590   13.5440    0.2440 C   0  0  0  0  0  0  0  0  0  0  0  0
   -0.2690   13.4600   -2.2620 C   0  0  2  0  0  0  0  0  0  0  0  0
   -1.6870   12.9180   -2.0140 C   0  0  0  0  0  0  0  0  0  0  0  0
   -1.7520   11.5800   -1.3540 C   0  0  0  0  0  0  0  0  0  0  0  0
   -0.7260   10.7180   -1.2320 C   0  0  0  0  0  0  0  0  0  0  0  0
    0.6350   11.0160   -1.8750 C   0  0  1  0  0  0  0  0  0  0  0  0
    1.1450    9.7530   -2.6170 C   0  0  0  0  0  0  0  0  0  0  0  0
    1.1820    8.5210   -1.7180 C   0  0  0  0  0  0  0  0  0  0  0  0
   -0.2010    8.2230   -1.1440 C   0  0  2  0  0  0  0  0  0  0  0  0
   -1.0690    7.8310   -2.2120 O   0  0  0  0  0  0  0  0  0  0  0  0
   -0.8210    9.4270   -0.3820 C   0  0  0  0  0  0  0  0  0  0  0  0
   -0.0490    9.6590    0.9410 C   0  0  0  0  0  0  0  0  0  0  0  0
   -2.2690    9.0410    0.0230 C   0  0  0  0  0  0  0  0  0  0  0  0
    0.7040   12.3230   -2.7770 C   0  0  1  0  0  0  0  0  0  0  0  0
    0.2640   11.9870   -4.2350 C   0  0  0  0  0  0  0  0  0  0  0  0
    2.1990   12.8090   -2.8640 C   0  0  0  0  0  0  0  0  0  0  0  0
    2.6860   13.7620   -1.7560 C   0  0  0  0  0  0  0  0  0  0  0  0
    1.7040   14.9200   -1.5590 C   0  0  2  0  0  0  0  0  0  0  0  0
    1.6600   15.7420   -2.8920 C   0  0  0  0  0  0  0  0  0  0  0  0
    3.1610   17.1532    1.5301 H   0  0  0  0  0  0  0  0  0  0  0  0
    4.2991   18.2220    0.6420 H   0  0  0  0  0  0  0  0  0  0  0  0
    2.5401   18.5858    0.6420 H   0  0  0  0  0  0  0  0  0  0  0  0
    4.0679   16.4109   -0.8064 H   0  0  0  0  0  0  0  0  0  0  0  0
    3.7442   18.0011   -2.3821 H   0  0  0  0  0  0  0  0  0  0  0  0
    2.1068   17.1942   -2.4886 H   0  0  0  0  0  0  0  0  0  0  0  0
    2.4597   19.4684   -0.5691 H   0  0  0  0  0  0  0  0  0  0  0  0
    2.3384   19.8201   -2.3436 H   0  0  0  0  0  0  0  0  0  0  0  0
    0.6601   18.0400   -2.1059 H   0  0  0  0  0  0  0  0  0  0  0  0
   -0.0889   19.4130    1.8608 H   0  0  0  0  0  0  0  0  0  0  0  0
    1.4781   19.5706    0.9970 H   0  0  0  0  0  0  0  0  0  0  0  0
    0.3112   20.9362    0.9970 H   0  0  0  0  0  0  0  0  0  0  0  0
   -1.8016   18.5595    0.9583 H   0  0  0  0  0  0  0  0  0  0  0  0
   -2.3278   19.3047   -0.5891 H   0  0  0  0  0  0  0  0  0  0  0  0
   -1.5653   17.6783   -0.5891 H   0  0  0  0  0  0  0  0  0  0  0  0
    2.4333   15.3514    0.4553 H   0  0  0  0  0  0  0  0  0  0  0  0
    0.4504   16.6386    0.9526 H   0  0  0  0  0  0  0  0  0  0  0  0
    0.5851   17.5728   -0.5524 H   0  0  0  0  0  0  0  0  0  0  0  0
   -1.2630   15.4459   -0.0776 H   0  0  0  0  0  0  0  0  0  0  0  0
   -0.8901   16.0921   -1.6736 H   0  0  0  0  0  0  0  0  0  0  0  0
    0.3238   14.2539    1.0835 H   0  0  0  0  0  0  0  0  0  0  0  0
   -0.5067   12.8676    0.2992 H   0  0  0  0  0  0  0  0  0  0  0  0
    1.2874   12.9566    0.2992 H   0  0  0  0  0  0  0  0  0  0  0  0
   -0.3677   14.1894   -3.0794 H   0  0  0  0  0  0  0  0  0  0  0  0
   -2.2193   13.6383   -1.3754 H   0  0  0  0  0  0  0  0  0  0  0  0
   -2.1419   12.7898   -3.0073 H   0  0  0  0  0  0  0  0  0  0  0  0
   -2.7204   11.2732   -0.9319 H   0  0  0  0  0  0  0  0  0  0  0  0
    1.3154   11.2622   -1.0465 H   0  0  0  0  0  0  0  0  0  0  0  0
    0.4768    9.5494   -3.4668 H   0  0  0  0  0  0  0  0  0  0  0  0
    2.1739    9.9542   -2.9500 H   0  0  0  0  0  0  0  0  0  0  0  0
    1.5216    7.6559   -2.3065 H   0  0  0  0  0  0  0  0  0  0  0  0
    1.8737    8.7148   -0.8849 H   0  0  0  0  0  0  0  0  0  0  0  0
   -0.0850    7.4131   -0.4087 H   0  0  0  0  0  0  0  0  0  0  0  0
   -0.6040    7.1580   -2.7370 H   0  0  0  0  0  0  0  0  0  0  0  0
   -0.7145    9.4590    1.7937 H   0  0  0  0  0  0  0  0  0  0  0  0
    0.8163    8.9812    0.9843 H   0  0  0  0  0  0  0  0  0  0  0  0
    0.2993   10.7015    0.9843 H   0  0  0  0  0  0  0  0  0  0  0  0
   -2.3496    9.0195    1.1198 H   0  0  0  0  0  0  0  0  0  0  0  0
   -2.9731    9.7828   -0.3819 H   0  0  0  0  0  0  0  0  0  0  0  0
   -2.5104    8.0471   -0.3819 H   0  0  0  0  0  0  0  0  0  0  0  0
   -0.6100   11.3196   -4.2096 H   0  0  0  0  0  0  0  0  0  0  0  0
    0.0007   12.9160   -4.7619 H   0  0  0  0  0  0  0  0  0  0  0  0
    1.0909   11.4884   -4.7619 H   0  0  0  0  0  0  0  0  0  0  0  0
    2.8409   11.9160   -2.8405 H   0  0  0  0  0  0  0  0  0  0  0  0
    2.2572   13.3949   -3.7932 H   0  0  0  0  0  0  0  0  0  0  0  0
    2.7759   13.2020   -0.8135 H   0  0  0  0  0  0  0  0  0  0  0  0
    3.6612   14.1755   -2.0525 H   0  0  0  0  0  0  0  0  0  0  0  0
    1.6025   16.8155   -2.6591 H   0  0  0  0  0  0  0  0  0  0  0  0
    2.5701   15.5418   -3.4764 H   0  0  0  0  0  0  0  0  0  0  0  0
    0.7764   15.4458   -3.4764 H   0  0  0  0  0  0  0  0  0  0  0  0
  1  2  1  0
  2  3  1  0
  3  4  1  0
  4  5  1  0
  5  6  1  0
  6  7  1  0
  7  8  1  0
  7  9  1  0
  2 10  1  0
 10 11  1  0
 11 12  1  0
 12 13  1  0
 13 14  1  1
 13 15  1  0
 15 16  1  0
 16 17  1  0
 17 18  2  0
 18 19  1  0
 19 20  1  0
 20 21  1  0
 21 22  1  0
 22 23  1  0
 22 24  1  0
 24 25  1  0
 24 26  1  0
 19 27  1  0
 27 28  1  6
 27 29  1  0
 29 30  1  0
 30 31  1  0
 31 32  1  6
  7  5  1  0
 31 10  1  0
 31 13  1  0
 27 15  1  0
 24 18  1  0
  1 33  1  0
  1 34  1  0
  1 35  1  0
  2 36  1  6
  3 37  1  0
  3 38  1  0
  4 39  1  0
  4 40  1  0
  5 41  1  6
  8 42  1  0
  8 43  1  0
  8 44  1  0
  9 45  1  0
  9 46  1  0
  9 47  1  0
 10 48  1  1
 11 49  1  0
 11 50  1  0
 12 51  1  0
 12 52  1  0
 14 53  1  0
 14 54  1  0
 14 55  1  0
 15 56  1  6
 16 57  1  0
 16 58  1  0
 17 59  1  0
 19 60  1  1
 20 61  1  0
 20 62  1  0
 21 63  1  0
 21 64  1  0
 22 65  1  1
 23 66  1  0
 25 67  1  0
 25 68  1  0
 25 69  1  0
 26 70  1  0
 26 71  1  0
 26 72  1  0
 28 73  1  0
 28 74  1  0
 28 75  1  0
 29 76  1  0
 29 77  1  0
 30 78  1  0
 30 79  1  0
 32 80  1  0
 32 81  1  0
 32 82  1  0
M  END
>  <meeko>  (8) 
{"is_sidechain": [false], "intermolecular_energy": 2.731, "internal_energy": -0.839}

$$$$
EPH_relaxed_0001_pdb2pqr_Repair_73_r2_0001_out
     RDKit          3D

 82 86  0  0  0  0  0  0  0  0999 V2000
    0.4360    8.8140   -2.4130 C   0  0  0  0  0  0  0  0  0  0  0  0
    1.1820    9.9600   -3.1010 C   0  0  2  0  0  0  0  0  0  0  0  0
    2.6820    9.9770   -2.7420 C   0  0  0  0  0  0  0  0  0  0  0  0
    3.5670   10.6000   -3.8240 C   0  0  0  0  0  0  0  0  0  0  0  0
    4.9630   10.8330   -3.3320 C   0  0  2  0  0  0  0  0  0  0  0  0
    5.5700   12.0430   -3.8030 O   0  0  0  0  0  0  0  0  0  0  0  0
    6.1830   10.8170   -4.2350 C   0  0  0  0  0  0  0  0  0  0  0  0
    6.0620   10.5610   -5.7040 C   0  0  0  0  0  0  0  0  0  0  0  0
    7.5240   10.5650   -3.6210 C   0  0  0  0  0  0  0  0  0  0  0  0
    0.5430   11.2930   -2.7290 C   0  0  1  0  0  0  0  0  0  0  0  0
   -0.8370   11.1230   -2.0410 C   0  0  0  0  0  0  0  0  0  0  0  0
   -0.9570   12.2570   -0.9910 C   0  0  0  0  0  0  0  0  0  0  0  0
    0.1960   13.2290   -1.3340 C   0  0  1  0  0  0  0  0  0  0  0  0
   -0.3470   14.0940   -2.5140 C   0  0  0  0  0  0  0  0  0  0  0  0
    0.7220   14.1190   -0.1610 C   0  0  2  0  0  0  0  0  0  0  0  0
   -0.3100   15.0940    0.4320 C   0  0  0  0  0  0  0  0  0  0  0  0
   -0.3490   16.4450   -0.2020 C   0  0  0  0  0  0  0  0  0  0  0  0
    0.5970   16.9570   -1.0100 C   0  0  0  0  0  0  0  0  0  0  0  0
    1.8990   16.1920   -1.2820 C   0  0  1  0  0  0  0  0  0  0  0  0
    3.1060   17.1560   -1.1410 C   0  0  0  0  0  0  0  0  0  0  0  0
    2.9660   18.3990   -2.0140 C   0  0  0  0  0  0  0  0  0  0  0  0
    1.6900   19.1640   -1.6740 C   0  0  2  0  0  0  0  0  0  0  0  0
    1.8100   19.6960   -0.3510 O   0  0  0  0  0  0  0  0  0  0  0  0
    0.4080   18.2910   -1.7720 C   0  0  0  0  0  0  0  0  0  0  0  0
    0.1120   17.9660   -3.2570 C   0  0  0  0  0  0  0  0  0  0  0  0
   -0.7890   19.1420   -1.2680 C   0  0  0  0  0  0  0  0  0  0  0  0
    2.0960   14.8440   -0.4630 C   0  0  1  0  0  0  0  0  0  0  0  0
    2.7500   15.1530    0.9190 C   0  0  0  0  0  0  0  0  0  0  0  0
    3.1060   13.9160   -1.2350 C   0  0  0  0  0  0  0  0  0  0  0  0
    2.5100   12.9740   -2.2980 C   0  0  0  0  0  0  0  0  0  0  0  0
    1.3140   12.1990   -1.7360 C   0  0  2  0  0  0  0  0  0  0  0  0
    1.8330   11.3030   -0.5610 C   0  0  0  0  0  0  0  0  0  0  0  0
    0.5116    8.9301   -1.3218 H   0  0  0  0  0  0  0  0  0  0  0  0
   -0.6226    8.8342   -2.7114 H   0  0  0  0  0  0  0  0  0  0  0  0
    0.8829    7.8542   -2.7114 H   0  0  0  0  0  0  0  0  0  0  0  0
    1.1047    9.7996   -4.1865 H   0  0  0  0  0  0  0  0  0  0  0  0
    2.8104   10.5535   -1.8140 H   0  0  0  0  0  0  0  0  0  0  0  0
    2.9980    8.9291   -2.6325 H   0  0  0  0  0  0  0  0  0  0  0  0
    3.6026    9.9220   -4.6895 H   0  0  0  0  0  0  0  0  0  0  0  0
    3.1348   11.5725   -4.1025 H   0  0  0  0  0  0  0  0  0  0  0  0
    4.7394   10.3200   -2.3850 H   0  0  0  0  0  0  0  0  0  0  0  0
    5.5972    9.5776   -5.8677 H   0  0  0  0  0  0  0  0  0  0  0  0
    5.4379   11.3424   -6.1622 H   0  0  0  0  0  0  0  0  0  0  0  0
    7.0619   10.5748   -6.1622 H   0  0  0  0  0  0  0  0  0  0  0  0
    7.4344   10.5818   -2.5248 H   0  0  0  0  0  0  0  0  0  0  0  0
    7.8959    9.5813   -3.9434 H   0  0  0  0  0  0  0  0  0  0  0  0
    8.2276   11.3466   -3.9434 H   0  0  0  0  0  0  0  0  0  0  0  0
    0.5109   11.7650   -3.7221 H   0  0  0  0  0  0  0  0  0  0  0  0
   -1.6436   11.2081   -2.7841 H   0  0  0  0  0  0  0  0  0  0  0  0
   -0.9219   10.1346   -1.5658 H   0  0  0  0  0  0  0  0  0  0  0  0
   -1.9299   12.7632   -1.0755 H   0  0  0  0  0  0  0  0  0  0  0  0
   -0.8920   11.8796    0.0402 H   0  0  0  0  0  0  0  0  0  0  0  0
   -0.8915   14.9614   -2.1125 H   0  0  0  0  0  0  0  0  0  0  0  0
    0.4946   14.4427   -3.1306 H   0  0  0  0  0  0  0  0  0  0  0  0
   -1.0268   13.4876   -3.1306 H   0  0  0  0  0  0  0  0  0  0  0  0
    0.9192   13.3776    0.6273 H   0  0  0  0  0  0  0  0  0  0  0  0
   -1.3064   14.6400    0.3262 H   0  0  0  0  0  0  0  0  0  0  0  0
   -0.0088   15.2571    1.4773 H   0  0  0  0  0  0  0  0  0  0  0  0
   -1.2254   17.0752    0.0094 H   0  0  0  0  0  0  0  0  0  0  0  0
    1.8281   15.8319   -2.3190 H   0  0  0  0  0  0  0  0  0  0  0  0
    3.1855   17.4703   -0.0899 H   0  0  0  0  0  0  0  0  0  0  0  0
    4.0056   16.6156   -1.4707 H   0  0  0  0  0  0  0  0  0  0  0  0
    3.8336   19.0546   -1.8485 H   0  0  0  0  0  0  0  0  0  0  0  0
    2.9166   18.0845   -3.0669 H   0  0  0  0  0  0  0  0  0  0  0  0
    1.5795   19.9678   -2.4167 H   0  0  0  0  0  0  0  0  0  0  0  0
    2.2380   19.0190    0.2000 H   0  0  0  0  0  0  0  0  0  0  0  0
   -0.6277   17.1538   -3.3142 H   0  0  0  0  0  0  0  0  0  0  0  0
   -0.2873   18.8614   -3.7558 H   0  0  0  0  0  0  0  0  0  0  0  0
    1.0407   17.6519   -3.7558 H   0  0  0  0  0  0  0  0  0  0  0  0
   -0.7973   19.1479   -0.1680 H   0  0  0  0  0  0  0  0  0  0  0  0
   -0.6884   20.1725   -1.6395 H   0  0  0  0  0  0  0  0  0  0  0  0
   -1.7293   18.7085   -1.6395 H   0  0  0  0  0  0  0  0  0  0  0  0
    2.0729   14.8331    1.7248 H   0  0  0  0  0  0  0  0  0  0  0  0
    3.7028   14.6098    1.0034 H   0  0  0  0  0  0  0  0  0  0  0  0
    2.9354   16.2340    1.0034 H   0  0  0  0  0  0  0  0  0  0  0  0
    3.8369   14.5659   -1.7384 H   0  0  0  0  0  0  0  0  0  0  0  0
    3.5311   13.2521   -0.4678 H   0  0  0  0  0  0  0  0  0  0  0  0
    2.1790   13.5696   -3.1615 H   0  0  0  0  0  0  0  0  0  0  0  0
    3.2837   12.2532   -2.6009 H   0  0  0  0  0  0  0  0  0  0  0  0
    1.5645   11.7665    0.3998 H   0  0  0  0  0  0  0  0  0  0  0  0
    1.3723   10.3064   -0.6287 H   0  0  0  0  0  0  0  0  0  0  0  0
    2.9267   11.2068   -0.6287 H   0  0  0  0  0  0  0  0  0  0  0  0
  1  2  1  0
  2  3  1  0
  3  4  1  0
  4  5  1  0
  5  6  1  0
  6  7  1  0
  7  8  1  0
  7  9  1  0
  2 10  1  0
 10 11  1  0
 11 12  1  0
 12 13  1  0
 13 14  1  6
 13 15  1  0
 15 16  1  0
 16 17  1  0
 17 18  2  0
 18 19  1  0
 19 20  1  0
 20 21  1  0
 21 22  1  0
 22 23  1  0
 22 24  1  0
 24 25  1  0
 24 26  1  0
 19 27  1  0
 27 28  1  1
 27 29  1  0
 29 30  1  0
 30 31  1  0
 31 32  1  1
  7  5  1  0
 31 10  1  0
 31 13  1  0
 27 15  1  0
 24 18  1  0
  1 33  1  0
  1 34  1  0
  1 35  1  0
  2 36  1  6
  3 37  1  0
  3 38  1  0
  4 39  1  0
  4 40  1  0
  5 41  1  1
  8 42  1  0
  8 43  1  0
  8 44  1  0
  9 45  1  0
  9 46  1  0
  9 47  1  0
 10 48  1  6
 11 49  1  0
 11 50  1  0
 12 51  1  0
 12 52  1  0
 14 53  1  0
 14 54  1  0
 14 55  1  0
 15 56  1  1
 16 57  1  0
 16 58  1  0
 17 59  1  0
 19 60  1  6
 20 61  1  0
 20 62  1  0
 21 63  1  0
 21 64  1  0
 22 65  1  6
 23 66  1  0
 25 67  1  0
 25 68  1  0
 25 69  1  0
 26 70  1  0
 26 71  1  0
 26 72  1  0
 28 73  1  0
 28 74  1  0
 28 75  1  0
 29 76  1  0
 29 77  1  0
 30 78  1  0
 30 79  1  0
 32 80  1  0
 32 81  1  0
 32 82  1  0
M  END
>  <meeko>  (9) 
{"is_sidechain": [false], "intermolecular_energy": 2.731, "internal_energy": -0.839}

$$$$
EPH_relaxed_0001_pdb2pqr_Repair_73_r2_0001_out
     RDKit          3D

 82 86  0  0  0  0  0  0  0  0999 V2000
    2.8610   18.0590   -3.9380 C   0  0  0  0  0  0  0  0  0  0  0  0
    1.9740   17.9700   -2.6940 C   0  0  2  0  0  0  0  0  0  0  0  0
    2.2220   19.1380   -1.7190 C   0  0  0  0  0  0  0  0  0  0  0  0
    1.0170   20.0680   -1.5530 C   0  0  0  0  0  0  0  0  0  0  0  0
   -0.1670   19.3450   -0.9860 C   0  0  2  0  0  0  0  0  0  0  0  0
   -1.1610   20.1940   -0.3970 O   0  0  0  0  0  0  0  0  0  0  0  0
   -0.4850   19.2950    0.4970 C   0  0  0  0  0  0  0  0  0  0  0  0
    0.3850   19.9780    1.5050 C   0  0  0  0  0  0  0  0  0  0  0  0
   -1.3520   18.1860    1.0060 C   0  0  0  0  0  0  0  0  0  0  0  0
    2.2050   16.6410   -1.9850 C   0  0  1  0  0  0  0  0  0  0  0  0
    2.7110   16.8210   -0.5290 C   0  0  0  0  0  0  0  0  0  0  0  0
    2.0920   15.6700    0.3050 C   0  0  0  0  0  0  0  0  0  0  0  0
    1.5280   14.6850   -0.7460 C   0  0  1  0  0  0  0  0  0  0  0  0
    2.7610   13.8510   -1.2160 C   0  0  0  0  0  0  0  0  0  0  0  0
    0.3550   13.7660   -0.2740 C   0  0  2  0  0  0  0  0  0  0  0  0
    0.7050   12.7970    0.8690 C   0  0  0  0  0  0  0  0  0  0  0  0
    1.2080   11.4590    0.4390 C   0  0  0  0  0  0  0  0  0  0  0  0
    1.1050   10.9470   -0.8020 C   0  0  0  0  0  0  0  0  0  0  0  0
    0.3430   11.6960   -1.9030 C   0  0  1  0  0  0  0  0  0  0  0  0
   -0.5960   10.7100   -2.6450 C   0  0  0  0  0  0  0  0  0  0  0  0
    0.1420    9.4850   -3.1760 C   0  0  0  0  0  0  0  0  0  0  0  0
    0.8390    8.7340   -2.0440 C   0  0  2  0  0  0  0  0  0  0  0  0
   -0.1570    8.1770   -1.1800 O   0  0  0  0  0  0  0  0  0  0  0  0
    1.8050    9.6290   -1.2180 C   0  0  0  0  0  0  0  0  0  0  0  0
    3.0440    9.9870   -2.0760 C   0  0  0  0  0  0  0  0  0  0  0  0
    2.3320    8.7880   -0.0240 C   0  0  0  0  0  0  0  0  0  0  0  0
   -0.4010   13.0240   -1.4490 C   0  0  1  0  0  0  0  0  0  0  0  0
   -1.8250   12.6800   -0.9150 C   0  0  0  0  0  0  0  0  0  0  0  0
   -0.6100   13.9510   -2.7050 C   0  0  0  0  0  0  0  0  0  0  0  0
    0.5360   14.9220   -3.0500 C   0  0  0  0  0  0  0  0  0  0  0  0
    0.9830   15.7050   -1.8120 C   0  0  2  0  0  0  0  0  0  0  0  0
   -0.2310   16.5710   -1.3300 C   0  0  0  0  0  0  0  0  0  0  0  0
    3.9123   18.1645   -3.6319 H   0  0  0  0  0  0  0  0  0  0  0  0
    2.7438   17.1446   -4.5381 H   0  0  0  0  0  0  0  0  0  0  0  0
    2.5645   18.9319   -4.5381 H   0  0  0  0  0  0  0  0  0  0  0  0
    0.9280   18.0360   -3.0281 H   0  0  0  0  0  0  0  0  0  0  0  0
    2.4762   18.7199   -0.7338 H   0  0  0  0  0  0  0  0  0  0  0  0
    3.0382   19.7420   -2.1421 H   0  0  0  0  0  0  0  0  0  0  0  0
    1.2914   20.8895   -0.8749 H   0  0  0  0  0  0  0  0  0  0  0  0
    0.7409   20.4523   -2.5460 H   0  0  0  0  0  0  0  0  0  0  0  0
   -0.0817   18.5576   -1.7493 H   0  0  0  0  0  0  0  0  0  0  0  0
    0.0487   19.7140    2.5185 H   0  0  0  0  0  0  0  0  0  0  0  0
    1.4275   19.6546    1.3687 H   0  0  0  0  0  0  0  0  0  0  0  0
    0.3183   21.0675    1.3687 H   0  0  0  0  0  0  0  0  0  0  0  0
   -1.3472   18.1922    2.1060 H   0  0  0  0  0  0  0  0  0  0  0  0
   -2.3806   18.3286    0.6430 H   0  0  0  0  0  0  0  0  0  0  0  0
   -0.9654   17.2223    0.6430 H   0  0  0  0  0  0  0  0  0  0  0  0
    2.9310   16.1875   -2.6758 H   0  0  0  0  0  0  0  0  0  0  0  0
    3.8090   16.7621   -0.4995 H   0  0  0  0  0  0  0  0  0  0  0  0
    2.4175   17.8020   -0.1272 H   0  0  0  0  0  0  0  0  0  0  0  0
    2.8602   15.1812    0.9222 H   0  0  0  0  0  0  0  0  0  0  0  0
    1.3171   16.0280    0.9988 H   0  0  0  0  0  0  0  0  0  0  0  0
    3.3093   13.4802   -0.3374 H   0  0  0  0  0  0  0  0  0  0  0  0
    2.4181   12.9986   -1.8209 H   0  0  0  0  0  0  0  0  0  0  0  0
    3.4245   14.4865   -1.8209 H   0  0  0  0  0  0  0  0  0  0  0  0
   -0.3538   14.4901    0.1540 H   0  0  0  0  0  0  0  0  0  0  0  0
    1.4816   13.2689    1.4889 H   0  0  0  0  0  0  0  0  0  0  0  0
   -0.2355   12.6098    1.4079 H   0  0  0  0  0  0  0  0  0  0  0  0
    1.7046   10.8391    1.2000 H   0  0  0  0  0  0  0  0  0  0  0  0
    1.1065   12.0770   -2.5972 H   0  0  0  0  0  0  0  0  0  0  0  0
   -1.3779   10.3754   -1.9474 H   0  0  0  0  0  0  0  0  0  0  0  0
   -1.0232   11.2419   -3.5079 H   0  0  0  0  0  0  0  0  0  0  0  0
   -0.5800    8.8129   -3.6628 H   0  0  0  0  0  0  0  0  0  0  0  0
    0.9032    9.8190   -3.8964 H   0  0  0  0  0  0  0  0  0  0  0  0
    1.4556    7.9460   -2.5011 H   0  0  0  0  0  0  0  0  0  0  0  0
   -1.0220    8.3150   -1.6000 H   0  0  0  0  0  0  0  0  0  0  0  0
    3.8891   10.2312   -1.4156 H   0  0  0  0  0  0  0  0  0  0  0  0
    3.3107    9.1292   -2.7108 H   0  0  0  0  0  0  0  0  0  0  0  0
    2.8120   10.8549   -2.7108 H   0  0  0  0  0  0  0  0  0  0  0  0
    2.0330    9.2652    0.9209 H   0  0  0  0  0  0  0  0  0  0  0  0
    1.9071    7.7746   -0.0735 H   0  0  0  0  0  0  0  0  0  0  0  0
    3.4293    8.7284   -0.0735 H   0  0  0  0  0  0  0  0  0  0  0  0
   -1.8146   12.6825    0.1849 H   0  0  0  0  0  0  0  0  0  0  0  0
   -2.5434   13.4304   -1.2766 H   0  0  0  0  0  0  0  0  0  0  0  0
   -2.1216   11.6844   -1.2766 H   0  0  0  0  0  0  0  0  0  0  0  0
   -0.7680   13.2994   -3.5770 H   0  0  0  0  0  0  0  0  0  0  0  0
   -1.4651   14.5940   -2.4493 H   0  0  0  0  0  0  0  0  0  0  0  0
    1.3892   14.3475   -3.4398 H   0  0  0  0  0  0  0  0  0  0  0  0
    0.1752   15.6360   -3.8050 H   0  0  0  0  0  0  0  0  0  0  0  0
   -0.2554   16.5884   -0.2304 H   0  0  0  0  0  0  0  0  0  0  0  0
   -0.1233   17.5974   -1.7106 H   0  0  0  0  0  0  0  0  0  0  0  0
   -1.1664   16.1351   -1.7106 H   0  0  0  0  0  0  0  0  0  0  0  0
  1  2  1  0
  2  3  1  0
  3  4  1  0
  4  5  1  0
  5  6  1  0
  6  7  1  0
  7  8  1  0
  7  9  1  0
  2 10  1  0
 10 11  1  0
 11 12  1  0
 12 13  1  0
 13 14  1  6
 13 15  1  0
 15 16  1  0
 16 17  1  0
 17 18  2  0
 18 19  1  0
 19 20  1  0
 20 21  1  0
 21 22  1  0
 22 23  1  0
 22 24  1  0
 24 25  1  0
 24 26  1  0
 19 27  1  0
 27 28  1  1
 27 29  1  0
 29 30  1  0
 30 31  1  0
 31 32  1  1
  7  5  1  0
 31 10  1  0
 31 13  1  0
 27 15  1  0
 24 18  1  0
  1 33  1  0
  1 34  1  0
  1 35  1  0
  2 36  1  6
  3 37  1  0
  3 38  1  0
  4 39  1  0
  4 40  1  0
  5 41  1  6
  8 42  1  0
  8 43  1  0
  8 44  1  0
  9 45  1  0
  9 46  1  0
  9 47  1  0
 10 48  1  6
 11 49  1  0
 11 50  1  0
 12 51  1  0
 12 52  1  0
 14 53  1  0
 14 54  1  0
 14 55  1  0
 15 56  1  1
 16 57  1  0
 16 58  1  0
 17 59  1  0
 19 60  1  6
 20 61  1  0
 20 62  1  0
 21 63  1  0
 21 64  1  0
 22 65  1  6
 23 66  1  0
 25 67  1  0
 25 68  1  0
 25 69  1  0
 26 70  1  0
 26 71  1  0
 26 72  1  0
 28 73  1  0
 28 74  1  0
 28 75  1  0
 29 76  1  0
 29 77  1  0
 30 78  1  0
 30 79  1  0
 32 80  1  0
 32 81  1  0
 32 82  1  0
M  END
>  <meeko>  (10) 
{"is_sidechain": [false], "intermolecular_energy": 2.731, "internal_energy": -0.839}

$$$$
EPH_relaxed_0001_pdb2pqr_Repair_73_r2_0001_out
     RDKit          3D

 82 86  0  0  0  0  0  0  0  0999 V2000
   -3.7310    7.1880   -3.4190 C   0  0  0  0  0  0  0  0  0  0  0  0
   -3.7730    7.2690   -1.8910 C   0  0  2  0  0  0  0  0  0  0  0  0
   -5.1970    7.0570   -1.3370 C   0  0  0  0  0  0  0  0  0  0  0  0
   -6.3030    7.3770   -2.3460 C   0  0  0  0  0  0  0  0  0  0  0  0
   -7.6330    7.5460   -1.6750 C   0  0  2  0  0  0  0  0  0  0  0  0
   -8.1680    6.3480   -1.0980 O   0  0  0  0  0  0  0  0  0  0  0  0
   -8.9140    6.9150   -2.1870 C   0  0  0  0  0  0  0  0  0  0  0  0
   -8.9280    6.0680   -3.4210 C   0  0  0  0  0  0  0  0  0  0  0  0
  -10.2220    7.5150   -1.7740 C   0  0  0  0  0  0  0  0  0  0  0  0
   -3.2290    8.6150   -1.4270 C   0  0  1  0  0  0  0  0  0  0  0  0
   -3.8460    9.0770   -0.0800 C   0  0  0  0  0  0  0  0  0  0  0  0
   -2.7300    9.8300    0.6890 C   0  0  0  0  0  0  0  0  0  0  0  0
   -1.6220   10.0650   -0.3640 C   0  0  1  0  0  0  0  0  0  0  0  0
   -2.0900   11.3200   -1.1650 C   0  0  0  0  0  0  0  0  0  0  0  0
   -0.1700   10.2420    0.1890 C   0  0  2  0  0  0  0  0  0  0  0  0
    0.0360   11.4630    1.1020 C   0  0  0  0  0  0  0  0  0  0  0  0
    0.4490   12.7180    0.4060 C   0  0  0  0  0  0  0  0  0  0  0  0
    0.9220   12.7950   -0.8520 C   0  0  0  0  0  0  0  0  0  0  0  0
    1.1740   11.5270   -1.6770 C   0  0  1  0  0  0  0  0  0  0  0  0
    2.5650   11.6200   -2.3590 C   0  0  0  0  0  0  0  0  0  0  0  0
    2.7280   12.8940   -3.1820 C   0  0  0  0  0  0  0  0  0  0  0  0
    2.5280   14.1340   -2.3140 C   0  0  2  0  0  0  0  0  0  0  0  0
    3.5950   14.2090   -1.3640 O   0  0  0  0  0  0  0  0  0  0  0  0
    1.1640   14.1460   -1.5690 C   0  0  0  0  0  0  0  0  0  0  0  0
    0.0170   14.3680   -2.5860 C   0  0  0  0  0  0  0  0  0  0  0  0
    1.1480   15.3760   -0.6210 C   0  0  0  0  0  0  0  0  0  0  0  0
    0.9600   10.1490   -0.9150 C   0  0  1  0  0  0  0  0  0  0  0  0
    2.2710    9.7400   -0.1760 C   0  0  0  0  0  0  0  0  0  0  0  0
    0.6730    9.0160   -1.9700 C   0  0  0  0  0  0  0  0  0  0  0  0
   -0.7960    8.8110   -2.3870 C   0  0  0  0  0  0  0  0  0  0  0  0
   -1.7060    8.7110   -1.1580 C   0  0  2  0  0  0  0  0  0  0  0  0
   -1.2730    7.4450   -0.3440 C   0  0  0  0  0  0  0  0  0  0  0  0
   -3.2444    6.2496   -3.7232 H   0  0  0  0  0  0  0  0  0  0  0  0
   -4.7565    7.2147   -3.8159 H   0  0  0  0  0  0  0  0  0  0  0  0
   -3.1619    8.0416   -3.8159 H   0  0  0  0  0  0  0  0  0  0  0  0
   -3.1420    6.4576   -1.4991 H   0  0  0  0  0  0  0  0  0  0  0  0
   -5.2983    6.0048   -1.0325 H   0  0  0  0  0  0  0  0  0  0  0  0
   -5.3206    7.7515   -0.4930 H   0  0  0  0  0  0  0  0  0  0  0  0
   -6.0476    8.3091   -2.8713 H   0  0  0  0  0  0  0  0  0  0  0  0
   -6.3786    6.5357   -3.0506 H   0  0  0  0  0  0  0  0  0  0  0  0
   -7.3831    8.5775   -1.3859 H   0  0  0  0  0  0  0  0  0  0  0  0
   -8.9456    5.0056   -3.1363 H   0  0  0  0  0  0  0  0  0  0  0  0
   -9.8224    6.3028   -4.0168 H   0  0  0  0  0  0  0  0  0  0  0  0
   -8.0263    6.2731   -4.0168 H   0  0  0  0  0  0  0  0  0  0  0  0
  -10.2823    7.5427   -0.6760 H   0  0  0  0  0  0  0  0  0  0  0  0
  -10.2979    8.5379   -2.1713 H   0  0  0  0  0  0  0  0  0  0  0  0
  -11.0468    6.9052   -2.1713 H   0  0  0  0  0  0  0  0  0  0  0  0
   -3.4984    9.2325   -2.2965 H   0  0  0  0  0  0  0  0  0  0  0  0
   -4.6980    9.7480   -0.2641 H   0  0  0  0  0  0  0  0  0  0  0  0
   -4.2149    8.2184    0.5003 H   0  0  0  0  0  0  0  0  0  0  0  0
   -3.1051   10.7879    1.0786 H   0  0  0  0  0  0  0  0  0  0  0  0
   -2.3662    9.2625    1.5583 H   0  0  0  0  0  0  0  0  0  0  0  0
   -2.3859   12.1136   -0.4631 H   0  0  0  0  0  0  0  0  0  0  0  0
   -1.2654   11.6793   -1.7982 H   0  0  0  0  0  0  0  0  0  0  0  0
   -2.9485   11.0517   -1.7982 H   0  0  0  0  0  0  0  0  0  0  0  0
   -0.0558    9.3610    0.8377 H   0  0  0  0  0  0  0  0  0  0  0  0
   -0.9116   11.6603    1.6245 H   0  0  0  0  0  0  0  0  0  0  0  0
    0.8651   11.2022    1.7762 H   0  0  0  0  0  0  0  0  0  0  0  0
    0.3591   13.6589    0.9687 H   0  0  0  0  0  0  0  0  0  0  0  0
    0.3838   11.5011   -2.4417 H   0  0  0  0  0  0  0  0  0  0  0  0
    3.3417   11.6013   -1.5803 H   0  0  0  0  0  0  0  0  0  0  0  0
    2.6590   10.7649   -3.0445 H   0  0  0  0  0  0  0  0  0  0  0  0
    3.7393   12.9164   -3.6141 H   0  0  0  0  0  0  0  0  0  0  0  0
    1.9692   12.8969   -3.9783 H   0  0  0  0  0  0  0  0  0  0  0  0
    2.5289   15.0079   -2.9820 H   0  0  0  0  0  0  0  0  0  0  0  0
    4.3860   13.8260   -1.7800 H   0  0  0  0  0  0  0  0  0  0  0  0
   -0.9230   14.5499   -2.0445 H   0  0  0  0  0  0  0  0  0  0  0  0
    0.2504   15.2376   -3.2179 H   0  0  0  0  0  0  0  0  0  0  0  0
   -0.0909   13.4741   -3.2179 H   0  0  0  0  0  0  0  0  0  0  0  0
    1.1525   15.0334    0.4243 H   0  0  0  0  0  0  0  0  0  0  0  0
    2.0382   15.9946   -0.8079 H   0  0  0  0  0  0  0  0  0  0  0  0
    0.2420   15.9712   -0.8079 H   0  0  0  0  0  0  0  0  0  0  0  0
    2.1101    9.7902    0.9110 H   0  0  0  0  0  0  0  0  0  0  0  0
    2.5463    8.7133   -0.4589 H   0  0  0  0  0  0  0  0  0  0  0  0
    3.0813   10.4280   -0.4589 H   0  0  0  0  0  0  0  0  0  0  0  0
    1.2466    9.2537   -2.8780 H   0  0  0  0  0  0  0  0  0  0  0  0
    0.9645    8.0791   -1.4727 H   0  0  0  0  0  0  0  0  0  0  0  0
   -1.1171    9.6630   -3.0042 H   0  0  0  0  0  0  0  0  0  0  0  0
   -0.8714    7.8730   -2.9566 H   0  0  0  0  0  0  0  0  0  0  0  0
   -1.3461    7.6586    0.7326 H   0  0  0  0  0  0  0  0  0  0  0  0
   -1.9342    6.6029   -0.5964 H   0  0  0  0  0  0  0  0  0  0  0  0
   -0.2346    7.1843   -0.5964 H   0  0  0  0  0  0  0  0  0  0  0  0
  1  2  1  0
  2  3  1  0
  3  4  1  0
  4  5  1  0
  5  6  1  0
  6  7  1  0
  7  8  1  0
  7  9  1  0
  2 10  1  0
 10 11  1  0
 11 12  1  0
 12 13  1  0
 13 14  1  6
 13 15  1  0
 15 16  1  0
 16 17  1  0
 17 18  2  0
 18 19  1  0
 19 20  1  0
 20 21  1  0
 21 22  1  0
 22 23  1  0
 22 24  1  0
 24 25  1  0
 24 26  1  0
 19 27  1  0
 27 28  1  1
 27 29  1  0
 29 30  1  0
 30 31  1  0
 31 32  1  1
  7  5  1  0
 31 10  1  0
 31 13  1  0
 27 15  1  0
 24 18  1  0
  1 33  1  0
  1 34  1  0
  1 35  1  0
  2 36  1  1
  3 37  1  0
  3 38  1  0
  4 39  1  0
  4 40  1  0
  5 41  1  1
  8 42  1  0
  8 43  1  0
  8 44  1  0
  9 45  1  0
  9 46  1  0
  9 47  1  0
 10 48  1  6
 11 49  1  0
 11 50  1  0
 12 51  1  0
 12 52  1  0
 14 53  1  0
 14 54  1  0
 14 55  1  0
 15 56  1  1
 16 57  1  0
 16 58  1  0
 17 59  1  0
 19 60  1  6
 20 61  1  0
 20 62  1  0
 21 63  1  0
 21 64  1  0
 22 65  1  6
 23 66  1  0
 25 67  1  0
 25 68  1  0
 25 69  1  0
 26 70  1  0
 26 71  1  0
 26 72  1  0
 28 73  1  0
 28 74  1  0
 28 75  1  0
 29 76  1  0
 29 77  1  0
 30 78  1  0
 30 79  1  0
 32 80  1  0
 32 81  1  0
 32 82  1  0
M  END
>  <meeko>  (11) 
{"is_sidechain": [false], "intermolecular_energy": 2.731, "internal_energy": -0.839}

$$$$
EPH_relaxed_0001_pdb2pqr_Repair_73_r2_0001_out
     RDKit          3D

 82 86  0  0  0  0  0  0  0  0999 V2000
   -0.8540   16.3460   -5.8330 C   0  0  0  0  0  0  0  0  0  0  0  0
    0.2330   15.6430   -6.6500 C   0  0  2  0  0  0  0  0  0  0  0  0
   -0.1730   15.4670   -8.1270 C   0  0  0  0  0  0  0  0  0  0  0  0
    0.4630   16.4960   -9.0660 C   0  0  0  0  0  0  0  0  0  0  0  0
    1.8610   16.1120   -9.4440 C   0  0  2  0  0  0  0  0  0  0  0  0
    2.3240   16.6760  -10.6780 O   0  0  0  0  0  0  0  0  0  0  0  0
    2.1960   15.2450  -10.6430 C   0  0  0  0  0  0  0  0  0  0  0  0
    1.1260   14.7080  -11.5410 C   0  0  0  0  0  0  0  0  0  0  0  0
    3.5070   14.5220  -10.6600 C   0  0  0  0  0  0  0  0  0  0  0  0
    0.5510   14.2860   -6.0320 C   0  0  1  0  0  0  0  0  0  0  0  0
    1.8160   13.6300   -6.6490 C   0  0  0  0  0  0  0  0  0  0  0  0
    2.5230   12.8590   -5.5060 C   0  0  0  0  0  0  0  0  0  0  0  0
    1.4830   12.8170   -4.3620 C   0  0  1  0  0  0  0  0  0  0  0  0
    0.5260   11.6420   -4.7320 C   0  0  0  0  0  0  0  0  0  0  0  0
    2.0540   12.6630   -2.9140 C   0  0  2  0  0  0  0  0  0  0  0  0
    2.8230   11.3560   -2.6520 C   0  0  0  0  0  0  0  0  0  0  0  0
    1.9960   10.2200   -2.1460 C   0  0  0  0  0  0  0  0  0  0  0  0
    0.7520   10.3220   -1.6410 C   0  0  0  0  0  0  0  0  0  0  0  0
    0.0900   11.6930   -1.4510 C   0  0  1  0  0  0  0  0  0  0  0  0
   -0.5570   11.7640   -0.0430 C   0  0  0  0  0  0  0  0  0  0  0  0
   -1.5190   10.6090    0.2190 C   0  0  0  0  0  0  0  0  0  0  0  0
   -0.8090    9.2650    0.0770 C   0  0  2  0  0  0  0  0  0  0  0  0
    0.1560    9.1410    1.1260 O   0  0  0  0  0  0  0  0  0  0  0  0
   -0.1110    9.0830   -1.3000 C   0  0  0  0  0  0  0  0  0  0  0  0
   -1.1810    8.9150   -2.4070 C   0  0  0  0  0  0  0  0  0  0  0  0
    0.6840    7.7500   -1.2590 C   0  0  0  0  0  0  0  0  0  0  0  0
    1.0020   12.9540   -1.7680 C   0  0  1  0  0  0  0  0  0  0  0  0
    1.8220   13.3500   -0.5020 C   0  0  0  0  0  0  0  0  0  0  0  0
    0.0800   14.1860   -2.1020 C   0  0  0  0  0  0  0  0  0  0  0  0
   -0.3530   14.3510   -3.5720 C   0  0  0  0  0  0  0  0  0  0  0  0
    0.8510   14.2490   -4.5130 C   0  0  2  0  0  0  0  0  0  0  0  0
    1.8220   15.4330   -4.1780 C   0  0  0  0  0  0  0  0  0  0  0  0
   -0.6496   16.2138   -4.7603 H   0  0  0  0  0  0  0  0  0  0  0  0
   -0.8590   17.4189   -6.0758 H   0  0  0  0  0  0  0  0  0  0  0  0
   -1.8345   15.9105   -6.0758 H   0  0  0  0  0  0  0  0  0  0  0  0
    1.1287   16.2812   -6.6279 H   0  0  0  0  0  0  0  0  0  0  0  0
    0.1329   14.4623   -8.4541 H   0  0  0  0  0  0  0  0  0  0  0  0
   -1.2621   15.6119   -8.1809 H   0  0  0  0  0  0  0  0  0  0  0  0
   -0.1458   16.5694   -9.9792 H   0  0  0  0  0  0  0  0  0  0  0  0
    0.5030   17.4613   -8.5401 H   0  0  0  0  0  0  0  0  0  0  0  0
    2.1555   16.0528   -8.3858 H   0  0  0  0  0  0  0  0  0  0  0  0
    0.3077   14.2973  -10.9314 H   0  0  0  0  0  0  0  0  0  0  0  0
    0.7391   15.5187  -12.1758 H   0  0  0  0  0  0  0  0  0  0  0  0
    1.5448   13.9133  -12.1758 H   0  0  0  0  0  0  0  0  0  0  0  0
    3.8384   14.3393   -9.6271 H   0  0  0  0  0  0  0  0  0  0  0  0
    3.3892   13.5613  -11.1827 H   0  0  0  0  0  0  0  0  0  0  0  0
    4.2566   15.1343  -11.1827 H   0  0  0  0  0  0  0  0  0  0  0  0
   -0.3932   13.7622   -6.2422 H   0  0  0  0  0  0  0  0  0  0  0  0
    1.5290   12.9362   -7.4529 H   0  0  0  0  0  0  0  0  0  0  0  0
    2.4823   14.3895   -7.0839 H   0  0  0  0  0  0  0  0  0  0  0  0
    2.7862   11.8410   -5.8291 H   0  0  0  0  0  0  0  0  0  0  0  0
    3.4630   13.3399   -5.1977 H   0  0  0  0  0  0  0  0  0  0  0  0
    0.1457   11.1751   -3.8115 H   0  0  0  0  0  0  0  0  0  0  0  0
   -0.3177   12.0284   -5.3227 H   0  0  0  0  0  0  0  0  0  0  0  0
    1.0751   10.8940   -5.3227 H   0  0  0  0  0  0  0  0  0  0  0  0
    2.8046   13.4659   -2.8695 H   0  0  0  0  0  0  0  0  0  0  0  0
    3.2908   11.0416   -3.5966 H   0  0  0  0  0  0  0  0  0  0  0  0
    3.5474   11.5834   -1.8561 H   0  0  0  0  0  0  0  0  0  0  0  0
    2.4408    9.2149   -2.1896 H   0  0  0  0  0  0  0  0  0  0  0  0
   -0.6890   11.7642   -2.2243 H   0  0  0  0  0  0  0  0  0  0  0  0
    0.2412   11.7363    0.7134 H   0  0  0  0  0  0  0  0  0  0  0  0
   -1.1351   12.6983    0.0116 H   0  0  0  0  0  0  0  0  0  0  0  0
   -1.9196   10.6985    1.2395 H   0  0  0  0  0  0  0  0  0  0  0  0
   -2.3332   10.6558   -0.5191 H   0  0  0  0  0  0  0  0  0  0  0  0
   -1.5746    8.4782    0.1463 H   0  0  0  0  0  0  0  0  0  0  0  0
   -0.2430    8.6030    1.8310 H   0  0  0  0  0  0  0  0  0  0  0  0
   -2.1666    8.7602   -1.9438 H   0  0  0  0  0  0  0  0  0  0  0  0
   -1.2075    9.8200   -3.0317 H   0  0  0  0  0  0  0  0  0  0  0  0
   -0.9289    8.0454   -3.0317 H   0  0  0  0  0  0  0  0  0  0  0  0
    0.8577    7.4587   -0.2126 H   0  0  0  0  0  0  0  0  0  0  0  0
    0.1074    6.9634   -1.7677 H   0  0  0  0  0  0  0  0  0  0  0  0
    1.6501    7.8835   -1.7677 H   0  0  0  0  0  0  0  0  0  0  0  0
    1.2567   13.0770    0.4012 H   0  0  0  0  0  0  0  0  0  0  0  0
    2.7845   12.8174   -0.5071 H   0  0  0  0  0  0  0  0  0  0  0  0
    2.0033   14.4349   -0.5071 H   0  0  0  0  0  0  0  0  0  0  0  0
   -0.8324   14.0933   -1.4946 H   0  0  0  0  0  0  0  0  0  0  0  0
    0.6925   15.0725   -1.8809 H   0  0  0  0  0  0  0  0  0  0  0  0
   -1.0754   13.5611   -3.8251 H   0  0  0  0  0  0  0  0  0  0  0  0
   -0.8100   15.3442   -3.6936 H   0  0  0  0  0  0  0  0  0  0  0  0
    1.9086   15.5386   -3.0865 H   0  0  0  0  0  0  0  0  0  0  0  0
    2.8139   15.2261   -4.6062 H   0  0  0  0  0  0  0  0  0  0  0  0
    1.4249   16.3652   -4.6062 H   0  0  0  0  0  0  0  0  0  0  0  0
  1  2  1  0
  2  3  1  0
  3  4  1  0
  4  5  1  0
  5  6  1  0
  6  7  1  0
  7  8  1  0
  7  9  1  0
  2 10  1  0
 10 11  1  0
 11 12  1  0
 12 13  1  0
 13 14  1  6
 13 15  1  0
 15 16  1  0
 16 17  1  0
 17 18  2  0
 18 19  1  0
 19 20  1  0
 20 21  1  0
 21 22  1  0
 22 23  1  0
 22 24  1  0
 24 25  1  0
 24 26  1  0
 19 27  1  0
 27 28  1  1
 27 29  1  0
 29 30  1  0
 30 31  1  0
 31 32  1  1
  7  5  1  0
 31 10  1  0
 31 13  1  0
 27 15  1  0
 24 18  1  0
  1 33  1  0
  1 34  1  0
  1 35  1  0
  2 36  1  6
  3 37  1  0
  3 38  1  0
  4 39  1  0
  4 40  1  0
  5 41  1  1
  8 42  1  0
  8 43  1  0
  8 44  1  0
  9 45  1  0
  9 46  1  0
  9 47  1  0
 10 48  1  1
 11 49  1  0
 11 50  1  0
 12 51  1  0
 12 52  1  0
 14 53  1  0
 14 54  1  0
 14 55  1  0
 15 56  1  6
 16 57  1  0
 16 58  1  0
 17 59  1  0
 19 60  1  6
 20 61  1  0
 20 62  1  0
 21 63  1  0
 21 64  1  0
 22 65  1  1
 23 66  1  0
 25 67  1  0
 25 68  1  0
 25 69  1  0
 26 70  1  0
 26 71  1  0
 26 72  1  0
 28 73  1  0
 28 74  1  0
 28 75  1  0
 29 76  1  0
 29 77  1  0
 30 78  1  0
 30 79  1  0
 32 80  1  0
 32 81  1  0
 32 82  1  0
M  END
>  <meeko>  (12) 
{"is_sidechain": [false], "intermolecular_energy": 2.731, "internal_energy": -0.839}

$$$$
EPH_relaxed_0001_pdb2pqr_Repair_73_r2_0001_out
     RDKit          3D

 82 86  0  0  0  0  0  0  0  0999 V2000
    0.1400    9.2650   -2.1390 C   0  0  0  0  0  0  0  0  0  0  0  0
    1.1270   10.3010   -2.6830 C   0  0  2  0  0  0  0  0  0  0  0  0
    2.5450    9.7190   -2.8530 C   0  0  0  0  0  0  0  0  0  0  0  0
    3.4210   10.5080   -3.8300 C   0  0  0  0  0  0  0  0  0  0  0  0
    4.8120   10.6910   -3.3030 C   0  0  2  0  0  0  0  0  0  0  0  0
    5.4360   11.9260   -3.6790 O   0  0  0  0  0  0  0  0  0  0  0  0
    6.0440   10.7280   -4.1890 C   0  0  0  0  0  0  0  0  0  0  0  0
    5.9420   10.5790   -5.6740 C   0  0  0  0  0  0  0  0  0  0  0  0
    7.3750   10.4190   -3.5760 C   0  0  0  0  0  0  0  0  0  0  0  0
    1.1690   11.5140   -1.7610 C   0  0  1  0  0  0  0  0  0  0  0  0
    2.2590   11.3930   -0.6640 C   0  0  0  0  0  0  0  0  0  0  0  0
    2.8110   12.8220   -0.4220 C   0  0  0  0  0  0  0  0  0  0  0  0
    1.8040   13.7550   -1.1360 C   0  0  1  0  0  0  0  0  0  0  0  0
    0.6190   13.9070   -0.1320 C   0  0  0  0  0  0  0  0  0  0  0  0
    2.3550   15.1440   -1.5940 C   0  0  2  0  0  0  0  0  0  0  0  0
    2.8410   16.0610   -0.4580 C   0  0  0  0  0  0  0  0  0  0  0  0
    1.8070   16.9730    0.1120 C   0  0  0  0  0  0  0  0  0  0  0  0
    0.6200   17.2610   -0.4540 C   0  0  0  0  0  0  0  0  0  0  0  0
    0.2580   16.7190   -1.8430 C   0  0  1  0  0  0  0  0  0  0  0  0
   -0.3360   17.8630   -2.7060 C   0  0  0  0  0  0  0  0  0  0  0  0
   -1.5110   18.5590   -2.0270 C   0  0  0  0  0  0  0  0  0  0  0  0
   -1.0970   19.1340   -0.6750 C   0  0  2  0  0  0  0  0  0  0  0  0
   -0.1610   20.1940   -0.8930 O   0  0  0  0  0  0  0  0  0  0  0  0
   -0.4750   18.0750    0.2780 C   0  0  0  0  0  0  0  0  0  0  0  0
   -1.5750   17.0940    0.7530 C   0  0  0  0  0  0  0  0  0  0  0  0
    0.0280   18.8120    1.5480 C   0  0  0  0  0  0  0  0  0  0  0  0
    1.4060   15.9190   -2.5960 C   0  0  1  0  0  0  0  0  0  0  0  0
    2.3120   16.9100   -3.3900 C   0  0  0  0  0  0  0  0  0  0  0  0
    0.7530   14.9630   -3.6620 C   0  0  0  0  0  0  0  0  0  0  0  0
    0.3390   13.5600   -3.1760 C   0  0  0  0  0  0  0  0  0  0  0  0
    1.4800   12.8880   -2.4060 C   0  0  2  0  0  0  0  0  0  0  0  0
    2.6800   12.7010   -3.3970 C   0  0  0  0  0  0  0  0  0  0  0  0
    0.1578    9.2837   -1.0393 H   0  0  0  0  0  0  0  0  0  0  0  0
   -0.8738    9.5030   -2.4934 H   0  0  0  0  0  0  0  0  0  0  0  0
    0.4268    8.2639   -2.4934 H   0  0  0  0  0  0  0  0  0  0  0  0
    0.7727   10.6038   -3.6794 H   0  0  0  0  0  0  0  0  0  0  0  0
    3.0386    9.7142   -1.8700 H   0  0  0  0  0  0  0  0  0  0  0  0
    2.4296    8.7075   -3.2695 H   0  0  0  0  0  0  0  0  0  0  0  0
    3.4701    9.9635   -4.7845 H   0  0  0  0  0  0  0  0  0  0  0  0
    2.9722   11.5029   -3.9666 H   0  0  0  0  0  0  0  0  0  0  0  0
    4.5712   10.1140   -2.3980 H   0  0  0  0  0  0  0  0  0  0  0  0
    5.3354    9.6930   -5.9128 H   0  0  0  0  0  0  0  0  0  0  0  0
    5.4667   11.4746   -6.1006 H   0  0  0  0  0  0  0  0  0  0  0  0
    6.9489   10.4599   -6.1006 H   0  0  0  0  0  0  0  0  0  0  0  0
    7.2874   10.4393   -2.4797 H   0  0  0  0  0  0  0  0  0  0  0  0
    7.7045    9.4205   -3.8990 H   0  0  0  0  0  0  0  0  0  0  0  0
    8.1107   11.1702   -3.8990 H   0  0  0  0  0  0  0  0  0  0  0  0
    0.1336   11.4987   -1.3898 H   0  0  0  0  0  0  0  0  0  0  0  0
    1.8210   10.9942    0.2628 H   0  0  0  0  0  0  0  0  0  0  0  0
    3.0605   10.7079   -0.9775 H   0  0  0  0  0  0  0  0  0  0  0  0
    2.8518   13.0455    0.6543 H   0  0  0  0  0  0  0  0  0  0  0  0
    3.8355   12.9438   -0.8034 H   0  0  0  0  0  0  0  0  0  0  0  0
    1.0024   13.8578    0.8979 H   0  0  0  0  0  0  0  0  0  0  0  0
    0.1239   14.8760   -0.2931 H   0  0  0  0  0  0  0  0  0  0  0  0
   -0.1046   13.0943   -0.2931 H   0  0  0  0  0  0  0  0  0  0  0  0
    3.2569   14.8649   -2.1585 H   0  0  0  0  0  0  0  0  0  0  0  0
    3.2176   15.4237    0.3556 H   0  0  0  0  0  0  0  0  0  0  0  0
    3.6098   16.7116   -0.9002 H   0  0  0  0  0  0  0  0  0  0  0  0
    2.0338   17.4506    1.0766 H   0  0  0  0  0  0  0  0  0  0  0  0
   -0.5032   15.9423   -1.6778 H   0  0  0  0  0  0  0  0  0  0  0  0
    0.4520   18.6065   -2.8963 H   0  0  0  0  0  0  0  0  0  0  0  0
   -0.7070   17.4175   -3.6408 H   0  0  0  0  0  0  0  0  0  0  0  0
   -1.8671   19.3759   -2.6719 H   0  0  0  0  0  0  0  0  0  0  0  0
   -2.3103   17.8209   -1.8648 H   0  0  0  0  0  0  0  0  0  0  0  0
   -2.0078   19.5028   -0.1806 H   0  0  0  0  0  0  0  0  0  0  0  0
    0.0010   20.2520   -1.8500 H   0  0  0  0  0  0  0  0  0  0  0  0
   -1.5980   17.0735    1.8526 H   0  0  0  0  0  0  0  0  0  0  0  0
   -2.5520   17.4262    0.3719 H   0  0  0  0  0  0  0  0  0  0  0  0
   -1.3564   16.0855    0.3719 H   0  0  0  0  0  0  0  0  0  0  0  0
   -0.3315   18.2852    2.4442 H   0  0  0  0  0  0  0  0  0  0  0  0
    1.1278   18.8303    1.5499 H   0  0  0  0  0  0  0  0  0  0  0  0
   -0.3558   19.8429    1.5499 H   0  0  0  0  0  0  0  0  0  0  0  0
    2.8811   17.5325   -2.6839 H   0  0  0  0  0  0  0  0  0  0  0  0
    3.0097   16.3421   -4.0230 H   0  0  0  0  0  0  0  0  0  0  0  0
    1.6840   17.5542   -4.0230 H   0  0  0  0  0  0  0  0  0  0  0  0
   -0.1487   15.4611   -4.0477 H   0  0  0  0  0  0  0  0  0  0  0  0
    1.5390   14.7878   -4.4114 H   0  0  0  0  0  0  0  0  0  0  0  0
   -0.5359   13.6515   -2.5156 H   0  0  0  0  0  0  0  0  0  0  0  0
    0.0962   12.9423   -4.0532 H   0  0  0  0  0  0  0  0  0  0  0  0
    3.6085   12.5563   -2.8253 H   0  0  0  0  0  0  0  0  0  0  0  0
    2.4985   11.8203   -4.0306 H   0  0  0  0  0  0  0  0  0  0  0  0
    2.7751   13.5952   -4.0306 H   0  0  0  0  0  0  0  0  0  0  0  0
  1  2  1  0
  2  3  1  0
  3  4  1  0
  4  5  1  0
  5  6  1  0
  6  7  1  0
  7  8  1  0
  7  9  1  0
  2 10  1  0
 10 11  1  0
 11 12  1  0
 12 13  1  0
 13 14  1  1
 13 15  1  0
 15 16  1  0
 16 17  1  0
 17 18  2  0
 18 19  1  0
 19 20  1  0
 20 21  1  0
 21 22  1  0
 22 23  1  0
 22 24  1  0
 24 25  1  0
 24 26  1  0
 19 27  1  0
 27 28  1  6
 27 29  1  0
 29 30  1  0
 30 31  1  0
 31 32  1  6
  7  5  1  0
 31 10  1  0
 31 13  1  0
 27 15  1  0
 24 18  1  0
  1 33  1  0
  1 34  1  0
  1 35  1  0
  2 36  1  6
  3 37  1  0
  3 38  1  0
  4 39  1  0
  4 40  1  0
  5 41  1  1
  8 42  1  0
  8 43  1  0
  8 44  1  0
  9 45  1  0
  9 46  1  0
  9 47  1  0
 10 48  1  1
 11 49  1  0
 11 50  1  0
 12 51  1  0
 12 52  1  0
 14 53  1  0
 14 54  1  0
 14 55  1  0
 15 56  1  6
 16 57  1  0
 16 58  1  0
 17 59  1  0
 19 60  1  1
 20 61  1  0
 20 62  1  0
 21 63  1  0
 21 64  1  0
 22 65  1  1
 23 66  1  0
 25 67  1  0
 25 68  1  0
 25 69  1  0
 26 70  1  0
 26 71  1  0
 26 72  1  0
 28 73  1  0
 28 74  1  0
 28 75  1  0
 29 76  1  0
 29 77  1  0
 30 78  1  0
 30 79  1  0
 32 80  1  0
 32 81  1  0
 32 82  1  0
M  END
>  <meeko>  (13) 
{"is_sidechain": [false], "intermolecular_energy": 2.731, "internal_energy": -0.839}

$$$$
EPH_relaxed_0001_pdb2pqr_Repair_73_r2_0001_out
     RDKit          3D

 82 86  0  0  0  0  0  0  0  0999 V2000
   -1.9240    7.9530   -1.8060 C   0  0  0  0  0  0  0  0  0  0  0  0
   -1.9640    8.6570   -0.4470 C   0  0  2  0  0  0  0  0  0  0  0  0
   -3.3860    8.6890    0.1490 C   0  0  0  0  0  0  0  0  0  0  0  0
   -4.4930    8.7710   -0.9050 C   0  0  0  0  0  0  0  0  0  0  0  0
   -5.2270    7.4710   -1.0410 C   0  0  2  0  0  0  0  0  0  0  0  0
   -5.3920    7.0140   -2.3900 O   0  0  0  0  0  0  0  0  0  0  0  0
   -6.5970    7.3470   -1.6810 C   0  0  0  0  0  0  0  0  0  0  0  0
   -7.3150    8.5410   -2.2270 C   0  0  0  0  0  0  0  0  0  0  0  0
   -7.4420    6.1590   -1.3390 C   0  0  0  0  0  0  0  0  0  0  0  0
   -1.4240   10.0760   -0.5810 C   0  0  1  0  0  0  0  0  0  0  0  0
   -0.8710   10.6340    0.7570 C   0  0  0  0  0  0  0  0  0  0  0  0
    0.3410   11.5330    0.4000 C   0  0  0  0  0  0  0  0  0  0  0  0
    0.2420   11.7310   -1.1310 C   0  0  1  0  0  0  0  0  0  0  0  0
   -0.8160   12.8630   -1.3220 C   0  0  0  0  0  0  0  0  0  0  0  0
    1.5790   12.0580   -1.8730 C   0  0  2  0  0  0  0  0  0  0  0  0
    2.2510   13.3780   -1.4550 C   0  0  0  0  0  0  0  0  0  0  0  0
    1.8450   14.5780   -2.2450 C   0  0  0  0  0  0  0  0  0  0  0  0
    1.1990   14.5550   -3.4260 C   0  0  0  0  0  0  0  0  0  0  0  0
    0.8960   13.2280   -4.1320 C   0  0  1  0  0  0  0  0  0  0  0  0
    1.2760   13.3410   -5.6320 C   0  0  0  0  0  0  0  0  0  0  0  0
    0.6110   14.5310   -6.3160 C   0  0  0  0  0  0  0  0  0  0  0  0
    0.9830   15.8380   -5.6200 C   0  0  2  0  0  0  0  0  0  0  0  0
    2.3800   16.0800   -5.8110 O   0  0  0  0  0  0  0  0  0  0  0  0
    0.6550   15.8380   -4.1010 C   0  0  0  0  0  0  0  0  0  0  0  0
   -0.8810   15.8790   -3.9000 C   0  0  0  0  0  0  0  0  0  0  0  0
    1.2070   17.1550   -3.4930 C   0  0  0  0  0  0  0  0  0  0  0  0
    1.4950   11.9250   -3.4470 C   0  0  1  0  0  0  0  0  0  0  0  0
    2.9510   11.6800   -3.9510 C   0  0  0  0  0  0  0  0  0  0  0  0
    0.6530   10.6730   -3.8980 C   0  0  0  0  0  0  0  0  0  0  0  0
   -0.5890   10.3310   -3.0540 C   0  0  0  0  0  0  0  0  0  0  0  0
   -0.2460   10.2990   -1.5610 C   0  0  2  0  0  0  0  0  0  0  0  0
    0.8000    9.1550   -1.3350 C   0  0  0  0  0  0  0  0  0  0  0  0
   -1.8622    6.8653   -1.6538 H   0  0  0  0  0  0  0  0  0  0  0  0
   -2.8372    8.1930   -2.3703 H   0  0  0  0  0  0  0  0  0  0  0  0
   -1.0438    8.2949   -2.3703 H   0  0  0  0  0  0  0  0  0  0  0  0
   -1.3297    8.0809    0.2428 H   0  0  0  0  0  0  0  0  0  0  0  0
   -3.5358    7.7731    0.7395 H   0  0  0  0  0  0  0  0  0  0  0  0
   -3.4574    9.5997    0.7618 H   0  0  0  0  0  0  0  0  0  0  0  0
   -5.2072    9.5545   -0.6116 H   0  0  0  0  0  0  0  0  0  0  0  0
   -4.0272    9.0046   -1.8738 H   0  0  0  0  0  0  0  0  0  0  0  0
   -4.8273    7.1180   -0.0789 H   0  0  0  0  0  0  0  0  0  0  0  0
   -7.6859    9.1578   -1.3952 H   0  0  0  0  0  0  0  0  0  0  0  0
   -6.6237    9.1343   -2.8436 H   0  0  0  0  0  0  0  0  0  0  0  0
   -8.1631    8.2086   -2.8436 H   0  0  0  0  0  0  0  0  0  0  0  0
   -7.5116    6.0611   -0.2456 H   0  0  0  0  0  0  0  0  0  0  0  0
   -8.4494    6.2922   -1.7601 H   0  0  0  0  0  0  0  0  0  0  0  0
   -6.9857    5.2510   -1.7601 H   0  0  0  0  0  0  0  0  0  0  0  0
   -2.3261   10.5813   -0.9563 H   0  0  0  0  0  0  0  0  0  0  0  0
   -1.6440   11.2260    1.2688 H   0  0  0  0  0  0  0  0  0  0  0  0
   -0.5724    9.8182    1.4318 H   0  0  0  0  0  0  0  0  0  0  0  0
    0.2749   12.4992    0.9216 H   0  0  0  0  0  0  0  0  0  0  0  0
    1.2980   11.0822    0.7014 H   0  0  0  0  0  0  0  0  0  0  0  0
   -1.1511   13.2216   -0.3376 H   0  0  0  0  0  0  0  0  0  0  0  0
   -0.3650   13.6958   -1.8815 H   0  0  0  0  0  0  0  0  0  0  0  0
   -1.6773   12.4692   -1.8815 H   0  0  0  0  0  0  0  0  0  0  0  0
    2.2470   11.2583   -1.5204 H   0  0  0  0  0  0  0  0  0  0  0  0
    2.0038   13.5661   -0.3998 H   0  0  0  0  0  0  0  0  0  0  0  0
    3.3273   13.2430   -1.6378 H   0  0  0  0  0  0  0  0  0  0  0  0
    2.0948   15.5643   -1.8268 H   0  0  0  0  0  0  0  0  0  0  0  0
   -0.1882   13.0714   -4.0323 H   0  0  0  0  0  0  0  0  0  0  0  0
    2.3674   13.4532   -5.7117 H   0  0  0  0  0  0  0  0  0  0  0  0
    0.9249   12.4279   -6.1350 H   0  0  0  0  0  0  0  0  0  0  0  0
    0.9415   14.5746   -7.3643 H   0  0  0  0  0  0  0  0  0  0  0  0
   -0.4801   14.4025   -6.2618 H   0  0  0  0  0  0  0  0  0  0  0  0
    0.3762   16.6368   -6.0713 H   0  0  0  0  0  0  0  0  0  0  0  0
    2.7720   15.2700   -6.1780 H   0  0  0  0  0  0  0  0  0  0  0  0
   -1.1100   15.8851   -2.8241 H   0  0  0  0  0  0  0  0  0  0  0  0
   -1.2877   16.7883   -4.3666 H   0  0  0  0  0  0  0  0  0  0  0  0
   -1.3356   14.9927   -4.3666 H   0  0  0  0  0  0  0  0  0  0  0  0
    1.1804   17.0914   -2.3952 H   0  0  0  0  0  0  0  0  0  0  0  0
    2.2443   17.3063   -3.8265 H   0  0  0  0  0  0  0  0  0  0  0  0
    0.5876   18.0007   -3.8265 H   0  0  0  0  0  0  0  0  0  0  0  0
    3.6236   11.5668   -3.0880 H   0  0  0  0  0  0  0  0  0  0  0  0
    2.9790   10.7645   -4.5602 H   0  0  0  0  0  0  0  0  0  0  0  0
    3.2770   12.5359   -4.5602 H   0  0  0  0  0  0  0  0  0  0  0  0
    0.3153   10.8530   -4.9293 H   0  0  0  0  0  0  0  0  0  0  0  0
    1.3285    9.8132   -3.7776 H   0  0  0  0  0  0  0  0  0  0  0  0
   -1.3636   11.0921   -3.2290 H   0  0  0  0  0  0  0  0  0  0  0  0
   -0.9522    9.3363   -3.3517 H   0  0  0  0  0  0  0  0  0  0  0  0
    0.9439    8.9977   -0.2559 H   0  0  0  0  0  0  0  0  0  0  0  0
    0.4325    8.2260   -1.7952 H   0  0  0  0  0  0  0  0  0  0  0  0
    1.7582    9.4381   -1.7952 H   0  0  0  0  0  0  0  0  0  0  0  0
  1  2  1  0
  2  3  1  0
  3  4  1  0
  4  5  1  0
  5  6  1  0
  6  7  1  0
  7  8  1  0
  7  9  1  0
  2 10  1  0
 10 11  1  0
 11 12  1  0
 12 13  1  0
 13 14  1  1
 13 15  1  0
 15 16  1  0
 16 17  1  0
 17 18  2  0
 18 19  1  0
 19 20  1  0
 20 21  1  0
 21 22  1  0
 22 23  1  0
 22 24  1  0
 24 25  1  0
 24 26  1  0
 19 27  1  0
 27 28  1  6
 27 29  1  0
 29 30  1  0
 30 31  1  0
 31 32  1  6
  7  5  1  0
 31 10  1  0
 31 13  1  0
 27 15  1  0
 24 18  1  0
  1 33  1  0
  1 34  1  0
  1 35  1  0
  2 36  1  1
  3 37  1  0
  3 38  1  0
  4 39  1  0
  4 40  1  0
  5 41  1  1
  8 42  1  0
  8 43  1  0
  8 44  1  0
  9 45  1  0
  9 46  1  0
  9 47  1  0
 10 48  1  6
 11 49  1  0
 11 50  1  0
 12 51  1  0
 12 52  1  0
 14 53  1  0
 14 54  1  0
 14 55  1  0
 15 56  1  1
 16 57  1  0
 16 58  1  0
 17 59  1  0
 19 60  1  6
 20 61  1  0
 20 62  1  0
 21 63  1  0
 21 64  1  0
 22 65  1  6
 23 66  1  0
 25 67  1  0
 25 68  1  0
 25 69  1  0
 26 70  1  0
 26 71  1  0
 26 72  1  0
 28 73  1  0
 28 74  1  0
 28 75  1  0
 29 76  1  0
 29 77  1  0
 30 78  1  0
 30 79  1  0
 32 80  1  0
 32 81  1  0
 32 82  1  0
M  END
>  <meeko>  (14) 
{"is_sidechain": [false], "intermolecular_energy": 2.731, "internal_energy": -0.839}

$$$$
EPH_relaxed_0001_pdb2pqr_Repair_73_r2_0001_out
     RDKit          3D

 82 86  0  0  0  0  0  0  0  0999 V2000
    2.8660   11.3390   -5.3100 C   0  0  0  0  0  0  0  0  0  0  0  0
    1.8520   11.0410   -4.2020 C   0  0  2  0  0  0  0  0  0  0  0  0
    0.7370   10.0870   -4.6770 C   0  0  0  0  0  0  0  0  0  0  0  0
   -0.3460    9.8340   -3.6250 C   0  0  0  0  0  0  0  0  0  0  0  0
    0.1760    9.0280   -2.4740 C   0  0  2  0  0  0  0  0  0  0  0  0
   -0.6810    7.9590   -2.0550 O   0  0  0  0  0  0  0  0  0  0  0  0
   -0.4700    9.0130   -1.1020 C   0  0  0  0  0  0  0  0  0  0  0  0
   -1.6950    9.8210   -0.8070 C   0  0  0  0  0  0  0  0  0  0  0  0
    0.3600    8.6040    0.0750 C   0  0  0  0  0  0  0  0  0  0  0  0
    1.2420   12.3420   -3.6930 C   0  0  1  0  0  0  0  0  0  0  0  0
   -0.2960   12.2490   -3.5080 C   0  0  0  0  0  0  0  0  0  0  0  0
   -0.6520   13.1200   -2.2760 C   0  0  0  0  0  0  0  0  0  0  0  0
    0.6270   13.9430   -1.9970 C   0  0  1  0  0  0  0  0  0  0  0  0
    0.5700   15.1290   -3.0100 C   0  0  0  0  0  0  0  0  0  0  0  0
    0.8190   14.4460   -0.5290 C   0  0  2  0  0  0  0  0  0  0  0  0
   -0.2630   15.4170   -0.0260 C   0  0  0  0  0  0  0  0  0  0  0  0
    0.0200   16.8640   -0.2610 C   0  0  0  0  0  0  0  0  0  0  0  0
    1.2160   17.3830   -0.5920 C   0  0  0  0  0  0  0  0  0  0  0  0
    2.4660   16.4970   -0.6660 C   0  0  1  0  0  0  0  0  0  0  0  0
    3.6400   17.1940    0.0710 C   0  0  0  0  0  0  0  0  0  0  0  0
    3.8960   18.6080   -0.4410 C   0  0  0  0  0  0  0  0  0  0  0  0
    2.6470   19.4750   -0.2970 C   0  0  2  0  0  0  0  0  0  0  0  0
    2.3780   19.6670    1.0950 O   0  0  0  0  0  0  0  0  0  0  0  0
    1.3970   18.8680   -0.9930 C   0  0  0  0  0  0  0  0  0  0  0  0
    1.5700   18.9390   -2.5300 C   0  0  0  0  0  0  0  0  0  0  0  0
    0.1780   19.7680   -0.6520 C   0  0  0  0  0  0  0  0  0  0  0  0
    2.2730   14.9860   -0.2140 C   0  0  1  0  0  0  0  0  0  0  0  0
    2.4690   14.8630    1.3280 C   0  0  0  0  0  0  0  0  0  0  0  0
    3.3960   14.1030   -0.8760 C   0  0  0  0  0  0  0  0  0  0  0  0
    3.0980   13.5360   -2.2770 C   0  0  0  0  0  0  0  0  0  0  0  0
    1.7240   12.8620   -2.3150 C   0  0  2  0  0  0  0  0  0  0  0  0
    1.7580   11.6500   -1.3220 C   0  0  0  0  0  0  0  0  0  0  0  0
    3.8288   11.6220   -4.8595 H   0  0  0  0  0  0  0  0  0  0  0  0
    3.0021   10.4429   -5.9332 H   0  0  0  0  0  0  0  0  0  0  0  0
    2.4956   12.1663   -5.9332 H   0  0  0  0  0  0  0  0  0  0  0  0
    2.3913   10.5383   -3.3856 H   0  0  0  0  0  0  0  0  0  0  0  0
    0.2612   10.5248   -5.5669 H   0  0  0  0  0  0  0  0  0  0  0  0
    1.2119    9.1177   -4.8889 H   0  0  0  0  0  0  0  0  0  0  0  0
   -0.7088   10.8013   -3.2472 H   0  0  0  0  0  0  0  0  0  0  0  0
   -1.1593    9.2660   -4.1002 H   0  0  0  0  0  0  0  0  0  0  0  0
    1.2139    9.1931   -2.7987 H   0  0  0  0  0  0  0  0  0  0  0  0
   -1.8245    9.9064    0.2820 H   0  0  0  0  0  0  0  0  0  0  0  0
   -1.5859   10.8249   -1.2431 H   0  0  0  0  0  0  0  0  0  0  0  0
   -2.5749    9.3255   -1.2431 H   0  0  0  0  0  0  0  0  0  0  0  0
   -0.1681    8.8642    1.0042 H   0  0  0  0  0  0  0  0  0  0  0  0
    0.5319    7.5180    0.0428 H   0  0  0  0  0  0  0  0  0  0  0  0
    1.3259    9.1293    0.0428 H   0  0  0  0  0  0  0  0  0  0  0  0
    1.5726   13.0246   -4.4898 H   0  0  0  0  0  0  0  0  0  0  0  0
   -0.8089   12.6311   -4.4029 H   0  0  0  0  0  0  0  0  0  0  0  0
   -0.6135   11.2063   -3.3595 H   0  0  0  0  0  0  0  0  0  0  0  0
   -1.4994   13.7840   -2.5018 H   0  0  0  0  0  0  0  0  0  0  0  0
   -0.9547   12.5133   -1.4098 H   0  0  0  0  0  0  0  0  0  0  0  0
    0.5243   16.0800   -2.4590 H   0  0  0  0  0  0  0  0  0  0  0  0
    1.4699   15.1146   -3.6425 H   0  0  0  0  0  0  0  0  0  0  0  0
   -0.3243   15.0283   -3.6425 H   0  0  0  0  0  0  0  0  0  0  0  0
    0.6878   13.5238    0.0561 H   0  0  0  0  0  0  0  0  0  0  0  0
   -1.2061   15.1681   -0.5345 H   0  0  0  0  0  0  0  0  0  0  0  0
   -0.3040   15.2882    1.0657 H   0  0  0  0  0  0  0  0  0  0  0  0
   -0.8209   17.5651   -0.1544 H   0  0  0  0  0  0  0  0  0  0  0  0
    2.7039   16.3966   -1.7353 H   0  0  0  0  0  0  0  0  0  0  0  0
    3.4020   17.2453    1.1437 H   0  0  0  0  0  0  0  0  0  0  0  0
    4.5486   16.6024   -0.1147 H   0  0  0  0  0  0  0  0  0  0  0  0
    4.7154   19.0580    0.1388 H   0  0  0  0  0  0  0  0  0  0  0  0
    4.1640   18.5525   -1.5064 H   0  0  0  0  0  0  0  0  0  0  0  0
    2.8499   20.4331   -0.7979 H   0  0  0  0  0  0  0  0  0  0  0  0
    3.2300   19.6580    1.5630 H   0  0  0  0  0  0  0  0  0  0  0  0
    2.5634   19.3467   -2.7687 H   0  0  0  0  0  0  0  0  0  0  0  0
    1.4758   17.9295   -2.9566 H   0  0  0  0  0  0  0  0  0  0  0  0
    0.7938   19.5913   -2.9566 H   0  0  0  0  0  0  0  0  0  0  0  0
    0.0734   19.8452    0.4403 H   0  0  0  0  0  0  0  0  0  0  0  0
    0.3321   20.7706   -1.0774 H   0  0  0  0  0  0  0  0  0  0  0  0
   -0.7348   19.3255   -1.0774 H   0  0  0  0  0  0  0  0  0  0  0  0
    1.6464   15.3792    1.8445 H   0  0  0  0  0  0  0  0  0  0  0  0
    2.4720   13.8007    1.6137 H   0  0  0  0  0  0  0  0  0  0  0  0
    3.4269   15.3222    1.6137 H   0  0  0  0  0  0  0  0  0  0  0  0
    4.3029   14.7207   -0.9530 H   0  0  0  0  0  0  0  0  0  0  0  0
    3.4920   13.2226   -0.2236 H   0  0  0  0  0  0  0  0  0  0  0  0
    3.1163   14.3571   -3.0088 H   0  0  0  0  0  0  0  0  0  0  0  0
    3.8637   12.7850   -2.5214 H   0  0  0  0  0  0  0  0  0  0  0  0
    1.7475   12.0233   -0.2873 H   0  0  0  0  0  0  0  0  0  0  0  0
    0.8774   11.0128   -1.4908 H   0  0  0  0  0  0  0  0  0  0  0  0
    2.6730   11.0632   -1.4908 H   0  0  0  0  0  0  0  0  0  0  0  0
  1  2  1  0
  2  3  1  0
  3  4  1  0
  4  5  1  0
  5  6  1  0
  6  7  1  0
  7  8  1  0
  7  9  1  0
  2 10  1  0
 10 11  1  0
 11 12  1  0
 12 13  1  0
 13 14  1  6
 13 15  1  0
 15 16  1  0
 16 17  1  0
 17 18  2  0
 18 19  1  0
 19 20  1  0
 20 21  1  0
 21 22  1  0
 22 23  1  0
 22 24  1  0
 24 25  1  0
 24 26  1  0
 19 27  1  0
 27 28  1  1
 27 29  1  0
 29 30  1  0
 30 31  1  0
 31 32  1  1
  7  5  1  0
 31 10  1  0
 31 13  1  0
 27 15  1  0
 24 18  1  0
  1 33  1  0
  1 34  1  0
  1 35  1  0
  2 36  1  1
  3 37  1  0
  3 38  1  0
  4 39  1  0
  4 40  1  0
  5 41  1  1
  8 42  1  0
  8 43  1  0
  8 44  1  0
  9 45  1  0
  9 46  1  0
  9 47  1  0
 10 48  1  6
 11 49  1  0
 11 50  1  0
 12 51  1  0
 12 52  1  0
 14 53  1  0
 14 54  1  0
 14 55  1  0
 15 56  1  1
 16 57  1  0
 16 58  1  0
 17 59  1  0
 19 60  1  6
 20 61  1  0
 20 62  1  0
 21 63  1  0
 21 64  1  0
 22 65  1  6
 23 66  1  0
 25 67  1  0
 25 68  1  0
 25 69  1  0
 26 70  1  0
 26 71  1  0
 26 72  1  0
 28 73  1  0
 28 74  1  0
 28 75  1  0
 29 76  1  0
 29 77  1  0
 30 78  1  0
 30 79  1  0
 32 80  1  0
 32 81  1  0
 32 82  1  0
M  END
>  <meeko>  (15) 
{"is_sidechain": [false], "intermolecular_energy": 2.731, "internal_energy": -0.839}

$$$$
EPH_relaxed_0001_pdb2pqr_Repair_73_r2_0001_out
     RDKit          3D

 82 86  0  0  0  0  0  0  0  0999 V2000
    3.0560   18.3590   -3.5720 C   0  0  0  0  0  0  0  0  0  0  0  0
    2.1270   18.1390   -2.3750 C   0  0  2  0  0  0  0  0  0  0  0  0
    2.3270   19.2060   -1.2810 C   0  0  0  0  0  0  0  0  0  0  0  0
    2.2320   18.6530    0.1440 C   0  0  0  0  0  0  0  0  0  0  0  0
    2.7060   19.6500    1.1580 C   0  0  2  0  0  0  0  0  0  0  0  0
    4.0220   20.1670    0.9200 O   0  0  0  0  0  0  0  0  0  0  0  0
    3.8530   19.3880    2.1160 C   0  0  0  0  0  0  0  0  0  0  0  0
    4.5960   18.0890    2.1060 C   0  0  0  0  0  0  0  0  0  0  0  0
    3.9310   20.1930    3.3750 C   0  0  0  0  0  0  0  0  0  0  0  0
    2.3510   16.7480   -1.7930 C   0  0  1  0  0  0  0  0  0  0  0  0
    2.9080   16.7890   -0.3450 C   0  0  0  0  0  0  0  0  0  0  0  0
    2.2910   15.5820    0.4070 C   0  0  0  0  0  0  0  0  0  0  0  0
    1.6710   14.7050   -0.7060 C   0  0  1  0  0  0  0  0  0  0  0  0
    2.8680   13.8910   -1.2890 C   0  0  0  0  0  0  0  0  0  0  0  0
    0.4940   13.7710   -0.2750 C   0  0  2  0  0  0  0  0  0  0  0  0
    0.8590   12.6990    0.7660 C   0  0  0  0  0  0  0  0  0  0  0  0
    1.3170   11.3940    0.2040 C   0  0  0  0  0  0  0  0  0  0  0  0
    1.1620   10.9950   -1.0720 C   0  0  0  0  0  0  0  0  0  0  0  0
    0.3820   11.8520   -2.0770 C   0  0  1  0  0  0  0  0  0  0  0  0
   -0.6040   10.9540   -2.8690 C   0  0  0  0  0  0  0  0  0  0  0  0
    0.0890    9.7660   -3.5300 C   0  0  0  0  0  0  0  0  0  0  0  0
    0.8040    8.9060   -2.4920 C   0  0  2  0  0  0  0  0  0  0  0  0
   -0.1740    8.2940   -1.6460 O   0  0  0  0  0  0  0  0  0  0  0  0
    1.8170    9.7060   -1.6260 C   0  0  0  0  0  0  0  0  0  0  0  0
    3.0350   10.1130   -2.4920 C   0  0  0  0  0  0  0  0  0  0  0  0
    2.3640    8.7530   -0.5290 C   0  0  0  0  0  0  0  0  0  0  0  0
   -0.3180   13.1510   -1.4840 C   0  0  1  0  0  0  0  0  0  0  0  0
   -1.7310   12.7890   -0.9330 C   0  0  0  0  0  0  0  0  0  0  0  0
   -0.5460   14.1880   -2.6460 C   0  0  0  0  0  0  0  0  0  0  0  0
    0.6090   15.1620   -2.9450 C   0  0  0  0  0  0  0  0  0  0  0  0
    1.1140   15.8250   -1.6600 C   0  0  2  0  0  0  0  0  0  0  0  0
   -0.0630   16.6690   -1.0620 C   0  0  0  0  0  0  0  0  0  0  0  0
    4.0674   18.5985   -3.2120 H   0  0  0  0  0  0  0  0  0  0  0  0
    3.0910   17.4443   -4.1820 H   0  0  0  0  0  0  0  0  0  0  0  0
    2.6770   19.1922   -4.1820 H   0  0  0  0  0  0  0  0  0  0  0  0
    1.0924   18.2286   -2.7378 H   0  0  0  0  0  0  0  0  0  0  0  0
    3.3219   19.6563   -1.4130 H   0  0  0  0  0  0  0  0  0  0  0  0
    1.5153   19.9395   -1.3956 H   0  0  0  0  0  0  0  0  0  0  0  0
    1.1837   18.3975    0.3582 H   0  0  0  0  0  0  0  0  0  0  0  0
    2.8758   17.7636    0.2104 H   0  0  0  0  0  0  0  0  0  0  0  0
    1.6792   20.0109    1.3176 H   0  0  0  0  0  0  0  0  0  0  0  0
    4.7815   17.7647    3.1406 H   0  0  0  0  0  0  0  0  0  0  0  0
    3.9967   17.3278    1.5850 H   0  0  0  0  0  0  0  0  0  0  0  0
    5.5559   18.2197    1.5850 H   0  0  0  0  0  0  0  0  0  0  0  0
    3.8660   19.5218    4.2440 H   0  0  0  0  0  0  0  0  0  0  0  0
    4.8861   20.7379    3.4032 H   0  0  0  0  0  0  0  0  0  0  0  0
    3.0982   20.9111    3.4032 H   0  0  0  0  0  0  0  0  0  0  0  0
    3.0437   16.3428   -2.5453 H   0  0  0  0  0  0  0  0  0  0  0  0
    4.0048   16.7060   -0.3587 H   0  0  0  0  0  0  0  0  0  0  0  0
    2.6496   17.7365    0.1504 H   0  0  0  0  0  0  0  0  0  0  0  0
    3.0677   15.0258    0.9523 H   0  0  0  0  0  0  0  0  0  0  0  0
    1.5478   15.8926    1.1561 H   0  0  0  0  0  0  0  0  0  0  0  0
    3.4696   13.4819   -0.4640 H   0  0  0  0  0  0  0  0  0  0  0  0
    2.4840   13.0660   -1.9070 H   0  0  0  0  0  0  0  0  0  0  0  0
    3.4941   14.5514   -1.9070 H   0  0  0  0  0  0  0  0  0  0  0  0
   -0.1834   14.4681    0.2399 H   0  0  0  0  0  0  0  0  0  0  0  0
    1.6661   13.0992    1.3973 H   0  0  0  0  0  0  0  0  0  0  0  0
   -0.0673   12.4839    1.3188 H   0  0  0  0  0  0  0  0  0  0  0  0
    1.8239   10.7000    0.8907 H   0  0  0  0  0  0  0  0  0  0  0  0
    1.1319   12.2761   -2.7610 H   0  0  0  0  0  0  0  0  0  0  0  0
   -1.3699   10.5749   -2.1764 H   0  0  0  0  0  0  0  0  0  0  0  0
   -1.0479   11.5679   -3.6666 H   0  0  0  0  0  0  0  0  0  0  0  0
   -0.6630    9.1534   -4.0489 H   0  0  0  0  0  0  0  0  0  0  0  0
    0.8339   10.1466   -4.2443 H   0  0  0  0  0  0  0  0  0  0  0  0
    1.3866    8.1487   -3.0370 H   0  0  0  0  0  0  0  0  0  0  0  0
   -0.0790    7.3310   -1.7350 H   0  0  0  0  0  0  0  0  0  0  0  0
    3.8733   10.3931   -1.8372 H   0  0  0  0  0  0  0  0  0  0  0  0
    3.3330    9.2656   -3.1269 H   0  0  0  0  0  0  0  0  0  0  0  0
    2.7637   10.9693   -3.1269 H   0  0  0  0  0  0  0  0  0  0  0  0
    2.1284    9.1634    0.4640 H   0  0  0  0  0  0  0  0  0  0  0  0
    1.8966    7.7631   -0.6369 H   0  0  0  0  0  0  0  0  0  0  0  0
    3.4545    8.6573   -0.6369 H   0  0  0  0  0  0  0  0  0  0  0  0
   -1.7083   12.7948    0.1667 H   0  0  0  0  0  0  0  0  0  0  0  0
   -2.4637   13.5284   -1.2885 H   0  0  0  0  0  0  0  0  0  0  0  0
   -2.0179   11.7883   -1.2885 H   0  0  0  0  0  0  0  0  0  0  0  0
   -0.7473   13.6185   -3.5653 H   0  0  0  0  0  0  0  0  0  0  0  0
   -1.3770   14.8233   -2.3055 H   0  0  0  0  0  0  0  0  0  0  0  0
    1.4358   14.6070   -3.4124 H   0  0  0  0  0  0  0  0  0  0  0  0
    0.2399   15.9461   -3.6224 H   0  0  0  0  0  0  0  0  0  0  0  0
   -0.0168   16.6359    0.0365 H   0  0  0  0  0  0  0  0  0  0  0  0
    0.0241   17.7117   -1.4014 H   0  0  0  0  0  0  0  0  0  0  0  0
   -1.0226   16.2519   -1.4014 H   0  0  0  0  0  0  0  0  0  0  0  0
  1  2  1  0
  2  3  1  0
  3  4  1  0
  4  5  1  0
  5  6  1  0
  6  7  1  0
  7  8  1  0
  7  9  1  0
  2 10  1  0
 10 11  1  0
 11 12  1  0
 12 13  1  0
 13 14  1  6
 13 15  1  0
 15 16  1  0
 16 17  1  0
 17 18  2  0
 18 19  1  0
 19 20  1  0
 20 21  1  0
 21 22  1  0
 22 23  1  0
 22 24  1  0
 24 25  1  0
 24 26  1  0
 19 27  1  0
 27 28  1  1
 27 29  1  0
 29 30  1  0
 30 31  1  0
 31 32  1  1
  7  5  1  0
 31 10  1  0
 31 13  1  0
 27 15  1  0
 24 18  1  0
  1 33  1  0
  1 34  1  0
  1 35  1  0
  2 36  1  6
  3 37  1  0
  3 38  1  0
  4 39  1  0
  4 40  1  0
  5 41  1  1
  8 42  1  0
  8 43  1  0
  8 44  1  0
  9 45  1  0
  9 46  1  0
  9 47  1  0
 10 48  1  6
 11 49  1  0
 11 50  1  0
 12 51  1  0
 12 52  1  0
 14 53  1  0
 14 54  1  0
 14 55  1  0
 15 56  1  1
 16 57  1  0
 16 58  1  0
 17 59  1  0
 19 60  1  6
 20 61  1  0
 20 62  1  0
 21 63  1  0
 21 64  1  0
 22 65  1  6
 23 66  1  0
 25 67  1  0
 25 68  1  0
 25 69  1  0
 26 70  1  0
 26 71  1  0
 26 72  1  0
 28 73  1  0
 28 74  1  0
 28 75  1  0
 29 76  1  0
 29 77  1  0
 30 78  1  0
 30 79  1  0
 32 80  1  0
 32 81  1  0
 32 82  1  0
M  END
>  <meeko>  (16) 
{"is_sidechain": [false], "intermolecular_energy": 2.731, "internal_energy": -0.839}

$$$$
EPH_relaxed_0001_pdb2pqr_Repair_73_r2_0001_out
     RDKit          3D

 82 86  0  0  0  0  0  0  0  0999 V2000
    0.8880   14.8710   -2.6290 C   0  0  0  0  0  0  0  0  0  0  0  0
    1.1630   14.1960   -3.9750 C   0  0  2  0  0  0  0  0  0  0  0  0
    0.4730   14.9270   -5.1440 C   0  0  0  0  0  0  0  0  0  0  0  0
    1.0610   14.5870   -6.5160 C   0  0  0  0  0  0  0  0  0  0  0  0
    0.8270   15.6860   -7.5080 C   0  0  2  0  0  0  0  0  0  0  0  0
    0.4020   15.2430   -8.8030 O   0  0  0  0  0  0  0  0  0  0  0  0
    1.6820   15.8940   -8.7440 C   0  0  0  0  0  0  0  0  0  0  0  0
    2.8370   14.9940   -9.0540 C   0  0  0  0  0  0  0  0  0  0  0  0
    1.7000   17.2480   -9.3820 C   0  0  0  0  0  0  0  0  0  0  0  0
    0.7080   12.7420   -3.9300 C   0  0  1  0  0  0  0  0  0  0  0  0
    1.8350   11.7500   -4.3230 C   0  0  0  0  0  0  0  0  0  0  0  0
    1.6350   10.4790   -3.4580 C   0  0  0  0  0  0  0  0  0  0  0  0
    0.2250   10.6430   -2.8450 C   0  0  1  0  0  0  0  0  0  0  0  0
   -0.7570   10.1850   -3.9680 C   0  0  0  0  0  0  0  0  0  0  0  0
   -0.0370    9.8830   -1.5040 C   0  0  2  0  0  0  0  0  0  0  0  0
    0.0620    8.3500   -1.5920 C   0  0  0  0  0  0  0  0  0  0  0  0
   -1.2140    7.6460   -1.9150 C   0  0  0  0  0  0  0  0  0  0  0  0
   -2.4450    8.1860   -1.8460 C   0  0  0  0  0  0  0  0  0  0  0  0
   -2.6510    9.6110   -1.3140 C   0  0  1  0  0  0  0  0  0  0  0  0
   -3.8270    9.6200   -0.3020 C   0  0  0  0  0  0  0  0  0  0  0  0
   -5.1050    9.0240   -0.8850 C   0  0  0  0  0  0  0  0  0  0  0  0
   -4.8740    7.5880   -1.3490 C   0  0  2  0  0  0  0  0  0  0  0  0
   -4.6140    6.7700   -0.2040 O   0  0  0  0  0  0  0  0  0  0  0  0
   -3.7060    7.4530   -2.3650 C   0  0  0  0  0  0  0  0  0  0  0  0
   -4.1160    8.0870   -3.7170 C   0  0  0  0  0  0  0  0  0  0  0  0
   -3.4880    5.9410   -2.6430 C   0  0  0  0  0  0  0  0  0  0  0  0
   -1.3540   10.3340   -0.7500 C   0  0  1  0  0  0  0  0  0  0  0  0
   -1.1530    9.9700    0.7530 C   0  0  0  0  0  0  0  0  0  0  0  0
   -1.5700   11.8930   -0.8040 C   0  0  0  0  0  0  0  0  0  0  0  0
   -1.1790   12.6030   -2.1140 C   0  0  0  0  0  0  0  0  0  0  0  0
    0.2250   12.1900   -2.5650 C   0  0  2  0  0  0  0  0  0  0  0  0
    1.2370   12.6570   -1.4640 C   0  0  0  0  0  0  0  0  0  0  0  0
    1.1662   14.1881   -1.8127 H   0  0  0  0  0  0  0  0  0  0  0  0
    1.4818   15.7938   -2.5535 H   0  0  0  0  0  0  0  0  0  0  0  0
   -0.1817   15.1161   -2.5535 H   0  0  0  0  0  0  0  0  0  0  0  0
    2.2478   14.2415   -4.1515 H   0  0  0  0  0  0  0  0  0  0  0  0
   -0.5921   14.6522   -5.1450 H   0  0  0  0  0  0  0  0  0  0  0  0
    0.6287   16.0044   -4.9858 H   0  0  0  0  0  0  0  0  0  0  0  0
    2.1442   14.4274   -6.4099 H   0  0  0  0  0  0  0  0  0  0  0  0
    0.5629   13.6790   -6.8868 H   0  0  0  0  0  0  0  0  0  0  0  0
    0.5069   16.3708   -6.7089 H   0  0  0  0  0  0  0  0  0  0  0  0
    3.2894   14.6415   -8.1153 H   0  0  0  0  0  0  0  0  0  0  0  0
    2.4832   14.1311   -9.6372 H   0  0  0  0  0  0  0  0  0  0  0  0
    3.5873   15.5480   -9.6372 H   0  0  0  0  0  0  0  0  0  0  0  0
    1.7103   18.0216   -8.6001 H   0  0  0  0  0  0  0  0  0  0  0  0
    2.5995   17.3467  -10.0074 H   0  0  0  0  0  0  0  0  0  0  0  0
    0.8034   17.3706  -10.0074 H   0  0  0  0  0  0  0  0  0  0  0  0
   -0.1339   12.7910   -4.6363 H   0  0  0  0  0  0  0  0  0  0  0  0
    1.7611   11.4967   -5.3909 H   0  0  0  0  0  0  0  0  0  0  0  0
    2.8275   12.1921   -4.1512 H   0  0  0  0  0  0  0  0  0  0  0  0
    1.6849    9.5736   -4.0807 H   0  0  0  0  0  0  0  0  0  0  0  0
    2.4143   10.3704   -2.6893 H   0  0  0  0  0  0  0  0  0  0  0  0
   -1.6641    9.7619   -3.5118 H   0  0  0  0  0  0  0  0  0  0  0  0
   -1.0292   11.0491   -4.5919 H   0  0  0  0  0  0  0  0  0  0  0  0
   -0.2699    9.4211   -4.5919 H   0  0  0  0  0  0  0  0  0  0  0  0
    0.8128   10.2022   -0.8827 H   0  0  0  0  0  0  0  0  0  0  0  0
    0.7948    8.1011   -2.3737 H   0  0  0  0  0  0  0  0  0  0  0  0
    0.3538    8.0059   -0.5888 H   0  0  0  0  0  0  0  0  0  0  0  0
   -1.1422    6.5966   -2.2368 H   0  0  0  0  0  0  0  0  0  0  0  0
   -2.9059   10.2290   -2.1876 H   0  0  0  0  0  0  0  0  0  0  0  0
   -3.5359    9.0338    0.5821 H   0  0  0  0  0  0  0  0  0  0  0  0
   -4.0358   10.6682   -0.0419 H   0  0  0  0  0  0  0  0  0  0  0  0
   -5.8901    9.0317   -0.1145 H   0  0  0  0  0  0  0  0  0  0  0  0
   -5.4112    9.6284   -1.7515 H   0  0  0  0  0  0  0  0  0  0  0  0
   -5.7839    7.2598   -1.8728 H   0  0  0  0  0  0  0  0  0  0  0  0
   -3.9010    7.1920    0.3030 H   0  0  0  0  0  0  0  0  0  0  0  0
   -4.7048    8.9975   -3.5315 H   0  0  0  0  0  0  0  0  0  0  0  0
   -3.2130    8.3447   -4.2900 H   0  0  0  0  0  0  0  0  0  0  0  0
   -4.7214    7.3692   -4.2900 H   0  0  0  0  0  0  0  0  0  0  0  0
   -3.4100    5.4002   -1.6883 H   0  0  0  0  0  0  0  0  0  0  0  0
   -4.3387    5.5477   -3.2188 H   0  0  0  0  0  0  0  0  0  0  0  0
   -2.5608    5.8040   -3.2188 H   0  0  0  0  0  0  0  0  0  0  0  0
   -1.5889   10.7594    1.3829 H   0  0  0  0  0  0  0  0  0  0  0  0
   -1.6504    9.0128    0.9681 H   0  0  0  0  0  0  0  0  0  0  0  0
   -0.0779    9.8811    0.9681 H   0  0  0  0  0  0  0  0  0  0  0  0
   -2.6379   12.0874   -0.6259 H   0  0  0  0  0  0  0  0  0  0  0  0
   -0.8933   12.3042   -0.0405 H   0  0  0  0  0  0  0  0  0  0  0  0
   -1.9021   12.3345   -2.8982 H   0  0  0  0  0  0  0  0  0  0  0  0
   -1.1853   13.6890   -1.9390 H   0  0  0  0  0  0  0  0  0  0  0  0
    0.8121   12.4609   -0.4685 H   0  0  0  0  0  0  0  0  0  0  0  0
    2.1811   12.1035   -1.5752 H   0  0  0  0  0  0  0  0  0  0  0  0
    1.4284   13.7345   -1.5752 H   0  0  0  0  0  0  0  0  0  0  0  0
  1  2  1  0
  2  3  1  0
  3  4  1  0
  4  5  1  0
  5  6  1  0
  6  7  1  0
  7  8  1  0
  7  9  1  0
  2 10  1  0
 10 11  1  0
 11 12  1  0
 12 13  1  0
 13 14  1  6
 13 15  1  0
 15 16  1  0
 16 17  1  0
 17 18  2  0
 18 19  1  0
 19 20  1  0
 20 21  1  0
 21 22  1  0
 22 23  1  0
 22 24  1  0
 24 25  1  0
 24 26  1  0
 19 27  1  0
 27 28  1  1
 27 29  1  0
 29 30  1  0
 30 31  1  0
 31 32  1  1
  7  5  1  0
 31 10  1  0
 31 13  1  0
 27 15  1  0
 24 18  1  0
  1 33  1  0
  1 34  1  0
  1 35  1  0
  2 36  1  6
  3 37  1  0
  3 38  1  0
  4 39  1  0
  4 40  1  0
  5 41  1  1
  8 42  1  0
  8 43  1  0
  8 44  1  0
  9 45  1  0
  9 46  1  0
  9 47  1  0
 10 48  1  6
 11 49  1  0
 11 50  1  0
 12 51  1  0
 12 52  1  0
 14 53  1  0
 14 54  1  0
 14 55  1  0
 15 56  1  1
 16 57  1  0
 16 58  1  0
 17 59  1  0
 19 60  1  6
 20 61  1  0
 20 62  1  0
 21 63  1  0
 21 64  1  0
 22 65  1  6
 23 66  1  0
 25 67  1  0
 25 68  1  0
 25 69  1  0
 26 70  1  0
 26 71  1  0
 26 72  1  0
 28 73  1  0
 28 74  1  0
 28 75  1  0
 29 76  1  0
 29 77  1  0
 30 78  1  0
 30 79  1  0
 32 80  1  0
 32 81  1  0
 32 82  1  0
M  END
>  <meeko>  (17) 
{"is_sidechain": [false], "intermolecular_energy": 2.731, "internal_energy": -0.839}

$$$$
EPH_relaxed_0001_pdb2pqr_Repair_73_r2_0001_out
     RDKit          3D

 82 86  0  0  0  0  0  0  0  0999 V2000
   -2.4510    7.7670   -0.0770 C   0  0  0  0  0  0  0  0  0  0  0  0
   -3.0650    9.1700   -0.0630 C   0  0  2  0  0  0  0  0  0  0  0  0
   -4.5580    9.1540   -0.4470 C   0  0  0  0  0  0  0  0  0  0  0  0
   -5.1730    7.7520   -0.4700 C   0  0  0  0  0  0  0  0  0  0  0  0
   -5.8710    7.4740   -1.7670 C   0  0  2  0  0  0  0  0  0  0  0  0
   -6.8070    8.4820   -2.1710 O   0  0  0  0  0  0  0  0  0  0  0  0
   -7.3580    7.1880   -1.8730 C   0  0  0  0  0  0  0  0  0  0  0  0
   -8.2360    7.1660   -0.6610 C   0  0  0  0  0  0  0  0  0  0  0  0
   -7.8610    6.4550   -3.0760 C   0  0  0  0  0  0  0  0  0  0  0  0
   -2.2940   10.0840   -1.0080 C   0  0  1  0  0  0  0  0  0  0  0  0
   -2.9340   11.4920   -1.1320 C   0  0  0  0  0  0  0  0  0  0  0  0
   -1.7680   12.5000   -1.2990 C   0  0  0  0  0  0  0  0  0  0  0  0
   -0.5310   11.6210   -1.5960 C   0  0  1  0  0  0  0  0  0  0  0  0
   -0.6300   11.2920   -3.1190 C   0  0  0  0  0  0  0  0  0  0  0  0
    0.8580   12.2360   -1.2280 C   0  0  2  0  0  0  0  0  0  0  0  0
    1.2270   13.5200   -1.9910 C   0  0  0  0  0  0  0  0  0  0  0  0
    1.9730   13.3110   -3.2680 C   0  0  0  0  0  0  0  0  0  0  0  0
    2.5800   12.1690   -3.6410 C   0  0  0  0  0  0  0  0  0  0  0  0
    2.6370   10.9620   -2.6960 C   0  0  1  0  0  0  0  0  0  0  0  0
    4.0780   10.3880   -2.6740 C   0  0  0  0  0  0  0  0  0  0  0  0
    4.5990   10.0610   -4.0700 C   0  0  0  0  0  0  0  0  0  0  0  0
    4.5820   11.3000   -4.9620 C   0  0  2  0  0  0  0  0  0  0  0  0
    5.5350   12.2420   -4.4610 O   0  0  0  0  0  0  0  0  0  0  0  0
    3.1820   11.9700   -5.0530 C   0  0  0  0  0  0  0  0  0  0  0  0
    2.2240   11.0650   -5.8670 C   0  0  0  0  0  0  0  0  0  0  0  0
    3.3340   13.2840   -5.8670 C   0  0  0  0  0  0  0  0  0  0  0  0
    2.0500   11.1950   -1.2370 C   0  0  1  0  0  0  0  0  0  0  0  0
    3.1570   11.7780   -0.3060 C   0  0  0  0  0  0  0  0  0  0  0  0
    1.6370    9.8070   -0.6210 C   0  0  0  0  0  0  0  0  0  0  0  0
    0.2100    9.3090   -0.9220 C   0  0  0  0  0  0  0  0  0  0  0  0
   -0.8230   10.4050   -0.6430 C   0  0  2  0  0  0  0  0  0  0  0  0
   -0.7620   10.7420    0.8860 C   0  0  0  0  0  0  0  0  0  0  0  0
   -2.3002    7.4224    0.9567 H   0  0  0  0  0  0  0  0  0  0  0  0
   -3.1287    7.0754   -0.5989 H   0  0  0  0  0  0  0  0  0  0  0  0
   -1.4831    7.7955   -0.5989 H   0  0  0  0  0  0  0  0  0  0  0  0
   -2.9928    9.5527    0.9657 H   0  0  0  0  0  0  0  0  0  0  0  0
   -5.1108    9.7637    0.2829 H   0  0  0  0  0  0  0  0  0  0  0  0
   -4.6312    9.5537   -1.4692 H   0  0  0  0  0  0  0  0  0  0  0  0
   -4.3735    7.0097   -0.3292 H   0  0  0  0  0  0  0  0  0  0  0  0
   -5.9155    7.6900    0.3392 H   0  0  0  0  0  0  0  0  0  0  0  0
   -4.9886    6.9445   -2.1555 H   0  0  0  0  0  0  0  0  0  0  0  0
   -7.6116    7.1816    0.2444 H   0  0  0  0  0  0  0  0  0  0  0  0
   -8.8933    8.0480   -0.6684 H   0  0  0  0  0  0  0  0  0  0  0  0
   -8.8483    6.2522   -0.6684 H   0  0  0  0  0  0  0  0  0  0  0  0
   -8.4562    5.5876   -2.7545 H   0  0  0  0  0  0  0  0  0  0  0  0
   -8.4889    7.1274   -3.6791 H   0  0  0  0  0  0  0  0  0  0  0  0
   -7.0078    6.1110   -3.6791 H   0  0  0  0  0  0  0  0  0  0  0  0
   -2.3308    9.4760   -1.9239 H   0  0  0  0  0  0  0  0  0  0  0  0
   -3.5969   11.5309   -2.0089 H   0  0  0  0  0  0  0  0  0  0  0  0
   -3.5385   11.7307   -0.2445 H   0  0  0  0  0  0  0  0  0  0  0  0
   -1.9656   13.1872   -2.1349 H   0  0  0  0  0  0  0  0  0  0  0  0
   -1.6287   13.1278   -0.4066 H   0  0  0  0  0  0  0  0  0  0  0  0
   -0.9448   10.2460   -3.2485 H   0  0  0  0  0  0  0  0  0  0  0  0
   -1.3675   11.9579   -3.5908 H   0  0  0  0  0  0  0  0  0  0  0  0
    0.3526   11.4403   -3.5908 H   0  0  0  0  0  0  0  0  0  0  0  0
    0.7099   12.5434   -0.1823 H   0  0  0  0  0  0  0  0  0  0  0  0
    0.2953   14.0558   -2.2254 H   0  0  0  0  0  0  0  0  0  0  0  0
    1.9043   14.0821   -1.3313 H   0  0  0  0  0  0  0  0  0  0  0  0
    2.0313   14.1622   -3.9623 H   0  0  0  0  0  0  0  0  0  0  0  0
    1.9451   10.2161   -3.1142 H   0  0  0  0  0  0  0  0  0  0  0  0
    4.7462   11.1304   -2.2132 H   0  0  0  0  0  0  0  0  0  0  0  0
    4.0553    9.4510   -2.0982 H   0  0  0  0  0  0  0  0  0  0  0  0
    5.6309    9.6882   -3.9911 H   0  0  0  0  0  0  0  0  0  0  0  0
    3.9474    9.2964   -4.5181 H   0  0  0  0  0  0  0  0  0  0  0  0
    4.8416   10.9767   -5.9809 H   0  0  0  0  0  0  0  0  0  0  0  0
    5.0440   12.9310   -3.9830 H   0  0  0  0  0  0  0  0  0  0  0  0
    1.6011   10.4765   -5.1773 H   0  0  0  0  0  0  0  0  0  0  0  0
    1.5785   11.6908   -6.5009 H   0  0  0  0  0  0  0  0  0  0  0  0
    2.8121   10.3850   -6.5009 H   0  0  0  0  0  0  0  0  0  0  0  0
    3.4323   14.1341   -5.1759 H   0  0  0  0  0  0  0  0  0  0  0  0
    4.2309   13.2210   -6.5008 H   0  0  0  0  0  0  0  0  0  0  0  0
    2.4465   13.4274   -6.5008 H   0  0  0  0  0  0  0  0  0  0  0  0
    2.8695   11.6266    0.7449 H   0  0  0  0  0  0  0  0  0  0  0  0
    4.1097   11.2646   -0.5031 H   0  0  0  0  0  0  0  0  0  0  0  0
    3.2727   12.8540   -0.5031 H   0  0  0  0  0  0  0  0  0  0  0  0
    2.3401    9.0517   -1.0019 H   0  0  0  0  0  0  0  0  0  0  0  0
    1.6654    9.9563    0.4685 H   0  0  0  0  0  0  0  0  0  0  0  0
    0.1468    9.0159   -1.9803 H   0  0  0  0  0  0  0  0  0  0  0  0
   -0.0062    8.4491   -0.2710 H   0  0  0  0  0  0  0  0  0  0  0  0
   -0.9280    9.8250    1.4705 H   0  0  0  0  0  0  0  0  0  0  0  0
    0.2262   11.1588    1.1305 H   0  0  0  0  0  0  0  0  0  0  0  0
   -1.5414   11.4788    1.1305 H   0  0  0  0  0  0  0  0  0  0  0  0
  1  2  1  0
  2  3  1  0
  3  4  1  0
  4  5  1  0
  5  6  1  0
  6  7  1  0
  7  8  1  0
  7  9  1  0
  2 10  1  0
 10 11  1  0
 11 12  1  0
 12 13  1  0
 13 14  1  6
 13 15  1  0
 15 16  1  0
 16 17  1  0
 17 18  2  0
 18 19  1  0
 19 20  1  0
 20 21  1  0
 21 22  1  0
 22 23  1  0
 22 24  1  0
 24 25  1  0
 24 26  1  0
 19 27  1  0
 27 28  1  1
 27 29  1  0
 29 30  1  0
 30 31  1  0
 31 32  1  1
  7  5  1  0
 31 10  1  0
 31 13  1  0
 27 15  1  0
 24 18  1  0
  1 33  1  0
  1 34  1  0
  1 35  1  0
  2 36  1  1
  3 37  1  0
  3 38  1  0
  4 39  1  0
  4 40  1  0
  5 41  1  6
  8 42  1  0
  8 43  1  0
  8 44  1  0
  9 45  1  0
  9 46  1  0
  9 47  1  0
 10 48  1  6
 11 49  1  0
 11 50  1  0
 12 51  1  0
 12 52  1  0
 14 53  1  0
 14 54  1  0
 14 55  1  0
 15 56  1  1
 16 57  1  0
 16 58  1  0
 17 59  1  0
 19 60  1  6
 20 61  1  0
 20 62  1  0
 21 63  1  0
 21 64  1  0
 22 65  1  6
 23 66  1  0
 25 67  1  0
 25 68  1  0
 25 69  1  0
 26 70  1  0
 26 71  1  0
 26 72  1  0
 28 73  1  0
 28 74  1  0
 28 75  1  0
 29 76  1  0
 29 77  1  0
 30 78  1  0
 30 79  1  0
 32 80  1  0
 32 81  1  0
 32 82  1  0
M  END
>  <meeko>  (18) 
{"is_sidechain": [false], "intermolecular_energy": 2.731, "internal_energy": -0.839}

$$$$
EPH_relaxed_0001_pdb2pqr_Repair_73_r2_0001_out
     RDKit          3D

 82 86  0  0  0  0  0  0  0  0999 V2000
    3.1410   14.8440   -7.5300 C   0  0  0  0  0  0  0  0  0  0  0  0
    1.6160   14.8800   -7.3920 C   0  0  2  0  0  0  0  0  0  0  0  0
    1.0020   16.1250   -8.0630 C   0  0  0  0  0  0  0  0  0  0  0  0
    1.9310   16.8000   -9.0760 C   0  0  0  0  0  0  0  0  0  0  0  0
    1.5980   16.4040  -10.4830 C   0  0  2  0  0  0  0  0  0  0  0  0
    1.0010   15.1080  -10.6150 O   0  0  0  0  0  0  0  0  0  0  0  0
    2.2920   15.2760  -11.2220 C   0  0  0  0  0  0  0  0  0  0  0  0
    3.3770   14.4720  -10.5760 C   0  0  0  0  0  0  0  0  0  0  0  0
    2.2600   15.2730  -12.7180 C   0  0  0  0  0  0  0  0  0  0  0  0
    1.2270   14.8370   -5.9190 C   0  0  1  0  0  0  0  0  0  0  0  0
   -0.0270   15.6960   -5.6070 C   0  0  0  0  0  0  0  0  0  0  0  0
   -0.8110   14.9550   -4.4940 C   0  0  0  0  0  0  0  0  0  0  0  0
    0.1730   13.8820   -3.9720 C   0  0  1  0  0  0  0  0  0  0  0  0
    1.1080   14.6440   -2.9810 C   0  0  0  0  0  0  0  0  0  0  0  0
   -0.4690   12.6210   -3.3060 C   0  0  2  0  0  0  0  0  0  0  0  0
   -1.2900   12.9010   -2.0350 C   0  0  0  0  0  0  0  0  0  0  0  0
   -0.5250   12.8410   -0.7550 C   0  0  0  0  0  0  0  0  0  0  0  0
    0.6970   12.2980   -0.5990 C   0  0  0  0  0  0  0  0  0  0  0  0
    1.3930   11.5790   -1.7620 C   0  0  1  0  0  0  0  0  0  0  0  0
    1.9760   10.2300   -1.2630 C   0  0  0  0  0  0  0  0  0  0  0  0
    2.8880   10.4000   -0.0510 C   0  0  0  0  0  0  0  0  0  0  0  0
    2.1430   11.0650    1.1030 C   0  0  2  0  0  0  0  0  0  0  0  0
    1.1260   10.1730    1.5710 O   0  0  0  0  0  0  0  0  0  0  0  0
    1.5040   12.4280    0.7160 C   0  0  0  0  0  0  0  0  0  0  0  0
    2.6180   13.4820    0.5010 C   0  0  0  0  0  0  0  0  0  0  0  0
    0.6660   12.9230    1.9260 C   0  0  0  0  0  0  0  0  0  0  0  0
    0.5370   11.4190   -3.0910 C   0  0  1  0  0  0  0  0  0  0  0  0
   -0.3280   10.1240   -3.0140 C   0  0  0  0  0  0  0  0  0  0  0  0
    1.5130   11.2300   -4.3120 C   0  0  0  0  0  0  0  0  0  0  0  0
    2.0180   12.5110   -5.0030 C   0  0  0  0  0  0  0  0  0  0  0  0
    0.8560   13.4560   -5.3220 C   0  0  2  0  0  0  0  0  0  0  0  0
   -0.0910   12.7260   -6.3340 C   0  0  0  0  0  0  0  0  0  0  0  0
    3.5995   14.8332   -6.5302 H   0  0  0  0  0  0  0  0  0  0  0  0
    3.4382   13.9386   -8.0795 H   0  0  0  0  0  0  0  0  0  0  0  0
    3.4806   15.7344   -8.0795 H   0  0  0  0  0  0  0  0  0  0  0  0
    1.2154   13.9953   -7.9085 H   0  0  0  0  0  0  0  0  0  0  0  0
    0.0825   15.8205   -8.5843 H   0  0  0  0  0  0  0  0  0  0  0  0
    0.8096   16.8578   -7.2655 H   0  0  0  0  0  0  0  0  0  0  0  0
    1.8310   17.8912   -8.9796 H   0  0  0  0  0  0  0  0  0  0  0  0
    2.9613   16.4785   -8.8639 H   0  0  0  0  0  0  0  0  0  0  0  0
    1.3989   17.4511  -10.7547 H   0  0  0  0  0  0  0  0  0  0  0  0
    3.2832   14.5415   -9.4822 H   0  0  0  0  0  0  0  0  0  0  0  0
    3.2878   13.4202  -10.8855 H   0  0  0  0  0  0  0  0  0  0  0  0
    4.3573   14.8635  -10.8855 H   0  0  0  0  0  0  0  0  0  0  0  0
    1.2198   15.1755  -13.0623 H   0  0  0  0  0  0  0  0  0  0  0  0
    2.6845   16.2149  -13.0957 H   0  0  0  0  0  0  0  0  0  0  0  0
    2.8522   14.4264  -13.0957 H   0  0  0  0  0  0  0  0  0  0  0  0
    2.1625   15.2023   -5.4702 H   0  0  0  0  0  0  0  0  0  0  0  0
    0.2751   16.6942   -5.2572 H   0  0  0  0  0  0  0  0  0  0  0  0
   -0.6477   15.8296   -6.5053 H   0  0  0  0  0  0  0  0  0  0  0  0
   -1.0915   15.6495   -3.6884 H   0  0  0  0  0  0  0  0  0  0  0  0
   -1.7484   14.5157   -4.8658 H   0  0  0  0  0  0  0  0  0  0  0  0
    0.8173   14.4071   -1.9469 H   0  0  0  0  0  0  0  0  0  0  0  0
    2.1502   14.3347   -3.1489 H   0  0  0  0  0  0  0  0  0  0  0  0
    1.0154   15.7272   -3.1489 H   0  0  0  0  0  0  0  0  0  0  0  0
   -1.1957   12.2972   -4.0656 H   0  0  0  0  0  0  0  0  0  0  0  0
   -1.7229   13.9082   -2.1252 H   0  0  0  0  0  0  0  0  0  0  0  0
   -2.0428   12.1010   -1.9770 H   0  0  0  0  0  0  0  0  0  0  0  0
   -0.9997   13.2773    0.1363 H   0  0  0  0  0  0  0  0  0  0  0  0
    2.2093   12.2425   -2.0838 H   0  0  0  0  0  0  0  0  0  0  0  0
    1.1433    9.5662   -0.9875 H   0  0  0  0  0  0  0  0  0  0  0  0
    2.5795    9.8047   -2.0784 H   0  0  0  0  0  0  0  0  0  0  0  0
    3.2444    9.4110    0.2729 H   0  0  0  0  0  0  0  0  0  0  0  0
    3.7360   11.0398   -0.3366 H   0  0  0  0  0  0  0  0  0  0  0  0
    2.8798   11.2767    1.8919 H   0  0  0  0  0  0  0  0  0  0  0  0
    0.5270    9.9940    0.8270 H   0  0  0  0  0  0  0  0  0  0  0  0
    2.9864   13.8305    1.4771 H   0  0  0  0  0  0  0  0  0  0  0  0
    3.4467   13.0297   -0.0634 H   0  0  0  0  0  0  0  0  0  0  0  0
    2.2122   14.3345   -0.0634 H   0  0  0  0  0  0  0  0  0  0  0  0
    1.1639   12.6289    2.8617 H   0  0  0  0  0  0  0  0  0  0  0  0
    0.5770   14.0187    1.8867 H   0  0  0  0  0  0  0  0  0  0  0  0
   -0.3366   12.4721    1.8867 H   0  0  0  0  0  0  0  0  0  0  0  0
   -0.5030    9.8621   -1.9601 H   0  0  0  0  0  0  0  0  0  0  0  0
   -1.2925   10.2970   -3.5138 H   0  0  0  0  0  0  0  0  0  0  0  0
    0.2012    9.2993   -3.5138 H   0  0  0  0  0  0  0  0  0  0  0  0
    2.3932   10.6772   -3.9519 H   0  0  0  0  0  0  0  0  0  0  0  0
    0.9199   10.7059   -5.0759 H   0  0  0  0  0  0  0  0  0  0  0  0
    2.7265   13.0242   -4.3362 H   0  0  0  0  0  0  0  0  0  0  0  0
    2.5107   12.2302   -5.9455 H   0  0  0  0  0  0  0  0  0  0  0  0
   -0.8433   12.1461   -5.7793 H   0  0  0  0  0  0  0  0  0  0  0  0
   -0.5957   13.4710   -6.9667 H   0  0  0  0  0  0  0  0  0  0  0  0
    0.5010   12.0483   -6.9667 H   0  0  0  0  0  0  0  0  0  0  0  0
  1  2  1  0
  2  3  1  0
  3  4  1  0
  4  5  1  0
  5  6  1  0
  6  7  1  0
  7  8  1  0
  7  9  1  0
  2 10  1  0
 10 11  1  0
 11 12  1  0
 12 13  1  0
 13 14  1  1
 13 15  1  0
 15 16  1  0
 16 17  1  0
 17 18  2  0
 18 19  1  0
 19 20  1  0
 20 21  1  0
 21 22  1  0
 22 23  1  0
 22 24  1  0
 24 25  1  0
 24 26  1  0
 19 27  1  0
 27 28  1  1
 27 29  1  0
 29 30  1  0
 30 31  1  0
 31 32  1  6
  7  5  1  0
 31 10  1  0
 31 13  1  0
 27 15  1  0
 24 18  1  0
  1 33  1  0
  1 34  1  0
  1 35  1  0
  2 36  1  6
  3 37  1  0
  3 38  1  0
  4 39  1  0
  4 40  1  0
  5 41  1  6
  8 42  1  0
  8 43  1  0
  8 44  1  0
  9 45  1  0
  9 46  1  0
  9 47  1  0
 10 48  1  1
 11 49  1  0
 11 50  1  0
 12 51  1  0
 12 52  1  0
 14 53  1  0
 14 54  1  0
 14 55  1  0
 15 56  1  6
 16 57  1  0
 16 58  1  0
 17 59  1  0
 19 60  1  6
 20 61  1  0
 20 62  1  0
 21 63  1  0
 21 64  1  0
 22 65  1  1
 23 66  1  0
 25 67  1  0
 25 68  1  0
 25 69  1  0
 26 70  1  0
 26 71  1  0
 26 72  1  0
 28 73  1  0
 28 74  1  0
 28 75  1  0
 29 76  1  0
 29 77  1  0
 30 78  1  0
 30 79  1  0
 32 80  1  0
 32 81  1  0
 32 82  1  0
M  END
>  <meeko>  (19) 
{"is_sidechain": [false], "intermolecular_energy": 2.731, "internal_energy": -0.839}

$$$$
