EPH_relaxed_0001_pdb2pqr_Repair_197_r2_0001_out
     RDKit          3D

 82 86  0  0  0  0  0  0  0  0999 V2000
   -1.1450    8.2020   -1.2410 C   0  0  0  0  0  0  0  0  0  0  0  0
   -1.6770    9.0190   -0.0600 C   0  0  2  0  0  0  0  0  0  0  0  0
   -3.1800    9.3310   -0.2000 C   0  0  0  0  0  0  0  0  0  0  0  0
   -3.9010    8.4450   -1.2190 C   0  0  0  0  0  0  0  0  0  0  0  0
   -5.3020    8.1310   -0.7890 C   0  0  2  0  0  0  0  0  0  0  0  0
   -5.5450    6.7480   -0.5040 O   0  0  0  0  0  0  0  0  0  0  0  0
   -6.2650    7.3010   -1.6170 C   0  0  0  0  0  0  0  0  0  0  0  0
   -5.8660    6.7340   -2.9430 C   0  0  0  0  0  0  0  0  0  0  0  0
   -7.7340    7.4520   -1.3700 C   0  0  0  0  0  0  0  0  0  0  0  0
   -0.8860   10.3150    0.0730 C   0  0  1  0  0  0  0  0  0  0  0  0
    0.1970   10.2430    1.1830 C   0  0  0  0  0  0  0  0  0  0  0  0
    1.4010   11.0850    0.6890 C   0  0  0  0  0  0  0  0  0  0  0  0
    0.8520   11.8780   -0.5210 C   0  0  1  0  0  0  0  0  0  0  0  0
    0.0970   13.0930    0.1050 C   0  0  0  0  0  0  0  0  0  0  0  0
    1.9040   12.3370   -1.5820 C   0  0  2  0  0  0  0  0  0  0  0  0
    2.9740   13.3120   -1.0600 C   0  0  0  0  0  0  0  0  0  0  0  0
    2.6330   14.7600   -1.1850 C   0  0  0  0  0  0  0  0  0  0  0  0
    1.6470   15.2680   -1.9470 C   0  0  0  0  0  0  0  0  0  0  0  0
    0.8160   14.3630   -2.8660 C   0  0  1  0  0  0  0  0  0  0  0  0
    0.6940   15.0200   -4.2670 C   0  0  0  0  0  0  0  0  0  0  0  0
    0.1480   16.4430   -4.2000 C   0  0  0  0  0  0  0  0  0  0  0  0
    1.0330   17.3260   -3.3250 C   0  0  2  0  0  0  0  0  0  0  0  0
    2.3030   17.4840   -3.9650 O   0  0  0  0  0  0  0  0  0  0  0  0
    1.2370   16.7600   -1.8910 C   0  0  0  0  0  0  0  0  0  0  0  0
   -0.0870   16.8710   -1.0950 C   0  0  0  0  0  0  0  0  0  0  0  0
    2.2600   17.6700   -1.1600 C   0  0  0  0  0  0  0  0  0  0  0  0
    1.2750   12.8440   -2.9420 C   0  0  1  0  0  0  0  0  0  0  0  0
    2.3770   12.6750   -4.0330 C   0  0  0  0  0  0  0  0  0  0  0  0
    0.0550   11.9610   -3.4030 C   0  0  0  0  0  0  0  0  0  0  0  0
   -0.8810   11.4380   -2.2960 C   0  0  0  0  0  0  0  0  0  0  0  0
   -0.0810   10.7880   -1.1630 C   0  0  2  0  0  0  0  0  0  0  0  0
    0.6710    9.5490   -1.7580 C   0  0  0  0  0  0  0  0  0  0  0  0
   -0.5812    7.3362   -0.8635 H   0  0  0  0  0  0  0  0  0  0  0  0
   -1.9885    7.8514   -1.8539 H   0  0  0  0  0  0  0  0  0  0  0  0
   -0.4832    8.8316   -1.8539 H   0  0  0  0  0  0  0  0  0  0  0  0
   -1.5496    8.4107    0.8476 H   0  0  0  0  0  0  0  0  0  0  0  0
   -3.6567    9.1900    0.7813 H   0  0  0  0  0  0  0  0  0  0  0  0
   -3.2606   10.3668   -0.5613 H   0  0  0  0  0  0  0  0  0  0  0  0
   -3.9339    8.9684   -2.1860 H   0  0  0  0  0  0  0  0  0  0  0  0
   -3.3477    7.4979   -1.3014 H   0  0  0  0  0  0  0  0  0  0  0  0
   -5.4006    9.1162   -0.3098 H   0  0  0  0  0  0  0  0  0  0  0  0
   -5.2393    5.8435   -2.7874 H   0  0  0  0  0  0  0  0  0  0  0  0
   -6.7672    6.4540   -3.5082 H   0  0  0  0  0  0  0  0  0  0  0  0
   -5.2982    7.4877   -3.5082 H   0  0  0  0  0  0  0  0  0  0  0  0
   -7.9236    7.4715   -0.2866 H   0  0  0  0  0  0  0  0  0  0  0  0
   -8.0870    8.3912   -1.8210 H   0  0  0  0  0  0  0  0  0  0  0  0
   -8.2707    6.6043   -1.8210 H   0  0  0  0  0  0  0  0  0  0  0  0
   -1.7113   11.0139    0.2742 H   0  0  0  0  0  0  0  0  0  0  0  0
   -0.1956   10.6586    2.1227 H   0  0  0  0  0  0  0  0  0  0  0  0
    0.4959    9.2021    1.3760 H   0  0  0  0  0  0  0  0  0  0  0  0
    1.7459   11.7696    1.4779 H   0  0  0  0  0  0  0  0  0  0  0  0
    2.2654   10.4598    0.4207 H   0  0  0  0  0  0  0  0  0  0  0  0
    0.1392   13.0252    1.2021 H   0  0  0  0  0  0  0  0  0  0  0  0
    0.5728   14.0289   -0.2230 H   0  0  0  0  0  0  0  0  0  0  0  0
   -0.9529   13.0809   -0.2230 H   0  0  0  0  0  0  0  0  0  0  0  0
    2.4361   11.4008   -1.8064 H   0  0  0  0  0  0  0  0  0  0  0  0
    3.1426   13.0933    0.0048 H   0  0  0  0  0  0  0  0  0  0  0  0
    3.8626   13.1534   -1.6886 H   0  0  0  0  0  0  0  0  0  0  0  0
    3.2389   15.4719   -0.6052 H   0  0  0  0  0  0  0  0  0  0  0  0
   -0.1782   14.2877   -2.4013 H   0  0  0  0  0  0  0  0  0  0  0  0
    1.6904   15.0461   -4.7322 H   0  0  0  0  0  0  0  0  0  0  0  0
   -0.0127   14.4185   -4.8576 H   0  0  0  0  0  0  0  0  0  0  0  0
    0.1125   16.8632   -5.2160 H   0  0  0  0  0  0  0  0  0  0  0  0
   -0.8602   16.4119   -3.7612 H   0  0  0  0  0  0  0  0  0  0  0  0
    0.5228   18.2937   -3.2104 H   0  0  0  0  0  0  0  0  0  0  0  0
    2.1630   18.0050   -4.7730 H   0  0  0  0  0  0  0  0  0  0  0  0
    0.1307   16.8527   -0.0169 H   0  0  0  0  0  0  0  0  0  0  0  0
   -0.5910   17.8145   -1.3514 H   0  0  0  0  0  0  0  0  0  0  0  0
   -0.7410   16.0245   -1.3514 H   0  0  0  0  0  0  0  0  0  0  0  0
    2.1367   17.5603   -0.0724 H   0  0  0  0  0  0  0  0  0  0  0  0
    3.2811   17.3762   -1.4447 H   0  0  0  0  0  0  0  0  0  0  0  0
    2.0872   18.7184   -1.4447 H   0  0  0  0  0  0  0  0  0  0  0  0
    3.3530   12.5253   -3.5482 H   0  0  0  0  0  0  0  0  0  0  0  0
    2.1414   11.8025   -4.6601 H   0  0  0  0  0  0  0  0  0  0  0  0
    2.4137   13.5780   -4.6601 H   0  0  0  0  0  0  0  0  0  0  0  0
   -0.5514   12.5655   -4.0935 H   0  0  0  0  0  0  0  0  0  0  0  0
    0.5031   11.0614   -3.8502 H   0  0  0  0  0  0  0  0  0  0  0  0
   -1.4624   12.2787   -1.8896 H   0  0  0  0  0  0  0  0  0  0  0  0
   -1.5504   10.6815   -2.7313 H   0  0  0  0  0  0  0  0  0  0  0  0
    1.0513    8.9223   -0.9379 H   0  0  0  0  0  0  0  0  0  0  0  0
   -0.0230    8.9614   -2.3769 H   0  0  0  0  0  0  0  0  0  0  0  0
    1.5126    9.8934   -2.3769 H   0  0  0  0  0  0  0  0  0  0  0  0
  1  2  1  0
  2  3  1  0
  3  4  1  0
  4  5  1  0
  5  6  1  0
  6  7  1  0
  7  8  1  0
  7  9  1  0
  2 10  1  0
 10 11  1  0
 11 12  1  0
 12 13  1  0
 13 14  1  1
 13 15  1  0
 15 16  1  0
 16 17  1  0
 17 18  2  0
 18 19  1  0
 19 20  1  0
 20 21  1  0
 21 22  1  0
 22 23  1  0
 22 24  1  0
 24 25  1  0
 24 26  1  0
 19 27  1  0
 27 28  1  6
 27 29  1  0
 29 30  1  0
 30 31  1  0
 31 32  1  6
  7  5  1  0
 31 10  1  0
 31 13  1  0
 27 15  1  0
 24 18  1  0
  1 33  1  0
  1 34  1  0
  1 35  1  0
  2 36  1  1
  3 37  1  0
  3 38  1  0
  4 39  1  0
  4 40  1  0
  5 41  1  1
  8 42  1  0
  8 43  1  0
  8 44  1  0
  9 45  1  0
  9 46  1  0
  9 47  1  0
 10 48  1  1
 11 49  1  0
 11 50  1  0
 12 51  1  0
 12 52  1  0
 14 53  1  0
 14 54  1  0
 14 55  1  0
 15 56  1  6
 16 57  1  0
 16 58  1  0
 17 59  1  0
 19 60  1  1
 20 61  1  0
 20 62  1  0
 21 63  1  0
 21 64  1  0
 22 65  1  1
 23 66  1  0
 25 67  1  0
 25 68  1  0
 25 69  1  0
 26 70  1  0
 26 71  1  0
 26 72  1  0
 28 73  1  0
 28 74  1  0
 28 75  1  0
 29 76  1  0
 29 77  1  0
 30 78  1  0
 30 79  1  0
 32 80  1  0
 32 81  1  0
 32 82  1  0
M  END
>  <meeko>  (1) 
{"is_sidechain": [false], "intermolecular_energy": 2.731, "internal_energy": -0.839}

$$$$
EPH_relaxed_0001_pdb2pqr_Repair_197_r2_0001_out
     RDKit          3D

 82 86  0  0  0  0  0  0  0  0999 V2000
    2.2390   17.4330   -1.5900 C   0  0  0  0  0  0  0  0  0  0  0  0
    1.1650   17.4740   -2.6800 C   0  0  2  0  0  0  0  0  0  0  0  0
   -0.0120   18.3960   -2.3010 C   0  0  0  0  0  0  0  0  0  0  0  0
    0.3660   19.5010   -1.3110 C   0  0  0  0  0  0  0  0  0  0  0  0
   -0.8470   20.1760   -0.7450 C   0  0  2  0  0  0  0  0  0  0  0  0
   -0.9080   20.1940    0.6870 O   0  0  0  0  0  0  0  0  0  0  0  0
   -1.9340   19.4430    0.0180 C   0  0  0  0  0  0  0  0  0  0  0  0
   -1.8600   17.9670    0.2560 C   0  0  0  0  0  0  0  0  0  0  0  0
   -3.2920   20.0660    0.1050 C   0  0  0  0  0  0  0  0  0  0  0  0
    0.6540   16.0660   -2.9600 C   0  0  1  0  0  0  0  0  0  0  0  0
    0.6480   15.7220   -4.4740 C   0  0  0  0  0  0  0  0  0  0  0  0
    0.9950   14.2160   -4.5920 C   0  0  0  0  0  0  0  0  0  0  0  0
    0.8620   13.6710   -3.1510 C   0  0  1  0  0  0  0  0  0  0  0  0
   -0.6670   13.4320   -2.9520 C   0  0  0  0  0  0  0  0  0  0  0  0
    1.6950   12.3900   -2.8170 C   0  0  2  0  0  0  0  0  0  0  0  0
    1.3240   11.1400   -3.6330 C   0  0  0  0  0  0  0  0  0  0  0  0
    0.2710   10.2720   -3.0270 C   0  0  0  0  0  0  0  0  0  0  0  0
   -0.1490   10.3280   -1.7500 C   0  0  0  0  0  0  0  0  0  0  0  0
    0.5190   11.2720   -0.7420 C   0  0  1  0  0  0  0  0  0  0  0  0
    0.8020   10.5040    0.5770 C   0  0  0  0  0  0  0  0  0  0  0  0
   -0.4460    9.8350    1.1430 C   0  0  0  0  0  0  0  0  0  0  0  0
   -1.0480    8.8610    0.1340 C   0  0  2  0  0  0  0  0  0  0  0  0
   -0.1400    7.7720   -0.0550 O   0  0  0  0  0  0  0  0  0  0  0  0
   -1.3660    9.5190   -1.2380 C   0  0  0  0  0  0  0  0  0  0  0  0
   -2.5640   10.4890   -1.0840 C   0  0  0  0  0  0  0  0  0  0  0  0
   -1.8350    8.4010   -2.2070 C   0  0  0  0  0  0  0  0  0  0  0  0
    1.7910   12.0640   -1.2720 C   0  0  1  0  0  0  0  0  0  0  0  0
    3.0750   11.2010   -1.0780 C   0  0  0  0  0  0  0  0  0  0  0  0
    1.9900   13.3590   -0.3980 C   0  0  0  0  0  0  0  0  0  0  0  0
    1.2350   14.6240   -0.8480 C   0  0  0  0  0  0  0  0  0  0  0  0
    1.4460   14.8860   -2.3430 C   0  0  2  0  0  0  0  0  0  0  0  0
    2.9730   15.1520   -2.5700 C   0  0  0  0  0  0  0  0  0  0  0  0
    1.7583   17.4514   -0.6008 H   0  0  0  0  0  0  0  0  0  0  0  0
    2.8310   16.5116   -1.6930 H   0  0  0  0  0  0  0  0  0  0  0  0
    2.8995   18.3066   -1.6930 H   0  0  0  0  0  0  0  0  0  0  0  0
    1.6300   17.8877   -3.5870 H   0  0  0  0  0  0  0  0  0  0  0  0
   -0.3933   18.8675   -3.2188 H   0  0  0  0  0  0  0  0  0  0  0  0
   -0.7673   17.7668   -1.8075 H   0  0  0  0  0  0  0  0  0  0  0  0
    0.9451   19.0587   -0.4870 H   0  0  0  0  0  0  0  0  0  0  0  0
    0.9591   20.2554   -1.8487 H   0  0  0  0  0  0  0  0  0  0  0  0
   -0.8848   20.8726   -1.5955 H   0  0  0  0  0  0  0  0  0  0  0  0
   -1.8501   17.7701    1.3382 H   0  0  0  0  0  0  0  0  0  0  0  0
   -2.7348   17.4781   -0.1977 H   0  0  0  0  0  0  0  0  0  0  0  0
   -0.9407   17.5681   -0.1977 H   0  0  0  0  0  0  0  0  0  0  0  0
   -3.5699   20.1935    1.1617 H   0  0  0  0  0  0  0  0  0  0  0  0
   -3.2776   21.0475   -0.3914 H   0  0  0  0  0  0  0  0  0  0  0  0
   -4.0266   19.4149   -0.3914 H   0  0  0  0  0  0  0  0  0  0  0  0
   -0.3408   16.1359   -2.4959 H   0  0  0  0  0  0  0  0  0  0  0  0
   -0.3462   15.9163   -4.9026 H   0  0  0  0  0  0  0  0  0  0  0  0
    1.3754   16.3389   -5.0220 H   0  0  0  0  0  0  0  0  0  0  0  0
    0.2906   13.7069   -5.2663 H   0  0  0  0  0  0  0  0  0  0  0  0
    1.9992   14.0508   -5.0095 H   0  0  0  0  0  0  0  0  0  0  0  0
   -0.8956   13.3963   -1.8766 H   0  0  0  0  0  0  0  0  0  0  0  0
   -1.2304   14.2530   -3.4195 H   0  0  0  0  0  0  0  0  0  0  0  0
   -0.9529   12.4783   -3.4195 H   0  0  0  0  0  0  0  0  0  0  0  0
    2.7056   12.6730   -3.1467 H   0  0  0  0  0  0  0  0  0  0  0  0
    0.9654   11.4716   -4.6186 H   0  0  0  0  0  0  0  0  0  0  0  0
    2.2352   10.5255   -3.6795 H   0  0  0  0  0  0  0  0  0  0  0  0
   -0.2014    9.5233   -3.6799 H   0  0  0  0  0  0  0  0  0  0  0  0
   -0.2038   12.0801   -0.5560 H   0  0  0  0  0  0  0  0  0  0  0  0
    1.5581    9.7300    0.3791 H   0  0  0  0  0  0  0  0  0  0  0  0
    1.1554   11.2345    1.3196 H   0  0  0  0  0  0  0  0  0  0  0  0
   -0.1768    9.2856    2.0572 H   0  0  0  0  0  0  0  0  0  0  0  0
   -1.1905   10.6132    1.3670 H   0  0  0  0  0  0  0  0  0  0  0  0
   -2.0068    8.5120    0.5451 H   0  0  0  0  0  0  0  0  0  0  0  0
    0.4290    7.7230    0.7320 H   0  0  0  0  0  0  0  0  0  0  0  0
   -2.7674   10.6537   -0.0156 H   0  0  0  0  0  0  0  0  0  0  0  0
   -2.3224   11.4491   -1.5635 H   0  0  0  0  0  0  0  0  0  0  0  0
   -3.4528   10.0530   -1.5635 H   0  0  0  0  0  0  0  0  0  0  0  0
   -2.1963    7.5398   -1.6258 H   0  0  0  0  0  0  0  0  0  0  0  0
   -2.6488    8.7829   -2.8410 H   0  0  0  0  0  0  0  0  0  0  0  0
   -0.9923    8.0880   -2.8410 H   0  0  0  0  0  0  0  0  0  0  0  0
    3.2699   11.0700   -0.0033 H   0  0  0  0  0  0  0  0  0  0  0  0
    2.9295   10.2166   -1.5469 H   0  0  0  0  0  0  0  0  0  0  0  0
    3.9315   11.7075   -1.5469 H   0  0  0  0  0  0  0  0  0  0  0  0
    1.6633   13.1230    0.6255 H   0  0  0  0  0  0  0  0  0  0  0  0
    3.0564   13.6106   -0.4954 H   0  0  0  0  0  0  0  0  0  0  0  0
    0.1605   14.4898   -0.6543 H   0  0  0  0  0  0  0  0  0  0  0  0
    1.6236   15.4840   -0.2829 H   0  0  0  0  0  0  0  0  0  0  0  0
    3.4785   15.2401   -1.5970 H   0  0  0  0  0  0  0  0  0  0  0  0
    3.4105   14.3165   -3.1362 H   0  0  0  0  0  0  0  0  0  0  0  0
    3.1023   16.0862   -3.1362 H   0  0  0  0  0  0  0  0  0  0  0  0
  1  2  1  0
  2  3  1  0
  3  4  1  0
  4  5  1  0
  5  6  1  0
  6  7  1  0
  7  8  1  0
  7  9  1  0
  2 10  1  0
 10 11  1  0
 11 12  1  0
 12 13  1  0
 13 14  1  1
 13 15  1  0
 15 16  1  0
 16 17  1  0
 17 18  2  0
 18 19  1  0
 19 20  1  0
 20 21  1  0
 21 22  1  0
 22 23  1  0
 22 24  1  0
 24 25  1  0
 24 26  1  0
 19 27  1  0
 27 28  1  6
 27 29  1  0
 29 30  1  0
 30 31  1  0
 31 32  1  1
  7  5  1  0
 31 10  1  0
 31 13  1  0
 27 15  1  0
 24 18  1  0
  1 33  1  0
  1 34  1  0
  1 35  1  0
  2 36  1  6
  3 37  1  0
  3 38  1  0
  4 39  1  0
  4 40  1  0
  5 41  1  6
  8 42  1  0
  8 43  1  0
  8 44  1  0
  9 45  1  0
  9 46  1  0
  9 47  1  0
 10 48  1  1
 11 49  1  0
 11 50  1  0
 12 51  1  0
 12 52  1  0
 14 53  1  0
 14 54  1  0
 14 55  1  0
 15 56  1  6
 16 57  1  0
 16 58  1  0
 17 59  1  0
 19 60  1  1
 20 61  1  0
 20 62  1  0
 21 63  1  0
 21 64  1  0
 22 65  1  1
 23 66  1  0
 25 67  1  0
 25 68  1  0
 25 69  1  0
 26 70  1  0
 26 71  1  0
 26 72  1  0
 28 73  1  0
 28 74  1  0
 28 75  1  0
 29 76  1  0
 29 77  1  0
 30 78  1  0
 30 79  1  0
 32 80  1  0
 32 81  1  0
 32 82  1  0
M  END
>  <meeko>  (2) 
{"is_sidechain": [false], "intermolecular_energy": 2.731, "internal_energy": -0.839}

$$$$
EPH_relaxed_0001_pdb2pqr_Repair_197_r2_0001_out
     RDKit          3D

 82 86  0  0  0  0  0  0  0  0999 V2000
   -5.1570    5.8550   -1.6520 C   0  0  0  0  0  0  0  0  0  0  0  0
   -5.4450    7.3570   -1.7380 C   0  0  2  0  0  0  0  0  0  0  0  0
   -5.2170    8.0690   -0.3890 C   0  0  0  0  0  0  0  0  0  0  0  0
   -4.1740    9.1890   -0.4530 C   0  0  0  0  0  0  0  0  0  0  0  0
   -2.8120    8.6590   -0.7850 C   0  0  2  0  0  0  0  0  0  0  0  0
   -1.7960    8.9790    0.1750 O   0  0  0  0  0  0  0  0  0  0  0  0
   -1.6320    9.5470   -1.1350 C   0  0  0  0  0  0  0  0  0  0  0  0
   -1.7610   11.0380   -1.1720 C   0  0  0  0  0  0  0  0  0  0  0  0
   -0.4970    8.9550   -1.9110 C   0  0  0  0  0  0  0  0  0  0  0  0
   -6.8750    7.5860   -2.2130 C   0  0  1  0  0  0  0  0  0  0  0  0
   -7.1720    6.8940   -3.5700 C   0  0  0  0  0  0  0  0  0  0  0  0
   -8.6480    6.4230   -3.5180 C   0  0  0  0  0  0  0  0  0  0  0  0
   -9.2440    7.1420   -2.2850 C   0  0  1  0  0  0  0  0  0  0  0  0
   -9.5890    8.5790   -2.7870 C   0  0  0  0  0  0  0  0  0  0  0  0
  -10.4770    6.4540   -1.6130 C   0  0  2  0  0  0  0  0  0  0  0  0
  -11.7230    6.3330   -2.5070 C   0  0  0  0  0  0  0  0  0  0  0  0
  -12.6770    7.4790   -2.4310 C   0  0  0  0  0  0  0  0  0  0  0  0
  -12.6870    8.4260   -1.4740 C   0  0  0  0  0  0  0  0  0  0  0  0
  -11.7320    8.3450   -0.2750 C   0  0  1  0  0  0  0  0  0  0  0  0
  -12.5190    8.6220    1.0330 C   0  0  0  0  0  0  0  0  0  0  0  0
  -13.2860    9.9390    0.9860 C   0  0  0  0  0  0  0  0  0  0  0  0
  -14.2670    9.9580   -0.1840 C   0  0  2  0  0  0  0  0  0  0  0  0
  -15.2870    8.9850    0.0540 O   0  0  0  0  0  0  0  0  0  0  0  0
  -13.5890    9.6820   -1.5550 C   0  0  0  0  0  0  0  0  0  0  0  0
  -12.7060   10.8900   -1.9530 C   0  0  0  0  0  0  0  0  0  0  0  0
  -14.7060    9.5880   -2.6290 C   0  0  0  0  0  0  0  0  0  0  0  0
  -10.8420    7.0310   -0.1860 C   0  0  1  0  0  0  0  0  0  0  0  0
  -11.6250    5.9080    0.5610 C   0  0  0  0  0  0  0  0  0  0  0  0
   -9.5640    7.3340    0.6820 C   0  0  0  0  0  0  0  0  0  0  0  0
   -8.3390    7.9010   -0.0600 C   0  0  0  0  0  0  0  0  0  0  0  0
   -8.0180    7.0680   -1.3040 C   0  0  2  0  0  0  0  0  0  0  0  0
   -7.6450    5.6220   -0.8290 C   0  0  0  0  0  0  0  0  0  0  0  0
   -5.0990    5.5527   -0.5960 H   0  0  0  0  0  0  0  0  0  0  0  0
   -5.9647    5.2977   -2.1491 H   0  0  0  0  0  0  0  0  0  0  0  0
   -4.2005    5.6360   -2.1491 H   0  0  0  0  0  0  0  0  0  0  0  0
   -4.7395    7.7888   -2.4631 H   0  0  0  0  0  0  0  0  0  0  0  0
   -6.1726    8.5027   -0.0592 H   0  0  0  0  0  0  0  0  0  0  0  0
   -4.8349    7.3133    0.3131 H   0  0  0  0  0  0  0  0  0  0  0  0
   -4.4737    9.9116   -1.2263 H   0  0  0  0  0  0  0  0  0  0  0  0
   -4.1241    9.6683    0.5358 H   0  0  0  0  0  0  0  0  0  0  0  0
   -3.2482    7.7811   -1.2840 H   0  0  0  0  0  0  0  0  0  0  0  0
   -1.7948   11.4287   -0.1443 H   0  0  0  0  0  0  0  0  0  0  0  0
   -0.8967   11.4678   -1.6994 H   0  0  0  0  0  0  0  0  0  0  0  0
   -2.6863   11.3130   -1.6994 H   0  0  0  0  0  0  0  0  0  0  0  0
    0.2577    8.5614   -1.2142 H   0  0  0  0  0  0  0  0  0  0  0  0
   -0.8727    8.1380   -2.5445 H   0  0  0  0  0  0  0  0  0  0  0  0
   -0.0420    9.7306   -2.5445 H   0  0  0  0  0  0  0  0  0  0  0  0
   -6.8859    8.6856   -2.2412 H   0  0  0  0  0  0  0  0  0  0  0  0
   -7.0302    7.6053   -4.3970 H   0  0  0  0  0  0  0  0  0  0  0  0
   -6.4923    6.0456   -3.7379 H   0  0  0  0  0  0  0  0  0  0  0  0
   -9.1817    6.7163   -4.4341 H   0  0  0  0  0  0  0  0  0  0  0  0
   -8.7343    5.3288   -3.4449 H   0  0  0  0  0  0  0  0  0  0  0  0
   -9.7479    9.2409   -1.9229 H   0  0  0  0  0  0  0  0  0  0  0  0
   -8.7578    8.9641   -3.3959 H   0  0  0  0  0  0  0  0  0  0  0  0
  -10.5044    8.5447   -3.3959 H   0  0  0  0  0  0  0  0  0  0  0  0
  -10.1196    5.4252   -1.4588 H   0  0  0  0  0  0  0  0  0  0  0  0
  -11.3853    6.2406   -3.5498 H   0  0  0  0  0  0  0  0  0  0  0  0
  -12.2744    5.4537   -2.1426 H   0  0  0  0  0  0  0  0  0  0  0  0
  -13.4357    7.5561   -3.2237 H   0  0  0  0  0  0  0  0  0  0  0  0
  -10.9793    9.1318   -0.4309 H   0  0  0  0  0  0  0  0  0  0  0  0
  -13.2349    7.8025    1.1940 H   0  0  0  0  0  0  0  0  0  0  0  0
  -11.7896    8.6894    1.8537 H   0  0  0  0  0  0  0  0  0  0  0  0
  -13.8440   10.0643    1.9257 H   0  0  0  0  0  0  0  0  0  0  0  0
  -12.5660   10.7600    0.8537 H   0  0  0  0  0  0  0  0  0  0  0  0
  -14.6919   10.9709   -0.2428 H   0  0  0  0  0  0  0  0  0  0  0  0
  -15.2460    8.7390    0.9940 H   0  0  0  0  0  0  0  0  0  0  0  0
  -12.3396   11.3913   -1.0450 H   0  0  0  0  0  0  0  0  0  0  0  0
  -11.8505   10.5385   -2.5484 H   0  0  0  0  0  0  0  0  0  0  0  0
  -13.3006   11.5985   -2.5484 H   0  0  0  0  0  0  0  0  0  0  0  0
  -15.6848    9.5056   -2.1338 H   0  0  0  0  0  0  0  0  0  0  0  0
  -14.6877   10.4909   -3.2571 H   0  0  0  0  0  0  0  0  0  0  0  0
  -14.5370    8.7009   -3.2571 H   0  0  0  0  0  0  0  0  0  0  0  0
  -11.5250    6.0515    1.6470 H   0  0  0  0  0  0  0  0  0  0  0  0
  -12.6879    5.9539    0.2814 H   0  0  0  0  0  0  0  0  0  0  0  0
  -11.2144    4.9265    0.2814 H   0  0  0  0  0  0  0  0  0  0  0  0
   -9.8515    8.0622    1.4547 H   0  0  0  0  0  0  0  0  0  0  0  0
   -9.2397    6.3563    1.0679 H   0  0  0  0  0  0  0  0  0  0  0  0
   -8.5505    8.9365   -0.3650 H   0  0  0  0  0  0  0  0  0  0  0  0
   -7.4727    7.8685    0.6171 H   0  0  0  0  0  0  0  0  0  0  0  0
   -7.6362    5.5881    0.2704 H   0  0  0  0  0  0  0  0  0  0  0  0
   -8.3881    4.9071   -1.2120 H   0  0  0  0  0  0  0  0  0  0  0  0
   -6.6488    5.3558   -1.2120 H   0  0  0  0  0  0  0  0  0  0  0  0
  1  2  1  0
  2  3  1  0
  3  4  1  0
  4  5  1  0
  5  6  1  0
  6  7  1  0
  7  8  1  0
  7  9  1  0
  2 10  1  0
 10 11  1  0
 11 12  1  0
 12 13  1  0
 13 14  1  6
 13 15  1  0
 15 16  1  0
 16 17  1  0
 17 18  2  0
 18 19  1  0
 19 20  1  0
 20 21  1  0
 21 22  1  0
 22 23  1  0
 22 24  1  0
 24 25  1  0
 24 26  1  0
 19 27  1  0
 27 28  1  1
 27 29  1  0
 29 30  1  0
 30 31  1  0
 31 32  1  1
  7  5  1  0
 31 10  1  0
 31 13  1  0
 27 15  1  0
 24 18  1  0
  1 33  1  0
  1 34  1  0
  1 35  1  0
  2 36  1  6
  3 37  1  0
  3 38  1  0
  4 39  1  0
  4 40  1  0
  5 41  1  6
  8 42  1  0
  8 43  1  0
  8 44  1  0
  9 45  1  0
  9 46  1  0
  9 47  1  0
 10 48  1  6
 11 49  1  0
 11 50  1  0
 12 51  1  0
 12 52  1  0
 14 53  1  0
 14 54  1  0
 14 55  1  0
 15 56  1  1
 16 57  1  0
 16 58  1  0
 17 59  1  0
 19 60  1  6
 20 61  1  0
 20 62  1  0
 21 63  1  0
 21 64  1  0
 22 65  1  6
 23 66  1  0
 25 67  1  0
 25 68  1  0
 25 69  1  0
 26 70  1  0
 26 71  1  0
 26 72  1  0
 28 73  1  0
 28 74  1  0
 28 75  1  0
 29 76  1  0
 29 77  1  0
 30 78  1  0
 30 79  1  0
 32 80  1  0
 32 81  1  0
 32 82  1  0
M  END
>  <meeko>  (3) 
{"is_sidechain": [false], "intermolecular_energy": 2.731, "internal_energy": -0.839}

$$$$
EPH_relaxed_0001_pdb2pqr_Repair_197_r2_0001_out
     RDKit          3D

 82 86  0  0  0  0  0  0  0  0999 V2000
   -1.3230   16.4970   -5.8650 C   0  0  0  0  0  0  0  0  0  0  0  0
   -0.0670   15.7860   -6.3790 C   0  0  2  0  0  0  0  0  0  0  0  0
   -0.1970   15.3750   -7.8590 C   0  0  0  0  0  0  0  0  0  0  0  0
    0.3580   16.4130   -8.8370 C   0  0  0  0  0  0  0  0  0  0  0  0
    1.7670   16.0970   -9.2410 C   0  0  2  0  0  0  0  0  0  0  0  0
    2.2030   16.7410  -10.4460 O   0  0  0  0  0  0  0  0  0  0  0  0
    2.1220   15.3070  -10.4870 C   0  0  0  0  0  0  0  0  0  0  0  0
    1.0650   14.7830  -11.4070 C   0  0  0  0  0  0  0  0  0  0  0  0
    3.4560   14.6300  -10.5480 C   0  0  0  0  0  0  0  0  0  0  0  0
    0.2240   14.5600   -5.5210 C   0  0  1  0  0  0  0  0  0  0  0  0
    1.1510   13.5390   -6.2330 C   0  0  0  0  0  0  0  0  0  0  0  0
    2.0440   12.9050   -5.1350 C   0  0  0  0  0  0  0  0  0  0  0  0
    1.3840   13.3290   -3.8020 C   0  0  1  0  0  0  0  0  0  0  0  0
    0.2060   12.3250   -3.6010 C   0  0  0  0  0  0  0  0  0  0  0  0
    2.3210   13.3780   -2.5520 C   0  0  2  0  0  0  0  0  0  0  0  0
    2.9430   12.0290   -2.1500 C   0  0  0  0  0  0  0  0  0  0  0  0
    2.1480   11.2270   -1.1730 C   0  0  0  0  0  0  0  0  0  0  0  0
    1.1300   11.6910   -0.4240 C   0  0  0  0  0  0  0  0  0  0  0  0
    0.7490   13.1770   -0.4480 C   0  0  1  0  0  0  0  0  0  0  0  0
    0.5540   13.6850    1.0050 C   0  0  0  0  0  0  0  0  0  0  0  0
   -0.4430   12.8390    1.7910 C   0  0  0  0  0  0  0  0  0  0  0  0
    0.0010   11.3790    1.8420 C   0  0  2  0  0  0  0  0  0  0  0  0
    1.2010   11.2890    2.6160 O   0  0  0  0  0  0  0  0  0  0  0  0
    0.2380   10.7620    0.4350 C   0  0  0  0  0  0  0  0  0  0  0  0
   -1.1180   10.5830   -0.2900 C   0  0  0  0  0  0  0  0  0  0  0  0
    0.8170    9.3350    0.6320 C   0  0  0  0  0  0  0  0  0  0  0  0
    1.6980   14.1230   -1.3030 C   0  0  1  0  0  0  0  0  0  0  0  0
    2.8960   14.6050   -0.4290 C   0  0  0  0  0  0  0  0  0  0  0  0
    0.8990   15.4160   -1.7150 C   0  0  0  0  0  0  0  0  0  0  0  0
    0.0880   15.3440   -3.0220 C   0  0  0  0  0  0  0  0  0  0  0  0
    0.9420   14.7930   -4.1680 C   0  0  2  0  0  0  0  0  0  0  0  0
    2.1230   15.7940   -4.4090 C   0  0  0  0  0  0  0  0  0  0  0  0
   -1.3208   16.4958   -4.7650 H   0  0  0  0  0  0  0  0  0  0  0  0
   -1.3325   17.5345   -6.2305 H   0  0  0  0  0  0  0  0  0  0  0  0
   -2.2174   15.9713   -6.2305 H   0  0  0  0  0  0  0  0  0  0  0  0
    0.7690   16.4972   -6.3066 H   0  0  0  0  0  0  0  0  0  0  0  0
    0.3494   14.4318   -8.0067 H   0  0  0  0  0  0  0  0  0  0  0  0
   -1.2716   15.2754   -8.0717 H   0  0  0  0  0  0  0  0  0  0  0  0
   -0.2754   16.4299   -9.7362 H   0  0  0  0  0  0  0  0  0  0  0  0
    0.3566   17.3919   -8.3352 H   0  0  0  0  0  0  0  0  0  0  0  0
    2.0706   15.9918   -8.1890 H   0  0  0  0  0  0  0  0  0  0  0  0
    0.2346   14.3713  -10.8147 H   0  0  0  0  0  0  0  0  0  0  0  0
    0.6927   15.6009  -12.0414 H   0  0  0  0  0  0  0  0  0  0  0  0
    1.4906   13.9915  -12.0414 H   0  0  0  0  0  0  0  0  0  0  0  0
    3.8204   14.4451   -9.5267 H   0  0  0  0  0  0  0  0  0  0  0  0
    3.3574   13.6729  -11.0811 H   0  0  0  0  0  0  0  0  0  0  0  0
    4.1703   15.2747  -11.0811 H   0  0  0  0  0  0  0  0  0  0  0  0
   -0.8038   14.2094   -5.3458 H   0  0  0  0  0  0  0  0  0  0  0  0
    0.5497   12.7621   -6.7277 H   0  0  0  0  0  0  0  0  0  0  0  0
    1.7620   14.0308   -7.0042 H   0  0  0  0  0  0  0  0  0  0  0  0
    2.0575   11.8092   -5.2303 H   0  0  0  0  0  0  0  0  0  0  0  0
    3.0906   13.2360   -5.2060 H   0  0  0  0  0  0  0  0  0  0  0  0
    0.0309   12.1758   -2.5253 H   0  0  0  0  0  0  0  0  0  0  0  0
   -0.7042   12.7294   -4.0680 H   0  0  0  0  0  0  0  0  0  0  0  0
    0.4610   11.3623   -4.0680 H   0  0  0  0  0  0  0  0  0  0  0  0
    3.1569   13.9981   -2.9080 H   0  0  0  0  0  0  0  0  0  0  0  0
    3.0682   11.4270   -3.0621 H   0  0  0  0  0  0  0  0  0  0  0  0
    3.8916   12.2686   -1.6472 H   0  0  0  0  0  0  0  0  0  0  0  0
    2.4170   10.1669   -1.0552 H   0  0  0  0  0  0  0  0  0  0  0  0
   -0.2029   13.2378   -0.9959 H   0  0  0  0  0  0  0  0  0  0  0  0
    1.5247   13.6571    1.5217 H   0  0  0  0  0  0  0  0  0  0  0  0
    0.1540   14.7082    0.9504 H   0  0  0  0  0  0  0  0  0  0  0  0
   -0.5161   13.2291    2.8169 H   0  0  0  0  0  0  0  0  0  0  0  0
   -1.4204   12.8914    1.2890 H   0  0  0  0  0  0  0  0  0  0  0  0
   -0.8134   10.8018    2.3043 H   0  0  0  0  0  0  0  0  0  0  0  0
    1.2290   12.0610    3.2060 H   0  0  0  0  0  0  0  0  0  0  0  0
   -1.9207   10.4770    0.4546 H   0  0  0  0  0  0  0  0  0  0  0  0
   -1.3160   11.4628   -0.9199 H   0  0  0  0  0  0  0  0  0  0  0  0
   -1.0809    9.6820   -0.9199 H   0  0  0  0  0  0  0  0  0  0  0  0
    0.9043    9.1199    1.7072 H   0  0  0  0  0  0  0  0  0  0  0  0
    0.1462    8.5993    0.1642 H   0  0  0  0  0  0  0  0  0  0  0  0
    1.8107    9.2747    0.1642 H   0  0  0  0  0  0  0  0  0  0  0  0
    2.6384   14.5014    0.6354 H   0  0  0  0  0  0  0  0  0  0  0  0
    3.7826   13.9936   -0.6529 H   0  0  0  0  0  0  0  0  0  0  0  0
    3.1121   15.6601   -0.6529 H   0  0  0  0  0  0  0  0  0  0  0  0
    0.1972   15.6472   -0.9002 H   0  0  0  0  0  0  0  0  0  0  0  0
    1.6663   16.1836   -1.8943 H   0  0  0  0  0  0  0  0  0  0  0  0
   -0.7798   14.6851   -2.8711 H   0  0  0  0  0  0  0  0  0  0  0  0
   -0.2409   16.3597   -3.2869 H   0  0  0  0  0  0  0  0  0  0  0  0
    2.5211   16.1314   -3.4406 H   0  0  0  0  0  0  0  0  0  0  0  0
    2.9193   15.2915   -4.9778 H   0  0  0  0  0  0  0  0  0  0  0  0
    1.7578   16.6618   -4.9778 H   0  0  0  0  0  0  0  0  0  0  0  0
  1  2  1  0
  2  3  1  0
  3  4  1  0
  4  5  1  0
  5  6  1  0
  6  7  1  0
  7  8  1  0
  7  9  1  0
  2 10  1  0
 10 11  1  0
 11 12  1  0
 12 13  1  0
 13 14  1  1
 13 15  1  0
 15 16  1  0
 16 17  1  0
 17 18  2  0
 18 19  1  0
 19 20  1  0
 20 21  1  0
 21 22  1  0
 22 23  1  0
 22 24  1  0
 24 25  1  0
 24 26  1  0
 19 27  1  0
 27 28  1  1
 27 29  1  0
 29 30  1  0
 30 31  1  0
 31 32  1  6
  7  5  1  0
 31 10  1  0
 31 13  1  0
 27 15  1  0
 24 18  1  0
  1 33  1  0
  1 34  1  0
  1 35  1  0
  2 36  1  6
  3 37  1  0
  3 38  1  0
  4 39  1  0
  4 40  1  0
  5 41  1  1
  8 42  1  0
  8 43  1  0
  8 44  1  0
  9 45  1  0
  9 46  1  0
  9 47  1  0
 10 48  1  1
 11 49  1  0
 11 50  1  0
 12 51  1  0
 12 52  1  0
 14 53  1  0
 14 54  1  0
 14 55  1  0
 15 56  1  6
 16 57  1  0
 16 58  1  0
 17 59  1  0
 19 60  1  6
 20 61  1  0
 20 62  1  0
 21 63  1  0
 21 64  1  0
 22 65  1  1
 23 66  1  0
 25 67  1  0
 25 68  1  0
 25 69  1  0
 26 70  1  0
 26 71  1  0
 26 72  1  0
 28 73  1  0
 28 74  1  0
 28 75  1  0
 29 76  1  0
 29 77  1  0
 30 78  1  0
 30 79  1  0
 32 80  1  0
 32 81  1  0
 32 82  1  0
M  END
>  <meeko>  (4) 
{"is_sidechain": [false], "intermolecular_energy": 2.731, "internal_energy": -0.839}

$$$$
EPH_relaxed_0001_pdb2pqr_Repair_197_r2_0001_out
     RDKit          3D

 82 86  0  0  0  0  0  0  0  0999 V2000
    0.1560    8.6600   -2.2370 C   0  0  0  0  0  0  0  0  0  0  0  0
    0.8920    9.7780   -2.9800 C   0  0  2  0  0  0  0  0  0  0  0  0
    2.4040    9.7780   -2.6780 C   0  0  0  0  0  0  0  0  0  0  0  0
    3.2550   10.3920   -3.7940 C   0  0  0  0  0  0  0  0  0  0  0  0
    4.6400   10.7160   -3.3210 C   0  0  2  0  0  0  0  0  0  0  0  0
    5.1710   11.9480   -3.8250 O   0  0  0  0  0  0  0  0  0  0  0  0
    5.8490   10.7500   -4.2370 C   0  0  0  0  0  0  0  0  0  0  0  0
    5.7300   10.4560   -5.6990 C   0  0  0  0  0  0  0  0  0  0  0  0
    7.2090   10.5890   -3.6320 C   0  0  0  0  0  0  0  0  0  0  0  0
    0.2880   11.1290   -2.6170 C   0  0  1  0  0  0  0  0  0  0  0  0
   -1.0020   10.9970   -1.7650 C   0  0  0  0  0  0  0  0  0  0  0  0
   -1.0100   12.1910   -0.7770 C   0  0  0  0  0  0  0  0  0  0  0  0
    0.0870   13.1440   -1.3070 C   0  0  1  0  0  0  0  0  0  0  0  0
   -0.5960   13.9360   -2.4660 C   0  0  0  0  0  0  0  0  0  0  0  0
    0.7360   14.1030   -0.2560 C   0  0  2  0  0  0  0  0  0  0  0  0
   -0.2300   15.1090    0.3930 C   0  0  0  0  0  0  0  0  0  0  0  0
   -0.3540   16.4200   -0.3100 C   0  0  0  0  0  0  0  0  0  0  0  0
    0.4890   16.8850   -1.2510 C   0  0  0  0  0  0  0  0  0  0  0  0
    1.7580   16.1080   -1.6260 C   0  0  1  0  0  0  0  0  0  0  0  0
    2.9640   17.0820   -1.6810 C   0  0  0  0  0  0  0  0  0  0  0  0
    2.7140   18.2700   -2.6040 C   0  0  0  0  0  0  0  0  0  0  0  0
    1.4790   19.0520   -2.1650 C   0  0  2  0  0  0  0  0  0  0  0  0
    1.7450   19.6610   -0.8980 O   0  0  0  0  0  0  0  0  0  0  0  0
    0.2010   18.1720   -2.0630 C   0  0  0  0  0  0  0  0  0  0  0  0
   -0.2600   17.7580   -3.4830 C   0  0  0  0  0  0  0  0  0  0  0  0
   -0.9370   19.0490   -1.4760 C   0  0  0  0  0  0  0  0  0  0  0  0
    2.0590   14.8120   -0.7560 C   0  0  1  0  0  0  0  0  0  0  0  0
    2.8650   15.2030    0.5200 C   0  0  0  0  0  0  0  0  0  0  0  0
    2.9820   13.8410   -1.5840 C   0  0  0  0  0  0  0  0  0  0  0  0
    2.2770   12.8360   -2.5140 C   0  0  0  0  0  0  0  0  0  0  0  0
    1.1600   12.0940   -1.7740 C   0  0  2  0  0  0  0  0  0  0  0  0
    1.8190   11.2700   -0.6160 C   0  0  0  0  0  0  0  0  0  0  0  0
    0.2565    8.8126   -1.1523 H   0  0  0  0  0  0  0  0  0  0  0  0
   -0.9088    8.6759   -2.5124 H   0  0  0  0  0  0  0  0  0  0  0  0
    0.5915    7.6882   -2.5124 H   0  0  0  0  0  0  0  0  0  0  0  0
    0.7707    9.5947   -4.0578 H   0  0  0  0  0  0  0  0  0  0  0  0
    2.5739   10.3527   -1.7556 H   0  0  0  0  0  0  0  0  0  0  0  0
    2.7122    8.7266   -2.5803 H   0  0  0  0  0  0  0  0  0  0  0  0
    3.3210    9.6763   -4.6267 H   0  0  0  0  0  0  0  0  0  0  0  0
    2.7749   11.3280   -4.1157 H   0  0  0  0  0  0  0  0  0  0  0  0
    4.4560   10.2127   -2.3604 H   0  0  0  0  0  0  0  0  0  0  0  0
    5.3206    9.4445   -5.8375 H   0  0  0  0  0  0  0  0  0  0  0  0
    5.0584   11.1907   -6.1673 H   0  0  0  0  0  0  0  0  0  0  0  0
    6.7235   10.5167   -6.1673 H   0  0  0  0  0  0  0  0  0  0  0  0
    7.1259   10.5988   -2.5352 H   0  0  0  0  0  0  0  0  0  0  0  0
    7.6446    9.6330   -3.9582 H   0  0  0  0  0  0  0  0  0  0  0  0
    7.8557   11.4169   -3.9582 H   0  0  0  0  0  0  0  0  0  0  0  0
    0.1374   11.5410   -3.6258 H   0  0  0  0  0  0  0  0  0  0  0  0
   -1.8897   11.0360   -2.4134 H   0  0  0  0  0  0  0  0  0  0  0  0
   -1.0227   10.0384   -1.2259 H   0  0  0  0  0  0  0  0  0  0  0  0
   -1.9907   12.6892   -0.7780 H   0  0  0  0  0  0  0  0  0  0  0  0
   -0.8227   11.8754    0.2600 H   0  0  0  0  0  0  0  0  0  0  0  0
   -1.2593   14.7051   -2.0434 H   0  0  0  0  0  0  0  0  0  0  0  0
    0.1752   14.4170   -3.0856 H   0  0  0  0  0  0  0  0  0  0  0  0
   -1.1852   13.2439   -3.0856 H   0  0  0  0  0  0  0  0  0  0  0  0
    1.0290   13.4101    0.5465 H   0  0  0  0  0  0  0  0  0  0  0  0
   -1.2277   14.6472    0.4290 H   0  0  0  0  0  0  0  0  0  0  0  0
    0.1878   15.3346    1.3853 H   0  0  0  0  0  0  0  0  0  0  0  0
   -1.2058   17.0599   -0.0361 H   0  0  0  0  0  0  0  0  0  0  0  0
    1.5732   15.6865   -2.6251 H   0  0  0  0  0  0  0  0  0  0  0  0
    3.1596   17.4588   -0.6662 H   0  0  0  0  0  0  0  0  0  0  0  0
    3.8252   16.5252   -2.0789 H   0  0  0  0  0  0  0  0  0  0  0  0
    3.5893   18.9358   -2.5788 H   0  0  0  0  0  0  0  0  0  0  0  0
    2.5464   17.8930   -3.6237 H   0  0  0  0  0  0  0  0  0  0  0  0
    1.2777   19.8103   -2.9360 H   0  0  0  0  0  0  0  0  0  0  0  0
    1.5090   19.0190   -0.2070 H   0  0  0  0  0  0  0  0  0  0  0  0
   -1.0763   17.0249   -3.4043 H   0  0  0  0  0  0  0  0  0  0  0  0
   -0.6156   18.6458   -4.0265 H   0  0  0  0  0  0  0  0  0  0  0  0
    0.5846   17.3093   -4.0265 H   0  0  0  0  0  0  0  0  0  0  0  0
   -0.8952   19.0168   -0.3773 H   0  0  0  0  0  0  0  0  0  0  0  0
   -0.8130   20.0873   -1.8173 H   0  0  0  0  0  0  0  0  0  0  0  0
   -1.9094   18.6645   -1.8173 H   0  0  0  0  0  0  0  0  0  0  0  0
    2.2909   14.9245    1.4160 H   0  0  0  0  0  0  0  0  0  0  0  0
    3.8284   14.6721    0.5221 H   0  0  0  0  0  0  0  0  0  0  0  0
    3.0444   16.2883    0.5221 H   0  0  0  0  0  0  0  0  0  0  0  0
    3.6444   14.4613   -2.2057 H   0  0  0  0  0  0  0  0  0  0  0  0
    3.4977   13.2246   -0.8329 H   0  0  0  0  0  0  0  0  0  0  0  0
    1.8445   13.3782   -3.3678 H   0  0  0  0  0  0  0  0  0  0  0  0
    3.0174   12.0998   -2.8602 H   0  0  0  0  0  0  0  0  0  0  0  0
    1.4944   11.6758    0.3535 H   0  0  0  0  0  0  0  0  0  0  0  0
    1.5112   10.2168   -0.6942 H   0  0  0  0  0  0  0  0  0  0  0  0
    2.9141   11.3388   -0.6942 H   0  0  0  0  0  0  0  0  0  0  0  0
  1  2  1  0
  2  3  1  0
  3  4  1  0
  4  5  1  0
  5  6  1  0
  6  7  1  0
  7  8  1  0
  7  9  1  0
  2 10  1  0
 10 11  1  0
 11 12  1  0
 12 13  1  0
 13 14  1  6
 13 15  1  0
 15 16  1  0
 16 17  1  0
 17 18  2  0
 18 19  1  0
 19 20  1  0
 20 21  1  0
 21 22  1  0
 22 23  1  0
 22 24  1  0
 24 25  1  0
 24 26  1  0
 19 27  1  0
 27 28  1  1
 27 29  1  0
 29 30  1  0
 30 31  1  0
 31 32  1  1
  7  5  1  0
 31 10  1  0
 31 13  1  0
 27 15  1  0
 24 18  1  0
  1 33  1  0
  1 34  1  0
  1 35  1  0
  2 36  1  6
  3 37  1  0
  3 38  1  0
  4 39  1  0
  4 40  1  0
  5 41  1  1
  8 42  1  0
  8 43  1  0
  8 44  1  0
  9 45  1  0
  9 46  1  0
  9 47  1  0
 10 48  1  6
 11 49  1  0
 11 50  1  0
 12 51  1  0
 12 52  1  0
 14 53  1  0
 14 54  1  0
 14 55  1  0
 15 56  1  1
 16 57  1  0
 16 58  1  0
 17 59  1  0
 19 60  1  6
 20 61  1  0
 20 62  1  0
 21 63  1  0
 21 64  1  0
 22 65  1  6
 23 66  1  0
 25 67  1  0
 25 68  1  0
 25 69  1  0
 26 70  1  0
 26 71  1  0
 26 72  1  0
 28 73  1  0
 28 74  1  0
 28 75  1  0
 29 76  1  0
 29 77  1  0
 30 78  1  0
 30 79  1  0
 32 80  1  0
 32 81  1  0
 32 82  1  0
M  END
>  <meeko>  (5) 
{"is_sidechain": [false], "intermolecular_energy": 2.731, "internal_energy": -0.839}

$$$$
EPH_relaxed_0001_pdb2pqr_Repair_197_r2_0001_out
     RDKit          3D

 82 86  0  0  0  0  0  0  0  0999 V2000
   -3.8010    7.1760   -3.3910 C   0  0  0  0  0  0  0  0  0  0  0  0
   -3.8240    7.2730   -1.8630 C   0  0  2  0  0  0  0  0  0  0  0  0
   -5.2420    7.0780   -1.2900 C   0  0  0  0  0  0  0  0  0  0  0  0
   -6.3560    7.2920   -2.3180 C   0  0  0  0  0  0  0  0  0  0  0  0
   -7.6870    7.4950   -1.6590 C   0  0  2  0  0  0  0  0  0  0  0  0
   -8.2730    6.3050   -1.1150 O   0  0  0  0  0  0  0  0  0  0  0  0
   -8.9840    6.9230   -2.2000 C   0  0  0  0  0  0  0  0  0  0  0  0
   -9.0140    6.1040   -3.4520 C   0  0  0  0  0  0  0  0  0  0  0  0
  -10.2740    7.5620   -1.7890 C   0  0  0  0  0  0  0  0  0  0  0  0
   -3.2640    8.6190   -1.4200 C   0  0  1  0  0  0  0  0  0  0  0  0
   -3.8740    9.1080   -0.0790 C   0  0  0  0  0  0  0  0  0  0  0  0
   -2.7490    9.8600    0.6770 C   0  0  0  0  0  0  0  0  0  0  0  0
   -1.6390   10.0670   -0.3800 C   0  0  1  0  0  0  0  0  0  0  0  0
   -2.0950   11.3150   -1.1990 C   0  0  0  0  0  0  0  0  0  0  0  0
   -0.1850   10.2360    0.1680 C   0  0  2  0  0  0  0  0  0  0  0  0
    0.0360   11.4680    1.0630 C   0  0  0  0  0  0  0  0  0  0  0  0
    0.4620   12.7080    0.3480 C   0  0  0  0  0  0  0  0  0  0  0  0
    0.9340   12.7610   -0.9110 C   0  0  0  0  0  0  0  0  0  0  0  0
    1.1710   11.4780   -1.7180 C   0  0  1  0  0  0  0  0  0  0  0  0
    2.5610   11.5470   -2.4030 C   0  0  0  0  0  0  0  0  0  0  0  0
    2.7380   12.8070   -3.2450 C   0  0  0  0  0  0  0  0  0  0  0  0
    2.5520   14.0610   -2.3940 C   0  0  2  0  0  0  0  0  0  0  0  0
    3.6220   14.1380   -1.4470 O   0  0  0  0  0  0  0  0  0  0  0  0
    1.1890   14.0990   -1.6480 C   0  0  0  0  0  0  0  0  0  0  0  0
    0.0440   14.3190   -2.6670 C   0  0  0  0  0  0  0  0  0  0  0  0
    1.1890   15.3430   -0.7180 C   0  0  0  0  0  0  0  0  0  0  0  0
    0.9420   10.1140   -0.9360 C   0  0  1  0  0  0  0  0  0  0  0  0
    2.2500    9.7010   -0.1930 C   0  0  0  0  0  0  0  0  0  0  0  0
    0.6410    8.9700   -1.9740 C   0  0  0  0  0  0  0  0  0  0  0  0
   -0.8310    8.7750   -2.3860 C   0  0  0  0  0  0  0  0  0  0  0  0
   -1.7390    8.7030   -1.1550 C   0  0  2  0  0  0  0  0  0  0  0  0
   -1.3190    7.4440   -0.3220 C   0  0  0  0  0  0  0  0  0  0  0  0
   -3.5567    6.1458   -3.6894 H   0  0  0  0  0  0  0  0  0  0  0  0
   -4.7888    7.4490   -3.7906 H   0  0  0  0  0  0  0  0  0  0  0  0
   -3.0410    7.8635   -3.7906 H   0  0  0  0  0  0  0  0  0  0  0  0
   -3.1949    6.4607   -1.4701 H   0  0  0  0  0  0  0  0  0  0  0  0
   -5.3212    6.0523   -0.9006 H   0  0  0  0  0  0  0  0  0  0  0  0
   -5.3787    7.8366   -0.5053 H   0  0  0  0  0  0  0  0  0  0  0  0
   -6.1180    8.1801   -2.9219 H   0  0  0  0  0  0  0  0  0  0  0  0
   -6.4189    6.3924   -2.9478 H   0  0  0  0  0  0  0  0  0  0  0  0
   -7.4030    8.5099   -1.3439 H   0  0  0  0  0  0  0  0  0  0  0  0
   -9.0531    5.0362   -3.1908 H   0  0  0  0  0  0  0  0  0  0  0  0
   -9.9030    6.3698   -4.0428 H   0  0  0  0  0  0  0  0  0  0  0  0
   -8.1079    6.3040   -4.0428 H   0  0  0  0  0  0  0  0  0  0  0  0
  -10.3348    7.5921   -0.6911 H   0  0  0  0  0  0  0  0  0  0  0  0
  -10.3188    8.5865   -2.1870 H   0  0  0  0  0  0  0  0  0  0  0  0
  -11.1162    6.9769   -2.1870 H   0  0  0  0  0  0  0  0  0  0  0  0
   -3.5276    9.2261   -2.2986 H   0  0  0  0  0  0  0  0  0  0  0  0
   -4.7189    9.7854   -0.2720 H   0  0  0  0  0  0  0  0  0  0  0  0
   -4.2514    8.2623    0.5146 H   0  0  0  0  0  0  0  0  0  0  0  0
   -3.1131   10.8278    1.0523 H   0  0  0  0  0  0  0  0  0  0  0  0
   -2.3906    9.3014    1.5542 H   0  0  0  0  0  0  0  0  0  0  0  0
   -2.3889   12.1193   -0.5085 H   0  0  0  0  0  0  0  0  0  0  0  0
   -1.2651   11.6608   -1.8328 H   0  0  0  0  0  0  0  0  0  0  0  0
   -2.9523   11.0444   -1.8328 H   0  0  0  0  0  0  0  0  0  0  0  0
   -0.0795    9.3635    0.8296 H   0  0  0  0  0  0  0  0  0  0  0  0
   -0.9086   11.6835    1.5838 H   0  0  0  0  0  0  0  0  0  0  0  0
    0.8631   11.2078    1.7399 H   0  0  0  0  0  0  0  0  0  0  0  0
    0.3833   13.6581    0.8968 H   0  0  0  0  0  0  0  0  0  0  0  0
    0.3798   11.4484   -2.4816 H   0  0  0  0  0  0  0  0  0  0  0  0
    3.3384   11.5311   -1.6249 H   0  0  0  0  0  0  0  0  0  0  0  0
    2.6438   10.6815   -3.0769 H   0  0  0  0  0  0  0  0  0  0  0  0
    3.7493   12.8120   -3.6777 H   0  0  0  0  0  0  0  0  0  0  0  0
    1.9795   12.8070   -4.0417 H   0  0  0  0  0  0  0  0  0  0  0  0
    2.5606   14.9256   -3.0740 H   0  0  0  0  0  0  0  0  0  0  0  0
    4.1280   13.3100   -1.5070 H   0  0  0  0  0  0  0  0  0  0  0  0
   -0.8973   14.4999   -2.1274 H   0  0  0  0  0  0  0  0  0  0  0  0
    0.2774   15.1887   -3.2987 H   0  0  0  0  0  0  0  0  0  0  0  0
   -0.0615   13.4247   -3.2987 H   0  0  0  0  0  0  0  0  0  0  0  0
    2.2261   15.6367   -0.4985 H   0  0  0  0  0  0  0  0  0  0  0  0
    0.6705   16.1745   -1.2178 H   0  0  0  0  0  0  0  0  0  0  0  0
    0.6705   15.0989    0.2209 H   0  0  0  0  0  0  0  0  0  0  0  0
    2.0864    9.7527    0.8935 H   0  0  0  0  0  0  0  0  0  0  0  0
    2.5225    8.6731   -0.4743 H   0  0  0  0  0  0  0  0  0  0  0  0
    3.0634   10.3860   -0.4743 H   0  0  0  0  0  0  0  0  0  0  0  0
    1.2156    9.1887   -2.8861 H   0  0  0  0  0  0  0  0  0  0  0  0
    0.9230    8.0371   -1.4639 H   0  0  0  0  0  0  0  0  0  0  0  0
   -1.1439    9.6214   -3.0151 H   0  0  0  0  0  0  0  0  0  0  0  0
   -0.9177    7.8298   -2.9419 H   0  0  0  0  0  0  0  0  0  0  0  0
   -1.3952    7.6724    0.7513 H   0  0  0  0  0  0  0  0  0  0  0  0
   -1.9855    6.6037   -0.5663 H   0  0  0  0  0  0  0  0  0  0  0  0
   -0.2815    7.1721   -0.5663 H   0  0  0  0  0  0  0  0  0  0  0  0
  1  2  1  0
  2  3  1  0
  3  4  1  0
  4  5  1  0
  5  6  1  0
  6  7  1  0
  7  8  1  0
  7  9  1  0
  2 10  1  0
 10 11  1  0
 11 12  1  0
 12 13  1  0
 13 14  1  6
 13 15  1  0
 15 16  1  0
 16 17  1  0
 17 18  2  0
 18 19  1  0
 19 20  1  0
 20 21  1  0
 21 22  1  0
 22 23  1  0
 22 24  1  0
 24 25  1  0
 24 26  1  0
 19 27  1  0
 27 28  1  1
 27 29  1  0
 29 30  1  0
 30 31  1  0
 31 32  1  1
  7  5  1  0
 31 10  1  0
 31 13  1  0
 27 15  1  0
 24 18  1  0
  1 33  1  0
  1 34  1  0
  1 35  1  0
  2 36  1  1
  3 37  1  0
  3 38  1  0
  4 39  1  0
  4 40  1  0
  5 41  1  1
  8 42  1  0
  8 43  1  0
  8 44  1  0
  9 45  1  0
  9 46  1  0
  9 47  1  0
 10 48  1  6
 11 49  1  0
 11 50  1  0
 12 51  1  0
 12 52  1  0
 14 53  1  0
 14 54  1  0
 14 55  1  0
 15 56  1  1
 16 57  1  0
 16 58  1  0
 17 59  1  0
 19 60  1  6
 20 61  1  0
 20 62  1  0
 21 63  1  0
 21 64  1  0
 22 65  1  6
 23 66  1  0
 25 67  1  0
 25 68  1  0
 25 69  1  0
 26 70  1  0
 26 71  1  0
 26 72  1  0
 28 73  1  0
 28 74  1  0
 28 75  1  0
 29 76  1  0
 29 77  1  0
 30 78  1  0
 30 79  1  0
 32 80  1  0
 32 81  1  0
 32 82  1  0
M  END
>  <meeko>  (6) 
{"is_sidechain": [false], "intermolecular_energy": 2.731, "internal_energy": -0.839}

$$$$
EPH_relaxed_0001_pdb2pqr_Repair_197_r2_0001_out
     RDKit          3D

 82 86  0  0  0  0  0  0  0  0999 V2000
   -0.8420   16.3460   -5.8250 C   0  0  0  0  0  0  0  0  0  0  0  0
    0.2390   15.6370   -6.6460 C   0  0  2  0  0  0  0  0  0  0  0  0
   -0.1740   15.4600   -8.1210 C   0  0  0  0  0  0  0  0  0  0  0  0
    0.4500   16.4930   -9.0630 C   0  0  0  0  0  0  0  0  0  0  0  0
    1.8520   16.1220   -9.4420 C   0  0  2  0  0  0  0  0  0  0  0  0
    2.3110   16.6960  -10.6730 O   0  0  0  0  0  0  0  0  0  0  0  0
    2.1950   15.2640  -10.6450 C   0  0  0  0  0  0  0  0  0  0  0  0
    1.1290   14.7220  -11.5460 C   0  0  0  0  0  0  0  0  0  0  0  0
    3.5110   14.5520  -10.6640 C   0  0  0  0  0  0  0  0  0  0  0  0
    0.5550   14.2810   -6.0260 C   0  0  1  0  0  0  0  0  0  0  0  0
    1.8170   13.6210   -6.6440 C   0  0  0  0  0  0  0  0  0  0  0  0
    2.5250   12.8500   -5.5000 C   0  0  0  0  0  0  0  0  0  0  0  0
    1.4860   12.8130   -4.3550 C   0  0  1  0  0  0  0  0  0  0  0  0
    0.5250   11.6380   -4.7230 C   0  0  0  0  0  0  0  0  0  0  0  0
    2.0580   12.6590   -2.9080 C   0  0  2  0  0  0  0  0  0  0  0  0
    2.8240   11.3500   -2.6450 C   0  0  0  0  0  0  0  0  0  0  0  0
    1.9960   10.2180   -2.1360 C   0  0  0  0  0  0  0  0  0  0  0  0
    0.7530   10.3230   -1.6300 C   0  0  0  0  0  0  0  0  0  0  0  0
    0.0930   11.6950   -1.4410 C   0  0  1  0  0  0  0  0  0  0  0  0
   -0.5520   11.7700   -0.0320 C   0  0  0  0  0  0  0  0  0  0  0  0
   -1.5160   10.6180    0.2320 C   0  0  0  0  0  0  0  0  0  0  0  0
   -0.8090    9.2720    0.0920 C   0  0  2  0  0  0  0  0  0  0  0  0
    0.1570    9.1470    1.1400 O   0  0  0  0  0  0  0  0  0  0  0  0
   -0.1130    9.0860   -1.2850 C   0  0  0  0  0  0  0  0  0  0  0  0
   -1.1840    8.9190   -2.3910 C   0  0  0  0  0  0  0  0  0  0  0  0
    0.6790    7.7520   -1.2440 C   0  0  0  0  0  0  0  0  0  0  0  0
    1.0080   12.9540   -1.7610 C   0  0  1  0  0  0  0  0  0  0  0  0
    1.8300   13.3500   -0.4960 C   0  0  0  0  0  0  0  0  0  0  0  0
    0.0880   14.1870   -2.0960 C   0  0  0  0  0  0  0  0  0  0  0  0
   -0.3460   14.3520   -3.5650 C   0  0  0  0  0  0  0  0  0  0  0  0
    0.8570   14.2450   -4.5070 C   0  0  2  0  0  0  0  0  0  0  0  0
    1.8300   15.4270   -4.1750 C   0  0  0  0  0  0  0  0  0  0  0  0
   -0.6359   16.2108   -4.7530 H   0  0  0  0  0  0  0  0  0  0  0  0
   -0.8407   17.4192   -6.0662 H   0  0  0  0  0  0  0  0  0  0  0  0
   -1.8259   15.9172   -6.0662 H   0  0  0  0  0  0  0  0  0  0  0  0
    1.1373   16.2717   -6.6299 H   0  0  0  0  0  0  0  0  0  0  0  0
    0.1362   14.4574   -8.4506 H   0  0  0  0  0  0  0  0  0  0  0  0
   -1.2642   15.5988   -8.1685 H   0  0  0  0  0  0  0  0  0  0  0  0
   -0.1607   16.5580   -9.9756 H   0  0  0  0  0  0  0  0  0  0  0  0
    0.4807   17.4600   -8.5396 H   0  0  0  0  0  0  0  0  0  0  0  0
    2.1463   16.0598   -8.3839 H   0  0  0  0  0  0  0  0  0  0  0  0
    0.3117   14.3064  -10.9383 H   0  0  0  0  0  0  0  0  0  0  0  0
    0.7390   15.5313  -12.1808 H   0  0  0  0  0  0  0  0  0  0  0  0
    1.5532   13.9301  -12.1808 H   0  0  0  0  0  0  0  0  0  0  0  0
    3.8450   14.3713   -9.6316 H   0  0  0  0  0  0  0  0  0  0  0  0
    3.4003   13.5907  -11.1872 H   0  0  0  0  0  0  0  0  0  0  0  0
    4.2551   15.1706  -11.1872 H   0  0  0  0  0  0  0  0  0  0  0  0
   -0.3910   13.7595   -6.2336 H   0  0  0  0  0  0  0  0  0  0  0  0
    1.5268   12.9263   -7.4459 H   0  0  0  0  0  0  0  0  0  0  0  0
    2.4842   14.3781   -7.0817 H   0  0  0  0  0  0  0  0  0  0  0  0
    2.7854   11.8308   -5.8214 H   0  0  0  0  0  0  0  0  0  0  0  0
    3.4669   13.3288   -5.1940 H   0  0  0  0  0  0  0  0  0  0  0  0
    0.1447   11.1730   -3.8015 H   0  0  0  0  0  0  0  0  0  0  0  0
   -0.3185   12.0253   -5.3133 H   0  0  0  0  0  0  0  0  0  0  0  0
    1.0720   10.8881   -5.3133 H   0  0  0  0  0  0  0  0  0  0  0  0
    2.8109   13.4599   -2.8656 H   0  0  0  0  0  0  0  0  0  0  0  0
    3.2892   11.0327   -3.5900 H   0  0  0  0  0  0  0  0  0  0  0  0
    3.5503   11.5769   -1.8506 H   0  0  0  0  0  0  0  0  0  0  0  0
    2.4390    9.2120   -2.1778 H   0  0  0  0  0  0  0  0  0  0  0  0
   -0.6876   11.7659   -2.2128 H   0  0  0  0  0  0  0  0  0  0  0  0
    0.2470   11.7414    0.7235 H   0  0  0  0  0  0  0  0  0  0  0  0
   -1.1273   12.7060    0.0224 H   0  0  0  0  0  0  0  0  0  0  0  0
   -1.9161   10.7101    1.2525 H   0  0  0  0  0  0  0  0  0  0  0  0
   -2.3303   10.6654   -0.5061 H   0  0  0  0  0  0  0  0  0  0  0  0
   -1.5766    8.4874    0.1640 H   0  0  0  0  0  0  0  0  0  0  0  0
    0.8960    9.7430    0.9310 H   0  0  0  0  0  0  0  0  0  0  0  0
   -2.1694    8.7653   -1.9270 H   0  0  0  0  0  0  0  0  0  0  0  0
   -1.2100    9.8239   -3.0158 H   0  0  0  0  0  0  0  0  0  0  0  0
   -0.9333    8.0491   -3.0158 H   0  0  0  0  0  0  0  0  0  0  0  0
    0.8521    7.4604   -0.1976 H   0  0  0  0  0  0  0  0  0  0  0  0
    0.1008    6.9665   -1.7527 H   0  0  0  0  0  0  0  0  0  0  0  0
    1.6454    7.8836   -1.7527 H   0  0  0  0  0  0  0  0  0  0  0  0
    1.2655   13.0780    0.4081 H   0  0  0  0  0  0  0  0  0  0  0  0
    2.7919   12.8165   -0.5020 H   0  0  0  0  0  0  0  0  0  0  0  0
    2.0123   14.4348   -0.5020 H   0  0  0  0  0  0  0  0  0  0  0  0
   -0.8241   14.0964   -1.4879 H   0  0  0  0  0  0  0  0  0  0  0  0
    0.7028   15.0724   -1.8767 H   0  0  0  0  0  0  0  0  0  0  0  0
   -1.0714   13.5643   -3.8166 H   0  0  0  0  0  0  0  0  0  0  0  0
   -0.8000   15.3465   -3.6872 H   0  0  0  0  0  0  0  0  0  0  0  0
    1.9181   15.5340   -3.0838 H   0  0  0  0  0  0  0  0  0  0  0  0
    2.8210   15.2177   -4.6041 H   0  0  0  0  0  0  0  0  0  0  0  0
    1.4342   16.3593   -4.6041 H   0  0  0  0  0  0  0  0  0  0  0  0
  1  2  1  0
  2  3  1  0
  3  4  1  0
  4  5  1  0
  5  6  1  0
  6  7  1  0
  7  8  1  0
  7  9  1  0
  2 10  1  0
 10 11  1  0
 11 12  1  0
 12 13  1  0
 13 14  1  6
 13 15  1  0
 15 16  1  0
 16 17  1  0
 17 18  2  0
 18 19  1  0
 19 20  1  0
 20 21  1  0
 21 22  1  0
 22 23  1  0
 22 24  1  0
 24 25  1  0
 24 26  1  0
 19 27  1  0
 27 28  1  1
 27 29  1  0
 29 30  1  0
 30 31  1  0
 31 32  1  1
  7  5  1  0
 31 10  1  0
 31 13  1  0
 27 15  1  0
 24 18  1  0
  1 33  1  0
  1 34  1  0
  1 35  1  0
  2 36  1  6
  3 37  1  0
  3 38  1  0
  4 39  1  0
  4 40  1  0
  5 41  1  1
  8 42  1  0
  8 43  1  0
  8 44  1  0
  9 45  1  0
  9 46  1  0
  9 47  1  0
 10 48  1  1
 11 49  1  0
 11 50  1  0
 12 51  1  0
 12 52  1  0
 14 53  1  0
 14 54  1  0
 14 55  1  0
 15 56  1  6
 16 57  1  0
 16 58  1  0
 17 59  1  0
 19 60  1  6
 20 61  1  0
 20 62  1  0
 21 63  1  0
 21 64  1  0
 22 65  1  1
 23 66  1  0
 25 67  1  0
 25 68  1  0
 25 69  1  0
 26 70  1  0
 26 71  1  0
 26 72  1  0
 28 73  1  0
 28 74  1  0
 28 75  1  0
 29 76  1  0
 29 77  1  0
 30 78  1  0
 30 79  1  0
 32 80  1  0
 32 81  1  0
 32 82  1  0
M  END
>  <meeko>  (7) 
{"is_sidechain": [false], "intermolecular_energy": 2.731, "internal_energy": -0.839}

$$$$
EPH_relaxed_0001_pdb2pqr_Repair_197_r2_0001_out
     RDKit          3D

 82 86  0  0  0  0  0  0  0  0999 V2000
   -0.2940   15.0870   -7.6380 C   0  0  0  0  0  0  0  0  0  0  0  0
    1.0770   15.0710   -6.9570 C   0  0  2  0  0  0  0  0  0  0  0  0
    2.2320   15.1640   -7.9750 C   0  0  0  0  0  0  0  0  0  0  0  0
    2.2590   16.4810   -8.7560 C   0  0  0  0  0  0  0  0  0  0  0  0
    1.8650   16.2830  -10.1890 C   0  0  2  0  0  0  0  0  0  0  0  0
    1.2060   15.0400  -10.4630 O   0  0  0  0  0  0  0  0  0  0  0  0
    2.4850   15.2320  -11.0900 C   0  0  0  0  0  0  0  0  0  0  0  0
    3.5520   14.3080  -10.5920 C   0  0  0  0  0  0  0  0  0  0  0  0
    2.4060   15.4230  -12.5720 C   0  0  0  0  0  0  0  0  0  0  0  0
    1.2250   13.8090   -6.1160 C   0  0  1  0  0  0  0  0  0  0  0  0
    2.6570   13.2140   -6.1780 C   0  0  0  0  0  0  0  0  0  0  0  0
    2.9530   12.6130   -4.7800 C   0  0  0  0  0  0  0  0  0  0  0  0
    1.5790   12.5830   -4.0690 C   0  0  1  0  0  0  0  0  0  0  0  0
    0.8750   11.3000   -4.6110 C   0  0  0  0  0  0  0  0  0  0  0  0
    1.6080   12.6100   -2.5070 C   0  0  2  0  0  0  0  0  0  0  0  0
    2.3000   11.4040   -1.8460 C   0  0  0  0  0  0  0  0  0  0  0  0
    1.4060   10.2510   -1.5300 C   0  0  0  0  0  0  0  0  0  0  0  0
    0.0610   10.2880   -1.5030 C   0  0  0  0  0  0  0  0  0  0  0  0
   -0.6950   11.6070   -1.7120 C   0  0  1  0  0  0  0  0  0  0  0  0
   -1.8000   11.7470   -0.6330 C   0  0  0  0  0  0  0  0  0  0  0  0
   -2.7320   10.5410   -0.5900 C   0  0  0  0  0  0  0  0  0  0  0  0
   -1.9510    9.2570   -0.3220 C   0  0  2  0  0  0  0  0  0  0  0  0
   -1.4140    9.3130    1.0040 O   0  0  0  0  0  0  0  0  0  0  0  0
   -0.8030    9.0140   -1.3410 C   0  0  0  0  0  0  0  0  0  0  0  0
   -1.4020    8.6540   -2.7230 C   0  0  0  0  0  0  0  0  0  0  0  0
   -0.0070    7.7650   -0.8750 C   0  0  0  0  0  0  0  0  0  0  0  0
    0.2060   12.9100   -1.8370 C   0  0  1  0  0  0  0  0  0  0  0  0
    0.5040   13.4880   -0.4200 C   0  0  0  0  0  0  0  0  0  0  0  0
   -0.6000   14.0210   -2.6090 C   0  0  0  0  0  0  0  0  0  0  0  0
   -0.4930   14.0150   -4.1460 C   0  0  0  0  0  0  0  0  0  0  0  0
    0.9700   13.9350   -4.5930 C   0  0  2  0  0  0  0  0  0  0  0  0
    1.6980   15.2240   -4.0820 C   0  0  0  0  0  0  0  0  0  0  0  0
   -1.0837   15.0962   -6.8723 H   0  0  0  0  0  0  0  0  0  0  0  0
   -0.3812   15.9862   -8.2655 H   0  0  0  0  0  0  0  0  0  0  0  0
   -0.4022   14.1901   -8.2655 H   0  0  0  0  0  0  0  0  0  0  0  0
    1.1351   15.9582   -6.3094 H   0  0  0  0  0  0  0  0  0  0  0  0
    3.1830   15.0629   -7.4315 H   0  0  0  0  0  0  0  0  0  0  0  0
    2.0802   14.3582   -8.7083 H   0  0  0  0  0  0  0  0  0  0  0  0
    1.5581   17.1878   -8.2878 H   0  0  0  0  0  0  0  0  0  0  0  0
    3.2867   16.8725   -8.7335 H   0  0  0  0  0  0  0  0  0  0  0  0
    1.7048   17.3636  -10.3181 H   0  0  0  0  0  0  0  0  0  0  0  0
    3.5525   14.3075   -9.4920 H   0  0  0  0  0  0  0  0  0  0  0  0
    3.3559   13.2897  -10.9590 H   0  0  0  0  0  0  0  0  0  0  0  0
    4.5318   14.6476  -10.9590 H   0  0  0  0  0  0  0  0  0  0  0  0
    1.9941   16.4190  -12.7919 H   0  0  0  0  0  0  0  0  0  0  0  0
    3.4129   15.3385  -13.0068 H   0  0  0  0  0  0  0  0  0  0  0  0
    1.7530   14.6519  -13.0068 H   0  0  0  0  0  0  0  0  0  0  0  0
    0.4440   13.1873   -6.5781 H   0  0  0  0  0  0  0  0  0  0  0  0
    2.7078   12.4285   -6.9464 H   0  0  0  0  0  0  0  0  0  0  0  0
    3.3947   13.9869   -6.4397 H   0  0  0  0  0  0  0  0  0  0  0  0
    3.3642   11.5970   -4.8732 H   0  0  0  0  0  0  0  0  0  0  0  0
    3.6982   13.1999   -4.2230 H   0  0  0  0  0  0  0  0  0  0  0  0
    0.5363   10.6828   -3.7658 H   0  0  0  0  0  0  0  0  0  0  0  0
    0.0088   11.5885   -5.2246 H   0  0  0  0  0  0  0  0  0  0  0  0
    1.5836   10.7244   -5.2246 H   0  0  0  0  0  0  0  0  0  0  0  0
    2.2530   13.4763   -2.2986 H   0  0  0  0  0  0  0  0  0  0  0  0
    3.0864   11.0476   -2.5276 H   0  0  0  0  0  0  0  0  0  0  0  0
    2.6844   11.7649   -0.8806 H   0  0  0  0  0  0  0  0  0  0  0  0
    1.8876    9.2893   -1.2996 H   0  0  0  0  0  0  0  0  0  0  0  0
   -1.1544   11.5398   -2.7092 H   0  0  0  0  0  0  0  0  0  0  0  0
   -1.3202   11.8570    0.3507 H   0  0  0  0  0  0  0  0  0  0  0  0
   -2.4064   12.6284   -0.8888 H   0  0  0  0  0  0  0  0  0  0  0  0
   -3.4718   10.6862    0.2110 H   0  0  0  0  0  0  0  0  0  0  0  0
   -3.2334   10.4499   -1.5648 H   0  0  0  0  0  0  0  0  0  0  0  0
   -2.6509    8.4156   -0.4324 H   0  0  0  0  0  0  0  0  0  0  0  0
   -2.0770    8.9340    1.6060 H   0  0  0  0  0  0  0  0  0  0  0  0
   -2.3371    8.0920   -2.5822 H   0  0  0  0  0  0  0  0  0  0  0  0
   -1.6099    9.5769   -3.2842 H   0  0  0  0  0  0  0  0  0  0  0  0
   -0.6845    8.0373   -3.2842 H   0  0  0  0  0  0  0  0  0  0  0  0
    0.0137    7.7325    0.2243 H   0  0  0  0  0  0  0  0  0  0  0  0
   -0.4928    6.8561   -1.2596 H   0  0  0  0  0  0  0  0  0  0  0  0
    1.0220    7.8215   -1.2596 H   0  0  0  0  0  0  0  0  0  0  0  0
    0.1421   12.7862    0.3458 H   0  0  0  0  0  0  0  0  0  0  0  0
    1.5883   13.6312   -0.3030 H   0  0  0  0  0  0  0  0  0  0  0  0
   -0.0082   14.4544   -0.3030 H   0  0  0  0  0  0  0  0  0  0  0  0
   -1.6623   13.9029   -2.3489 H   0  0  0  0  0  0  0  0  0  0  0  0
   -0.1513   14.9743   -2.2929 H   0  0  0  0  0  0  0  0  0  0  0  0
   -1.0382   13.1453   -4.5414 H   0  0  0  0  0  0  0  0  0  0  0  0
   -0.9272   14.9492   -4.5317 H   0  0  0  0  0  0  0  0  0  0  0  0
    1.7020   15.2311   -2.9820 H   0  0  0  0  0  0  0  0  0  0  0  0
    2.7337   15.2314   -4.4525 H   0  0  0  0  0  0  0  0  0  0  0  0
    1.1696   16.1148   -4.4525 H   0  0  0  0  0  0  0  0  0  0  0  0
  1  2  1  0
  2  3  1  0
  3  4  1  0
  4  5  1  0
  5  6  1  0
  6  7  1  0
  7  8  1  0
  7  9  1  0
  2 10  1  0
 10 11  1  0
 11 12  1  0
 12 13  1  0
 13 14  1  1
 13 15  1  0
 15 16  1  0
 16 17  1  0
 17 18  2  0
 18 19  1  0
 19 20  1  0
 20 21  1  0
 21 22  1  0
 22 23  1  0
 22 24  1  0
 24 25  1  0
 24 26  1  0
 19 27  1  0
 27 28  1  1
 27 29  1  0
 29 30  1  0
 30 31  1  0
 31 32  1  1
  7  5  1  0
 31 10  1  0
 31 13  1  0
 27 15  1  0
 24 18  1  0
  1 33  1  0
  1 34  1  0
  1 35  1  0
  2 36  1  1
  3 37  1  0
  3 38  1  0
  4 39  1  0
  4 40  1  0
  5 41  1  6
  8 42  1  0
  8 43  1  0
  8 44  1  0
  9 45  1  0
  9 46  1  0
  9 47  1  0
 10 48  1  6
 11 49  1  0
 11 50  1  0
 12 51  1  0
 12 52  1  0
 14 53  1  0
 14 54  1  0
 14 55  1  0
 15 56  1  6
 16 57  1  0
 16 58  1  0
 17 59  1  0
 19 60  1  6
 20 61  1  0
 20 62  1  0
 21 63  1  0
 21 64  1  0
 22 65  1  1
 23 66  1  0
 25 67  1  0
 25 68  1  0
 25 69  1  0
 26 70  1  0
 26 71  1  0
 26 72  1  0
 28 73  1  0
 28 74  1  0
 28 75  1  0
 29 76  1  0
 29 77  1  0
 30 78  1  0
 30 79  1  0
 32 80  1  0
 32 81  1  0
 32 82  1  0
M  END
>  <meeko>  (8) 
{"is_sidechain": [false], "intermolecular_energy": 2.731, "internal_energy": -0.839}

$$$$
EPH_relaxed_0001_pdb2pqr_Repair_197_r2_0001_out
     RDKit          3D

 82 86  0  0  0  0  0  0  0  0999 V2000
   -2.2760    7.8510   -2.1740 C   0  0  0  0  0  0  0  0  0  0  0  0
   -2.1920    8.4440   -0.7650 C   0  0  2  0  0  0  0  0  0  0  0  0
   -3.5530    8.4150   -0.0400 C   0  0  0  0  0  0  0  0  0  0  0  0
   -4.7550    8.5050   -0.9830 C   0  0  0  0  0  0  0  0  0  0  0  0
   -5.5680    7.2470   -0.9680 C   0  0  2  0  0  0  0  0  0  0  0  0
   -5.6340    6.5610   -2.2250 O   0  0  0  0  0  0  0  0  0  0  0  0
   -6.8740    7.0850   -1.7230 C   0  0  0  0  0  0  0  0  0  0  0  0
   -7.4420    8.1980   -2.5460 C   0  0  0  0  0  0  0  0  0  0  0  0
   -7.8360    6.0300   -1.2710 C   0  0  0  0  0  0  0  0  0  0  0  0
   -1.6700    9.8750   -0.8340 C   0  0  1  0  0  0  0  0  0  0  0  0
   -1.2340   10.4190    0.5520 C   0  0  0  0  0  0  0  0  0  0  0  0
   -0.0150   11.3450    0.3060 C   0  0  0  0  0  0  0  0  0  0  0  0
    0.0040   11.5660   -1.2250 C   0  0  1  0  0  0  0  0  0  0  0  0
   -1.0560   12.6830   -1.4820 C   0  0  0  0  0  0  0  0  0  0  0  0
    1.3880   11.9290   -1.8540 C   0  0  2  0  0  0  0  0  0  0  0  0
    2.0000   13.2530   -1.3650 C   0  0  0  0  0  0  0  0  0  0  0  0
    1.6360   14.4590   -2.1660 C   0  0  0  0  0  0  0  0  0  0  0  0
    1.0850   14.4450   -3.3940 C   0  0  0  0  0  0  0  0  0  0  0  0
    0.8640   13.1240   -4.1430 C   0  0  1  0  0  0  0  0  0  0  0  0
    1.3590   13.2690   -5.6060 C   0  0  0  0  0  0  0  0  0  0  0  0
    0.7270   14.4590   -6.3220 C   0  0  0  0  0  0  0  0  0  0  0  0
    1.0190   15.7600   -5.5790 C   0  0  2  0  0  0  0  0  0  0  0  0
    2.4220   16.0300   -5.6550 O   0  0  0  0  0  0  0  0  0  0  0  0
    0.5720   15.7290   -4.0910 C   0  0  0  0  0  0  0  0  0  0  0  0
   -0.9740   15.7400   -4.0110 C   0  0  0  0  0  0  0  0  0  0  0  0
    1.0510   17.0460   -3.4210 C   0  0  0  0  0  0  0  0  0  0  0  0
    1.4310   11.8210   -3.4320 C   0  0  1  0  0  0  0  0  0  0  0  0
    2.9260   11.6100   -3.8230 C   0  0  0  0  0  0  0  0  0  0  0  0
    0.6510   10.5620   -3.9670 C   0  0  0  0  0  0  0  0  0  0  0  0
   -0.6470   10.1840   -3.2290 C   0  0  0  0  0  0  0  0  0  0  0  0
   -0.4220   10.1340   -1.7150 C   0  0  2  0  0  0  0  0  0  0  0  0
    0.6240    9.0040   -1.4240 C   0  0  0  0  0  0  0  0  0  0  0  0
   -2.4300    6.7640   -2.1057 H   0  0  0  0  0  0  0  0  0  0  0  0
   -3.1185    8.3075   -2.7143 H   0  0  0  0  0  0  0  0  0  0  0  0
   -1.3399    8.0555   -2.7143 H   0  0  0  0  0  0  0  0  0  0  0  0
   -1.4955    7.8208   -0.1849 H   0  0  0  0  0  0  0  0  0  0  0  0
   -3.6251    7.4743    0.5256 H   0  0  0  0  0  0  0  0  0  0  0  0
   -3.5888    9.3006    0.6115 H   0  0  0  0  0  0  0  0  0  0  0  0
   -5.3922    9.3447   -0.6687 H   0  0  0  0  0  0  0  0  0  0  0  0
   -4.3777    8.6566   -2.0051 H   0  0  0  0  0  0  0  0  0  0  0  0
   -5.2926    7.0545    0.0794 H   0  0  0  0  0  0  0  0  0  0  0  0
   -7.8405    8.9789   -1.8816 H   0  0  0  0  0  0  0  0  0  0  0  0
   -6.6516    8.6250   -3.1807 H   0  0  0  0  0  0  0  0  0  0  0  0
   -8.2515    7.8084   -3.1807 H   0  0  0  0  0  0  0  0  0  0  0  0
   -7.8606    6.0030   -0.1716 H   0  0  0  0  0  0  0  0  0  0  0  0
   -8.8406    6.2612   -1.6547 H   0  0  0  0  0  0  0  0  0  0  0  0
   -7.5133    5.0509   -1.6547 H   0  0  0  0  0  0  0  0  0  0  0  0
   -2.5488   10.3718   -1.2710 H   0  0  0  0  0  0  0  0  0  0  0  0
   -2.0557   10.9884    1.0110 H   0  0  0  0  0  0  0  0  0  0  0  0
   -0.9739    9.5968    1.2349 H   0  0  0  0  0  0  0  0  0  0  0  0
   -0.1407   12.3013    0.8349 H   0  0  0  0  0  0  0  0  0  0  0  0
    0.9235   10.9065    0.6760 H   0  0  0  0  0  0  0  0  0  0  0  0
   -1.4225   13.0692   -0.5194 H   0  0  0  0  0  0  0  0  0  0  0  0
   -0.5947   13.5017   -2.0538 H   0  0  0  0  0  0  0  0  0  0  0  0
   -1.8977   12.2652   -2.0538 H   0  0  0  0  0  0  0  0  0  0  0  0
    2.0406   11.1352   -1.4615 H   0  0  0  0  0  0  0  0  0  0  0  0
    1.6669   13.4194   -0.3299 H   0  0  0  0  0  0  0  0  0  0  0  0
    3.0896   13.1394   -1.4648 H   0  0  0  0  0  0  0  0  0  0  0  0
    1.8349   15.4422   -1.7145 H   0  0  0  0  0  0  0  0  0  0  0  0
   -0.2215   12.9462   -4.1330 H   0  0  0  0  0  0  0  0  0  0  0  0
    2.4509   13.4019   -5.5973 H   0  0  0  0  0  0  0  0  0  0  0  0
    1.0665   12.3584   -6.1494 H   0  0  0  0  0  0  0  0  0  0  0  0
    1.1375   14.5260   -7.3403 H   0  0  0  0  0  0  0  0  0  0  0  0
   -0.3624   14.3106   -6.3557 H   0  0  0  0  0  0  0  0  0  0  0  0
    0.4352   16.5555   -6.0651 H   0  0  0  0  0  0  0  0  0  0  0  0
    2.5880   16.8600   -5.1780 H   0  0  0  0  0  0  0  0  0  0  0  0
   -1.2866   15.7422   -2.9563 H   0  0  0  0  0  0  0  0  0  0  0  0
   -1.3606   16.6409   -4.5099 H   0  0  0  0  0  0  0  0  0  0  0  0
   -1.3734   14.8447   -4.5099 H   0  0  0  0  0  0  0  0  0  0  0  0
    1.0112   16.9365   -2.3272 H   0  0  0  0  0  0  0  0  0  0  0  0
    2.0846   17.2601   -3.7307 H   0  0  0  0  0  0  0  0  0  0  0  0
    0.3965   17.8741   -3.7307 H   0  0  0  0  0  0  0  0  0  0  0  0
    3.5349   11.5241   -2.9110 H   0  0  0  0  0  0  0  0  0  0  0  0
    3.0232   10.6892   -4.4169 H   0  0  0  0  0  0  0  0  0  0  0  0
    3.2743   12.4679   -4.4169 H   0  0  0  0  0  0  0  0  0  0  0  0
    0.3922   10.7531   -5.0189 H   0  0  0  0  0  0  0  0  0  0  0  0
    1.3311    9.7125   -3.8067 H   0  0  0  0  0  0  0  0  0  0  0  0
   -1.4199   10.9338   -3.4534 H   0  0  0  0  0  0  0  0  0  0  0  0
   -0.9666    9.1879   -3.5692 H   0  0  0  0  0  0  0  0  0  0  0  0
    0.7379    8.8809   -0.3369 H   0  0  0  0  0  0  0  0  0  0  0  0
    0.2750    8.0588   -1.8654 H   0  0  0  0  0  0  0  0  0  0  0  0
    1.5933    9.2790   -1.8654 H   0  0  0  0  0  0  0  0  0  0  0  0
  1  2  1  0
  2  3  1  0
  3  4  1  0
  4  5  1  0
  5  6  1  0
  6  7  1  0
  7  8  1  0
  7  9  1  0
  2 10  1  0
 10 11  1  0
 11 12  1  0
 12 13  1  0
 13 14  1  1
 13 15  1  0
 15 16  1  0
 16 17  1  0
 17 18  2  0
 18 19  1  0
 19 20  1  0
 20 21  1  0
 21 22  1  0
 22 23  1  0
 22 24  1  0
 24 25  1  0
 24 26  1  0
 19 27  1  0
 27 28  1  6
 27 29  1  0
 29 30  1  0
 30 31  1  0
 31 32  1  6
  7  5  1  0
 31 10  1  0
 31 13  1  0
 27 15  1  0
 24 18  1  0
  1 33  1  0
  1 34  1  0
  1 35  1  0
  2 36  1  1
  3 37  1  0
  3 38  1  0
  4 39  1  0
  4 40  1  0
  5 41  1  1
  8 42  1  0
  8 43  1  0
  8 44  1  0
  9 45  1  0
  9 46  1  0
  9 47  1  0
 10 48  1  6
 11 49  1  0
 11 50  1  0
 12 51  1  0
 12 52  1  0
 14 53  1  0
 14 54  1  0
 14 55  1  0
 15 56  1  1
 16 57  1  0
 16 58  1  0
 17 59  1  0
 19 60  1  6
 20 61  1  0
 20 62  1  0
 21 63  1  0
 21 64  1  0
 22 65  1  6
 23 66  1  0
 25 67  1  0
 25 68  1  0
 25 69  1  0
 26 70  1  0
 26 71  1  0
 26 72  1  0
 28 73  1  0
 28 74  1  0
 28 75  1  0
 29 76  1  0
 29 77  1  0
 30 78  1  0
 30 79  1  0
 32 80  1  0
 32 81  1  0
 32 82  1  0
M  END
>  <meeko>  (9) 
{"is_sidechain": [false], "intermolecular_energy": 2.731, "internal_energy": -0.839}

$$$$
EPH_relaxed_0001_pdb2pqr_Repair_197_r2_0001_out
     RDKit          3D

 82 86  0  0  0  0  0  0  0  0999 V2000
   -1.5200   14.7500    1.0460 C   0  0  0  0  0  0  0  0  0  0  0  0
   -0.2760   15.4570    0.5020 C   0  0  2  0  0  0  0  0  0  0  0  0
   -0.5850   16.2890   -0.7590 C   0  0  0  0  0  0  0  0  0  0  0  0
    0.5390   17.2520   -1.1520 C   0  0  0  0  0  0  0  0  0  0  0  0
    0.0330   18.3770   -2.0030 C   0  0  2  0  0  0  0  0  0  0  0  0
    0.4810   19.6780   -1.6040 O   0  0  0  0  0  0  0  0  0  0  0  0
   -0.9310   19.4360   -1.5030 C   0  0  0  0  0  0  0  0  0  0  0  0
   -1.4470   19.4210   -0.0980 C   0  0  0  0  0  0  0  0  0  0  0  0
   -1.7460   20.1930   -2.5050 C   0  0  0  0  0  0  0  0  0  0  0  0
    0.8110   14.4330    0.1960 C   0  0  1  0  0  0  0  0  0  0  0  0
    0.9960   13.3980    1.3380 C   0  0  0  0  0  0  0  0  0  0  0  0
    1.3550   12.0490    0.6650 C   0  0  0  0  0  0  0  0  0  0  0  0
    1.6890   12.4190   -0.7990 C   0  0  1  0  0  0  0  0  0  0  0  0
    3.1630   12.9340   -0.7560 C   0  0  0  0  0  0  0  0  0  0  0  0
    1.5050   11.2840   -1.8590 C   0  0  2  0  0  0  0  0  0  0  0  0
    2.4070   10.0540   -1.6600 C   0  0  0  0  0  0  0  0  0  0  0  0
    3.7240   10.1080   -2.3610 C   0  0  0  0  0  0  0  0  0  0  0  0
    4.0520   10.9680   -3.3430 C   0  0  0  0  0  0  0  0  0  0  0  0
    3.0160   11.9460   -3.9130 C   0  0  1  0  0  0  0  0  0  0  0  0
    3.0780   11.9220   -5.4630 C   0  0  0  0  0  0  0  0  0  0  0  0
    4.4830   12.1840   -5.9960 C   0  0  0  0  0  0  0  0  0  0  0  0
    5.4730   11.1560   -5.4530 C   0  0  2  0  0  0  0  0  0  0  0  0
    5.1450    9.8720   -5.9910 O   0  0  0  0  0  0  0  0  0  0  0  0
    5.4920   11.0840   -3.9010 C   0  0  0  0  0  0  0  0  0  0  0  0
    6.1330   12.3720   -3.3270 C   0  0  0  0  0  0  0  0  0  0  0  0
    6.4250    9.9140   -3.4890 C   0  0  0  0  0  0  0  0  0  0  0  0
    1.5350   11.7870   -3.3590 C   0  0  1  0  0  0  0  0  0  0  0  0
    0.7630   10.7250   -4.2000 C   0  0  0  0  0  0  0  0  0  0  0  0
    0.7660   13.1480   -3.5490 C   0  0  0  0  0  0  0  0  0  0  0  0
    0.8910   14.1810   -2.4130 C   0  0  0  0  0  0  0  0  0  0  0  0
    0.6130   13.5360   -1.0520 C   0  0  2  0  0  0  0  0  0  0  0  0
   -0.8700   13.0290   -1.0580 C   0  0  0  0  0  0  0  0  0  0  0  0
   -1.4975   14.7628    2.1457 H   0  0  0  0  0  0  0  0  0  0  0  0
   -2.4220   15.2705    0.6916 H   0  0  0  0  0  0  0  0  0  0  0  0
   -1.5344   13.7088    0.6916 H   0  0  0  0  0  0  0  0  0  0  0  0
    0.0752   16.1526    1.2784 H   0  0  0  0  0  0  0  0  0  0  0  0
   -0.7590   15.5979   -1.5969 H   0  0  0  0  0  0  0  0  0  0  0  0
   -1.4688   16.9027   -0.5305 H   0  0  0  0  0  0  0  0  0  0  0  0
    0.9863   17.6698   -0.2380 H   0  0  0  0  0  0  0  0  0  0  0  0
    1.2840   16.6900   -1.7343 H   0  0  0  0  0  0  0  0  0  0  0  0
    0.0218   17.7299   -2.8925 H   0  0  0  0  0  0  0  0  0  0  0  0
   -0.6003   19.4456    0.6038 H   0  0  0  0  0  0  0  0  0  0  0  0
   -2.0860   20.3009    0.0673 H   0  0  0  0  0  0  0  0  0  0  0  0
   -2.0338   18.5054    0.0673 H   0  0  0  0  0  0  0  0  0  0  0  0
   -2.4542   20.8508   -1.9799 H   0  0  0  0  0  0  0  0  0  0  0  0
   -1.0801   20.8003   -3.1357 H   0  0  0  0  0  0  0  0  0  0  0  0
   -2.3026   19.4841   -3.1357 H   0  0  0  0  0  0  0  0  0  0  0  0
    1.6634   15.1108    0.0412 H   0  0  0  0  0  0  0  0  0  0  0  0
    1.8085   13.7149    2.0085 H   0  0  0  0  0  0  0  0  0  0  0  0
    0.0804   13.3073    1.9409 H   0  0  0  0  0  0  0  0  0  0  0  0
    2.2246   11.5890    1.1572 H   0  0  0  0  0  0  0  0  0  0  0  0
    0.5359   11.3180    0.7337 H   0  0  0  0  0  0  0  0  0  0  0  0
    3.4821   13.0455    0.2908 H   0  0  0  0  0  0  0  0  0  0  0  0
    3.8187   12.2117   -1.2643 H   0  0  0  0  0  0  0  0  0  0  0  0
    3.2263   13.9075   -1.2643 H   0  0  0  0  0  0  0  0  0  0  0  0
    0.4801   10.9381   -1.6594 H   0  0  0  0  0  0  0  0  0  0  0  0
    2.5998    9.9449   -0.5825 H   0  0  0  0  0  0  0  0  0  0  0  0
    1.8636    9.2043   -2.0990 H   0  0  0  0  0  0  0  0  0  0  0  0
    4.4909    9.3839   -2.0486 H   0  0  0  0  0  0  0  0  0  0  0  0
    3.3028   12.9418   -3.5440 H   0  0  0  0  0  0  0  0  0  0  0  0
    2.7463   10.9337   -5.8140 H   0  0  0  0  0  0  0  0  0  0  0  0
    2.4243   12.7243   -5.8359 H   0  0  0  0  0  0  0  0  0  0  0  0
    4.4683   12.1245   -7.0943 H   0  0  0  0  0  0  0  0  0  0  0  0
    4.8015   13.1849   -5.6693 H   0  0  0  0  0  0  0  0  0  0  0  0
    6.4800   11.4712   -5.7638 H   0  0  0  0  0  0  0  0  0  0  0  0
    5.5800    9.7960   -6.8580 H   0  0  0  0  0  0  0  0  0  0  0  0
    6.1135   12.3328   -2.2279 H   0  0  0  0  0  0  0  0  0  0  0  0
    7.1744   12.4488   -3.6728 H   0  0  0  0  0  0  0  0  0  0  0  0
    5.5663   13.2491   -3.6728 H   0  0  0  0  0  0  0  0  0  0  0  0
    6.4738    9.8528   -2.3918 H   0  0  0  0  0  0  0  0  0  0  0  0
    6.0290    8.9700   -3.8916 H   0  0  0  0  0  0  0  0  0  0  0  0
    7.4334   10.0900   -3.8916 H   0  0  0  0  0  0  0  0  0  0  0  0
    0.2525   10.0228   -3.5245 H   0  0  0  0  0  0  0  0  0  0  0  0
    0.0194   11.2296   -4.8344 H   0  0  0  0  0  0  0  0  0  0  0  0
    1.4724   10.1734   -4.8344 H   0  0  0  0  0  0  0  0  0  0  0  0
    1.1436   13.6179   -4.4691 H   0  0  0  0  0  0  0  0  0  0  0  0
   -0.2994   12.8755   -3.5742 H   0  0  0  0  0  0  0  0  0  0  0  0
    1.9102   14.5948   -2.4136 H   0  0  0  0  0  0  0  0  0  0  0  0
    0.1516   14.9779   -2.5809 H   0  0  0  0  0  0  0  0  0  0  0  0
   -1.2207   12.9091   -0.0223 H   0  0  0  0  0  0  0  0  0  0  0  0
   -1.5056   13.7609   -1.5779 H   0  0  0  0  0  0  0  0  0  0  0  0
   -0.9245   12.0612   -1.5779 H   0  0  0  0  0  0  0  0  0  0  0  0
  1  2  1  0
  2  3  1  0
  3  4  1  0
  4  5  1  0
  5  6  1  0
  6  7  1  0
  7  8  1  0
  7  9  1  0
  2 10  1  0
 10 11  1  0
 11 12  1  0
 12 13  1  0
 13 14  1  1
 13 15  1  0
 15 16  1  0
 16 17  1  0
 17 18  2  0
 18 19  1  0
 19 20  1  0
 20 21  1  0
 21 22  1  0
 22 23  1  0
 22 24  1  0
 24 25  1  0
 24 26  1  0
 19 27  1  0
 27 28  1  6
 27 29  1  0
 29 30  1  0
 30 31  1  0
 31 32  1  6
  7  5  1  0
 31 10  1  0
 31 13  1  0
 27 15  1  0
 24 18  1  0
  1 33  1  0
  1 34  1  0
  1 35  1  0
  2 36  1  1
  3 37  1  0
  3 38  1  0
  4 39  1  0
  4 40  1  0
  5 41  1  6
  8 42  1  0
  8 43  1  0
  8 44  1  0
  9 45  1  0
  9 46  1  0
  9 47  1  0
 10 48  1  6
 11 49  1  0
 11 50  1  0
 12 51  1  0
 12 52  1  0
 14 53  1  0
 14 54  1  0
 14 55  1  0
 15 56  1  1
 16 57  1  0
 16 58  1  0
 17 59  1  0
 19 60  1  1
 20 61  1  0
 20 62  1  0
 21 63  1  0
 21 64  1  0
 22 65  1  6
 23 66  1  0
 25 67  1  0
 25 68  1  0
 25 69  1  0
 26 70  1  0
 26 71  1  0
 26 72  1  0
 28 73  1  0
 28 74  1  0
 28 75  1  0
 29 76  1  0
 29 77  1  0
 30 78  1  0
 30 79  1  0
 32 80  1  0
 32 81  1  0
 32 82  1  0
M  END
>  <meeko>  (10) 
{"is_sidechain": [false], "intermolecular_energy": 2.731, "internal_energy": -0.839}

$$$$
EPH_relaxed_0001_pdb2pqr_Repair_197_r2_0001_out
     RDKit          3D

 82 86  0  0  0  0  0  0  0  0999 V2000
   -0.4880   16.6540   -0.4290 C   0  0  0  0  0  0  0  0  0  0  0  0
   -0.7110   15.3340    0.3150 C   0  0  2  0  0  0  0  0  0  0  0  0
   -0.8970   15.5460    1.8310 C   0  0  0  0  0  0  0  0  0  0  0  0
   -1.0640   14.2440    2.6190 C   0  0  0  0  0  0  0  0  0  0  0  0
   -0.6730   14.4110    4.0560 C   0  0  2  0  0  0  0  0  0  0  0  0
    0.0710   13.3160    4.6050 O   0  0  0  0  0  0  0  0  0  0  0  0
   -1.2250   13.5530    5.1790 C   0  0  0  0  0  0  0  0  0  0  0  0
   -2.2150   12.4630    4.9130 C   0  0  0  0  0  0  0  0  0  0  0  0
   -1.1770   14.0850    6.5770 C   0  0  0  0  0  0  0  0  0  0  0  0
    0.4580   14.3900    0.0610 C   0  0  1  0  0  0  0  0  0  0  0  0
    0.7170   13.4260    1.2490 C   0  0  0  0  0  0  0  0  0  0  0  0
    1.1910   12.0810    0.6400 C   0  0  0  0  0  0  0  0  0  0  0  0
    1.5060   12.4130   -0.8380 C   0  0  1  0  0  0  0  0  0  0  0  0
    2.9320   13.0480   -0.8110 C   0  0  0  0  0  0  0  0  0  0  0  0
    1.4240   11.2210   -1.8460 C   0  0  2  0  0  0  0  0  0  0  0  0
    2.4210   10.0780   -1.5880 C   0  0  0  0  0  0  0  0  0  0  0  0
    3.7360   10.2090   -2.2840 C   0  0  0  0  0  0  0  0  0  0  0  0
    4.0010   11.0480   -3.3020 C   0  0  0  0  0  0  0  0  0  0  0  0
    2.8940   11.9120   -3.9200 C   0  0  1  0  0  0  0  0  0  0  0  0
    2.9720   11.8240   -5.4670 C   0  0  0  0  0  0  0  0  0  0  0  0
    4.3550   12.1770   -6.0050 C   0  0  0  0  0  0  0  0  0  0  0  0
    5.4210   11.2590   -5.4110 C   0  0  2  0  0  0  0  0  0  0  0  0
    5.2040    9.9290   -5.8930 O   0  0  0  0  0  0  0  0  0  0  0  0
    5.4320   11.2570   -3.8570 C   0  0  0  0  0  0  0  0  0  0  0  0
    5.9610   12.6170   -3.3390 C   0  0  0  0  0  0  0  0  0  0  0  0
    6.4540   10.1860   -3.3880 C   0  0  0  0  0  0  0  0  0  0  0  0
    1.4260   11.6570   -3.3670 C   0  0  1  0  0  0  0  0  0  0  0  0
    0.7510   10.4990   -4.1640 C   0  0  0  0  0  0  0  0  0  0  0  0
    0.5510   12.9410   -3.6230 C   0  0  0  0  0  0  0  0  0  0  0  0
    0.5810   14.0300   -2.5340 C   0  0  0  0  0  0  0  0  0  0  0  0
    0.3440   13.4260   -1.1470 C   0  0  2  0  0  0  0  0  0  0  0  0
   -1.0920   12.7990   -1.1370 C   0  0  0  0  0  0  0  0  0  0  0  0
   -0.3507   17.4668    0.2994 H   0  0  0  0  0  0  0  0  0  0  0  0
    0.4090   16.5720   -1.0604 H   0  0  0  0  0  0  0  0  0  0  0  0
   -1.3622   16.8713   -1.0604 H   0  0  0  0  0  0  0  0  0  0  0  0
   -1.6393   14.8888   -0.0725 H   0  0  0  0  0  0  0  0  0  0  0  0
   -0.0141   16.0755    2.2184 H   0  0  0  0  0  0  0  0  0  0  0  0
   -1.8242   16.1228    1.9634 H   0  0  0  0  0  0  0  0  0  0  0  0
   -2.1173   13.9306    2.5704 H   0  0  0  0  0  0  0  0  0  0  0  0
   -0.4056   13.4854    2.1707 H   0  0  0  0  0  0  0  0  0  0  0  0
   -0.5931   15.5010    3.9317 H   0  0  0  0  0  0  0  0  0  0  0  0
   -2.5815   12.0594    5.8684 H   0  0  0  0  0  0  0  0  0  0  0  0
   -3.0605   12.8680    4.3375 H   0  0  0  0  0  0  0  0  0  0  0  0
   -1.7308   11.6603    4.3375 H   0  0  0  0  0  0  0  0  0  0  0  0
   -1.2523   13.2505    7.2897 H   0  0  0  0  0  0  0  0  0  0  0  0
   -0.2272   14.6171    6.7344 H   0  0  0  0  0  0  0  0  0  0  0  0
   -2.0162   14.7785    6.7344 H   0  0  0  0  0  0  0  0  0  0  0  0
    1.2542   15.1272   -0.1196 H   0  0  0  0  0  0  0  0  0  0  0  0
    1.4951   13.8382    1.9083 H   0  0  0  0  0  0  0  0  0  0  0  0
   -0.1935   13.2876    1.8505 H   0  0  0  0  0  0  0  0  0  0  0  0
    2.0910   11.7162    1.1567 H   0  0  0  0  0  0  0  0  0  0  0  0
    0.4346   11.2884    0.7381 H   0  0  0  0  0  0  0  0  0  0  0  0
    3.2505   13.1898    0.2323 H   0  0  0  0  0  0  0  0  0  0  0  0
    3.6405   12.3803   -1.3231 H   0  0  0  0  0  0  0  0  0  0  0  0
    2.9097   14.0213   -1.3231 H   0  0  0  0  0  0  0  0  0  0  0  0
    0.4289   10.8024   -1.6350 H   0  0  0  0  0  0  0  0  0  0  0  0
    2.6124   10.0318   -0.5058 H   0  0  0  0  0  0  0  0  0  0  0  0
    1.9523    9.1685   -1.9919 H   0  0  0  0  0  0  0  0  0  0  0  0
    4.5569    9.5654   -1.9350 H   0  0  0  0  0  0  0  0  0  0  0  0
    3.0947   12.9433   -3.5944 H   0  0  0  0  0  0  0  0  0  0  0  0
    2.7259   10.7969   -5.7744 H   0  0  0  0  0  0  0  0  0  0  0  0
    2.2581   12.5525   -5.8788 H   0  0  0  0  0  0  0  0  0  0  0  0
    4.3545   12.0674   -7.0995 H   0  0  0  0  0  0  0  0  0  0  0  0
    4.5877   13.2145   -5.7231 H   0  0  0  0  0  0  0  0  0  0  0  0
    6.4014   11.6423   -5.7301 H   0  0  0  0  0  0  0  0  0  0  0  0
    6.0000    9.4090   -5.6900 H   0  0  0  0  0  0  0  0  0  0  0  0
    5.9605   12.6157   -2.2390 H   0  0  0  0  0  0  0  0  0  0  0  0
    6.9862   12.7751   -3.7050 H   0  0  0  0  0  0  0  0  0  0  0  0
    5.3121   13.4263   -3.7050 H   0  0  0  0  0  0  0  0  0  0  0  0
    6.4791   10.1597   -2.2886 H   0  0  0  0  0  0  0  0  0  0  0  0
    6.1537    9.1998   -3.7716 H   0  0  0  0  0  0  0  0  0  0  0  0
    7.4532   10.4399   -3.7716 H   0  0  0  0  0  0  0  0  0  0  0  0
    0.3254    9.7688   -3.4600 H   0  0  0  0  0  0  0  0  0  0  0  0
   -0.0502   10.9080   -4.7971 H   0  0  0  0  0  0  0  0  0  0  0  0
    1.5017   10.0034   -4.7971 H   0  0  0  0  0  0  0  0  0  0  0  0
    0.8981   13.3987   -4.5611 H   0  0  0  0  0  0  0  0  0  0  0  0
   -0.4885   12.5819   -3.6425 H   0  0  0  0  0  0  0  0  0  0  0  0
    1.5631   14.5253   -2.5476 H   0  0  0  0  0  0  0  0  0  0  0  0
   -0.2194   14.7554   -2.7417 H   0  0  0  0  0  0  0  0  0  0  0  0
   -1.4220   12.6549   -0.0976 H   0  0  0  0  0  0  0  0  0  0  0  0
   -1.7905   13.4741   -1.6532 H   0  0  0  0  0  0  0  0  0  0  0  0
   -1.0717   11.8279   -1.6532 H   0  0  0  0  0  0  0  0  0  0  0  0
  1  2  1  0
  2  3  1  0
  3  4  1  0
  4  5  1  0
  5  6  1  0
  6  7  1  0
  7  8  1  0
  7  9  1  0
  2 10  1  0
 10 11  1  0
 11 12  1  0
 12 13  1  0
 13 14  1  1
 13 15  1  0
 15 16  1  0
 16 17  1  0
 17 18  2  0
 18 19  1  0
 19 20  1  0
 20 21  1  0
 21 22  1  0
 22 23  1  0
 22 24  1  0
 24 25  1  0
 24 26  1  0
 19 27  1  0
 27 28  1  6
 27 29  1  0
 29 30  1  0
 30 31  1  0
 31 32  1  6
  7  5  1  0
 31 10  1  0
 31 13  1  0
 27 15  1  0
 24 18  1  0
  1 33  1  0
  1 34  1  0
  1 35  1  0
  2 36  1  6
  3 37  1  0
  3 38  1  0
  4 39  1  0
  4 40  1  0
  5 41  1  1
  8 42  1  0
  8 43  1  0
  8 44  1  0
  9 45  1  0
  9 46  1  0
  9 47  1  0
 10 48  1  6
 11 49  1  0
 11 50  1  0
 12 51  1  0
 12 52  1  0
 14 53  1  0
 14 54  1  0
 14 55  1  0
 15 56  1  1
 16 57  1  0
 16 58  1  0
 17 59  1  0
 19 60  1  6
 20 61  1  0
 20 62  1  0
 21 63  1  0
 21 64  1  0
 22 65  1  6
 23 66  1  0
 25 67  1  0
 25 68  1  0
 25 69  1  0
 26 70  1  0
 26 71  1  0
 26 72  1  0
 28 73  1  0
 28 74  1  0
 28 75  1  0
 29 76  1  0
 29 77  1  0
 30 78  1  0
 30 79  1  0
 32 80  1  0
 32 81  1  0
 32 82  1  0
M  END
>  <meeko>  (11) 
{"is_sidechain": [false], "intermolecular_energy": 2.731, "internal_energy": -0.839}

$$$$
EPH_relaxed_0001_pdb2pqr_Repair_197_r2_0001_out
     RDKit          3D

 82 86  0  0  0  0  0  0  0  0999 V2000
    3.1070   14.7860   -7.5770 C   0  0  0  0  0  0  0  0  0  0  0  0
    1.5830   14.8390   -7.4320 C   0  0  2  0  0  0  0  0  0  0  0  0
    0.9720   16.0530   -8.1610 C   0  0  0  0  0  0  0  0  0  0  0  0
    1.9430   16.7480   -9.1200 C   0  0  0  0  0  0  0  0  0  0  0  0
    1.6590   16.3930  -10.5480 C   0  0  2  0  0  0  0  0  0  0  0  0
    1.0520   15.1080  -10.7370 O   0  0  0  0  0  0  0  0  0  0  0  0
    2.3680   15.2740  -11.2890 C   0  0  0  0  0  0  0  0  0  0  0  0
    3.4170   14.4400  -10.6230 C   0  0  0  0  0  0  0  0  0  0  0  0
    2.3940   15.3110  -12.7850 C   0  0  0  0  0  0  0  0  0  0  0  0
    1.2020   14.8700   -5.9570 C   0  0  1  0  0  0  0  0  0  0  0  0
   -0.0490   15.7470   -5.6820 C   0  0  0  0  0  0  0  0  0  0  0  0
   -0.8270   15.0650   -4.5280 C   0  0  0  0  0  0  0  0  0  0  0  0
    0.1580   14.0170   -3.9580 C   0  0  1  0  0  0  0  0  0  0  0  0
    1.1000   14.8260   -3.0120 C   0  0  0  0  0  0  0  0  0  0  0  0
   -0.4830   12.7930   -3.2260 C   0  0  2  0  0  0  0  0  0  0  0  0
   -1.2960   13.1390   -1.9660 C   0  0  0  0  0  0  0  0  0  0  0  0
   -0.5230   13.1410   -0.6890 C   0  0  0  0  0  0  0  0  0  0  0  0
    0.6990   12.6040   -0.5130 C   0  0  0  0  0  0  0  0  0  0  0  0
    1.3870   11.8260   -1.6420 C   0  0  1  0  0  0  0  0  0  0  0  0
    1.9700   10.5030   -1.0790 C   0  0  0  0  0  0  0  0  0  0  0  0
    2.8890   10.7310    0.1180 C   0  0  0  0  0  0  0  0  0  0  0  0
    2.1520   11.4550    1.2410 C   0  0  2  0  0  0  0  0  0  0  0  0
    1.1370   10.5900    1.7590 O   0  0  0  0  0  0  0  0  0  0  0  0
    1.5130   12.7980    0.7900 C   0  0  0  0  0  0  0  0  0  0  0  0
    2.6280   13.8380    0.5150 C   0  0  0  0  0  0  0  0  0  0  0  0
    0.6830   13.3560    1.9770 C   0  0  0  0  0  0  0  0  0  0  0  0
    0.5220   11.6010   -2.9560 C   0  0  1  0  0  0  0  0  0  0  0  0
   -0.3440   10.3130   -2.8090 C   0  0  0  0  0  0  0  0  0  0  0  0
    1.4910   11.3480   -4.1720 C   0  0  0  0  0  0  0  0  0  0  0  0
    1.9940   12.5920   -4.9290 C   0  0  0  0  0  0  0  0  0  0  0  0
    0.8320   13.5220   -5.2890 C   0  0  2  0  0  0  0  0  0  0  0  0
   -0.1220   12.7440   -6.2570 C   0  0  0  0  0  0  0  0  0  0  0  0
    3.5699   14.7699   -6.5793 H   0  0  0  0  0  0  0  0  0  0  0  0
    3.3915   13.8774   -8.1279 H   0  0  0  0  0  0  0  0  0  0  0  0
    3.4540   15.6726   -8.1279 H   0  0  0  0  0  0  0  0  0  0  0  0
    1.1740   13.9324   -7.9020 H   0  0  0  0  0  0  0  0  0  0  0  0
    0.1007   15.7093   -8.7377 H   0  0  0  0  0  0  0  0  0  0  0  0
    0.7009   16.7884   -7.3892 H   0  0  0  0  0  0  0  0  0  0  0  0
    1.8474   17.8369   -8.9973 H   0  0  0  0  0  0  0  0  0  0  0  0
    2.9626   16.4129   -8.8790 H   0  0  0  0  0  0  0  0  0  0  0  0
    1.4826   17.4492  -10.7997 H   0  0  0  0  0  0  0  0  0  0  0  0
    3.3127   14.5229   -9.5311 H   0  0  0  0  0  0  0  0  0  0  0  0
    3.2957   13.3890  -10.9242 H   0  0  0  0  0  0  0  0  0  0  0  0
    4.4136   14.7951  -10.9242 H   0  0  0  0  0  0  0  0  0  0  0  0
    2.9964   16.1682  -13.1202 H   0  0  0  0  0  0  0  0  0  0  0  0
    2.8372   14.3796  -13.1672 H   0  0  0  0  0  0  0  0  0  0  0  0
    1.3675   15.4124  -13.1672 H   0  0  0  0  0  0  0  0  0  0  0  0
    2.1409   15.2546   -5.5320 H   0  0  0  0  0  0  0  0  0  0  0  0
    0.2569   16.7611   -5.3854 H   0  0  0  0  0  0  0  0  0  0  0  0
   -0.6749   15.8363   -6.5822 H   0  0  0  0  0  0  0  0  0  0  0  0
   -1.1008   15.8001   -3.7569 H   0  0  0  0  0  0  0  0  0  0  0  0
   -1.7675   14.6095   -4.8715 H   0  0  0  0  0  0  0  0  0  0  0  0
    0.8445   14.6065   -1.9648 H   0  0  0  0  0  0  0  0  0  0  0  0
    2.1448   14.5394   -3.2023 H   0  0  0  0  0  0  0  0  0  0  0  0
    0.9745   15.9021   -3.2023 H   0  0  0  0  0  0  0  0  0  0  0  0
   -1.2148   12.4329   -3.9641 H   0  0  0  0  0  0  0  0  0  0  0  0
   -1.7267   14.1417   -2.1041 H   0  0  0  0  0  0  0  0  0  0  0  0
   -2.0509   12.3455   -1.8635 H   0  0  0  0  0  0  0  0  0  0  0  0
   -0.9916   13.6221    0.1822 H   0  0  0  0  0  0  0  0  0  0  0  0
    2.2029   12.4702   -2.0017 H   0  0  0  0  0  0  0  0  0  0  0  0
    1.1374    9.8558   -0.7661 H   0  0  0  0  0  0  0  0  0  0  0  0
    2.5684   10.0363   -1.8753 H   0  0  0  0  0  0  0  0  0  0  0  0
    3.2447    9.7585    0.4892 H   0  0  0  0  0  0  0  0  0  0  0  0
    3.7370   11.3533   -0.2038 H   0  0  0  0  0  0  0  0  0  0  0  0
    2.8939   11.7051    2.0137 H   0  0  0  0  0  0  0  0  0  0  0  0
    0.2760   10.9480    1.4840 H   0  0  0  0  0  0  0  0  0  0  0  0
    3.0265   14.2097    1.4705 H   0  0  0  0  0  0  0  0  0  0  0  0
    3.4372   13.3646   -0.0604 H   0  0  0  0  0  0  0  0  0  0  0  0
    2.2120   14.6781   -0.0604 H   0  0  0  0  0  0  0  0  0  0  0  0
    1.1451   13.0453    2.9256 H   0  0  0  0  0  0  0  0  0  0  0  0
    0.6589   14.4544    1.9233 H   0  0  0  0  0  0  0  0  0  0  0  0
   -0.3433   12.9637    1.9233 H   0  0  0  0  0  0  0  0  0  0  0  0
   -0.4931   10.0912   -1.7420 H   0  0  0  0  0  0  0  0  0  0  0  0
   -1.3203   10.4706   -3.2907 H   0  0  0  0  0  0  0  0  0  0  0  0
    0.1704    9.4684   -3.2907 H   0  0  0  0  0  0  0  0  0  0  0  0
    2.3722   10.8121   -3.7896 H   0  0  0  0  0  0  0  0  0  0  0  0
    0.8930   10.7868   -4.9051 H   0  0  0  0  0  0  0  0  0  0  0  0
    2.7068   13.1367   -4.2925 H   0  0  0  0  0  0  0  0  0  0  0  0
    2.4811   12.2634   -5.8589 H   0  0  0  0  0  0  0  0  0  0  0  0
   -0.8422   12.1567   -5.6684 H   0  0  0  0  0  0  0  0  0  0  0  0
   -0.6646   13.4604   -6.8913 H   0  0  0  0  0  0  0  0  0  0  0  0
    0.4707   12.0684   -6.8913 H   0  0  0  0  0  0  0  0  0  0  0  0
  1  2  1  0
  2  3  1  0
  3  4  1  0
  4  5  1  0
  5  6  1  0
  6  7  1  0
  7  8  1  0
  7  9  1  0
  2 10  1  0
 10 11  1  0
 11 12  1  0
 12 13  1  0
 13 14  1  1
 13 15  1  0
 15 16  1  0
 16 17  1  0
 17 18  2  0
 18 19  1  0
 19 20  1  0
 20 21  1  0
 21 22  1  0
 22 23  1  0
 22 24  1  0
 24 25  1  0
 24 26  1  0
 19 27  1  0
 27 28  1  1
 27 29  1  0
 29 30  1  0
 30 31  1  0
 31 32  1  6
  7  5  1  0
 31 10  1  0
 31 13  1  0
 27 15  1  0
 24 18  1  0
  1 33  1  0
  1 34  1  0
  1 35  1  0
  2 36  1  6
  3 37  1  0
  3 38  1  0
  4 39  1  0
  4 40  1  0
  5 41  1  6
  8 42  1  0
  8 43  1  0
  8 44  1  0
  9 45  1  0
  9 46  1  0
  9 47  1  0
 10 48  1  1
 11 49  1  0
 11 50  1  0
 12 51  1  0
 12 52  1  0
 14 53  1  0
 14 54  1  0
 14 55  1  0
 15 56  1  6
 16 57  1  0
 16 58  1  0
 17 59  1  0
 19 60  1  6
 20 61  1  0
 20 62  1  0
 21 63  1  0
 21 64  1  0
 22 65  1  1
 23 66  1  0
 25 67  1  0
 25 68  1  0
 25 69  1  0
 26 70  1  0
 26 71  1  0
 26 72  1  0
 28 73  1  0
 28 74  1  0
 28 75  1  0
 29 76  1  0
 29 77  1  0
 30 78  1  0
 30 79  1  0
 32 80  1  0
 32 81  1  0
 32 82  1  0
M  END
>  <meeko>  (12) 
{"is_sidechain": [false], "intermolecular_energy": 2.731, "internal_energy": -0.839}

$$$$
EPH_relaxed_0001_pdb2pqr_Repair_197_r2_0001_out
     RDKit          3D

 82 86  0  0  0  0  0  0  0  0999 V2000
   -0.0730    9.1550   -4.0320 C   0  0  0  0  0  0  0  0  0  0  0  0
   -0.0440    9.3450   -2.5130 C   0  0  2  0  0  0  0  0  0  0  0  0
   -0.9560    8.3380   -1.7840 C   0  0  0  0  0  0  0  0  0  0  0  0
   -2.4340    8.4610   -2.1630 C   0  0  0  0  0  0  0  0  0  0  0  0
   -2.9630    7.1880   -2.7510 C   0  0  2  0  0  0  0  0  0  0  0  0
   -4.0370    7.3600   -3.6850 O   0  0  0  0  0  0  0  0  0  0  0  0
   -4.3560    6.6530   -2.4750 C   0  0  0  0  0  0  0  0  0  0  0  0
   -5.3070    7.3810   -1.5770 C   0  0  0  0  0  0  0  0  0  0  0  0
   -4.6160    5.1930   -2.6810 C   0  0  0  0  0  0  0  0  0  0  0  0
   -0.4540   10.7700   -2.1600 C   0  0  1  0  0  0  0  0  0  0  0  0
   -1.6320   10.8200   -1.1500 C   0  0  0  0  0  0  0  0  0  0  0  0
   -1.3900   12.0530   -0.2410 C   0  0  0  0  0  0  0  0  0  0  0  0
   -0.2780   12.8540   -0.9580 C   0  0  1  0  0  0  0  0  0  0  0  0
   -1.0190   13.6610   -2.0700 C   0  0  0  0  0  0  0  0  0  0  0  0
    0.5960   13.7840   -0.0550 C   0  0  2  0  0  0  0  0  0  0  0  0
   -0.1700   14.9190    0.6460 C   0  0  0  0  0  0  0  0  0  0  0  0
   -0.2480   16.2010   -0.1150 C   0  0  0  0  0  0  0  0  0  0  0  0
    0.5110   16.5270   -1.1780 C   0  0  0  0  0  0  0  0  0  0  0  0
    1.6340   15.5990   -1.6580 C   0  0  1  0  0  0  0  0  0  0  0  0
    2.9170   16.4310   -1.9200 C   0  0  0  0  0  0  0  0  0  0  0  0
    2.6740   17.5950   -2.8750 C   0  0  0  0  0  0  0  0  0  0  0  0
    1.5920   18.5270   -2.3350 C   0  0  2  0  0  0  0  0  0  0  0  0
    2.0800   19.1620   -1.1500 O   0  0  0  0  0  0  0  0  0  0  0  0
    0.2550   17.7980   -2.0250 C   0  0  0  0  0  0  0  0  0  0  0  0
   -0.4250   17.3710   -3.3490 C   0  0  0  0  0  0  0  0  0  0  0  0
   -0.7030   18.8210   -1.3560 C   0  0  0  0  0  0  0  0  0  0  0  0
    1.9100   14.3200   -0.7560 C   0  0  1  0  0  0  0  0  0  0  0  0
    2.9080   14.6790    0.3860 C   0  0  0  0  0  0  0  0  0  0  0  0
    2.6140   13.2160   -1.6300 C   0  0  0  0  0  0  0  0  0  0  0  0
    1.6950   12.2520   -2.4050 C   0  0  0  0  0  0  0  0  0  0  0  0
    0.6130   11.6720   -1.4900 C   0  0  2  0  0  0  0  0  0  0  0  0
    1.3270   10.8360   -0.3740 C   0  0  0  0  0  0  0  0  0  0  0  0
   -0.2352    8.0924   -4.2656 H   0  0  0  0  0  0  0  0  0  0  0  0
   -0.8902    9.7536   -4.4609 H   0  0  0  0  0  0  0  0  0  0  0  0
    0.8855    9.4825   -4.4609 H   0  0  0  0  0  0  0  0  0  0  0  0
    0.9866    9.1602   -2.1759 H   0  0  0  0  0  0  0  0  0  0  0  0
   -0.6176    7.3209   -2.0308 H   0  0  0  0  0  0  0  0  0  0  0  0
   -0.8805    8.5556   -0.7084 H   0  0  0  0  0  0  0  0  0  0  0  0
   -3.0142    8.7052   -1.2610 H   0  0  0  0  0  0  0  0  0  0  0  0
   -2.5293    9.2539   -2.9195 H   0  0  0  0  0  0  0  0  0  0  0  0
   -1.9686    6.7213   -2.6925 H   0  0  0  0  0  0  0  0  0  0  0  0
   -5.0459    7.1811   -0.5273 H   0  0  0  0  0  0  0  0  0  0  0  0
   -5.2410    8.4616   -1.7719 H   0  0  0  0  0  0  0  0  0  0  0  0
   -6.3329    7.0352   -1.7719 H   0  0  0  0  0  0  0  0  0  0  0  0
   -4.7047    4.6950   -1.7042 H   0  0  0  0  0  0  0  0  0  0  0  0
   -5.5514    5.0632   -3.2451 H   0  0  0  0  0  0  0  0  0  0  0  0
   -3.7829    4.7482   -3.2451 H   0  0  0  0  0  0  0  0  0  0  0  0
   -0.6889   11.1487   -3.1657 H   0  0  0  0  0  0  0  0  0  0  0  0
   -2.5865   10.9263   -1.6863 H   0  0  0  0  0  0  0  0  0  0  0  0
   -1.6826    9.8954   -0.5562 H   0  0  0  0  0  0  0  0  0  0  0  0
   -2.3061   12.6552   -0.1514 H   0  0  0  0  0  0  0  0  0  0  0  0
   -1.1047   11.7674    0.7822 H   0  0  0  0  0  0  0  0  0  0  0  0
   -1.6927   14.3947   -1.6033 H   0  0  0  0  0  0  0  0  0  0  0  0
   -0.2817   14.1859   -2.6951 H   0  0  0  0  0  0  0  0  0  0  0  0
   -1.6048   12.9710   -2.6951 H   0  0  0  0  0  0  0  0  0  0  0  0
    0.9175   13.1014    0.7455 H   0  0  0  0  0  0  0  0  0  0  0  0
   -1.1969   14.5714    0.8324 H   0  0  0  0  0  0  0  0  0  0  0  0
    0.3926   15.1440    1.5641 H   0  0  0  0  0  0  0  0  0  0  0  0
   -0.9883   16.9419    0.2213 H   0  0  0  0  0  0  0  0  0  0  0  0
    1.2789   15.1540   -2.5992 H   0  0  0  0  0  0  0  0  0  0  0  0
    3.2798   16.8309   -0.9617 H   0  0  0  0  0  0  0  0  0  0  0  0
    3.6575   15.7649   -2.3869 H   0  0  0  0  0  0  0  0  0  0  0  0
    3.6089   18.1615   -2.9973 H   0  0  0  0  0  0  0  0  0  0  0  0
    2.3394   17.1917   -3.8421 H   0  0  0  0  0  0  0  0  0  0  0  0
    1.3715   19.2662   -3.1192 H   0  0  0  0  0  0  0  0  0  0  0  0
    2.7920   18.6070   -0.7900 H   0  0  0  0  0  0  0  0  0  0  0  0
   -1.3370   16.7983   -3.1247 H   0  0  0  0  0  0  0  0  0  0  0  0
   -0.6882   18.2663   -3.9314 H   0  0  0  0  0  0  0  0  0  0  0  0
    0.2671   16.7451   -3.9314 H   0  0  0  0  0  0  0  0  0  0  0  0
   -0.6238   18.7364   -0.2621 H   0  0  0  0  0  0  0  0  0  0  0  0
   -0.4263   19.8395   -1.6660 H   0  0  0  0  0  0  0  0  0  0  0  0
   -1.7374   18.6117   -1.6660 H   0  0  0  0  0  0  0  0  0  0  0  0
    2.4277   14.5062    1.3604 H   0  0  0  0  0  0  0  0  0  0  0  0
    3.8043   14.0469    0.3018 H   0  0  0  0  0  0  0  0  0  0  0  0
    3.1963   15.7372    0.3018 H   0  0  0  0  0  0  0  0  0  0  0  0
    3.2521   13.7297   -2.3642 H   0  0  0  0  0  0  0  0  0  0  0  0
    3.1551   12.5824   -0.9118 H   0  0  0  0  0  0  0  0  0  0  0  0
    1.2140   12.7984   -3.2297 H   0  0  0  0  0  0  0  0  0  0  0  0
    2.3048   11.4241   -2.7957 H   0  0  0  0  0  0  0  0  0  0  0  0
    1.0143   11.2021    0.6150 H   0  0  0  0  0  0  0  0  0  0  0  0
    1.0511    9.7761   -0.4767 H   0  0  0  0  0  0  0  0  0  0  0  0
    2.4170   10.9427   -0.4767 H   0  0  0  0  0  0  0  0  0  0  0  0
  1  2  1  0
  2  3  1  0
  3  4  1  0
  4  5  1  0
  5  6  1  0
  6  7  1  0
  7  8  1  0
  7  9  1  0
  2 10  1  0
 10 11  1  0
 11 12  1  0
 12 13  1  0
 13 14  1  6
 13 15  1  0
 15 16  1  0
 16 17  1  0
 17 18  2  0
 18 19  1  0
 19 20  1  0
 20 21  1  0
 21 22  1  0
 22 23  1  0
 22 24  1  0
 24 25  1  0
 24 26  1  0
 19 27  1  0
 27 28  1  1
 27 29  1  0
 29 30  1  0
 30 31  1  0
 31 32  1  1
  7  5  1  0
 31 10  1  0
 31 13  1  0
 27 15  1  0
 24 18  1  0
  1 33  1  0
  1 34  1  0
  1 35  1  0
  2 36  1  1
  3 37  1  0
  3 38  1  0
  4 39  1  0
  4 40  1  0
  5 41  1  6
  8 42  1  0
  8 43  1  0
  8 44  1  0
  9 45  1  0
  9 46  1  0
  9 47  1  0
 10 48  1  6
 11 49  1  0
 11 50  1  0
 12 51  1  0
 12 52  1  0
 14 53  1  0
 14 54  1  0
 14 55  1  0
 15 56  1  1
 16 57  1  0
 16 58  1  0
 17 59  1  0
 19 60  1  6
 20 61  1  0
 20 62  1  0
 21 63  1  0
 21 64  1  0
 22 65  1  6
 23 66  1  0
 25 67  1  0
 25 68  1  0
 25 69  1  0
 26 70  1  0
 26 71  1  0
 26 72  1  0
 28 73  1  0
 28 74  1  0
 28 75  1  0
 29 76  1  0
 29 77  1  0
 30 78  1  0
 30 79  1  0
 32 80  1  0
 32 81  1  0
 32 82  1  0
M  END
>  <meeko>  (13) 
{"is_sidechain": [false], "intermolecular_energy": 2.731, "internal_energy": -0.839}

$$$$
EPH_relaxed_0001_pdb2pqr_Repair_197_r2_0001_out
     RDKit          3D

 82 86  0  0  0  0  0  0  0  0999 V2000
    0.9020   14.8510   -2.6270 C   0  0  0  0  0  0  0  0  0  0  0  0
    1.1730   14.1710   -3.9720 C   0  0  2  0  0  0  0  0  0  0  0  0
    0.4810   14.9000   -5.1410 C   0  0  0  0  0  0  0  0  0  0  0  0
    1.1000   14.5950   -6.5080 C   0  0  0  0  0  0  0  0  0  0  0  0
    0.8460   15.6990   -7.4900 C   0  0  2  0  0  0  0  0  0  0  0  0
    0.3870   15.2630   -8.7760 O   0  0  0  0  0  0  0  0  0  0  0  0
    1.6710   15.9070   -8.7460 C   0  0  0  0  0  0  0  0  0  0  0  0
    2.8130   15.0030   -9.0890 C   0  0  0  0  0  0  0  0  0  0  0  0
    1.6800   17.2630   -9.3800 C   0  0  0  0  0  0  0  0  0  0  0  0
    0.7150   12.7180   -3.9200 C   0  0  1  0  0  0  0  0  0  0  0  0
    1.8450   11.7220   -4.2940 C   0  0  0  0  0  0  0  0  0  0  0  0
    1.6340   10.4580   -3.4220 C   0  0  0  0  0  0  0  0  0  0  0  0
    0.2180   10.6280   -2.8250 C   0  0  1  0  0  0  0  0  0  0  0  0
   -0.7530   10.1630   -3.9560 C   0  0  0  0  0  0  0  0  0  0  0  0
   -0.0610    9.8780   -1.4810 C   0  0  2  0  0  0  0  0  0  0  0  0
    0.0380    8.3450   -1.5570 C   0  0  0  0  0  0  0  0  0  0  0  0
   -1.2360    7.6400   -1.8880 C   0  0  0  0  0  0  0  0  0  0  0  0
   -2.4670    8.1820   -1.8370 C   0  0  0  0  0  0  0  0  0  0  0  0
   -2.6760    9.6110   -1.3180 C   0  0  1  0  0  0  0  0  0  0  0  0
   -3.8630    9.6300   -0.3190 C   0  0  0  0  0  0  0  0  0  0  0  0
   -5.1350    9.0310   -0.9110 C   0  0  0  0  0  0  0  0  0  0  0  0
   -4.9020    7.5910   -1.3610 C   0  0  2  0  0  0  0  0  0  0  0  0
   -4.6560    6.7810   -0.2080 O   0  0  0  0  0  0  0  0  0  0  0  0
   -3.7230    7.4460   -2.3640 C   0  0  0  0  0  0  0  0  0  0  0  0
   -4.1170    8.0710   -3.7250 C   0  0  0  0  0  0  0  0  0  0  0  0
   -3.5050    5.9320   -2.6280 C   0  0  0  0  0  0  0  0  0  0  0  0
   -1.3840   10.3370   -0.7450 C   0  0  1  0  0  0  0  0  0  0  0  0
   -1.2000    9.9840    0.7630 C   0  0  0  0  0  0  0  0  0  0  0  0
   -1.5970   11.8960   -0.8130 C   0  0  0  0  0  0  0  0  0  0  0  0
   -1.1920   12.5950   -2.1250 C   0  0  0  0  0  0  0  0  0  0  0  0
    0.2170   12.1770   -2.5570 C   0  0  2  0  0  0  0  0  0  0  0  0
    1.2180   12.6510   -1.4490 C   0  0  0  0  0  0  0  0  0  0  0  0
    1.1743   14.1676   -1.8092 H   0  0  0  0  0  0  0  0  0  0  0  0
    1.5028   15.7694   -2.5528 H   0  0  0  0  0  0  0  0  0  0  0  0
   -0.1658   15.1044   -2.5528 H   0  0  0  0  0  0  0  0  0  0  0  0
    2.2573   14.2135   -4.1525 H   0  0  0  0  0  0  0  0  0  0  0  0
   -0.5761   14.5966   -5.1627 H   0  0  0  0  0  0  0  0  0  0  0  0
    0.6038   15.9789   -4.9655 H   0  0  0  0  0  0  0  0  0  0  0  0
    2.1860   14.4680   -6.3873 H   0  0  0  0  0  0  0  0  0  0  0  0
    0.6367   13.6763   -6.8971 H   0  0  0  0  0  0  0  0  0  0  0  0
    0.5488   16.3822   -6.6808 H   0  0  0  0  0  0  0  0  0  0  0  0
    3.2792   14.6339   -8.1636 H   0  0  0  0  0  0  0  0  0  0  0  0
    2.4422   14.1510   -9.6778 H   0  0  0  0  0  0  0  0  0  0  0  0
    3.5571   15.5595   -9.6778 H   0  0  0  0  0  0  0  0  0  0  0  0
    1.6851   18.0344   -8.5958 H   0  0  0  0  0  0  0  0  0  0  0  0
    2.5789   17.3696  -10.0050 H   0  0  0  0  0  0  0  0  0  0  0  0
    0.7826   17.3815  -10.0050 H   0  0  0  0  0  0  0  0  0  0  0  0
   -0.1201   12.7627   -4.6346 H   0  0  0  0  0  0  0  0  0  0  0  0
    1.7821   11.4610   -5.3607 H   0  0  0  0  0  0  0  0  0  0  0  0
    2.8362   12.1641   -4.1152 H   0  0  0  0  0  0  0  0  0  0  0  0
    1.6893    9.5480   -4.0375 H   0  0  0  0  0  0  0  0  0  0  0  0
    2.4049   10.3543   -2.6442 H   0  0  0  0  0  0  0  0  0  0  0  0
   -1.6585    9.7294   -3.5065 H   0  0  0  0  0  0  0  0  0  0  0  0
   -1.0302   11.0261   -4.5791 H   0  0  0  0  0  0  0  0  0  0  0  0
   -0.2543    9.4060   -4.5791 H   0  0  0  0  0  0  0  0  0  0  0  0
    0.7816   10.2003   -0.8516 H   0  0  0  0  0  0  0  0  0  0  0  0
    0.7784    8.0899   -2.3295 H   0  0  0  0  0  0  0  0  0  0  0  0
    0.3199    8.0075   -0.5487 H   0  0  0  0  0  0  0  0  0  0  0  0
   -1.1622    6.5878   -2.2002 H   0  0  0  0  0  0  0  0  0  0  0  0
   -2.9198   10.2222   -2.1995 H   0  0  0  0  0  0  0  0  0  0  0  0
   -3.5825    9.0508    0.5731 H   0  0  0  0  0  0  0  0  0  0  0  0
   -4.0731   10.6806   -0.0698 H   0  0  0  0  0  0  0  0  0  0  0  0
   -5.9284    9.0462   -0.1492 H   0  0  0  0  0  0  0  0  0  0  0  0
   -5.4303    9.6288   -1.7859 H   0  0  0  0  0  0  0  0  0  0  0  0
   -5.8073    7.2607   -1.8915 H   0  0  0  0  0  0  0  0  0  0  0  0
   -3.7060    6.8360   -0.0070 H   0  0  0  0  0  0  0  0  0  0  0  0
   -4.6963    8.9900   -3.5525 H   0  0  0  0  0  0  0  0  0  0  0  0
   -3.2075    8.3124   -4.2946 H   0  0  0  0  0  0  0  0  0  0  0  0
   -4.7270    7.3545   -4.2946 H   0  0  0  0  0  0  0  0  0  0  0  0
   -3.4284    5.3998   -1.6684 H   0  0  0  0  0  0  0  0  0  0  0  0
   -4.3551    5.5337   -3.2014 H   0  0  0  0  0  0  0  0  0  0  0  0
   -2.5771    5.7897   -3.2014 H   0  0  0  0  0  0  0  0  0  0  0  0
   -1.6202   10.7902    1.3822 H   0  0  0  0  0  0  0  0  0  0  0  0
   -1.7214    9.0413    0.9852 H   0  0  0  0  0  0  0  0  0  0  0  0
   -0.1286    9.8716    0.9852 H   0  0  0  0  0  0  0  0  0  0  0  0
   -2.6663   12.0935   -0.6468 H   0  0  0  0  0  0  0  0  0  0  0  0
   -0.9272   12.3122   -0.0460 H   0  0  0  0  0  0  0  0  0  0  0  0
   -1.9068   12.3201   -2.9146 H   0  0  0  0  0  0  0  0  0  0  0  0
   -1.1999   13.6825   -1.9598 H   0  0  0  0  0  0  0  0  0  0  0  0
    0.7894   12.4480   -0.4565 H   0  0  0  0  0  0  0  0  0  0  0  0
    2.1681   12.1072   -1.5563 H   0  0  0  0  0  0  0  0  0  0  0  0
    1.3994   13.7306   -1.5563 H   0  0  0  0  0  0  0  0  0  0  0  0
  1  2  1  0
  2  3  1  0
  3  4  1  0
  4  5  1  0
  5  6  1  0
  6  7  1  0
  7  8  1  0
  7  9  1  0
  2 10  1  0
 10 11  1  0
 11 12  1  0
 12 13  1  0
 13 14  1  6
 13 15  1  0
 15 16  1  0
 16 17  1  0
 17 18  2  0
 18 19  1  0
 19 20  1  0
 20 21  1  0
 21 22  1  0
 22 23  1  0
 22 24  1  0
 24 25  1  0
 24 26  1  0
 19 27  1  0
 27 28  1  1
 27 29  1  0
 29 30  1  0
 30 31  1  0
 31 32  1  1
  7  5  1  0
 31 10  1  0
 31 13  1  0
 27 15  1  0
 24 18  1  0
  1 33  1  0
  1 34  1  0
  1 35  1  0
  2 36  1  6
  3 37  1  0
  3 38  1  0
  4 39  1  0
  4 40  1  0
  5 41  1  1
  8 42  1  0
  8 43  1  0
  8 44  1  0
  9 45  1  0
  9 46  1  0
  9 47  1  0
 10 48  1  6
 11 49  1  0
 11 50  1  0
 12 51  1  0
 12 52  1  0
 14 53  1  0
 14 54  1  0
 14 55  1  0
 15 56  1  1
 16 57  1  0
 16 58  1  0
 17 59  1  0
 19 60  1  6
 20 61  1  0
 20 62  1  0
 21 63  1  0
 21 64  1  0
 22 65  1  6
 23 66  1  0
 25 67  1  0
 25 68  1  0
 25 69  1  0
 26 70  1  0
 26 71  1  0
 26 72  1  0
 28 73  1  0
 28 74  1  0
 28 75  1  0
 29 76  1  0
 29 77  1  0
 30 78  1  0
 30 79  1  0
 32 80  1  0
 32 81  1  0
 32 82  1  0
M  END
>  <meeko>  (14) 
{"is_sidechain": [false], "intermolecular_energy": 2.731, "internal_energy": -0.839}

$$$$
EPH_relaxed_0001_pdb2pqr_Repair_197_r2_0001_out
     RDKit          3D

 82 86  0  0  0  0  0  0  0  0999 V2000
   -2.4110    7.7730   -0.0520 C   0  0  0  0  0  0  0  0  0  0  0  0
   -3.0380    9.1700   -0.0520 C   0  0  2  0  0  0  0  0  0  0  0  0
   -4.5310    9.1360   -0.4350 C   0  0  0  0  0  0  0  0  0  0  0  0
   -5.1210    7.7250   -0.4900 C   0  0  0  0  0  0  0  0  0  0  0  0
   -5.8400    7.4730   -1.7810 C   0  0  2  0  0  0  0  0  0  0  0  0
   -6.7930    8.4820   -2.1420 O   0  0  0  0  0  0  0  0  0  0  0  0
   -7.3250    7.1760   -1.8680 C   0  0  0  0  0  0  0  0  0  0  0  0
   -8.1810    7.1130   -0.6420 C   0  0  0  0  0  0  0  0  0  0  0  0
   -7.8440    6.4690   -3.0810 C   0  0  0  0  0  0  0  0  0  0  0  0
   -2.2760   10.0820   -1.0050 C   0  0  1  0  0  0  0  0  0  0  0  0
   -2.9270   11.4840   -1.1400 C   0  0  0  0  0  0  0  0  0  0  0  0
   -1.7700   12.5000   -1.3170 C   0  0  0  0  0  0  0  0  0  0  0  0
   -0.5260   11.6280   -1.6100 C   0  0  1  0  0  0  0  0  0  0  0  0
   -0.6250   11.2850   -3.1290 C   0  0  0  0  0  0  0  0  0  0  0  0
    0.8590   12.2560   -1.2490 C   0  0  2  0  0  0  0  0  0  0  0  0
    1.2170   13.5360   -2.0240 C   0  0  0  0  0  0  0  0  0  0  0  0
    1.9620   13.3230   -3.2990 C   0  0  0  0  0  0  0  0  0  0  0  0
    2.5770   12.1820   -3.6640 C   0  0  0  0  0  0  0  0  0  0  0  0
    2.6450   10.9840   -2.7090 C   0  0  1  0  0  0  0  0  0  0  0  0
    4.0900   10.4210   -2.6850 C   0  0  0  0  0  0  0  0  0  0  0  0
    4.6110   10.0870   -4.0800 C   0  0  0  0  0  0  0  0  0  0  0  0
    4.5830   11.3180   -4.9820 C   0  0  2  0  0  0  0  0  0  0  0  0
    5.5300   12.2710   -4.4910 O   0  0  0  0  0  0  0  0  0  0  0  0
    3.1780   11.9760   -5.0760 C   0  0  0  0  0  0  0  0  0  0  0  0
    2.2250   11.0580   -5.8810 C   0  0  0  0  0  0  0  0  0  0  0  0
    3.3190   13.2850   -5.9010 C   0  0  0  0  0  0  0  0  0  0  0  0
    2.0590   11.2250   -1.2520 C   0  0  1  0  0  0  0  0  0  0  0  0
    3.1630   11.8230   -0.3270 C   0  0  0  0  0  0  0  0  0  0  0  0
    1.6580    9.8380   -0.6230 C   0  0  0  0  0  0  0  0  0  0  0  0
    0.2340    9.3270   -0.9180 C   0  0  0  0  0  0  0  0  0  0  0  0
   -0.8060   10.4180   -0.6460 C   0  0  2  0  0  0  0  0  0  0  0  0
   -0.7460   10.7670    0.8800 C   0  0  0  0  0  0  0  0  0  0  0  0
   -2.2609    7.4385    0.9851 H   0  0  0  0  0  0  0  0  0  0  0  0
   -3.0803    7.0707   -0.5705 H   0  0  0  0  0  0  0  0  0  0  0  0
   -1.4415    7.8062   -0.5705 H   0  0  0  0  0  0  0  0  0  0  0  0
   -2.9691    9.5636    0.9728 H   0  0  0  0  0  0  0  0  0  0  0  0
   -5.0936    9.7187    0.3093 H   0  0  0  0  0  0  0  0  0  0  0  0
   -4.6123    9.5577   -1.4477 H   0  0  0  0  0  0  0  0  0  0  0  0
   -4.3056    6.9937   -0.3878 H   0  0  0  0  0  0  0  0  0  0  0  0
   -5.8464    7.6251    0.3309 H   0  0  0  0  0  0  0  0  0  0  0  0
   -4.9599    6.9619   -2.1985 H   0  0  0  0  0  0  0  0  0  0  0  0
   -7.5434    7.1599    0.2532 H   0  0  0  0  0  0  0  0  0  0  0  0
   -8.8803    7.9621   -0.6390 H   0  0  0  0  0  0  0  0  0  0  0  0
   -8.7484    6.1707   -0.6390 H   0  0  0  0  0  0  0  0  0  0  0  0
   -8.4685    5.6183   -2.7705 H   0  0  0  0  0  0  0  0  0  0  0  0
   -8.4465    7.1660   -3.6820 H   0  0  0  0  0  0  0  0  0  0  0  0
   -6.9985    6.1031   -3.6820 H   0  0  0  0  0  0  0  0  0  0  0  0
   -2.3098    9.4654   -1.9153 H   0  0  0  0  0  0  0  0  0  0  0  0
   -3.5913   11.5102   -2.0163 H   0  0  0  0  0  0  0  0  0  0  0  0
   -3.5319   11.7253   -0.2535 H   0  0  0  0  0  0  0  0  0  0  0  0
   -1.9749   13.1792   -2.1577 H   0  0  0  0  0  0  0  0  0  0  0  0
   -1.6340   13.1359   -0.4298 H   0  0  0  0  0  0  0  0  0  0  0  0
   -0.9282   10.2344   -3.2487 H   0  0  0  0  0  0  0  0  0  0  0  0
   -1.3712   11.9385   -3.6046 H   0  0  0  0  0  0  0  0  0  0  0  0
    0.3546   11.4403   -3.6046 H   0  0  0  0  0  0  0  0  0  0  0  0
    0.7101   12.5699   -0.2053 H   0  0  0  0  0  0  0  0  0  0  0  0
    0.2808   14.0623   -2.2615 H   0  0  0  0  0  0  0  0  0  0  0  0
    1.8913   14.1085   -1.3701 H   0  0  0  0  0  0  0  0  0  0  0  0
    2.0132   14.1693   -3.9999 H   0  0  0  0  0  0  0  0  0  0  0  0
    1.9582   10.2291   -3.1194 H   0  0  0  0  0  0  0  0  0  0  0  0
    4.7535   11.1719   -2.2312 H   0  0  0  0  0  0  0  0  0  0  0  0
    4.0754    9.4884   -2.1018 H   0  0  0  0  0  0  0  0  0  0  0  0
    5.6459    9.7227   -4.0001 H   0  0  0  0  0  0  0  0  0  0  0  0
    3.9641    9.3141   -4.5206 H   0  0  0  0  0  0  0  0  0  0  0  0
    4.8432   10.9886   -5.9988 H   0  0  0  0  0  0  0  0  0  0  0  0
    5.3360   12.4200   -3.5500 H   0  0  0  0  0  0  0  0  0  0  0  0
    1.6112   10.4667   -5.1856 H   0  0  0  0  0  0  0  0  0  0  0  0
    1.5704   11.6745   -6.5146 H   0  0  0  0  0  0  0  0  0  0  0  0
    2.8166   10.3808   -6.5146 H   0  0  0  0  0  0  0  0  0  0  0  0
    3.4113   14.1414   -5.2169 H   0  0  0  0  0  0  0  0  0  0  0  0
    4.2158   13.2240   -6.5351 H   0  0  0  0  0  0  0  0  0  0  0  0
    2.4298   13.4163   -6.5351 H   0  0  0  0  0  0  0  0  0  0  0  0
    2.8817   11.6706    0.7254 H   0  0  0  0  0  0  0  0  0  0  0  0
    4.1208   11.3204   -0.5270 H   0  0  0  0  0  0  0  0  0  0  0  0
    3.2652   12.8998   -0.5270 H   0  0  0  0  0  0  0  0  0  0  0  0
    2.3663    9.0849   -0.9987 H   0  0  0  0  0  0  0  0  0  0  0  0
    1.6875    9.9960    0.4652 H   0  0  0  0  0  0  0  0  0  0  0  0
    0.1714    9.0251   -1.9739 H   0  0  0  0  0  0  0  0  0  0  0  0
    0.0249    8.4705   -0.2602 H   0  0  0  0  0  0  0  0  0  0  0  0
   -0.9031    9.8530    1.4716 H   0  0  0  0  0  0  0  0  0  0  0  0
    0.2388   11.1943    1.1200 H   0  0  0  0  0  0  0  0  0  0  0  0
   -1.5315   11.4987    1.1200 H   0  0  0  0  0  0  0  0  0  0  0  0
  1  2  1  0
  2  3  1  0
  3  4  1  0
  4  5  1  0
  5  6  1  0
  6  7  1  0
  7  8  1  0
  7  9  1  0
  2 10  1  0
 10 11  1  0
 11 12  1  0
 12 13  1  0
 13 14  1  6
 13 15  1  0
 15 16  1  0
 16 17  1  0
 17 18  2  0
 18 19  1  0
 19 20  1  0
 20 21  1  0
 21 22  1  0
 22 23  1  0
 22 24  1  0
 24 25  1  0
 24 26  1  0
 19 27  1  0
 27 28  1  1
 27 29  1  0
 29 30  1  0
 30 31  1  0
 31 32  1  1
  7  5  1  0
 31 10  1  0
 31 13  1  0
 27 15  1  0
 24 18  1  0
  1 33  1  0
  1 34  1  0
  1 35  1  0
  2 36  1  1
  3 37  1  0
  3 38  1  0
  4 39  1  0
  4 40  1  0
  5 41  1  6
  8 42  1  0
  8 43  1  0
  8 44  1  0
  9 45  1  0
  9 46  1  0
  9 47  1  0
 10 48  1  6
 11 49  1  0
 11 50  1  0
 12 51  1  0
 12 52  1  0
 14 53  1  0
 14 54  1  0
 14 55  1  0
 15 56  1  1
 16 57  1  0
 16 58  1  0
 17 59  1  0
 19 60  1  6
 20 61  1  0
 20 62  1  0
 21 63  1  0
 21 64  1  0
 22 65  1  6
 23 66  1  0
 25 67  1  0
 25 68  1  0
 25 69  1  0
 26 70  1  0
 26 71  1  0
 26 72  1  0
 28 73  1  0
 28 74  1  0
 28 75  1  0
 29 76  1  0
 29 77  1  0
 30 78  1  0
 30 79  1  0
 32 80  1  0
 32 81  1  0
 32 82  1  0
M  END
>  <meeko>  (15) 
{"is_sidechain": [false], "intermolecular_energy": 2.731, "internal_energy": -0.839}

$$$$
EPH_relaxed_0001_pdb2pqr_Repair_197_r2_0001_out
     RDKit          3D

 82 86  0  0  0  0  0  0  0  0999 V2000
    3.1660   18.3260   -2.7350 C   0  0  0  0  0  0  0  0  0  0  0  0
    1.9880   17.3950   -3.0320 C   0  0  2  0  0  0  0  0  0  0  0  0
    0.6310   18.0550   -2.7130 C   0  0  0  0  0  0  0  0  0  0  0  0
    0.7540   19.3690   -1.9360 C   0  0  0  0  0  0  0  0  0  0  0  0
   -0.0840   19.3590   -0.6940 C   0  0  2  0  0  0  0  0  0  0  0  0
   -1.1330   18.3810   -0.6870 O   0  0  0  0  0  0  0  0  0  0  0  0
   -1.5480   19.7570   -0.6690 C   0  0  0  0  0  0  0  0  0  0  0  0
   -2.2590   20.1940   -1.9110 C   0  0  0  0  0  0  0  0  0  0  0  0
   -2.1510   20.1870    0.6320 C   0  0  0  0  0  0  0  0  0  0  0  0
    2.1360   16.1000   -2.2430 C   0  0  1  0  0  0  0  0  0  0  0  0
    2.6380   16.3380   -0.7940 C   0  0  0  0  0  0  0  0  0  0  0  0
    1.9470   15.2760    0.1000 C   0  0  0  0  0  0  0  0  0  0  0  0
    1.3370   14.2650   -0.8980 C   0  0  1  0  0  0  0  0  0  0  0  0
    2.5240   13.3350   -1.3020 C   0  0  0  0  0  0  0  0  0  0  0  0
    0.1090   13.4430   -0.3870 C   0  0  2  0  0  0  0  0  0  0  0  0
    0.3920   12.5260    0.8160 C   0  0  0  0  0  0  0  0  0  0  0  0
    0.8210   11.1380    0.4720 C   0  0  0  0  0  0  0  0  0  0  0  0
    0.7000   10.5590   -0.7370 C   0  0  0  0  0  0  0  0  0  0  0  0
   -0.0070   11.2830   -1.8900 C   0  0  1  0  0  0  0  0  0  0  0  0
   -0.9960   10.3090   -2.5830 C   0  0  0  0  0  0  0  0  0  0  0  0
   -0.3240    9.0150   -3.0320 C   0  0  0  0  0  0  0  0  0  0  0  0
    0.3180    8.2950   -1.8480 C   0  0  2  0  0  0  0  0  0  0  0  0
   -0.7150    7.8480   -0.9650 O   0  0  0  0  0  0  0  0  0  0  0  0
    1.3270    9.1820   -1.0660 C   0  0  0  0  0  0  0  0  0  0  0  0
    2.5920    9.4160   -1.9280 C   0  0  0  0  0  0  0  0  0  0  0  0
    1.7940    8.3850    0.1830 C   0  0  0  0  0  0  0  0  0  0  0  0
   -0.6780   12.6770   -1.5250 C   0  0  1  0  0  0  0  0  0  0  0  0
   -2.1250   12.4470   -0.9890 C   0  0  0  0  0  0  0  0  0  0  0  0
   -0.8220   13.5360   -2.8360 C   0  0  0  0  0  0  0  0  0  0  0  0
    0.3800   14.4180   -3.2240 C   0  0  0  0  0  0  0  0  0  0  0  0
    0.8600   15.2470   -2.0290 C   0  0  2  0  0  0  0  0  0  0  0  0
   -0.3050   16.2080   -1.6150 C   0  0  0  0  0  0  0  0  0  0  0  0
    3.2903   18.4242   -1.6465 H   0  0  0  0  0  0  0  0  0  0  0  0
    4.0840   17.9068   -3.1725 H   0  0  0  0  0  0  0  0  0  0  0  0
    2.9702   19.3161   -3.1725 H   0  0  0  0  0  0  0  0  0  0  0  0
    2.0033   17.1765   -4.1100 H   0  0  0  0  0  0  0  0  0  0  0  0
    0.1126   18.2594   -3.6614 H   0  0  0  0  0  0  0  0  0  0  0  0
    0.0745   17.3539   -2.0736 H   0  0  0  0  0  0  0  0  0  0  0  0
    1.8067   19.5195   -1.6546 H   0  0  0  0  0  0  0  0  0  0  0  0
    0.3984   20.1845   -2.5830 H   0  0  0  0  0  0  0  0  0  0  0  0
    0.7759   19.6713   -0.0832 H   0  0  0  0  0  0  0  0  0  0  0  0
   -3.1666   20.7518   -1.6369 H   0  0  0  0  0  0  0  0  0  0  0  0
   -1.5962   20.8409   -2.5046 H   0  0  0  0  0  0  0  0  0  0  0  0
   -2.5368   19.3105   -2.5046 H   0  0  0  0  0  0  0  0  0  0  0  0
   -1.5649   19.7690    1.4637 H   0  0  0  0  0  0  0  0  0  0  0  0
   -2.1441   21.2852    0.6941 H   0  0  0  0  0  0  0  0  0  0  0  0
   -3.1871   19.8227    0.6941 H   0  0  0  0  0  0  0  0  0  0  0  0
    2.8407   15.5654   -2.8969 H   0  0  0  0  0  0  0  0  0  0  0  0
    3.7306   16.2191   -0.7475 H   0  0  0  0  0  0  0  0  0  0  0  0
    2.3968   17.3563   -0.4551 H   0  0  0  0  0  0  0  0  0  0  0  0
    2.6806   14.7819    0.7540 H   0  0  0  0  0  0  0  0  0  0  0  0
    1.1885   15.7178    0.7629 H   0  0  0  0  0  0  0  0  0  0  0  0
    3.0141   12.9510   -0.3951 H   0  0  0  0  0  0  0  0  0  0  0  0
    2.1432   12.4923   -1.8978 H   0  0  0  0  0  0  0  0  0  0  0  0
    3.2511   13.9063   -1.8978 H   0  0  0  0  0  0  0  0  0  0  0  0
   -0.5608   14.2305   -0.0112 H   0  0  0  0  0  0  0  0  0  0  0  0
    1.1888   12.9891    1.4166 H   0  0  0  0  0  0  0  0  0  0  0  0
   -0.5624   12.4254    1.3535 H   0  0  0  0  0  0  0  0  0  0  0  0
    1.2744   10.5377    1.2746 H   0  0  0  0  0  0  0  0  0  0  0  0
    0.7837   11.5772   -2.5959 H   0  0  0  0  0  0  0  0  0  0  0  0
   -1.8011   10.0613   -1.8755 H   0  0  0  0  0  0  0  0  0  0  0  0
   -1.3863   10.8116   -3.4803 H   0  0  0  0  0  0  0  0  0  0  0  0
   -1.0783    8.3568   -3.4878 H   0  0  0  0  0  0  0  0  0  0  0  0
    0.4617    9.2617   -3.7613 H   0  0  0  0  0  0  0  0  0  0  0  0
    0.8917    7.4466   -2.2492 H   0  0  0  0  0  0  0  0  0  0  0  0
   -1.1020    7.0430   -1.3490 H   0  0  0  0  0  0  0  0  0  0  0  0
    3.4592    9.5764   -1.2705 H   0  0  0  0  0  0  0  0  0  0  0  0
    2.7711    8.5357   -2.5629 H   0  0  0  0  0  0  0  0  0  0  0  0
    2.4443   10.3021   -2.5629 H   0  0  0  0  0  0  0  0  0  0  0  0
    1.4827    8.9163    1.0945 H   0  0  0  0  0  0  0  0  0  0  0  0
    1.3401    7.3831    0.1695 H   0  0  0  0  0  0  0  0  0  0  0  0
    2.8899    8.2912    0.1695 H   0  0  0  0  0  0  0  0  0  0  0  0
   -2.1132   12.4489    0.1109 H   0  0  0  0  0  0  0  0  0  0  0  0
   -2.7820   13.2520   -1.3500 H   0  0  0  0  0  0  0  0  0  0  0  0
   -2.5000   11.4780   -1.3500 H   0  0  0  0  0  0  0  0  0  0  0  0
   -1.0087   12.8427   -3.6693 H   0  0  0  0  0  0  0  0  0  0  0  0
   -1.6413   14.2405   -2.6300 H   0  0  0  0  0  0  0  0  0  0  0  0
    1.2024   13.7740   -3.5688 H   0  0  0  0  0  0  0  0  0  0  0  0
    0.0673   15.1048   -4.0243 H   0  0  0  0  0  0  0  0  0  0  0  0
   -0.3663   16.2585   -0.5179 H   0  0  0  0  0  0  0  0  0  0  0  0
   -0.1120   17.2131   -2.0182 H   0  0  0  0  0  0  0  0  0  0  0  0
   -1.2551   15.8274   -2.0182 H   0  0  0  0  0  0  0  0  0  0  0  0
  1  2  1  0
  2  3  1  0
  3  4  1  0
  4  5  1  0
  5  6  1  0
  6  7  1  0
  7  8  1  0
  7  9  1  0
  2 10  1  0
 10 11  1  0
 11 12  1  0
 12 13  1  0
 13 14  1  6
 13 15  1  0
 15 16  1  0
 16 17  1  0
 17 18  2  0
 18 19  1  0
 19 20  1  0
 20 21  1  0
 21 22  1  0
 22 23  1  0
 22 24  1  0
 24 25  1  0
 24 26  1  0
 19 27  1  0
 27 28  1  1
 27 29  1  0
 29 30  1  0
 30 31  1  0
 31 32  1  1
  7  5  1  0
 31 10  1  0
 31 13  1  0
 27 15  1  0
 24 18  1  0
  1 33  1  0
  1 34  1  0
  1 35  1  0
  2 36  1  6
  3 37  1  0
  3 38  1  0
  4 39  1  0
  4 40  1  0
  5 41  1  1
  8 42  1  0
  8 43  1  0
  8 44  1  0
  9 45  1  0
  9 46  1  0
  9 47  1  0
 10 48  1  6
 11 49  1  0
 11 50  1  0
 12 51  1  0
 12 52  1  0
 14 53  1  0
 14 54  1  0
 14 55  1  0
 15 56  1  1
 16 57  1  0
 16 58  1  0
 17 59  1  0
 19 60  1  6
 20 61  1  0
 20 62  1  0
 21 63  1  0
 21 64  1  0
 22 65  1  6
 23 66  1  0
 25 67  1  0
 25 68  1  0
 25 69  1  0
 26 70  1  0
 26 71  1  0
 26 72  1  0
 28 73  1  0
 28 74  1  0
 28 75  1  0
 29 76  1  0
 29 77  1  0
 30 78  1  0
 30 79  1  0
 32 80  1  0
 32 81  1  0
 32 82  1  0
M  END
>  <meeko>  (16) 
{"is_sidechain": [false], "intermolecular_energy": 2.731, "internal_energy": -0.839}

$$$$
EPH_relaxed_0001_pdb2pqr_Repair_197_r2_0001_out
     RDKit          3D

 82 86  0  0  0  0  0  0  0  0999 V2000
    4.0240   11.2300   -5.2690 C   0  0  0  0  0  0  0  0  0  0  0  0
    2.8510   12.0710   -5.7830 C   0  0  2  0  0  0  0  0  0  0  0  0
    3.3020   13.1340   -6.8050 C   0  0  0  0  0  0  0  0  0  0  0  0
    2.2140   14.1530   -7.1540 C   0  0  0  0  0  0  0  0  0  0  0  0
    2.4610   14.7920   -8.4870 C   0  0  2  0  0  0  0  0  0  0  0  0
    2.4610   16.2260   -8.4720 O   0  0  0  0  0  0  0  0  0  0  0  0
    1.4160   15.6000   -9.2340 C   0  0  0  0  0  0  0  0  0  0  0  0
    0.0450   15.8100   -8.6720 C   0  0  0  0  0  0  0  0  0  0  0  0
    1.5640   15.7680  -10.7140 C   0  0  0  0  0  0  0  0  0  0  0  0
    2.1410   12.7420   -4.6130 C   0  0  1  0  0  0  0  0  0  0  0  0
    1.1040   13.8010   -5.0720 C   0  0  0  0  0  0  0  0  0  0  0  0
   -0.0710   13.7440   -4.0620 C   0  0  0  0  0  0  0  0  0  0  0  0
    0.4690   12.9030   -2.8820 C   0  0  1  0  0  0  0  0  0  0  0  0
    1.3170   13.9010   -2.0330 C   0  0  0  0  0  0  0  0  0  0  0  0
   -0.6000   12.1670   -2.0110 C   0  0  2  0  0  0  0  0  0  0  0  0
   -1.5910   13.0890   -1.2780 C   0  0  0  0  0  0  0  0  0  0  0  0
   -1.1740   13.5110    0.0920 C   0  0  0  0  0  0  0  0  0  0  0  0
   -0.1950   12.9440    0.8210 C   0  0  0  0  0  0  0  0  0  0  0  0
    0.5440   11.6980    0.3150 C   0  0  1  0  0  0  0  0  0  0  0  0
    0.6420   10.6540    1.4580 C   0  0  0  0  0  0  0  0  0  0  0  0
    1.2690   11.2300    2.7240 C   0  0  0  0  0  0  0  0  0  0  0  0
    0.4730   12.4310    3.2290 C   0  0  2  0  0  0  0  0  0  0  0  0
   -0.8120   11.9800    3.6670 O   0  0  0  0  0  0  0  0  0  0  0  0
    0.3000   13.5450    2.1600 C   0  0  0  0  0  0  0  0  0  0  0  0
    1.6610   14.2400    1.9070 C   0  0  0  0  0  0  0  0  0  0  0  0
   -0.6390   14.6320    2.7500 C   0  0  0  0  0  0  0  0  0  0  0  0
   -0.0020   11.0710   -1.0390 C   0  0  1  0  0  0  0  0  0  0  0  0
   -1.1580   10.0690   -0.7340 C   0  0  0  0  0  0  0  0  0  0  0  0
    1.1450   10.2320   -1.7170 C   0  0  0  0  0  0  0  0  0  0  0  0
    2.0970   10.9920   -2.6600 C   0  0  0  0  0  0  0  0  0  0  0  0
    1.3120   11.8340   -3.6700 C   0  0  2  0  0  0  0  0  0  0  0  0
    0.4660   10.8550   -4.5540 C   0  0  0  0  0  0  0  0  0  0  0  0
    4.0220   11.2315   -4.1690 H   0  0  0  0  0  0  0  0  0  0  0  0
    3.9228   10.1974   -5.6345 H   0  0  0  0  0  0  0  0  0  0  0  0
    4.9694   11.6573   -5.6345 H   0  0  0  0  0  0  0  0  0  0  0  0
    2.1572   11.3908   -6.2988 H   0  0  0  0  0  0  0  0  0  0  0  0
    4.1631   13.6752   -6.3860 H   0  0  0  0  0  0  0  0  0  0  0  0
    3.5528   12.6008   -7.7339 H   0  0  0  0  0  0  0  0  0  0  0  0
    1.2407   13.6411   -7.1788 H   0  0  0  0  0  0  0  0  0  0  0  0
    2.2245   14.9422   -6.3878 H   0  0  0  0  0  0  0  0  0  0  0  0
    3.1061   13.9560   -8.7951 H   0  0  0  0  0  0  0  0  0  0  0  0
    0.0941   15.8025   -7.5731 H   0  0  0  0  0  0  0  0  0  0  0  0
   -0.3474   16.7787   -9.0149 H   0  0  0  0  0  0  0  0  0  0  0  0
   -0.6194   15.0031   -9.0149 H   0  0  0  0  0  0  0  0  0  0  0  0
    2.2781   16.5786  -10.9214 H   0  0  0  0  0  0  0  0  0  0  0  0
    1.9353   14.8307  -11.1541 H   0  0  0  0  0  0  0  0  0  0  0  0
    0.5874   16.0181  -11.1541 H   0  0  0  0  0  0  0  0  0  0  0  0
    3.0113   13.1476   -4.0763 H   0  0  0  0  0  0  0  0  0  0  0  0
    1.5585   14.8027   -5.0681 H   0  0  0  0  0  0  0  0  0  0  0  0
    0.7557   13.5951   -6.0949 H   0  0  0  0  0  0  0  0  0  0  0  0
   -0.3432   14.7553   -3.7255 H   0  0  0  0  0  0  0  0  0  0  0  0
   -0.9795   13.3083   -4.5033 H   0  0  0  0  0  0  0  0  0  0  0  0
    1.1509   13.7055   -0.9633 H   0  0  0  0  0  0  0  0  0  0  0  0
    2.3833   13.7689   -2.2687 H   0  0  0  0  0  0  0  0  0  0  0  0
    1.0144   14.9320   -2.2687 H   0  0  0  0  0  0  0  0  0  0  0  0
   -1.1930   11.6320   -2.7674 H   0  0  0  0  0  0  0  0  0  0  0  0
   -1.7263   13.9953   -1.8866 H   0  0  0  0  0  0  0  0  0  0  0  0
   -2.5135   12.5038   -1.1491 H   0  0  0  0  0  0  0  0  0  0  0  0
   -1.7125   14.3570    0.5439 H   0  0  0  0  0  0  0  0  0  0  0  0
    1.5516   12.0361    0.0314 H   0  0  0  0  0  0  0  0  0  0  0  0
   -0.3705   10.2967    1.6970 H   0  0  0  0  0  0  0  0  0  0  0  0
    1.2880    9.8353    1.1081 H   0  0  0  0  0  0  0  0  0  0  0  0
    1.2836   10.4542    3.5036 H   0  0  0  0  0  0  0  0  0  0  0  0
    2.2921   11.5598    2.4905 H   0  0  0  0  0  0  0  0  0  0  0  0
    1.0409   12.8786    4.0579 H   0  0  0  0  0  0  0  0  0  0  0  0
   -0.7100   11.6280    4.5680 H   0  0  0  0  0  0  0  0  0  0  0  0
    2.1340   14.4816    2.8703 H   0  0  0  0  0  0  0  0  0  0  0  0
    2.3162   13.5661    1.3355 H   0  0  0  0  0  0  0  0  0  0  0  0
    1.4993   15.1659    1.3355 H   0  0  0  0  0  0  0  0  0  0  0  0
   -0.6031   14.5905    3.8486 H   0  0  0  0  0  0  0  0  0  0  0  0
   -0.3098   15.6249    2.4097 H   0  0  0  0  0  0  0  0  0  0  0  0
   -1.6692   14.4506    2.4097 H   0  0  0  0  0  0  0  0  0  0  0  0
   -1.2765    9.9663    0.3548 H   0  0  0  0  0  0  0  0  0  0  0  0
   -2.0946   10.4457   -1.1708 H   0  0  0  0  0  0  0  0  0  0  0  0
   -0.9181    9.0884   -1.1708 H   0  0  0  0  0  0  0  0  0  0  0  0
    1.7539    9.7910   -0.9140 H   0  0  0  0  0  0  0  0  0  0  0  0
    0.6278    9.5021   -2.3571 H   0  0  0  0  0  0  0  0  0  0  0  0
    2.7415   11.6543   -2.0633 H   0  0  0  0  0  0  0  0  0  0  0  0
    2.7036   10.2585   -3.2114 H   0  0  0  0  0  0  0  0  0  0  0  0
   -0.1145   10.1833   -3.9045 H   0  0  0  0  0  0  0  0  0  0  0  0
   -0.2203   11.4345   -5.1890 H   0  0  0  0  0  0  0  0  0  0  0  0
    1.1389   10.2600   -5.1890 H   0  0  0  0  0  0  0  0  0  0  0  0
  1  2  1  0
  2  3  1  0
  3  4  1  0
  4  5  1  0
  5  6  1  0
  6  7  1  0
  7  8  1  0
  7  9  1  0
  2 10  1  0
 10 11  1  0
 11 12  1  0
 12 13  1  0
 13 14  1  1
 13 15  1  0
 15 16  1  0
 16 17  1  0
 17 18  2  0
 18 19  1  0
 19 20  1  0
 20 21  1  0
 21 22  1  0
 22 23  1  0
 22 24  1  0
 24 25  1  0
 24 26  1  0
 19 27  1  0
 27 28  1  1
 27 29  1  0
 29 30  1  0
 30 31  1  0
 31 32  1  6
  7  5  1  0
 31 10  1  0
 31 13  1  0
 27 15  1  0
 24 18  1  0
  1 33  1  0
  1 34  1  0
  1 35  1  0
  2 36  1  6
  3 37  1  0
  3 38  1  0
  4 39  1  0
  4 40  1  0
  5 41  1  6
  8 42  1  0
  8 43  1  0
  8 44  1  0
  9 45  1  0
  9 46  1  0
  9 47  1  0
 10 48  1  1
 11 49  1  0
 11 50  1  0
 12 51  1  0
 12 52  1  0
 14 53  1  0
 14 54  1  0
 14 55  1  0
 15 56  1  6
 16 57  1  0
 16 58  1  0
 17 59  1  0
 19 60  1  6
 20 61  1  0
 20 62  1  0
 21 63  1  0
 21 64  1  0
 22 65  1  1
 23 66  1  0
 25 67  1  0
 25 68  1  0
 25 69  1  0
 26 70  1  0
 26 71  1  0
 26 72  1  0
 28 73  1  0
 28 74  1  0
 28 75  1  0
 29 76  1  0
 29 77  1  0
 30 78  1  0
 30 79  1  0
 32 80  1  0
 32 81  1  0
 32 82  1  0
M  END
>  <meeko>  (17) 
{"is_sidechain": [false], "intermolecular_energy": 2.731, "internal_energy": -0.839}

$$$$
EPH_relaxed_0001_pdb2pqr_Repair_197_r2_0001_out
     RDKit          3D

 82 86  0  0  0  0  0  0  0  0999 V2000
   -4.8420    6.8380   -0.0960 C   0  0  0  0  0  0  0  0  0  0  0  0
   -4.7930    7.7270   -1.3420 C   0  0  2  0  0  0  0  0  0  0  0  0
   -4.2600    6.9710   -2.5750 C   0  0  0  0  0  0  0  0  0  0  0  0
   -5.3380    6.6540   -3.6160 C   0  0  0  0  0  0  0  0  0  0  0  0
   -6.5170    5.9620   -3.0010 C   0  0  2  0  0  0  0  0  0  0  0  0
   -7.6970    5.9530   -3.8140 O   0  0  0  0  0  0  0  0  0  0  0  0
   -7.7840    6.6830   -2.5800 C   0  0  0  0  0  0  0  0  0  0  0  0
   -7.9350    8.1620   -2.7570 C   0  0  0  0  0  0  0  0  0  0  0  0
   -8.6680    6.0380   -1.5590 C   0  0  0  0  0  0  0  0  0  0  0  0
   -3.9310    8.9550   -1.0710 C   0  0  1  0  0  0  0  0  0  0  0  0
   -4.2710    9.6370    0.2810 C   0  0  0  0  0  0  0  0  0  0  0  0
   -2.9380   10.1860    0.8520 C   0  0  0  0  0  0  0  0  0  0  0  0
   -1.9430   10.0990   -0.3280 C   0  0  1  0  0  0  0  0  0  0  0  0
   -2.2380   11.3630   -1.1960 C   0  0  0  0  0  0  0  0  0  0  0  0
   -0.4290    9.9990    0.0510 C   0  0  2  0  0  0  0  0  0  0  0  0
    0.1340   11.2110    0.8130 C   0  0  0  0  0  0  0  0  0  0  0  0
    0.7080   12.2920   -0.0410 C   0  0  0  0  0  0  0  0  0  0  0  0
    1.0290   12.1730   -1.3430 C   0  0  0  0  0  0  0  0  0  0  0  0
    0.9120   10.8230   -2.0620 C   0  0  1  0  0  0  0  0  0  0  0  0
    2.1980   10.5640   -2.8910 C   0  0  0  0  0  0  0  0  0  0  0  0
    2.5180   11.7090   -3.8470 C   0  0  0  0  0  0  0  0  0  0  0  0
    2.6840   13.0230   -3.0880 C   0  0  2  0  0  0  0  0  0  0  0  0
    3.8530   12.9360   -2.2670 O   0  0  0  0  0  0  0  0  0  0  0  0
    1.4540   13.3830   -2.2100 C   0  0  0  0  0  0  0  0  0  0  0  0
    0.2620   13.7720   -3.1190 C   0  0  0  0  0  0  0  0  0  0  0  0
    1.8070   14.6540   -1.3910 C   0  0  0  0  0  0  0  0  0  0  0  0
    0.5140    9.5830   -1.1500 C   0  0  1  0  0  0  0  0  0  0  0  0
    1.7930    8.9570   -0.5160 C   0  0  0  0  0  0  0  0  0  0  0  0
   -0.1270    8.4650   -2.0540 C   0  0  0  0  0  0  0  0  0  0  0  0
   -1.6470    8.5510   -2.2940 C   0  0  0  0  0  0  0  0  0  0  0  0
   -2.4000    8.7400   -0.9730 C   0  0  2  0  0  0  0  0  0  0  0  0
   -2.1400    7.4740   -0.0880 C   0  0  0  0  0  0  0  0  0  0  0  0
   -4.8073    7.4677    0.8053 H   0  0  0  0  0  0  0  0  0  0  0  0
   -5.7737    6.2533   -0.0991 H   0  0  0  0  0  0  0  0  0  0  0  0
   -3.9802    6.1545   -0.0991 H   0  0  0  0  0  0  0  0  0  0  0  0
   -5.8239    8.0383   -1.5665 H   0  0  0  0  0  0  0  0  0  0  0  0
   -3.4861    7.5890   -3.0536 H   0  0  0  0  0  0  0  0  0  0  0  0
   -3.8661    6.0085   -2.2166 H   0  0  0  0  0  0  0  0  0  0  0  0
   -5.6766    7.5941   -4.0760 H   0  0  0  0  0  0  0  0  0  0  0  0
   -4.9004    5.9817   -4.3687 H   0  0  0  0  0  0  0  0  0  0  0  0
   -5.8577    5.2584   -2.4716 H   0  0  0  0  0  0  0  0  0  0  0  0
   -7.9844    8.6462   -1.7705 H   0  0  0  0  0  0  0  0  0  0  0  0
   -7.0723    8.5545   -3.3153 H   0  0  0  0  0  0  0  0  0  0  0  0
   -8.8593    8.3720   -3.3153 H   0  0  0  0  0  0  0  0  0  0  0  0
   -8.3130    6.2970   -0.5506 H   0  0  0  0  0  0  0  0  0  0  0  0
   -9.6997    6.3970   -1.6880 H   0  0  0  0  0  0  0  0  0  0  0  0
   -8.6410    4.9459   -1.6880 H   0  0  0  0  0  0  0  0  0  0  0  0
   -4.1715    9.5507   -1.9639 H   0  0  0  0  0  0  0  0  0  0  0  0
   -4.9826   10.4605    0.1216 H   0  0  0  0  0  0  0  0  0  0  0  0
   -4.7354    8.9237    0.9777 H   0  0  0  0  0  0  0  0  0  0  0  0
   -3.0574   11.2281    1.1832 H   0  0  0  0  0  0  0  0  0  0  0  0
   -2.5950    9.6184    1.7296 H   0  0  0  0  0  0  0  0  0  0  0  0
   -2.4383   12.2212   -0.5377 H   0  0  0  0  0  0  0  0  0  0  0  0
   -1.3671   11.5832   -1.8309 H   0  0  0  0  0  0  0  0  0  0  0  0
   -3.1164   11.1750   -1.8309 H   0  0  0  0  0  0  0  0  0  0  0  0
   -0.4201    9.1646    0.7677 H   0  0  0  0  0  0  0  0  0  0  0  0
   -0.6816   11.6461    1.4092 H   0  0  0  0  0  0  0  0  0  0  0  0
    0.9680   10.8279    1.4194 H   0  0  0  0  0  0  0  0  0  0  0  0
    0.8837   13.2687    0.4336 H   0  0  0  0  0  0  0  0  0  0  0  0
    0.0458   10.9114   -2.7343 H   0  0  0  0  0  0  0  0  0  0  0  0
    3.0436   10.4354   -2.1993 H   0  0  0  0  0  0  0  0  0  0  0  0
    2.0291    9.6610   -3.4961 H   0  0  0  0  0  0  0  0  0  0  0  0
    3.4521   11.4814   -4.3814 H   0  0  0  0  0  0  0  0  0  0  0  0
    1.6850   11.8166   -4.5573 H   0  0  0  0  0  0  0  0  0  0  0  0
    2.7813   13.8253   -3.8342 H   0  0  0  0  0  0  0  0  0  0  0  0
    4.5140   12.4130   -2.7500 H   0  0  0  0  0  0  0  0  0  0  0  0
   -0.5989   14.0529   -2.4946 H   0  0  0  0  0  0  0  0  0  0  0  0
    0.5478   14.6235   -3.7540 H   0  0  0  0  0  0  0  0  0  0  0  0
   -0.0095   12.9158   -3.7540 H   0  0  0  0  0  0  0  0  0  0  0  0
    1.7440   14.4271   -0.3165 H   0  0  0  0  0  0  0  0  0  0  0  0
    2.8289   14.9773   -1.6381 H   0  0  0  0  0  0  0  0  0  0  0  0
    1.0982   15.4580   -1.6381 H   0  0  0  0  0  0  0  0  0  0  0  0
    1.7150    8.9952    0.5806 H   0  0  0  0  0  0  0  0  0  0  0  0
    1.8885    7.9103   -0.8406 H   0  0  0  0  0  0  0  0  0  0  0  0
    2.6781    9.5237   -0.8406 H   0  0  0  0  0  0  0  0  0  0  0  0
    0.3676    8.5068   -3.0356 H   0  0  0  0  0  0  0  0  0  0  0  0
    0.0240    7.5263   -1.5008 H   0  0  0  0  0  0  0  0  0  0  0  0
   -1.8594    9.4044   -2.9548 H   0  0  0  0  0  0  0  0  0  0  0  0
   -1.9828    7.6121   -2.7584 H   0  0  0  0  0  0  0  0  0  0  0  0
   -2.1970    7.7516    0.9749 H   0  0  0  0  0  0  0  0  0  0  0  0
   -2.9000    6.7100   -0.3087 H   0  0  0  0  0  0  0  0  0  0  0  0
   -1.1404    7.0713   -0.3087 H   0  0  0  0  0  0  0  0  0  0  0  0
  1  2  1  0
  2  3  1  0
  3  4  1  0
  4  5  1  0
  5  6  1  0
  6  7  1  0
  7  8  1  0
  7  9  1  0
  2 10  1  0
 10 11  1  0
 11 12  1  0
 12 13  1  0
 13 14  1  6
 13 15  1  0
 15 16  1  0
 16 17  1  0
 17 18  2  0
 18 19  1  0
 19 20  1  0
 20 21  1  0
 21 22  1  0
 22 23  1  0
 22 24  1  0
 24 25  1  0
 24 26  1  0
 19 27  1  0
 27 28  1  1
 27 29  1  0
 29 30  1  0
 30 31  1  0
 31 32  1  1
  7  5  1  0
 31 10  1  0
 31 13  1  0
 27 15  1  0
 24 18  1  0
  1 33  1  0
  1 34  1  0
  1 35  1  0
  2 36  1  6
  3 37  1  0
  3 38  1  0
  4 39  1  0
  4 40  1  0
  5 41  1  1
  8 42  1  0
  8 43  1  0
  8 44  1  0
  9 45  1  0
  9 46  1  0
  9 47  1  0
 10 48  1  6
 11 49  1  0
 11 50  1  0
 12 51  1  0
 12 52  1  0
 14 53  1  0
 14 54  1  0
 14 55  1  0
 15 56  1  1
 16 57  1  0
 16 58  1  0
 17 59  1  0
 19 60  1  6
 20 61  1  0
 20 62  1  0
 21 63  1  0
 21 64  1  0
 22 65  1  6
 23 66  1  0
 25 67  1  0
 25 68  1  0
 25 69  1  0
 26 70  1  0
 26 71  1  0
 26 72  1  0
 28 73  1  0
 28 74  1  0
 28 75  1  0
 29 76  1  0
 29 77  1  0
 30 78  1  0
 30 79  1  0
 32 80  1  0
 32 81  1  0
 32 82  1  0
M  END
>  <meeko>  (18) 
{"is_sidechain": [false], "intermolecular_energy": 2.731, "internal_energy": -0.839}

$$$$
EPH_relaxed_0001_pdb2pqr_Repair_197_r2_0001_out
     RDKit          3D

 82 86  0  0  0  0  0  0  0  0999 V2000
  -14.4210    5.6310    0.2250 C   0  0  0  0  0  0  0  0  0  0  0  0
  -13.6910    6.9760    0.2700 C   0  0  2  0  0  0  0  0  0  0  0  0
  -14.6580    8.1670    0.1140 C   0  0  0  0  0  0  0  0  0  0  0  0
  -13.9640    9.4760   -0.2760 C   0  0  0  0  0  0  0  0  0  0  0  0
  -14.8800   10.3810   -1.0440 C   0  0  2  0  0  0  0  0  0  0  0  0
  -14.9060   10.1470   -2.4580 O   0  0  0  0  0  0  0  0  0  0  0  0
  -14.3910   11.4200   -2.0360 C   0  0  0  0  0  0  0  0  0  0  0  0
  -12.9320   11.6080   -2.3130 C   0  0  0  0  0  0  0  0  0  0  0  0
  -15.2870   12.5720   -2.3650 C   0  0  0  0  0  0  0  0  0  0  0  0
  -12.6240    7.0250   -0.8170 C   0  0  1  0  0  0  0  0  0  0  0  0
  -12.9460    8.0640   -1.9250 C   0  0  0  0  0  0  0  0  0  0  0  0
  -11.5920    8.6590   -2.3880 C   0  0  0  0  0  0  0  0  0  0  0  0
  -10.5240    7.7200   -1.7790 C   0  0  1  0  0  0  0  0  0  0  0  0
  -10.4640    6.4990   -2.7510 C   0  0  0  0  0  0  0  0  0  0  0  0
   -9.1090    8.3410   -1.5450 C   0  0  2  0  0  0  0  0  0  0  0  0
   -8.3850    8.8140   -2.8170 C   0  0  0  0  0  0  0  0  0  0  0  0
   -7.5180    7.7920   -3.4750 C   0  0  0  0  0  0  0  0  0  0  0  0
   -7.1020    6.6420   -2.9140 C   0  0  0  0  0  0  0  0  0  0  0  0
   -7.4250    6.3180   -1.4490 C   0  0  1  0  0  0  0  0  0  0  0  0
   -6.1460    5.8040   -0.7380 C   0  0  0  0  0  0  0  0  0  0  0  0
   -5.5030    4.6290   -1.4670 C   0  0  0  0  0  0  0  0  0  0  0  0
   -5.1430    5.0080   -2.9020 C   0  0  2  0  0  0  0  0  0  0  0  0
   -4.1050    5.9920   -2.8720 O   0  0  0  0  0  0  0  0  0  0  0  0
   -6.3520    5.5490   -3.7140 C   0  0  0  0  0  0  0  0  0  0  0  0
   -7.3420    4.3940   -4.0050 C   0  0  0  0  0  0  0  0  0  0  0  0
   -5.8250    6.0260   -5.0940 C   0  0  0  0  0  0  0  0  0  0  0  0
   -8.1600    7.4650   -0.6310 C   0  0  1  0  0  0  0  0  0  0  0  0
   -7.1070    8.4400   -0.0200 C   0  0  0  0  0  0  0  0  0  0  0  0
   -8.9260    6.8210    0.5840 C   0  0  0  0  0  0  0  0  0  0  0  0
  -10.3640    6.3340    0.3190 C   0  0  0  0  0  0  0  0  0  0  0  0
  -11.1880    7.4150   -0.3870 C   0  0  2  0  0  0  0  0  0  0  0  0
  -11.2850    8.6470    0.5760 C   0  0  0  0  0  0  0  0  0  0  0  0
  -14.6104    5.2821    1.2509 H   0  0  0  0  0  0  0  0  0  0  0  0
  -15.3779    5.7507   -0.3041 H   0  0  0  0  0  0  0  0  0  0  0  0
  -13.7992    4.8938   -0.3041 H   0  0  0  0  0  0  0  0  0  0  0  0
  -13.2177    7.0628    1.2592 H   0  0  0  0  0  0  0  0  0  0  0  0
  -15.3931    7.9179   -0.6655 H   0  0  0  0  0  0  0  0  0  0  0  0
  -15.1269    8.3314    1.0954 H   0  0  0  0  0  0  0  0  0  0  0  0
  -13.6368    9.9924    0.6385 H   0  0  0  0  0  0  0  0  0  0  0  0
  -13.1054    9.2311   -0.9186 H   0  0  0  0  0  0  0  0  0  0  0  0
  -15.5719   10.4431   -0.1911 H   0  0  0  0  0  0  0  0  0  0  0  0
  -12.3843   11.6786   -1.3617 H   0  0  0  0  0  0  0  0  0  0  0  0
  -12.5550   10.7510   -2.8904 H   0  0  0  0  0  0  0  0  0  0  0  0
  -12.7846   12.5326   -2.8904 H   0  0  0  0  0  0  0  0  0  0  0  0
  -15.6466   13.0344   -1.4339 H   0  0  0  0  0  0  0  0  0  0  0  0
  -14.7276   13.3157   -2.9515 H   0  0  0  0  0  0  0  0  0  0  0  0
  -16.1455   12.2129   -2.9515 H   0  0  0  0  0  0  0  0  0  0  0  0
  -12.6471    5.9752   -1.1445 H   0  0  0  0  0  0  0  0  0  0  0  0
  -13.4522    7.5729   -2.7691 H   0  0  0  0  0  0  0  0  0  0  0  0
  -13.6140    8.8513   -1.5457 H   0  0  0  0  0  0  0  0  0  0  0  0
  -11.5248    8.6630   -3.4859 H   0  0  0  0  0  0  0  0  0  0  0  0
  -11.4628    9.7025   -2.0649 H   0  0  0  0  0  0  0  0  0  0  0  0
  -10.4182    5.5677   -2.1674 H   0  0  0  0  0  0  0  0  0  0  0  0
  -11.3628    6.4906   -3.3851 H   0  0  0  0  0  0  0  0  0  0  0  0
   -9.5687    6.5788   -3.3851 H   0  0  0  0  0  0  0  0  0  0  0  0
   -9.3434    9.2544   -0.9786 H   0  0  0  0  0  0  0  0  0  0  0  0
   -9.1472    9.1317   -3.5437 H   0  0  0  0  0  0  0  0  0  0  0  0
   -7.7127    9.6251   -2.5006 H   0  0  0  0  0  0  0  0  0  0  0  0
   -7.1918    7.9965   -4.5054 H   0  0  0  0  0  0  0  0  0  0  0  0
   -8.1832    5.5214   -1.4737 H   0  0  0  0  0  0  0  0  0  0  0  0
   -5.4178    6.6267   -0.6843 H   0  0  0  0  0  0  0  0  0  0  0  0
   -6.4383    5.4556    0.2636 H   0  0  0  0  0  0  0  0  0  0  0  0
   -4.5886    4.3310   -0.9332 H   0  0  0  0  0  0  0  0  0  0  0  0
   -6.2215    3.7965   -1.4934 H   0  0  0  0  0  0  0  0  0  0  0  0
   -4.8079    4.0922   -3.4110 H   0  0  0  0  0  0  0  0  0  0  0  0
   -3.2750    5.5520   -3.1230 H   0  0  0  0  0  0  0  0  0  0  0  0
   -7.7032    3.9726   -3.0553 H   0  0  0  0  0  0  0  0  0  0  0  0
   -8.1949    4.7790   -4.5832 H   0  0  0  0  0  0  0  0  0  0  0  0
   -6.8310    3.6100   -4.5832 H   0  0  0  0  0  0  0  0  0  0  0  0
   -5.0170    6.7574   -4.9451 H   0  0  0  0  0  0  0  0  0  0  0  0
   -5.4396    5.1634   -5.6574 H   0  0  0  0  0  0  0  0  0  0  0  0
   -6.6450    6.4952   -5.6574 H   0  0  0  0  0  0  0  0  0  0  0  0
   -7.1576    8.3932    1.0778 H   0  0  0  0  0  0  0  0  0  0  0  0
   -6.1002    8.1482   -0.3535 H   0  0  0  0  0  0  0  0  0  0  0  0
   -7.3206    9.4662   -0.3535 H   0  0  0  0  0  0  0  0  0  0  0  0
   -8.3394    5.9558    0.9265 H   0  0  0  0  0  0  0  0  0  0  0  0
   -9.0274    7.6302    1.3221 H   0  0  0  0  0  0  0  0  0  0  0  0
  -10.3286    5.4365   -0.3160 H   0  0  0  0  0  0  0  0  0  0  0  0
  -10.8399    6.1047    1.2839 H   0  0  0  0  0  0  0  0  0  0  0  0
  -11.2577    8.2998    1.6194 H   0  0  0  0  0  0  0  0  0  0  0  0
  -10.4373    9.3236    0.3924 H   0  0  0  0  0  0  0  0  0  0  0  0
  -12.2281    9.1826    0.3924 H   0  0  0  0  0  0  0  0  0  0  0  0
  1  2  1  0
  2  3  1  0
  3  4  1  0
  4  5  1  0
  5  6  1  0
  6  7  1  0
  7  8  1  0
  7  9  1  0
  2 10  1  0
 10 11  1  0
 11 12  1  0
 12 13  1  0
 13 14  1  6
 13 15  1  0
 15 16  1  0
 16 17  1  0
 17 18  2  0
 18 19  1  0
 19 20  1  0
 20 21  1  0
 21 22  1  0
 22 23  1  0
 22 24  1  0
 24 25  1  0
 24 26  1  0
 19 27  1  0
 27 28  1  1
 27 29  1  0
 29 30  1  0
 30 31  1  0
 31 32  1  1
  7  5  1  0
 31 10  1  0
 31 13  1  0
 27 15  1  0
 24 18  1  0
  1 33  1  0
  1 34  1  0
  1 35  1  0
  2 36  1  1
  3 37  1  0
  3 38  1  0
  4 39  1  0
  4 40  1  0
  5 41  1  1
  8 42  1  0
  8 43  1  0
  8 44  1  0
  9 45  1  0
  9 46  1  0
  9 47  1  0
 10 48  1  6
 11 49  1  0
 11 50  1  0
 12 51  1  0
 12 52  1  0
 14 53  1  0
 14 54  1  0
 14 55  1  0
 15 56  1  1
 16 57  1  0
 16 58  1  0
 17 59  1  0
 19 60  1  6
 20 61  1  0
 20 62  1  0
 21 63  1  0
 21 64  1  0
 22 65  1  6
 23 66  1  0
 25 67  1  0
 25 68  1  0
 25 69  1  0
 26 70  1  0
 26 71  1  0
 26 72  1  0
 28 73  1  0
 28 74  1  0
 28 75  1  0
 29 76  1  0
 29 77  1  0
 30 78  1  0
 30 79  1  0
 32 80  1  0
 32 81  1  0
 32 82  1  0
M  END
>  <meeko>  (19) 
{"is_sidechain": [false], "intermolecular_energy": 2.731, "internal_energy": -0.839}

$$$$
