EPH_relaxed_0001_pdb2pqr_Repair_31_r2_0001_out
     RDKit          3D

 82 86  0  0  0  0  0  0  0  0999 V2000
   -1.5130    8.6310   -1.9070 C   0  0  0  0  0  0  0  0  0  0  0  0
   -1.8480    9.1110   -0.4920 C   0  0  2  0  0  0  0  0  0  0  0  0
   -3.3480    9.4320   -0.3280 C   0  0  0  0  0  0  0  0  0  0  0  0
   -4.2340    8.1890   -0.2100 C   0  0  0  0  0  0  0  0  0  0  0  0
   -5.0470    7.9680   -1.4500 C   0  0  2  0  0  0  0  0  0  0  0  0
   -6.3410    7.3950   -1.2220 O   0  0  0  0  0  0  0  0  0  0  0  0
   -5.4160    6.5940   -1.9750 C   0  0  0  0  0  0  0  0  0  0  0  0
   -4.9790    5.3470   -1.2720 C   0  0  0  0  0  0  0  0  0  0  0  0
   -5.7780    6.4540   -3.4210 C   0  0  0  0  0  0  0  0  0  0  0  0
   -1.0130   10.3380   -0.1480 C   0  0  1  0  0  0  0  0  0  0  0  0
    0.0590   10.0460    0.9370 C   0  0  0  0  0  0  0  0  0  0  0  0
    1.2960   10.9130    0.5880 C   0  0  0  0  0  0  0  0  0  0  0  0
    0.7850   11.9120   -0.4760 C   0  0  1  0  0  0  0  0  0  0  0  0
    0.0700   13.0350    0.3380 C   0  0  0  0  0  0  0  0  0  0  0  0
    1.8610   12.4990   -1.4470 C   0  0  2  0  0  0  0  0  0  0  0  0
    2.9610   13.3360   -0.7710 C   0  0  0  0  0  0  0  0  0  0  0  0
    2.6730   14.7960   -0.6590 C   0  0  0  0  0  0  0  0  0  0  0  0
    1.7120   15.4580   -1.3300 C   0  0  0  0  0  0  0  0  0  0  0  0
    0.8560   14.7460   -2.3850 C   0  0  1  0  0  0  0  0  0  0  0  0
    0.7680   15.6260   -3.6600 C   0  0  0  0  0  0  0  0  0  0  0  0
    0.2730   17.0380   -3.3630 C   0  0  0  0  0  0  0  0  0  0  0  0
    1.1830   17.7340   -2.3540 C   0  0  2  0  0  0  0  0  0  0  0  0
    2.4630   17.9470   -2.9580 O   0  0  0  0  0  0  0  0  0  0  0  0
    1.3550   16.9350   -1.0320 C   0  0  0  0  0  0  0  0  0  0  0  0
    0.0300   16.9630   -0.2300 C   0  0  0  0  0  0  0  0  0  0  0  0
    2.4050   17.6750   -0.1600 C   0  0  0  0  0  0  0  0  0  0  0  0
    1.2600   13.2430   -2.7070 C   0  0  1  0  0  0  0  0  0  0  0  0
    2.3640   13.2140   -3.8090 C   0  0  0  0  0  0  0  0  0  0  0  0
    0.0130   12.4920   -3.3070 C   0  0  0  0  0  0  0  0  0  0  0  0
   -0.9490   11.8310   -2.3030 C   0  0  0  0  0  0  0  0  0  0  0  0
   -0.1820   10.9760   -1.2890 C   0  0  2  0  0  0  0  0  0  0  0  0
    0.5300    9.8240   -2.0770 C   0  0  0  0  0  0  0  0  0  0  0  0
   -0.8843    7.7302   -1.8494 H   0  0  0  0  0  0  0  0  0  0  0  0
   -2.4435    8.3950   -2.4440 H   0  0  0  0  0  0  0  0  0  0  0  0
   -0.9705    9.4230   -2.4440 H   0  0  0  0  0  0  0  0  0  0  0  0
   -1.6074    8.2914    0.2011 H   0  0  0  0  0  0  0  0  0  0  0  0
   -3.4762   10.0375    0.5814 H   0  0  0  0  0  0  0  0  0  0  0  0
   -3.6635    9.9667   -1.2361 H   0  0  0  0  0  0  0  0  0  0  0  0
   -3.5944    7.3100   -0.0417 H   0  0  0  0  0  0  0  0  0  0  0  0
   -4.9261    8.3398    0.6315 H   0  0  0  0  0  0  0  0  0  0  0  0
   -4.5904    8.8440   -1.9340 H   0  0  0  0  0  0  0  0  0  0  0  0
   -5.0330    5.5012   -0.1842 H   0  0  0  0  0  0  0  0  0  0  0  0
   -5.6390    4.5146   -1.5576 H   0  0  0  0  0  0  0  0  0  0  0  0
   -3.9438    5.1087   -1.5576 H   0  0  0  0  0  0  0  0  0  0  0  0
   -6.8009    6.0584   -3.5063 H   0  0  0  0  0  0  0  0  0  0  0  0
   -5.7235    7.4380   -3.9096 H   0  0  0  0  0  0  0  0  0  0  0  0
   -5.0756    5.7627   -3.9096 H   0  0  0  0  0  0  0  0  0  0  0  0
   -1.8142   11.0245    0.1633 H   0  0  0  0  0  0  0  0  0  0  0  0
   -0.3250   10.3168    1.9316 H   0  0  0  0  0  0  0  0  0  0  0  0
    0.3188    8.9773    0.9581 H   0  0  0  0  0  0  0  0  0  0  0  0
    1.6599   11.4465    1.4785 H   0  0  0  0  0  0  0  0  0  0  0  0
    2.1389   10.3086    0.2217 H   0  0  0  0  0  0  0  0  0  0  0  0
    0.1925   12.8425    1.4141 H   0  0  0  0  0  0  0  0  0  0  0  0
    0.5143   14.0094    0.0869 H   0  0  0  0  0  0  0  0  0  0  0  0
   -1.0009   13.0447    0.0869 H   0  0  0  0  0  0  0  0  0  0  0  0
    2.3615   11.5936   -1.8208 H   0  0  0  0  0  0  0  0  0  0  0  0
    3.1133   12.9408    0.2442 H   0  0  0  0  0  0  0  0  0  0  0  0
    3.8484   13.2495   -1.4152 H   0  0  0  0  0  0  0  0  0  0  0  0
    3.2993   15.3810    0.0306 H   0  0  0  0  0  0  0  0  0  0  0  0
   -0.1435   14.6327   -1.9399 H   0  0  0  0  0  0  0  0  0  0  0  0
    1.7681   15.6910   -4.1133 H   0  0  0  0  0  0  0  0  0  0  0  0
    0.0445   15.1549   -4.3416 H   0  0  0  0  0  0  0  0  0  0  0  0
    0.2603   17.6190   -4.2970 H   0  0  0  0  0  0  0  0  0  0  0  0
   -0.7390   16.9730   -2.9368 H   0  0  0  0  0  0  0  0  0  0  0  0
    0.7077   18.6885   -2.0839 H   0  0  0  0  0  0  0  0  0  0  0  0
    2.4990   18.8740   -3.2500 H   0  0  0  0  0  0  0  0  0  0  0  0
    0.2532   16.9583    0.8471 H   0  0  0  0  0  0  0  0  0  0  0  0
   -0.5331   17.8732   -0.4838 H   0  0  0  0  0  0  0  0  0  0  0  0
   -0.5710   16.0774   -0.4838 H   0  0  0  0  0  0  0  0  0  0  0  0
    2.1769   17.5142    0.9040 H   0  0  0  0  0  0  0  0  0  0  0  0
    3.4084   17.2834   -0.3831 H   0  0  0  0  0  0  0  0  0  0  0  0
    2.3736   18.7517   -0.3831 H   0  0  0  0  0  0  0  0  0  0  0  0
    3.3557   13.1879   -3.3339 H   0  0  0  0  0  0  0  0  0  0  0  0
    2.2337   12.3190   -4.4351 H   0  0  0  0  0  0  0  0  0  0  0  0
    2.2809   14.1146   -4.4351 H   0  0  0  0  0  0  0  0  0  0  0  0
   -0.5660   13.2225   -3.8910 H   0  0  0  0  0  0  0  0  0  0  0  0
    0.4323   11.6611   -3.8933 H   0  0  0  0  0  0  0  0  0  0  0  0
   -1.5032   12.6150   -1.7662 H   0  0  0  0  0  0  0  0  0  0  0  0
   -1.6414   11.1804   -2.8574 H   0  0  0  0  0  0  0  0  0  0  0  0
    0.9708    9.1107   -1.3650 H   0  0  0  0  0  0  0  0  0  0  0  0
   -0.2045    9.3041   -2.7096 H   0  0  0  0  0  0  0  0  0  0  0  0
    1.3235   10.2484   -2.7096 H   0  0  0  0  0  0  0  0  0  0  0  0
  1  2  1  0
  2  3  1  0
  3  4  1  0
  4  5  1  0
  5  6  1  0
  6  7  1  0
  7  8  1  0
  7  9  1  0
  2 10  1  0
 10 11  1  0
 11 12  1  0
 12 13  1  0
 13 14  1  1
 13 15  1  0
 15 16  1  0
 16 17  1  0
 17 18  2  0
 18 19  1  0
 19 20  1  0
 20 21  1  0
 21 22  1  0
 22 23  1  0
 22 24  1  0
 24 25  1  0
 24 26  1  0
 19 27  1  0
 27 28  1  6
 27 29  1  0
 29 30  1  0
 30 31  1  0
 31 32  1  6
  7  5  1  0
 31 10  1  0
 31 13  1  0
 27 15  1  0
 24 18  1  0
  1 33  1  0
  1 34  1  0
  1 35  1  0
  2 36  1  1
  3 37  1  0
  3 38  1  0
  4 39  1  0
  4 40  1  0
  5 41  1  6
  8 42  1  0
  8 43  1  0
  8 44  1  0
  9 45  1  0
  9 46  1  0
  9 47  1  0
 10 48  1  1
 11 49  1  0
 11 50  1  0
 12 51  1  0
 12 52  1  0
 14 53  1  0
 14 54  1  0
 14 55  1  0
 15 56  1  6
 16 57  1  0
 16 58  1  0
 17 59  1  0
 19 60  1  1
 20 61  1  0
 20 62  1  0
 21 63  1  0
 21 64  1  0
 22 65  1  1
 23 66  1  0
 25 67  1  0
 25 68  1  0
 25 69  1  0
 26 70  1  0
 26 71  1  0
 26 72  1  0
 28 73  1  0
 28 74  1  0
 28 75  1  0
 29 76  1  0
 29 77  1  0
 30 78  1  0
 30 79  1  0
 32 80  1  0
 32 81  1  0
 32 82  1  0
M  END
>  <meeko>  (1) 
{"is_sidechain": [false], "intermolecular_energy": 2.731, "internal_energy": -0.839}

$$$$
EPH_relaxed_0001_pdb2pqr_Repair_31_r2_0001_out
     RDKit          3D

 82 86  0  0  0  0  0  0  0  0999 V2000
    2.2170   19.4780   -0.7320 C   0  0  0  0  0  0  0  0  0  0  0  0
    2.4170   18.3550    0.2890 C   0  0  2  0  0  0  0  0  0  0  0  0
    3.8660   17.8260    0.2940 C   0  0  0  0  0  0  0  0  0  0  0  0
    4.8060   18.6190    1.2060 C   0  0  0  0  0  0  0  0  0  0  0  0
    4.2170   18.8230    2.5690 C   0  0  2  0  0  0  0  0  0  0  0  0
    4.0790   20.1940    2.9630 O   0  0  0  0  0  0  0  0  0  0  0  0
    4.9920   19.4010    3.7380 C   0  0  0  0  0  0  0  0  0  0  0  0
    6.4240   19.8110    3.5980 C   0  0  0  0  0  0  0  0  0  0  0  0
    4.5120   19.1130    5.1270 C   0  0  0  0  0  0  0  0  0  0  0  0
    1.4480   17.2140    0.0020 C   0  0  1  0  0  0  0  0  0  0  0  0
    0.1720   17.6870   -0.7450 C   0  0  0  0  0  0  0  0  0  0  0  0
   -0.2350   16.5400   -1.7050 C   0  0  0  0  0  0  0  0  0  0  0  0
    0.6100   15.3280   -1.2470 C   0  0  1  0  0  0  0  0  0  0  0  0
   -0.1590   14.7440   -0.0210 C   0  0  0  0  0  0  0  0  0  0  0  0
    0.8920   14.2340   -2.3270 C   0  0  2  0  0  0  0  0  0  0  0  0
   -0.3570   13.5220   -2.8760 C   0  0  0  0  0  0  0  0  0  0  0  0
   -0.7650   12.2900   -2.1380 C   0  0  0  0  0  0  0  0  0  0  0  0
   -0.0010   11.6150   -1.2600 C   0  0  0  0  0  0  0  0  0  0  0  0
    1.4550   12.0260   -1.0040 C   0  0  1  0  0  0  0  0  0  0  0  0
    2.3600   10.7660   -1.0270 C   0  0  0  0  0  0  0  0  0  0  0  0
    1.8810    9.6840   -0.0630 C   0  0  0  0  0  0  0  0  0  0  0  0
    0.4500    9.2610   -0.3850 C   0  0  2  0  0  0  0  0  0  0  0  0
    0.4390    8.6060   -1.6570 O   0  0  0  0  0  0  0  0  0  0  0  0
   -0.5510   10.4500   -0.4010 C   0  0  0  0  0  0  0  0  0  0  0  0
   -0.7660   10.9690    1.0420 C   0  0  0  0  0  0  0  0  0  0  0  0
   -1.9270    9.9090   -0.8770 C   0  0  0  0  0  0  0  0  0  0  0  0
    2.0160   13.1970   -1.9210 C   0  0  1  0  0  0  0  0  0  0  0  0
    2.5800   12.6080   -3.2500 C   0  0  0  0  0  0  0  0  0  0  0  0
    3.2290   13.8850   -1.1910 C   0  0  0  0  0  0  0  0  0  0  0  0
    2.8960   15.0390   -0.2260 C   0  0  0  0  0  0  0  0  0  0  0  0
    1.9590   16.0530   -0.8890 C   0  0  2  0  0  0  0  0  0  0  0  0
    2.7140   16.6750   -2.1130 C   0  0  0  0  0  0  0  0  0  0  0  0
    2.0478   20.4279   -0.2038 H   0  0  0  0  0  0  0  0  0  0  0  0
    3.1140   19.5640   -1.3629 H   0  0  0  0  0  0  0  0  0  0  0  0
    1.3455   19.2490   -1.3629 H   0  0  0  0  0  0  0  0  0  0  0  0
    2.2146   18.7738    1.2858 H   0  0  0  0  0  0  0  0  0  0  0  0
    3.8529   16.7798    0.6337 H   0  0  0  0  0  0  0  0  0  0  0  0
    4.2499   17.9286   -0.7317 H   0  0  0  0  0  0  0  0  0  0  0  0
    5.7533   18.0688    1.3060 H   0  0  0  0  0  0  0  0  0  0  0  0
    4.9694   19.6077    0.7524 H   0  0  0  0  0  0  0  0  0  0  0  0
    3.6061   17.9141    2.4660 H   0  0  0  0  0  0  0  0  0  0  0  0
    6.8683   19.9382    4.5962 H   0  0  0  0  0  0  0  0  0  0  0  0
    6.9755   19.0347    3.0474 H   0  0  0  0  0  0  0  0  0  0  0  0
    6.4811   20.7616    3.0474 H   0  0  0  0  0  0  0  0  0  0  0  0
    5.2193   19.5374    5.8547 H   0  0  0  0  0  0  0  0  0  0  0  0
    3.5200   19.5652    5.2733 H   0  0  0  0  0  0  0  0  0  0  0  0
    4.4441   18.0249    5.2733 H   0  0  0  0  0  0  0  0  0  0  0  0
    1.2785   16.8543    1.0276 H   0  0  0  0  0  0  0  0  0  0  0  0
   -0.6368   17.8841   -0.0259 H   0  0  0  0  0  0  0  0  0  0  0  0
    0.3612   18.6179   -1.2996 H   0  0  0  0  0  0  0  0  0  0  0  0
   -1.3091   16.3207   -1.6144 H   0  0  0  0  0  0  0  0  0  0  0  0
   -0.0578   16.7968   -2.7598 H   0  0  0  0  0  0  0  0  0  0  0  0
    0.3092   15.0995    0.9087 H   0  0  0  0  0  0  0  0  0  0  0  0
   -1.2073   15.0757   -0.0538 H   0  0  0  0  0  0  0  0  0  0  0  0
   -0.1209   13.6451   -0.0538 H   0  0  0  0  0  0  0  0  0  0  0  0
    1.2909   14.8261   -3.1638 H   0  0  0  0  0  0  0  0  0  0  0  0
   -1.1960   14.2325   -2.8413 H   0  0  0  0  0  0  0  0  0  0  0  0
   -0.0981   13.1952   -3.8939 H   0  0  0  0  0  0  0  0  0  0  0  0
   -1.7762   11.9011   -2.3283 H   0  0  0  0  0  0  0  0  0  0  0  0
    1.4717   12.4795   -0.0020 H   0  0  0  0  0  0  0  0  0  0  0  0
    2.3640   10.3533   -2.0466 H   0  0  0  0  0  0  0  0  0  0  0  0
    3.3678   11.0728   -0.7106 H   0  0  0  0  0  0  0  0  0  0  0  0
    2.5424    8.8090   -0.1464 H   0  0  0  0  0  0  0  0  0  0  0  0
    1.9058   10.0888    0.9595 H   0  0  0  0  0  0  0  0  0  0  0  0
    0.1181    8.5824    0.4146 H   0  0  0  0  0  0  0  0  0  0  0  0
    0.6230    9.2770   -2.3360 H   0  0  0  0  0  0  0  0  0  0  0  0
   -0.4470   10.1990    1.7599 H   0  0  0  0  0  0  0  0  0  0  0  0
   -0.1721   11.8821    1.1956 H   0  0  0  0  0  0  0  0  0  0  0  0
   -1.8316   11.1946    1.1956 H   0  0  0  0  0  0  0  0  0  0  0  0
   -2.5476    9.6650   -0.0022 H   0  0  0  0  0  0  0  0  0  0  0  0
   -2.4326   10.6753   -1.4830 H   0  0  0  0  0  0  0  0  0  0  0  0
   -1.7753    9.0036   -1.4830 H   0  0  0  0  0  0  0  0  0  0  0  0
    3.3240   11.8310   -3.0201 H   0  0  0  0  0  0  0  0  0  0  0  0
    1.7583   12.1675   -3.8337 H   0  0  0  0  0  0  0  0  0  0  0  0
    3.0557   13.4099   -3.8337 H   0  0  0  0  0  0  0  0  0  0  0  0
    3.7531   13.1092   -0.6135 H   0  0  0  0  0  0  0  0  0  0  0  0
    3.8247   14.3442   -1.9937 H   0  0  0  0  0  0  0  0  0  0  0  0
    2.4071   14.6293    0.6702 H   0  0  0  0  0  0  0  0  0  0  0  0
    3.8311   15.5504    0.0462 H   0  0  0  0  0  0  0  0  0  0  0  0
    3.5160   17.3357   -1.7520 H   0  0  0  0  0  0  0  0  0  0  0  0
    3.1491   15.8698   -2.7232 H   0  0  0  0  0  0  0  0  0  0  0  0
    2.0070   17.2562   -2.7232 H   0  0  0  0  0  0  0  0  0  0  0  0
  1  2  1  0
  2  3  1  0
  3  4  1  0
  4  5  1  0
  5  6  1  0
  6  7  1  0
  7  8  1  0
  7  9  1  0
  2 10  1  0
 10 11  1  0
 11 12  1  0
 12 13  1  0
 13 14  1  1
 13 15  1  0
 15 16  1  0
 16 17  1  0
 17 18  2  0
 18 19  1  0
 19 20  1  0
 20 21  1  0
 21 22  1  0
 22 23  1  0
 22 24  1  0
 24 25  1  0
 24 26  1  0
 19 27  1  0
 27 28  1  6
 27 29  1  0
 29 30  1  0
 30 31  1  0
 31 32  1  6
  7  5  1  0
 31 10  1  0
 31 13  1  0
 27 15  1  0
 24 18  1  0
  1 33  1  0
  1 34  1  0
  1 35  1  0
  2 36  1  1
  3 37  1  0
  3 38  1  0
  4 39  1  0
  4 40  1  0
  5 41  1  1
  8 42  1  0
  8 43  1  0
  8 44  1  0
  9 45  1  0
  9 46  1  0
  9 47  1  0
 10 48  1  1
 11 49  1  0
 11 50  1  0
 12 51  1  0
 12 52  1  0
 14 53  1  0
 14 54  1  0
 14 55  1  0
 15 56  1  6
 16 57  1  0
 16 58  1  0
 17 59  1  0
 19 60  1  1
 20 61  1  0
 20 62  1  0
 21 63  1  0
 21 64  1  0
 22 65  1  1
 23 66  1  0
 25 67  1  0
 25 68  1  0
 25 69  1  0
 26 70  1  0
 26 71  1  0
 26 72  1  0
 28 73  1  0
 28 74  1  0
 28 75  1  0
 29 76  1  0
 29 77  1  0
 30 78  1  0
 30 79  1  0
 32 80  1  0
 32 81  1  0
 32 82  1  0
M  END
>  <meeko>  (2) 
{"is_sidechain": [false], "intermolecular_energy": 2.731, "internal_energy": -0.839}

$$$$
EPH_relaxed_0001_pdb2pqr_Repair_31_r2_0001_out
     RDKit          3D

 82 86  0  0  0  0  0  0  0  0999 V2000
    2.1980   18.0330   -2.6380 C   0  0  0  0  0  0  0  0  0  0  0  0
    0.6740   17.8830   -2.6530 C   0  0  2  0  0  0  0  0  0  0  0  0
    0.0310   18.3430   -1.3290 C   0  0  0  0  0  0  0  0  0  0  0  0
    0.8180   17.9230   -0.0850 C   0  0  0  0  0  0  0  0  0  0  0  0
    1.3360   19.1100    0.6690 C   0  0  2  0  0  0  0  0  0  0  0  0
    2.2370   19.9440   -0.0720 O   0  0  0  0  0  0  0  0  0  0  0  0
    2.7900   19.2750    1.0740 C   0  0  0  0  0  0  0  0  0  0  0  0
    3.8150   18.2390    0.7380 C   0  0  0  0  0  0  0  0  0  0  0  0
    3.1160   20.1940    2.2090 C   0  0  0  0  0  0  0  0  0  0  0  0
    0.2980   16.4340   -2.9390 C   0  0  1  0  0  0  0  0  0  0  0  0
    0.3380   16.0930   -4.4530 C   0  0  0  0  0  0  0  0  0  0  0  0
    0.8230   14.6250   -4.5680 C   0  0  0  0  0  0  0  0  0  0  0  0
    0.7270   14.0680   -3.1290 C   0  0  1  0  0  0  0  0  0  0  0  0
   -0.7760   13.6900   -2.9450 C   0  0  0  0  0  0  0  0  0  0  0  0
    1.6700   12.8690   -2.7870 C   0  0  2  0  0  0  0  0  0  0  0  0
    1.4240   11.5910   -3.6070 C   0  0  0  0  0  0  0  0  0  0  0  0
    0.4490   10.6290   -3.0120 C   0  0  0  0  0  0  0  0  0  0  0  0
    0.0130   10.6450   -1.7390 C   0  0  0  0  0  0  0  0  0  0  0  0
    0.5820   11.6440   -0.7240 C   0  0  1  0  0  0  0  0  0  0  0  0
    0.9210   10.9040    0.5970 C   0  0  0  0  0  0  0  0  0  0  0  0
   -0.2660   10.1220    1.1510 C   0  0  0  0  0  0  0  0  0  0  0  0
   -0.7660    9.0990    0.1350 C   0  0  2  0  0  0  0  0  0  0  0  0
    0.2400    8.0980   -0.0450 O   0  0  0  0  0  0  0  0  0  0  0  0
   -1.1300    9.7270   -1.2390 C   0  0  0  0  0  0  0  0  0  0  0  0
   -2.4130   10.5820   -1.0970 C   0  0  0  0  0  0  0  0  0  0  0  0
   -1.4840    8.5710   -2.2140 C   0  0  0  0  0  0  0  0  0  0  0  0
    1.7800   12.5510   -1.2410 C   0  0  1  0  0  0  0  0  0  0  0  0
    3.1360   11.8090   -1.0340 C   0  0  0  0  0  0  0  0  0  0  0  0
    1.8520   13.8580   -0.3650 C   0  0  0  0  0  0  0  0  0  0  0  0
    0.9870   15.0480   -0.8220 C   0  0  0  0  0  0  0  0  0  0  0  0
    1.1890   15.3310   -2.3140 C   0  0  2  0  0  0  0  0  0  0  0  0
    2.6870   15.7360   -2.5260 C   0  0  0  0  0  0  0  0  0  0  0  0
    2.5528   18.0679   -1.5974 H   0  0  0  0  0  0  0  0  0  0  0  0
    2.6559   17.1756   -3.1529 H   0  0  0  0  0  0  0  0  0  0  0  0
    2.4800   18.9632   -3.1529 H   0  0  0  0  0  0  0  0  0  0  0  0
    0.2855   18.5329   -3.4509 H   0  0  0  0  0  0  0  0  0  0  0  0
   -0.0407   19.4406   -1.3405 H   0  0  0  0  0  0  0  0  0  0  0  0
   -0.9547   17.8590   -1.2648 H   0  0  0  0  0  0  0  0  0  0  0  0
    0.1578   17.3415    0.5752 H   0  0  0  0  0  0  0  0  0  0  0  0
    1.6789   17.3207   -0.4106 H   0  0  0  0  0  0  0  0  0  0  0  0
    0.3981   19.1870    1.2385 H   0  0  0  0  0  0  0  0  0  0  0  0
    4.2302   17.8194    1.6662 H   0  0  0  0  0  0  0  0  0  0  0  0
    3.3459   17.4361    0.1503 H   0  0  0  0  0  0  0  0  0  0  0  0
    4.6228   18.6995    0.1503 H   0  0  0  0  0  0  0  0  0  0  0  0
    2.9329   19.6778    3.1629 H   0  0  0  0  0  0  0  0  0  0  0  0
    4.1738   20.4896    2.1492 H   0  0  0  0  0  0  0  0  0  0  0  0
    2.4809   21.0902    2.1492 H   0  0  0  0  0  0  0  0  0  0  0  0
   -0.7036   16.4112   -2.4849 H   0  0  0  0  0  0  0  0  0  0  0  0
   -0.6657   16.1958   -4.8911 H   0  0  0  0  0  0  0  0  0  0  0  0
    1.0108   16.7748   -4.9938 H   0  0  0  0  0  0  0  0  0  0  0  0
    0.1748   14.0542   -5.2493 H   0  0  0  0  0  0  0  0  0  0  0  0
    1.8422   14.5534   -4.9756 H   0  0  0  0  0  0  0  0  0  0  0  0
   -1.0105   13.6310   -1.8719 H   0  0  0  0  0  0  0  0  0  0  0  0
   -1.4075   14.4573   -3.4167 H   0  0  0  0  0  0  0  0  0  0  0  0
   -0.9693   12.7153   -3.4167 H   0  0  0  0  0  0  0  0  0  0  0  0
    2.6534   13.2445   -3.1064 H   0  0  0  0  0  0  0  0  0  0  0  0
    1.0466   11.8893   -4.5962 H   0  0  0  0  0  0  0  0  0  0  0  0
    2.3883   11.0630   -3.6442 H   0  0  0  0  0  0  0  0  0  0  0  0
    0.0539    9.8408   -3.6698 H   0  0  0  0  0  0  0  0  0  0  0  0
   -0.2138   12.3818   -0.5443 H   0  0  0  0  0  0  0  0  0  0  0  0
    1.7470   10.2030    0.4065 H   0  0  0  0  0  0  0  0  0  0  0  0
    1.1981   11.6632    1.3432 H   0  0  0  0  0  0  0  0  0  0  0  0
    0.0439    9.5979    2.0671 H   0  0  0  0  0  0  0  0  0  0  0  0
   -1.0809   10.8279    1.3692 H   0  0  0  0  0  0  0  0  0  0  0  0
   -1.6930    8.6629    0.5356 H   0  0  0  0  0  0  0  0  0  0  0  0
    0.0920    7.4070    0.6230 H   0  0  0  0  0  0  0  0  0  0  0  0
   -2.6377   10.7317   -0.0307 H   0  0  0  0  0  0  0  0  0  0  0  0
   -2.2583   11.5582   -1.5797 H   0  0  0  0  0  0  0  0  0  0  0  0
   -3.2545   10.0635   -1.5797 H   0  0  0  0  0  0  0  0  0  0  0  0
   -1.7582    7.6756   -1.6369 H   0  0  0  0  0  0  0  0  0  0  0  0
   -2.3310    8.8723   -2.8478 H   0  0  0  0  0  0  0  0  0  0  0  0
   -0.6135    8.3464   -2.8478 H   0  0  0  0  0  0  0  0  0  0  0  0
    3.3341   11.7006    0.0426 H   0  0  0  0  0  0  0  0  0  0  0  0
    3.0841   10.8136   -1.4993 H   0  0  0  0  0  0  0  0  0  0  0  0
    3.9463   12.3894   -1.4993 H   0  0  0  0  0  0  0  0  0  0  0  0
    1.5400   13.5922    0.6558 H   0  0  0  0  0  0  0  0  0  0  0  0
    2.8915   14.2068   -0.4527 H   0  0  0  0  0  0  0  0  0  0  0  0
   -0.0723   14.8138   -0.6403 H   0  0  0  0  0  0  0  0  0  0  0  0
    1.2872   15.9395   -0.2519 H   0  0  0  0  0  0  0  0  0  0  0  0
    3.1732   15.8675   -1.5481 H   0  0  0  0  0  0  0  0  0  0  0  0
    3.2044   14.9455   -3.0894 H   0  0  0  0  0  0  0  0  0  0  0  0
    2.7355   16.6795   -3.0894 H   0  0  0  0  0  0  0  0  0  0  0  0
  1  2  1  0
  2  3  1  0
  3  4  1  0
  4  5  1  0
  5  6  1  0
  6  7  1  0
  7  8  1  0
  7  9  1  0
  2 10  1  0
 10 11  1  0
 11 12  1  0
 12 13  1  0
 13 14  1  1
 13 15  1  0
 15 16  1  0
 16 17  1  0
 17 18  2  0
 18 19  1  0
 19 20  1  0
 20 21  1  0
 21 22  1  0
 22 23  1  0
 22 24  1  0
 24 25  1  0
 24 26  1  0
 19 27  1  0
 27 28  1  6
 27 29  1  0
 29 30  1  0
 30 31  1  0
 31 32  1  1
  7  5  1  0
 31 10  1  0
 31 13  1  0
 27 15  1  0
 24 18  1  0
  1 33  1  0
  1 34  1  0
  1 35  1  0
  2 36  1  6
  3 37  1  0
  3 38  1  0
  4 39  1  0
  4 40  1  0
  5 41  1  1
  8 42  1  0
  8 43  1  0
  8 44  1  0
  9 45  1  0
  9 46  1  0
  9 47  1  0
 10 48  1  1
 11 49  1  0
 11 50  1  0
 12 51  1  0
 12 52  1  0
 14 53  1  0
 14 54  1  0
 14 55  1  0
 15 56  1  6
 16 57  1  0
 16 58  1  0
 17 59  1  0
 19 60  1  1
 20 61  1  0
 20 62  1  0
 21 63  1  0
 21 64  1  0
 22 65  1  1
 23 66  1  0
 25 67  1  0
 25 68  1  0
 25 69  1  0
 26 70  1  0
 26 71  1  0
 26 72  1  0
 28 73  1  0
 28 74  1  0
 28 75  1  0
 29 76  1  0
 29 77  1  0
 30 78  1  0
 30 79  1  0
 32 80  1  0
 32 81  1  0
 32 82  1  0
M  END
>  <meeko>  (3) 
{"is_sidechain": [false], "intermolecular_energy": 2.731, "internal_energy": -0.839}

$$$$
EPH_relaxed_0001_pdb2pqr_Repair_31_r2_0001_out
     RDKit          3D

 82 86  0  0  0  0  0  0  0  0999 V2000
    2.3220   18.1650   -2.6610 C   0  0  0  0  0  0  0  0  0  0  0  0
    1.0360   17.7530   -1.9400 C   0  0  2  0  0  0  0  0  0  0  0  0
    1.1880   17.8010   -0.4070 C   0  0  0  0  0  0  0  0  0  0  0  0
    0.8150   19.1540    0.2060 C   0  0  0  0  0  0  0  0  0  0  0  0
   -0.6360   19.2140    0.5750 C   0  0  2  0  0  0  0  0  0  0  0  0
   -1.4770   18.3090   -0.1520 O   0  0  0  0  0  0  0  0  0  0  0  0
   -1.7190   19.7090   -0.3650 C   0  0  0  0  0  0  0  0  0  0  0  0
   -1.3960   20.1790   -1.7490 C   0  0  0  0  0  0  0  0  0  0  0  0
   -3.0090   20.1940    0.2210 C   0  0  0  0  0  0  0  0  0  0  0  0
    0.6210   16.3530   -2.3790 C   0  0  1  0  0  0  0  0  0  0  0  0
    0.7160   16.1550   -3.9150 C   0  0  0  0  0  0  0  0  0  0  0  0
    1.1530   14.6860   -4.1510 C   0  0  0  0  0  0  0  0  0  0  0  0
    0.9730   14.0010   -2.7760 C   0  0  1  0  0  0  0  0  0  0  0  0
   -0.5500   13.6670   -2.6910 C   0  0  0  0  0  0  0  0  0  0  0  0
    1.8560   12.7380   -2.5130 C   0  0  2  0  0  0  0  0  0  0  0  0
    1.6010   11.5530   -3.4610 C   0  0  0  0  0  0  0  0  0  0  0  0
    0.5670   10.5800   -3.0010 C   0  0  0  0  0  0  0  0  0  0  0  0
    0.0750   10.4930   -1.7510 C   0  0  0  0  0  0  0  0  0  0  0  0
    0.6340   11.3690   -0.6220 C   0  0  1  0  0  0  0  0  0  0  0  0
    0.8880   10.4950    0.6340 C   0  0  0  0  0  0  0  0  0  0  0  0
   -0.3490    9.7120    1.0620 C   0  0  0  0  0  0  0  0  0  0  0  0
   -0.8410    8.8100   -0.0670 C   0  0  2  0  0  0  0  0  0  0  0  0
    0.1360    7.7910   -0.3000 O   0  0  0  0  0  0  0  0  0  0  0  0
   -1.1210    9.5790   -1.3880 C   0  0  0  0  0  0  0  0  0  0  0  0
   -2.3780   10.4670   -1.2170 C   0  0  0  0  0  0  0  0  0  0  0  0
   -1.4730    8.5350   -2.4820 C   0  0  0  0  0  0  0  0  0  0  0  0
    1.8860   12.2720   -1.0010 C   0  0  1  0  0  0  0  0  0  0  0  0
    3.2040   11.4600   -0.8110 C   0  0  0  0  0  0  0  0  0  0  0  0
    1.9660   13.4860   -0.0020 C   0  0  0  0  0  0  0  0  0  0  0  0
    1.1660   14.7480   -0.3780 C   0  0  0  0  0  0  0  0  0  0  0  0
    1.4430   15.1620   -1.8260 C   0  0  2  0  0  0  0  0  0  0  0  0
    2.9630   15.5250   -1.9370 C   0  0  0  0  0  0  0  0  0  0  0  0
    3.0952   18.4127   -1.9188 H   0  0  0  0  0  0  0  0  0  0  0  0
    2.6715   17.3338   -3.2911 H   0  0  0  0  0  0  0  0  0  0  0  0
    2.1234   19.0445   -3.2911 H   0  0  0  0  0  0  0  0  0  0  0  0
    0.2551   18.4769   -2.2162 H   0  0  0  0  0  0  0  0  0  0  0  0
    0.5371   17.0299    0.0309 H   0  0  0  0  0  0  0  0  0  0  0  0
    2.2512   17.6287   -0.1836 H   0  0  0  0  0  0  0  0  0  0  0  0
    1.4198   19.3144    1.1107 H   0  0  0  0  0  0  0  0  0  0  0  0
    1.0110   19.9355   -0.5429 H   0  0  0  0  0  0  0  0  0  0  0  0
   -0.3847   19.4750    1.6136 H   0  0  0  0  0  0  0  0  0  0  0  0
   -0.7738   21.0844   -1.6929 H   0  0  0  0  0  0  0  0  0  0  0  0
   -0.8482   19.3903   -2.2856 H   0  0  0  0  0  0  0  0  0  0  0  0
   -2.3286   20.4077   -2.2856 H   0  0  0  0  0  0  0  0  0  0  0  0
   -2.9450   20.1699    1.3189 H   0  0  0  0  0  0  0  0  0  0  0  0
   -3.1987   21.2248   -0.1127 H   0  0  0  0  0  0  0  0  0  0  0  0
   -3.8308   19.5435   -0.1127 H   0  0  0  0  0  0  0  0  0  0  0  0
   -0.4003   16.3273   -1.9711 H   0  0  0  0  0  0  0  0  0  0  0  0
   -0.2630   16.3385   -4.3818 H   0  0  0  0  0  0  0  0  0  0  0  0
    1.4362   16.8574   -4.3598 H   0  0  0  0  0  0  0  0  0  0  0  0
    0.5156   14.2081   -4.9096 H   0  0  0  0  0  0  0  0  0  0  0  0
    2.1858   14.6120   -4.5224 H   0  0  0  0  0  0  0  0  0  0  0  0
   -0.8525   13.6007   -1.6355 H   0  0  0  0  0  0  0  0  0  0  0  0
   -1.1276   14.4598   -3.1888 H   0  0  0  0  0  0  0  0  0  0  0  0
   -0.7428   12.7052   -3.1888 H   0  0  0  0  0  0  0  0  0  0  0  0
    2.8652   13.1020   -2.7558 H   0  0  0  0  0  0  0  0  0  0  0  0
    1.2790   11.9576   -4.4319 H   0  0  0  0  0  0  0  0  0  0  0  0
    2.5464   10.9926   -3.5090 H   0  0  0  0  0  0  0  0  0  0  0  0
    0.1734    9.8738   -3.7469 H   0  0  0  0  0  0  0  0  0  0  0  0
   -0.1421   12.1176   -0.4046 H   0  0  0  0  0  0  0  0  0  0  0  0
    1.6961    9.7829    0.4105 H   0  0  0  0  0  0  0  0  0  0  0  0
    1.1589   11.1688    1.4602 H   0  0  0  0  0  0  0  0  0  0  0  0
   -0.0982    9.0917    1.9351 H   0  0  0  0  0  0  0  0  0  0  0  0
   -1.1468   10.4261    1.3141 H   0  0  0  0  0  0  0  0  0  0  0  0
   -1.8003    8.3756    0.2509 H   0  0  0  0  0  0  0  0  0  0  0  0
    0.8010    8.1540   -0.9090 H   0  0  0  0  0  0  0  0  0  0  0  0
   -2.5821   10.6112   -0.1458 H   0  0  0  0  0  0  0  0  0  0  0  0
   -2.2042   11.4439   -1.6919 H   0  0  0  0  0  0  0  0  0  0  0  0
   -3.2406    9.9767   -1.6919 H   0  0  0  0  0  0  0  0  0  0  0  0
   -1.7896    7.5960   -2.0044 H   0  0  0  0  0  0  0  0  0  0  0  0
   -2.2905    8.9216   -3.1083 H   0  0  0  0  0  0  0  0  0  0  0  0
   -0.5883    8.3477   -3.1083 H   0  0  0  0  0  0  0  0  0  0  0  0
    3.4063   11.3354    0.2630 H   0  0  0  0  0  0  0  0  0  0  0  0
    3.0965   10.4713   -1.2810 H   0  0  0  0  0  0  0  0  0  0  0  0
    4.0387   12.0006   -1.2810 H   0  0  0  0  0  0  0  0  0  0  0  0
    1.5991   13.1380    0.9749 H   0  0  0  0  0  0  0  0  0  0  0  0
    3.0204   13.7993   -0.0130 H   0  0  0  0  0  0  0  0  0  0  0  0
    0.0919   14.5408   -0.2623 H   0  0  0  0  0  0  0  0  0  0  0  0
    1.4738   15.5690    0.2863 H   0  0  0  0  0  0  0  0  0  0  0  0
    3.3902   15.6270   -0.9285 H   0  0  0  0  0  0  0  0  0  0  0  0
    3.4916   14.7278   -2.4802 H   0  0  0  0  0  0  0  0  0  0  0  0
    3.0744   16.4750   -2.4802 H   0  0  0  0  0  0  0  0  0  0  0  0
  1  2  1  0
  2  3  1  0
  3  4  1  0
  4  5  1  0
  5  6  1  0
  6  7  1  0
  7  8  1  0
  7  9  1  0
  2 10  1  0
 10 11  1  0
 11 12  1  0
 12 13  1  0
 13 14  1  1
 13 15  1  0
 15 16  1  0
 16 17  1  0
 17 18  2  0
 18 19  1  0
 19 20  1  0
 20 21  1  0
 21 22  1  0
 22 23  1  0
 22 24  1  0
 24 25  1  0
 24 26  1  0
 19 27  1  0
 27 28  1  6
 27 29  1  0
 29 30  1  0
 30 31  1  0
 31 32  1  1
  7  5  1  0
 31 10  1  0
 31 13  1  0
 27 15  1  0
 24 18  1  0
  1 33  1  0
  1 34  1  0
  1 35  1  0
  2 36  1  1
  3 37  1  0
  3 38  1  0
  4 39  1  0
  4 40  1  0
  5 41  1  1
  8 42  1  0
  8 43  1  0
  8 44  1  0
  9 45  1  0
  9 46  1  0
  9 47  1  0
 10 48  1  1
 11 49  1  0
 11 50  1  0
 12 51  1  0
 12 52  1  0
 14 53  1  0
 14 54  1  0
 14 55  1  0
 15 56  1  6
 16 57  1  0
 16 58  1  0
 17 59  1  0
 19 60  1  1
 20 61  1  0
 20 62  1  0
 21 63  1  0
 21 64  1  0
 22 65  1  1
 23 66  1  0
 25 67  1  0
 25 68  1  0
 25 69  1  0
 26 70  1  0
 26 71  1  0
 26 72  1  0
 28 73  1  0
 28 74  1  0
 28 75  1  0
 29 76  1  0
 29 77  1  0
 30 78  1  0
 30 79  1  0
 32 80  1  0
 32 81  1  0
 32 82  1  0
M  END
>  <meeko>  (4) 
{"is_sidechain": [false], "intermolecular_energy": 2.731, "internal_energy": -0.839}

$$$$
EPH_relaxed_0001_pdb2pqr_Repair_31_r2_0001_out
     RDKit          3D

 82 86  0  0  0  0  0  0  0  0999 V2000
   -0.7140    9.7380   -2.4410 C   0  0  0  0  0  0  0  0  0  0  0  0
   -0.8830    9.8280   -0.9220 C   0  0  2  0  0  0  0  0  0  0  0  0
   -2.3590    9.7070   -0.4930 C   0  0  0  0  0  0  0  0  0  0  0  0
   -3.0130    8.3850   -0.9040 C   0  0  0  0  0  0  0  0  0  0  0  0
   -4.4930    8.4010   -0.6670 C   0  0  2  0  0  0  0  0  0  0  0  0
   -5.0070    7.2360   -0.0090 O   0  0  0  0  0  0  0  0  0  0  0  0
   -5.4610    7.4570   -1.3550 C   0  0  0  0  0  0  0  0  0  0  0  0
   -4.9860    6.4300   -2.3340 C   0  0  0  0  0  0  0  0  0  0  0  0
   -6.9020    7.8520   -1.4470 C   0  0  0  0  0  0  0  0  0  0  0  0
   -0.2970   11.1380   -0.4100 C   0  0  1  0  0  0  0  0  0  0  0  0
    0.8750   10.9210    0.5840 C   0  0  0  0  0  0  0  0  0  0  0  0
    1.8840   12.0730    0.3430 C   0  0  0  0  0  0  0  0  0  0  0  0
    1.1160   13.0890   -0.5340 C   0  0  1  0  0  0  0  0  0  0  0  0
    0.2360   13.9000    0.4680 C   0  0  0  0  0  0  0  0  0  0  0  0
    1.9880   14.0290   -1.4290 C   0  0  2  0  0  0  0  0  0  0  0  0
    2.9320   14.9700   -0.6600 C   0  0  0  0  0  0  0  0  0  0  0  0
    2.3570   16.3020   -0.3080 C   0  0  0  0  0  0  0  0  0  0  0  0
    1.2420   16.8370   -0.8390 C   0  0  0  0  0  0  0  0  0  0  0  0
    0.4880   16.1260   -1.9690 C   0  0  1  0  0  0  0  0  0  0  0  0
    0.1440   17.1480   -3.0850 C   0  0  0  0  0  0  0  0  0  0  0  0
   -0.6110   18.3620   -2.5540 C   0  0  0  0  0  0  0  0  0  0  0  0
    0.1960   19.0760   -1.4720 C   0  0  2  0  0  0  0  0  0  0  0  0
    1.3660   19.6440   -2.0700 O   0  0  0  0  0  0  0  0  0  0  0  0
    0.6090   18.1440   -0.2990 C   0  0  0  0  0  0  0  0  0  0  0  0
   -0.6430   17.7700    0.5330 C   0  0  0  0  0  0  0  0  0  0  0  0
    1.5350   18.9510    0.6490 C   0  0  0  0  0  0  0  0  0  0  0  0
    1.1720   14.8090   -2.5380 C   0  0  1  0  0  0  0  0  0  0  0  0
    2.1880   15.1790   -3.6610 C   0  0  0  0  0  0  0  0  0  0  0  0
    0.0710   13.9090   -3.2140 C   0  0  0  0  0  0  0  0  0  0  0  0
   -0.6730   12.9160   -2.3010 C   0  0  0  0  0  0  0  0  0  0  0  0
    0.3140   12.1020   -1.4590 C   0  0  2  0  0  0  0  0  0  0  0  0
    1.1980   11.2580   -2.4390 C   0  0  0  0  0  0  0  0  0  0  0  0
    0.2347    9.2328   -2.6751 H   0  0  0  0  0  0  0  0  0  0  0  0
   -1.5498    9.1655   -2.8696 H   0  0  0  0  0  0  0  0  0  0  0  0
   -0.7055   10.7510   -2.8696 H   0  0  0  0  0  0  0  0  0  0  0  0
   -0.3404    8.9801   -0.4785 H   0  0  0  0  0  0  0  0  0  0  0  0
   -2.4106    9.7942    0.6023 H   0  0  0  0  0  0  0  0  0  0  0  0
   -2.9093   10.5105   -1.0044 H   0  0  0  0  0  0  0  0  0  0  0  0
   -2.8252    8.2120   -1.9740 H   0  0  0  0  0  0  0  0  0  0  0  0
   -2.5765    7.5819   -0.2921 H   0  0  0  0  0  0  0  0  0  0  0  0
   -4.4859    9.4949   -0.5516 H   0  0  0  0  0  0  0  0  0  0  0  0
   -4.5847    5.5624   -1.7896 H   0  0  0  0  0  0  0  0  0  0  0  0
   -5.8272    6.1092   -2.9661 H   0  0  0  0  0  0  0  0  0  0  0  0
   -4.1968    6.8633   -2.9661 H   0  0  0  0  0  0  0  0  0  0  0  0
   -7.3164    7.9656   -0.4344 H   0  0  0  0  0  0  0  0  0  0  0  0
   -6.9868    8.8065   -1.9871 H   0  0  0  0  0  0  0  0  0  0  0  0
   -7.4617    7.0741   -1.9871 H   0  0  0  0  0  0  0  0  0  0  0  0
   -1.2009   11.5845    0.0300 H   0  0  0  0  0  0  0  0  0  0  0  0
    0.5045   10.9522    1.6193 H   0  0  0  0  0  0  0  0  0  0  0  0
    1.3494    9.9409    0.4278 H   0  0  0  0  0  0  0  0  0  0  0  0
    2.1839   12.5321    1.2966 H   0  0  0  0  0  0  0  0  0  0  0  0
    2.8090   11.7227   -0.1383 H   0  0  0  0  0  0  0  0  0  0  0  0
    0.5189   13.6393    1.4986 H   0  0  0  0  0  0  0  0  0  0  0  0
    0.3931   14.9766    0.3058 H   0  0  0  0  0  0  0  0  0  0  0  0
   -0.8242   13.6557    0.3058 H   0  0  0  0  0  0  0  0  0  0  0  0
    2.6396   13.3159   -1.9551 H   0  0  0  0  0  0  0  0  0  0  0  0
    3.2248   14.4686    0.2742 H   0  0  0  0  0  0  0  0  0  0  0  0
    3.7767   15.1720   -1.3351 H   0  0  0  0  0  0  0  0  0  0  0  0
    2.8895   16.8963    0.4492 H   0  0  0  0  0  0  0  0  0  0  0  0
   -0.4378   15.7379   -1.5194 H   0  0  0  0  0  0  0  0  0  0  0  0
    1.0801   17.4907   -3.5500 H   0  0  0  0  0  0  0  0  0  0  0  0
   -0.5076   16.6415   -3.8122 H   0  0  0  0  0  0  0  0  0  0  0  0
   -0.7985   19.0603   -3.3830 H   0  0  0  0  0  0  0  0  0  0  0  0
   -1.5607   18.0210   -2.1162 H   0  0  0  0  0  0  0  0  0  0  0  0
   -0.4488   19.8555   -1.0401 H   0  0  0  0  0  0  0  0  0  0  0  0
    1.4040   20.5800   -1.8110 H   0  0  0  0  0  0  0  0  0  0  0  0
   -0.4056   17.8409    1.6047 H   0  0  0  0  0  0  0  0  0  0  0  0
   -1.4633   18.4623    0.2925 H   0  0  0  0  0  0  0  0  0  0  0  0
   -0.9491   16.7412    0.2925 H   0  0  0  0  0  0  0  0  0  0  0  0
    1.2761   18.7254    1.6940 H   0  0  0  0  0  0  0  0  0  0  0  0
    2.5828   18.6728    0.4625 H   0  0  0  0  0  0  0  0  0  0  0  0
    1.4026   20.0270    0.4625 H   0  0  0  0  0  0  0  0  0  0  0  0
    3.1289   15.5217   -3.2058 H   0  0  0  0  0  0  0  0  0  0  0  0
    2.3833   14.2943   -4.2848 H   0  0  0  0  0  0  0  0  0  0  0  0
    1.7686   15.9821   -4.2848 H   0  0  0  0  0  0  0  0  0  0  0  0
   -0.6798   14.5792   -3.6580 H   0  0  0  0  0  0  0  0  0  0  0  0
    0.6155   13.2828   -3.9361 H   0  0  0  0  0  0  0  0  0  0  0  0
   -1.3423   13.4752   -1.6307 H   0  0  0  0  0  0  0  0  0  0  0  0
   -1.2507   12.2241   -2.9316 H   0  0  0  0  0  0  0  0  0  0  0  0
    1.8741   10.6125   -1.8593 H   0  0  0  0  0  0  0  0  0  0  0  0
    0.5501   10.6348   -3.0729 H   0  0  0  0  0  0  0  0  0  0  0  0
    1.7905   11.9341   -3.0729 H   0  0  0  0  0  0  0  0  0  0  0  0
  1  2  1  0
  2  3  1  0
  3  4  1  0
  4  5  1  0
  5  6  1  0
  6  7  1  0
  7  8  1  0
  7  9  1  0
  2 10  1  0
 10 11  1  0
 11 12  1  0
 12 13  1  0
 13 14  1  1
 13 15  1  0
 15 16  1  0
 16 17  1  0
 17 18  2  0
 18 19  1  0
 19 20  1  0
 20 21  1  0
 21 22  1  0
 22 23  1  0
 22 24  1  0
 24 25  1  0
 24 26  1  0
 19 27  1  0
 27 28  1  6
 27 29  1  0
 29 30  1  0
 30 31  1  0
 31 32  1  6
  7  5  1  0
 31 10  1  0
 31 13  1  0
 27 15  1  0
 24 18  1  0
  1 33  1  0
  1 34  1  0
  1 35  1  0
  2 36  1  1
  3 37  1  0
  3 38  1  0
  4 39  1  0
  4 40  1  0
  5 41  1  1
  8 42  1  0
  8 43  1  0
  8 44  1  0
  9 45  1  0
  9 46  1  0
  9 47  1  0
 10 48  1  1
 11 49  1  0
 11 50  1  0
 12 51  1  0
 12 52  1  0
 14 53  1  0
 14 54  1  0
 14 55  1  0
 15 56  1  6
 16 57  1  0
 16 58  1  0
 17 59  1  0
 19 60  1  1
 20 61  1  0
 20 62  1  0
 21 63  1  0
 21 64  1  0
 22 65  1  1
 23 66  1  0
 25 67  1  0
 25 68  1  0
 25 69  1  0
 26 70  1  0
 26 71  1  0
 26 72  1  0
 28 73  1  0
 28 74  1  0
 28 75  1  0
 29 76  1  0
 29 77  1  0
 30 78  1  0
 30 79  1  0
 32 80  1  0
 32 81  1  0
 32 82  1  0
M  END
>  <meeko>  (5) 
{"is_sidechain": [false], "intermolecular_energy": 2.731, "internal_energy": -0.839}

$$$$
EPH_relaxed_0001_pdb2pqr_Repair_31_r2_0001_out
     RDKit          3D

 82 86  0  0  0  0  0  0  0  0999 V2000
    3.7580   17.5860    0.5260 C   0  0  0  0  0  0  0  0  0  0  0  0
    2.8050   17.8810   -0.6360 C   0  0  2  0  0  0  0  0  0  0  0  0
    2.1500   19.2710   -0.5100 C   0  0  0  0  0  0  0  0  0  0  0  0
    1.2700   19.4270    0.7330 C   0  0  0  0  0  0  0  0  0  0  0  0
   -0.0390   20.0810    0.4070 C   0  0  2  0  0  0  0  0  0  0  0  0
   -0.9450   20.1910    1.5120 O   0  0  0  0  0  0  0  0  0  0  0  0
   -1.3680   19.3490    0.4270 C   0  0  0  0  0  0  0  0  0  0  0  0
   -1.4540   17.8970    0.7810 C   0  0  0  0  0  0  0  0  0  0  0  0
   -2.5070   19.9120   -0.3640 C   0  0  0  0  0  0  0  0  0  0  0  0
    1.7310   16.8030   -0.7130 C   0  0  1  0  0  0  0  0  0  0  0  0
    0.4350   17.3000   -1.4070 C   0  0  0  0  0  0  0  0  0  0  0  0
   -0.1410   16.0960   -2.1950 C   0  0  0  0  0  0  0  0  0  0  0  0
    0.6450   14.8730   -1.6670 C   0  0  1  0  0  0  0  0  0  0  0  0
   -0.0570   14.4920   -0.3260 C   0  0  0  0  0  0  0  0  0  0  0  0
    0.7470   13.6480   -2.6340 C   0  0  2  0  0  0  0  0  0  0  0  0
   -0.5960   12.9910   -2.9980 C   0  0  0  0  0  0  0  0  0  0  0  0
   -1.0310   11.8850   -2.0940 C   0  0  0  0  0  0  0  0  0  0  0  0
   -0.2470   11.2460   -1.2060 C   0  0  0  0  0  0  0  0  0  0  0  0
    1.2530   11.5560   -1.1150 C   0  0  1  0  0  0  0  0  0  0  0  0
    2.0530   10.2280   -1.0630 C   0  0  0  0  0  0  0  0  0  0  0  0
    1.5790    9.3020    0.0530 C   0  0  0  0  0  0  0  0  0  0  0  0
    0.0970    8.9710   -0.1060 C   0  0  2  0  0  0  0  0  0  0  0  0
   -0.0750    8.1850   -1.2890 O   0  0  0  0  0  0  0  0  0  0  0  0
   -0.8080   10.2320   -0.1800 C   0  0  0  0  0  0  0  0  0  0  0  0
   -0.8560   10.9200    1.2070 C   0  0  0  0  0  0  0  0  0  0  0  0
   -2.2570    9.7630   -0.4810 C   0  0  0  0  0  0  0  0  0  0  0  0
    1.8200   12.5680   -2.2010 C   0  0  1  0  0  0  0  0  0  0  0  0
    2.2180   11.7930   -3.4940 C   0  0  0  0  0  0  0  0  0  0  0  0
    3.1410   13.2250   -1.6510 C   0  0  0  0  0  0  0  0  0  0  0  0
    2.9820   14.5010   -0.8030 C   0  0  0  0  0  0  0  0  0  0  0  0
    2.0710   15.5140   -1.5020 C   0  0  2  0  0  0  0  0  0  0  0  0
    2.7620   15.9320   -2.8440 C   0  0  0  0  0  0  0  0  0  0  0  0
    3.2345   17.7481    1.4798 H   0  0  0  0  0  0  0  0  0  0  0  0
    4.0964   16.5411    0.4664 H   0  0  0  0  0  0  0  0  0  0  0  0
    4.6276   18.2570    0.4664 H   0  0  0  0  0  0  0  0  0  0  0  0
    3.3995   17.8793   -1.5615 H   0  0  0  0  0  0  0  0  0  0  0  0
    2.9471   20.0279   -0.4682 H   0  0  0  0  0  0  0  0  0  0  0  0
    1.4955   19.3981   -1.3849 H   0  0  0  0  0  0  0  0  0  0  0  0
    1.0750   18.4317    1.1589 H   0  0  0  0  0  0  0  0  0  0  0  0
    1.8029   20.0661    1.4524 H   0  0  0  0  0  0  0  0  0  0  0  0
    0.4412   20.7178   -0.3506 H   0  0  0  0  0  0  0  0  0  0  0  0
   -1.4606   17.7862    1.8754 H   0  0  0  0  0  0  0  0  0  0  0  0
   -2.3789   17.4720    0.3639 H   0  0  0  0  0  0  0  0  0  0  0  0
   -0.5857   17.3658    0.3639 H   0  0  0  0  0  0  0  0  0  0  0  0
   -3.2774   20.2928    0.3226 H   0  0  0  0  0  0  0  0  0  0  0  0
   -2.1424   20.7336   -0.9980 H   0  0  0  0  0  0  0  0  0  0  0  0
   -2.9383   19.1233   -0.9980 H   0  0  0  0  0  0  0  0  0  0  0  0
    1.6256   16.5719    0.3573 H   0  0  0  0  0  0  0  0  0  0  0  0
   -0.2905   17.6418   -0.6541 H   0  0  0  0  0  0  0  0  0  0  0  0
    0.6459   18.1461   -2.0776 H   0  0  0  0  0  0  0  0  0  0  0  0
   -1.2169   15.9812   -1.9971 H   0  0  0  0  0  0  0  0  0  0  0  0
   -0.0371   16.2210   -3.2829 H   0  0  0  0  0  0  0  0  0  0  0  0
    0.5612   14.8275    0.5197 H   0  0  0  0  0  0  0  0  0  0  0  0
   -1.0419   14.9794   -0.2763 H   0  0  0  0  0  0  0  0  0  0  0  0
   -0.1850   13.4006   -0.2763 H   0  0  0  0  0  0  0  0  0  0  0  0
    1.1153   14.1097   -3.5620 H   0  0  0  0  0  0  0  0  0  0  0  0
   -1.3719   13.7705   -2.9790 H   0  0  0  0  0  0  0  0  0  0  0  0
   -0.4531   12.5355   -3.9890 H   0  0  0  0  0  0  0  0  0  0  0  0
   -2.0815   11.5653   -2.1594 H   0  0  0  0  0  0  0  0  0  0  0  0
    1.3919   12.1133   -0.1768 H   0  0  0  0  0  0  0  0  0  0  0  0
    1.9365    9.7084   -2.0255 H   0  0  0  0  0  0  0  0  0  0  0  0
    3.1050   10.4799   -0.8632 H   0  0  0  0  0  0  0  0  0  0  0  0
    2.1618    8.3697    0.0193 H   0  0  0  0  0  0  0  0  0  0  0  0
    1.7238    9.8111    1.0173 H   0  0  0  0  0  0  0  0  0  0  0  0
   -0.2147    8.4140    0.7899 H   0  0  0  0  0  0  0  0  0  0  0  0
   -0.4120    8.7730   -1.9860 H   0  0  0  0  0  0  0  0  0  0  0  0
   -0.8027   10.1565    1.9971 H   0  0  0  0  0  0  0  0  0  0  0  0
   -0.0037   11.6086    1.3044 H   0  0  0  0  0  0  0  0  0  0  0  0
   -1.7956   11.4835    1.3044 H   0  0  0  0  0  0  0  0  0  0  0  0
   -2.7905    9.5903    0.4653 H   0  0  0  0  0  0  0  0  0  0  0  0
   -2.7802   10.5377   -1.0608 H   0  0  0  0  0  0  0  0  0  0  0  0
   -2.2270    8.8287   -1.0608 H   0  0  0  0  0  0  0  0  0  0  0  0
    2.7045   10.8457   -3.2186 H   0  0  0  0  0  0  0  0  0  0  0  0
    1.3162   11.5830   -4.0878 H   0  0  0  0  0  0  0  0  0  0  0  0
    2.9141   12.4036   -4.0878 H   0  0  0  0  0  0  0  0  0  0  0  0
    3.6522   12.4745   -1.0301 H   0  0  0  0  0  0  0  0  0  0  0  0
    3.6984   13.5415   -2.5449 H   0  0  0  0  0  0  0  0  0  0  0  0
    2.5435   14.2341    0.1699 H   0  0  0  0  0  0  0  0  0  0  0  0
    3.9737   14.9571   -0.6665 H   0  0  0  0  0  0  0  0  0  0  0  0
    3.6841   16.4898   -2.6234 H   0  0  0  0  0  0  0  0  0  0  0  0
    3.0085   15.0314   -3.4255 H   0  0  0  0  0  0  0  0  0  0  0  0
    2.0787   16.5684   -3.4255 H   0  0  0  0  0  0  0  0  0  0  0  0
  1  2  1  0
  2  3  1  0
  3  4  1  0
  4  5  1  0
  5  6  1  0
  6  7  1  0
  7  8  1  0
  7  9  1  0
  2 10  1  0
 10 11  1  0
 11 12  1  0
 12 13  1  0
 13 14  1  1
 13 15  1  0
 15 16  1  0
 16 17  1  0
 17 18  2  0
 18 19  1  0
 19 20  1  0
 20 21  1  0
 21 22  1  0
 22 23  1  0
 22 24  1  0
 24 25  1  0
 24 26  1  0
 19 27  1  0
 27 28  1  6
 27 29  1  0
 29 30  1  0
 30 31  1  0
 31 32  1  6
  7  5  1  0
 31 10  1  0
 31 13  1  0
 27 15  1  0
 24 18  1  0
  1 33  1  0
  1 34  1  0
  1 35  1  0
  2 36  1  6
  3 37  1  0
  3 38  1  0
  4 39  1  0
  4 40  1  0
  5 41  1  6
  8 42  1  0
  8 43  1  0
  8 44  1  0
  9 45  1  0
  9 46  1  0
  9 47  1  0
 10 48  1  1
 11 49  1  0
 11 50  1  0
 12 51  1  0
 12 52  1  0
 14 53  1  0
 14 54  1  0
 14 55  1  0
 15 56  1  6
 16 57  1  0
 16 58  1  0
 17 59  1  0
 19 60  1  1
 20 61  1  0
 20 62  1  0
 21 63  1  0
 21 64  1  0
 22 65  1  1
 23 66  1  0
 25 67  1  0
 25 68  1  0
 25 69  1  0
 26 70  1  0
 26 71  1  0
 26 72  1  0
 28 73  1  0
 28 74  1  0
 28 75  1  0
 29 76  1  0
 29 77  1  0
 30 78  1  0
 30 79  1  0
 32 80  1  0
 32 81  1  0
 32 82  1  0
M  END
>  <meeko>  (6) 
{"is_sidechain": [false], "intermolecular_energy": 2.731, "internal_energy": -0.839}

$$$$
EPH_relaxed_0001_pdb2pqr_Repair_31_r2_0001_out
     RDKit          3D

 82 86  0  0  0  0  0  0  0  0999 V2000
   -5.1740    5.8230   -1.5290 C   0  0  0  0  0  0  0  0  0  0  0  0
   -5.4200    7.3200   -1.7350 C   0  0  2  0  0  0  0  0  0  0  0  0
   -5.1510    8.1350   -0.4540 C   0  0  0  0  0  0  0  0  0  0  0  0
   -4.1980    9.3140   -0.6640 C   0  0  0  0  0  0  0  0  0  0  0  0
   -2.7780    8.9410   -0.3620 C   0  0  2  0  0  0  0  0  0  0  0  0
   -2.1720    9.6940    0.6960 O   0  0  0  0  0  0  0  0  0  0  0  0
   -1.5990    9.8640   -0.6100 C   0  0  0  0  0  0  0  0  0  0  0  0
   -1.7870   11.2330   -1.1850 C   0  0  0  0  0  0  0  0  0  0  0  0
   -0.2360    9.2610   -0.7530 C   0  0  0  0  0  0  0  0  0  0  0  0
   -6.8500    7.5520   -2.2080 C   0  0  1  0  0  0  0  0  0  0  0  0
   -7.1480    6.8670   -3.5690 C   0  0  0  0  0  0  0  0  0  0  0  0
   -8.6240    6.3950   -3.5190 C   0  0  0  0  0  0  0  0  0  0  0  0
   -9.2200    7.1080   -2.2820 C   0  0  1  0  0  0  0  0  0  0  0  0
   -9.5650    8.5470   -2.7760 C   0  0  0  0  0  0  0  0  0  0  0  0
  -10.4520    6.4160   -1.6130 C   0  0  2  0  0  0  0  0  0  0  0  0
  -11.6990    6.2990   -2.5060 C   0  0  0  0  0  0  0  0  0  0  0  0
  -12.6520    7.4450   -2.4240 C   0  0  0  0  0  0  0  0  0  0  0  0
  -12.6620    8.3860   -1.4620 C   0  0  0  0  0  0  0  0  0  0  0  0
  -11.7070    8.2990   -0.2650 C   0  0  1  0  0  0  0  0  0  0  0  0
  -12.4930    8.5690    1.0450 C   0  0  0  0  0  0  0  0  0  0  0  0
  -13.2610    9.8870    1.0060 C   0  0  0  0  0  0  0  0  0  0  0  0
  -14.2420    9.9120   -0.1640 C   0  0  2  0  0  0  0  0  0  0  0  0
  -15.2620    8.9370    0.0700 O   0  0  0  0  0  0  0  0  0  0  0  0
  -13.5650    9.6420   -1.5370 C   0  0  0  0  0  0  0  0  0  0  0  0
  -12.6820   10.8530   -1.9290 C   0  0  0  0  0  0  0  0  0  0  0  0
  -14.6830    9.5550   -2.6110 C   0  0  0  0  0  0  0  0  0  0  0  0
  -10.8170    6.9850   -0.1820 C   0  0  1  0  0  0  0  0  0  0  0  0
  -11.5990    5.8580    0.5590 C   0  0  0  0  0  0  0  0  0  0  0  0
   -9.5380    7.2850    0.6870 C   0  0  0  0  0  0  0  0  0  0  0  0
   -8.3130    7.8550   -0.0530 C   0  0  0  0  0  0  0  0  0  0  0  0
   -7.9930    7.0280   -1.3020 C   0  0  2  0  0  0  0  0  0  0  0  0
   -7.6200    5.5800   -0.8340 C   0  0  0  0  0  0  0  0  0  0  0  0
   -5.1377    5.6022   -0.4520 H   0  0  0  0  0  0  0  0  0  0  0  0
   -5.9900    5.2500   -1.9935 H   0  0  0  0  0  0  0  0  0  0  0  0
   -4.2175    5.5413   -1.9935 H   0  0  0  0  0  0  0  0  0  0  0  0
   -4.7131    7.6681   -2.5026 H   0  0  0  0  0  0  0  0  0  0  0  0
   -6.1101    8.5255   -0.0829 H   0  0  0  0  0  0  0  0  0  0  0  0
   -4.6686    7.4555    0.2641 H   0  0  0  0  0  0  0  0  0  0  0  0
   -4.2647    9.6439   -1.7112 H   0  0  0  0  0  0  0  0  0  0  0  0
   -4.4939   10.1202    0.0234 H   0  0  0  0  0  0  0  0  0  0  0  0
   -2.9689    7.8952   -0.6445 H   0  0  0  0  0  0  0  0  0  0  0  0
   -1.8873   11.9631   -0.3684 H   0  0  0  0  0  0  0  0  0  0  0  0
   -0.9162   11.4932   -1.8046 H   0  0  0  0  0  0  0  0  0  0  0  0
   -2.6957   11.2488   -1.8046 H   0  0  0  0  0  0  0  0  0  0  0  0
    0.1884    9.0733    0.2443 H   0  0  0  0  0  0  0  0  0  0  0  0
   -0.3109    8.3120   -1.3042 H   0  0  0  0  0  0  0  0  0  0  0  0
    0.4159    9.9547   -1.3042 H   0  0  0  0  0  0  0  0  0  0  0  0
   -6.8605    8.6517   -2.2296 H   0  0  0  0  0  0  0  0  0  0  0  0
   -7.0070    7.5829   -4.3922 H   0  0  0  0  0  0  0  0  0  0  0  0
   -6.4682    6.0196   -3.7417 H   0  0  0  0  0  0  0  0  0  0  0  0
   -9.1580    6.6925   -4.4335 H   0  0  0  0  0  0  0  0  0  0  0  0
   -8.7099    5.3005   -3.4513 H   0  0  0  0  0  0  0  0  0  0  0  0
   -9.7226    9.2046   -1.9084 H   0  0  0  0  0  0  0  0  0  0  0  0
   -8.7344    8.9349   -3.3840 H   0  0  0  0  0  0  0  0  0  0  0  0
  -10.4812    8.5161   -3.3840 H   0  0  0  0  0  0  0  0  0  0  0  0
  -10.0930    5.3868   -1.4652 H   0  0  0  0  0  0  0  0  0  0  0  0
  -11.3626    6.2107   -3.5496 H   0  0  0  0  0  0  0  0  0  0  0  0
  -12.2504    5.4184   -2.1447 H   0  0  0  0  0  0  0  0  0  0  0  0
  -13.4101    7.5273   -3.2168 H   0  0  0  0  0  0  0  0  0  0  0  0
  -10.9547    9.0867   -0.4186 H   0  0  0  0  0  0  0  0  0  0  0  0
  -13.2086    7.7485    1.2022 H   0  0  0  0  0  0  0  0  0  0  0  0
  -11.7628    8.6324    1.8652 H   0  0  0  0  0  0  0  0  0  0  0  0
  -13.8190   10.0066    1.9464 H   0  0  0  0  0  0  0  0  0  0  0  0
  -12.5415   10.7092    0.8788 H   0  0  0  0  0  0  0  0  0  0  0  0
  -14.6661   10.9255   -0.2181 H   0  0  0  0  0  0  0  0  0  0  0  0
  -14.8270    8.1220    0.3730 H   0  0  0  0  0  0  0  0  0  0  0  0
  -12.3184   11.3517   -1.0184 H   0  0  0  0  0  0  0  0  0  0  0  0
  -11.8246   10.5045   -2.5235 H   0  0  0  0  0  0  0  0  0  0  0  0
  -13.2760   11.5628   -2.5235 H   0  0  0  0  0  0  0  0  0  0  0  0
  -15.6622    9.4788   -2.1156 H   0  0  0  0  0  0  0  0  0  0  0  0
  -14.6591   10.4577   -3.2391 H   0  0  0  0  0  0  0  0  0  0  0  0
  -14.5197    8.6668   -3.2391 H   0  0  0  0  0  0  0  0  0  0  0  0
  -11.5019    5.9979    1.6457 H   0  0  0  0  0  0  0  0  0  0  0  0
  -12.6613    5.9025    0.2770 H   0  0  0  0  0  0  0  0  0  0  0  0
  -11.1855    4.8784    0.2770 H   0  0  0  0  0  0  0  0  0  0  0  0
   -9.8253    8.0102    1.4626 H   0  0  0  0  0  0  0  0  0  0  0  0
   -9.2135    6.3057    1.0688 H   0  0  0  0  0  0  0  0  0  0  0  0
   -8.5241    8.8922   -0.3525 H   0  0  0  0  0  0  0  0  0  0  0  0
   -7.4463    7.8183    0.6234 H   0  0  0  0  0  0  0  0  0  0  0  0
   -7.6100    5.5411    0.2653 H   0  0  0  0  0  0  0  0  0  0  0  0
   -8.3638    4.8671   -1.2193 H   0  0  0  0  0  0  0  0  0  0  0  0
   -6.6243    5.3152   -1.2193 H   0  0  0  0  0  0  0  0  0  0  0  0
  1  2  1  0
  2  3  1  0
  3  4  1  0
  4  5  1  0
  5  6  1  0
  6  7  1  0
  7  8  1  0
  7  9  1  0
  2 10  1  0
 10 11  1  0
 11 12  1  0
 12 13  1  0
 13 14  1  6
 13 15  1  0
 15 16  1  0
 16 17  1  0
 17 18  2  0
 18 19  1  0
 19 20  1  0
 20 21  1  0
 21 22  1  0
 22 23  1  0
 22 24  1  0
 24 25  1  0
 24 26  1  0
 19 27  1  0
 27 28  1  1
 27 29  1  0
 29 30  1  0
 30 31  1  0
 31 32  1  1
  7  5  1  0
 31 10  1  0
 31 13  1  0
 27 15  1  0
 24 18  1  0
  1 33  1  0
  1 34  1  0
  1 35  1  0
  2 36  1  6
  3 37  1  0
  3 38  1  0
  4 39  1  0
  4 40  1  0
  5 41  1  1
  8 42  1  0
  8 43  1  0
  8 44  1  0
  9 45  1  0
  9 46  1  0
  9 47  1  0
 10 48  1  6
 11 49  1  0
 11 50  1  0
 12 51  1  0
 12 52  1  0
 14 53  1  0
 14 54  1  0
 14 55  1  0
 15 56  1  1
 16 57  1  0
 16 58  1  0
 17 59  1  0
 19 60  1  6
 20 61  1  0
 20 62  1  0
 21 63  1  0
 21 64  1  0
 22 65  1  6
 23 66  1  0
 25 67  1  0
 25 68  1  0
 25 69  1  0
 26 70  1  0
 26 71  1  0
 26 72  1  0
 28 73  1  0
 28 74  1  0
 28 75  1  0
 29 76  1  0
 29 77  1  0
 30 78  1  0
 30 79  1  0
 32 80  1  0
 32 81  1  0
 32 82  1  0
M  END
>  <meeko>  (7) 
{"is_sidechain": [false], "intermolecular_energy": 2.731, "internal_energy": -0.839}

$$$$
EPH_relaxed_0001_pdb2pqr_Repair_31_r2_0001_out
     RDKit          3D

 82 86  0  0  0  0  0  0  0  0999 V2000
    0.4080    8.7990   -2.3630 C   0  0  0  0  0  0  0  0  0  0  0  0
    1.1500    9.9380   -3.0680 C   0  0  2  0  0  0  0  0  0  0  0  0
    2.6530    9.9520   -2.7250 C   0  0  0  0  0  0  0  0  0  0  0  0
    3.5270   10.5810   -3.8140 C   0  0  0  0  0  0  0  0  0  0  0  0
    4.9230   10.8310   -3.3290 C   0  0  2  0  0  0  0  0  0  0  0  0
    5.5200   12.0380   -3.8190 O   0  0  0  0  0  0  0  0  0  0  0  0
    6.1390   10.8100   -4.2350 C   0  0  0  0  0  0  0  0  0  0  0  0
    6.0160   10.5320   -5.7000 C   0  0  0  0  0  0  0  0  0  0  0  0
    7.4850   10.5760   -3.6210 C   0  0  0  0  0  0  0  0  0  0  0  0
    0.5190   11.2760   -2.6980 C   0  0  1  0  0  0  0  0  0  0  0  0
   -0.8610   11.1150   -2.0070 C   0  0  0  0  0  0  0  0  0  0  0  0
   -0.9720   12.2520   -0.9590 C   0  0  0  0  0  0  0  0  0  0  0  0
    0.1860   13.2170   -1.3060 C   0  0  1  0  0  0  0  0  0  0  0  0
   -0.3540   14.0820   -2.4880 C   0  0  0  0  0  0  0  0  0  0  0  0
    0.7190   14.1060   -0.1360 C   0  0  2  0  0  0  0  0  0  0  0  0
   -0.3060   15.0880    0.4570 C   0  0  0  0  0  0  0  0  0  0  0  0
   -0.3390   16.4380   -0.1800 C   0  0  0  0  0  0  0  0  0  0  0  0
    0.6090   16.9430   -0.9920 C   0  0  0  0  0  0  0  0  0  0  0  0
    1.9060   16.1690   -1.2640 C   0  0  1  0  0  0  0  0  0  0  0  0
    3.1190   17.1270   -1.1280 C   0  0  0  0  0  0  0  0  0  0  0  0
    2.9850   18.3690   -2.0030 C   0  0  0  0  0  0  0  0  0  0  0  0
    1.7130   19.1430   -1.6630 C   0  0  2  0  0  0  0  0  0  0  0  0
    1.8390   19.6760   -0.3410 O   0  0  0  0  0  0  0  0  0  0  0  0
    0.4260   18.2770   -1.7560 C   0  0  0  0  0  0  0  0  0  0  0  0
    0.1260   17.9490   -3.2400 C   0  0  0  0  0  0  0  0  0  0  0  0
   -0.7650   19.1360   -1.2520 C   0  0  0  0  0  0  0  0  0  0  0  0
    2.0960   14.8230   -0.4420 C   0  0  1  0  0  0  0  0  0  0  0  0
    2.7540   15.1300    0.9380 C   0  0  0  0  0  0  0  0  0  0  0  0
    3.1000   13.8860   -1.2140 C   0  0  0  0  0  0  0  0  0  0  0  0
    2.4960   12.9460   -2.2740 C   0  0  0  0  0  0  0  0  0  0  0  0
    1.2970   12.1800   -1.7080 C   0  0  2  0  0  0  0  0  0  0  0  0
    1.8130   11.2830   -0.5320 C   0  0  0  0  0  0  0  0  0  0  0  0
    0.4910    8.9263   -1.2735 H   0  0  0  0  0  0  0  0  0  0  0  0
   -0.6525    8.8165   -2.6545 H   0  0  0  0  0  0  0  0  0  0  0  0
    0.8526    7.8360   -2.6545 H   0  0  0  0  0  0  0  0  0  0  0  0
    1.0604    9.7709   -4.1515 H   0  0  0  0  0  0  0  0  0  0  0  0
    2.7918   10.5233   -1.7953 H   0  0  0  0  0  0  0  0  0  0  0  0
    2.9696    8.9034   -2.6244 H   0  0  0  0  0  0  0  0  0  0  0  0
    3.5661    9.9002   -4.6771 H   0  0  0  0  0  0  0  0  0  0  0  0
    3.0831   11.5477   -4.0941 H   0  0  0  0  0  0  0  0  0  0  0  0
    4.7059   10.3306   -2.3738 H   0  0  0  0  0  0  0  0  0  0  0  0
    5.5750    9.5352   -5.8483 H   0  0  0  0  0  0  0  0  0  0  0  0
    5.3699   11.2916   -6.1644 H   0  0  0  0  0  0  0  0  0  0  0  0
    7.0126   10.5648   -6.1644 H   0  0  0  0  0  0  0  0  0  0  0  0
    7.3956   10.5915   -2.5247 H   0  0  0  0  0  0  0  0  0  0  0  0
    7.8701    9.5974   -3.9437 H   0  0  0  0  0  0  0  0  0  0  0  0
    8.1778   11.3672   -3.9437 H   0  0  0  0  0  0  0  0  0  0  0  0
    0.4878   11.7462   -3.6920 H   0  0  0  0  0  0  0  0  0  0  0  0
   -1.6686   11.2033   -2.7487 H   0  0  0  0  0  0  0  0  0  0  0  0
   -0.9509   10.1280   -1.5298 H   0  0  0  0  0  0  0  0  0  0  0  0
   -1.9421   12.7637   -1.0425 H   0  0  0  0  0  0  0  0  0  0  0  0
   -0.9068   11.8761    0.0727 H   0  0  0  0  0  0  0  0  0  0  0  0
   -0.8967   14.9513   -2.0882 H   0  0  0  0  0  0  0  0  0  0  0  0
    0.4890   14.4277   -3.1044 H   0  0  0  0  0  0  0  0  0  0  0  0
   -1.0348   13.4765   -3.1044 H   0  0  0  0  0  0  0  0  0  0  0  0
    0.9134   13.3647    0.6531 H   0  0  0  0  0  0  0  0  0  0  0  0
   -1.3051   14.6394    0.3545 H   0  0  0  0  0  0  0  0  0  0  0  0
   -0.0014   15.2518    1.5012 H   0  0  0  0  0  0  0  0  0  0  0  0
   -1.2114   17.0737    0.0319 H   0  0  0  0  0  0  0  0  0  0  0  0
    1.8316   15.8057   -2.2996 H   0  0  0  0  0  0  0  0  0  0  0  0
    3.2025   17.4431   -0.0777 H   0  0  0  0  0  0  0  0  0  0  0  0
    4.0145   16.5806   -1.4591 H   0  0  0  0  0  0  0  0  0  0  0  0
    3.8566   19.0198   -1.8398 H   0  0  0  0  0  0  0  0  0  0  0  0
    2.9322   18.0526   -3.0552 H   0  0  0  0  0  0  0  0  0  0  0  0
    1.6054   19.9457   -2.4074 H   0  0  0  0  0  0  0  0  0  0  0  0
    2.7130   20.0970   -0.2750 H   0  0  0  0  0  0  0  0  0  0  0  0
   -0.6155   17.1383   -3.2937 H   0  0  0  0  0  0  0  0  0  0  0  0
   -0.2725   18.8441   -3.7400 H   0  0  0  0  0  0  0  0  0  0  0  0
    1.0530   17.6317   -3.7400 H   0  0  0  0  0  0  0  0  0  0  0  0
   -0.7732   19.1419   -0.1520 H   0  0  0  0  0  0  0  0  0  0  0  0
   -0.6574   20.1658   -1.6234 H   0  0  0  0  0  0  0  0  0  0  0  0
   -1.7082   18.7089   -1.6234 H   0  0  0  0  0  0  0  0  0  0  0  0
    2.0770   14.8141    1.7454 H   0  0  0  0  0  0  0  0  0  0  0  0
    3.7043   14.5823    1.0210 H   0  0  0  0  0  0  0  0  0  0  0  0
    2.9448   16.2101    1.0210 H   0  0  0  0  0  0  0  0  0  0  0  0
    3.8345   14.5300   -1.7198 H   0  0  0  0  0  0  0  0  0  0  0  0
    3.5221   13.2211   -0.4461 H   0  0  0  0  0  0  0  0  0  0  0  0
    2.1669   13.5421   -3.1379 H   0  0  0  0  0  0  0  0  0  0  0  0
    3.2645   12.2199   -2.5775 H   0  0  0  0  0  0  0  0  0  0  0  0
    1.5456   11.7479    0.4284 H   0  0  0  0  0  0  0  0  0  0  0  0
    1.3494   10.2878   -0.5993 H   0  0  0  0  0  0  0  0  0  0  0  0
    2.9064   11.1834   -0.5993 H   0  0  0  0  0  0  0  0  0  0  0  0
  1  2  1  0
  2  3  1  0
  3  4  1  0
  4  5  1  0
  5  6  1  0
  6  7  1  0
  7  8  1  0
  7  9  1  0
  2 10  1  0
 10 11  1  0
 11 12  1  0
 12 13  1  0
 13 14  1  6
 13 15  1  0
 15 16  1  0
 16 17  1  0
 17 18  2  0
 18 19  1  0
 19 20  1  0
 20 21  1  0
 21 22  1  0
 22 23  1  0
 22 24  1  0
 24 25  1  0
 24 26  1  0
 19 27  1  0
 27 28  1  1
 27 29  1  0
 29 30  1  0
 30 31  1  0
 31 32  1  1
  7  5  1  0
 31 10  1  0
 31 13  1  0
 27 15  1  0
 24 18  1  0
  1 33  1  0
  1 34  1  0
  1 35  1  0
  2 36  1  6
  3 37  1  0
  3 38  1  0
  4 39  1  0
  4 40  1  0
  5 41  1  1
  8 42  1  0
  8 43  1  0
  8 44  1  0
  9 45  1  0
  9 46  1  0
  9 47  1  0
 10 48  1  6
 11 49  1  0
 11 50  1  0
 12 51  1  0
 12 52  1  0
 14 53  1  0
 14 54  1  0
 14 55  1  0
 15 56  1  1
 16 57  1  0
 16 58  1  0
 17 59  1  0
 19 60  1  6
 20 61  1  0
 20 62  1  0
 21 63  1  0
 21 64  1  0
 22 65  1  6
 23 66  1  0
 25 67  1  0
 25 68  1  0
 25 69  1  0
 26 70  1  0
 26 71  1  0
 26 72  1  0
 28 73  1  0
 28 74  1  0
 28 75  1  0
 29 76  1  0
 29 77  1  0
 30 78  1  0
 30 79  1  0
 32 80  1  0
 32 81  1  0
 32 82  1  0
M  END
>  <meeko>  (8) 
{"is_sidechain": [false], "intermolecular_energy": 2.731, "internal_energy": -0.839}

$$$$
EPH_relaxed_0001_pdb2pqr_Repair_31_r2_0001_out
     RDKit          3D

 82 86  0  0  0  0  0  0  0  0999 V2000
    0.1110   17.7580   -2.5580 C   0  0  0  0  0  0  0  0  0  0  0  0
   -0.1280   16.8690   -1.3340 C   0  0  2  0  0  0  0  0  0  0  0  0
   -0.1760   17.6820   -0.0250 C   0  0  0  0  0  0  0  0  0  0  0  0
    0.4520   19.0730   -0.1420 C   0  0  0  0  0  0  0  0  0  0  0  0
    1.6060   19.2410    0.7990 C   0  0  2  0  0  0  0  0  0  0  0  0
    2.5900   20.1940    0.3760 O   0  0  0  0  0  0  0  0  0  0  0  0
    3.0270   18.8280    0.4630 C   0  0  0  0  0  0  0  0  0  0  0  0
    3.3690   18.2140   -0.8580 C   0  0  0  0  0  0  0  0  0  0  0  0
    3.9820   18.5710    1.5860 C   0  0  0  0  0  0  0  0  0  0  0  0
    0.9580   15.8030   -1.2460 C   0  0  1  0  0  0  0  0  0  0  0  0
    1.1730   15.2870    0.2010 C   0  0  0  0  0  0  0  0  0  0  0  0
    1.5260   13.7810    0.0920 C   0  0  0  0  0  0  0  0  0  0  0  0
    1.8280   13.5600   -1.4090 C   0  0  1  0  0  0  0  0  0  0  0  0
    3.2980   14.0480   -1.5980 C   0  0  0  0  0  0  0  0  0  0  0  0
    1.6280   12.1050   -1.9470 C   0  0  2  0  0  0  0  0  0  0  0  0
    2.5410   11.0430   -1.3100 C   0  0  0  0  0  0  0  0  0  0  0  0
    3.8430   10.8210   -2.0050 C   0  0  0  0  0  0  0  0  0  0  0  0
    4.1460   11.2360   -3.2490 C   0  0  0  0  0  0  0  0  0  0  0  0
    3.0930   11.9230   -4.1290 C   0  0  1  0  0  0  0  0  0  0  0  0
    3.1240   11.3040   -5.5510 C   0  0  0  0  0  0  0  0  0  0  0  0
    4.5160   11.3380   -6.1740 C   0  0  0  0  0  0  0  0  0  0  0  0
    5.5230   10.5960   -5.2990 C   0  0  2  0  0  0  0  0  0  0  0  0
    5.1920    9.2040   -5.2950 O   0  0  0  0  0  0  0  0  0  0  0  0
    5.5740   11.1260   -3.8390 C   0  0  0  0  0  0  0  0  0  0  0  0
    6.2190   12.5330   -3.8180 C   0  0  0  0  0  0  0  0  0  0  0  0
    6.5230   10.2020   -3.0280 C   0  0  0  0  0  0  0  0  0  0  0  0
    1.6250   11.9930   -3.5250 C   0  0  1  0  0  0  0  0  0  0  0  0
    0.8420   10.6910   -3.8770 C   0  0  0  0  0  0  0  0  0  0  0  0
    0.8440   13.1780   -4.2080 C   0  0  0  0  0  0  0  0  0  0  0  0
    0.9860   14.5680   -3.5590 C   0  0  0  0  0  0  0  0  0  0  0  0
    0.7400   14.4960   -2.0490 C   0  0  2  0  0  0  0  0  0  0  0  0
   -0.7400   14.0300   -1.8280 C   0  0  0  0  0  0  0  0  0  0  0  0
    0.3834   18.7713   -2.2277 H   0  0  0  0  0  0  0  0  0  0  0  0
    0.9280   17.3374   -3.1627 H   0  0  0  0  0  0  0  0  0  0  0  0
   -0.8067   17.8038   -3.1627 H   0  0  0  0  0  0  0  0  0  0  0  0
   -1.1101   16.3899   -1.4602 H   0  0  0  0  0  0  0  0  0  0  0  0
   -1.2285   17.7999    0.2723 H   0  0  0  0  0  0  0  0  0  0  0  0
    0.4107   17.1258    0.7209 H   0  0  0  0  0  0  0  0  0  0  0  0
    0.8084   19.2177   -1.1726 H   0  0  0  0  0  0  0  0  0  0  0  0
   -0.3141   19.8181    0.1184 H   0  0  0  0  0  0  0  0  0  0  0  0
    0.9611   19.0289    1.6645 H   0  0  0  0  0  0  0  0  0  0  0  0
    3.8983   17.2637   -0.6946 H   0  0  0  0  0  0  0  0  0  0  0  0
    2.4454   18.0264   -1.4253 H   0  0  0  0  0  0  0  0  0  0  0  0
    4.0147   18.9005   -1.4253 H   0  0  0  0  0  0  0  0  0  0  0  0
    3.4644   18.7103    2.5466 H   0  0  0  0  0  0  0  0  0  0  0  0
    4.3584   17.5396    1.5185 H   0  0  0  0  0  0  0  0  0  0  0  0
    4.8252   19.2742    1.5185 H   0  0  0  0  0  0  0  0  0  0  0  0
    1.8030   16.3669   -1.6679 H   0  0  0  0  0  0  0  0  0  0  0  0
    1.9975   15.8355    0.6800 H   0  0  0  0  0  0  0  0  0  0  0  0
    0.2707   15.4376    0.8118 H   0  0  0  0  0  0  0  0  0  0  0  0
    2.4080   13.5433    0.7049 H   0  0  0  0  0  0  0  0  0  0  0  0
    0.7133   13.1342    0.4542 H   0  0  0  0  0  0  0  0  0  0  0  0
    3.7626   14.2023   -0.6130 H   0  0  0  0  0  0  0  0  0  0  0  0
    3.8668   13.2905   -2.1571 H   0  0  0  0  0  0  0  0  0  0  0  0
    3.3008   14.9953   -2.1571 H   0  0  0  0  0  0  0  0  0  0  0  0
    0.6094   11.8654   -1.6079 H   0  0  0  0  0  0  0  0  0  0  0  0
    2.7560   11.3550   -0.2773 H   0  0  0  0  0  0  0  0  0  0  0  0
    1.9938   10.0912   -1.3782 H   0  0  0  0  0  0  0  0  0  0  0  0
    4.6207   10.2718   -1.4540 H   0  0  0  0  0  0  0  0  0  0  0  0
    3.3807   12.9836   -4.1777 H   0  0  0  0  0  0  0  0  0  0  0  0
    2.7918   10.2573   -5.4872 H   0  0  0  0  0  0  0  0  0  0  0  0
    2.4577   11.9022   -6.1899 H   0  0  0  0  0  0  0  0  0  0  0  0
    4.4790   10.8607   -7.1644 H   0  0  0  0  0  0  0  0  0  0  0  0
    4.8349   12.3869   -6.2645 H   0  0  0  0  0  0  0  0  0  0  0  0
    6.5214   10.7656   -5.7284 H   0  0  0  0  0  0  0  0  0  0  0  0
    5.2880    8.8810   -4.3830 H   0  0  0  0  0  0  0  0  0  0  0  0
    6.3659   12.8535   -2.7760 H   0  0  0  0  0  0  0  0  0  0  0  0
    7.1912   12.4984   -4.3315 H   0  0  0  0  0  0  0  0  0  0  0  0
    5.5583   13.2470   -4.3315 H   0  0  0  0  0  0  0  0  0  0  0  0
    6.3590   10.3616   -1.9521 H   0  0  0  0  0  0  0  0  0  0  0  0
    6.3145    9.1515   -3.2788 H   0  0  0  0  0  0  0  0  0  0  0  0
    7.5676   10.4385   -3.2788 H   0  0  0  0  0  0  0  0  0  0  0  0
    0.5373   10.1843   -2.9494 H   0  0  0  0  0  0  0  0  0  0  0  0
   -0.0515   10.9481   -4.4649 H   0  0  0  0  0  0  0  0  0  0  0  0
    1.4879   10.0223   -4.4649 H   0  0  0  0  0  0  0  0  0  0  0  0
    1.2002   13.2571   -5.2457 H   0  0  0  0  0  0  0  0  0  0  0  0
   -0.2201   12.9191   -4.1048 H   0  0  0  0  0  0  0  0  0  0  0  0
    2.0024   14.9476   -3.7403 H   0  0  0  0  0  0  0  0  0  0  0  0
    0.2384   15.2409   -4.0043 H   0  0  0  0  0  0  0  0  0  0  0  0
   -0.9468   13.9649   -0.7496 H   0  0  0  0  0  0  0  0  0  0  0  0
   -1.4257   14.7557   -2.2897 H   0  0  0  0  0  0  0  0  0  0  0  0
   -0.8863   13.0423   -2.2897 H   0  0  0  0  0  0  0  0  0  0  0  0
  1  2  1  0
  2  3  1  0
  3  4  1  0
  4  5  1  0
  5  6  1  0
  6  7  1  0
  7  8  1  0
  7  9  1  0
  2 10  1  0
 10 11  1  0
 11 12  1  0
 12 13  1  0
 13 14  1  1
 13 15  1  0
 15 16  1  0
 16 17  1  0
 17 18  2  0
 18 19  1  0
 19 20  1  0
 20 21  1  0
 21 22  1  0
 22 23  1  0
 22 24  1  0
 24 25  1  0
 24 26  1  0
 19 27  1  0
 27 28  1  1
 27 29  1  0
 29 30  1  0
 30 31  1  0
 31 32  1  6
  7  5  1  0
 31 10  1  0
 31 13  1  0
 27 15  1  0
 24 18  1  0
  1 33  1  0
  1 34  1  0
  1 35  1  0
  2 36  1  6
  3 37  1  0
  3 38  1  0
  4 39  1  0
  4 40  1  0
  5 41  1  1
  8 42  1  0
  8 43  1  0
  8 44  1  0
  9 45  1  0
  9 46  1  0
  9 47  1  0
 10 48  1  6
 11 49  1  0
 11 50  1  0
 12 51  1  0
 12 52  1  0
 14 53  1  0
 14 54  1  0
 14 55  1  0
 15 56  1  1
 16 57  1  0
 16 58  1  0
 17 59  1  0
 19 60  1  6
 20 61  1  0
 20 62  1  0
 21 63  1  0
 21 64  1  0
 22 65  1  6
 23 66  1  0
 25 67  1  0
 25 68  1  0
 25 69  1  0
 26 70  1  0
 26 71  1  0
 26 72  1  0
 28 73  1  0
 28 74  1  0
 28 75  1  0
 29 76  1  0
 29 77  1  0
 30 78  1  0
 30 79  1  0
 32 80  1  0
 32 81  1  0
 32 82  1  0
M  END
>  <meeko>  (9) 
{"is_sidechain": [false], "intermolecular_energy": 2.731, "internal_energy": -0.839}

$$$$
EPH_relaxed_0001_pdb2pqr_Repair_31_r2_0001_out
     RDKit          3D

 82 86  0  0  0  0  0  0  0  0999 V2000
   -0.9190   16.3840   -5.8880 C   0  0  0  0  0  0  0  0  0  0  0  0
    0.1840   15.6880   -6.6910 C   0  0  2  0  0  0  0  0  0  0  0  0
   -0.2110   15.4900   -8.1680 C   0  0  0  0  0  0  0  0  0  0  0  0
    0.4390   16.4990   -9.1190 C   0  0  0  0  0  0  0  0  0  0  0  0
    1.8450   16.1110   -9.4640 C   0  0  2  0  0  0  0  0  0  0  0  0
    2.3400   16.6750  -10.6850 O   0  0  0  0  0  0  0  0  0  0  0  0
    2.2050   15.2450  -10.6570 C   0  0  0  0  0  0  0  0  0  0  0  0
    1.1550   14.7150  -11.5810 C   0  0  0  0  0  0  0  0  0  0  0  0
    3.5130   14.5160  -10.6430 C   0  0  0  0  0  0  0  0  0  0  0  0
    0.5190   14.3430   -6.0570 C   0  0  1  0  0  0  0  0  0  0  0  0
    1.7480   13.6620   -6.7150 C   0  0  0  0  0  0  0  0  0  0  0  0
    2.5010   12.9110   -5.5870 C   0  0  0  0  0  0  0  0  0  0  0  0
    1.5150   12.9050   -4.3960 C   0  0  1  0  0  0  0  0  0  0  0  0
    0.5320   11.7300   -4.6950 C   0  0  0  0  0  0  0  0  0  0  0  0
    2.1500   12.7790   -2.9730 C   0  0  2  0  0  0  0  0  0  0  0  0
    2.9190   11.4710   -2.7160 C   0  0  0  0  0  0  0  0  0  0  0  0
    2.1070   10.3560   -2.1460 C   0  0  0  0  0  0  0  0  0  0  0  0
    0.8890   10.4810   -1.5870 C   0  0  0  0  0  0  0  0  0  0  0  0
    0.2470   11.8610   -1.3990 C   0  0  1  0  0  0  0  0  0  0  0  0
   -0.3340   11.9710    0.0350 C   0  0  0  0  0  0  0  0  0  0  0  0
   -1.2920   10.8320    0.3670 C   0  0  0  0  0  0  0  0  0  0  0  0
   -0.6010    9.4780    0.2250 C   0  0  2  0  0  0  0  0  0  0  0  0
    0.4110    9.3700    1.2310 O   0  0  0  0  0  0  0  0  0  0  0  0
    0.0320    9.2580   -1.1780 C   0  0  0  0  0  0  0  0  0  0  0  0
   -1.0880    9.0750   -2.2310 C   0  0  0  0  0  0  0  0  0  0  0  0
    0.8170    7.9190   -1.1420 C   0  0  0  0  0  0  0  0  0  0  0  0
    1.1540   13.1070   -1.7880 C   0  0  1  0  0  0  0  0  0  0  0  0
    2.0350   13.5240   -0.5700 C   0  0  0  0  0  0  0  0  0  0  0  0
    0.2270   14.3380   -2.1080 C   0  0  0  0  0  0  0  0  0  0  0  0
   -0.2710   14.4740   -3.5600 C   0  0  0  0  0  0  0  0  0  0  0  0
    0.8880   14.3390   -4.5520 C   0  0  2  0  0  0  0  0  0  0  0  0
    1.8820   15.5210   -4.2900 C   0  0  0  0  0  0  0  0  0  0  0  0
   -0.7232   16.2605   -4.8126 H   0  0  0  0  0  0  0  0  0  0  0  0
   -0.9337   17.4553   -6.1373 H   0  0  0  0  0  0  0  0  0  0  0  0
   -1.8923   15.9361   -6.1373 H   0  0  0  0  0  0  0  0  0  0  0  0
    1.0700   16.3396   -6.6701 H   0  0  0  0  0  0  0  0  0  0  0  0
    0.0911   14.4781   -8.4758 H   0  0  0  0  0  0  0  0  0  0  0  0
   -1.2986   15.6410   -8.2332 H   0  0  0  0  0  0  0  0  0  0  0  0
   -0.1538   16.5496  -10.0442 H   0  0  0  0  0  0  0  0  0  0  0  0
    0.4674   17.4760   -8.6144 H   0  0  0  0  0  0  0  0  0  0  0  0
    2.1138   16.0492   -8.3992 H   0  0  0  0  0  0  0  0  0  0  0  0
    0.3257   14.2964  -10.9920 H   0  0  0  0  0  0  0  0  0  0  0  0
    0.7789   15.5312  -12.2153 H   0  0  0  0  0  0  0  0  0  0  0  0
    1.5883   13.9276  -12.2153 H   0  0  0  0  0  0  0  0  0  0  0  0
    3.8248   14.3422   -9.6025 H   0  0  0  0  0  0  0  0  0  0  0  0
    3.4003   13.5506  -11.1581 H   0  0  0  0  0  0  0  0  0  0  0  0
    4.2748   15.1197  -11.1581 H   0  0  0  0  0  0  0  0  0  0  0  0
   -0.4376   13.8226   -6.2118 H   0  0  0  0  0  0  0  0  0  0  0  0
    1.4188   12.9523   -7.4883 H   0  0  0  0  0  0  0  0  0  0  0  0
    2.3996   14.4051   -7.1978 H   0  0  0  0  0  0  0  0  0  0  0  0
    2.7408   11.8834   -5.8977 H   0  0  0  0  0  0  0  0  0  0  0  0
    3.4580   13.3905   -5.3336 H   0  0  0  0  0  0  0  0  0  0  0  0
    0.1736   11.3016   -3.7474 H   0  0  0  0  0  0  0  0  0  0  0  0
   -0.3240   12.1065   -5.2742 H   0  0  0  0  0  0  0  0  0  0  0  0
    1.0537   10.9539   -5.2742 H   0  0  0  0  0  0  0  0  0  0  0  0
    2.9091   13.5751   -2.9810 H   0  0  0  0  0  0  0  0  0  0  0  0
    3.3397   11.1302   -3.6735 H   0  0  0  0  0  0  0  0  0  0  0  0
    3.6816   11.7096   -1.9600 H   0  0  0  0  0  0  0  0  0  0  0  0
    2.5409    9.3460   -2.1862 H   0  0  0  0  0  0  0  0  0  0  0  0
   -0.5668   11.9206   -2.1367 H   0  0  0  0  0  0  0  0  0  0  0  0
    0.4977   11.9533    0.7547 H   0  0  0  0  0  0  0  0  0  0  0  0
   -0.9008   12.9119    0.0942 H   0  0  0  0  0  0  0  0  0  0  0  0
   -1.6452   10.9490    1.4022 H   0  0  0  0  0  0  0  0  0  0  0  0
   -2.1381   10.8694   -0.3349 H   0  0  0  0  0  0  0  0  0  0  0  0
   -1.3691    8.7004    0.3485 H   0  0  0  0  0  0  0  0  0  0  0  0
    1.2740    9.4170    0.7870 H   0  0  0  0  0  0  0  0  0  0  0  0
   -2.0494    8.9179   -1.7202 H   0  0  0  0  0  0  0  0  0  0  0  0
   -1.1500    9.9749   -2.8605 H   0  0  0  0  0  0  0  0  0  0  0  0
   -0.8604    8.2021   -2.8605 H   0  0  0  0  0  0  0  0  0  0  0  0
    0.9902    7.6235   -0.0967 H   0  0  0  0  0  0  0  0  0  0  0  0
    0.2337    7.1382   -1.6519 H   0  0  0  0  0  0  0  0  0  0  0  0
    1.7833    8.0466   -1.6519 H   0  0  0  0  0  0  0  0  0  0  0  0
    1.5102   13.2756    0.3643 H   0  0  0  0  0  0  0  0  0  0  0  0
    2.9923   12.9834   -0.6077 H   0  0  0  0  0  0  0  0  0  0  0  0
    2.2238   14.6070   -0.6077 H   0  0  0  0  0  0  0  0  0  0  0  0
   -0.6576   14.2662   -1.4582 H   0  0  0  0  0  0  0  0  0  0  0  0
    0.8554   15.2241   -1.9351 H   0  0  0  0  0  0  0  0  0  0  0  0
   -1.0111   13.6857   -3.7619 H   0  0  0  0  0  0  0  0  0  0  0  0
   -0.7244   15.4686   -3.6836 H   0  0  0  0  0  0  0  0  0  0  0  0
    2.0030   15.6649   -3.2062 H   0  0  0  0  0  0  0  0  0  0  0  0
    2.8579   15.2860   -4.7399 H   0  0  0  0  0  0  0  0  0  0  0  0
    1.4831   16.4421   -4.7399 H   0  0  0  0  0  0  0  0  0  0  0  0
  1  2  1  0
  2  3  1  0
  3  4  1  0
  4  5  1  0
  5  6  1  0
  6  7  1  0
  7  8  1  0
  7  9  1  0
  2 10  1  0
 10 11  1  0
 11 12  1  0
 12 13  1  0
 13 14  1  6
 13 15  1  0
 15 16  1  0
 16 17  1  0
 17 18  2  0
 18 19  1  0
 19 20  1  0
 20 21  1  0
 21 22  1  0
 22 23  1  0
 22 24  1  0
 24 25  1  0
 24 26  1  0
 19 27  1  0
 27 28  1  1
 27 29  1  0
 29 30  1  0
 30 31  1  0
 31 32  1  6
  7  5  1  0
 31 10  1  0
 31 13  1  0
 27 15  1  0
 24 18  1  0
  1 33  1  0
  1 34  1  0
  1 35  1  0
  2 36  1  6
  3 37  1  0
  3 38  1  0
  4 39  1  0
  4 40  1  0
  5 41  1  1
  8 42  1  0
  8 43  1  0
  8 44  1  0
  9 45  1  0
  9 46  1  0
  9 47  1  0
 10 48  1  1
 11 49  1  0
 11 50  1  0
 12 51  1  0
 12 52  1  0
 14 53  1  0
 14 54  1  0
 14 55  1  0
 15 56  1  6
 16 57  1  0
 16 58  1  0
 17 59  1  0
 19 60  1  6
 20 61  1  0
 20 62  1  0
 21 63  1  0
 21 64  1  0
 22 65  1  1
 23 66  1  0
 25 67  1  0
 25 68  1  0
 25 69  1  0
 26 70  1  0
 26 71  1  0
 26 72  1  0
 28 73  1  0
 28 74  1  0
 28 75  1  0
 29 76  1  0
 29 77  1  0
 30 78  1  0
 30 79  1  0
 32 80  1  0
 32 81  1  0
 32 82  1  0
M  END
>  <meeko>  (10) 
{"is_sidechain": [false], "intermolecular_energy": 2.731, "internal_energy": -0.839}

$$$$
EPH_relaxed_0001_pdb2pqr_Repair_31_r2_0001_out
     RDKit          3D

 82 86  0  0  0  0  0  0  0  0999 V2000
   -4.1120    7.3290   -3.5100 C   0  0  0  0  0  0  0  0  0  0  0  0
   -3.6540    7.2270   -2.0520 C   0  0  2  0  0  0  0  0  0  0  0  0
   -4.7750    6.7120   -1.1260 C   0  0  0  0  0  0  0  0  0  0  0  0
   -5.9570    6.0930   -1.8770 C   0  0  0  0  0  0  0  0  0  0  0  0
   -7.2590    6.7100   -1.4660 C   0  0  2  0  0  0  0  0  0  0  0  0
   -8.3070    5.7710   -1.1920 O   0  0  0  0  0  0  0  0  0  0  0  0
   -8.5180    6.6480   -2.3110 C   0  0  0  0  0  0  0  0  0  0  0  0
   -8.5350    5.9520   -3.6350 C   0  0  0  0  0  0  0  0  0  0  0  0
   -9.5850    7.6720   -2.0810 C   0  0  0  0  0  0  0  0  0  0  0  0
   -3.1590    8.5840   -1.5660 C   0  0  1  0  0  0  0  0  0  0  0  0
   -3.8250    9.0210   -0.2350 C   0  0  0  0  0  0  0  0  0  0  0  0
   -2.7510    9.7990    0.5690 C   0  0  0  0  0  0  0  0  0  0  0  0
   -1.6210   10.0710   -0.4520 C   0  0  1  0  0  0  0  0  0  0  0  0
   -2.1020   11.3170   -1.2600 C   0  0  0  0  0  0  0  0  0  0  0  0
   -0.1910   10.2830    0.1410 C   0  0  2  0  0  0  0  0  0  0  0  0
   -0.0430   11.5040    1.0660 C   0  0  0  0  0  0  0  0  0  0  0  0
    0.3550   12.7730    0.3880 C   0  0  0  0  0  0  0  0  0  0  0  0
    0.8600   12.8700   -0.8560 C   0  0  0  0  0  0  0  0  0  0  0  0
    1.1690   11.6140   -1.6810 C   0  0  1  0  0  0  0  0  0  0  0  0
    2.5740   11.7490   -2.3240 C   0  0  0  0  0  0  0  0  0  0  0  0
    2.7250   13.0320   -3.1350 C   0  0  0  0  0  0  0  0  0  0  0  0
    2.4680   14.2610   -2.2670 C   0  0  2  0  0  0  0  0  0  0  0  0
    3.5070   14.3590   -1.2880 O   0  0  0  0  0  0  0  0  0  0  0  0
    1.0840   14.2320   -1.5590 C   0  0  0  0  0  0  0  0  0  0  0  0
   -0.0400   14.4290   -2.6060 C   0  0  0  0  0  0  0  0  0  0  0  0
    1.0100   15.4550   -0.6060 C   0  0  0  0  0  0  0  0  0  0  0  0
    0.9710   10.2270   -0.9320 C   0  0  1  0  0  0  0  0  0  0  0  0
    2.2720    9.8490   -0.1600 C   0  0  0  0  0  0  0  0  0  0  0  0
    0.7440    9.0930   -2.0010 C   0  0  0  0  0  0  0  0  0  0  0  0
   -0.7070    8.8510   -2.4590 C   0  0  0  0  0  0  0  0  0  0  0  0
   -1.6470    8.7200   -1.2560 C   0  0  2  0  0  0  0  0  0  0  0  0
   -1.2020    7.4610   -0.4360 C   0  0  0  0  0  0  0  0  0  0  0  0
   -5.1853    7.5680   -3.5413 H   0  0  0  0  0  0  0  0  0  0  0  0
   -3.5446    8.1228   -4.0179 H   0  0  0  0  0  0  0  0  0  0  0  0
   -3.9351    6.3694   -4.0179 H   0  0  0  0  0  0  0  0  0  0  0  0
   -2.8324    6.4966   -2.0137 H   0  0  0  0  0  0  0  0  0  0  0  0
   -4.3501    5.9488   -0.4574 H   0  0  0  0  0  0  0  0  0  0  0  0
   -5.1632    7.5820   -0.5761 H   0  0  0  0  0  0  0  0  0  0  0  0
   -5.8141    6.2481   -2.9566 H   0  0  0  0  0  0  0  0  0  0  0  0
   -5.9939    5.0207   -1.6343 H   0  0  0  0  0  0  0  0  0  0  0  0
   -6.7358    7.5478   -0.9819 H   0  0  0  0  0  0  0  0  0  0  0  0
   -8.5616    4.8638   -3.4769 H   0  0  0  0  0  0  0  0  0  0  0  0
   -9.4258    6.2622   -4.2009 H   0  0  0  0  0  0  0  0  0  0  0  0
   -7.6301    6.2183   -4.2009 H   0  0  0  0  0  0  0  0  0  0  0  0
   -9.7314    7.8125   -0.9999 H   0  0  0  0  0  0  0  0  0  0  0  0
   -9.2820    8.6261   -2.5370 H   0  0  0  0  0  0  0  0  0  0  0  0
  -10.5258    7.3300   -2.5370 H   0  0  0  0  0  0  0  0  0  0  0  0
   -3.4209    9.1994   -2.4393 H   0  0  0  0  0  0  0  0  0  0  0  0
   -4.6892    9.6702   -0.4392 H   0  0  0  0  0  0  0  0  0  0  0  0
   -4.1868    8.1494    0.3302 H   0  0  0  0  0  0  0  0  0  0  0  0
   -3.1625   10.7438    0.9538 H   0  0  0  0  0  0  0  0  0  0  0  0
   -2.3957    9.2358    1.4445 H   0  0  0  0  0  0  0  0  0  0  0  0
   -2.4083   12.1105   -0.5624 H   0  0  0  0  0  0  0  0  0  0  0  0
   -1.2804   11.6827   -1.8935 H   0  0  0  0  0  0  0  0  0  0  0  0
   -2.9562   11.0358   -1.8935 H   0  0  0  0  0  0  0  0  0  0  0  0
   -0.0709    9.4013    0.7877 H   0  0  0  0  0  0  0  0  0  0  0  0
   -1.0096   11.6729    1.5632 H   0  0  0  0  0  0  0  0  0  0  0  0
    0.7738   11.2615    1.7617 H   0  0  0  0  0  0  0  0  0  0  0  0
    0.2246   13.7079    0.9527 H   0  0  0  0  0  0  0  0  0  0  0  0
    0.4017   11.5707   -2.4680 H   0  0  0  0  0  0  0  0  0  0  0  0
    3.3295   11.7462   -1.5245 H   0  0  0  0  0  0  0  0  0  0  0  0
    2.7094   10.9013   -3.0117 H   0  0  0  0  0  0  0  0  0  0  0  0
    3.7468   13.0841   -3.5389 H   0  0  0  0  0  0  0  0  0  0  0  0
    1.9881   13.0193   -3.9516 H   0  0  0  0  0  0  0  0  0  0  0  0
    2.4629   15.1385   -2.9302 H   0  0  0  0  0  0  0  0  0  0  0  0
    3.0850   14.5100   -0.4250 H   0  0  0  0  0  0  0  0  0  0  0  0
   -0.9967   14.5967   -2.0897 H   0  0  0  0  0  0  0  0  0  0  0  0
    0.1942   15.2998   -3.2360 H   0  0  0  0  0  0  0  0  0  0  0  0
   -0.1159   13.5305   -3.2360 H   0  0  0  0  0  0  0  0  0  0  0  0
    1.0310   15.1083    0.4377 H   0  0  0  0  0  0  0  0  0  0  0  0
    1.8698   16.1159   -0.7902 H   0  0  0  0  0  0  0  0  0  0  0  0
    0.0768   16.0074   -0.7902 H   0  0  0  0  0  0  0  0  0  0  0  0
    2.0849    9.9034    0.9226 H   0  0  0  0  0  0  0  0  0  0  0  0
    2.5739    8.8260   -0.4290 H   0  0  0  0  0  0  0  0  0  0  0  0
    3.0750   10.5510   -0.4290 H   0  0  0  0  0  0  0  0  0  0  0  0
    1.3354    9.3520   -2.8916 H   0  0  0  0  0  0  0  0  0  0  0  0
    1.0475    8.1612   -1.5013 H   0  0  0  0  0  0  0  0  0  0  0  0
   -1.0340    9.6974   -3.0808 H   0  0  0  0  0  0  0  0  0  0  0  0
   -0.7415    7.9144   -3.0349 H   0  0  0  0  0  0  0  0  0  0  0  0
   -1.2787    7.6781    0.6396 H   0  0  0  0  0  0  0  0  0  0  0  0
   -1.8543    6.6113   -0.6860 H   0  0  0  0  0  0  0  0  0  0  0  0
   -0.1606    7.2099   -0.6860 H   0  0  0  0  0  0  0  0  0  0  0  0
  1  2  1  0
  2  3  1  0
  3  4  1  0
  4  5  1  0
  5  6  1  0
  6  7  1  0
  7  8  1  0
  7  9  1  0
  2 10  1  0
 10 11  1  0
 11 12  1  0
 12 13  1  0
 13 14  1  6
 13 15  1  0
 15 16  1  0
 16 17  1  0
 17 18  2  0
 18 19  1  0
 19 20  1  0
 20 21  1  0
 21 22  1  0
 22 23  1  0
 22 24  1  0
 24 25  1  0
 24 26  1  0
 19 27  1  0
 27 28  1  1
 27 29  1  0
 29 30  1  0
 30 31  1  0
 31 32  1  1
  7  5  1  0
 31 10  1  0
 31 13  1  0
 27 15  1  0
 24 18  1  0
  1 33  1  0
  1 34  1  0
  1 35  1  0
  2 36  1  6
  3 37  1  0
  3 38  1  0
  4 39  1  0
  4 40  1  0
  5 41  1  1
  8 42  1  0
  8 43  1  0
  8 44  1  0
  9 45  1  0
  9 46  1  0
  9 47  1  0
 10 48  1  6
 11 49  1  0
 11 50  1  0
 12 51  1  0
 12 52  1  0
 14 53  1  0
 14 54  1  0
 14 55  1  0
 15 56  1  1
 16 57  1  0
 16 58  1  0
 17 59  1  0
 19 60  1  6
 20 61  1  0
 20 62  1  0
 21 63  1  0
 21 64  1  0
 22 65  1  6
 23 66  1  0
 25 67  1  0
 25 68  1  0
 25 69  1  0
 26 70  1  0
 26 71  1  0
 26 72  1  0
 28 73  1  0
 28 74  1  0
 28 75  1  0
 29 76  1  0
 29 77  1  0
 30 78  1  0
 30 79  1  0
 32 80  1  0
 32 81  1  0
 32 82  1  0
M  END
>  <meeko>  (11) 
{"is_sidechain": [false], "intermolecular_energy": 2.731, "internal_energy": -0.839}

$$$$
EPH_relaxed_0001_pdb2pqr_Repair_31_r2_0001_out
     RDKit          3D

 82 86  0  0  0  0  0  0  0  0999 V2000
    0.4760   19.2380   -2.5460 C   0  0  0  0  0  0  0  0  0  0  0  0
    0.0570   18.2110   -1.4910 C   0  0  2  0  0  0  0  0  0  0  0  0
    0.7350   18.4680   -0.1300 C   0  0  0  0  0  0  0  0  0  0  0  0
    1.6740   19.6770   -0.1280 C   0  0  0  0  0  0  0  0  0  0  0  0
    2.6270   19.6370    1.0280 C   0  0  2  0  0  0  0  0  0  0  0  0
    3.9260   20.1780    0.7520 O   0  0  0  0  0  0  0  0  0  0  0  0
    3.8750   18.7740    1.0530 C   0  0  0  0  0  0  0  0  0  0  0  0
    4.2370   17.8910   -0.0990 C   0  0  0  0  0  0  0  0  0  0  0  0
    4.4740   18.4200    2.3790 C   0  0  0  0  0  0  0  0  0  0  0  0
    0.3820   16.8040   -1.9770 C   0  0  1  0  0  0  0  0  0  0  0  0
    1.6080   16.7690   -2.9290 C   0  0  0  0  0  0  0  0  0  0  0  0
    2.3540   15.4390   -2.6490 C   0  0  0  0  0  0  0  0  0  0  0  0
    1.3650   14.6090   -1.7960 C   0  0  1  0  0  0  0  0  0  0  0  0
    0.3750   13.9820   -2.8270 C   0  0  0  0  0  0  0  0  0  0  0  0
    1.9980   13.5210   -0.8690 C   0  0  2  0  0  0  0  0  0  0  0  0
    2.7580   12.4010   -1.6000 C   0  0  0  0  0  0  0  0  0  0  0  0
    1.9380   11.2090   -1.9680 C   0  0  0  0  0  0  0  0  0  0  0  0
    0.7190   10.9160   -1.4770 C   0  0  0  0  0  0  0  0  0  0  0  0
    0.0860   11.7760   -0.3760 C   0  0  1  0  0  0  0  0  0  0  0  0
   -0.4960   10.8570    0.7300 C   0  0  0  0  0  0  0  0  0  0  0  0
   -1.4620    9.8150    0.1760 C   0  0  0  0  0  0  0  0  0  0  0  0
   -0.7800    8.9410   -0.8740 C   0  0  2  0  0  0  0  0  0  0  0  0
    0.2290    8.1550   -0.2330 O   0  0  0  0  0  0  0  0  0  0  0  0
   -0.1470    9.7590   -2.0340 C   0  0  0  0  0  0  0  0  0  0  0  0
   -1.2670   10.3700   -2.9120 C   0  0  0  0  0  0  0  0  0  0  0  0
    0.6290    8.7710   -2.9460 C   0  0  0  0  0  0  0  0  0  0  0  0
    1.0030   12.9340    0.2130 C   0  0  1  0  0  0  0  0  0  0  0  0
    1.8840   12.3770    1.3720 C   0  0  0  0  0  0  0  0  0  0  0  0
    0.0850   14.0440    0.8470 C   0  0  0  0  0  0  0  0  0  0  0  0
   -0.4110   15.1580   -0.0950 C   0  0  0  0  0  0  0  0  0  0  0  0
    0.7490   15.7470   -0.9040 C   0  0  2  0  0  0  0  0  0  0  0  0
    1.7510   16.4050    0.1050 C   0  0  0  0  0  0  0  0  0  0  0  0
    0.8464   20.1458   -2.0472 H   0  0  0  0  0  0  0  0  0  0  0  0
    1.2730   18.8138   -3.1744 H   0  0  0  0  0  0  0  0  0  0  0  0
   -0.3902   19.4924   -3.1744 H   0  0  0  0  0  0  0  0  0  0  0  0
   -1.0285   18.3116   -1.3439 H   0  0  0  0  0  0  0  0  0  0  0  0
   -0.0496   18.6366    0.6223 H   0  0  0  0  0  0  0  0  0  0  0  0
    1.3495   17.5837    0.0947 H   0  0  0  0  0  0  0  0  0  0  0  0
    2.2502   19.6823   -1.0650 H   0  0  0  0  0  0  0  0  0  0  0  0
    1.0619   20.5863   -0.0364 H   0  0  0  0  0  0  0  0  0  0  0  0
    1.8013   19.7615    1.7440 H   0  0  0  0  0  0  0  0  0  0  0  0
    4.6287   16.9356    0.2802 H   0  0  0  0  0  0  0  0  0  0  0  0
    3.3432   17.7034   -0.7122 H   0  0  0  0  0  0  0  0  0  0  0  0
    5.0053   18.3847   -0.7122 H   0  0  0  0  0  0  0  0  0  0  0  0
    3.8301   18.8006    3.1856 H   0  0  0  0  0  0  0  0  0  0  0  0
    4.5590   17.3265    2.4627 H   0  0  0  0  0  0  0  0  0  0  0  0
    5.4729   18.8729    2.4627 H   0  0  0  0  0  0  0  0  0  0  0  0
   -0.5783   16.5453   -2.4470 H   0  0  0  0  0  0  0  0  0  0  0  0
    1.2750   16.8032   -3.9768 H   0  0  0  0  0  0  0  0  0  0  0  0
    2.2655   17.6342   -2.7581 H   0  0  0  0  0  0  0  0  0  0  0  0
    2.5868   14.9188   -3.5898 H   0  0  0  0  0  0  0  0  0  0  0  0
    3.3142   15.5991   -2.1368 H   0  0  0  0  0  0  0  0  0  0  0  0
   -0.4363   13.4682   -2.2906 H   0  0  0  0  0  0  0  0  0  0  0  0
   -0.0488   14.7767   -3.4585 H   0  0  0  0  0  0  0  0  0  0  0  0
    0.9124   13.2592   -3.4585 H   0  0  0  0  0  0  0  0  0  0  0  0
    2.7633   14.0926   -0.3234 H   0  0  0  0  0  0  0  0  0  0  0  0
    3.1784   12.8230   -2.5248 H   0  0  0  0  0  0  0  0  0  0  0  0
    3.5205   12.0397   -0.8942 H   0  0  0  0  0  0  0  0  0  0  0  0
    2.3660   10.5109   -2.7025 H   0  0  0  0  0  0  0  0  0  0  0  0
   -0.7265   12.3381   -0.8595 H   0  0  0  0  0  0  0  0  0  0  0  0
    0.3347   10.3373    1.2299 H   0  0  0  0  0  0  0  0  0  0  0  0
   -1.0565   11.4925    1.4314 H   0  0  0  0  0  0  0  0  0  0  0  0
   -1.8154    9.1778    1.0001 H   0  0  0  0  0  0  0  0  0  0  0  0
   -2.3070   10.3366   -0.2971 H   0  0  0  0  0  0  0  0  0  0  0  0
   -1.5535    8.3029   -1.3262 H   0  0  0  0  0  0  0  0  0  0  0  0
   -0.2000    7.3590    0.1250 H   0  0  0  0  0  0  0  0  0  0  0  0
   -2.0483   10.7962   -2.2655 H   0  0  0  0  0  0  0  0  0  0  0  0
   -0.8440   11.1623   -3.5470 H   0  0  0  0  0  0  0  0  0  0  0  0
   -1.7042    9.5854   -3.5470 H   0  0  0  0  0  0  0  0  0  0  0  0
    1.1886    8.0585   -2.3221 H   0  0  0  0  0  0  0  0  0  0  0  0
   -0.0822    8.2224   -3.5810 H   0  0  0  0  0  0  0  0  0  0  0  0
    1.3304    9.3320   -3.5810 H   0  0  0  0  0  0  0  0  0  0  0  0
    1.4395   12.6581    2.3381 H   0  0  0  0  0  0  0  0  0  0  0  0
    1.9372   11.2808    1.2979 H   0  0  0  0  0  0  0  0  0  0  0  0
    2.8971   12.7991    1.2979 H   0  0  0  0  0  0  0  0  0  0  0  0
   -0.8006   13.5439    1.2660 H   0  0  0  0  0  0  0  0  0  0  0  0
    0.7198   14.5542    1.5864 H   0  0  0  0  0  0  0  0  0  0  0  0
   -1.1564   14.7391   -0.7870 H   0  0  0  0  0  0  0  0  0  0  0  0
   -0.8578   15.9587    0.5126 H   0  0  0  0  0  0  0  0  0  0  0  0
    1.4272   16.1924    1.1346 H   0  0  0  0  0  0  0  0  0  0  0  0
    2.7576   15.9915   -0.0556 H   0  0  0  0  0  0  0  0  0  0  0  0
    1.7716   17.4930   -0.0556 H   0  0  0  0  0  0  0  0  0  0  0  0
  1  2  1  0
  2  3  1  0
  3  4  1  0
  4  5  1  0
  5  6  1  0
  6  7  1  0
  7  8  1  0
  7  9  1  0
  2 10  1  0
 10 11  1  0
 11 12  1  0
 12 13  1  0
 13 14  1  6
 13 15  1  0
 15 16  1  0
 16 17  1  0
 17 18  2  0
 18 19  1  0
 19 20  1  0
 20 21  1  0
 21 22  1  0
 22 23  1  0
 22 24  1  0
 24 25  1  0
 24 26  1  0
 19 27  1  0
 27 28  1  1
 27 29  1  0
 29 30  1  0
 30 31  1  0
 31 32  1  1
  7  5  1  0
 31 10  1  0
 31 13  1  0
 27 15  1  0
 24 18  1  0
  1 33  1  0
  1 34  1  0
  1 35  1  0
  2 36  1  1
  3 37  1  0
  3 38  1  0
  4 39  1  0
  4 40  1  0
  5 41  1  1
  8 42  1  0
  8 43  1  0
  8 44  1  0
  9 45  1  0
  9 46  1  0
  9 47  1  0
 10 48  1  6
 11 49  1  0
 11 50  1  0
 12 51  1  0
 12 52  1  0
 14 53  1  0
 14 54  1  0
 14 55  1  0
 15 56  1  1
 16 57  1  0
 16 58  1  0
 17 59  1  0
 19 60  1  6
 20 61  1  0
 20 62  1  0
 21 63  1  0
 21 64  1  0
 22 65  1  6
 23 66  1  0
 25 67  1  0
 25 68  1  0
 25 69  1  0
 26 70  1  0
 26 71  1  0
 26 72  1  0
 28 73  1  0
 28 74  1  0
 28 75  1  0
 29 76  1  0
 29 77  1  0
 30 78  1  0
 30 79  1  0
 32 80  1  0
 32 81  1  0
 32 82  1  0
M  END
>  <meeko>  (12) 
{"is_sidechain": [false], "intermolecular_energy": 2.731, "internal_energy": -0.839}

$$$$
EPH_relaxed_0001_pdb2pqr_Repair_31_r2_0001_out
     RDKit          3D

 82 86  0  0  0  0  0  0  0  0999 V2000
    0.9080   14.9560   -2.7480 C   0  0  0  0  0  0  0  0  0  0  0  0
    1.1740   14.2520   -4.0810 C   0  0  2  0  0  0  0  0  0  0  0  0
    0.4430   14.9330   -5.2540 C   0  0  0  0  0  0  0  0  0  0  0  0
    1.0420   14.6090   -6.6250 C   0  0  0  0  0  0  0  0  0  0  0  0
    0.8230   15.7240   -7.6040 C   0  0  2  0  0  0  0  0  0  0  0  0
    0.4140   15.3010   -8.9110 O   0  0  0  0  0  0  0  0  0  0  0  0
    1.6950   15.9480   -8.8250 C   0  0  0  0  0  0  0  0  0  0  0  0
    2.8520   15.0500   -9.1340 C   0  0  0  0  0  0  0  0  0  0  0  0
    1.7240   17.3110   -9.4430 C   0  0  0  0  0  0  0  0  0  0  0  0
    0.7590   12.7880   -3.9870 C   0  0  1  0  0  0  0  0  0  0  0  0
    1.9110   11.8150   -4.3550 C   0  0  0  0  0  0  0  0  0  0  0  0
    1.7490   10.5680   -3.4490 C   0  0  0  0  0  0  0  0  0  0  0  0
    0.3370   10.7130   -2.8340 C   0  0  1  0  0  0  0  0  0  0  0  0
   -0.6360   10.1930   -3.9390 C   0  0  0  0  0  0  0  0  0  0  0  0
    0.0990    9.9890   -1.4690 C   0  0  2  0  0  0  0  0  0  0  0  0
    0.2400    8.4570   -1.5100 C   0  0  0  0  0  0  0  0  0  0  0  0
   -1.0180    7.7090   -1.8050 C   0  0  0  0  0  0  0  0  0  0  0  0
   -2.2630    8.2180   -1.7470 C   0  0  0  0  0  0  0  0  0  0  0  0
   -2.5050    9.6530   -1.2600 C   0  0  1  0  0  0  0  0  0  0  0  0
   -3.6770    9.6630   -0.2440 C   0  0  0  0  0  0  0  0  0  0  0  0
   -4.9410    9.0150   -0.8010 C   0  0  0  0  0  0  0  0  0  0  0  0
   -4.6740    7.5710   -1.2210 C   0  0  2  0  0  0  0  0  0  0  0  0
   -4.3870    6.7970   -0.0520 O   0  0  0  0  0  0  0  0  0  0  0  0
   -3.5060    7.4350   -2.2370 C   0  0  0  0  0  0  0  0  0  0  0  0
   -3.9370    8.0150   -3.6070 C   0  0  0  0  0  0  0  0  0  0  0  0
   -3.2480    5.9210   -2.4680 C   0  0  0  0  0  0  0  0  0  0  0  0
   -1.2260   10.4280   -0.7240 C   0  0  1  0  0  0  0  0  0  0  0  0
   -1.0100   10.1180    0.7890 C   0  0  0  0  0  0  0  0  0  0  0  0
   -1.4840   11.9780   -0.8270 C   0  0  0  0  0  0  0  0  0  0  0  0
   -1.1180   12.6570   -2.1610 C   0  0  0  0  0  0  0  0  0  0  0  0
    0.2960   12.2670   -2.6040 C   0  0  2  0  0  0  0  0  0  0  0  0
    1.2990   12.7970   -1.5230 C   0  0  0  0  0  0  0  0  0  0  0  0
    1.1635   14.2798   -1.9188 H   0  0  0  0  0  0  0  0  0  0  0  0
    1.5249   15.8645   -2.6836 H   0  0  0  0  0  0  0  0  0  0  0  0
   -0.1555   15.2296   -2.6836 H   0  0  0  0  0  0  0  0  0  0  0  0
    2.2534   14.3205   -4.2817 H   0  0  0  0  0  0  0  0  0  0  0  0
   -0.6065   14.6036   -5.2471 H   0  0  0  0  0  0  0  0  0  0  0  0
    0.5436   16.0186   -5.1081 H   0  0  0  0  0  0  0  0  0  0  0  0
    2.1233   14.4420   -6.5111 H   0  0  0  0  0  0  0  0  0  0  0  0
    0.5426   13.7090   -7.0132 H   0  0  0  0  0  0  0  0  0  0  0  0
    0.4936   16.3978   -6.7993 H   0  0  0  0  0  0  0  0  0  0  0  0
    3.3045   14.6988   -8.1949 H   0  0  0  0  0  0  0  0  0  0  0  0
    2.5002   14.1861   -9.7171 H   0  0  0  0  0  0  0  0  0  0  0  0
    3.6015   15.6052   -9.7171 H   0  0  0  0  0  0  0  0  0  0  0  0
    1.7402   18.0730   -8.6498 H   0  0  0  0  0  0  0  0  0  0  0  0
    2.6245   17.4117  -10.0667 H   0  0  0  0  0  0  0  0  0  0  0  0
    0.8286   17.4499  -10.0667 H   0  0  0  0  0  0  0  0  0  0  0  0
   -0.0872   12.7916   -4.6899 H   0  0  0  0  0  0  0  0  0  0  0  0
    1.8391   11.5259   -5.4139 H   0  0  0  0  0  0  0  0  0  0  0  0
    2.8921   12.2888   -4.2034 H   0  0  0  0  0  0  0  0  0  0  0  0
    1.8210    9.6447   -4.0426 H   0  0  0  0  0  0  0  0  0  0  0  0
    2.5340   10.5056   -2.6810 H   0  0  0  0  0  0  0  0  0  0  0  0
   -1.5118    9.7250   -3.4657 H   0  0  0  0  0  0  0  0  0  0  0  0
   -0.9642   11.0360   -4.5649 H   0  0  0  0  0  0  0  0  0  0  0  0
   -0.1175    9.4517   -4.5649 H   0  0  0  0  0  0  0  0  0  0  0  0
    0.9411   10.3506   -0.8606 H   0  0  0  0  0  0  0  0  0  0  0  0
    0.9762    8.2040   -2.2872 H   0  0  0  0  0  0  0  0  0  0  0  0
    0.5455    8.1521   -0.4982 H   0  0  0  0  0  0  0  0  0  0  0  0
   -0.9192    6.6523   -2.0943 H   0  0  0  0  0  0  0  0  0  0  0  0
   -2.7788   10.2355   -2.1520 H   0  0  0  0  0  0  0  0  0  0  0  0
   -3.3670    9.1135    0.6571 H   0  0  0  0  0  0  0  0  0  0  0  0
   -3.9128   10.7132   -0.0173 H   0  0  0  0  0  0  0  0  0  0  0  0
   -5.7225    9.0262   -0.0269 H   0  0  0  0  0  0  0  0  0  0  0  0
   -5.2670    9.5833   -1.6846 H   0  0  0  0  0  0  0  0  0  0  0  0
   -5.5770    7.2027   -1.7299 H   0  0  0  0  0  0  0  0  0  0  0  0
   -4.1590    5.8980   -0.3430 H   0  0  0  0  0  0  0  0  0  0  0  0
   -4.5862    8.8886   -3.4475 H   0  0  0  0  0  0  0  0  0  0  0  0
   -3.0446    8.3199   -4.1732 H   0  0  0  0  0  0  0  0  0  0  0  0
   -4.4864    7.2485   -4.1732 H   0  0  0  0  0  0  0  0  0  0  0  0
   -3.1612    5.4115   -1.4970 H   0  0  0  0  0  0  0  0  0  0  0  0
   -4.0854    5.4887   -3.0353 H   0  0  0  0  0  0  0  0  0  0  0  0
   -2.3147    5.7905   -3.0353 H   0  0  0  0  0  0  0  0  0  0  0  0
   -1.5344   10.8707    1.3960 H   0  0  0  0  0  0  0  0  0  0  0  0
   -1.4085    9.1189    1.0191 H   0  0  0  0  0  0  0  0  0  0  0  0
    0.0653   10.1458    1.0191 H   0  0  0  0  0  0  0  0  0  0  0  0
   -2.5560   12.1492   -0.6498 H   0  0  0  0  0  0  0  0  0  0  0  0
   -0.8147   12.4310   -0.0808 H   0  0  0  0  0  0  0  0  0  0  0  0
   -1.8363   12.3442   -2.9331 H   0  0  0  0  0  0  0  0  0  0  0  0
   -1.1540   13.7475   -2.0214 H   0  0  0  0  0  0  0  0  0  0  0  0
    0.9011   12.5868   -0.5193 H   0  0  0  0  0  0  0  0  0  0  0  0
    2.2696   12.2940   -1.6455 H   0  0  0  0  0  0  0  0  0  0  0  0
    1.4304   13.8822   -1.6455 H   0  0  0  0  0  0  0  0  0  0  0  0
  1  2  1  0
  2  3  1  0
  3  4  1  0
  4  5  1  0
  5  6  1  0
  6  7  1  0
  7  8  1  0
  7  9  1  0
  2 10  1  0
 10 11  1  0
 11 12  1  0
 12 13  1  0
 13 14  1  6
 13 15  1  0
 15 16  1  0
 16 17  1  0
 17 18  2  0
 18 19  1  0
 19 20  1  0
 20 21  1  0
 21 22  1  0
 22 23  1  0
 22 24  1  0
 24 25  1  0
 24 26  1  0
 19 27  1  0
 27 28  1  1
 27 29  1  0
 29 30  1  0
 30 31  1  0
 31 32  1  1
  7  5  1  0
 31 10  1  0
 31 13  1  0
 27 15  1  0
 24 18  1  0
  1 33  1  0
  1 34  1  0
  1 35  1  0
  2 36  1  6
  3 37  1  0
  3 38  1  0
  4 39  1  0
  4 40  1  0
  5 41  1  1
  8 42  1  0
  8 43  1  0
  8 44  1  0
  9 45  1  0
  9 46  1  0
  9 47  1  0
 10 48  1  6
 11 49  1  0
 11 50  1  0
 12 51  1  0
 12 52  1  0
 14 53  1  0
 14 54  1  0
 14 55  1  0
 15 56  1  1
 16 57  1  0
 16 58  1  0
 17 59  1  0
 19 60  1  6
 20 61  1  0
 20 62  1  0
 21 63  1  0
 21 64  1  0
 22 65  1  6
 23 66  1  0
 25 67  1  0
 25 68  1  0
 25 69  1  0
 26 70  1  0
 26 71  1  0
 26 72  1  0
 28 73  1  0
 28 74  1  0
 28 75  1  0
 29 76  1  0
 29 77  1  0
 30 78  1  0
 30 79  1  0
 32 80  1  0
 32 81  1  0
 32 82  1  0
M  END
>  <meeko>  (13) 
{"is_sidechain": [false], "intermolecular_energy": 2.731, "internal_energy": -0.839}

$$$$
EPH_relaxed_0001_pdb2pqr_Repair_31_r2_0001_out
     RDKit          3D

 82 86  0  0  0  0  0  0  0  0999 V2000
   -2.2710    7.8200   -2.2060 C   0  0  0  0  0  0  0  0  0  0  0  0
   -2.2460    8.4350   -0.8030 C   0  0  2  0  0  0  0  0  0  0  0  0
   -3.6370    8.4210   -0.1380 C   0  0  0  0  0  0  0  0  0  0  0  0
   -4.7970    8.4680   -1.1360 C   0  0  0  0  0  0  0  0  0  0  0  0
   -5.7930    7.3790   -0.8790 C   0  0  2  0  0  0  0  0  0  0  0  0
   -5.2810    6.0490   -1.0370 O   0  0  0  0  0  0  0  0  0  0  0  0
   -6.3100    6.4460   -1.9590 C   0  0  0  0  0  0  0  0  0  0  0  0
   -5.8450    6.5600   -3.3770 C   0  0  0  0  0  0  0  0  0  0  0  0
   -7.6170    5.7510   -1.7390 C   0  0  0  0  0  0  0  0  0  0  0  0
   -1.7140    9.8620   -0.8710 C   0  0  1  0  0  0  0  0  0  0  0  0
   -1.2780   10.4030    0.5170 C   0  0  0  0  0  0  0  0  0  0  0  0
   -0.0530   11.3210    0.2730 C   0  0  0  0  0  0  0  0  0  0  0  0
   -0.0300   11.5430   -1.2570 C   0  0  1  0  0  0  0  0  0  0  0  0
   -1.0820   12.6670   -1.5150 C   0  0  0  0  0  0  0  0  0  0  0  0
    1.3580   11.8980   -1.8830 C   0  0  2  0  0  0  0  0  0  0  0  0
    1.9780   13.2180   -1.3910 C   0  0  0  0  0  0  0  0  0  0  0  0
    1.6230   14.4260   -2.1930 C   0  0  0  0  0  0  0  0  0  0  0  0
    1.0750   14.4160   -3.4220 C   0  0  0  0  0  0  0  0  0  0  0  0
    0.8460   13.0980   -4.1720 C   0  0  1  0  0  0  0  0  0  0  0  0
    1.3450   13.2400   -5.6340 C   0  0  0  0  0  0  0  0  0  0  0  0
    0.7230   14.4340   -6.3510 C   0  0  0  0  0  0  0  0  0  0  0  0
    1.0210   15.7330   -5.6060 C   0  0  2  0  0  0  0  0  0  0  0  0
    2.4260   15.9940   -5.6790 O   0  0  0  0  0  0  0  0  0  0  0  0
    0.5710   15.7040   -4.1190 C   0  0  0  0  0  0  0  0  0  0  0  0
   -0.9760   15.7250   -4.0420 C   0  0  0  0  0  0  0  0  0  0  0  0
    1.0560   17.0170   -3.4470 C   0  0  0  0  0  0  0  0  0  0  0  0
    1.4040   11.7900   -3.4610 C   0  0  1  0  0  0  0  0  0  0  0  0
    2.8990   11.5700   -3.8490 C   0  0  0  0  0  0  0  0  0  0  0  0
    0.6170   10.5370   -3.9990 C   0  0  0  0  0  0  0  0  0  0  0  0
   -0.6850   10.1670   -3.2630 C   0  0  0  0  0  0  0  0  0  0  0  0
   -0.4630   10.1140   -1.7480 C   0  0  2  0  0  0  0  0  0  0  0  0
    0.5750    8.9780   -1.4560 C   0  0  0  0  0  0  0  0  0  0  0  0
   -2.3156    6.7239   -2.1251 H   0  0  0  0  0  0  0  0  0  0  0  0
   -3.1551    8.1838   -2.7501 H   0  0  0  0  0  0  0  0  0  0  0  0
   -1.3603    8.1108   -2.7501 H   0  0  0  0  0  0  0  0  0  0  0  0
   -1.5784    7.8189   -0.1828 H   0  0  0  0  0  0  0  0  0  0  0  0
   -3.7281    7.5004    0.4572 H   0  0  0  0  0  0  0  0  0  0  0  0
   -3.7072    9.3287    0.4793 H   0  0  0  0  0  0  0  0  0  0  0  0
   -5.3025    9.4412   -1.0496 H   0  0  0  0  0  0  0  0  0  0  0  0
   -4.3862    8.3257   -2.1464 H   0  0  0  0  0  0  0  0  0  0  0  0
   -6.3083    7.9956   -0.1278 H   0  0  0  0  0  0  0  0  0  0  0  0
   -4.7767    6.8219   -3.3926 H   0  0  0  0  0  0  0  0  0  0  0  0
   -5.9944    5.5986   -3.8903 H   0  0  0  0  0  0  0  0  0  0  0  0
   -6.4221    7.3433   -3.8903 H   0  0  0  0  0  0  0  0  0  0  0  0
   -7.8026    5.6523   -0.6593 H   0  0  0  0  0  0  0  0  0  0  0  0
   -8.4262    6.3379   -2.1980 H   0  0  0  0  0  0  0  0  0  0  0  0
   -7.5829    4.7519   -2.1980 H   0  0  0  0  0  0  0  0  0  0  0  0
   -2.5883   10.3640   -1.3111 H   0  0  0  0  0  0  0  0  0  0  0  0
   -2.0971   10.9775    0.9742 H   0  0  0  0  0  0  0  0  0  0  0  0
   -1.0250    9.5794    1.2008 H   0  0  0  0  0  0  0  0  0  0  0  0
   -0.1732   12.2777    0.8024 H   0  0  0  0  0  0  0  0  0  0  0  0
    0.8821   10.8759    0.6439 H   0  0  0  0  0  0  0  0  0  0  0  0
   -1.4462   13.0562   -0.5528 H   0  0  0  0  0  0  0  0  0  0  0  0
   -0.6148   13.4822   -2.0870 H   0  0  0  0  0  0  0  0  0  0  0  0
   -1.9263   12.2547   -2.0870 H   0  0  0  0  0  0  0  0  0  0  0  0
    2.0049   11.1000   -1.4896 H   0  0  0  0  0  0  0  0  0  0  0  0
    1.6435   13.3861   -0.3567 H   0  0  0  0  0  0  0  0  0  0  0  0
    3.0672   13.0976   -1.4871 H   0  0  0  0  0  0  0  0  0  0  0  0
    1.8267   15.4079   -1.7409 H   0  0  0  0  0  0  0  0  0  0  0  0
   -0.2408   12.9285   -4.1638 H   0  0  0  0  0  0  0  0  0  0  0  0
    2.4378   13.3654   -5.6230 H   0  0  0  0  0  0  0  0  0  0  0  0
    1.0472   12.3316   -6.1781 H   0  0  0  0  0  0  0  0  0  0  0  0
    1.1371   14.4990   -7.3680 H   0  0  0  0  0  0  0  0  0  0  0  0
   -0.3672   14.2925   -6.3882 H   0  0  0  0  0  0  0  0  0  0  0  0
    0.4426   16.5323   -6.0923 H   0  0  0  0  0  0  0  0  0  0  0  0
    2.6420   16.1850   -6.6070 H   0  0  0  0  0  0  0  0  0  0  0  0
   -1.2906   15.7293   -2.9880 H   0  0  0  0  0  0  0  0  0  0  0  0
   -1.3558   16.6284   -4.5417 H   0  0  0  0  0  0  0  0  0  0  0  0
   -1.3801   14.8323   -4.5417 H   0  0  0  0  0  0  0  0  0  0  0  0
    1.0150   16.9060   -2.3534 H   0  0  0  0  0  0  0  0  0  0  0  0
    2.0908   17.2264   -3.7558 H   0  0  0  0  0  0  0  0  0  0  0  0
    0.4058   17.8488   -3.7558 H   0  0  0  0  0  0  0  0  0  0  0  0
    3.5055   11.4807   -2.9357 H   0  0  0  0  0  0  0  0  0  0  0  0
    2.9920   10.6485   -4.4424 H   0  0  0  0  0  0  0  0  0  0  0  0
    3.2535   12.4256   -4.4424 H   0  0  0  0  0  0  0  0  0  0  0  0
    0.3611   10.7311   -5.0511 H   0  0  0  0  0  0  0  0  0  0  0  0
    1.2912    9.6827   -3.8391 H   0  0  0  0  0  0  0  0  0  0  0  0
   -1.4525   10.9222   -3.4879 H   0  0  0  0  0  0  0  0  0  0  0  0
   -1.0105    9.1733   -3.6046 H   0  0  0  0  0  0  0  0  0  0  0  0
    0.6876    8.8548   -0.3687 H   0  0  0  0  0  0  0  0  0  0  0  0
    0.2202    8.0349   -1.8971 H   0  0  0  0  0  0  0  0  0  0  0  0
    1.5462    9.2465   -1.8971 H   0  0  0  0  0  0  0  0  0  0  0  0
  1  2  1  0
  2  3  1  0
  3  4  1  0
  4  5  1  0
  5  6  1  0
  6  7  1  0
  7  8  1  0
  7  9  1  0
  2 10  1  0
 10 11  1  0
 11 12  1  0
 12 13  1  0
 13 14  1  1
 13 15  1  0
 15 16  1  0
 16 17  1  0
 17 18  2  0
 18 19  1  0
 19 20  1  0
 20 21  1  0
 21 22  1  0
 22 23  1  0
 22 24  1  0
 24 25  1  0
 24 26  1  0
 19 27  1  0
 27 28  1  6
 27 29  1  0
 29 30  1  0
 30 31  1  0
 31 32  1  6
  7  5  1  0
 31 10  1  0
 31 13  1  0
 27 15  1  0
 24 18  1  0
  1 33  1  0
  1 34  1  0
  1 35  1  0
  2 36  1  1
  3 37  1  0
  3 38  1  0
  4 39  1  0
  4 40  1  0
  5 41  1  1
  8 42  1  0
  8 43  1  0
  8 44  1  0
  9 45  1  0
  9 46  1  0
  9 47  1  0
 10 48  1  6
 11 49  1  0
 11 50  1  0
 12 51  1  0
 12 52  1  0
 14 53  1  0
 14 54  1  0
 14 55  1  0
 15 56  1  1
 16 57  1  0
 16 58  1  0
 17 59  1  0
 19 60  1  6
 20 61  1  0
 20 62  1  0
 21 63  1  0
 21 64  1  0
 22 65  1  6
 23 66  1  0
 25 67  1  0
 25 68  1  0
 25 69  1  0
 26 70  1  0
 26 71  1  0
 26 72  1  0
 28 73  1  0
 28 74  1  0
 28 75  1  0
 29 76  1  0
 29 77  1  0
 30 78  1  0
 30 79  1  0
 32 80  1  0
 32 81  1  0
 32 82  1  0
M  END
>  <meeko>  (14) 
{"is_sidechain": [false], "intermolecular_energy": 2.731, "internal_energy": -0.839}

$$$$
EPH_relaxed_0001_pdb2pqr_Repair_31_r2_0001_out
     RDKit          3D

 82 86  0  0  0  0  0  0  0  0999 V2000
    0.0050    9.3520   -4.1920 C   0  0  0  0  0  0  0  0  0  0  0  0
    0.1410    9.5540   -2.6800 C   0  0  2  0  0  0  0  0  0  0  0  0
   -0.6680    8.5130   -1.8800 C   0  0  0  0  0  0  0  0  0  0  0  0
   -2.1760    8.5720   -2.1420 C   0  0  0  0  0  0  0  0  0  0  0  0
   -2.7170    7.2400   -2.5630 C   0  0  2  0  0  0  0  0  0  0  0  0
   -3.8470    7.3040   -3.4440 O   0  0  0  0  0  0  0  0  0  0  0  0
   -4.0830    6.7240   -2.1510 C   0  0  0  0  0  0  0  0  0  0  0  0
   -4.9920    7.5320   -1.2790 C   0  0  0  0  0  0  0  0  0  0  0  0
   -4.3320    5.2480   -2.1890 C   0  0  0  0  0  0  0  0  0  0  0  0
   -0.3040   10.9620   -2.3020 C   0  0  1  0  0  0  0  0  0  0  0  0
   -1.5220   10.9660   -1.3410 C   0  0  0  0  0  0  0  0  0  0  0  0
   -1.3350   12.1740   -0.3870 C   0  0  0  0  0  0  0  0  0  0  0  0
   -0.2060   13.0100   -1.0330 C   0  0  1  0  0  0  0  0  0  0  0  0
   -0.9120   13.8410   -2.1510 C   0  0  0  0  0  0  0  0  0  0  0  0
    0.6160   13.9240   -0.0670 C   0  0  2  0  0  0  0  0  0  0  0  0
   -0.1940   15.0270    0.6350 C   0  0  0  0  0  0  0  0  0  0  0  0
   -0.2580   16.3310   -0.0900 C   0  0  0  0  0  0  0  0  0  0  0  0
    0.5390   16.6980   -1.1110 C   0  0  0  0  0  0  0  0  0  0  0  0
    1.6940   15.7990   -1.5710 C   0  0  1  0  0  0  0  0  0  0  0  0
    2.9740   16.6560   -1.7540 C   0  0  0  0  0  0  0  0  0  0  0  0
    2.7550   17.8450   -2.6840 C   0  0  0  0  0  0  0  0  0  0  0  0
    1.6380   18.7460   -2.1620 C   0  0  2  0  0  0  0  0  0  0  0  0
    2.0680   19.3510   -0.9390 O   0  0  0  0  0  0  0  0  0  0  0  0
    0.3000   17.9910   -1.9290 C   0  0  0  0  0  0  0  0  0  0  0  0
   -0.3190   17.5950   -3.2930 C   0  0  0  0  0  0  0  0  0  0  0  0
   -0.6990   18.9800   -1.2700 C   0  0  0  0  0  0  0  0  0  0  0  0
    1.9500   14.4970   -0.6960 C   0  0  1  0  0  0  0  0  0  0  0  0
    2.8960   14.8350    0.4960 C   0  0  0  0  0  0  0  0  0  0  0  0
    2.7060   13.4300   -1.5730 C   0  0  0  0  0  0  0  0  0  0  0  0
    1.8330   12.4780   -2.4140 C   0  0  0  0  0  0  0  0  0  0  0  0
    0.7220   11.8570   -1.5620 C   0  0  2  0  0  0  0  0  0  0  0  0
    1.4010   10.9970   -0.4430 C   0  0  0  0  0  0  0  0  0  0  0  0
   -0.5994    8.4543   -4.3891 H   0  0  0  0  0  0  0  0  0  0  0  0
   -0.4867   10.2299   -4.6365 H   0  0  0  0  0  0  0  0  0  0  0  0
    1.0034    9.2267   -4.6365 H   0  0  0  0  0  0  0  0  0  0  0  0
    1.2015    9.4172   -2.4217 H   0  0  0  0  0  0  0  0  0  0  0  0
   -0.3073    7.5098   -2.1511 H   0  0  0  0  0  0  0  0  0  0  0  0
   -0.5177    8.7389   -0.8140 H   0  0  0  0  0  0  0  0  0  0  0  0
   -2.6860    8.8889   -1.2203 H   0  0  0  0  0  0  0  0  0  0  0  0
   -2.3549    9.2884   -2.9573 H   0  0  0  0  0  0  0  0  0  0  0  0
   -1.7138    6.7912   -2.5164 H   0  0  0  0  0  0  0  0  0  0  0  0
   -4.7631    7.3285   -0.2225 H   0  0  0  0  0  0  0  0  0  0  0  0
   -4.8439    8.6020   -1.4868 H   0  0  0  0  0  0  0  0  0  0  0  0
   -6.0372    7.2594   -1.4868 H   0  0  0  0  0  0  0  0  0  0  0  0
   -4.3974    4.8606   -1.1615 H   0  0  0  0  0  0  0  0  0  0  0  0
   -5.2764    5.0489   -2.7167 H   0  0  0  0  0  0  0  0  0  0  0  0
   -3.5052    4.7501   -2.7167 H   0  0  0  0  0  0  0  0  0  0  0  0
   -0.5036   11.3678   -3.3047 H   0  0  0  0  0  0  0  0  0  0  0  0
   -2.4553   11.0758   -1.9128 H   0  0  0  0  0  0  0  0  0  0  0  0
   -1.5835   10.0234   -0.7774 H   0  0  0  0  0  0  0  0  0  0  0  0
   -2.2624   12.7615   -0.3180 H   0  0  0  0  0  0  0  0  0  0  0  0
   -1.0882   11.8615    0.6384 H   0  0  0  0  0  0  0  0  0  0  0  0
   -1.5585   14.6019   -1.6894 H   0  0  0  0  0  0  0  0  0  0  0  0
   -0.1529   14.3347   -2.7756 H   0  0  0  0  0  0  0  0  0  0  0  0
   -1.5219   13.1717   -2.7756 H   0  0  0  0  0  0  0  0  0  0  0  0
    0.9130   13.2221    0.7262 H   0  0  0  0  0  0  0  0  0  0  0  0
   -1.2228   14.6610    0.7676 H   0  0  0  0  0  0  0  0  0  0  0  0
    0.3267   15.2308    1.5823 H   0  0  0  0  0  0  0  0  0  0  0  0
   -1.0208   17.0526    0.2379 H   0  0  0  0  0  0  0  0  0  0  0  0
    1.3856   15.3770   -2.5389 H   0  0  0  0  0  0  0  0  0  0  0  0
    3.2901   17.0320   -0.7698 H   0  0  0  0  0  0  0  0  0  0  0  0
    3.7429   16.0141   -2.2088 H   0  0  0  0  0  0  0  0  0  0  0  0
    3.6861   18.4270   -2.7500 H   0  0  0  0  0  0  0  0  0  0  0  0
    2.4673   17.4671   -3.6762 H   0  0  0  0  0  0  0  0  0  0  0  0
    1.4392   19.5052   -2.9328 H   0  0  0  0  0  0  0  0  0  0  0  0
    2.9470   19.7370   -1.0940 H   0  0  0  0  0  0  0  0  0  0  0  0
   -1.2346   17.0093   -3.1239 H   0  0  0  0  0  0  0  0  0  0  0  0
   -0.5649   18.5039   -3.8617 H   0  0  0  0  0  0  0  0  0  0  0  0
    0.4031   16.9907   -3.8617 H   0  0  0  0  0  0  0  0  0  0  0  0
   -0.6221   18.9039   -0.1753 H   0  0  0  0  0  0  0  0  0  0  0  0
   -0.4595   20.0067   -1.5839 H   0  0  0  0  0  0  0  0  0  0  0  0
   -1.7232   18.7302   -1.5839 H   0  0  0  0  0  0  0  0  0  0  0  0
    2.3717   14.6477    1.4447 H   0  0  0  0  0  0  0  0  0  0  0  0
    3.7941   14.2021    0.4422 H   0  0  0  0  0  0  0  0  0  0  0  0
    3.1897   15.8937    0.4422 H   0  0  0  0  0  0  0  0  0  0  0  0
    3.3659   13.9746   -2.2644 H   0  0  0  0  0  0  0  0  0  0  0  0
    3.2272   12.7822   -0.8528 H   0  0  0  0  0  0  0  0  0  0  0  0
    1.3789   13.0428   -3.2415 H   0  0  0  0  0  0  0  0  0  0  0  0
    2.4698   11.6700   -2.8033 H   0  0  0  0  0  0  0  0  0  0  0  0
    1.1008   11.3772    0.5446 H   0  0  0  0  0  0  0  0  0  0  0  0
    1.0846    9.9483   -0.5438 H   0  0  0  0  0  0  0  0  0  0  0  0
    2.4945   11.0614   -0.5438 H   0  0  0  0  0  0  0  0  0  0  0  0
  1  2  1  0
  2  3  1  0
  3  4  1  0
  4  5  1  0
  5  6  1  0
  6  7  1  0
  7  8  1  0
  7  9  1  0
  2 10  1  0
 10 11  1  0
 11 12  1  0
 12 13  1  0
 13 14  1  6
 13 15  1  0
 15 16  1  0
 16 17  1  0
 17 18  2  0
 18 19  1  0
 19 20  1  0
 20 21  1  0
 21 22  1  0
 22 23  1  0
 22 24  1  0
 24 25  1  0
 24 26  1  0
 19 27  1  0
 27 28  1  1
 27 29  1  0
 29 30  1  0
 30 31  1  0
 31 32  1  1
  7  5  1  0
 31 10  1  0
 31 13  1  0
 27 15  1  0
 24 18  1  0
  1 33  1  0
  1 34  1  0
  1 35  1  0
  2 36  1  1
  3 37  1  0
  3 38  1  0
  4 39  1  0
  4 40  1  0
  5 41  1  6
  8 42  1  0
  8 43  1  0
  8 44  1  0
  9 45  1  0
  9 46  1  0
  9 47  1  0
 10 48  1  6
 11 49  1  0
 11 50  1  0
 12 51  1  0
 12 52  1  0
 14 53  1  0
 14 54  1  0
 14 55  1  0
 15 56  1  1
 16 57  1  0
 16 58  1  0
 17 59  1  0
 19 60  1  6
 20 61  1  0
 20 62  1  0
 21 63  1  0
 21 64  1  0
 22 65  1  6
 23 66  1  0
 25 67  1  0
 25 68  1  0
 25 69  1  0
 26 70  1  0
 26 71  1  0
 26 72  1  0
 28 73  1  0
 28 74  1  0
 28 75  1  0
 29 76  1  0
 29 77  1  0
 30 78  1  0
 30 79  1  0
 32 80  1  0
 32 81  1  0
 32 82  1  0
M  END
>  <meeko>  (15) 
{"is_sidechain": [false], "intermolecular_energy": 2.731, "internal_energy": -0.839}

$$$$
EPH_relaxed_0001_pdb2pqr_Repair_31_r2_0001_out
     RDKit          3D

 82 86  0  0  0  0  0  0  0  0999 V2000
    1.2390   14.7410   -5.4200 C   0  0  0  0  0  0  0  0  0  0  0  0
    0.5810   14.4180   -4.0750 C   0  0  2  0  0  0  0  0  0  0  0  0
    1.4610   14.8400   -2.8820 C   0  0  0  0  0  0  0  0  0  0  0  0
    1.2800   16.3040   -2.4700 C   0  0  0  0  0  0  0  0  0  0  0  0
    1.9210   16.5910   -1.1460 C   0  0  2  0  0  0  0  0  0  0  0  0
    1.0470   17.1800   -0.1740 O   0  0  0  0  0  0  0  0  0  0  0  0
    2.1470   17.9930   -0.6130 C   0  0  0  0  0  0  0  0  0  0  0  0
    1.7360   19.2010   -1.3950 C   0  0  0  0  0  0  0  0  0  0  0  0
    3.1980   18.2000    0.4330 C   0  0  0  0  0  0  0  0  0  0  0  0
    0.2710   12.9280   -3.9930 C   0  0  1  0  0  0  0  0  0  0  0  0
    1.4780   12.0440   -4.4040 C   0  0  0  0  0  0  0  0  0  0  0  0
    1.4270   10.7760   -3.5130 C   0  0  0  0  0  0  0  0  0  0  0  0
    0.0260   10.8140   -2.8600 C   0  0  1  0  0  0  0  0  0  0  0  0
   -0.9380   10.2420   -3.9470 C   0  0  0  0  0  0  0  0  0  0  0  0
   -0.1240   10.0570   -1.5000 C   0  0  2  0  0  0  0  0  0  0  0  0
    0.1220    8.5400   -1.5670 C   0  0  0  0  0  0  0  0  0  0  0  0
   -1.0880    7.7090   -1.8410 C   0  0  0  0  0  0  0  0  0  0  0  0
   -2.3630    8.1290   -1.7440 C   0  0  0  0  0  0  0  0  0  0  0  0
   -2.6920    9.5360   -1.2290 C   0  0  1  0  0  0  0  0  0  0  0  0
   -3.8340    9.4510   -0.1820 C   0  0  0  0  0  0  0  0  0  0  0  0
   -5.0640    8.7230   -0.7160 C   0  0  0  0  0  0  0  0  0  0  0  0
   -4.7080    7.3080   -1.1640 C   0  0  2  0  0  0  0  0  0  0  0  0
   -4.3370    6.5400   -0.0150 O   0  0  0  0  0  0  0  0  0  0  0  0
   -3.5610    7.2670   -2.2120 C   0  0  0  0  0  0  0  0  0  0  0  0
   -4.0690    7.8330   -3.5620 C   0  0  0  0  0  0  0  0  0  0  0  0
   -3.2050    5.7780   -2.4730 C   0  0  0  0  0  0  0  0  0  0  0  0
   -1.4560   10.3930   -0.7150 C   0  0  1  0  0  0  0  0  0  0  0  0
   -1.1780   10.0780    0.7870 C   0  0  0  0  0  0  0  0  0  0  0  0
   -1.8240   11.9220   -0.7870 C   0  0  0  0  0  0  0  0  0  0  0  0
   -1.5420   12.6420   -2.1200 C   0  0  0  0  0  0  0  0  0  0  0  0
   -0.1170   12.3580   -2.6060 C   0  0  2  0  0  0  0  0  0  0  0  0
    0.8750   12.9420   -1.5430 C   0  0  0  0  0  0  0  0  0  0  0  0
    2.2140   15.2196   -5.2457 H   0  0  0  0  0  0  0  0  0  0  0  0
    1.3835   13.8114   -5.9901 H   0  0  0  0  0  0  0  0  0  0  0  0
    0.5920   15.4239   -5.9901 H   0  0  0  0  0  0  0  0  0  0  0  0
   -0.3532   14.9958   -4.0161 H   0  0  0  0  0  0  0  0  0  0  0  0
    1.2077   14.2033   -2.0215 H   0  0  0  0  0  0  0  0  0  0  0  0
    2.5081   14.7224   -3.1978 H   0  0  0  0  0  0  0  0  0  0  0  0
    1.7377   16.9487   -3.2348 H   0  0  0  0  0  0  0  0  0  0  0  0
    0.2021   16.5038   -2.3794 H   0  0  0  0  0  0  0  0  0  0  0  0
    2.5924   15.7267   -1.2563 H   0  0  0  0  0  0  0  0  0  0  0  0
    1.4608   20.0100   -0.7023 H   0  0  0  0  0  0  0  0  0  0  0  0
    2.5729   19.5297   -2.0287 H   0  0  0  0  0  0  0  0  0  0  0  0
    0.8723   18.9512   -2.0287 H   0  0  0  0  0  0  0  0  0  0  0  0
    2.7445   18.1107    1.4312 H   0  0  0  0  0  0  0  0  0  0  0  0
    3.9844   17.4395    0.3182 H   0  0  0  0  0  0  0  0  0  0  0  0
    3.6373   19.2019    0.3182 H   0  0  0  0  0  0  0  0  0  0  0  0
   -0.5917   12.8809   -4.6738 H   0  0  0  0  0  0  0  0  0  0  0  0
    1.3993   11.7649   -5.4651 H   0  0  0  0  0  0  0  0  0  0  0  0
    2.4270   12.5836   -4.2694 H   0  0  0  0  0  0  0  0  0  0  0  0
    1.5469    9.8681   -4.1224 H   0  0  0  0  0  0  0  0  0  0  0  0
    2.2347   10.7580   -2.7665 H   0  0  0  0  0  0  0  0  0  0  0  0
   -1.7853    9.7393   -3.4577 H   0  0  0  0  0  0  0  0  0  0  0  0
   -1.3122   11.0643   -4.5745 H   0  0  0  0  0  0  0  0  0  0  0  0
   -0.3956    9.5195   -4.5745 H   0  0  0  0  0  0  0  0  0  0  0  0
    0.7073   10.4679   -0.9083 H   0  0  0  0  0  0  0  0  0  0  0  0
    0.8534    8.3493   -2.3662 H   0  0  0  0  0  0  0  0  0  0  0  0
    0.4742    8.2444   -0.5677 H   0  0  0  0  0  0  0  0  0  0  0  0
   -0.9234    6.6656   -2.1480 H   0  0  0  0  0  0  0  0  0  0  0  0
   -3.0307   10.1084   -2.1051 H   0  0  0  0  0  0  0  0  0  0  0  0
   -3.4622    8.9131    0.7025 H   0  0  0  0  0  0  0  0  0  0  0  0
   -4.1362   10.4790    0.0669 H   0  0  0  0  0  0  0  0  0  0  0  0
   -5.8234    8.6690    0.0780 H   0  0  0  0  0  0  0  0  0  0  0  0
   -5.4525    9.2785   -1.5823 H   0  0  0  0  0  0  0  0  0  0  0  0
   -5.5966    6.8846   -1.6550 H   0  0  0  0  0  0  0  0  0  0  0  0
   -3.7360    5.8370   -0.3120 H   0  0  0  0  0  0  0  0  0  0  0  0
   -4.7927    8.6394   -3.3724 H   0  0  0  0  0  0  0  0  0  0  0  0
   -3.2190    8.2306   -4.1360 H   0  0  0  0  0  0  0  0  0  0  0  0
   -4.5559    7.0308   -4.1360 H   0  0  0  0  0  0  0  0  0  0  0  0
   -3.0804    5.2569   -1.5123 H   0  0  0  0  0  0  0  0  0  0  0  0
   -4.0147    5.3024   -3.0458 H   0  0  0  0  0  0  0  0  0  0  0  0
   -2.2677    5.7201   -3.0458 H   0  0  0  0  0  0  0  0  0  0  0  0
   -1.7735   10.7528    1.4195 H   0  0  0  0  0  0  0  0  0  0  0  0
   -1.4556    9.0352    1.0004 H   0  0  0  0  0  0  0  0  0  0  0  0
   -0.1088   10.2238    1.0004 H   0  0  0  0  0  0  0  0  0  0  0  0
   -2.9002   12.0155   -0.5793 H   0  0  0  0  0  0  0  0  0  0  0  0
   -1.1686   12.4110   -0.0512 H   0  0  0  0  0  0  0  0  0  0  0  0
   -2.2575   12.2897   -2.8776 H   0  0  0  0  0  0  0  0  0  0  0  0
   -1.6496   13.7254   -1.9630 H   0  0  0  0  0  0  0  0  0  0  0  0
    0.5008   12.7217   -0.5323 H   0  0  0  0  0  0  0  0  0  0  0  0
    1.8660   12.4832   -1.6752 H   0  0  0  0  0  0  0  0  0  0  0  0
    0.9546   14.0311   -1.6752 H   0  0  0  0  0  0  0  0  0  0  0  0
  1  2  1  0
  2  3  1  0
  3  4  1  0
  4  5  1  0
  5  6  1  0
  6  7  1  0
  7  8  1  0
  7  9  1  0
  2 10  1  0
 10 11  1  0
 11 12  1  0
 12 13  1  0
 13 14  1  6
 13 15  1  0
 15 16  1  0
 16 17  1  0
 17 18  2  0
 18 19  1  0
 19 20  1  0
 20 21  1  0
 21 22  1  0
 22 23  1  0
 22 24  1  0
 24 25  1  0
 24 26  1  0
 19 27  1  0
 27 28  1  1
 27 29  1  0
 29 30  1  0
 30 31  1  0
 31 32  1  1
  7  5  1  0
 31 10  1  0
 31 13  1  0
 27 15  1  0
 24 18  1  0
  1 33  1  0
  1 34  1  0
  1 35  1  0
  2 36  1  1
  3 37  1  0
  3 38  1  0
  4 39  1  0
  4 40  1  0
  5 41  1  1
  8 42  1  0
  8 43  1  0
  8 44  1  0
  9 45  1  0
  9 46  1  0
  9 47  1  0
 10 48  1  6
 11 49  1  0
 11 50  1  0
 12 51  1  0
 12 52  1  0
 14 53  1  0
 14 54  1  0
 14 55  1  0
 15 56  1  1
 16 57  1  0
 16 58  1  0
 17 59  1  0
 19 60  1  6
 20 61  1  0
 20 62  1  0
 21 63  1  0
 21 64  1  0
 22 65  1  6
 23 66  1  0
 25 67  1  0
 25 68  1  0
 25 69  1  0
 26 70  1  0
 26 71  1  0
 26 72  1  0
 28 73  1  0
 28 74  1  0
 28 75  1  0
 29 76  1  0
 29 77  1  0
 30 78  1  0
 30 79  1  0
 32 80  1  0
 32 81  1  0
 32 82  1  0
M  END
>  <meeko>  (16) 
{"is_sidechain": [false], "intermolecular_energy": 2.731, "internal_energy": -0.839}

$$$$
EPH_relaxed_0001_pdb2pqr_Repair_31_r2_0001_out
     RDKit          3D

 82 86  0  0  0  0  0  0  0  0999 V2000
   -2.1760    9.6820   -0.2830 C   0  0  0  0  0  0  0  0  0  0  0  0
   -1.6040   10.5720   -1.3900 C   0  0  2  0  0  0  0  0  0  0  0  0
   -0.6450    9.8010   -2.3180 C   0  0  0  0  0  0  0  0  0  0  0  0
    0.7350    9.5490   -1.7060 C   0  0  0  0  0  0  0  0  0  0  0  0
    1.8370    9.9050   -2.6570 C   0  0  2  0  0  0  0  0  0  0  0  0
    2.9910    9.0580   -2.5790 O   0  0  0  0  0  0  0  0  0  0  0  0
    3.1880   10.4330   -2.2120 C   0  0  0  0  0  0  0  0  0  0  0  0
    3.5080   10.6360   -0.7640 C   0  0  0  0  0  0  0  0  0  0  0  0
    4.0120   11.2070   -3.1930 C   0  0  0  0  0  0  0  0  0  0  0  0
   -0.8860   11.7680   -0.7770 C   0  0  1  0  0  0  0  0  0  0  0  0
    0.2760   11.3490    0.1630 C   0  0  0  0  0  0  0  0  0  0  0  0
    1.3880   12.4170    0.0030 C   0  0  0  0  0  0  0  0  0  0  0  0
    0.7080   13.5780   -0.7590 C   0  0  1  0  0  0  0  0  0  0  0  0
   -0.0720   14.3730    0.3340 C   0  0  0  0  0  0  0  0  0  0  0  0
    1.6530   14.5090   -1.5870 C   0  0  2  0  0  0  0  0  0  0  0  0
    2.6960   15.2810   -0.7600 C   0  0  0  0  0  0  0  0  0  0  0  0
    2.2600   16.6230   -0.2750 C   0  0  0  0  0  0  0  0  0  0  0  0
    1.1940   17.3100   -0.7260 C   0  0  0  0  0  0  0  0  0  0  0  0
    0.3550   16.7810   -1.8970 C   0  0  1  0  0  0  0  0  0  0  0  0
    0.0940   17.9300   -2.9070 C   0  0  0  0  0  0  0  0  0  0  0  0
   -0.5300   19.1570   -2.2490 C   0  0  0  0  0  0  0  0  0  0  0  0
    0.3610   19.6870   -1.1280 C   0  0  2  0  0  0  0  0  0  0  0  0
    1.5700   20.1930   -1.7010 O   0  0  0  0  0  0  0  0  0  0  0  0
    0.6990   18.6150   -0.0550 C   0  0  0  0  0  0  0  0  0  0  0  0
   -0.5690   18.2860    0.7710 C   0  0  0  0  0  0  0  0  0  0  0  0
    1.7160   19.2390    0.9390 C   0  0  0  0  0  0  0  0  0  0  0  0
    0.8990   15.4630   -2.6000 C   0  0  1  0  0  0  0  0  0  0  0  0
    1.9280   15.8370   -3.7090 C   0  0  0  0  0  0  0  0  0  0  0  0
   -0.2950   14.7390   -3.3270 C   0  0  0  0  0  0  0  0  0  0  0  0
   -1.1170   13.7410   -2.4890 C   0  0  0  0  0  0  0  0  0  0  0  0
   -0.2010   12.7620   -1.7490 C   0  0  2  0  0  0  0  0  0  0  0  0
    0.5800   11.9320   -2.8240 C   0  0  0  0  0  0  0  0  0  0  0  0
   -1.9076   10.0996    0.6986 H   0  0  0  0  0  0  0  0  0  0  0  0
   -3.2712    9.6391   -0.3762 H   0  0  0  0  0  0  0  0  0  0  0  0
   -1.7601    8.6679   -0.3762 H   0  0  0  0  0  0  0  0  0  0  0  0
   -2.4482   10.9198   -2.0035 H   0  0  0  0  0  0  0  0  0  0  0  0
   -1.1009    8.8292   -2.5581 H   0  0  0  0  0  0  0  0  0  0  0  0
   -0.4912   10.4251   -3.2107 H   0  0  0  0  0  0  0  0  0  0  0  0
    0.8383   10.1589   -0.7964 H   0  0  0  0  0  0  0  0  0  0  0  0
    0.8161    8.4769   -1.4733 H   0  0  0  0  0  0  0  0  0  0  0  0
    1.1113   10.2682   -3.3996 H   0  0  0  0  0  0  0  0  0  0  0  0
    2.7392   10.1483   -0.1467 H   0  0  0  0  0  0  0  0  0  0  0  0
    4.4911   10.1960   -0.5406 H   0  0  0  0  0  0  0  0  0  0  0  0
    3.5289   11.7129   -0.5406 H   0  0  0  0  0  0  0  0  0  0  0  0
    4.7093   11.8620   -2.6500 H   0  0  0  0  0  0  0  0  0  0  0  0
    4.5811   10.5093   -3.8250 H   0  0  0  0  0  0  0  0  0  0  0  0
    3.3512   11.8186   -3.8250 H   0  0  0  0  0  0  0  0  0  0  0  0
   -1.7353   12.2562   -0.2766 H   0  0  0  0  0  0  0  0  0  0  0  0
   -0.0726   11.3185    1.2058 H   0  0  0  0  0  0  0  0  0  0  0  0
    0.6505   10.3473   -0.0944 H   0  0  0  0  0  0  0  0  0  0  0  0
    1.7459   12.7552    0.9866 H   0  0  0  0  0  0  0  0  0  0  0  0
    2.2673   12.0267   -0.5304 H   0  0  0  0  0  0  0  0  0  0  0  0
    0.2535   14.0413    1.3310 H   0  0  0  0  0  0  0  0  0  0  0  0
    0.1315   15.4481    0.2207 H   0  0  0  0  0  0  0  0  0  0  0  0
   -1.1507   14.1901    0.2207 H   0  0  0  0  0  0  0  0  0  0  0  0
    2.2234   13.7882   -2.1913 H   0  0  0  0  0  0  0  0  0  0  0  0
    2.9536   14.6699    0.1176 H   0  0  0  0  0  0  0  0  0  0  0  0
    3.5449   15.4631   -1.4354 H   0  0  0  0  0  0  0  0  0  0  0  0
    2.8609   17.0908    0.5188 H   0  0  0  0  0  0  0  0  0  0  0  0
   -0.5968   16.4429   -1.4613 H   0  0  0  0  0  0  0  0  0  0  0  0
    1.0512   18.2229   -3.3630 H   0  0  0  0  0  0  0  0  0  0  0  0
   -0.6161   17.5576   -3.6601 H   0  0  0  0  0  0  0  0  0  0  0  0
   -0.6621   19.9437   -3.0064 H   0  0  0  0  0  0  0  0  0  0  0  0
   -1.5012   18.8697   -1.8197 H   0  0  0  0  0  0  0  0  0  0  0  0
   -0.1966   20.4819   -0.6111 H   0  0  0  0  0  0  0  0  0  0  0  0
    1.7220   19.7180   -2.5350 H   0  0  0  0  0  0  0  0  0  0  0  0
   -0.3338   18.3470    1.8438 H   0  0  0  0  0  0  0  0  0  0  0  0
   -1.3625   19.0080    0.5279 H   0  0  0  0  0  0  0  0  0  0  0  0
   -0.9114   17.2693    0.5279 H   0  0  0  0  0  0  0  0  0  0  0  0
    1.3903   19.0392    1.9705 H   0  0  0  0  0  0  0  0  0  0  0  0
    2.7087   18.7944    0.7753 H   0  0  0  0  0  0  0  0  0  0  0  0
    1.7693   20.3254    0.7753 H   0  0  0  0  0  0  0  0  0  0  0  0
    2.8637   16.1771   -3.2413 H   0  0  0  0  0  0  0  0  0  0  0  0
    2.1301   14.9548   -4.3342 H   0  0  0  0  0  0  0  0  0  0  0  0
    1.5165   16.6431   -4.3342 H   0  0  0  0  0  0  0  0  0  0  0  0
   -0.9842   15.5160   -3.6892 H   0  0  0  0  0  0  0  0  0  0  0  0
    0.1739   14.1336   -4.1167 H   0  0  0  0  0  0  0  0  0  0  0  0
   -1.7178   14.2971   -1.7543 H   0  0  0  0  0  0  0  0  0  0  0  0
   -1.7690   13.1686   -3.1652 H   0  0  0  0  0  0  0  0  0  0  0  0
    1.2504   11.2195   -2.3212 H   0  0  0  0  0  0  0  0  0  0  0  0
   -0.1351   11.3814   -3.4528 H   0  0  0  0  0  0  0  0  0  0  0  0
    1.1731   12.6124   -3.4528 H   0  0  0  0  0  0  0  0  0  0  0  0
  1  2  1  0
  2  3  1  0
  3  4  1  0
  4  5  1  0
  5  6  1  0
  6  7  1  0
  7  8  1  0
  7  9  1  0
  2 10  1  0
 10 11  1  0
 11 12  1  0
 12 13  1  0
 13 14  1  1
 13 15  1  0
 15 16  1  0
 16 17  1  0
 17 18  2  0
 18 19  1  0
 19 20  1  0
 20 21  1  0
 21 22  1  0
 22 23  1  0
 22 24  1  0
 24 25  1  0
 24 26  1  0
 19 27  1  0
 27 28  1  6
 27 29  1  0
 29 30  1  0
 30 31  1  0
 31 32  1  6
  7  5  1  0
 31 10  1  0
 31 13  1  0
 27 15  1  0
 24 18  1  0
  1 33  1  0
  1 34  1  0
  1 35  1  0
  2 36  1  6
  3 37  1  0
  3 38  1  0
  4 39  1  0
  4 40  1  0
  5 41  1  6
  8 42  1  0
  8 43  1  0
  8 44  1  0
  9 45  1  0
  9 46  1  0
  9 47  1  0
 10 48  1  1
 11 49  1  0
 11 50  1  0
 12 51  1  0
 12 52  1  0
 14 53  1  0
 14 54  1  0
 14 55  1  0
 15 56  1  6
 16 57  1  0
 16 58  1  0
 17 59  1  0
 19 60  1  1
 20 61  1  0
 20 62  1  0
 21 63  1  0
 21 64  1  0
 22 65  1  1
 23 66  1  0
 25 67  1  0
 25 68  1  0
 25 69  1  0
 26 70  1  0
 26 71  1  0
 26 72  1  0
 28 73  1  0
 28 74  1  0
 28 75  1  0
 29 76  1  0
 29 77  1  0
 30 78  1  0
 30 79  1  0
 32 80  1  0
 32 81  1  0
 32 82  1  0
M  END
>  <meeko>  (17) 
{"is_sidechain": [false], "intermolecular_energy": 2.731, "internal_energy": -0.839}

$$$$
EPH_relaxed_0001_pdb2pqr_Repair_31_r2_0001_out
     RDKit          3D

 82 86  0  0  0  0  0  0  0  0999 V2000
    3.9440   18.3500   -2.0680 C   0  0  0  0  0  0  0  0  0  0  0  0
    2.5830   17.6570   -2.1750 C   0  0  2  0  0  0  0  0  0  0  0  0
    1.4610   18.4740   -1.5040 C   0  0  0  0  0  0  0  0  0  0  0  0
    0.2060   18.6220   -2.3680 C   0  0  0  0  0  0  0  0  0  0  0  0
   -0.7460   19.6290   -1.7960 C   0  0  2  0  0  0  0  0  0  0  0  0
   -0.3790   20.1330   -0.5050 O   0  0  0  0  0  0  0  0  0  0  0  0
   -1.5960   19.3710   -0.5660 C   0  0  0  0  0  0  0  0  0  0  0  0
   -1.5350   18.0670    0.1650 C   0  0  0  0  0  0  0  0  0  0  0  0
   -2.8320   20.1920   -0.3660 C   0  0  0  0  0  0  0  0  0  0  0  0
    2.6580   16.2670   -1.5550 C   0  0  1  0  0  0  0  0  0  0  0  0
    3.2150   16.2880   -0.1070 C   0  0  0  0  0  0  0  0  0  0  0  0
    2.4720   15.1740    0.6750 C   0  0  0  0  0  0  0  0  0  0  0  0
    1.7630   14.3380   -0.4170 C   0  0  1  0  0  0  0  0  0  0  0  0
    2.8670   13.3860   -0.9740 C   0  0  0  0  0  0  0  0  0  0  0  0
    0.4920   13.5480    0.0360 C   0  0  2  0  0  0  0  0  0  0  0  0
    0.7410   12.4710    1.1060 C   0  0  0  0  0  0  0  0  0  0  0  0
    1.0570   11.1100    0.5810 C   0  0  0  0  0  0  0  0  0  0  0  0
    0.8610   10.6950   -0.6850 C   0  0  0  0  0  0  0  0  0  0  0  0
    0.1770   11.6040   -1.7140 C   0  0  1  0  0  0  0  0  0  0  0  0
   -0.8990   10.7950   -2.4850 C   0  0  0  0  0  0  0  0  0  0  0  0
   -0.3370    9.5220   -3.1120 C   0  0  0  0  0  0  0  0  0  0  0  0
    0.2830    8.6190   -2.0500 C   0  0  2  0  0  0  0  0  0  0  0  0
   -0.7560    8.1380   -1.1910 O   0  0  0  0  0  0  0  0  0  0  0  0
    1.3750    9.3290   -1.2020 C   0  0  0  0  0  0  0  0  0  0  0  0
    2.6290    9.5800   -2.0740 C   0  0  0  0  0  0  0  0  0  0  0  0
    1.8160    8.3530   -0.0780 C   0  0  0  0  0  0  0  0  0  0  0  0
   -0.3800   12.9850   -1.1590 C   0  0  1  0  0  0  0  0  0  0  0  0
   -1.8240   12.7910   -0.6030 C   0  0  0  0  0  0  0  0  0  0  0  0
   -0.4960   14.0090   -2.3490 C   0  0  0  0  0  0  0  0  0  0  0  0
    0.7570   14.8460   -2.6700 C   0  0  0  0  0  0  0  0  0  0  0  0
    1.3290   15.4850   -1.4010 C   0  0  2  0  0  0  0  0  0  0  0  0
    0.2490   16.4660   -0.8300 C   0  0  0  0  0  0  0  0  0  0  0  0
    4.2054   18.4831   -1.0078 H   0  0  0  0  0  0  0  0  0  0  0  0
    4.7098   17.7321   -2.5597 H   0  0  0  0  0  0  0  0  0  0  0  0
    3.8947   19.3328   -2.5597 H   0  0  0  0  0  0  0  0  0  0  0  0
    2.3365   17.5744   -3.2438 H   0  0  0  0  0  0  0  0  0  0  0  0
    1.1797   17.9726   -0.5662 H   0  0  0  0  0  0  0  0  0  0  0  0
    1.8570   19.4865   -1.3365 H   0  0  0  0  0  0  0  0  0  0  0  0
    0.5036   18.9456   -3.3763 H   0  0  0  0  0  0  0  0  0  0  0  0
   -0.3043   17.6481   -2.4008 H   0  0  0  0  0  0  0  0  0  0  0  0
   -0.9960   19.9995   -2.8011 H   0  0  0  0  0  0  0  0  0  0  0  0
   -1.5437   18.2536    1.2490 H   0  0  0  0  0  0  0  0  0  0  0  0
   -2.4054   17.4524   -0.1083 H   0  0  0  0  0  0  0  0  0  0  0  0
   -0.6110   17.5363   -0.1083 H   0  0  0  0  0  0  0  0  0  0  0  0
   -3.0193   20.3164    0.7108 H   0  0  0  0  0  0  0  0  0  0  0  0
   -2.6954   21.1795   -0.8309 H   0  0  0  0  0  0  0  0  0  0  0  0
   -3.6893   19.6832   -0.8309 H   0  0  0  0  0  0  0  0  0  0  0  0
    3.3044   15.7701   -2.2934 H   0  0  0  0  0  0  0  0  0  0  0  0
    4.2967   16.0884   -0.1144 H   0  0  0  0  0  0  0  0  0  0  0  0
    3.0587   17.2707    0.3618 H   0  0  0  0  0  0  0  0  0  0  0  0
    3.1845   14.5533    1.2380 H   0  0  0  0  0  0  0  0  0  0  0  0
    1.7655   15.5821    1.4128 H   0  0  0  0  0  0  0  0  0  0  0  0
    3.4067   12.9206   -0.1361 H   0  0  0  0  0  0  0  0  0  0  0  0
    2.3997   12.6030   -1.5893 H   0  0  0  0  0  0  0  0  0  0  0  0
    3.5728   13.9634   -1.5893 H   0  0  0  0  0  0  0  0  0  0  0  0
   -0.1076   14.3268    0.5300 H   0  0  0  0  0  0  0  0  0  0  0  0
    1.5863   12.7997    1.7284 H   0  0  0  0  0  0  0  0  0  0  0  0
   -0.2032   12.3706    1.6614 H   0  0  0  0  0  0  0  0  0  0  0  0
    1.4862   10.3847    1.2879 H   0  0  0  0  0  0  0  0  0  0  0  0
    0.9683   11.9282   -2.4059 H   0  0  0  0  0  0  0  0  0  0  0  0
   -1.7012   10.5187   -1.7849 H   0  0  0  0  0  0  0  0  0  0  0  0
   -1.2742   11.4310   -3.3003 H   0  0  0  0  0  0  0  0  0  0  0  0
   -1.1505    8.9793   -3.6157 H   0  0  0  0  0  0  0  0  0  0  0  0
    0.4439    9.8016   -3.8345 H   0  0  0  0  0  0  0  0  0  0  0  0
    0.7827    7.7902   -2.5729 H   0  0  0  0  0  0  0  0  0  0  0  0
   -1.1460    8.9070   -0.7410 H   0  0  0  0  0  0  0  0  0  0  0  0
    3.4989    9.7541   -1.4237 H   0  0  0  0  0  0  0  0  0  0  0  0
    2.8159    8.7014   -2.7090 H   0  0  0  0  0  0  0  0  0  0  0  0
    2.4633   10.4628   -2.7090 H   0  0  0  0  0  0  0  0  0  0  0  0
    1.6110    8.8067    0.9029 H   0  0  0  0  0  0  0  0  0  0  0  0
    1.2563    7.4106   -0.1703 H   0  0  0  0  0  0  0  0  0  0  0  0
    2.8932    8.1502   -0.1703 H   0  0  0  0  0  0  0  0  0  0  0  0
   -1.7970   12.7946    0.4967 H   0  0  0  0  0  0  0  0  0  0  0  0
   -2.4663   13.6109   -0.9567 H   0  0  0  0  0  0  0  0  0  0  0  0
   -2.2272   11.8306   -0.9567 H   0  0  0  0  0  0  0  0  0  0  0  0
   -0.7567   13.4399   -3.2535 H   0  0  0  0  0  0  0  0  0  0  0  0
   -1.2547   14.7381   -2.0284 H   0  0  0  0  0  0  0  0  0  0  0  0
    1.5200   14.1937   -3.1198 H   0  0  0  0  0  0  0  0  0  0  0  0
    0.4744   15.6467   -3.3693 H   0  0  0  0  0  0  0  0  0  0  0  0
    0.2760   16.4414    0.2694 H   0  0  0  0  0  0  0  0  0  0  0  0
    0.4602   17.4875   -1.1793 H   0  0  0  0  0  0  0  0  0  0  0  0
   -0.7475   16.1578   -1.1793 H   0  0  0  0  0  0  0  0  0  0  0  0
  1  2  1  0
  2  3  1  0
  3  4  1  0
  4  5  1  0
  5  6  1  0
  6  7  1  0
  7  8  1  0
  7  9  1  0
  2 10  1  0
 10 11  1  0
 11 12  1  0
 12 13  1  0
 13 14  1  6
 13 15  1  0
 15 16  1  0
 16 17  1  0
 17 18  2  0
 18 19  1  0
 19 20  1  0
 20 21  1  0
 21 22  1  0
 22 23  1  0
 22 24  1  0
 24 25  1  0
 24 26  1  0
 19 27  1  0
 27 28  1  1
 27 29  1  0
 29 30  1  0
 30 31  1  0
 31 32  1  1
  7  5  1  0
 31 10  1  0
 31 13  1  0
 27 15  1  0
 24 18  1  0
  1 33  1  0
  1 34  1  0
  1 35  1  0
  2 36  1  6
  3 37  1  0
  3 38  1  0
  4 39  1  0
  4 40  1  0
  5 41  1  6
  8 42  1  0
  8 43  1  0
  8 44  1  0
  9 45  1  0
  9 46  1  0
  9 47  1  0
 10 48  1  6
 11 49  1  0
 11 50  1  0
 12 51  1  0
 12 52  1  0
 14 53  1  0
 14 54  1  0
 14 55  1  0
 15 56  1  1
 16 57  1  0
 16 58  1  0
 17 59  1  0
 19 60  1  6
 20 61  1  0
 20 62  1  0
 21 63  1  0
 21 64  1  0
 22 65  1  6
 23 66  1  0
 25 67  1  0
 25 68  1  0
 25 69  1  0
 26 70  1  0
 26 71  1  0
 26 72  1  0
 28 73  1  0
 28 74  1  0
 28 75  1  0
 29 76  1  0
 29 77  1  0
 30 78  1  0
 30 79  1  0
 32 80  1  0
 32 81  1  0
 32 82  1  0
M  END
>  <meeko>  (18) 
{"is_sidechain": [false], "intermolecular_energy": 2.731, "internal_energy": -0.839}

$$$$
