EPH_relaxed_0001_pdb2pqr_Repair_417_r2_0001_out
     RDKit          3D

 82 86  0  0  0  0  0  0  0  0999 V2000
   -1.8510    8.6270   -1.9450 C   0  0  0  0  0  0  0  0  0  0  0  0
   -2.2540    9.1150   -0.5510 C   0  0  2  0  0  0  0  0  0  0  0  0
   -3.7590    9.4410   -0.4620 C   0  0  0  0  0  0  0  0  0  0  0  0
   -4.6490    8.2040   -0.3170 C   0  0  0  0  0  0  0  0  0  0  0  0
   -5.3190    7.8480   -1.6090 C   0  0  2  0  0  0  0  0  0  0  0  0
   -6.4310    8.6840   -1.9570 O   0  0  0  0  0  0  0  0  0  0  0  0
   -6.7330    7.3040   -1.6960 C   0  0  0  0  0  0  0  0  0  0  0  0
   -7.5610    7.0830   -0.4690 C   0  0  0  0  0  0  0  0  0  0  0  0
   -7.1290    6.5320   -2.9170 C   0  0  0  0  0  0  0  0  0  0  0  0
   -1.4320   10.3410   -0.1720 C   0  0  1  0  0  0  0  0  0  0  0  0
   -0.5000   10.0840    1.0420 C   0  0  0  0  0  0  0  0  0  0  0  0
    0.7910   10.9070    0.7970 C   0  0  0  0  0  0  0  0  0  0  0  0
    0.4300   11.8610   -0.3660 C   0  0  1  0  0  0  0  0  0  0  0  0
   -0.3450   13.0380    0.3060 C   0  0  0  0  0  0  0  0  0  0  0  0
    1.6250   12.3770   -1.2330 C   0  0  2  0  0  0  0  0  0  0  0  0
    2.6610   13.2250   -0.4760 C   0  0  0  0  0  0  0  0  0  0  0  0
    2.3990   14.6950   -0.4670 C   0  0  0  0  0  0  0  0  0  0  0  0
    1.5380   15.3400   -1.2760 C   0  0  0  0  0  0  0  0  0  0  0  0
    0.7910   14.5930   -2.3880 C   0  0  1  0  0  0  0  0  0  0  0  0
    0.8710   15.4080   -3.7050 C   0  0  0  0  0  0  0  0  0  0  0  0
    0.3820   16.8430   -3.5350 C   0  0  0  0  0  0  0  0  0  0  0  0
    1.1880   17.5710   -2.4620 C   0  0  2  0  0  0  0  0  0  0  0  0
    2.5330   17.7290   -2.9240 O   0  0  0  0  0  0  0  0  0  0  0  0
    1.1870   16.8370   -1.0920 C   0  0  0  0  0  0  0  0  0  0  0  0
   -0.2190   16.9320   -0.4510 C   0  0  0  0  0  0  0  0  0  0  0  0
    2.1490   17.6000   -0.1420 C   0  0  0  0  0  0  0  0  0  0  0  0
    1.1910   13.0680   -2.5890 C   0  0  1  0  0  0  0  0  0  0  0  0
    2.4120   12.9610   -3.5530 C   0  0  0  0  0  0  0  0  0  0  0  0
    0.0020   12.3120   -3.2920 C   0  0  0  0  0  0  0  0  0  0  0  0
   -1.0860   11.7220   -2.3740 C   0  0  0  0  0  0  0  0  0  0  0  0
   -0.4610   10.9040   -1.2390 C   0  0  2  0  0  0  0  0  0  0  0  0
    0.3070    9.7000   -1.8840 C   0  0  0  0  0  0  0  0  0  0  0  0
   -1.1532    7.7820   -1.8501 H   0  0  0  0  0  0  0  0  0  0  0  0
   -2.7477    8.3023   -2.4932 H   0  0  0  0  0  0  0  0  0  0  0  0
   -1.3626    9.4461   -2.4932 H   0  0  0  0  0  0  0  0  0  0  0  0
   -2.0511    8.2980    0.1571 H   0  0  0  0  0  0  0  0  0  0  0  0
   -3.9226   10.0907    0.4104 H   0  0  0  0  0  0  0  0  0  0  0  0
   -4.0386    9.9292   -1.4072 H   0  0  0  0  0  0  0  0  0  0  0  0
   -4.0295    7.3555    0.0088 H   0  0  0  0  0  0  0  0  0  0  0  0
   -5.4306    8.4292    0.4236 H   0  0  0  0  0  0  0  0  0  0  0  0
   -4.3665    7.4987   -2.0341 H   0  0  0  0  0  0  0  0  0  0  0  0
   -6.9424    7.2481    0.4254 H   0  0  0  0  0  0  0  0  0  0  0  0
   -8.4062    7.7870   -0.4653 H   0  0  0  0  0  0  0  0  0  0  0  0
   -7.9430    6.0515   -0.4653 H   0  0  0  0  0  0  0  0  0  0  0  0
   -7.6118    5.5908   -2.6152 H   0  0  0  0  0  0  0  0  0  0  0  0
   -7.8322    7.1290   -3.5163 H   0  0  0  0  0  0  0  0  0  0  0  0
   -6.2339    6.3092   -3.5163 H   0  0  0  0  0  0  0  0  0  0  0  0
   -2.2456   11.0581    0.0118 H   0  0  0  0  0  0  0  0  0  0  0  0
   -0.9885   10.4132    1.9710 H   0  0  0  0  0  0  0  0  0  0  0  0
   -0.2719    9.0128    1.1450 H   0  0  0  0  0  0  0  0  0  0  0  0
    1.0645   11.4776    1.6968 H   0  0  0  0  0  0  0  0  0  0  0  0
    1.6546   10.2682    0.5601 H   0  0  0  0  0  0  0  0  0  0  0  0
   -0.2815   12.9416    1.3999 H   0  0  0  0  0  0  0  0  0  0  0  0
    0.1004   13.9948   -0.0042 H   0  0  0  0  0  0  0  0  0  0  0  0
   -1.3999   13.0069   -0.0042 H   0  0  0  0  0  0  0  0  0  0  0  0
    2.1420   11.4441   -1.5020 H   0  0  0  0  0  0  0  0  0  0  0  0
    2.6868   12.8781    0.5675 H   0  0  0  0  0  0  0  0  0  0  0  0
    3.6133   13.0892   -1.0095 H   0  0  0  0  0  0  0  0  0  0  0  0
    2.9564   15.3017    0.2619 H   0  0  0  0  0  0  0  0  0  0  0  0
   -0.2554   14.5228   -2.0561 H   0  0  0  0  0  0  0  0  0  0  0  0
    1.9175   15.4297   -4.0433 H   0  0  0  0  0  0  0  0  0  0  0  0
    0.2177   14.9175   -4.4416 H   0  0  0  0  0  0  0  0  0  0  0  0
    0.4913   17.3761   -4.4909 H   0  0  0  0  0  0  0  0  0  0  0  0
   -0.6734   16.8198   -3.2258 H   0  0  0  0  0  0  0  0  0  0  0  0
    0.7092   18.5470   -2.2942 H   0  0  0  0  0  0  0  0  0  0  0  0
    2.4940   17.9950   -3.8580 H   0  0  0  0  0  0  0  0  0  0  0  0
   -0.1236   16.9256    0.6448 H   0  0  0  0  0  0  0  0  0  0  0  0
   -0.7057   17.8651   -0.7712 H   0  0  0  0  0  0  0  0  0  0  0  0
   -0.8268   16.0729   -0.7712 H   0  0  0  0  0  0  0  0  0  0  0  0
    1.8790   17.3858    0.9026 H   0  0  0  0  0  0  0  0  0  0  0  0
    3.1829   17.2737   -0.3277 H   0  0  0  0  0  0  0  0  0  0  0  0
    2.0667   18.6811   -0.3277 H   0  0  0  0  0  0  0  0  0  0  0  0
    3.3378   12.8799   -2.9645 H   0  0  0  0  0  0  0  0  0  0  0  0
    2.3014   12.0691   -4.1873 H   0  0  0  0  0  0  0  0  0  0  0  0
    2.4582   13.8585   -4.1873 H   0  0  0  0  0  0  0  0  0  0  0  0
   -0.4876   13.0229   -3.9738 H   0  0  0  0  0  0  0  0  0  0  0  0
    0.4643   11.4441   -3.7850 H   0  0  0  0  0  0  0  0  0  0  0  0
   -1.6771   12.5433   -1.9425 H   0  0  0  0  0  0  0  0  0  0  0  0
   -1.7281   11.0587   -2.9722 H   0  0  0  0  0  0  0  0  0  0  0  0
    0.7163    9.0584   -1.0898 H   0  0  0  0  0  0  0  0  0  0  0  0
   -0.3853    9.1152   -2.5075 H   0  0  0  0  0  0  0  0  0  0  0  0
    1.1291   10.0812   -2.5075 H   0  0  0  0  0  0  0  0  0  0  0  0
  1  2  1  0
  2  3  1  0
  3  4  1  0
  4  5  1  0
  5  6  1  0
  6  7  1  0
  7  8  1  0
  7  9  1  0
  2 10  1  0
 10 11  1  0
 11 12  1  0
 12 13  1  0
 13 14  1  1
 13 15  1  0
 15 16  1  0
 16 17  1  0
 17 18  2  0
 18 19  1  0
 19 20  1  0
 20 21  1  0
 21 22  1  0
 22 23  1  0
 22 24  1  0
 24 25  1  0
 24 26  1  0
 19 27  1  0
 27 28  1  6
 27 29  1  0
 29 30  1  0
 30 31  1  0
 31 32  1  6
  7  5  1  0
 31 10  1  0
 31 13  1  0
 27 15  1  0
 24 18  1  0
  1 33  1  0
  1 34  1  0
  1 35  1  0
  2 36  1  1
  3 37  1  0
  3 38  1  0
  4 39  1  0
  4 40  1  0
  5 41  1  6
  8 42  1  0
  8 43  1  0
  8 44  1  0
  9 45  1  0
  9 46  1  0
  9 47  1  0
 10 48  1  1
 11 49  1  0
 11 50  1  0
 12 51  1  0
 12 52  1  0
 14 53  1  0
 14 54  1  0
 14 55  1  0
 15 56  1  6
 16 57  1  0
 16 58  1  0
 17 59  1  0
 19 60  1  1
 20 61  1  0
 20 62  1  0
 21 63  1  0
 21 64  1  0
 22 65  1  1
 23 66  1  0
 25 67  1  0
 25 68  1  0
 25 69  1  0
 26 70  1  0
 26 71  1  0
 26 72  1  0
 28 73  1  0
 28 74  1  0
 28 75  1  0
 29 76  1  0
 29 77  1  0
 30 78  1  0
 30 79  1  0
 32 80  1  0
 32 81  1  0
 32 82  1  0
M  END
>  <meeko>  (1) 
{"is_sidechain": [false], "intermolecular_energy": 2.731, "internal_energy": -0.839}

$$$$
EPH_relaxed_0001_pdb2pqr_Repair_417_r2_0001_out
     RDKit          3D

 82 86  0  0  0  0  0  0  0  0999 V2000
    4.3260   17.2160   -0.5420 C   0  0  0  0  0  0  0  0  0  0  0  0
    2.9670   17.8590   -0.2540 C   0  0  2  0  0  0  0  0  0  0  0  0
    2.9610   18.6320    1.0800 C   0  0  0  0  0  0  0  0  0  0  0  0
    4.3220   18.6590    1.7820 C   0  0  0  0  0  0  0  0  0  0  0  0
    4.2210   19.2300    3.1640 C   0  0  2  0  0  0  0  0  0  0  0  0
    5.2310   20.1940    3.4880 O   0  0  0  0  0  0  0  0  0  0  0  0
    5.2490   18.9760    4.2510 C   0  0  0  0  0  0  0  0  0  0  0  0
    6.4520   18.1210    4.0030 C   0  0  0  0  0  0  0  0  0  0  0  0
    4.8390   19.1540    5.6800 C   0  0  0  0  0  0  0  0  0  0  0  0
    1.8800   16.7910   -0.2410 C   0  0  1  0  0  0  0  0  0  0  0  0
    0.4560   17.3860   -0.4090 C   0  0  0  0  0  0  0  0  0  0  0  0
   -0.3640   16.3580   -1.2320 C   0  0  0  0  0  0  0  0  0  0  0  0
    0.5000   15.0750   -1.2240 C   0  0  1  0  0  0  0  0  0  0  0  0
    0.2030   14.4000    0.1510 C   0  0  0  0  0  0  0  0  0  0  0  0
    0.2760   14.0850   -2.4140 C   0  0  2  0  0  0  0  0  0  0  0  0
   -1.1360   13.4810   -2.5030 C   0  0  0  0  0  0  0  0  0  0  0  0
   -1.3290   12.1970   -1.7660 C   0  0  0  0  0  0  0  0  0  0  0  0
   -0.3440   11.4080   -1.2980 C   0  0  0  0  0  0  0  0  0  0  0  0
    1.1280   11.7350   -1.5810 C   0  0  1  0  0  0  0  0  0  0  0  0
    1.8640   10.4500   -2.0440 C   0  0  0  0  0  0  0  0  0  0  0  0
    1.7010    9.2960   -1.0590 C   0  0  0  0  0  0  0  0  0  0  0  0
    0.2260    8.9630   -0.8480 C   0  0  2  0  0  0  0  0  0  0  0  0
   -0.3070    8.4400   -2.0690 O   0  0  0  0  0  0  0  0  0  0  0  0
   -0.6180   10.1840   -0.3900 C   0  0  0  0  0  0  0  0  0  0  0  0
   -0.2400   10.5630    1.0630 C   0  0  0  0  0  0  0  0  0  0  0  0
   -2.1080    9.7480   -0.3510 C   0  0  0  0  0  0  0  0  0  0  0  0
    1.3910   12.9700   -2.5470 C   0  0  1  0  0  0  0  0  0  0  0  0
    1.3730   12.4970   -4.0330 C   0  0  0  0  0  0  0  0  0  0  0  0
    2.8370   13.5330   -2.2780 C   0  0  0  0  0  0  0  0  0  0  0  0
    2.9730   14.5970   -1.1710 C   0  0  0  0  0  0  0  0  0  0  0  0
    1.9340   15.7080   -1.3470 C   0  0  2  0  0  0  0  0  0  0  0  0
    2.2210   16.4200   -2.7130 C   0  0  0  0  0  0  0  0  0  0  0  0
    4.8279   16.9785    0.4076 H   0  0  0  0  0  0  0  0  0  0  0  0
    4.1792   16.2918   -1.1203 H   0  0  0  0  0  0  0  0  0  0  0  0
    4.9475   17.9156   -1.1203 H   0  0  0  0  0  0  0  0  0  0  0  0
    2.7673   18.5842   -1.0566 H   0  0  0  0  0  0  0  0  0  0  0  0
    2.6532   19.6688    0.8792 H   0  0  0  0  0  0  0  0  0  0  0  0
    2.2634   18.1096    1.7511 H   0  0  0  0  0  0  0  0  0  0  0  0
    4.7096   17.6317    1.8481 H   0  0  0  0  0  0  0  0  0  0  0  0
    4.9982   19.2981    1.1952 H   0  0  0  0  0  0  0  0  0  0  0  0
    3.1251   19.1361    3.1487 H   0  0  0  0  0  0  0  0  0  0  0  0
    6.8868   17.8120    4.9650 H   0  0  0  0  0  0  0  0  0  0  0  0
    6.1564   17.2292    3.4309 H   0  0  0  0  0  0  0  0  0  0  0  0
    7.1970   18.6934    3.4309 H   0  0  0  0  0  0  0  0  0  0  0  0
    5.6465   18.8034    6.3395 H   0  0  0  0  0  0  0  0  0  0  0  0
    4.6423   20.2185    5.8752 H   0  0  0  0  0  0  0  0  0  0  0  0
    3.9270   18.5708    5.8752 H   0  0  0  0  0  0  0  0  0  0  0  0
    2.0798   16.3363    0.7405 H   0  0  0  0  0  0  0  0  0  0  0  0
   -0.0089   17.5400    0.5760 H   0  0  0  0  0  0  0  0  0  0  0  0
    0.4925   18.3605   -0.9179 H   0  0  0  0  0  0  0  0  0  0  0  0
   -1.3399   16.1721   -0.7597 H   0  0  0  0  0  0  0  0  0  0  0  0
   -0.5753   16.7127   -2.2516 H   0  0  0  0  0  0  0  0  0  0  0  0
    0.5013   15.0779    0.9643 H   0  0  0  0  0  0  0  0  0  0  0  0
   -0.8729   14.1848    0.2290 H   0  0  0  0  0  0  0  0  0  0  0  0
    0.7713   13.4614    0.2290 H   0  0  0  0  0  0  0  0  0  0  0  0
    0.3752   14.7424   -3.2904 H   0  0  0  0  0  0  0  0  0  0  0  0
   -1.8462   14.2161   -2.0965 H   0  0  0  0  0  0  0  0  0  0  0  0
   -1.3010   13.2492   -3.5656 H   0  0  0  0  0  0  0  0  0  0  0  0
   -2.3639   11.8679   -1.5906 H   0  0  0  0  0  0  0  0  0  0  0  0
    1.5504   12.0846   -0.6274 H   0  0  0  0  0  0  0  0  0  0  0  0
    1.4571   10.1421   -3.0185 H   0  0  0  0  0  0  0  0  0  0  0  0
    2.9367   10.6845   -2.1094 H   0  0  0  0  0  0  0  0  0  0  0  0
    2.2172    8.4090   -1.4550 H   0  0  0  0  0  0  0  0  0  0  0  0
    2.1352    9.5946   -0.0934 H   0  0  0  0  0  0  0  0  0  0  0  0
    0.1675    8.2206   -0.0385 H   0  0  0  0  0  0  0  0  0  0  0  0
   -0.3460    9.1690   -2.7100 H   0  0  0  0  0  0  0  0  0  0  0  0
   -0.8377    9.9637    1.7656 H   0  0  0  0  0  0  0  0  0  0  0  0
    0.8290   10.3630    1.2278 H   0  0  0  0  0  0  0  0  0  0  0  0
   -0.4428   11.6315    1.2278 H   0  0  0  0  0  0  0  0  0  0  0  0
   -2.4348    9.6524    0.6950 H   0  0  0  0  0  0  0  0  0  0  0  0
   -2.7245   10.5034   -0.8602 H   0  0  0  0  0  0  0  0  0  0  0  0
   -2.2201    8.7794   -0.8602 H   0  0  0  0  0  0  0  0  0  0  0  0
    1.3312   11.3983   -4.0676 H   0  0  0  0  0  0  0  0  0  0  0  0
    0.4901   12.9137   -4.5398 H   0  0  0  0  0  0  0  0  0  0  0  0
    2.2851   12.8454   -4.5398 H   0  0  0  0  0  0  0  0  0  0  0  0
    3.4794   12.6832   -2.0037 H   0  0  0  0  0  0  0  0  0  0  0  0
    3.1240   14.0461   -3.2077 H   0  0  0  0  0  0  0  0  0  0  0  0
    2.8253   14.1182   -0.1918 H   0  0  0  0  0  0  0  0  0  0  0  0
    3.9767   15.0426   -1.2346 H   0  0  0  0  0  0  0  0  0  0  0  0
    2.6262   17.4252   -2.5246 H   0  0  0  0  0  0  0  0  0  0  0  0
    2.9522   15.8316   -3.2867 H   0  0  0  0  0  0  0  0  0  0  0  0
    1.2861   16.5031   -3.2867 H   0  0  0  0  0  0  0  0  0  0  0  0
  1  2  1  0
  2  3  1  0
  3  4  1  0
  4  5  1  0
  5  6  1  0
  6  7  1  0
  7  8  1  0
  7  9  1  0
  2 10  1  0
 10 11  1  0
 11 12  1  0
 12 13  1  0
 13 14  1  1
 13 15  1  0
 15 16  1  0
 16 17  1  0
 17 18  2  0
 18 19  1  0
 19 20  1  0
 20 21  1  0
 21 22  1  0
 22 23  1  0
 22 24  1  0
 24 25  1  0
 24 26  1  0
 19 27  1  0
 27 28  1  6
 27 29  1  0
 29 30  1  0
 30 31  1  0
 31 32  1  6
  7  5  1  0
 31 10  1  0
 31 13  1  0
 27 15  1  0
 24 18  1  0
  1 33  1  0
  1 34  1  0
  1 35  1  0
  2 36  1  6
  3 37  1  0
  3 38  1  0
  4 39  1  0
  4 40  1  0
  5 41  1  1
  8 42  1  0
  8 43  1  0
  8 44  1  0
  9 45  1  0
  9 46  1  0
  9 47  1  0
 10 48  1  1
 11 49  1  0
 11 50  1  0
 12 51  1  0
 12 52  1  0
 14 53  1  0
 14 54  1  0
 14 55  1  0
 15 56  1  6
 16 57  1  0
 16 58  1  0
 17 59  1  0
 19 60  1  1
 20 61  1  0
 20 62  1  0
 21 63  1  0
 21 64  1  0
 22 65  1  1
 23 66  1  0
 25 67  1  0
 25 68  1  0
 25 69  1  0
 26 70  1  0
 26 71  1  0
 26 72  1  0
 28 73  1  0
 28 74  1  0
 28 75  1  0
 29 76  1  0
 29 77  1  0
 30 78  1  0
 30 79  1  0
 32 80  1  0
 32 81  1  0
 32 82  1  0
M  END
>  <meeko>  (2) 
{"is_sidechain": [false], "intermolecular_energy": 2.731, "internal_energy": -0.839}

$$$$
EPH_relaxed_0001_pdb2pqr_Repair_417_r2_0001_out
     RDKit          3D

 82 86  0  0  0  0  0  0  0  0999 V2000
   -3.4710    9.3080    0.4240 C   0  0  0  0  0  0  0  0  0  0  0  0
   -2.6290    9.6750   -0.8010 C   0  0  2  0  0  0  0  0  0  0  0  0
   -1.9570    8.4410   -1.4350 C   0  0  0  0  0  0  0  0  0  0  0  0
   -2.8820    7.6420   -2.3570 C   0  0  0  0  0  0  0  0  0  0  0  0
   -4.3090    7.7070   -1.9030 C   0  0  2  0  0  0  0  0  0  0  0  0
   -4.8310    6.4730   -1.3930 O   0  0  0  0  0  0  0  0  0  0  0  0
   -5.4410    6.9710   -2.5940 C   0  0  0  0  0  0  0  0  0  0  0  0
   -5.1970    6.1190   -3.8000 C   0  0  0  0  0  0  0  0  0  0  0  0
   -6.8400    7.4660   -2.3990 C   0  0  0  0  0  0  0  0  0  0  0  0
   -1.5720   10.7040   -0.4160 C   0  0  1  0  0  0  0  0  0  0  0  0
   -0.4820   10.1180    0.5210 C   0  0  0  0  0  0  0  0  0  0  0  0
    0.8520   10.8120    0.1440 C   0  0  0  0  0  0  0  0  0  0  0  0
    0.4340   11.9980   -0.7560 C   0  0  1  0  0  0  0  0  0  0  0  0
   -0.0120   13.1170    0.2360 C   0  0  0  0  0  0  0  0  0  0  0  0
    1.5130   12.5150   -1.7620 C   0  0  2  0  0  0  0  0  0  0  0  0
    2.7900   13.0800   -1.1160 C   0  0  0  0  0  0  0  0  0  0  0  0
    2.7640   14.5440   -0.8260 C   0  0  0  0  0  0  0  0  0  0  0  0
    1.8790   15.4250   -1.3270 C   0  0  0  0  0  0  0  0  0  0  0  0
    0.8320   14.9890   -2.3600 C   0  0  1  0  0  0  0  0  0  0  0  0
    0.7930   16.0160   -3.5230 C   0  0  0  0  0  0  0  0  0  0  0  0
    0.5710   17.4440   -3.0340 C   0  0  0  0  0  0  0  0  0  0  0  0
    1.6640   17.8610   -2.0540 C   0  0  2  0  0  0  0  0  0  0  0  0
    2.9080   17.9370   -2.7550 O   0  0  0  0  0  0  0  0  0  0  0  0
    1.8030   16.8950   -0.8440 C   0  0  0  0  0  0  0  0  0  0  0  0
    0.5710   17.0390    0.0820 C   0  0  0  0  0  0  0  0  0  0  0  0
    3.0300   17.3500   -0.0090 C   0  0  0  0  0  0  0  0  0  0  0  0
    0.9490   13.4900   -2.8740 C   0  0  1  0  0  0  0  0  0  0  0  0
    1.9390   13.4150   -4.0770 C   0  0  0  0  0  0  0  0  0  0  0  0
   -0.4520   13.0240   -3.4230 C   0  0  0  0  0  0  0  0  0  0  0  0
   -1.4290   12.4110   -2.4010 C   0  0  0  0  0  0  0  0  0  0  0  0
   -0.7400   11.3310   -1.5620 C   0  0  2  0  0  0  0  0  0  0  0  0
   -0.2990   10.1810   -2.5310 C   0  0  0  0  0  0  0  0  0  0  0  0
   -2.9120    9.5516    1.3395 H   0  0  0  0  0  0  0  0  0  0  0  0
   -4.4118    9.8777    0.4063 H   0  0  0  0  0  0  0  0  0  0  0  0
   -3.6941    8.2310    0.4063 H   0  0  0  0  0  0  0  0  0  0  0  0
   -3.3082   10.1032   -1.5529 H   0  0  0  0  0  0  0  0  0  0  0  0
   -1.0906    8.7804   -2.0217 H   0  0  0  0  0  0  0  0  0  0  0  0
   -1.6695    7.7723   -0.6103 H   0  0  0  0  0  0  0  0  0  0  0  0
   -2.8127    8.0534   -3.3748 H   0  0  0  0  0  0  0  0  0  0  0  0
   -2.5628    6.5896   -2.3344 H   0  0  0  0  0  0  0  0  0  0  0  0
   -4.1893    8.7572   -1.5986 H   0  0  0  0  0  0  0  0  0  0  0  0
   -4.9071    5.1069   -3.4813 H   0  0  0  0  0  0  0  0  0  0  0  0
   -6.1157    6.0647   -4.4025 H   0  0  0  0  0  0  0  0  0  0  0  0
   -4.3888    6.5592   -4.4025 H   0  0  0  0  0  0  0  0  0  0  0  0
   -7.0553    7.5422   -1.3230 H   0  0  0  0  0  0  0  0  0  0  0  0
   -6.9468    8.4565   -2.8654 H   0  0  0  0  0  0  0  0  0  0  0  0
   -7.5460    6.7631   -2.8654 H   0  0  0  0  0  0  0  0  0  0  0  0
   -2.2165   11.4683    0.0429 H   0  0  0  0  0  0  0  0  0  0  0  0
   -0.7336   10.3261    1.5714 H   0  0  0  0  0  0  0  0  0  0  0  0
   -0.4062    9.0268    0.4047 H   0  0  0  0  0  0  0  0  0  0  0  0
    1.3706   11.1720    1.0448 H   0  0  0  0  0  0  0  0  0  0  0  0
    1.5489   10.1287   -0.3634 H   0  0  0  0  0  0  0  0  0  0  0  0
    0.1273   12.7675    1.2697 H   0  0  0  0  0  0  0  0  0  0  0  0
    0.5955   14.0187    0.0688 H   0  0  0  0  0  0  0  0  0  0  0  0
   -1.0732   13.3536    0.0688 H   0  0  0  0  0  0  0  0  0  0  0  0
    1.8199   11.5906   -2.2732 H   0  0  0  0  0  0  0  0  0  0  0  0
    2.9546   12.5485   -0.1671 H   0  0  0  0  0  0  0  0  0  0  0  0
    3.5947   12.9297   -1.8507 H   0  0  0  0  0  0  0  0  0  0  0  0
    3.5337   14.9359   -0.1449 H   0  0  0  0  0  0  0  0  0  0  0  0
   -0.1333   14.9856   -1.8325 H   0  0  0  0  0  0  0  0  0  0  0  0
    1.7499   15.9730   -4.0638 H   0  0  0  0  0  0  0  0  0  0  0  0
   -0.0523   15.7507   -4.1750 H   0  0  0  0  0  0  0  0  0  0  0  0
    0.5821   18.1259   -3.8971 H   0  0  0  0  0  0  0  0  0  0  0  0
   -0.3996   17.4917   -2.5186 H   0  0  0  0  0  0  0  0  0  0  0  0
    1.3809   18.8408   -1.6418 H   0  0  0  0  0  0  0  0  0  0  0  0
    3.3380   17.0680   -2.6870 H   0  0  0  0  0  0  0  0  0  0  0  0
    0.8954   17.0011    1.1324 H   0  0  0  0  0  0  0  0  0  0  0  0
    0.0753   18.0012   -0.1142 H   0  0  0  0  0  0  0  0  0  0  0  0
   -0.1332   16.2171   -0.1142 H   0  0  0  0  0  0  0  0  0  0  0  0
    2.7968   17.2635    1.0625 H   0  0  0  0  0  0  0  0  0  0  0  0
    3.8936   16.7123   -0.2489 H   0  0  0  0  0  0  0  0  0  0  0  0
    3.2691   18.3966   -0.2489 H   0  0  0  0  0  0  0  0  0  0  0  0
    2.9693   13.3369   -3.6997 H   0  0  0  0  0  0  0  0  0  0  0  0
    1.7051   12.5320   -4.6899 H   0  0  0  0  0  0  0  0  0  0  0  0
    1.8408   14.3232   -4.6899 H   0  0  0  0  0  0  0  0  0  0  0  0
   -0.9435   13.9014   -3.8686 H   0  0  0  0  0  0  0  0  0  0  0  0
   -0.2286   12.2122   -4.1309 H   0  0  0  0  0  0  0  0  0  0  0  0
   -1.7965   13.2047   -1.7339 H   0  0  0  0  0  0  0  0  0  0  0  0
   -2.2644   11.9497   -2.9481 H   0  0  0  0  0  0  0  0  0  0  0  0
    0.0338    9.3132   -1.9426 H   0  0  0  0  0  0  0  0  0  0  0  0
   -1.1492    9.8897   -3.1653 H   0  0  0  0  0  0  0  0  0  0  0  0
    0.5280   10.5329   -3.1653 H   0  0  0  0  0  0  0  0  0  0  0  0
  1  2  1  0
  2  3  1  0
  3  4  1  0
  4  5  1  0
  5  6  1  0
  6  7  1  0
  7  8  1  0
  7  9  1  0
  2 10  1  0
 10 11  1  0
 11 12  1  0
 12 13  1  0
 13 14  1  1
 13 15  1  0
 15 16  1  0
 16 17  1  0
 17 18  2  0
 18 19  1  0
 19 20  1  0
 20 21  1  0
 21 22  1  0
 22 23  1  0
 22 24  1  0
 24 25  1  0
 24 26  1  0
 19 27  1  0
 27 28  1  6
 27 29  1  0
 29 30  1  0
 30 31  1  0
 31 32  1  6
  7  5  1  0
 31 10  1  0
 31 13  1  0
 27 15  1  0
 24 18  1  0
  1 33  1  0
  1 34  1  0
  1 35  1  0
  2 36  1  6
  3 37  1  0
  3 38  1  0
  4 39  1  0
  4 40  1  0
  5 41  1  1
  8 42  1  0
  8 43  1  0
  8 44  1  0
  9 45  1  0
  9 46  1  0
  9 47  1  0
 10 48  1  1
 11 49  1  0
 11 50  1  0
 12 51  1  0
 12 52  1  0
 14 53  1  0
 14 54  1  0
 14 55  1  0
 15 56  1  6
 16 57  1  0
 16 58  1  0
 17 59  1  0
 19 60  1  1
 20 61  1  0
 20 62  1  0
 21 63  1  0
 21 64  1  0
 22 65  1  1
 23 66  1  0
 25 67  1  0
 25 68  1  0
 25 69  1  0
 26 70  1  0
 26 71  1  0
 26 72  1  0
 28 73  1  0
 28 74  1  0
 28 75  1  0
 29 76  1  0
 29 77  1  0
 30 78  1  0
 30 79  1  0
 32 80  1  0
 32 81  1  0
 32 82  1  0
M  END
>  <meeko>  (3) 
{"is_sidechain": [false], "intermolecular_energy": 2.731, "internal_energy": -0.839}

$$$$
EPH_relaxed_0001_pdb2pqr_Repair_417_r2_0001_out
     RDKit          3D

 82 86  0  0  0  0  0  0  0  0999 V2000
    2.2240   17.9590   -2.5950 C   0  0  0  0  0  0  0  0  0  0  0  0
    0.7010   17.8180   -2.6630 C   0  0  2  0  0  0  0  0  0  0  0  0
    0.0160   18.2740   -1.3590 C   0  0  0  0  0  0  0  0  0  0  0  0
    0.7830   17.8840   -0.0920 C   0  0  0  0  0  0  0  0  0  0  0  0
    1.3150   19.0870    0.6260 C   0  0  2  0  0  0  0  0  0  0  0  0
    2.2350   19.8800   -0.1350 O   0  0  0  0  0  0  0  0  0  0  0  0
    2.7680   19.2410    1.0370 C   0  0  0  0  0  0  0  0  0  0  0  0
    3.7790   18.1780    0.7430 C   0  0  0  0  0  0  0  0  0  0  0  0
    3.1010   20.1930    2.1430 C   0  0  0  0  0  0  0  0  0  0  0  0
    0.3260   16.3740   -2.9710 C   0  0  1  0  0  0  0  0  0  0  0  0
    0.4730   16.0260   -4.4770 C   0  0  0  0  0  0  0  0  0  0  0  0
    0.9430   14.5510   -4.5510 C   0  0  0  0  0  0  0  0  0  0  0  0
    0.7330   14.0010   -3.1210 C   0  0  1  0  0  0  0  0  0  0  0  0
   -0.7850   13.6450   -3.0470 C   0  0  0  0  0  0  0  0  0  0  0  0
    1.6310   12.7900   -2.7070 C   0  0  2  0  0  0  0  0  0  0  0  0
    1.4270   11.5120   -3.5390 C   0  0  0  0  0  0  0  0  0  0  0  0
    0.3980   10.5670   -3.0140 C   0  0  0  0  0  0  0  0  0  0  0  0
   -0.1310   10.5950   -1.7760 C   0  0  0  0  0  0  0  0  0  0  0  0
    0.3770   11.5900   -0.7250 C   0  0  1  0  0  0  0  0  0  0  0  0
    0.6070   10.8510    0.6190 C   0  0  0  0  0  0  0  0  0  0  0  0
   -0.6280   10.0880    1.0870 C   0  0  0  0  0  0  0  0  0  0  0  0
   -1.0680    9.0680    0.0400 C   0  0  2  0  0  0  0  0  0  0  0  0
   -0.0650    8.0520   -0.0620 O   0  0  0  0  0  0  0  0  0  0  0  0
   -1.3200    9.6950   -1.3590 C   0  0  0  0  0  0  0  0  0  0  0  0
   -2.5980   10.5690   -1.3150 C   0  0  0  0  0  0  0  0  0  0  0  0
   -1.6190    8.5410   -2.3530 C   0  0  0  0  0  0  0  0  0  0  0  0
    1.6230   12.4780   -1.1560 C   0  0  1  0  0  0  0  0  0  0  0  0
    2.9490   11.7170   -0.8480 C   0  0  0  0  0  0  0  0  0  0  0  0
    1.6490   13.7870   -0.2810 C   0  0  0  0  0  0  0  0  0  0  0  0
    0.8380   14.9880   -0.8040 C   0  0  0  0  0  0  0  0  0  0  0  0
    1.1520   15.2610   -2.2780 C   0  0  2  0  0  0  0  0  0  0  0  0
    2.6680   15.6440   -2.3810 C   0  0  0  0  0  0  0  0  0  0  0  0
    2.5429   17.9885   -1.5426 H   0  0  0  0  0  0  0  0  0  0  0  0
    2.6945   17.1006   -3.0967 H   0  0  0  0  0  0  0  0  0  0  0  0
    2.5289   18.8892   -3.0967 H   0  0  0  0  0  0  0  0  0  0  0  0
    0.3440   18.4749   -3.4699 H   0  0  0  0  0  0  0  0  0  0  0  0
   -0.0816   19.3694   -1.3826 H   0  0  0  0  0  0  0  0  0  0  0  0
   -0.9590   17.7668   -1.3136 H   0  0  0  0  0  0  0  0  0  0  0  0
    0.1056   17.3378    0.5809 H   0  0  0  0  0  0  0  0  0  0  0  0
    1.6362   17.2557   -0.3873 H   0  0  0  0  0  0  0  0  0  0  0  0
    0.3743   19.1989    1.1850 H   0  0  0  0  0  0  0  0  0  0  0  0
    4.1672   17.7698    1.6878 H   0  0  0  0  0  0  0  0  0  0  0  0
    3.3057   17.3724    0.1625 H   0  0  0  0  0  0  0  0  0  0  0  0
    4.6073   18.6103    0.1625 H   0  0  0  0  0  0  0  0  0  0  0  0
    2.9296   19.7029    3.1127 H   0  0  0  0  0  0  0  0  0  0  0  0
    4.1569   20.4913    2.0645 H   0  0  0  0  0  0  0  0  0  0  0  0
    2.4613   21.0844    2.0645 H   0  0  0  0  0  0  0  0  0  0  0  0
   -0.7067   16.3675   -2.5922 H   0  0  0  0  0  0  0  0  0  0  0  0
   -0.4939   16.1416   -4.9887 H   0  0  0  0  0  0  0  0  0  0  0  0
    1.1941   16.6955   -4.9686 H   0  0  0  0  0  0  0  0  0  0  0  0
    0.3384   13.9869   -5.2764 H   0  0  0  0  0  0  0  0  0  0  0  0
    1.9884   14.4629   -4.8819 H   0  0  0  0  0  0  0  0  0  0  0  0
   -1.0937   13.5726   -1.9937 H   0  0  0  0  0  0  0  0  0  0  0  0
   -1.3706   14.4302   -3.5476 H   0  0  0  0  0  0  0  0  0  0  0  0
   -0.9604   12.6813   -3.5476 H   0  0  0  0  0  0  0  0  0  0  0  0
    2.6407   13.1492   -2.9549 H   0  0  0  0  0  0  0  0  0  0  0  0
    1.1270   11.8115   -4.5540 H   0  0  0  0  0  0  0  0  0  0  0  0
    2.3837   10.9702   -3.5041 H   0  0  0  0  0  0  0  0  0  0  0  0
    0.0415    9.7811   -3.6961 H   0  0  0  0  0  0  0  0  0  0  0  0
   -0.4187   12.3402   -0.6062 H   0  0  0  0  0  0  0  0  0  0  0  0
    1.4347   10.1377    0.4918 H   0  0  0  0  0  0  0  0  0  0  0  0
    0.8389   11.6095    1.3811 H   0  0  0  0  0  0  0  0  0  0  0  0
   -0.3930    9.5630    2.0246 H   0  0  0  0  0  0  0  0  0  0  0  0
   -1.4463   10.8063    1.2432 H   0  0  0  0  0  0  0  0  0  0  0  0
   -2.0287    8.6475    0.3721 H   0  0  0  0  0  0  0  0  0  0  0  0
   -0.1730    7.4550    0.6980 H   0  0  0  0  0  0  0  0  0  0  0  0
   -2.8762   10.7593   -0.2679 H   0  0  0  0  0  0  0  0  0  0  0  0
   -2.4057   11.5256   -1.8229 H   0  0  0  0  0  0  0  0  0  0  0  0
   -3.4197   10.0429   -1.8229 H   0  0  0  0  0  0  0  0  0  0  0  0
   -1.8562    7.6255   -1.7913 H   0  0  0  0  0  0  0  0  0  0  0  0
   -2.4758    8.8151   -2.9861 H   0  0  0  0  0  0  0  0  0  0  0  0
   -0.7369    8.3646   -2.9861 H   0  0  0  0  0  0  0  0  0  0  0  0
    3.0831   11.6400    0.2411 H   0  0  0  0  0  0  0  0  0  0  0  0
    2.9025   10.7081   -1.2839 H   0  0  0  0  0  0  0  0  0  0  0  0
    3.7966   12.2661   -1.2839 H   0  0  0  0  0  0  0  0  0  0  0  0
    1.2582   13.5297    0.7145 H   0  0  0  0  0  0  0  0  0  0  0  0
    2.6972   14.1204   -0.2926 H   0  0  0  0  0  0  0  0  0  0  0  0
   -0.2352   14.7708   -0.6989 H   0  0  0  0  0  0  0  0  0  0  0  0
    1.1100   15.8775   -0.2167 H   0  0  0  0  0  0  0  0  0  0  0  0
    3.0888   15.7503   -1.3703 H   0  0  0  0  0  0  0  0  0  0  0  0
    3.2097   14.8545   -2.9225 H   0  0  0  0  0  0  0  0  0  0  0  0
    2.7697   16.5961   -2.9225 H   0  0  0  0  0  0  0  0  0  0  0  0
  1  2  1  0
  2  3  1  0
  3  4  1  0
  4  5  1  0
  5  6  1  0
  6  7  1  0
  7  8  1  0
  7  9  1  0
  2 10  1  0
 10 11  1  0
 11 12  1  0
 12 13  1  0
 13 14  1  6
 13 15  1  0
 15 16  1  0
 16 17  1  0
 17 18  2  0
 18 19  1  0
 19 20  1  0
 20 21  1  0
 21 22  1  0
 22 23  1  0
 22 24  1  0
 24 25  1  0
 24 26  1  0
 19 27  1  0
 27 28  1  1
 27 29  1  0
 29 30  1  0
 30 31  1  0
 31 32  1  1
  7  5  1  0
 31 10  1  0
 31 13  1  0
 27 15  1  0
 24 18  1  0
  1 33  1  0
  1 34  1  0
  1 35  1  0
  2 36  1  6
  3 37  1  0
  3 38  1  0
  4 39  1  0
  4 40  1  0
  5 41  1  1
  8 42  1  0
  8 43  1  0
  8 44  1  0
  9 45  1  0
  9 46  1  0
  9 47  1  0
 10 48  1  1
 11 49  1  0
 11 50  1  0
 12 51  1  0
 12 52  1  0
 14 53  1  0
 14 54  1  0
 14 55  1  0
 15 56  1  6
 16 57  1  0
 16 58  1  0
 17 59  1  0
 19 60  1  1
 20 61  1  0
 20 62  1  0
 21 63  1  0
 21 64  1  0
 22 65  1  1
 23 66  1  0
 25 67  1  0
 25 68  1  0
 25 69  1  0
 26 70  1  0
 26 71  1  0
 26 72  1  0
 28 73  1  0
 28 74  1  0
 28 75  1  0
 29 76  1  0
 29 77  1  0
 30 78  1  0
 30 79  1  0
 32 80  1  0
 32 81  1  0
 32 82  1  0
M  END
>  <meeko>  (4) 
{"is_sidechain": [false], "intermolecular_energy": 2.731, "internal_energy": -0.839}

$$$$
EPH_relaxed_0001_pdb2pqr_Repair_417_r2_0001_out
     RDKit          3D

 82 86  0  0  0  0  0  0  0  0999 V2000
    2.3240   17.9770   -2.8990 C   0  0  0  0  0  0  0  0  0  0  0  0
    1.0240   17.6120   -2.1770 C   0  0  2  0  0  0  0  0  0  0  0  0
    1.1710   17.6850   -0.6440 C   0  0  0  0  0  0  0  0  0  0  0  0
    0.8380   19.0600   -0.0580 C   0  0  0  0  0  0  0  0  0  0  0  0
   -0.5940   19.1460    0.3760 C   0  0  2  0  0  0  0  0  0  0  0  0
   -1.4890   18.2830   -0.3390 O   0  0  0  0  0  0  0  0  0  0  0  0
   -1.7030   19.6940   -0.5030 C   0  0  0  0  0  0  0  0  0  0  0  0
   -1.4270   20.1940   -1.8860 C   0  0  0  0  0  0  0  0  0  0  0  0
   -2.9530   20.1940    0.1510 C   0  0  0  0  0  0  0  0  0  0  0  0
    0.5740   16.2160   -2.5910 C   0  0  1  0  0  0  0  0  0  0  0  0
    0.6850   15.9820   -4.1210 C   0  0  0  0  0  0  0  0  0  0  0  0
    1.0800   14.4960   -4.3190 C   0  0  0  0  0  0  0  0  0  0  0  0
    0.8600   13.8460   -2.9330 C   0  0  1  0  0  0  0  0  0  0  0  0
   -0.6720   13.5600   -2.8630 C   0  0  0  0  0  0  0  0  0  0  0  0
    1.7020   12.5640   -2.6290 C   0  0  2  0  0  0  0  0  0  0  0  0
    1.4240   11.3670   -3.5560 C   0  0  0  0  0  0  0  0  0  0  0  0
    0.3550   10.4350   -3.0900 C   0  0  0  0  0  0  0  0  0  0  0  0
   -0.1560   10.3900   -1.8460 C   0  0  0  0  0  0  0  0  0  0  0  0
    0.4130   11.2740   -0.7280 C   0  0  1  0  0  0  0  0  0  0  0  0
    0.6220   10.4210    0.5500 C   0  0  0  0  0  0  0  0  0  0  0  0
   -0.6440    9.6840    0.9760 C   0  0  0  0  0  0  0  0  0  0  0  0
   -1.1460    8.7720   -0.1400 C   0  0  2  0  0  0  0  0  0  0  0  0
   -0.1970    7.7200   -0.3370 O   0  0  0  0  0  0  0  0  0  0  0  0
   -1.3840    9.5200   -1.4820 C   0  0  0  0  0  0  0  0  0  0  0  0
   -2.6160   10.4490   -1.3480 C   0  0  0  0  0  0  0  0  0  0  0  0
   -1.7520    8.4630   -2.5580 C   0  0  0  0  0  0  0  0  0  0  0  0
    1.6970   12.1300   -1.1070 C   0  0  1  0  0  0  0  0  0  0  0  0
    2.9870   11.2840   -0.8810 C   0  0  0  0  0  0  0  0  0  0  0  0
    1.7980   13.3630   -0.1340 C   0  0  0  0  0  0  0  0  0  0  0  0
    1.0420   14.6400   -0.5480 C   0  0  0  0  0  0  0  0  0  0  0  0
    1.3520   15.0140   -2.0010 C   0  0  2  0  0  0  0  0  0  0  0  0
    2.8830   15.3290   -2.0980 C   0  0  0  0  0  0  0  0  0  0  0  0
    3.1061   18.1966   -2.1573 H   0  0  0  0  0  0  0  0  0  0  0  0
    2.6427   17.1336   -3.5292 H   0  0  0  0  0  0  0  0  0  0  0  0
    2.1571   18.8630   -3.5292 H   0  0  0  0  0  0  0  0  0  0  0  0
    0.2636   18.3504   -2.4712 H   0  0  0  0  0  0  0  0  0  0  0  0
    0.4946   16.9430   -0.1946 H   0  0  0  0  0  0  0  0  0  0  0  0
    2.2275   17.4845   -0.4127 H   0  0  0  0  0  0  0  0  0  0  0  0
    1.4857   19.2430    0.8120 H   0  0  0  0  0  0  0  0  0  0  0  0
    1.0051   19.8154   -0.8399 H   0  0  0  0  0  0  0  0  0  0  0  0
   -0.2921   19.3712    1.4095 H   0  0  0  0  0  0  0  0  0  0  0  0
   -0.8961   21.1557   -1.8291 H   0  0  0  0  0  0  0  0  0  0  0  0
   -0.8047   19.4629   -2.4228 H   0  0  0  0  0  0  0  0  0  0  0  0
   -2.3773   20.3310   -2.4228 H   0  0  0  0  0  0  0  0  0  0  0  0
   -2.8385   20.1482    1.2441 H   0  0  0  0  0  0  0  0  0  0  0  0
   -3.1360   21.2345   -0.1552 H   0  0  0  0  0  0  0  0  0  0  0  0
   -3.8032   19.5667   -0.1552 H   0  0  0  0  0  0  0  0  0  0  0  0
   -0.4530   16.2290   -2.1971 H   0  0  0  0  0  0  0  0  0  0  0  0
   -0.2811   16.1850   -4.6063 H   0  0  0  0  0  0  0  0  0  0  0  0
    1.4327   16.6525   -4.5697 H   0  0  0  0  0  0  0  0  0  0  0  0
    0.4391   14.0214   -5.0766 H   0  0  0  0  0  0  0  0  0  0  0  0
    2.1153   14.3831   -4.6732 H   0  0  0  0  0  0  0  0  0  0  0  0
   -0.9863   13.5013   -1.8105 H   0  0  0  0  0  0  0  0  0  0  0  0
   -1.2198   14.3714   -3.3646 H   0  0  0  0  0  0  0  0  0  0  0  0
   -0.8901   12.6056   -3.3646 H   0  0  0  0  0  0  0  0  0  0  0  0
    2.7254   12.8927   -2.8628 H   0  0  0  0  0  0  0  0  0  0  0  0
    1.1271   11.7603   -4.5394 H   0  0  0  0  0  0  0  0  0  0  0  0
    2.3527   10.7779   -3.5795 H   0  0  0  0  0  0  0  0  0  0  0  0
   -0.0493    9.7246   -3.8261 H   0  0  0  0  0  0  0  0  0  0  0  0
   -0.3430   12.0504   -0.5392 H   0  0  0  0  0  0  0  0  0  0  0  0
    1.4118    9.6808    0.3544 H   0  0  0  0  0  0  0  0  0  0  0  0
    0.9003   11.1047    1.3655 H   0  0  0  0  0  0  0  0  0  0  0  0
   -0.4244    9.0762    1.8662 H   0  0  0  0  0  0  0  0  0  0  0  0
   -1.4240   10.4266    1.2000 H   0  0  0  0  0  0  0  0  0  0  0  0
   -2.1219    8.3729    0.1736 H   0  0  0  0  0  0  0  0  0  0  0  0
    0.6900    8.1160   -0.3160 H   0  0  0  0  0  0  0  0  0  0  0  0
   -2.8360   10.6149   -0.2831 H   0  0  0  0  0  0  0  0  0  0  0  0
   -2.4027   11.4131   -1.8329 H   0  0  0  0  0  0  0  0  0  0  0  0
   -3.4842    9.9788   -1.8329 H   0  0  0  0  0  0  0  0  0  0  0  0
   -2.0752    7.5346   -2.0645 H   0  0  0  0  0  0  0  0  0  0  0  0
   -2.5690    8.8481   -3.1859 H   0  0  0  0  0  0  0  0  0  0  0  0
   -0.8725    8.2575   -3.1859 H   0  0  0  0  0  0  0  0  0  0  0  0
    3.1647   11.1675    0.1983 H   0  0  0  0  0  0  0  0  0  0  0  0
    2.8607   10.2928   -1.3409 H   0  0  0  0  0  0  0  0  0  0  0  0
    3.8458   11.7949   -1.3409 H   0  0  0  0  0  0  0  0  0  0  0  0
    1.4068   13.0474    0.8444 H   0  0  0  0  0  0  0  0  0  0  0  0
    2.8613   13.6449   -0.1370 H   0  0  0  0  0  0  0  0  0  0  0  0
   -0.0394   14.4678   -0.4436 H   0  0  0  0  0  0  0  0  0  0  0  0
    1.3650   15.4655    0.1033 H   0  0  0  0  0  0  0  0  0  0  0  0
    3.3044   15.4157   -1.0856 H   0  0  0  0  0  0  0  0  0  0  0  0
    3.3910   14.5166   -2.6383 H   0  0  0  0  0  0  0  0  0  0  0  0
    3.0290   16.2760   -2.6383 H   0  0  0  0  0  0  0  0  0  0  0  0
  1  2  1  0
  2  3  1  0
  3  4  1  0
  4  5  1  0
  5  6  1  0
  6  7  1  0
  7  8  1  0
  7  9  1  0
  2 10  1  0
 10 11  1  0
 11 12  1  0
 12 13  1  0
 13 14  1  1
 13 15  1  0
 15 16  1  0
 16 17  1  0
 17 18  2  0
 18 19  1  0
 19 20  1  0
 20 21  1  0
 21 22  1  0
 22 23  1  0
 22 24  1  0
 24 25  1  0
 24 26  1  0
 19 27  1  0
 27 28  1  6
 27 29  1  0
 29 30  1  0
 30 31  1  0
 31 32  1  1
  7  5  1  0
 31 10  1  0
 31 13  1  0
 27 15  1  0
 24 18  1  0
  1 33  1  0
  1 34  1  0
  1 35  1  0
  2 36  1  6
  3 37  1  0
  3 38  1  0
  4 39  1  0
  4 40  1  0
  5 41  1  1
  8 42  1  0
  8 43  1  0
  8 44  1  0
  9 45  1  0
  9 46  1  0
  9 47  1  0
 10 48  1  1
 11 49  1  0
 11 50  1  0
 12 51  1  0
 12 52  1  0
 14 53  1  0
 14 54  1  0
 14 55  1  0
 15 56  1  6
 16 57  1  0
 16 58  1  0
 17 59  1  0
 19 60  1  1
 20 61  1  0
 20 62  1  0
 21 63  1  0
 21 64  1  0
 22 65  1  1
 23 66  1  0
 25 67  1  0
 25 68  1  0
 25 69  1  0
 26 70  1  0
 26 71  1  0
 26 72  1  0
 28 73  1  0
 28 74  1  0
 28 75  1  0
 29 76  1  0
 29 77  1  0
 30 78  1  0
 30 79  1  0
 32 80  1  0
 32 81  1  0
 32 82  1  0
M  END
>  <meeko>  (5) 
{"is_sidechain": [false], "intermolecular_energy": 2.731, "internal_energy": -0.839}

$$$$
EPH_relaxed_0001_pdb2pqr_Repair_417_r2_0001_out
     RDKit          3D

 82 86  0  0  0  0  0  0  0  0999 V2000
    0.4940   18.4150   -0.0550 C   0  0  0  0  0  0  0  0  0  0  0  0
    1.5450   17.3220   -0.2680 C   0  0  2  0  0  0  0  0  0  0  0  0
    2.7840   17.8460   -1.0210 C   0  0  0  0  0  0  0  0  0  0  0  0
    4.0120   18.0390   -0.1280 C   0  0  0  0  0  0  0  0  0  0  0  0
    3.6320   18.5100    1.2430 C   0  0  2  0  0  0  0  0  0  0  0  0
    3.8060   19.9160    1.4620 O   0  0  0  0  0  0  0  0  0  0  0  0
    4.6320   19.0440    2.2510 C   0  0  0  0  0  0  0  0  0  0  0  0
    6.0910   19.1330    1.9310 C   0  0  0  0  0  0  0  0  0  0  0  0
    4.2670   19.0200    3.7030 C   0  0  0  0  0  0  0  0  0  0  0  0
    0.9300   16.1520   -1.0260 C   0  0  1  0  0  0  0  0  0  0  0  0
    0.7540   16.4470   -2.5400 C   0  0  0  0  0  0  0  0  0  0  0  0
    1.0010   15.1120   -3.2880 C   0  0  0  0  0  0  0  0  0  0  0  0
    0.9820   14.0340   -2.1790 C   0  0  1  0  0  0  0  0  0  0  0  0
   -0.5310   13.7530   -1.9180 C   0  0  0  0  0  0  0  0  0  0  0  0
    1.7700   12.7180   -2.4810 C   0  0  2  0  0  0  0  0  0  0  0  0
    1.2490   11.9060   -3.6800 C   0  0  0  0  0  0  0  0  0  0  0  0
    0.2150   10.8800   -3.3550 C   0  0  0  0  0  0  0  0  0  0  0  0
   -0.0720   10.4220   -2.1220 C   0  0  0  0  0  0  0  0  0  0  0  0
    0.7470   10.8720   -0.9050 C   0  0  1  0  0  0  0  0  0  0  0  0
    1.1160    9.6350   -0.0440 C   0  0  0  0  0  0  0  0  0  0  0  0
   -0.1050    8.8080    0.3470 C   0  0  0  0  0  0  0  0  0  0  0  0
   -0.8600    8.3310   -0.8910 C   0  0  2  0  0  0  0  0  0  0  0  0
   -0.0370    7.3990   -1.6010 O   0  0  0  0  0  0  0  0  0  0  0  0
   -1.2750    9.4900   -1.8400 C   0  0  0  0  0  0  0  0  0  0  0  0
   -2.3950   10.3290   -1.1760 C   0  0  0  0  0  0  0  0  0  0  0  0
   -1.9010    8.8620   -3.1140 C   0  0  0  0  0  0  0  0  0  0  0  0
    2.0020   11.7960   -1.2160 C   0  0  1  0  0  0  0  0  0  0  0  0
    3.2480   10.9130   -1.5300 C   0  0  0  0  0  0  0  0  0  0  0  0
    2.3600   12.6270    0.0730 C   0  0  0  0  0  0  0  0  0  0  0  0
    1.6360   13.9750    0.2540 C   0  0  0  0  0  0  0  0  0  0  0  0
    1.7120   14.8140   -1.0250 C   0  0  2  0  0  0  0  0  0  0  0  0
    3.2210   15.1310   -1.3000 C   0  0  0  0  0  0  0  0  0  0  0  0
    0.3423   18.5727    1.0230 H   0  0  0  0  0  0  0  0  0  0  0  0
    0.8397   19.3513   -0.5175 H   0  0  0  0  0  0  0  0  0  0  0  0
   -0.4551   18.1062   -0.5175 H   0  0  0  0  0  0  0  0  0  0  0  0
    1.8806   16.9870    0.7245 H   0  0  0  0  0  0  0  0  0  0  0  0
    3.0398   17.1256   -1.8120 H   0  0  0  0  0  0  0  0  0  0  0  0
    2.5207   18.8355   -1.4229 H   0  0  0  0  0  0  0  0  0  0  0  0
    4.5436   17.0799   -0.0408 H   0  0  0  0  0  0  0  0  0  0  0  0
    4.6535   18.8050   -0.5881 H   0  0  0  0  0  0  0  0  0  0  0  0
    2.8500   17.7399    1.3168 H   0  0  0  0  0  0  0  0  0  0  0  0
    6.6699   19.1683    2.8657 H   0  0  0  0  0  0  0  0  0  0  0  0
    6.3925   18.2516    1.3460 H   0  0  0  0  0  0  0  0  0  0  0  0
    6.2831   20.0445    1.3460 H   0  0  0  0  0  0  0  0  0  0  0  0
    5.1811   19.0801    4.3119 H   0  0  0  0  0  0  0  0  0  0  0  0
    3.6169   19.8773    3.9319 H   0  0  0  0  0  0  0  0  0  0  0  0
    3.7348   18.0849    3.9319 H   0  0  0  0  0  0  0  0  0  0  0  0
   -0.0083   16.0404   -0.4628 H   0  0  0  0  0  0  0  0  0  0  0  0
   -0.2652   16.8097   -2.7392 H   0  0  0  0  0  0  0  0  0  0  0  0
    1.4575   17.2233   -2.8753 H   0  0  0  0  0  0  0  0  0  0  0  0
    0.2048   14.9261   -4.0239 H   0  0  0  0  0  0  0  0  0  0  0  0
    1.9473   15.1169   -3.8487 H   0  0  0  0  0  0  0  0  0  0  0  0
   -0.7159   13.7187   -0.8342 H   0  0  0  0  0  0  0  0  0  0  0  0
   -1.1357   14.5542   -2.3679 H   0  0  0  0  0  0  0  0  0  0  0  0
   -0.8077   12.7881   -2.3679 H   0  0  0  0  0  0  0  0  0  0  0  0
    2.7567   13.0986   -2.7836 H   0  0  0  0  0  0  0  0  0  0  0  0
    0.8130   12.6104   -4.4037 H   0  0  0  0  0  0  0  0  0  0  0  0
    2.1149   11.3517   -4.0710 H   0  0  0  0  0  0  0  0  0  0  0  0
   -0.3613   10.4627   -4.1939 H   0  0  0  0  0  0  0  0  0  0  0  0
    0.0937   11.5455   -0.3309 H   0  0  0  0  0  0  0  0  0  0  0  0
    1.8038    8.9978   -0.6191 H   0  0  0  0  0  0  0  0  0  0  0  0
    1.5818   10.0008    0.8829 H   0  0  0  0  0  0  0  0  0  0  0  0
    0.2235    7.9333    0.9276 H   0  0  0  0  0  0  0  0  0  0  0  0
   -0.7779    9.4377    0.9477 H   0  0  0  0  0  0  0  0  0  0  0  0
   -1.7920    7.8581   -0.5479 H   0  0  0  0  0  0  0  0  0  0  0  0
    0.4110    7.8860   -2.3130 H   0  0  0  0  0  0  0  0  0  0  0  0
   -2.3043   10.2611   -0.0819 H   0  0  0  0  0  0  0  0  0  0  0  0
   -2.2996   11.3797   -1.4873 H   0  0  0  0  0  0  0  0  0  0  0  0
   -3.3765    9.9421   -1.4873 H   0  0  0  0  0  0  0  0  0  0  0  0
   -2.6498    8.1108   -2.8225 H   0  0  0  0  0  0  0  0  0  0  0  0
   -2.3845    9.6492   -3.7112 H   0  0  0  0  0  0  0  0  0  0  0  0
   -1.1123    8.3810   -3.7112 H   0  0  0  0  0  0  0  0  0  0  0  0
    3.7114   10.5846   -0.5880 H   0  0  0  0  0  0  0  0  0  0  0  0
    2.9365   10.0329   -2.1118 H   0  0  0  0  0  0  0  0  0  0  0  0
    3.9751   11.4985   -2.1118 H   0  0  0  0  0  0  0  0  0  0  0  0
    2.1244   12.0027    0.9475 H   0  0  0  0  0  0  0  0  0  0  0  0
    3.4239   12.8842   -0.0367 H   0  0  0  0  0  0  0  0  0  0  0  0
    0.5802   13.7864    0.4985 H   0  0  0  0  0  0  0  0  0  0  0  0
    2.1263   14.5301    1.0673 H   0  0  0  0  0  0  0  0  0  0  0  0
    3.7525   15.2426   -0.3434 H   0  0  0  0  0  0  0  0  0  0  0  0
    3.6698   14.3075   -1.8749 H   0  0  0  0  0  0  0  0  0  0  0  0
    3.3005   16.0655   -1.8749 H   0  0  0  0  0  0  0  0  0  0  0  0
  1  2  1  0
  2  3  1  0
  3  4  1  0
  4  5  1  0
  5  6  1  0
  6  7  1  0
  7  8  1  0
  7  9  1  0
  2 10  1  0
 10 11  1  0
 11 12  1  0
 12 13  1  0
 13 14  1  1
 13 15  1  0
 15 16  1  0
 16 17  1  0
 17 18  2  0
 18 19  1  0
 19 20  1  0
 20 21  1  0
 21 22  1  0
 22 23  1  0
 22 24  1  0
 24 25  1  0
 24 26  1  0
 19 27  1  0
 27 28  1  6
 27 29  1  0
 29 30  1  0
 30 31  1  0
 31 32  1  6
  7  5  1  0
 31 10  1  0
 31 13  1  0
 27 15  1  0
 24 18  1  0
  1 33  1  0
  1 34  1  0
  1 35  1  0
  2 36  1  1
  3 37  1  0
  3 38  1  0
  4 39  1  0
  4 40  1  0
  5 41  1  1
  8 42  1  0
  8 43  1  0
  8 44  1  0
  9 45  1  0
  9 46  1  0
  9 47  1  0
 10 48  1  1
 11 49  1  0
 11 50  1  0
 12 51  1  0
 12 52  1  0
 14 53  1  0
 14 54  1  0
 14 55  1  0
 15 56  1  6
 16 57  1  0
 16 58  1  0
 17 59  1  0
 19 60  1  1
 20 61  1  0
 20 62  1  0
 21 63  1  0
 21 64  1  0
 22 65  1  1
 23 66  1  0
 25 67  1  0
 25 68  1  0
 25 69  1  0
 26 70  1  0
 26 71  1  0
 26 72  1  0
 28 73  1  0
 28 74  1  0
 28 75  1  0
 29 76  1  0
 29 77  1  0
 30 78  1  0
 30 79  1  0
 32 80  1  0
 32 81  1  0
 32 82  1  0
M  END
>  <meeko>  (6) 
{"is_sidechain": [false], "intermolecular_energy": 2.731, "internal_energy": -0.839}

$$$$
EPH_relaxed_0001_pdb2pqr_Repair_417_r2_0001_out
     RDKit          3D

 82 86  0  0  0  0  0  0  0  0999 V2000
    3.9050   17.1830    0.5090 C   0  0  0  0  0  0  0  0  0  0  0  0
    2.9050   17.4520   -0.6200 C   0  0  2  0  0  0  0  0  0  0  0  0
    2.3160   18.8750   -0.5470 C   0  0  0  0  0  0  0  0  0  0  0  0
    1.4660   19.1260    0.7020 C   0  0  0  0  0  0  0  0  0  0  0  0
    0.2490   19.9420    0.3890 C   0  0  2  0  0  0  0  0  0  0  0  0
   -0.6080   20.1940    1.5110 O   0  0  0  0  0  0  0  0  0  0  0  0
   -1.1650   19.3950    0.4540 C   0  0  0  0  0  0  0  0  0  0  0  0
   -1.4350   17.9750    0.8420 C   0  0  0  0  0  0  0  0  0  0  0  0
   -2.2380   20.0900   -0.3250 C   0  0  0  0  0  0  0  0  0  0  0  0
    1.7840   16.4210   -0.5770 C   0  0  1  0  0  0  0  0  0  0  0  0
    0.4050   17.0210   -0.9620 C   0  0  0  0  0  0  0  0  0  0  0  0
   -0.3690   15.9130   -1.7210 C   0  0  0  0  0  0  0  0  0  0  0  0
    0.4430   14.6230   -1.4620 C   0  0  1  0  0  0  0  0  0  0  0  0
   -0.0080   14.1420   -0.0470 C   0  0  0  0  0  0  0  0  0  0  0  0
    0.2980   13.4890   -2.5300 C   0  0  2  0  0  0  0  0  0  0  0  0
   -1.1210   12.9120   -2.6800 C   0  0  0  0  0  0  0  0  0  0  0  0
   -1.4290   11.7420   -1.8060 C   0  0  0  0  0  0  0  0  0  0  0  0
   -0.5220   10.9990   -1.1440 C   0  0  0  0  0  0  0  0  0  0  0  0
    0.9810   11.2510   -1.3200 C   0  0  1  0  0  0  0  0  0  0  0  0
    1.7100    9.8990   -1.5370 C   0  0  0  0  0  0  0  0  0  0  0  0
    1.4130    8.8900   -0.4330 C   0  0  0  0  0  0  0  0  0  0  0  0
   -0.0870    8.6220   -0.3280 C   0  0  2  0  0  0  0  0  0  0  0  0
   -0.5200    7.9550   -1.5170 O   0  0  0  0  0  0  0  0  0  0  0  0
   -0.9260    9.9130   -0.1170 C   0  0  0  0  0  0  0  0  0  0  0  0
   -0.6740   10.4710    1.3050 C   0  0  0  0  0  0  0  0  0  0  0  0
   -2.4270    9.5200   -0.1700 C   0  0  0  0  0  0  0  0  0  0  0  0
    1.3790   12.3410   -2.4060 C   0  0  1  0  0  0  0  0  0  0  0  0
    1.4850   11.6760   -3.8130 C   0  0  0  0  0  0  0  0  0  0  0  0
    2.8120   12.9010   -2.0710 C   0  0  0  0  0  0  0  0  0  0  0  0
    2.8810   14.0980   -1.1030 C   0  0  0  0  0  0  0  0  0  0  0  0
    1.9040   15.2000   -1.5230 C   0  0  2  0  0  0  0  0  0  0  0  0
    2.3460   15.7180   -2.9340 C   0  0  0  0  0  0  0  0  0  0  0  0
    3.4063   17.3172    1.4802 H   0  0  0  0  0  0  0  0  0  0  0  0
    4.2801   16.1520    0.4287 H   0  0  0  0  0  0  0  0  0  0  0  0
    4.7467   17.8867    0.4287 H   0  0  0  0  0  0  0  0  0  0  0  0
    3.4498   17.3692   -1.5720 H   0  0  0  0  0  0  0  0  0  0  0  0
    3.1471   19.5956   -0.5520 H   0  0  0  0  0  0  0  0  0  0  0  0
    1.6527   18.9934   -1.4165 H   0  0  0  0  0  0  0  0  0  0  0  0
    1.1491   18.1583    1.1180 H   0  0  0  0  0  0  0  0  0  0  0  0
    2.0769   19.6851    1.4260 H   0  0  0  0  0  0  0  0  0  0  0  0
    0.7913   20.4936   -0.3931 H   0  0  0  0  0  0  0  0  0  0  0  0
   -1.4509   17.8912    1.9387 H   0  0  0  0  0  0  0  0  0  0  0  0
   -2.4086   17.6628    0.4362 H   0  0  0  0  0  0  0  0  0  0  0  0
   -0.6439   17.3273    0.4362 H   0  0  0  0  0  0  0  0  0  0  0  0
   -2.9537   20.5536    0.3698 H   0  0  0  0  0  0  0  0  0  0  0  0
   -1.7861   20.8674   -0.9586 H   0  0  0  0  0  0  0  0  0  0  0  0
   -2.7626   19.3597   -0.9586 H   0  0  0  0  0  0  0  0  0  0  0  0
    1.8727   16.0962    0.4702 H   0  0  0  0  0  0  0  0  0  0  0  0
   -0.1460   17.3155   -0.0566 H   0  0  0  0  0  0  0  0  0  0  0  0
    0.5254   17.9178   -1.5875 H   0  0  0  0  0  0  0  0  0  0  0  0
   -1.3913   15.8140   -1.3272 H   0  0  0  0  0  0  0  0  0  0  0  0
   -0.4695   16.1344   -2.7938 H   0  0  0  0  0  0  0  0  0  0  0  0
    0.5291   14.7148    0.7234 H   0  0  0  0  0  0  0  0  0  0  0  0
   -1.0906   14.3005    0.0663 H   0  0  0  0  0  0  0  0  0  0  0  0
    0.2198   13.0718    0.0663 H   0  0  0  0  0  0  0  0  0  0  0  0
    0.5046   14.0214   -3.4701 H   0  0  0  0  0  0  0  0  0  0  0  0
   -1.8395   13.7109   -2.4442 H   0  0  0  0  0  0  0  0  0  0  0  0
   -1.1930   12.5462   -3.7149 H   0  0  0  0  0  0  0  0  0  0  0  0
   -2.4870   11.4630   -1.6931 H   0  0  0  0  0  0  0  0  0  0  0  0
    1.3240   11.7139   -0.3830 H   0  0  0  0  0  0  0  0  0  0  0  0
    1.3865    9.4745   -2.4988 H   0  0  0  0  0  0  0  0  0  0  0  0
    2.7918   10.0977   -1.5251 H   0  0  0  0  0  0  0  0  0  0  0  0
    1.9324    7.9468   -0.6580 H   0  0  0  0  0  0  0  0  0  0  0  0
    1.7638    9.3032    0.5242 H   0  0  0  0  0  0  0  0  0  0  0  0
   -0.2492    7.9942    0.5606 H   0  0  0  0  0  0  0  0  0  0  0  0
    0.1990    7.3670   -1.8030 H   0  0  0  0  0  0  0  0  0  0  0  0
   -1.0064    9.7350    2.0519 H   0  0  0  0  0  0  0  0  0  0  0  0
    0.4003   10.6676    1.4367 H   0  0  0  0  0  0  0  0  0  0  0  0
   -1.2368   11.4069    1.4367 H   0  0  0  0  0  0  0  0  0  0  0  0
   -2.8157    9.4182    0.8540 H   0  0  0  0  0  0  0  0  0  0  0  0
   -2.9919   10.3005   -0.7008 H   0  0  0  0  0  0  0  0  0  0  0  0
   -2.5369    8.5628   -0.7008 H   0  0  0  0  0  0  0  0  0  0  0  0
    1.6572   10.5959   -3.6960 H   0  0  0  0  0  0  0  0  0  0  0  0
    0.5493   11.8402   -4.3676 H   0  0  0  0  0  0  0  0  0  0  0  0
    2.3232   12.1230   -4.3676 H   0  0  0  0  0  0  0  0  0  0  0  0
    3.3948   12.0802   -1.6275 H   0  0  0  0  0  0  0  0  0  0  0  0
    3.2036   13.2803   -3.0264 H   0  0  0  0  0  0  0  0  0  0  0  0
    2.6239   13.7564   -0.0895 H   0  0  0  0  0  0  0  0  0  0  0  0
    3.9017   14.5076   -1.1241 H   0  0  0  0  0  0  0  0  0  0  0  0
    3.0557   16.5497   -2.8135 H   0  0  0  0  0  0  0  0  0  0  0  0
    2.8295   14.9010   -3.4896 H   0  0  0  0  0  0  0  0  0  0  0  0
    1.4631   16.0670   -3.4896 H   0  0  0  0  0  0  0  0  0  0  0  0
  1  2  1  0
  2  3  1  0
  3  4  1  0
  4  5  1  0
  5  6  1  0
  6  7  1  0
  7  8  1  0
  7  9  1  0
  2 10  1  0
 10 11  1  0
 11 12  1  0
 12 13  1  0
 13 14  1  1
 13 15  1  0
 15 16  1  0
 16 17  1  0
 17 18  2  0
 18 19  1  0
 19 20  1  0
 20 21  1  0
 21 22  1  0
 22 23  1  0
 22 24  1  0
 24 25  1  0
 24 26  1  0
 19 27  1  0
 27 28  1  6
 27 29  1  0
 29 30  1  0
 30 31  1  0
 31 32  1  6
  7  5  1  0
 31 10  1  0
 31 13  1  0
 27 15  1  0
 24 18  1  0
  1 33  1  0
  1 34  1  0
  1 35  1  0
  2 36  1  6
  3 37  1  0
  3 38  1  0
  4 39  1  0
  4 40  1  0
  5 41  1  6
  8 42  1  0
  8 43  1  0
  8 44  1  0
  9 45  1  0
  9 46  1  0
  9 47  1  0
 10 48  1  1
 11 49  1  0
 11 50  1  0
 12 51  1  0
 12 52  1  0
 14 53  1  0
 14 54  1  0
 14 55  1  0
 15 56  1  6
 16 57  1  0
 16 58  1  0
 17 59  1  0
 19 60  1  1
 20 61  1  0
 20 62  1  0
 21 63  1  0
 21 64  1  0
 22 65  1  1
 23 66  1  0
 25 67  1  0
 25 68  1  0
 25 69  1  0
 26 70  1  0
 26 71  1  0
 26 72  1  0
 28 73  1  0
 28 74  1  0
 28 75  1  0
 29 76  1  0
 29 77  1  0
 30 78  1  0
 30 79  1  0
 32 80  1  0
 32 81  1  0
 32 82  1  0
M  END
>  <meeko>  (7) 
{"is_sidechain": [false], "intermolecular_energy": 2.731, "internal_energy": -0.839}

$$$$
EPH_relaxed_0001_pdb2pqr_Repair_417_r2_0001_out
     RDKit          3D

 82 86  0  0  0  0  0  0  0  0999 V2000
   -5.2260    5.7550   -1.5680 C   0  0  0  0  0  0  0  0  0  0  0  0
   -5.4660    7.2590   -1.7310 C   0  0  2  0  0  0  0  0  0  0  0  0
   -5.2090    8.0330   -0.4230 C   0  0  0  0  0  0  0  0  0  0  0  0
   -4.2320    9.2010   -0.5820 C   0  0  0  0  0  0  0  0  0  0  0  0
   -2.8390    8.8170   -0.1810 C   0  0  2  0  0  0  0  0  0  0  0  0
   -2.2580    9.6470    0.8330 O   0  0  0  0  0  0  0  0  0  0  0  0
   -1.6220    9.6800   -0.4550 C   0  0  0  0  0  0  0  0  0  0  0  0
   -1.7400   10.9950   -1.1590 C   0  0  0  0  0  0  0  0  0  0  0  0
   -0.2740    9.0290   -0.4790 C   0  0  0  0  0  0  0  0  0  0  0  0
   -6.8910    7.5080   -2.2130 C   0  0  1  0  0  0  0  0  0  0  0  0
   -7.1940    6.8120   -3.5660 C   0  0  0  0  0  0  0  0  0  0  0  0
   -8.6780    6.3650   -3.5170 C   0  0  0  0  0  0  0  0  0  0  0  0
   -9.2660    7.1020   -2.2910 C   0  0  1  0  0  0  0  0  0  0  0  0
   -9.5860    8.5410   -2.8040 C   0  0  0  0  0  0  0  0  0  0  0  0
  -10.5120    6.4390   -1.6190 C   0  0  2  0  0  0  0  0  0  0  0  0
  -11.7580    6.3310   -2.5160 C   0  0  0  0  0  0  0  0  0  0  0  0
  -12.6930    7.4930   -2.4510 C   0  0  0  0  0  0  0  0  0  0  0  0
  -12.6910    8.4460   -1.5000 C   0  0  0  0  0  0  0  0  0  0  0  0
  -11.7420    8.3580   -0.2980 C   0  0  1  0  0  0  0  0  0  0  0  0
  -12.5280    8.6570    1.0050 C   0  0  0  0  0  0  0  0  0  0  0  0
  -13.2740    9.9860    0.9470 C   0  0  0  0  0  0  0  0  0  0  0  0
  -14.2500   10.0130   -0.2260 C   0  0  2  0  0  0  0  0  0  0  0  0
  -15.2870    9.0580    0.0140 O   0  0  0  0  0  0  0  0  0  0  0  0
  -13.5720    9.7160   -1.5930 C   0  0  0  0  0  0  0  0  0  0  0  0
  -12.6680   10.9070   -1.9960 C   0  0  0  0  0  0  0  0  0  0  0  0
  -14.6870    9.6340   -2.6710 C   0  0  0  0  0  0  0  0  0  0  0  0
  -10.8740    7.0310   -0.1960 C   0  0  1  0  0  0  0  0  0  0  0  0
  -11.6770    5.9260    0.5550 C   0  0  0  0  0  0  0  0  0  0  0  0
   -9.5940    7.3200    0.6740 C   0  0  0  0  0  0  0  0  0  0  0  0
   -8.3570    7.8610   -0.0670 C   0  0  0  0  0  0  0  0  0  0  0  0
   -8.0450    7.0140   -1.3050 C   0  0  2  0  0  0  0  0  0  0  0  0
   -7.6980    5.5660   -0.8190 C   0  0  0  0  0  0  0  0  0  0  0  0
   -5.1859    5.5040   -0.4978 H   0  0  0  0  0  0  0  0  0  0  0  0
   -6.0468    5.1989   -2.0446 H   0  0  0  0  0  0  0  0  0  0  0  0
   -4.2729    5.4820   -2.0446 H   0  0  0  0  0  0  0  0  0  0  0  0
   -4.7501    7.6297   -2.4794 H   0  0  0  0  0  0  0  0  0  0  0  0
   -6.1685    8.4296   -0.0597 H   0  0  0  0  0  0  0  0  0  0  0  0
   -4.7527    7.3257    0.2852 H   0  0  0  0  0  0  0  0  0  0  0  0
   -4.2250    9.5192   -1.6350 H   0  0  0  0  0  0  0  0  0  0  0  0
   -4.5649   10.0185    0.0744 H   0  0  0  0  0  0  0  0  0  0  0  0
   -3.0497    7.7553   -0.3771 H   0  0  0  0  0  0  0  0  0  0  0  0
   -1.8125   11.8033   -0.4164 H   0  0  0  0  0  0  0  0  0  0  0  0
   -0.8526   11.1545   -1.7891 H   0  0  0  0  0  0  0  0  0  0  0  0
   -2.6417   10.9940   -1.7891 H   0  0  0  0  0  0  0  0  0  0  0  0
    0.0711    8.8623    0.5521 H   0  0  0  0  0  0  0  0  0  0  0  0
   -0.3419    8.0644   -1.0034 H   0  0  0  0  0  0  0  0  0  0  0  0
    0.4392    9.6819   -1.0034 H   0  0  0  0  0  0  0  0  0  0  0  0
   -6.8844    8.6074   -2.2485 H   0  0  0  0  0  0  0  0  0  0  0  0
   -7.0376    7.5154   -4.3971 H   0  0  0  0  0  0  0  0  0  0  0  0
   -6.5275    5.9515   -3.7254 H   0  0  0  0  0  0  0  0  0  0  0  0
   -9.2035    6.6609   -4.4370 H   0  0  0  0  0  0  0  0  0  0  0  0
   -8.7828    5.2729   -3.4375 H   0  0  0  0  0  0  0  0  0  0  0  0
   -9.7352    9.2118   -1.9450 H   0  0  0  0  0  0  0  0  0  0  0  0
   -8.7474    8.9076   -3.4142 H   0  0  0  0  0  0  0  0  0  0  0  0
  -10.5009    8.5177   -3.4142 H   0  0  0  0  0  0  0  0  0  0  0  0
  -10.1698    5.4061   -1.4574 H   0  0  0  0  0  0  0  0  0  0  0  0
  -11.4192    6.2252   -3.5572 H   0  0  0  0  0  0  0  0  0  0  0  0
  -12.3246    5.4634   -2.1468 H   0  0  0  0  0  0  0  0  0  0  0  0
  -13.4472    7.5777   -3.2473 H   0  0  0  0  0  0  0  0  0  0  0  0
  -10.9763    9.1314   -0.4577 H   0  0  0  0  0  0  0  0  0  0  0  0
  -13.2574    7.8502    1.1696 H   0  0  0  0  0  0  0  0  0  0  0  0
  -11.7998    8.7189    1.8271 H   0  0  0  0  0  0  0  0  0  0  0  0
  -13.8332   10.1261    1.8839 H   0  0  0  0  0  0  0  0  0  0  0  0
  -12.5406   10.7947    0.8121 H   0  0  0  0  0  0  0  0  0  0  0  0
  -14.6576   11.0325   -0.2924 H   0  0  0  0  0  0  0  0  0  0  0  0
  -14.8630    8.2180    0.2590 H   0  0  0  0  0  0  0  0  0  0  0  0
  -12.2908   11.4040   -1.0901 H   0  0  0  0  0  0  0  0  0  0  0  0
  -11.8201   10.5385   -2.5921 H   0  0  0  0  0  0  0  0  0  0  0  0
  -13.2509   11.6245   -2.5921 H   0  0  0  0  0  0  0  0  0  0  0  0
  -15.6682    9.5618   -2.1789 H   0  0  0  0  0  0  0  0  0  0  0  0
  -14.6572   10.5368   -3.2988 H   0  0  0  0  0  0  0  0  0  0  0  0
  -14.5254    8.7453   -3.2988 H   0  0  0  0  0  0  0  0  0  0  0  0
  -11.5722    6.0703    1.6404 H   0  0  0  0  0  0  0  0  0  0  0  0
  -12.7393    5.9920    0.2773 H   0  0  0  0  0  0  0  0  0  0  0  0
  -11.2862    4.9360    0.2773 H   0  0  0  0  0  0  0  0  0  0  0  0
   -9.8724    8.0588    1.4399 H   0  0  0  0  0  0  0  0  0  0  0  0
   -9.2871    6.3399    1.0680 H   0  0  0  0  0  0  0  0  0  0  0  0
   -8.5498    8.8978   -0.3797 H   0  0  0  0  0  0  0  0  0  0  0  0
   -7.4940    7.8181    0.6137 H   0  0  0  0  0  0  0  0  0  0  0  0
   -7.6918    5.5400    0.2807 H   0  0  0  0  0  0  0  0  0  0  0  0
   -8.4527    4.8613   -1.1982 H   0  0  0  0  0  0  0  0  0  0  0  0
   -6.7059    5.2799   -1.1982 H   0  0  0  0  0  0  0  0  0  0  0  0
  1  2  1  0
  2  3  1  0
  3  4  1  0
  4  5  1  0
  5  6  1  0
  6  7  1  0
  7  8  1  0
  7  9  1  0
  2 10  1  0
 10 11  1  0
 11 12  1  0
 12 13  1  0
 13 14  1  6
 13 15  1  0
 15 16  1  0
 16 17  1  0
 17 18  2  0
 18 19  1  0
 19 20  1  0
 20 21  1  0
 21 22  1  0
 22 23  1  0
 22 24  1  0
 24 25  1  0
 24 26  1  0
 19 27  1  0
 27 28  1  1
 27 29  1  0
 29 30  1  0
 30 31  1  0
 31 32  1  1
  7  5  1  0
 31 10  1  0
 31 13  1  0
 27 15  1  0
 24 18  1  0
  1 33  1  0
  1 34  1  0
  1 35  1  0
  2 36  1  6
  3 37  1  0
  3 38  1  0
  4 39  1  0
  4 40  1  0
  5 41  1  1
  8 42  1  0
  8 43  1  0
  8 44  1  0
  9 45  1  0
  9 46  1  0
  9 47  1  0
 10 48  1  6
 11 49  1  0
 11 50  1  0
 12 51  1  0
 12 52  1  0
 14 53  1  0
 14 54  1  0
 14 55  1  0
 15 56  1  1
 16 57  1  0
 16 58  1  0
 17 59  1  0
 19 60  1  6
 20 61  1  0
 20 62  1  0
 21 63  1  0
 21 64  1  0
 22 65  1  6
 23 66  1  0
 25 67  1  0
 25 68  1  0
 25 69  1  0
 26 70  1  0
 26 71  1  0
 26 72  1  0
 28 73  1  0
 28 74  1  0
 28 75  1  0
 29 76  1  0
 29 77  1  0
 30 78  1  0
 30 79  1  0
 32 80  1  0
 32 81  1  0
 32 82  1  0
M  END
>  <meeko>  (8) 
{"is_sidechain": [false], "intermolecular_energy": 2.731, "internal_energy": -0.839}

$$$$
EPH_relaxed_0001_pdb2pqr_Repair_417_r2_0001_out
     RDKit          3D

 82 86  0  0  0  0  0  0  0  0999 V2000
    0.3310    8.8990   -2.6650 C   0  0  0  0  0  0  0  0  0  0  0  0
    1.1170   10.0580   -3.2850 C   0  0  2  0  0  0  0  0  0  0  0  0
    2.6050   10.0300   -2.8850 C   0  0  0  0  0  0  0  0  0  0  0  0
    3.5370   10.6390   -3.9360 C   0  0  0  0  0  0  0  0  0  0  0  0
    4.9200   10.8490   -3.3970 C   0  0  2  0  0  0  0  0  0  0  0  0
    5.5530   12.0610   -3.8270 O   0  0  0  0  0  0  0  0  0  0  0  0
    6.1660   10.8370   -4.2620 C   0  0  0  0  0  0  0  0  0  0  0  0
    6.0880   10.6080   -5.7390 C   0  0  0  0  0  0  0  0  0  0  0  0
    7.4860   10.5590   -3.6120 C   0  0  0  0  0  0  0  0  0  0  0  0
    0.4920   11.3870   -2.8770 C   0  0  1  0  0  0  0  0  0  0  0  0
   -0.9010   11.2140   -2.2140 C   0  0  0  0  0  0  0  0  0  0  0  0
   -1.0180   12.3130   -1.1270 C   0  0  0  0  0  0  0  0  0  0  0  0
    0.1540   13.2790   -1.4200 C   0  0  1  0  0  0  0  0  0  0  0  0
   -0.3590   14.1920   -2.5780 C   0  0  0  0  0  0  0  0  0  0  0  0
    0.6760   14.1200   -0.2100 C   0  0  2  0  0  0  0  0  0  0  0  0
   -0.3500   15.0900    0.4020 C   0  0  0  0  0  0  0  0  0  0  0  0
   -0.3600   16.4620   -0.1860 C   0  0  0  0  0  0  0  0  0  0  0  0
    0.6050   16.9870   -0.9630 C   0  0  0  0  0  0  0  0  0  0  0  0
    1.8990   16.2120   -1.2430 C   0  0  1  0  0  0  0  0  0  0  0  0
    3.1180   17.1520   -1.0520 C   0  0  0  0  0  0  0  0  0  0  0  0
    3.0090   18.4270   -1.8840 C   0  0  0  0  0  0  0  0  0  0  0  0
    1.7400   19.1990   -1.5360 C   0  0  2  0  0  0  0  0  0  0  0  0
    1.8480   19.6830   -0.1930 O   0  0  0  0  0  0  0  0  0  0  0  0
    0.4460   18.3490   -1.6810 C   0  0  0  0  0  0  0  0  0  0  0  0
    0.1670   18.0790   -3.1810 C   0  0  0  0  0  0  0  0  0  0  0  0
   -0.7450   19.2010   -1.1650 C   0  0  0  0  0  0  0  0  0  0  0  0
    2.0640   14.8340   -0.4680 C   0  0  1  0  0  0  0  0  0  0  0  0
    2.7020   15.0850    0.9330 C   0  0  0  0  0  0  0  0  0  0  0  0
    3.0710   13.9170   -1.2570 C   0  0  0  0  0  0  0  0  0  0  0  0
    2.4770   13.0210   -2.3610 C   0  0  0  0  0  0  0  0  0  0  0  0
    1.2620   12.2470   -1.8430 C   0  0  2  0  0  0  0  0  0  0  0  0
    1.7510   11.3030   -0.6920 C   0  0  0  0  0  0  0  0  0  0  0  0
    0.3785    8.9690   -1.5683 H   0  0  0  0  0  0  0  0  0  0  0  0
   -0.7183    8.9519   -2.9907 H   0  0  0  0  0  0  0  0  0  0  0  0
    0.7683    7.9437   -2.9907 H   0  0  0  0  0  0  0  0  0  0  0  0
    1.0674    9.9443   -4.3780 H   0  0  0  0  0  0  0  0  0  0  0  0
    2.7232   10.5937   -1.9478 H   0  0  0  0  0  0  0  0  0  0  0  0
    2.8890    8.9727   -2.7779 H   0  0  0  0  0  0  0  0  0  0  0  0
    3.5907    9.9608   -4.8004 H   0  0  0  0  0  0  0  0  0  0  0  0
    3.1306   11.6187   -4.2276 H   0  0  0  0  0  0  0  0  0  0  0  0
    4.6625   10.3214   -2.4668 H   0  0  0  0  0  0  0  0  0  0  0  0
    5.7389    9.5831   -5.9332 H   0  0  0  0  0  0  0  0  0  0  0  0
    5.3837   11.3259   -6.1847 H   0  0  0  0  0  0  0  0  0  0  0  0
    7.0841   10.7467   -6.1847 H   0  0  0  0  0  0  0  0  0  0  0  0
    7.3687   10.5837   -2.5186 H   0  0  0  0  0  0  0  0  0  0  0  0
    7.8444    9.5657   -3.9200 H   0  0  0  0  0  0  0  0  0  0  0  0
    8.2146   11.3234   -3.9200 H   0  0  0  0  0  0  0  0  0  0  0  0
    0.4807   11.8931   -3.8536 H   0  0  0  0  0  0  0  0  0  0  0  0
   -1.6957   11.3373   -2.9645 H   0  0  0  0  0  0  0  0  0  0  0  0
   -1.0079   10.2111   -1.7750 H   0  0  0  0  0  0  0  0  0  0  0  0
   -1.9820   12.8368   -1.2067 H   0  0  0  0  0  0  0  0  0  0  0  0
   -0.9723   11.8989   -0.1089 H   0  0  0  0  0  0  0  0  0  0  0  0
   -0.8563   15.0770   -2.1543 H   0  0  0  0  0  0  0  0  0  0  0  0
    0.4919   14.5111   -3.1978 H   0  0  0  0  0  0  0  0  0  0  0  0
   -1.0741   13.6312   -3.1978 H   0  0  0  0  0  0  0  0  0  0  0  0
    0.8508   13.3490    0.5549 H   0  0  0  0  0  0  0  0  0  0  0  0
   -1.3514   14.6551    0.2672 H   0  0  0  0  0  0  0  0  0  0  0  0
   -0.0613   15.2129    1.4563 H   0  0  0  0  0  0  0  0  0  0  0  0
   -1.2301   17.0978    0.0346 H   0  0  0  0  0  0  0  0  0  0  0  0
    1.8379   15.8887   -2.2927 H   0  0  0  0  0  0  0  0  0  0  0  0
    3.1869   17.4288    0.0104 H   0  0  0  0  0  0  0  0  0  0  0  0
    4.0142   16.6095   -1.3876 H   0  0  0  0  0  0  0  0  0  0  0  0
    3.8837   19.0633   -1.6837 H   0  0  0  0  0  0  0  0  0  0  0  0
    2.9703   18.1496   -2.9477 H   0  0  0  0  0  0  0  0  0  0  0  0
    1.6528   20.0291   -2.2524 H   0  0  0  0  0  0  0  0  0  0  0  0
    2.7650   19.9790   -0.0610 H   0  0  0  0  0  0  0  0  0  0  0  0
   -0.6205   17.3169   -3.2761 H   0  0  0  0  0  0  0  0  0  0  0  0
   -0.1629   19.0096   -3.6659 H   0  0  0  0  0  0  0  0  0  0  0  0
    1.0863   17.7188   -3.6659 H   0  0  0  0  0  0  0  0  0  0  0  0
   -0.7459   19.2017   -0.0650 H   0  0  0  0  0  0  0  0  0  0  0  0
   -0.6439   20.2330   -1.5322 H   0  0  0  0  0  0  0  0  0  0  0  0
   -1.6890   18.7720   -1.5322 H   0  0  0  0  0  0  0  0  0  0  0  0
    1.9851   14.8030    1.7182 H   0  0  0  0  0  0  0  0  0  0  0  0
    3.6142   14.4787    1.0344 H   0  0  0  0  0  0  0  0  0  0  0  0
    2.9566   16.1503    1.0344 H   0  0  0  0  0  0  0  0  0  0  0  0
    3.8193   14.5721   -1.7270 H   0  0  0  0  0  0  0  0  0  0  0  0
    3.4738   13.2204   -0.5070 H   0  0  0  0  0  0  0  0  0  0  0  0
    2.1681   13.6508   -3.2083 H   0  0  0  0  0  0  0  0  0  0  0  0
    3.2441   12.2991   -2.6778 H   0  0  0  0  0  0  0  0  0  0  0  0
    1.5150   11.7586    0.2810 H   0  0  0  0  0  0  0  0  0  0  0  0
    1.2431   10.3307   -0.7745 H   0  0  0  0  0  0  0  0  0  0  0  0
    2.8381   11.1570   -0.7745 H   0  0  0  0  0  0  0  0  0  0  0  0
  1  2  1  0
  2  3  1  0
  3  4  1  0
  4  5  1  0
  5  6  1  0
  6  7  1  0
  7  8  1  0
  7  9  1  0
  2 10  1  0
 10 11  1  0
 11 12  1  0
 12 13  1  0
 13 14  1  6
 13 15  1  0
 15 16  1  0
 16 17  1  0
 17 18  2  0
 18 19  1  0
 19 20  1  0
 20 21  1  0
 21 22  1  0
 22 23  1  0
 22 24  1  0
 24 25  1  0
 24 26  1  0
 19 27  1  0
 27 28  1  1
 27 29  1  0
 29 30  1  0
 30 31  1  0
 31 32  1  1
  7  5  1  0
 31 10  1  0
 31 13  1  0
 27 15  1  0
 24 18  1  0
  1 33  1  0
  1 34  1  0
  1 35  1  0
  2 36  1  6
  3 37  1  0
  3 38  1  0
  4 39  1  0
  4 40  1  0
  5 41  1  1
  8 42  1  0
  8 43  1  0
  8 44  1  0
  9 45  1  0
  9 46  1  0
  9 47  1  0
 10 48  1  6
 11 49  1  0
 11 50  1  0
 12 51  1  0
 12 52  1  0
 14 53  1  0
 14 54  1  0
 14 55  1  0
 15 56  1  1
 16 57  1  0
 16 58  1  0
 17 59  1  0
 19 60  1  6
 20 61  1  0
 20 62  1  0
 21 63  1  0
 21 64  1  0
 22 65  1  6
 23 66  1  0
 25 67  1  0
 25 68  1  0
 25 69  1  0
 26 70  1  0
 26 71  1  0
 26 72  1  0
 28 73  1  0
 28 74  1  0
 28 75  1  0
 29 76  1  0
 29 77  1  0
 30 78  1  0
 30 79  1  0
 32 80  1  0
 32 81  1  0
 32 82  1  0
M  END
>  <meeko>  (9) 
{"is_sidechain": [false], "intermolecular_energy": 2.731, "internal_energy": -0.839}

$$$$
EPH_relaxed_0001_pdb2pqr_Repair_417_r2_0001_out
     RDKit          3D

 82 86  0  0  0  0  0  0  0  0999 V2000
    1.1370   10.9370   -4.6320 C   0  0  0  0  0  0  0  0  0  0  0  0
    0.8330   10.4050   -3.2280 C   0  0  2  0  0  0  0  0  0  0  0  0
   -0.5480    9.7230   -3.1520 C   0  0  0  0  0  0  0  0  0  0  0  0
   -0.6780    8.7250   -1.9990 C   0  0  0  0  0  0  0  0  0  0  0  0
   -1.9880    8.8700   -1.2860 C   0  0  2  0  0  0  0  0  0  0  0  0
   -2.4870   10.2120   -1.2160 O   0  0  0  0  0  0  0  0  0  0  0  0
   -2.1450    9.5970    0.0370 C   0  0  0  0  0  0  0  0  0  0  0  0
   -0.9740   10.2260    0.7240 C   0  0  0  0  0  0  0  0  0  0  0  0
   -3.3290    9.2760    0.8940 C   0  0  0  0  0  0  0  0  0  0  0  0
    0.9100   11.5410   -2.2150 C   0  0  1  0  0  0  0  0  0  0  0  0
    1.9540   11.2760   -1.0980 C   0  0  0  0  0  0  0  0  0  0  0  0
    2.5750   12.6480   -0.7310 C   0  0  0  0  0  0  0  0  0  0  0  0
    1.6460   13.6880   -1.4000 C   0  0  1  0  0  0  0  0  0  0  0  0
    0.4370   13.8320   -0.4230 C   0  0  0  0  0  0  0  0  0  0  0  0
    2.2870   15.0740   -1.7330 C   0  0  2  0  0  0  0  0  0  0  0  0
    2.7840   15.8730   -0.5160 C   0  0  0  0  0  0  0  0  0  0  0  0
    1.7820   16.7980    0.0920 C   0  0  0  0  0  0  0  0  0  0  0  0
    0.6330   17.1950   -0.4850 C   0  0  0  0  0  0  0  0  0  0  0  0
    0.2890   16.7810   -1.9220 C   0  0  1  0  0  0  0  0  0  0  0  0
   -0.2120   18.0190   -2.7110 C   0  0  0  0  0  0  0  0  0  0  0  0
   -1.3700   18.7270   -2.0150 C   0  0  0  0  0  0  0  0  0  0  0  0
   -0.9710   19.1750   -0.6110 C   0  0  2  0  0  0  0  0  0  0  0  0
    0.0290   20.1930   -0.7190 O   0  0  0  0  0  0  0  0  0  0  0  0
   -0.4410   18.0130    0.2740 C   0  0  0  0  0  0  0  0  0  0  0  0
   -1.6080   17.0630    0.6400 C   0  0  0  0  0  0  0  0  0  0  0  0
    0.0590   18.6220    1.6120 C   0  0  0  0  0  0  0  0  0  0  0  0
    1.4170   15.9750   -2.7000 C   0  0  1  0  0  0  0  0  0  0  0  0
    2.4010   16.9700   -3.3880 C   0  0  0  0  0  0  0  0  0  0  0  0
    0.7480   15.1410   -3.8550 C   0  0  0  0  0  0  0  0  0  0  0  0
    0.2420   13.7320   -3.4910 C   0  0  0  0  0  0  0  0  0  0  0  0
    1.3170   12.9390   -2.7430 C   0  0  2  0  0  0  0  0  0  0  0  0
    2.5380   12.7590   -3.7080 C   0  0  0  0  0  0  0  0  0  0  0  0
    1.6814   11.8896   -4.5532 H   0  0  0  0  0  0  0  0  0  0  0  0
    1.7538   10.2061   -5.1755 H   0  0  0  0  0  0  0  0  0  0  0  0
    0.1942   11.0973   -5.1755 H   0  0  0  0  0  0  0  0  0  0  0  0
    1.5902    9.6432   -2.9908 H   0  0  0  0  0  0  0  0  0  0  0  0
   -1.3138   10.5024   -3.0249 H   0  0  0  0  0  0  0  0  0  0  0  0
   -0.6783    9.1553   -4.0851 H   0  0  0  0  0  0  0  0  0  0  0  0
   -0.6020    7.7039   -2.4010 H   0  0  0  0  0  0  0  0  0  0  0  0
    0.1287    8.9260   -1.2787 H   0  0  0  0  0  0  0  0  0  0  0  0
   -2.3077    7.8727   -1.6224 H   0  0  0  0  0  0  0  0  0  0  0  0
   -1.1065   10.1548    1.8137 H   0  0  0  0  0  0  0  0  0  0  0  0
   -0.0523    9.7016    0.4317 H   0  0  0  0  0  0  0  0  0  0  0  0
   -0.9023   11.2840    0.4317 H   0  0  0  0  0  0  0  0  0  0  0  0
   -3.0459    9.3528    1.9542 H   0  0  0  0  0  0  0  0  0  0  0  0
   -4.1407    9.9865    0.6789 H   0  0  0  0  0  0  0  0  0  0  0  0
   -3.6707    8.2528    0.6789 H   0  0  0  0  0  0  0  0  0  0  0  0
   -0.1367   11.5570   -1.8771 H   0  0  0  0  0  0  0  0  0  0  0  0
    1.4633   10.8348   -0.2179 H   0  0  0  0  0  0  0  0  0  0  0  0
    2.7268   10.5714   -1.4391 H   0  0  0  0  0  0  0  0  0  0  0  0
    2.5918   12.7873    0.3600 H   0  0  0  0  0  0  0  0  0  0  0  0
    3.6169   12.7390   -1.0718 H   0  0  0  0  0  0  0  0  0  0  0  0
    0.7975   13.7891    0.6153 H   0  0  0  0  0  0  0  0  0  0  0  0
   -0.0630   14.7960   -0.5980 H   0  0  0  0  0  0  0  0  0  0  0  0
   -0.2755   13.0124   -0.5980 H   0  0  0  0  0  0  0  0  0  0  0  0
    3.1907   14.7873   -2.2908 H   0  0  0  0  0  0  0  0  0  0  0  0
    3.0971   15.1556    0.2568 H   0  0  0  0  0  0  0  0  0  0  0  0
    3.6023   16.5097   -0.8835 H   0  0  0  0  0  0  0  0  0  0  0  0
    2.0017   17.1880    1.0968 H   0  0  0  0  0  0  0  0  0  0  0  0
   -0.5190   16.0390   -1.8405 H   0  0  0  0  0  0  0  0  0  0  0  0
    0.6213   18.7289   -2.8195 H   0  0  0  0  0  0  0  0  0  0  0  0
   -0.5745   17.6677   -3.6883 H   0  0  0  0  0  0  0  0  0  0  0  0
   -1.6600   19.6087   -2.6054 H   0  0  0  0  0  0  0  0  0  0  0  0
   -2.2127   18.0247   -1.9332 H   0  0  0  0  0  0  0  0  0  0  0  0
   -1.8757   19.5584   -0.1166 H   0  0  0  0  0  0  0  0  0  0  0  0
   -0.4150   21.0530   -0.6240 H   0  0  0  0  0  0  0  0  0  0  0  0
   -1.6942   16.9928    1.7344 H   0  0  0  0  0  0  0  0  0  0  0  0
   -2.5464   17.4572    0.2228 H   0  0  0  0  0  0  0  0  0  0  0  0
   -1.4123   16.0642    0.2228 H   0  0  0  0  0  0  0  0  0  0  0  0
   -0.3900   18.0751    2.4542 H   0  0  0  0  0  0  0  0  0  0  0  0
    1.1548   18.5412    1.6648 H   0  0  0  0  0  0  0  0  0  0  0  0
   -0.2336   19.6811    1.6648 H   0  0  0  0  0  0  0  0  0  0  0  0
    2.9541   17.5293   -2.6191 H   0  0  0  0  0  0  0  0  0  0  0  0
    3.1101   16.4097   -4.0151 H   0  0  0  0  0  0  0  0  0  0  0  0
    1.8329   17.6728   -4.0151 H   0  0  0  0  0  0  0  0  0  0  0  0
   -0.1118   15.7176   -4.2268 H   0  0  0  0  0  0  0  0  0  0  0  0
    1.5475   14.9781   -4.5927 H   0  0  0  0  0  0  0  0  0  0  0  0
   -0.6480   13.8236   -2.8510 H   0  0  0  0  0  0  0  0  0  0  0  0
   -0.0048   13.1975   -4.4202 H   0  0  0  0  0  0  0  0  0  0  0  0
    3.4557   12.6237   -3.1168 H   0  0  0  0  0  0  0  0  0  0  0  0
    2.3768   11.8749   -4.3424 H   0  0  0  0  0  0  0  0  0  0  0  0
    2.6388   13.6520   -4.3424 H   0  0  0  0  0  0  0  0  0  0  0  0
  1  2  1  0
  2  3  1  0
  3  4  1  0
  4  5  1  0
  5  6  1  0
  6  7  1  0
  7  8  1  0
  7  9  1  0
  2 10  1  0
 10 11  1  0
 11 12  1  0
 12 13  1  0
 13 14  1  1
 13 15  1  0
 15 16  1  0
 16 17  1  0
 17 18  2  0
 18 19  1  0
 19 20  1  0
 20 21  1  0
 21 22  1  0
 22 23  1  0
 22 24  1  0
 24 25  1  0
 24 26  1  0
 19 27  1  0
 27 28  1  6
 27 29  1  0
 29 30  1  0
 30 31  1  0
 31 32  1  6
  7  5  1  0
 31 10  1  0
 31 13  1  0
 27 15  1  0
 24 18  1  0
  1 33  1  0
  1 34  1  0
  1 35  1  0
  2 36  1  1
  3 37  1  0
  3 38  1  0
  4 39  1  0
  4 40  1  0
  5 41  1  1
  8 42  1  0
  8 43  1  0
  8 44  1  0
  9 45  1  0
  9 46  1  0
  9 47  1  0
 10 48  1  1
 11 49  1  0
 11 50  1  0
 12 51  1  0
 12 52  1  0
 14 53  1  0
 14 54  1  0
 14 55  1  0
 15 56  1  6
 16 57  1  0
 16 58  1  0
 17 59  1  0
 19 60  1  1
 20 61  1  0
 20 62  1  0
 21 63  1  0
 21 64  1  0
 22 65  1  1
 23 66  1  0
 25 67  1  0
 25 68  1  0
 25 69  1  0
 26 70  1  0
 26 71  1  0
 26 72  1  0
 28 73  1  0
 28 74  1  0
 28 75  1  0
 29 76  1  0
 29 77  1  0
 30 78  1  0
 30 79  1  0
 32 80  1  0
 32 81  1  0
 32 82  1  0
M  END
>  <meeko>  (10) 
{"is_sidechain": [false], "intermolecular_energy": 2.731, "internal_energy": -0.839}

$$$$
EPH_relaxed_0001_pdb2pqr_Repair_417_r2_0001_out
     RDKit          3D

 82 86  0  0  0  0  0  0  0  0999 V2000
   -0.3050   15.0630   -7.5860 C   0  0  0  0  0  0  0  0  0  0  0  0
    1.0740   15.0420   -6.9190 C   0  0  2  0  0  0  0  0  0  0  0  0
    2.2180   15.1250   -7.9480 C   0  0  0  0  0  0  0  0  0  0  0  0
    2.2510   16.4420   -8.7280 C   0  0  0  0  0  0  0  0  0  0  0  0
    1.8420   16.2500  -10.1570 C   0  0  2  0  0  0  0  0  0  0  0  0
    1.2030   14.9970  -10.4340 O   0  0  0  0  0  0  0  0  0  0  0  0
    2.4700   15.2180  -11.0750 C   0  0  0  0  0  0  0  0  0  0  0  0
    3.5590   14.3090  -10.5990 C   0  0  0  0  0  0  0  0  0  0  0  0
    2.3690   15.4210  -12.5550 C   0  0  0  0  0  0  0  0  0  0  0  0
    1.2230   13.7830   -6.0730 C   0  0  1  0  0  0  0  0  0  0  0  0
    2.6590   13.1970   -6.1220 C   0  0  0  0  0  0  0  0  0  0  0  0
    2.9480   12.6020   -4.7200 C   0  0  0  0  0  0  0  0  0  0  0  0
    1.5680   12.5640   -4.0210 C   0  0  1  0  0  0  0  0  0  0  0  0
    0.8780   11.2740   -4.5660 C   0  0  0  0  0  0  0  0  0  0  0  0
    1.5840   12.5940   -2.4580 C   0  0  2  0  0  0  0  0  0  0  0  0
    2.2780   11.3950   -1.7890 C   0  0  0  0  0  0  0  0  0  0  0  0
    1.3900   10.2360   -1.4780 C   0  0  0  0  0  0  0  0  0  0  0  0
    0.0450   10.2640   -1.4620 C   0  0  0  0  0  0  0  0  0  0  0  0
   -0.7180   11.5770   -1.6810 C   0  0  1  0  0  0  0  0  0  0  0  0
   -1.8340   11.7120   -0.6110 C   0  0  0  0  0  0  0  0  0  0  0  0
   -2.7580   10.5000   -0.5730 C   0  0  0  0  0  0  0  0  0  0  0  0
   -1.9710    9.2220   -0.2950 C   0  0  2  0  0  0  0  0  0  0  0  0
   -1.4450    9.2840    1.0340 O   0  0  0  0  0  0  0  0  0  0  0  0
   -0.8130    8.9840   -1.3050 C   0  0  0  0  0  0  0  0  0  0  0  0
   -1.3980    8.6180   -2.6910 C   0  0  0  0  0  0  0  0  0  0  0  0
   -0.0120    7.7420   -0.8290 C   0  0  0  0  0  0  0  0  0  0  0  0
    0.1750   12.8860   -1.8010 C   0  0  1  0  0  0  0  0  0  0  0  0
    0.4570   13.4690   -0.3820 C   0  0  0  0  0  0  0  0  0  0  0  0
   -0.6330   13.9900   -2.5820 C   0  0  0  0  0  0  0  0  0  0  0  0
   -0.5130   13.9810   -4.1180 C   0  0  0  0  0  0  0  0  0  0  0  0
    0.9540   13.9100   -4.5530 C   0  0  2  0  0  0  0  0  0  0  0  0
    1.6690   15.2060   -4.0380 C   0  0  0  0  0  0  0  0  0  0  0  0
   -1.0865   15.0749   -6.8120 H   0  0  0  0  0  0  0  0  0  0  0  0
   -0.3956   15.9626   -8.2125 H   0  0  0  0  0  0  0  0  0  0  0  0
   -0.4230   14.1665   -8.2125 H   0  0  0  0  0  0  0  0  0  0  0  0
    1.1444   15.9317   -6.2760 H   0  0  0  0  0  0  0  0  0  0  0  0
    3.1735   15.0135   -7.4145 H   0  0  0  0  0  0  0  0  0  0  0  0
    2.0497   14.3220   -8.6807 H   0  0  0  0  0  0  0  0  0  0  0  0
    1.5616   17.1553   -8.2526 H   0  0  0  0  0  0  0  0  0  0  0  0
    3.2829   16.8228   -8.7147 H   0  0  0  0  0  0  0  0  0  0  0  0
    1.6597   17.3284  -10.2744 H   0  0  0  0  0  0  0  0  0  0  0  0
    3.5726   14.2977   -9.4991 H   0  0  0  0  0  0  0  0  0  0  0  0
    3.3770   13.2910  -10.9740 H   0  0  0  0  0  0  0  0  0  0  0  0
    4.5280   14.6700  -10.9740 H   0  0  0  0  0  0  0  0  0  0  0  0
    1.8876   16.3885  -12.7604 H   0  0  0  0  0  0  0  0  0  0  0  0
    3.3767   15.4119  -12.9960 H   0  0  0  0  0  0  0  0  0  0  0  0
    1.7685   14.6117  -12.9960 H   0  0  0  0  0  0  0  0  0  0  0  0
    0.4494   13.1556   -6.5399 H   0  0  0  0  0  0  0  0  0  0  0  0
    2.7208   12.4096   -6.8876 H   0  0  0  0  0  0  0  0  0  0  0  0
    3.3937   13.9739   -6.3802 H   0  0  0  0  0  0  0  0  0  0  0  0
    3.3675   11.5888   -4.8069 H   0  0  0  0  0  0  0  0  0  0  0  0
    3.6843   13.1956   -4.1583 H   0  0  0  0  0  0  0  0  0  0  0  0
    0.5452   10.6518   -3.7222 H   0  0  0  0  0  0  0  0  0  0  0  0
    0.0094   11.5543   -5.1799 H   0  0  0  0  0  0  0  0  0  0  0  0
    1.5933   10.7070   -5.1799 H   0  0  0  0  0  0  0  0  0  0  0  0
    2.2220   13.4646   -2.2459 H   0  0  0  0  0  0  0  0  0  0  0  0
    3.0728   11.0429   -2.4630 H   0  0  0  0  0  0  0  0  0  0  0  0
    2.6510   11.7607   -0.8210 H   0  0  0  0  0  0  0  0  0  0  0  0
    1.8765    9.2781   -1.2420 H   0  0  0  0  0  0  0  0  0  0  0  0
   -1.1680   11.5043   -2.6821 H   0  0  0  0  0  0  0  0  0  0  0  0
   -1.3634   11.8276    0.3765 H   0  0  0  0  0  0  0  0  0  0  0  0
   -2.4442   12.5886   -0.8741 H   0  0  0  0  0  0  0  0  0  0  0  0
   -3.5057   10.6422    0.2212 H   0  0  0  0  0  0  0  0  0  0  0  0
   -3.2501   10.4031   -1.5520 H   0  0  0  0  0  0  0  0  0  0  0  0
   -2.6650    8.3761   -0.4081 H   0  0  0  0  0  0  0  0  0  0  0  0
   -1.1700   10.2020    1.1990 H   0  0  0  0  0  0  0  0  0  0  0  0
   -2.3236    8.0389   -2.5570 H   0  0  0  0  0  0  0  0  0  0  0  0
   -1.6194    9.5389   -3.2503 H   0  0  0  0  0  0  0  0  0  0  0  0
   -0.6667    8.0161   -3.2503 H   0  0  0  0  0  0  0  0  0  0  0  0
    0.0048    7.7159    0.2706 H   0  0  0  0  0  0  0  0  0  0  0  0
   -0.4915    6.8283   -1.2102 H   0  0  0  0  0  0  0  0  0  0  0  0
    1.0181    7.8019   -1.2102 H   0  0  0  0  0  0  0  0  0  0  0  0
    0.1125   12.7567    0.3822 H   0  0  0  0  0  0  0  0  0  0  0  0
    1.5372   13.6396   -0.2637 H   0  0  0  0  0  0  0  0  0  0  0  0
   -0.0798   14.4218   -0.2637 H   0  0  0  0  0  0  0  0  0  0  0  0
   -1.6965   13.8648   -2.3304 H   0  0  0  0  0  0  0  0  0  0  0  0
   -0.1943   14.9473   -2.2642 H   0  0  0  0  0  0  0  0  0  0  0  0
   -1.0490   13.1066   -4.5157 H   0  0  0  0  0  0  0  0  0  0  0  0
   -0.9502   14.9114   -4.5094 H   0  0  0  0  0  0  0  0  0  0  0  0
    1.6717   15.2108   -2.9380 H   0  0  0  0  0  0  0  0  0  0  0  0
    2.7050   15.2246   -4.4073 H   0  0  0  0  0  0  0  0  0  0  0  0
    1.1322   16.0923   -4.4073 H   0  0  0  0  0  0  0  0  0  0  0  0
  1  2  1  0
  2  3  1  0
  3  4  1  0
  4  5  1  0
  5  6  1  0
  6  7  1  0
  7  8  1  0
  7  9  1  0
  2 10  1  0
 10 11  1  0
 11 12  1  0
 12 13  1  0
 13 14  1  1
 13 15  1  0
 15 16  1  0
 16 17  1  0
 17 18  2  0
 18 19  1  0
 19 20  1  0
 20 21  1  0
 21 22  1  0
 22 23  1  0
 22 24  1  0
 24 25  1  0
 24 26  1  0
 19 27  1  0
 27 28  1  1
 27 29  1  0
 29 30  1  0
 30 31  1  0
 31 32  1  1
  7  5  1  0
 31 10  1  0
 31 13  1  0
 27 15  1  0
 24 18  1  0
  1 33  1  0
  1 34  1  0
  1 35  1  0
  2 36  1  1
  3 37  1  0
  3 38  1  0
  4 39  1  0
  4 40  1  0
  5 41  1  6
  8 42  1  0
  8 43  1  0
  8 44  1  0
  9 45  1  0
  9 46  1  0
  9 47  1  0
 10 48  1  6
 11 49  1  0
 11 50  1  0
 12 51  1  0
 12 52  1  0
 14 53  1  0
 14 54  1  0
 14 55  1  0
 15 56  1  6
 16 57  1  0
 16 58  1  0
 17 59  1  0
 19 60  1  6
 20 61  1  0
 20 62  1  0
 21 63  1  0
 21 64  1  0
 22 65  1  1
 23 66  1  0
 25 67  1  0
 25 68  1  0
 25 69  1  0
 26 70  1  0
 26 71  1  0
 26 72  1  0
 28 73  1  0
 28 74  1  0
 28 75  1  0
 29 76  1  0
 29 77  1  0
 30 78  1  0
 30 79  1  0
 32 80  1  0
 32 81  1  0
 32 82  1  0
M  END
>  <meeko>  (11) 
{"is_sidechain": [false], "intermolecular_energy": 2.731, "internal_energy": -0.839}

$$$$
EPH_relaxed_0001_pdb2pqr_Repair_417_r2_0001_out
     RDKit          3D

 82 86  0  0  0  0  0  0  0  0999 V2000
   -2.2280    7.8580   -1.9970 C   0  0  0  0  0  0  0  0  0  0  0  0
   -2.1920    8.5020   -0.6080 C   0  0  2  0  0  0  0  0  0  0  0  0
   -3.5770    8.4980    0.0700 C   0  0  0  0  0  0  0  0  0  0  0  0
   -4.7460    8.5690   -0.9160 C   0  0  0  0  0  0  0  0  0  0  0  0
   -5.5270    7.2910   -0.9440 C   0  0  2  0  0  0  0  0  0  0  0  0
   -5.5490    6.6300   -2.2160 O   0  0  0  0  0  0  0  0  0  0  0  0
   -6.8120    7.1130   -1.7310 C   0  0  0  0  0  0  0  0  0  0  0  0
   -7.3900    8.2280   -2.5450 C   0  0  0  0  0  0  0  0  0  0  0  0
   -7.7560    6.0250   -1.3220 C   0  0  0  0  0  0  0  0  0  0  0  0
   -1.6660    9.9290   -0.7090 C   0  0  1  0  0  0  0  0  0  0  0  0
   -1.2180   10.4990    0.6630 C   0  0  0  0  0  0  0  0  0  0  0  0
    0.0010   11.4160    0.3890 C   0  0  0  0  0  0  0  0  0  0  0  0
    0.0100   11.6070   -1.1460 C   0  0  1  0  0  0  0  0  0  0  0  0
   -1.0480   12.7210   -1.4180 C   0  0  0  0  0  0  0  0  0  0  0  0
    1.3910   11.9520   -1.7920 C   0  0  2  0  0  0  0  0  0  0  0  0
    2.0110   13.2840   -1.3330 C   0  0  0  0  0  0  0  0  0  0  0  0
    1.6450   14.4740   -2.1560 C   0  0  0  0  0  0  0  0  0  0  0  0
    1.0850   14.4380   -3.3800 C   0  0  0  0  0  0  0  0  0  0  0  0
    0.8540   13.1030   -4.1000 C   0  0  1  0  0  0  0  0  0  0  0  0
    1.3390   13.2170   -5.5690 C   0  0  0  0  0  0  0  0  0  0  0  0
    0.7070   14.3940   -6.3050 C   0  0  0  0  0  0  0  0  0  0  0  0
    1.0080   15.7090   -5.5900 C   0  0  2  0  0  0  0  0  0  0  0  0
    2.4110   15.9720   -5.6810 O   0  0  0  0  0  0  0  0  0  0  0  0
    0.5710   15.7090   -4.0980 C   0  0  0  0  0  0  0  0  0  0  0  0
   -0.9750   15.7270   -4.0080 C   0  0  0  0  0  0  0  0  0  0  0  0
    1.0590   17.0370   -3.4580 C   0  0  0  0  0  0  0  0  0  0  0  0
    1.4230   11.8120   -3.3680 C   0  0  1  0  0  0  0  0  0  0  0  0
    2.9140   11.5890   -3.7650 C   0  0  0  0  0  0  0  0  0  0  0  0
    0.6350   10.5460   -3.8720 C   0  0  0  0  0  0  0  0  0  0  0  0
   -0.6590   10.1870   -3.1170 C   0  0  0  0  0  0  0  0  0  0  0  0
   -0.4240   10.1660   -1.6040 C   0  0  2  0  0  0  0  0  0  0  0  0
    0.6210    9.0390   -1.2970 C   0  0  0  0  0  0  0  0  0  0  0  0
   -2.2891    6.7647   -1.8928 H   0  0  0  0  0  0  0  0  0  0  0  0
   -3.1071    8.2235   -2.5480 H   0  0  0  0  0  0  0  0  0  0  0  0
   -1.3136    8.1233   -2.5480 H   0  0  0  0  0  0  0  0  0  0  0  0
   -1.5161    7.9005    0.0175 H   0  0  0  0  0  0  0  0  0  0  0  0
   -3.6736    7.5726    0.6568 H   0  0  0  0  0  0  0  0  0  0  0  0
   -3.6303    9.4004    0.6967 H   0  0  0  0  0  0  0  0  0  0  0  0
   -5.4153    9.3891   -0.6167 H   0  0  0  0  0  0  0  0  0  0  0  0
   -4.3356    8.7416   -1.9219 H   0  0  0  0  0  0  0  0  0  0  0  0
   -5.2692    7.0832    0.1050 H   0  0  0  0  0  0  0  0  0  0  0  0
   -7.7912    9.0019   -1.8741 H   0  0  0  0  0  0  0  0  0  0  0  0
   -6.6044    8.6641   -3.1796 H   0  0  0  0  0  0  0  0  0  0  0  0
   -8.1992    7.8374   -3.1796 H   0  0  0  0  0  0  0  0  0  0  0  0
   -7.8015    5.9725   -0.2242 H   0  0  0  0  0  0  0  0  0  0  0  0
   -8.7584    6.2402   -1.7207 H   0  0  0  0  0  0  0  0  0  0  0  0
   -7.4016    5.0630   -1.7207 H   0  0  0  0  0  0  0  0  0  0  0  0
   -2.5463   10.4202   -1.1491 H   0  0  0  0  0  0  0  0  0  0  0  0
   -2.0345   11.0797    1.1169 H   0  0  0  0  0  0  0  0  0  0  0  0
   -0.9551    9.6899    1.3603 H   0  0  0  0  0  0  0  0  0  0  0  0
   -0.1181   12.3829    0.8997 H   0  0  0  0  0  0  0  0  0  0  0  0
    0.9409   10.9817    0.7603 H   0  0  0  0  0  0  0  0  0  0  0  0
   -1.4211   13.1139   -0.4607 H   0  0  0  0  0  0  0  0  0  0  0  0
   -0.5831   13.5358   -1.9925 H   0  0  0  0  0  0  0  0  0  0  0  0
   -1.8856   12.2987   -1.9925 H   0  0  0  0  0  0  0  0  0  0  0  0
    2.0437   11.1636   -1.3889 H   0  0  0  0  0  0  0  0  0  0  0  0
    1.6853   13.4723   -0.2993 H   0  0  0  0  0  0  0  0  0  0  0  0
    3.0996   13.1650   -1.4368 H   0  0  0  0  0  0  0  0  0  0  0  0
    1.8503   15.4654   -1.7258 H   0  0  0  0  0  0  0  0  0  0  0  0
   -0.2320   12.9293   -4.0773 H   0  0  0  0  0  0  0  0  0  0  0  0
    2.4314   13.3460   -5.5705 H   0  0  0  0  0  0  0  0  0  0  0  0
    1.0387   12.2968   -6.0916 H   0  0  0  0  0  0  0  0  0  0  0  0
    1.1116   14.4389   -7.3269 H   0  0  0  0  0  0  0  0  0  0  0  0
   -0.3831   14.2488   -6.3293 H   0  0  0  0  0  0  0  0  0  0  0  0
    0.4234   16.4969   -6.0875 H   0  0  0  0  0  0  0  0  0  0  0  0
    2.7040   16.3100   -4.8170 H   0  0  0  0  0  0  0  0  0  0  0  0
   -1.2808   15.7306   -2.9514 H   0  0  0  0  0  0  0  0  0  0  0  0
   -1.3607   16.6297   -4.5044 H   0  0  0  0  0  0  0  0  0  0  0  0
   -1.3816   14.8335   -4.5044 H   0  0  0  0  0  0  0  0  0  0  0  0
    1.0268   16.9494   -2.3620 H   0  0  0  0  0  0  0  0  0  0  0  0
    2.0910   17.2414   -3.7793 H   0  0  0  0  0  0  0  0  0  0  0  0
    0.4049   17.8610   -3.7793 H   0  0  0  0  0  0  0  0  0  0  0  0
    3.5259   11.4975   -2.8555 H   0  0  0  0  0  0  0  0  0  0  0  0
    3.0012   10.6678   -4.3598 H   0  0  0  0  0  0  0  0  0  0  0  0
    3.2669   12.4443   -4.3598 H   0  0  0  0  0  0  0  0  0  0  0  0
    0.3689   10.7173   -4.9255 H   0  0  0  0  0  0  0  0  0  0  0  0
    1.3134    9.6974   -3.6999 H   0  0  0  0  0  0  0  0  0  0  0  0
   -1.4311   10.9349   -3.3507 H   0  0  0  0  0  0  0  0  0  0  0  0
   -0.9838    9.1853   -3.4350 H   0  0  0  0  0  0  0  0  0  0  0  0
    0.7274    8.9243   -0.2082 H   0  0  0  0  0  0  0  0  0  0  0  0
    0.2759    8.0902   -1.7337 H   0  0  0  0  0  0  0  0  0  0  0  0
    1.5931    9.3115   -1.7337 H   0  0  0  0  0  0  0  0  0  0  0  0
  1  2  1  0
  2  3  1  0
  3  4  1  0
  4  5  1  0
  5  6  1  0
  6  7  1  0
  7  8  1  0
  7  9  1  0
  2 10  1  0
 10 11  1  0
 11 12  1  0
 12 13  1  0
 13 14  1  1
 13 15  1  0
 15 16  1  0
 16 17  1  0
 17 18  2  0
 18 19  1  0
 19 20  1  0
 20 21  1  0
 21 22  1  0
 22 23  1  0
 22 24  1  0
 24 25  1  0
 24 26  1  0
 19 27  1  0
 27 28  1  6
 27 29  1  0
 29 30  1  0
 30 31  1  0
 31 32  1  6
  7  5  1  0
 31 10  1  0
 31 13  1  0
 27 15  1  0
 24 18  1  0
  1 33  1  0
  1 34  1  0
  1 35  1  0
  2 36  1  1
  3 37  1  0
  3 38  1  0
  4 39  1  0
  4 40  1  0
  5 41  1  1
  8 42  1  0
  8 43  1  0
  8 44  1  0
  9 45  1  0
  9 46  1  0
  9 47  1  0
 10 48  1  6
 11 49  1  0
 11 50  1  0
 12 51  1  0
 12 52  1  0
 14 53  1  0
 14 54  1  0
 14 55  1  0
 15 56  1  1
 16 57  1  0
 16 58  1  0
 17 59  1  0
 19 60  1  6
 20 61  1  0
 20 62  1  0
 21 63  1  0
 21 64  1  0
 22 65  1  6
 23 66  1  0
 25 67  1  0
 25 68  1  0
 25 69  1  0
 26 70  1  0
 26 71  1  0
 26 72  1  0
 28 73  1  0
 28 74  1  0
 28 75  1  0
 29 76  1  0
 29 77  1  0
 30 78  1  0
 30 79  1  0
 32 80  1  0
 32 81  1  0
 32 82  1  0
M  END
>  <meeko>  (12) 
{"is_sidechain": [false], "intermolecular_energy": 2.731, "internal_energy": -0.839}

$$$$
EPH_relaxed_0001_pdb2pqr_Repair_417_r2_0001_out
     RDKit          3D

 82 86  0  0  0  0  0  0  0  0999 V2000
   -4.9920    8.8680    0.0390 C   0  0  0  0  0  0  0  0  0  0  0  0
   -5.2080    7.7460   -0.9810 C   0  0  2  0  0  0  0  0  0  0  0  0
   -4.1170    7.7340   -2.0700 C   0  0  0  0  0  0  0  0  0  0  0  0
   -2.6980    7.9050   -1.5210 C   0  0  0  0  0  0  0  0  0  0  0  0
   -2.0860    9.2010   -1.9600 C   0  0  2  0  0  0  0  0  0  0  0  0
   -0.7610    9.0880   -2.4950 O   0  0  0  0  0  0  0  0  0  0  0  0
   -0.8910    9.8370   -1.2760 C   0  0  0  0  0  0  0  0  0  0  0  0
   -0.2360    9.1940   -0.0940 C   0  0  0  0  0  0  0  0  0  0  0  0
   -0.6670   11.3070   -1.4450 C   0  0  0  0  0  0  0  0  0  0  0  0
   -6.5830    7.8850   -1.6230 C   0  0  1  0  0  0  0  0  0  0  0  0
   -6.6640    7.2040   -3.0150 C   0  0  0  0  0  0  0  0  0  0  0  0
   -8.0970    6.6290   -3.1490 C   0  0  0  0  0  0  0  0  0  0  0  0
   -8.8880    7.2770   -1.9890 C   0  0  1  0  0  0  0  0  0  0  0  0
   -9.2730    8.6970   -2.5090 C   0  0  0  0  0  0  0  0  0  0  0  0
  -10.1390    6.4890   -1.4800 C   0  0  2  0  0  0  0  0  0  0  0  0
  -11.2580    6.3000   -2.5200 C   0  0  0  0  0  0  0  0  0  0  0  0
  -12.2940    7.3740   -2.5450 C   0  0  0  0  0  0  0  0  0  0  0  0
  -12.4880    8.2960   -1.5840 C   0  0  0  0  0  0  0  0  0  0  0  0
  -11.6810    8.2560   -0.2800 C   0  0  1  0  0  0  0  0  0  0  0  0
  -12.6370    8.4480    0.9270 C   0  0  0  0  0  0  0  0  0  0  0  0
  -13.4870    9.7090    0.8050 C   0  0  0  0  0  0  0  0  0  0  0  0
  -14.3180    9.6850   -0.4750 C   0  0  2  0  0  0  0  0  0  0  0  0
  -15.2870    8.6370   -0.3760 O   0  0  0  0  0  0  0  0  0  0  0  0
  -13.4620    9.4870   -1.7580 C   0  0  0  0  0  0  0  0  0  0  0  0
  -12.6280   10.7630   -2.0290 C   0  0  0  0  0  0  0  0  0  0  0  0
  -14.4330    9.3390   -2.9610 C   0  0  0  0  0  0  0  0  0  0  0  0
  -10.7150    7.0070   -0.1000 C   0  0  1  0  0  0  0  0  0  0  0  0
  -11.4980    5.8160    0.5310 C   0  0  0  0  0  0  0  0  0  0  0  0
   -9.5760    7.3810    0.9210 C   0  0  0  0  0  0  0  0  0  0  0  0
   -8.3140    8.0480    0.3400 C   0  0  0  0  0  0  0  0  0  0  0  0
   -7.7860    7.2670   -0.8670 C   0  0  2  0  0  0  0  0  0  0  0  0
   -7.3700    5.8410   -0.3690 C   0  0  0  0  0  0  0  0  0  0  0  0
   -5.0709    8.4584    1.0568 H   0  0  0  0  0  0  0  0  0  0  0  0
   -3.9931    9.3059   -0.1037 H   0  0  0  0  0  0  0  0  0  0  0  0
   -5.7570    9.6455   -0.1037 H   0  0  0  0  0  0  0  0  0  0  0  0
   -5.1453    6.7902   -0.4401 H   0  0  0  0  0  0  0  0  0  0  0  0
   -4.1695    6.7736   -2.6037 H   0  0  0  0  0  0  0  0  0  0  0  0
   -4.3120    8.5920   -2.7301 H   0  0  0  0  0  0  0  0  0  0  0  0
   -2.7360    7.8830   -0.4219 H   0  0  0  0  0  0  0  0  0  0  0  0
   -2.0784    7.0839   -1.9106 H   0  0  0  0  0  0  0  0  0  0  0  0
   -3.0729    9.5977   -2.2405 H   0  0  0  0  0  0  0  0  0  0  0  0
   -0.6601    9.6103    0.8317 H   0  0  0  0  0  0  0  0  0  0  0  0
   -0.4124    8.1086   -0.1224 H   0  0  0  0  0  0  0  0  0  0  0  0
    0.8459    9.3905   -0.1224 H   0  0  0  0  0  0  0  0  0  0  0  0
   -0.5945   11.7829   -0.4559 H   0  0  0  0  0  0  0  0  0  0  0  0
    0.2670   11.4740   -2.0016 H   0  0  0  0  0  0  0  0  0  0  0  0
   -1.5088   11.7446   -2.0016 H   0  0  0  0  0  0  0  0  0  0  0  0
   -6.6700    8.9815   -1.6374 H   0  0  0  0  0  0  0  0  0  0  0  0
   -6.4761    7.9417   -3.8091 H   0  0  0  0  0  0  0  0  0  0  0  0
   -5.9092    6.4095   -3.1104 H   0  0  0  0  0  0  0  0  0  0  0  0
   -8.5363    6.9035   -4.1194 H   0  0  0  0  0  0  0  0  0  0  0  0
   -8.1115    5.5302   -3.1008 H   0  0  0  0  0  0  0  0  0  0  0  0
   -9.4539    9.3642   -1.6534 H   0  0  0  0  0  0  0  0  0  0  0  0
   -8.4514    9.0989   -3.1201 H   0  0  0  0  0  0  0  0  0  0  0  0
  -10.1851    8.6289   -3.1201 H   0  0  0  0  0  0  0  0  0  0  0  0
   -9.7270    5.4856   -1.2971 H   0  0  0  0  0  0  0  0  0  0  0  0
  -10.7924    6.2539   -3.5155 H   0  0  0  0  0  0  0  0  0  0  0  0
  -11.7841    5.3766   -2.2361 H   0  0  0  0  0  0  0  0  0  0  0  0
  -12.9550    7.4155   -3.4233 H   0  0  0  0  0  0  0  0  0  0  0  0
  -10.9744    9.0973   -0.3343 H   0  0  0  0  0  0  0  0  0  0  0  0
  -13.3056    7.5767    0.9894 H   0  0  0  0  0  0  0  0  0  0  0  0
  -12.0179    8.5487    1.8307 H   0  0  0  0  0  0  0  0  0  0  0  0
  -14.1619    9.7734    1.6712 H   0  0  0  0  0  0  0  0  0  0  0  0
  -12.8180   10.5816    0.7729 H   0  0  0  0  0  0  0  0  0  0  0  0
  -14.8040   10.6671   -0.5713 H   0  0  0  0  0  0  0  0  0  0  0  0
  -16.1640    9.0510   -0.3240 H   0  0  0  0  0  0  0  0  0  0  0  0
  -12.3312   11.2171   -1.0721 H   0  0  0  0  0  0  0  0  0  0  0  0
  -11.7283   10.4978   -2.6037 H   0  0  0  0  0  0  0  0  0  0  0  0
  -13.2319   11.4806   -2.6037 H   0  0  0  0  0  0  0  0  0  0  0  0
  -15.4564    9.1830   -2.5891 H   0  0  0  0  0  0  0  0  0  0  0  0
  -14.4005   10.2525   -3.5730 H   0  0  0  0  0  0  0  0  0  0  0  0
  -14.1298    8.4767   -3.5730 H   0  0  0  0  0  0  0  0  0  0  0  0
  -11.4516    5.8866    1.6277 H   0  0  0  0  0  0  0  0  0  0  0  0
  -12.5480    5.8538    0.2053 H   0  0  0  0  0  0  0  0  0  0  0  0
  -11.0470    4.8670    0.2053 H   0  0  0  0  0  0  0  0  0  0  0  0
  -10.0063    8.0712    1.6616 H   0  0  0  0  0  0  0  0  0  0  0  0
   -9.2310    6.4208    1.3320 H   0  0  0  0  0  0  0  0  0  0  0  0
   -8.5613    9.0726    0.0252 H   0  0  0  0  0  0  0  0  0  0  0  0
   -7.5353    8.0606    1.1169 H   0  0  0  0  0  0  0  0  0  0  0  0
   -7.3650    5.8237    0.7309 H   0  0  0  0  0  0  0  0  0  0  0  0
   -8.0887    5.0975   -0.7441 H   0  0  0  0  0  0  0  0  0  0  0  0
   -6.3643    5.6006   -0.7441 H   0  0  0  0  0  0  0  0  0  0  0  0
  1  2  1  0
  2  3  1  0
  3  4  1  0
  4  5  1  0
  5  6  1  0
  6  7  1  0
  7  8  1  0
  7  9  1  0
  2 10  1  0
 10 11  1  0
 11 12  1  0
 12 13  1  0
 13 14  1  6
 13 15  1  0
 15 16  1  0
 16 17  1  0
 17 18  2  0
 18 19  1  0
 19 20  1  0
 20 21  1  0
 21 22  1  0
 22 23  1  0
 22 24  1  0
 24 25  1  0
 24 26  1  0
 19 27  1  0
 27 28  1  1
 27 29  1  0
 29 30  1  0
 30 31  1  0
 31 32  1  1
  7  5  1  0
 31 10  1  0
 31 13  1  0
 27 15  1  0
 24 18  1  0
  1 33  1  0
  1 34  1  0
  1 35  1  0
  2 36  1  1
  3 37  1  0
  3 38  1  0
  4 39  1  0
  4 40  1  0
  5 41  1  6
  8 42  1  0
  8 43  1  0
  8 44  1  0
  9 45  1  0
  9 46  1  0
  9 47  1  0
 10 48  1  6
 11 49  1  0
 11 50  1  0
 12 51  1  0
 12 52  1  0
 14 53  1  0
 14 54  1  0
 14 55  1  0
 15 56  1  1
 16 57  1  0
 16 58  1  0
 17 59  1  0
 19 60  1  6
 20 61  1  0
 20 62  1  0
 21 63  1  0
 21 64  1  0
 22 65  1  6
 23 66  1  0
 25 67  1  0
 25 68  1  0
 25 69  1  0
 26 70  1  0
 26 71  1  0
 26 72  1  0
 28 73  1  0
 28 74  1  0
 28 75  1  0
 29 76  1  0
 29 77  1  0
 30 78  1  0
 30 79  1  0
 32 80  1  0
 32 81  1  0
 32 82  1  0
M  END
>  <meeko>  (13) 
{"is_sidechain": [false], "intermolecular_energy": 2.731, "internal_energy": -0.839}

$$$$
EPH_relaxed_0001_pdb2pqr_Repair_417_r2_0001_out
     RDKit          3D

 82 86  0  0  0  0  0  0  0  0999 V2000
   -0.1880    9.4000   -2.5160 C   0  0  0  0  0  0  0  0  0  0  0  0
    0.9380   10.3550   -2.9210 C   0  0  2  0  0  0  0  0  0  0  0  0
    2.3070    9.6480   -2.9760 C   0  0  0  0  0  0  0  0  0  0  0  0
    3.2920   10.2910   -3.9560 C   0  0  0  0  0  0  0  0  0  0  0  0
    4.6480   10.4690   -3.3420 C   0  0  2  0  0  0  0  0  0  0  0  0
    5.1900   11.7910   -3.4620 O   0  0  0  0  0  0  0  0  0  0  0  0
    5.9020   10.7490   -4.1490 C   0  0  0  0  0  0  0  0  0  0  0  0
    5.8600   10.8650   -5.6400 C   0  0  0  0  0  0  0  0  0  0  0  0
    7.2310   10.4250   -3.5410 C   0  0  0  0  0  0  0  0  0  0  0  0
    0.9970   11.5300   -1.9510 C   0  0  1  0  0  0  0  0  0  0  0  0
    2.0770   11.3440   -0.8520 C   0  0  0  0  0  0  0  0  0  0  0  0
    2.6560   12.7500   -0.5510 C   0  0  0  0  0  0  0  0  0  0  0  0
    1.6730   13.7300   -1.2340 C   0  0  1  0  0  0  0  0  0  0  0  0
    0.4830   13.8670   -0.2330 C   0  0  0  0  0  0  0  0  0  0  0  0
    2.2550   15.1250   -1.6330 C   0  0  2  0  0  0  0  0  0  0  0  0
    2.7510   15.9860   -0.4580 C   0  0  0  0  0  0  0  0  0  0  0  0
    1.7310   16.8970    0.1410 C   0  0  0  0  0  0  0  0  0  0  0  0
    0.5540   17.2300   -0.4210 C   0  0  0  0  0  0  0  0  0  0  0  0
    0.1910   16.7510   -1.8330 C   0  0  1  0  0  0  0  0  0  0  0  0
   -0.3730   17.9400   -2.6540 C   0  0  0  0  0  0  0  0  0  0  0  0
   -1.5400   18.6320   -1.9550 C   0  0  0  0  0  0  0  0  0  0  0  0
   -1.1240   19.1460   -0.5790 C   0  0  2  0  0  0  0  0  0  0  0  0
   -0.1650   20.1940   -0.7490 O   0  0  0  0  0  0  0  0  0  0  0  0
   -0.5300   18.0370    0.3350 C   0  0  0  0  0  0  0  0  0  0  0  0
   -1.6530   17.0610    0.7640 C   0  0  0  0  0  0  0  0  0  0  0  0
   -0.0220   18.7140    1.6360 C   0  0  0  0  0  0  0  0  0  0  0  0
    1.3290   15.9580   -2.6090 C   0  0  1  0  0  0  0  0  0  0  0  0
    2.2590   16.9610   -3.3580 C   0  0  0  0  0  0  0  0  0  0  0  0
    0.6640   15.0580   -3.7170 C   0  0  0  0  0  0  0  0  0  0  0  0
    0.2180   13.6460   -3.2890 C   0  0  0  0  0  0  0  0  0  0  0  0
    1.3400   12.9210   -2.5400 C   0  0  2  0  0  0  0  0  0  0  0  0
    2.5430   12.7490   -3.5290 C   0  0  0  0  0  0  0  0  0  0  0  0
   -0.2484    9.3487   -1.4189 H   0  0  0  0  0  0  0  0  0  0  0  0
   -1.1432    9.7675   -2.9191 H   0  0  0  0  0  0  0  0  0  0  0  0
    0.0187    8.3976   -2.9191 H   0  0  0  0  0  0  0  0  0  0  0  0
    0.7141   10.7202   -3.9342 H   0  0  0  0  0  0  0  0  0  0  0  0
    2.7515    9.6729   -1.9701 H   0  0  0  0  0  0  0  0  0  0  0  0
    2.1254    8.6221   -3.3289 H   0  0  0  0  0  0  0  0  0  0  0  0
    3.3840    9.6471   -4.8431 H   0  0  0  0  0  0  0  0  0  0  0  0
    2.9057   11.2843   -4.2285 H   0  0  0  0  0  0  0  0  0  0  0  0
    4.4212    9.7221   -2.5669 H   0  0  0  0  0  0  0  0  0  0  0  0
    5.4978   11.8653   -5.9199 H   0  0  0  0  0  0  0  0  0  0  0  0
    6.8701   10.7133   -6.0482 H   0  0  0  0  0  0  0  0  0  0  0  0
    5.1811   10.1018   -6.0482 H   0  0  0  0  0  0  0  0  0  0  0  0
    7.1473   10.4454   -2.4444 H   0  0  0  0  0  0  0  0  0  0  0  0
    7.5484    9.4232   -3.8659 H   0  0  0  0  0  0  0  0  0  0  0  0
    7.9739   11.1683   -3.8659 H   0  0  0  0  0  0  0  0  0  0  0  0
   -0.0409   11.5211   -1.5868 H   0  0  0  0  0  0  0  0  0  0  0  0
    1.6243   10.9186    0.0558 H   0  0  0  0  0  0  0  0  0  0  0  0
    2.8666   10.6553   -1.1869 H   0  0  0  0  0  0  0  0  0  0  0  0
    2.6939   12.9305    0.5334 H   0  0  0  0  0  0  0  0  0  0  0  0
    3.6855   12.8656   -0.9209 H   0  0  0  0  0  0  0  0  0  0  0  0
    0.8641   13.8231    0.7979 H   0  0  0  0  0  0  0  0  0  0  0  0
   -0.0241   14.8295   -0.3958 H   0  0  0  0  0  0  0  0  0  0  0  0
   -0.2296   13.0450   -0.3958 H   0  0  0  0  0  0  0  0  0  0  0  0
    3.1551   14.8506   -2.2027 H   0  0  0  0  0  0  0  0  0  0  0  0
    3.1079   15.3092    0.3323 H   0  0  0  0  0  0  0  0  0  0  0  0
    3.5366   16.6373   -0.8687 H   0  0  0  0  0  0  0  0  0  0  0  0
    1.9607   17.3328    1.1245 H   0  0  0  0  0  0  0  0  0  0  0  0
   -0.5875   15.9846   -1.7042 H   0  0  0  0  0  0  0  0  0  0  0  0
    0.4310   18.6745   -2.8089 H   0  0  0  0  0  0  0  0  0  0  0  0
   -0.7451   17.5400   -3.6088 H   0  0  0  0  0  0  0  0  0  0  0  0
   -1.8762   19.4801   -2.5696 H   0  0  0  0  0  0  0  0  0  0  0  0
   -2.3543   17.9037   -1.8265 H   0  0  0  0  0  0  0  0  0  0  0  0
   -2.0303   19.5148   -0.0765 H   0  0  0  0  0  0  0  0  0  0  0  0
   -0.6440   20.9860   -1.0460 H   0  0  0  0  0  0  0  0  0  0  0  0
   -1.7020   17.0184    1.8621 H   0  0  0  0  0  0  0  0  0  0  0  0
   -2.6165   17.4136    0.3673 H   0  0  0  0  0  0  0  0  0  0  0  0
   -1.4382   16.0577    0.3673 H   0  0  0  0  0  0  0  0  0  0  0  0
   -0.4237   18.1786    2.5089 H   0  0  0  0  0  0  0  0  0  0  0  0
    1.0773   18.6825    1.6606 H   0  0  0  0  0  0  0  0  0  0  0  0
   -0.3595   19.7607    1.6606 H   0  0  0  0  0  0  0  0  0  0  0  0
    2.8163   17.5621   -2.6245 H   0  0  0  0  0  0  0  0  0  0  0  0
    2.9669   16.4035   -3.9889 H   0  0  0  0  0  0  0  0  0  0  0  0
    1.6497   17.6249   -3.9889 H   0  0  0  0  0  0  0  0  0  0  0  0
   -0.2245   15.5895   -4.0886 H   0  0  0  0  0  0  0  0  0  0  0  0
    1.4514   14.8963   -4.4678 H   0  0  0  0  0  0  0  0  0  0  0  0
   -0.6590   13.7297   -2.6303 H   0  0  0  0  0  0  0  0  0  0  0  0
   -0.0322   13.0684   -4.1911 H   0  0  0  0  0  0  0  0  0  0  0  0
    3.4726   12.6161   -2.9561 H   0  0  0  0  0  0  0  0  0  0  0  0
    2.3734   11.8660   -4.1626 H   0  0  0  0  0  0  0  0  0  0  0  0
    2.6276   13.6442   -4.1626 H   0  0  0  0  0  0  0  0  0  0  0  0
  1  2  1  0
  2  3  1  0
  3  4  1  0
  4  5  1  0
  5  6  1  0
  6  7  1  0
  7  8  1  0
  7  9  1  0
  2 10  1  0
 10 11  1  0
 11 12  1  0
 12 13  1  0
 13 14  1  1
 13 15  1  0
 15 16  1  0
 16 17  1  0
 17 18  2  0
 18 19  1  0
 19 20  1  0
 20 21  1  0
 21 22  1  0
 22 23  1  0
 22 24  1  0
 24 25  1  0
 24 26  1  0
 19 27  1  0
 27 28  1  6
 27 29  1  0
 29 30  1  0
 30 31  1  0
 31 32  1  6
  7  5  1  0
 31 10  1  0
 31 13  1  0
 27 15  1  0
 24 18  1  0
  1 33  1  0
  1 34  1  0
  1 35  1  0
  2 36  1  6
  3 37  1  0
  3 38  1  0
  4 39  1  0
  4 40  1  0
  5 41  1  1
  8 42  1  0
  8 43  1  0
  8 44  1  0
  9 45  1  0
  9 46  1  0
  9 47  1  0
 10 48  1  1
 11 49  1  0
 11 50  1  0
 12 51  1  0
 12 52  1  0
 14 53  1  0
 14 54  1  0
 14 55  1  0
 15 56  1  6
 16 57  1  0
 16 58  1  0
 17 59  1  0
 19 60  1  1
 20 61  1  0
 20 62  1  0
 21 63  1  0
 21 64  1  0
 22 65  1  1
 23 66  1  0
 25 67  1  0
 25 68  1  0
 25 69  1  0
 26 70  1  0
 26 71  1  0
 26 72  1  0
 28 73  1  0
 28 74  1  0
 28 75  1  0
 29 76  1  0
 29 77  1  0
 30 78  1  0
 30 79  1  0
 32 80  1  0
 32 81  1  0
 32 82  1  0
M  END
>  <meeko>  (14) 
{"is_sidechain": [false], "intermolecular_energy": 2.731, "internal_energy": -0.839}

$$$$
EPH_relaxed_0001_pdb2pqr_Repair_417_r2_0001_out
     RDKit          3D

 82 86  0  0  0  0  0  0  0  0999 V2000
   -4.1220    7.0760   -3.3100 C   0  0  0  0  0  0  0  0  0  0  0  0
   -4.1340    7.2110   -1.7850 C   0  0  2  0  0  0  0  0  0  0  0  0
   -5.5570    7.0950   -1.2030 C   0  0  0  0  0  0  0  0  0  0  0  0
   -6.6420    7.6860   -2.1070 C   0  0  0  0  0  0  0  0  0  0  0  0
   -7.9860    7.6680   -1.4440 C   0  0  2  0  0  0  0  0  0  0  0  0
   -8.4400    6.3680   -1.0450 O   0  0  0  0  0  0  0  0  0  0  0  0
   -9.2150    7.0260   -2.0610 C   0  0  0  0  0  0  0  0  0  0  0  0
   -9.1570    6.3570   -3.3980 C   0  0  0  0  0  0  0  0  0  0  0  0
  -10.5660    7.4720   -1.5950 C   0  0  0  0  0  0  0  0  0  0  0  0
   -3.5120    8.5410   -1.3760 C   0  0  1  0  0  0  0  0  0  0  0  0
   -3.9770    9.0120    0.0280 C   0  0  0  0  0  0  0  0  0  0  0  0
   -2.7700    9.7340    0.6800 C   0  0  0  0  0  0  0  0  0  0  0  0
   -1.7690    9.9480   -0.4800 C   0  0  1  0  0  0  0  0  0  0  0  0
   -2.2860   11.2170   -1.2270 C   0  0  0  0  0  0  0  0  0  0  0  0
   -0.2650   10.0870   -0.0790 C   0  0  2  0  0  0  0  0  0  0  0  0
    0.0640   11.2980    0.8110 C   0  0  0  0  0  0  0  0  0  0  0  0
    0.4340   12.5460    0.0790 C   0  0  0  0  0  0  0  0  0  0  0  0
    0.7780   12.6170   -1.2210 C   0  0  0  0  0  0  0  0  0  0  0  0
    0.9130   11.3470   -2.0710 C   0  0  1  0  0  0  0  0  0  0  0  0
    2.2280   11.4100   -2.8910 C   0  0  0  0  0  0  0  0  0  0  0  0
    2.3370   12.6830   -3.7240 C   0  0  0  0  0  0  0  0  0  0  0  0
    2.2580   13.9230   -2.8370 C   0  0  2  0  0  0  0  0  0  0  0  0
    3.4190   13.9680   -2.0020 O   0  0  0  0  0  0  0  0  0  0  0  0
    0.9780   13.9650   -1.9560 C   0  0  0  0  0  0  0  0  0  0  0  0
   -0.2610   14.2200   -2.8500 C   0  0  0  0  0  0  0  0  0  0  0  0
    1.0900   15.1900   -1.0090 C   0  0  0  0  0  0  0  0  0  0  0  0
    0.7440    9.9710   -1.2930 C   0  0  1  0  0  0  0  0  0  0  0  0
    2.1130    9.5270   -0.6940 C   0  0  0  0  0  0  0  0  0  0  0  0
    0.3220    8.8510   -2.3160 C   0  0  0  0  0  0  0  0  0  0  0  0
   -1.1860    8.6830   -2.5800 C   0  0  0  0  0  0  0  0  0  0  0  0
   -1.9670    8.6000   -1.2650 C   0  0  2  0  0  0  0  0  0  0  0  0
   -1.4850    7.3200   -0.5020 C   0  0  0  0  0  0  0  0  0  0  0  0
   -4.0277    6.0147   -3.5834 H   0  0  0  0  0  0  0  0  0  0  0  0
   -5.0595    7.4786   -3.7211 H   0  0  0  0  0  0  0  0  0  0  0  0
   -3.2702    7.6377   -3.7211 H   0  0  0  0  0  0  0  0  0  0  0  0
   -3.5404    6.3807   -1.3749 H   0  0  0  0  0  0  0  0  0  0  0  0
   -5.7808    6.0300   -1.0426 H   0  0  0  0  0  0  0  0  0  0  0  0
   -5.5693    7.6722   -0.2667 H   0  0  0  0  0  0  0  0  0  0  0  0
   -6.3774    8.7261   -2.3484 H   0  0  0  0  0  0  0  0  0  0  0  0
   -6.7008    7.0727   -3.0183 H   0  0  0  0  0  0  0  0  0  0  0  0
   -7.8122    8.6648   -1.0124 H   0  0  0  0  0  0  0  0  0  0  0  0
   -9.0627    5.2697   -3.2602 H   0  0  0  0  0  0  0  0  0  0  0  0
  -10.0776    6.5771   -3.9584 H   0  0  0  0  0  0  0  0  0  0  0  0
   -8.2880    6.7323   -3.9584 H   0  0  0  0  0  0  0  0  0  0  0  0
  -10.5903    7.4800   -0.4953 H   0  0  0  0  0  0  0  0  0  0  0  0
  -10.7686    8.4847   -1.9737 H   0  0  0  0  0  0  0  0  0  0  0  0
  -11.3317    6.7790   -1.9737 H   0  0  0  0  0  0  0  0  0  0  0  0
   -3.8535    9.1686   -2.2124 H   0  0  0  0  0  0  0  0  0  0  0  0
   -4.8265    9.7044   -0.0668 H   0  0  0  0  0  0  0  0  0  0  0  0
   -4.3061    8.1603    0.6414 H   0  0  0  0  0  0  0  0  0  0  0  0
   -3.0798   10.6987    1.1083 H   0  0  0  0  0  0  0  0  0  0  0  0
   -2.3332    9.1531    1.5056 H   0  0  0  0  0  0  0  0  0  0  0  0
   -2.5948   11.9748   -0.4919 H   0  0  0  0  0  0  0  0  0  0  0  0
   -1.4821   11.6242   -1.8578 H   0  0  0  0  0  0  0  0  0  0  0  0
   -3.1456   10.9464   -1.8578 H   0  0  0  0  0  0  0  0  0  0  0  0
   -0.1074    9.2003    0.5526 H   0  0  0  0  0  0  0  0  0  0  0  0
   -0.8196   11.5157    1.4289 H   0  0  0  0  0  0  0  0  0  0  0  0
    0.9514   11.0138    1.3956 H   0  0  0  0  0  0  0  0  0  0  0  0
    0.4248   13.4863    0.6497 H   0  0  0  0  0  0  0  0  0  0  0  0
    0.0489   11.3432   -2.7516 H   0  0  0  0  0  0  0  0  0  0  0  0
    3.0795   11.3695   -2.1957 H   0  0  0  0  0  0  0  0  0  0  0  0
    2.2306   10.5559   -3.5842 H   0  0  0  0  0  0  0  0  0  0  0  0
    3.2988   12.6828   -4.2579 H   0  0  0  0  0  0  0  0  0  0  0  0
    1.5009   12.7081   -4.4384 H   0  0  0  0  0  0  0  0  0  0  0  0
    2.2118   14.8000   -3.4994 H   0  0  0  0  0  0  0  0  0  0  0  0
    4.0260   13.2730   -2.3050 H   0  0  0  0  0  0  0  0  0  0  0  0
   -1.1406   14.4010   -2.2147 H   0  0  0  0  0  0  0  0  0  0  0  0
   -0.0801   15.0997   -3.4851 H   0  0  0  0  0  0  0  0  0  0  0  0
   -0.4422   13.3403   -3.4851 H   0  0  0  0  0  0  0  0  0  0  0  0
    1.0589   14.8493    0.0364 H   0  0  0  0  0  0  0  0  0  0  0  0
    2.0397   15.7126   -1.1962 H   0  0  0  0  0  0  0  0  0  0  0  0
    0.2508   15.8761   -1.1962 H   0  0  0  0  0  0  0  0  0  0  0  0
    2.0559    9.5455    0.4044 H   0  0  0  0  0  0  0  0  0  0  0  0
    2.3475    8.5068   -1.0318 H   0  0  0  0  0  0  0  0  0  0  0  0
    2.9016   10.2154   -1.0318 H   0  0  0  0  0  0  0  0  0  0  0  0
    0.8045    9.0799   -3.2776 H   0  0  0  0  0  0  0  0  0  0  0  0
    0.6401    7.9049   -1.8538 H   0  0  0  0  0  0  0  0  0  0  0  0
   -1.5480    9.5449   -3.1597 H   0  0  0  0  0  0  0  0  0  0  0  0
   -1.3421    7.7492   -3.1401 H   0  0  0  0  0  0  0  0  0  0  0  0
   -1.5502    7.4932    0.5823 H   0  0  0  0  0  0  0  0  0  0  0  0
   -2.1237    6.4674   -0.7762 H   0  0  0  0  0  0  0  0  0  0  0  0
   -0.4426    7.1004   -0.7762 H   0  0  0  0  0  0  0  0  0  0  0  0
  1  2  1  0
  2  3  1  0
  3  4  1  0
  4  5  1  0
  5  6  1  0
  6  7  1  0
  7  8  1  0
  7  9  1  0
  2 10  1  0
 10 11  1  0
 11 12  1  0
 12 13  1  0
 13 14  1  6
 13 15  1  0
 15 16  1  0
 16 17  1  0
 17 18  2  0
 18 19  1  0
 19 20  1  0
 20 21  1  0
 21 22  1  0
 22 23  1  0
 22 24  1  0
 24 25  1  0
 24 26  1  0
 19 27  1  0
 27 28  1  1
 27 29  1  0
 29 30  1  0
 30 31  1  0
 31 32  1  1
  7  5  1  0
 31 10  1  0
 31 13  1  0
 27 15  1  0
 24 18  1  0
  1 33  1  0
  1 34  1  0
  1 35  1  0
  2 36  1  1
  3 37  1  0
  3 38  1  0
  4 39  1  0
  4 40  1  0
  5 41  1  1
  8 42  1  0
  8 43  1  0
  8 44  1  0
  9 45  1  0
  9 46  1  0
  9 47  1  0
 10 48  1  6
 11 49  1  0
 11 50  1  0
 12 51  1  0
 12 52  1  0
 14 53  1  0
 14 54  1  0
 14 55  1  0
 15 56  1  1
 16 57  1  0
 16 58  1  0
 17 59  1  0
 19 60  1  6
 20 61  1  0
 20 62  1  0
 21 63  1  0
 21 64  1  0
 22 65  1  6
 23 66  1  0
 25 67  1  0
 25 68  1  0
 25 69  1  0
 26 70  1  0
 26 71  1  0
 26 72  1  0
 28 73  1  0
 28 74  1  0
 28 75  1  0
 29 76  1  0
 29 77  1  0
 30 78  1  0
 30 79  1  0
 32 80  1  0
 32 81  1  0
 32 82  1  0
M  END
>  <meeko>  (15) 
{"is_sidechain": [false], "intermolecular_energy": 2.731, "internal_energy": -0.839}

$$$$
EPH_relaxed_0001_pdb2pqr_Repair_417_r2_0001_out
     RDKit          3D

 82 86  0  0  0  0  0  0  0  0999 V2000
    1.4960   10.7530   -4.9240 C   0  0  0  0  0  0  0  0  0  0  0  0
    0.8230   10.5940   -3.5580 C   0  0  2  0  0  0  0  0  0  0  0  0
   -0.3390    9.5810   -3.5980 C   0  0  0  0  0  0  0  0  0  0  0  0
   -0.2280    8.4760   -2.5440 C   0  0  0  0  0  0  0  0  0  0  0  0
   -0.0140    9.0380   -1.1710 C   0  0  2  0  0  0  0  0  0  0  0  0
   -0.3140    8.1330   -0.1000 O   0  0  0  0  0  0  0  0  0  0  0  0
   -1.1410    9.3040   -0.1910 C   0  0  0  0  0  0  0  0  0  0  0  0
   -2.5670    9.0170   -0.5450 C   0  0  0  0  0  0  0  0  0  0  0  0
   -0.9130   10.2910    0.9110 C   0  0  0  0  0  0  0  0  0  0  0  0
    0.3200   11.9450   -3.0660 C   0  0  1  0  0  0  0  0  0  0  0  0
   -1.0980   11.8630   -2.4410 C   0  0  0  0  0  0  0  0  0  0  0  0
   -1.1360   12.8900   -1.2800 C   0  0  0  0  0  0  0  0  0  0  0  0
    0.1300   13.7550   -1.4840 C   0  0  1  0  0  0  0  0  0  0  0  0
   -0.2660   14.7920   -2.5820 C   0  0  0  0  0  0  0  0  0  0  0  0
    0.7020   14.4550   -0.2080 C   0  0  2  0  0  0  0  0  0  0  0  0
   -0.2410   15.4750    0.4540 C   0  0  0  0  0  0  0  0  0  0  0  0
   -0.1050   16.8800   -0.0340 C   0  0  0  0  0  0  0  0  0  0  0  0
    0.9240   17.3610   -0.7550 C   0  0  0  0  0  0  0  0  0  0  0  0
    2.1440   16.4850   -1.0690 C   0  0  1  0  0  0  0  0  0  0  0  0
    3.4430   17.2870   -0.7900 C   0  0  0  0  0  0  0  0  0  0  0  0
    3.4760   18.6210   -1.5310 C   0  0  0  0  0  0  0  0  0  0  0  0
    2.2790   19.4870   -1.1490 C   0  0  2  0  0  0  0  0  0  0  0  0
    2.4020   19.8630    0.2260 O   0  0  0  0  0  0  0  0  0  0  0  0
    0.9140   18.7790   -1.3770 C   0  0  0  0  0  0  0  0  0  0  0  0
    0.6460   18.6420   -2.8960 C   0  0  0  0  0  0  0  0  0  0  0  0
   -0.2020   19.7050   -0.8210 C   0  0  0  0  0  0  0  0  0  0  0  0
    2.1580   15.0470   -0.3910 C   0  0  1  0  0  0  0  0  0  0  0  0
    2.7840   15.1370    1.0340 C   0  0  0  0  0  0  0  0  0  0  0  0
    3.0910   14.0940   -1.2270 C   0  0  0  0  0  0  0  0  0  0  0  0
    2.4390   13.3390   -2.4020 C   0  0  0  0  0  0  0  0  0  0  0  0
    1.1430   12.6520   -1.9600 C   0  0  2  0  0  0  0  0  0  0  0  0
    1.5130   11.5870   -0.8720 C   0  0  0  0  0  0  0  0  0  0  0  0
    2.5577   11.0038   -4.7827 H   0  0  0  0  0  0  0  0  0  0  0  0
    1.4134    9.8106   -5.4853 H   0  0  0  0  0  0  0  0  0  0  0  0
    1.0004   11.5588   -5.4853 H   0  0  0  0  0  0  0  0  0  0  0  0
    1.5781   10.2026   -2.8604 H   0  0  0  0  0  0  0  0  0  0  0  0
   -1.2804   10.1255   -3.4327 H   0  0  0  0  0  0  0  0  0  0  0  0
   -0.3051    9.0912   -4.5824 H   0  0  0  0  0  0  0  0  0  0  0  0
   -1.1565    7.8862   -2.5469 H   0  0  0  0  0  0  0  0  0  0  0  0
    0.6392    7.8479   -2.7961 H   0  0  0  0  0  0  0  0  0  0  0  0
    0.8139    9.6661   -1.5316 H   0  0  0  0  0  0  0  0  0  0  0  0
   -3.1567    8.8983    0.3760 H   0  0  0  0  0  0  0  0  0  0  0  0
   -2.9733    9.8514   -1.1355 H   0  0  0  0  0  0  0  0  0  0  0  0
   -2.6188    8.0904   -1.1355 H   0  0  0  0  0  0  0  0  0  0  0  0
   -1.0290    9.7888    1.8828 H   0  0  0  0  0  0  0  0  0  0  0  0
    0.1039   10.7026    0.8300 H   0  0  0  0  0  0  0  0  0  0  0  0
   -1.6463   11.1069    0.8300 H   0  0  0  0  0  0  0  0  0  0  0  0
    0.3819   12.5163   -4.0039 H   0  0  0  0  0  0  0  0  0  0  0  0
   -1.8590   12.1148   -3.1943 H   0  0  0  0  0  0  0  0  0  0  0  0
   -1.3105   10.8472   -2.0764 H   0  0  0  0  0  0  0  0  0  0  0  0
   -2.0432   13.5093   -1.3386 H   0  0  0  0  0  0  0  0  0  0  0  0
   -1.1552   12.4042   -0.2933 H   0  0  0  0  0  0  0  0  0  0  0  0
   -0.6192   15.7169   -2.1025 H   0  0  0  0  0  0  0  0  0  0  0  0
    0.6101   15.0153   -3.2085 H   0  0  0  0  0  0  0  0  0  0  0  0
   -1.0680   14.3745   -3.2085 H   0  0  0  0  0  0  0  0  0  0  0  0
    0.7849   13.6196    0.5028 H   0  0  0  0  0  0  0  0  0  0  0  0
   -1.2758   15.1501    0.2705 H   0  0  0  0  0  0  0  0  0  0  0  0
    0.0322   15.4951    1.5194 H   0  0  0  0  0  0  0  0  0  0  0  0
   -0.9147   17.5808    0.2174 H   0  0  0  0  0  0  0  0  0  0  0  0
    2.0770   16.2430   -2.1400 H   0  0  0  0  0  0  0  0  0  0  0  0
    3.5124   17.4816    0.2904 H   0  0  0  0  0  0  0  0  0  0  0  0
    4.2913   16.6847   -1.1474 H   0  0  0  0  0  0  0  0  0  0  0  0
    4.4029   19.1537   -1.2721 H   0  0  0  0  0  0  0  0  0  0  0  0
    3.4352   18.4230   -2.6123 H   0  0  0  0  0  0  0  0  0  0  0  0
    2.2880   20.3704   -1.8044 H   0  0  0  0  0  0  0  0  0  0  0  0
    3.2810   20.2620    0.3440 H   0  0  0  0  0  0  0  0  0  0  0  0
   -0.3233   18.1465   -3.0541 H   0  0  0  0  0  0  0  0  0  0  0  0
    0.6266   19.6408   -3.3565 H   0  0  0  0  0  0  0  0  0  0  0  0
    1.4443   18.0414   -3.3565 H   0  0  0  0  0  0  0  0  0  0  0  0
   -0.1797   19.6865    0.2786 H   0  0  0  0  0  0  0  0  0  0  0  0
   -0.0348   20.7334   -1.1739 H   0  0  0  0  0  0  0  0  0  0  0  0
   -1.1819   19.3510   -1.1739 H   0  0  0  0  0  0  0  0  0  0  0  0
    1.9929   15.0233    1.7898 H   0  0  0  0  0  0  0  0  0  0  0  0
    3.5282   14.3366    1.1588 H   0  0  0  0  0  0  0  0  0  0  0  0
    3.2726   16.1146    1.1588 H   0  0  0  0  0  0  0  0  0  0  0  0
    3.9091   14.7046   -1.6367 H   0  0  0  0  0  0  0  0  0  0  0  0
    3.4085   13.3112   -0.5224 H   0  0  0  0  0  0  0  0  0  0  0  0
    2.2113   14.0534   -3.2068 H   0  0  0  0  0  0  0  0  0  0  0  0
    3.1404   12.5698   -2.7574 H   0  0  0  0  0  0  0  0  0  0  0  0
    1.3632   12.0180    0.1289 H   0  0  0  0  0  0  0  0  0  0  0  0
    0.8694   10.7029   -0.9905 H   0  0  0  0  0  0  0  0  0  0  0  0
    2.5662   11.2924   -0.9905 H   0  0  0  0  0  0  0  0  0  0  0  0
  1  2  1  0
  2  3  1  0
  3  4  1  0
  4  5  1  0
  5  6  1  0
  6  7  1  0
  7  8  1  0
  7  9  1  0
  2 10  1  0
 10 11  1  0
 11 12  1  0
 12 13  1  0
 13 14  1  6
 13 15  1  0
 15 16  1  0
 16 17  1  0
 17 18  2  0
 18 19  1  0
 19 20  1  0
 20 21  1  0
 21 22  1  0
 22 23  1  0
 22 24  1  0
 24 25  1  0
 24 26  1  0
 19 27  1  0
 27 28  1  1
 27 29  1  0
 29 30  1  0
 30 31  1  0
 31 32  1  1
  7  5  1  0
 31 10  1  0
 31 13  1  0
 27 15  1  0
 24 18  1  0
  1 33  1  0
  1 34  1  0
  1 35  1  0
  2 36  1  1
  3 37  1  0
  3 38  1  0
  4 39  1  0
  4 40  1  0
  5 41  1  6
  8 42  1  0
  8 43  1  0
  8 44  1  0
  9 45  1  0
  9 46  1  0
  9 47  1  0
 10 48  1  6
 11 49  1  0
 11 50  1  0
 12 51  1  0
 12 52  1  0
 14 53  1  0
 14 54  1  0
 14 55  1  0
 15 56  1  1
 16 57  1  0
 16 58  1  0
 17 59  1  0
 19 60  1  6
 20 61  1  0
 20 62  1  0
 21 63  1  0
 21 64  1  0
 22 65  1  6
 23 66  1  0
 25 67  1  0
 25 68  1  0
 25 69  1  0
 26 70  1  0
 26 71  1  0
 26 72  1  0
 28 73  1  0
 28 74  1  0
 28 75  1  0
 29 76  1  0
 29 77  1  0
 30 78  1  0
 30 79  1  0
 32 80  1  0
 32 81  1  0
 32 82  1  0
M  END
>  <meeko>  (16) 
{"is_sidechain": [false], "intermolecular_energy": 2.731, "internal_energy": -0.839}

$$$$
EPH_relaxed_0001_pdb2pqr_Repair_417_r2_0001_out
     RDKit          3D

 82 86  0  0  0  0  0  0  0  0999 V2000
    3.3660   18.0700   -0.5710 C   0  0  0  0  0  0  0  0  0  0  0  0
    3.0970   17.0780   -1.7050 C   0  0  2  0  0  0  0  0  0  0  0  0
    1.8850   17.4920   -2.5630 C   0  0  0  0  0  0  0  0  0  0  0  0
    1.3750   18.9050   -2.2670 C   0  0  0  0  0  0  0  0  0  0  0  0
   -0.0580   18.8970   -1.8290 C   0  0  2  0  0  0  0  0  0  0  0  0
   -0.6060   20.1910   -1.5480 O   0  0  0  0  0  0  0  0  0  0  0  0
   -0.5090   19.2890   -0.4350 C   0  0  0  0  0  0  0  0  0  0  0  0
    0.4720   19.7160    0.6110 C   0  0  0  0  0  0  0  0  0  0  0  0
   -1.8340   18.7920    0.0550 C   0  0  0  0  0  0  0  0  0  0  0  0
    2.8790   15.6820   -1.1340 C   0  0  1  0  0  0  0  0  0  0  0  0
    3.1060   15.6220    0.4000 C   0  0  0  0  0  0  0  0  0  0  0  0
    2.0910   14.5940    0.9630 C   0  0  0  0  0  0  0  0  0  0  0  0
    1.5490   13.8590   -0.2850 C   0  0  1  0  0  0  0  0  0  0  0  0
    2.6350   12.7900   -0.6250 C   0  0  0  0  0  0  0  0  0  0  0  0
    0.1300   13.2160   -0.1470 C   0  0  2  0  0  0  0  0  0  0  0  0
    0.0170   12.1060    0.9130 C   0  0  0  0  0  0  0  0  0  0  0  0
    0.2870   10.7230    0.4200 C   0  0  0  0  0  0  0  0  0  0  0  0
    0.3280   10.3480   -0.8720 C   0  0  0  0  0  0  0  0  0  0  0  0
   -0.0090   11.3410   -1.9920 C   0  0  1  0  0  0  0  0  0  0  0  0
   -0.9740   10.6700   -3.0050 C   0  0  0  0  0  0  0  0  0  0  0  0
   -0.4330    9.3480   -3.5410 C   0  0  0  0  0  0  0  0  0  0  0  0
   -0.1650    8.3670   -2.4030 C   0  0  2  0  0  0  0  0  0  0  0  0
   -1.4130    8.0010   -1.8060 O   0  0  0  0  0  0  0  0  0  0  0  0
    0.7870    8.9370   -1.3140 C   0  0  0  0  0  0  0  0  0  0  0  0
    2.2220    9.0500   -1.8860 C   0  0  0  0  0  0  0  0  0  0  0  0
    0.8610    7.9040   -0.1570 C   0  0  0  0  0  0  0  0  0  0  0  0
   -0.5170   12.7710   -1.5200 C   0  0  1  0  0  0  0  0  0  0  0  0
   -2.0600   12.7410   -1.2970 C   0  0  0  0  0  0  0  0  0  0  0  0
   -0.2550   13.8140   -2.6710 C   0  0  0  0  0  0  0  0  0  0  0  0
    1.1220   14.5030   -2.6830 C   0  0  0  0  0  0  0  0  0  0  0  0
    1.4710   15.0580   -1.2990 C   0  0  2  0  0  0  0  0  0  0  0  0
    0.4080   16.1510   -0.9400 C   0  0  0  0  0  0  0  0  0  0  0  0
    3.2293   17.5660    0.3972 H   0  0  0  0  0  0  0  0  0  0  0  0
    4.3978   18.4434   -0.6476 H   0  0  0  0  0  0  0  0  0  0  0  0
    2.6642   18.9135   -0.6476 H   0  0  0  0  0  0  0  0  0  0  0  0
    3.9804   17.0772   -2.3604 H   0  0  0  0  0  0  0  0  0  0  0  0
    2.1766   17.4429   -3.6225 H   0  0  0  0  0  0  0  0  0  0  0  0
    1.0671   16.7977   -2.3201 H   0  0  0  0  0  0  0  0  0  0  0  0
    1.9894   19.3456   -1.4680 H   0  0  0  0  0  0  0  0  0  0  0  0
    1.4474   19.4962   -3.1918 H   0  0  0  0  0  0  0  0  0  0  0  0
   -0.2672   18.0145   -2.4514 H   0  0  0  0  0  0  0  0  0  0  0  0
    0.0476   19.5313    1.6089 H   0  0  0  0  0  0  0  0  0  0  0  0
    1.4032   19.1418    0.4965 H   0  0  0  0  0  0  0  0  0  0  0  0
    0.6863   20.7888    0.4965 H   0  0  0  0  0  0  0  0  0  0  0  0
   -1.8407   18.7895    1.1550 H   0  0  0  0  0  0  0  0  0  0  0  0
   -2.6327   19.4517   -0.3150 H   0  0  0  0  0  0  0  0  0  0  0  0
   -2.0018   17.7698   -0.3150 H   0  0  0  0  0  0  0  0  0  0  0  0
    3.6113   15.1213   -1.7334 H   0  0  0  0  0  0  0  0  0  0  0  0
    4.1342   15.2976    0.6183 H   0  0  0  0  0  0  0  0  0  0  0  0
    2.9621   16.6111    0.8593 H   0  0  0  0  0  0  0  0  0  0  0  0
    2.5898   13.8882    1.6435 H   0  0  0  0  0  0  0  0  0  0  0  0
    1.2906   15.0735    1.5456 H   0  0  0  0  0  0  0  0  0  0  0  0
    3.0510   12.3805    0.3074 H   0  0  0  0  0  0  0  0  0  0  0  0
    2.1795   11.9781   -1.2109 H   0  0  0  0  0  0  0  0  0  0  0  0
    3.4396   13.2582   -1.2109 H   0  0  0  0  0  0  0  0  0  0  0  0
   -0.4723   14.0546    0.2323 H   0  0  0  0  0  0  0  0  0  0  0  0
    0.7366   12.3274    1.7149 H   0  0  0  0  0  0  0  0  0  0  0  0
   -1.0309   12.1105    1.2475 H   0  0  0  0  0  0  0  0  0  0  0  0
    0.4676    9.9449    1.1763 H   0  0  0  0  0  0  0  0  0  0  0  0
    0.9446   11.5786   -2.4862 H   0  0  0  0  0  0  0  0  0  0  0  0
   -1.9349   10.4806   -2.5042 H   0  0  0  0  0  0  0  0  0  0  0  0
   -1.0901   11.3539   -3.8587 H   0  0  0  0  0  0  0  0  0  0  0  0
   -1.1712    8.9091   -4.2283 H   0  0  0  0  0  0  0  0  0  0  0  0
    0.5134    9.5431   -4.0666 H   0  0  0  0  0  0  0  0  0  0  0  0
    0.3410    7.4911   -2.8353 H   0  0  0  0  0  0  0  0  0  0  0  0
   -1.2200    7.4100   -1.0590 H   0  0  0  0  0  0  0  0  0  0  0  0
    2.9435    9.1068   -1.0576 H   0  0  0  0  0  0  0  0  0  0  0  0
    2.4413    8.1663   -2.5033 H   0  0  0  0  0  0  0  0  0  0  0  0
    2.3003    9.9571   -2.5033 H   0  0  0  0  0  0  0  0  0  0  0  0
    0.8233    8.4308    0.8079 H   0  0  0  0  0  0  0  0  0  0  0  0
    0.0102    7.2105   -0.2296 H   0  0  0  0  0  0  0  0  0  0  0  0
    1.8019    7.3389   -0.2296 H   0  0  0  0  0  0  0  0  0  0  0  0
   -2.2745   12.7368   -0.2181 H   0  0  0  0  0  0  0  0  0  0  0  0
   -2.5144   13.6305   -1.7578 H   0  0  0  0  0  0  0  0  0  0  0  0
   -2.4795   11.8345   -1.7578 H   0  0  0  0  0  0  0  0  0  0  0  0
   -0.3723   13.2879   -3.6299 H   0  0  0  0  0  0  0  0  0  0  0  0
   -0.9801   14.6227   -2.4973 H   0  0  0  0  0  0  0  0  0  0  0  0
    1.8876   13.7713   -2.9805 H   0  0  0  0  0  0  0  0  0  0  0  0
    1.0890   15.3389   -3.3973 H   0  0  0  0  0  0  0  0  0  0  0  0
    0.3249   16.2365    0.1535 H   0  0  0  0  0  0  0  0  0  0  0  0
    0.7202   17.1182   -1.3607 H   0  0  0  0  0  0  0  0  0  0  0  0
   -0.5676   15.8659   -1.3607 H   0  0  0  0  0  0  0  0  0  0  0  0
  1  2  1  0
  2  3  1  0
  3  4  1  0
  4  5  1  0
  5  6  1  0
  6  7  1  0
  7  8  1  0
  7  9  1  0
  2 10  1  0
 10 11  1  0
 11 12  1  0
 12 13  1  0
 13 14  1  6
 13 15  1  0
 15 16  1  0
 16 17  1  0
 17 18  2  0
 18 19  1  0
 19 20  1  0
 20 21  1  0
 21 22  1  0
 22 23  1  0
 22 24  1  0
 24 25  1  0
 24 26  1  0
 19 27  1  0
 27 28  1  1
 27 29  1  0
 29 30  1  0
 30 31  1  0
 31 32  1  1
  7  5  1  0
 31 10  1  0
 31 13  1  0
 27 15  1  0
 24 18  1  0
  1 33  1  0
  1 34  1  0
  1 35  1  0
  2 36  1  6
  3 37  1  0
  3 38  1  0
  4 39  1  0
  4 40  1  0
  5 41  1  6
  8 42  1  0
  8 43  1  0
  8 44  1  0
  9 45  1  0
  9 46  1  0
  9 47  1  0
 10 48  1  6
 11 49  1  0
 11 50  1  0
 12 51  1  0
 12 52  1  0
 14 53  1  0
 14 54  1  0
 14 55  1  0
 15 56  1  1
 16 57  1  0
 16 58  1  0
 17 59  1  0
 19 60  1  6
 20 61  1  0
 20 62  1  0
 21 63  1  0
 21 64  1  0
 22 65  1  6
 23 66  1  0
 25 67  1  0
 25 68  1  0
 25 69  1  0
 26 70  1  0
 26 71  1  0
 26 72  1  0
 28 73  1  0
 28 74  1  0
 28 75  1  0
 29 76  1  0
 29 77  1  0
 30 78  1  0
 30 79  1  0
 32 80  1  0
 32 81  1  0
 32 82  1  0
M  END
>  <meeko>  (17) 
{"is_sidechain": [false], "intermolecular_energy": 2.731, "internal_energy": -0.839}

$$$$
EPH_relaxed_0001_pdb2pqr_Repair_417_r2_0001_out
     RDKit          3D

 82 86  0  0  0  0  0  0  0  0999 V2000
    0.9000   14.9160   -2.5820 C   0  0  0  0  0  0  0  0  0  0  0  0
    1.1900   14.2440   -3.9270 C   0  0  2  0  0  0  0  0  0  0  0  0
    0.5100   14.9760   -5.1000 C   0  0  0  0  0  0  0  0  0  0  0  0
    1.0890   14.6140   -6.4710 C   0  0  0  0  0  0  0  0  0  0  0  0
    0.8420   15.6940   -7.4800 C   0  0  2  0  0  0  0  0  0  0  0  0
    0.3900   15.2270   -8.7580 O   0  0  0  0  0  0  0  0  0  0  0  0
    1.6740   15.8710   -8.7360 C   0  0  0  0  0  0  0  0  0  0  0  0
    2.8180   14.9590   -9.0500 C   0  0  0  0  0  0  0  0  0  0  0  0
    1.6870   17.2120   -9.4030 C   0  0  0  0  0  0  0  0  0  0  0  0
    0.7390   12.7890   -3.8890 C   0  0  1  0  0  0  0  0  0  0  0  0
    1.8700   11.8020   -4.2840 C   0  0  0  0  0  0  0  0  0  0  0  0
    1.6710   10.5270   -3.4250 C   0  0  0  0  0  0  0  0  0  0  0  0
    0.2590   10.6840   -2.8140 C   0  0  1  0  0  0  0  0  0  0  0  0
   -0.7190   10.2290   -3.9430 C   0  0  0  0  0  0  0  0  0  0  0  0
   -0.0060    9.9170   -1.4780 C   0  0  2  0  0  0  0  0  0  0  0  0
    0.0980    8.3850   -1.5730 C   0  0  0  0  0  0  0  0  0  0  0  0
   -1.1750    7.6790   -1.9020 C   0  0  0  0  0  0  0  0  0  0  0  0
   -2.4080    8.2160   -1.8340 C   0  0  0  0  0  0  0  0  0  0  0  0
   -2.6190    9.6370   -1.2970 C   0  0  1  0  0  0  0  0  0  0  0  0
   -3.7980    9.6390   -0.2880 C   0  0  0  0  0  0  0  0  0  0  0  0
   -5.0720    9.0420   -0.8760 C   0  0  0  0  0  0  0  0  0  0  0  0
   -4.8370    7.6090   -1.3460 C   0  0  2  0  0  0  0  0  0  0  0  0
   -4.5780    6.7860   -0.2050 O   0  0  0  0  0  0  0  0  0  0  0  0
   -3.6660    7.4810   -2.3600 C   0  0  0  0  0  0  0  0  0  0  0  0
   -4.0730    8.1200   -3.7100 C   0  0  0  0  0  0  0  0  0  0  0  0
   -3.4430    5.9710   -2.6440 C   0  0  0  0  0  0  0  0  0  0  0  0
   -1.3250   10.3620   -0.7250 C   0  0  1  0  0  0  0  0  0  0  0  0
   -1.1280    9.9920    0.7760 C   0  0  0  0  0  0  0  0  0  0  0  0
   -1.5450   11.9200   -0.7730 C   0  0  0  0  0  0  0  0  0  0  0  0
   -1.1530   12.6370   -2.0790 C   0  0  0  0  0  0  0  0  0  0  0  0
    0.2530   12.2300   -2.5280 C   0  0  2  0  0  0  0  0  0  0  0  0
    1.2610   12.6950   -1.4220 C   0  0  0  0  0  0  0  0  0  0  0  0
    1.1915   14.2405   -1.7642 H   0  0  0  0  0  0  0  0  0  0  0  0
    1.4747   15.8510   -2.5078 H   0  0  0  0  0  0  0  0  0  0  0  0
   -0.1745   15.1392   -2.5078 H   0  0  0  0  0  0  0  0  0  0  0  0
    2.2763   14.2920   -4.0935 H   0  0  0  0  0  0  0  0  0  0  0  0
   -0.5596   14.7194   -5.0961 H   0  0  0  0  0  0  0  0  0  0  0  0
    0.6843   16.0519   -4.9516 H   0  0  0  0  0  0  0  0  0  0  0  0
    2.1737   14.4612   -6.3707 H   0  0  0  0  0  0  0  0  0  0  0  0
    0.5924   13.6973   -6.8216 H   0  0  0  0  0  0  0  0  0  0  0  0
    0.5411   16.3969   -6.6892 H   0  0  0  0  0  0  0  0  0  0  0  0
    3.2685   14.5999   -8.1129 H   0  0  0  0  0  0  0  0  0  0  0  0
    2.4534   14.1011   -9.6339 H   0  0  0  0  0  0  0  0  0  0  0  0
    3.5731   15.5056   -9.6339 H   0  0  0  0  0  0  0  0  0  0  0  0
    1.6947   18.0021   -8.6377 H   0  0  0  0  0  0  0  0  0  0  0  0
    2.5860   17.3007  -10.0306 H   0  0  0  0  0  0  0  0  0  0  0  0
    0.7898   17.3181  -10.0306 H   0  0  0  0  0  0  0  0  0  0  0  0
   -0.1014   12.8384   -4.5970 H   0  0  0  0  0  0  0  0  0  0  0  0
    1.7994   11.5533   -5.3532 H   0  0  0  0  0  0  0  0  0  0  0  0
    2.8609   12.2460   -4.1082 H   0  0  0  0  0  0  0  0  0  0  0  0
    1.7247    9.6245   -4.0515 H   0  0  0  0  0  0  0  0  0  0  0  0
    2.4487   10.4176   -2.6548 H   0  0  0  0  0  0  0  0  0  0  0  0
   -1.6285    9.8059   -3.4917 H   0  0  0  0  0  0  0  0  0  0  0  0
   -0.9876   11.0946   -4.5663 H   0  0  0  0  0  0  0  0  0  0  0  0
   -0.2299    9.4660   -4.5663 H   0  0  0  0  0  0  0  0  0  0  0  0
    0.8409   10.2351   -0.8522 H   0  0  0  0  0  0  0  0  0  0  0  0
    0.8332    8.1420   -2.3543 H   0  0  0  0  0  0  0  0  0  0  0  0
    0.3889    8.0369   -0.5709 H   0  0  0  0  0  0  0  0  0  0  0  0
   -1.0997    6.6310   -2.2277 H   0  0  0  0  0  0  0  0  0  0  0  0
   -2.8726   10.2573   -2.1693 H   0  0  0  0  0  0  0  0  0  0  0  0
   -3.5076    9.0504    0.5948 H   0  0  0  0  0  0  0  0  0  0  0  0
   -4.0104   10.6857   -0.0248 H   0  0  0  0  0  0  0  0  0  0  0  0
   -5.8587    9.0442   -0.1071 H   0  0  0  0  0  0  0  0  0  0  0  0
   -5.3774    9.6493   -1.7408 H   0  0  0  0  0  0  0  0  0  0  0  0
   -5.7452    7.2818   -1.8733 H   0  0  0  0  0  0  0  0  0  0  0  0
   -3.9750    7.2760    0.3800 H   0  0  0  0  0  0  0  0  0  0  0  0
   -4.6553    9.0342   -3.5222 H   0  0  0  0  0  0  0  0  0  0  0  0
   -3.1689    8.3724   -4.2835 H   0  0  0  0  0  0  0  0  0  0  0  0
   -4.6840    7.4074   -4.2835 H   0  0  0  0  0  0  0  0  0  0  0  0
   -3.3626    5.4267   -1.6915 H   0  0  0  0  0  0  0  0  0  0  0  0
   -4.2927    5.5770   -3.2209 H   0  0  0  0  0  0  0  0  0  0  0  0
   -2.5157    5.8394   -3.2209 H   0  0  0  0  0  0  0  0  0  0  0  0
   -1.5511   10.7866    1.4081 H   0  0  0  0  0  0  0  0  0  0  0  0
   -1.6397    9.0420    0.9897 H   0  0  0  0  0  0  0  0  0  0  0  0
   -0.0542    9.8862    0.9897 H   0  0  0  0  0  0  0  0  0  0  0  0
   -2.6139   12.1107   -0.5966 H   0  0  0  0  0  0  0  0  0  0  0  0
   -0.8709   12.3296   -0.0063 H   0  0  0  0  0  0  0  0  0  0  0  0
   -1.8734   12.3698   -2.8662 H   0  0  0  0  0  0  0  0  0  0  0  0
   -1.1630   13.7222   -1.8995 H   0  0  0  0  0  0  0  0  0  0  0  0
    0.8322   12.4972   -0.4285 H   0  0  0  0  0  0  0  0  0  0  0  0
    2.2054   12.1416   -1.5305 H   0  0  0  0  0  0  0  0  0  0  0  0
    1.4530   13.7727   -1.5305 H   0  0  0  0  0  0  0  0  0  0  0  0
  1  2  1  0
  2  3  1  0
  3  4  1  0
  4  5  1  0
  5  6  1  0
  6  7  1  0
  7  8  1  0
  7  9  1  0
  2 10  1  0
 10 11  1  0
 11 12  1  0
 12 13  1  0
 13 14  1  6
 13 15  1  0
 15 16  1  0
 16 17  1  0
 17 18  2  0
 18 19  1  0
 19 20  1  0
 20 21  1  0
 21 22  1  0
 22 23  1  0
 22 24  1  0
 24 25  1  0
 24 26  1  0
 19 27  1  0
 27 28  1  1
 27 29  1  0
 29 30  1  0
 30 31  1  0
 31 32  1  1
  7  5  1  0
 31 10  1  0
 31 13  1  0
 27 15  1  0
 24 18  1  0
  1 33  1  0
  1 34  1  0
  1 35  1  0
  2 36  1  6
  3 37  1  0
  3 38  1  0
  4 39  1  0
  4 40  1  0
  5 41  1  1
  8 42  1  0
  8 43  1  0
  8 44  1  0
  9 45  1  0
  9 46  1  0
  9 47  1  0
 10 48  1  6
 11 49  1  0
 11 50  1  0
 12 51  1  0
 12 52  1  0
 14 53  1  0
 14 54  1  0
 14 55  1  0
 15 56  1  1
 16 57  1  0
 16 58  1  0
 17 59  1  0
 19 60  1  6
 20 61  1  0
 20 62  1  0
 21 63  1  0
 21 64  1  0
 22 65  1  6
 23 66  1  0
 25 67  1  0
 25 68  1  0
 25 69  1  0
 26 70  1  0
 26 71  1  0
 26 72  1  0
 28 73  1  0
 28 74  1  0
 28 75  1  0
 29 76  1  0
 29 77  1  0
 30 78  1  0
 30 79  1  0
 32 80  1  0
 32 81  1  0
 32 82  1  0
M  END
>  <meeko>  (18) 
{"is_sidechain": [false], "intermolecular_energy": 2.731, "internal_energy": -0.839}

$$$$
