EPH_relaxed_0001_pdb2pqr_Repair_2_r2_0001_out
     RDKit          3D

 82 86  0  0  0  0  0  0  0  0999 V2000
   -1.5670    8.5500   -1.8660 C   0  0  0  0  0  0  0  0  0  0  0  0
   -1.9990    9.1390   -0.5200 C   0  0  2  0  0  0  0  0  0  0  0  0
   -3.4850    9.5480   -0.5150 C   0  0  0  0  0  0  0  0  0  0  0  0
   -4.4480    8.3670   -0.3580 C   0  0  0  0  0  0  0  0  0  0  0  0
   -5.0940    8.0020   -1.6600 C   0  0  2  0  0  0  0  0  0  0  0  0
   -6.3610    8.6300   -1.8960 O   0  0  0  0  0  0  0  0  0  0  0  0
   -6.3780    7.2000   -1.7610 C   0  0  0  0  0  0  0  0  0  0  0  0
   -7.0910    6.7130   -0.5390 C   0  0  0  0  0  0  0  0  0  0  0  0
   -6.6720    6.4770   -3.0390 C   0  0  0  0  0  0  0  0  0  0  0  0
   -1.1270   10.3410   -0.1750 C   0  0  1  0  0  0  0  0  0  0  0  0
   -0.0520   10.0120    0.8950 C   0  0  0  0  0  0  0  0  0  0  0  0
    1.2040   10.8480    0.5400 C   0  0  0  0  0  0  0  0  0  0  0  0
    0.7080   11.8690   -0.5110 C   0  0  1  0  0  0  0  0  0  0  0  0
    0.0320   13.0040    0.3200 C   0  0  0  0  0  0  0  0  0  0  0  0
    1.7900   12.4340   -1.4880 C   0  0  2  0  0  0  0  0  0  0  0  0
    2.9190   13.2360   -0.8180 C   0  0  0  0  0  0  0  0  0  0  0  0
    2.6710   14.7030   -0.6910 C   0  0  0  0  0  0  0  0  0  0  0  0
    1.7210   15.3950   -1.3470 C   0  0  0  0  0  0  0  0  0  0  0  0
    0.8350   14.7150   -2.3990 C   0  0  1  0  0  0  0  0  0  0  0  0
    0.7580   15.6060   -3.6660 C   0  0  0  0  0  0  0  0  0  0  0  0
    0.3040   17.0290   -3.3530 C   0  0  0  0  0  0  0  0  0  0  0  0
    1.2430   17.6920   -2.3480 C   0  0  2  0  0  0  0  0  0  0  0  0
    2.5210   17.8760   -2.9640 O   0  0  0  0  0  0  0  0  0  0  0  0
    1.4070   16.8790   -1.0340 C   0  0  0  0  0  0  0  0  0  0  0  0
    0.0920   16.9360   -0.2190 C   0  0  0  0  0  0  0  0  0  0  0  0
    2.4860   17.5840   -0.1680 C   0  0  0  0  0  0  0  0  0  0  0  0
    1.1960   13.2040   -2.7370 C   0  0  1  0  0  0  0  0  0  0  0  0
    2.2870   13.1540   -3.8510 C   0  0  0  0  0  0  0  0  0  0  0  0
   -0.0770   12.4920   -3.3290 C   0  0  0  0  0  0  0  0  0  0  0  0
   -1.0460   11.8480   -2.3190 C   0  0  0  0  0  0  0  0  0  0  0  0
   -0.2920   10.9650   -1.3210 C   0  0  2  0  0  0  0  0  0  0  0  0
    0.3810    9.8010   -2.1250 C   0  0  0  0  0  0  0  0  0  0  0  0
   -0.9245    7.6740   -1.6936 H   0  0  0  0  0  0  0  0  0  0  0  0
   -2.4573    8.2453   -2.4356 H   0  0  0  0  0  0  0  0  0  0  0  0
   -1.0089    9.3077   -2.4356 H   0  0  0  0  0  0  0  0  0  0  0  0
   -1.8700    8.3550    0.2408 H   0  0  0  0  0  0  0  0  0  0  0  0
   -3.6507   10.2446    0.3200 H   0  0  0  0  0  0  0  0  0  0  0  0
   -3.6955   10.0068   -1.4923 H   0  0  0  0  0  0  0  0  0  0  0  0
   -3.8882    7.4981    0.0182 H   0  0  0  0  0  0  0  0  0  0  0  0
   -5.2395    8.6612    0.3470 H   0  0  0  0  0  0  0  0  0  0  0  0
   -4.1120    7.8863   -2.1420 H   0  0  0  0  0  0  0  0  0  0  0  0
   -6.5663    7.0714    0.3589 H   0  0  0  0  0  0  0  0  0  0  0  0
   -8.1220    7.0965   -0.5388 H   0  0  0  0  0  0  0  0  0  0  0  0
   -7.1089    5.6131   -0.5388 H   0  0  0  0  0  0  0  0  0  0  0  0
   -7.0774    5.4801   -2.8114 H   0  0  0  0  0  0  0  0  0  0  0  0
   -7.4093    7.0482   -3.6222 H   0  0  0  0  0  0  0  0  0  0  0  0
   -5.7453    6.3716   -3.6222 H   0  0  0  0  0  0  0  0  0  0  0  0
   -1.9055   11.0463    0.1515 H   0  0  0  0  0  0  0  0  0  0  0  0
   -0.4180   10.2848    1.8958 H   0  0  0  0  0  0  0  0  0  0  0  0
    0.1794    8.9367    0.9043 H   0  0  0  0  0  0  0  0  0  0  0  0
    1.5914   11.3644    1.4306 H   0  0  0  0  0  0  0  0  0  0  0  0
    2.0269   10.2245    0.1604 H   0  0  0  0  0  0  0  0  0  0  0  0
    0.1558   12.7962    1.3931 H   0  0  0  0  0  0  0  0  0  0  0  0
    0.5035   13.9675    0.0763 H   0  0  0  0  0  0  0  0  0  0  0  0
   -1.0398   13.0483    0.0763 H   0  0  0  0  0  0  0  0  0  0  0  0
    2.2625   11.5181   -1.8725 H   0  0  0  0  0  0  0  0  0  0  0  0
    3.0721   12.8285    0.1922 H   0  0  0  0  0  0  0  0  0  0  0  0
    3.7965   13.1314   -1.4730 H   0  0  0  0  0  0  0  0  0  0  0  0
    3.3194   15.2657   -0.0033 H   0  0  0  0  0  0  0  0  0  0  0  0
   -0.1627   14.6260   -1.9444 H   0  0  0  0  0  0  0  0  0  0  0  0
    1.7549   15.6476   -4.1291 H   0  0  0  0  0  0  0  0  0  0  0  0
    0.0155   15.1597   -4.3438 H   0  0  0  0  0  0  0  0  0  0  0  0
    0.2975   17.6175   -4.2823 H   0  0  0  0  0  0  0  0  0  0  0  0
   -0.7051   16.9880   -2.9170 H   0  0  0  0  0  0  0  0  0  0  0  0
    0.7962   18.6565   -2.0650 H   0  0  0  0  0  0  0  0  0  0  0  0
    3.1450   18.1500   -2.2700 H   0  0  0  0  0  0  0  0  0  0  0  0
    0.3260   16.9259    0.8558 H   0  0  0  0  0  0  0  0  0  0  0  0
   -0.4533   17.8586   -0.4668 H   0  0  0  0  0  0  0  0  0  0  0  0
   -0.5311   16.0640   -0.4668 H   0  0  0  0  0  0  0  0  0  0  0  0
    2.2566   17.4341    0.8973 H   0  0  0  0  0  0  0  0  0  0  0  0
    3.4741   17.1568   -0.3939 H   0  0  0  0  0  0  0  0  0  0  0  0
    2.4916   18.6605   -0.3939 H   0  0  0  0  0  0  0  0  0  0  0  0
    3.2832   13.1083   -3.3868 H   0  0  0  0  0  0  0  0  0  0  0  0
    2.1324   12.2620   -4.4758 H   0  0  0  0  0  0  0  0  0  0  0  0
    2.2146   14.0564   -4.4758 H   0  0  0  0  0  0  0  0  0  0  0  0
   -0.6426   13.2427   -3.9004 H   0  0  0  0  0  0  0  0  0  0  0  0
    0.3133   11.6552   -3.9269 H   0  0  0  0  0  0  0  0  0  0  0  0
   -1.5732   12.6421   -1.7699 H   0  0  0  0  0  0  0  0  0  0  0  0
   -1.7613   11.2206   -2.8710 H   0  0  0  0  0  0  0  0  0  0  0  0
    0.8049    9.0678   -1.4231 H   0  0  0  0  0  0  0  0  0  0  0  0
   -0.3722    9.3094   -2.7582 H   0  0  0  0  0  0  0  0  0  0  0  0
    1.1829   10.2085   -2.7582 H   0  0  0  0  0  0  0  0  0  0  0  0
  1  2  1  0
  2  3  1  0
  3  4  1  0
  4  5  1  0
  5  6  1  0
  6  7  1  0
  7  8  1  0
  7  9  1  0
  2 10  1  0
 10 11  1  0
 11 12  1  0
 12 13  1  0
 13 14  1  1
 13 15  1  0
 15 16  1  0
 16 17  1  0
 17 18  2  0
 18 19  1  0
 19 20  1  0
 20 21  1  0
 21 22  1  0
 22 23  1  0
 22 24  1  0
 24 25  1  0
 24 26  1  0
 19 27  1  0
 27 28  1  6
 27 29  1  0
 29 30  1  0
 30 31  1  0
 31 32  1  6
  7  5  1  0
 31 10  1  0
 31 13  1  0
 27 15  1  0
 24 18  1  0
  1 33  1  0
  1 34  1  0
  1 35  1  0
  2 36  1  1
  3 37  1  0
  3 38  1  0
  4 39  1  0
  4 40  1  0
  5 41  1  6
  8 42  1  0
  8 43  1  0
  8 44  1  0
  9 45  1  0
  9 46  1  0
  9 47  1  0
 10 48  1  1
 11 49  1  0
 11 50  1  0
 12 51  1  0
 12 52  1  0
 14 53  1  0
 14 54  1  0
 14 55  1  0
 15 56  1  6
 16 57  1  0
 16 58  1  0
 17 59  1  0
 19 60  1  1
 20 61  1  0
 20 62  1  0
 21 63  1  0
 21 64  1  0
 22 65  1  1
 23 66  1  0
 25 67  1  0
 25 68  1  0
 25 69  1  0
 26 70  1  0
 26 71  1  0
 26 72  1  0
 28 73  1  0
 28 74  1  0
 28 75  1  0
 29 76  1  0
 29 77  1  0
 30 78  1  0
 30 79  1  0
 32 80  1  0
 32 81  1  0
 32 82  1  0
M  END
>  <meeko>  (1) 
{"is_sidechain": [false], "intermolecular_energy": 2.731, "internal_energy": -0.839}

$$$$
EPH_relaxed_0001_pdb2pqr_Repair_2_r2_0001_out
     RDKit          3D

 82 86  0  0  0  0  0  0  0  0999 V2000
    0.3890   18.4390    0.0200 C   0  0  0  0  0  0  0  0  0  0  0  0
    1.4880   17.4000   -0.2180 C   0  0  2  0  0  0  0  0  0  0  0  0
    2.6880   17.9890   -0.9850 C   0  0  0  0  0  0  0  0  0  0  0  0
    3.9160   18.2410   -0.1050 C   0  0  0  0  0  0  0  0  0  0  0  0
    3.5300   18.6980    1.2690 C   0  0  2  0  0  0  0  0  0  0  0  0
    3.7820   20.0850    1.5310 O   0  0  0  0  0  0  0  0  0  0  0  0
    4.5340   19.1450    2.3150 C   0  0  0  0  0  0  0  0  0  0  0  0
    6.0040   19.1540    2.0320 C   0  0  0  0  0  0  0  0  0  0  0  0
    4.1310   19.1040    3.7560 C   0  0  0  0  0  0  0  0  0  0  0  0
    0.9190   16.2070   -0.9780 C   0  0  1  0  0  0  0  0  0  0  0  0
    0.7630   16.4860   -2.4970 C   0  0  0  0  0  0  0  0  0  0  0  0
    1.0610   15.1530   -3.2300 C   0  0  0  0  0  0  0  0  0  0  0  0
    1.0500   14.0830   -2.1130 C   0  0  1  0  0  0  0  0  0  0  0  0
   -0.4590   13.7630   -1.8780 C   0  0  0  0  0  0  0  0  0  0  0  0
    1.8790   12.7860   -2.3900 C   0  0  2  0  0  0  0  0  0  0  0  0
    1.4030   11.9520   -3.5910 C   0  0  0  0  0  0  0  0  0  0  0  0
    0.3910   10.9010   -3.2770 C   0  0  0  0  0  0  0  0  0  0  0  0
    0.0930   10.4440   -2.0460 C   0  0  0  0  0  0  0  0  0  0  0  0
    0.8760   10.9250   -0.8170 C   0  0  1  0  0  0  0  0  0  0  0  0
    1.2630    9.7060    0.0600 C   0  0  0  0  0  0  0  0  0  0  0  0
    0.0570    8.8490    0.4350 C   0  0  0  0  0  0  0  0  0  0  0  0
   -0.6610    8.3420   -0.8130 C   0  0  2  0  0  0  0  0  0  0  0  0
    0.1990    7.4280   -1.5000 O   0  0  0  0  0  0  0  0  0  0  0  0
   -1.0900    9.4820   -1.7790 C   0  0  0  0  0  0  0  0  0  0  0  0
   -2.2440   10.2950   -1.1430 C   0  0  0  0  0  0  0  0  0  0  0  0
   -1.6740    8.8270   -3.0600 C   0  0  0  0  0  0  0  0  0  0  0  0
    2.1110   11.8810   -1.1130 C   0  0  1  0  0  0  0  0  0  0  0  0
    3.3870   11.0290   -1.3970 C   0  0  0  0  0  0  0  0  0  0  0  0
    2.4230   12.7310    0.1750 C   0  0  0  0  0  0  0  0  0  0  0  0
    1.6600   14.0600    0.3320 C   0  0  0  0  0  0  0  0  0  0  0  0
    1.7370   14.8910   -0.9520 C   0  0  2  0  0  0  0  0  0  0  0  0
    3.2420   15.2470   -1.2020 C   0  0  0  0  0  0  0  0  0  0  0  0
    0.2430   18.5771    1.1015 H   0  0  0  0  0  0  0  0  0  0  0  0
    0.6842   19.3959   -0.4352 H   0  0  0  0  0  0  0  0  0  0  0  0
   -0.5498   18.0906   -0.4352 H   0  0  0  0  0  0  0  0  0  0  0  0
    1.8539   17.0739    0.7668 H   0  0  0  0  0  0  0  0  0  0  0  0
    2.9702   17.2854   -1.7821 H   0  0  0  0  0  0  0  0  0  0  0  0
    2.3697   18.9648   -1.3807 H   0  0  0  0  0  0  0  0  0  0  0  0
    4.4920   17.3076   -0.0213 H   0  0  0  0  0  0  0  0  0  0  0  0
    4.5163   19.0346   -0.5739 H   0  0  0  0  0  0  0  0  0  0  0  0
    2.7021   17.9745    1.3028 H   0  0  0  0  0  0  0  0  0  0  0  0
    6.5601   19.1574    2.9811 H   0  0  0  0  0  0  0  0  0  0  0  0
    6.2715   18.2575    1.4535 H   0  0  0  0  0  0  0  0  0  0  0  0
    6.2605   20.0537    1.4535 H   0  0  0  0  0  0  0  0  0  0  0  0
    5.0255   19.1950    4.3896 H   0  0  0  0  0  0  0  0  0  0  0  0
    3.4447   19.9370    3.9687 H   0  0  0  0  0  0  0  0  0  0  0  0
    3.6266   18.1499    3.9687 H   0  0  0  0  0  0  0  0  0  0  0  0
   -0.0260   16.0736   -0.4311 H   0  0  0  0  0  0  0  0  0  0  0  0
   -0.2620   16.8186   -2.7176 H   0  0  0  0  0  0  0  0  0  0  0  0
    1.4507   17.2793   -2.8253 H   0  0  0  0  0  0  0  0  0  0  0  0
    0.2846   14.9400   -3.9796 H   0  0  0  0  0  0  0  0  0  0  0  0
    2.0175   15.1799   -3.7727 H   0  0  0  0  0  0  0  0  0  0  0  0
   -0.6608   13.7202   -0.7975 H   0  0  0  0  0  0  0  0  0  0  0  0
   -1.0763   14.5502   -2.3354 H   0  0  0  0  0  0  0  0  0  0  0  0
   -0.7037   12.7930   -2.3354 H   0  0  0  0  0  0  0  0  0  0  0  0
    2.8608   13.1899   -2.6778 H   0  0  0  0  0  0  0  0  0  0  0  0
    0.9619   12.6389   -4.3282 H   0  0  0  0  0  0  0  0  0  0  0  0
    2.2907   11.4183   -3.9615 H   0  0  0  0  0  0  0  0  0  0  0  0
   -0.1582   10.4624   -4.1232 H   0  0  0  0  0  0  0  0  0  0  0  0
    0.1935   11.5835   -0.2597 H   0  0  0  0  0  0  0  0  0  0  0  0
    1.9784    9.0835   -0.4973 H   0  0  0  0  0  0  0  0  0  0  0  0
    1.7021   10.0910    0.9922 H   0  0  0  0  0  0  0  0  0  0  0  0
    0.3978    7.9882    1.0290 H   0  0  0  0  0  0  0  0  0  0  0  0
   -0.6439    9.4649    1.0176 H   0  0  0  0  0  0  0  0  0  0  0  0
   -1.5857    7.8461   -0.4829 H   0  0  0  0  0  0  0  0  0  0  0  0
    0.2500    6.6150   -0.9680 H   0  0  0  0  0  0  0  0  0  0  0  0
   -2.1690   10.2422   -0.0468 H   0  0  0  0  0  0  0  0  0  0  0  0
   -2.1742   11.3444   -1.4652 H   0  0  0  0  0  0  0  0  0  0  0  0
   -3.2087    9.8760   -1.4652 H   0  0  0  0  0  0  0  0  0  0  0  0
   -2.3813    8.0337   -2.7764 H   0  0  0  0  0  0  0  0  0  0  0  0
   -2.1976    9.5893   -3.6556 H   0  0  0  0  0  0  0  0  0  0  0  0
   -0.8568    8.3939   -3.6556 H   0  0  0  0  0  0  0  0  0  0  0  0
    3.8438   10.7240   -0.4440 H   0  0  0  0  0  0  0  0  0  0  0  0
    3.1096   10.1343   -1.9736 H   0  0  0  0  0  0  0  0  0  0  0  0
    4.1071   11.6281   -1.9736 H   0  0  0  0  0  0  0  0  0  0  0  0
    2.1884   12.1073    1.0502 H   0  0  0  0  0  0  0  0  0  0  0  0
    3.4814   13.0160    0.0823 H   0  0  0  0  0  0  0  0  0  0  0  0
    0.6053   13.8449    0.5587 H   0  0  0  0  0  0  0  0  0  0  0  0
    2.1201   14.6342    1.1496 H   0  0  0  0  0  0  0  0  0  0  0  0
    3.7553   15.3684   -0.2367 H   0  0  0  0  0  0  0  0  0  0  0  0
    3.7205   14.4372   -1.7724 H   0  0  0  0  0  0  0  0  0  0  0  0
    3.3070   16.1853   -1.7724 H   0  0  0  0  0  0  0  0  0  0  0  0
  1  2  1  0
  2  3  1  0
  3  4  1  0
  4  5  1  0
  5  6  1  0
  6  7  1  0
  7  8  1  0
  7  9  1  0
  2 10  1  0
 10 11  1  0
 11 12  1  0
 12 13  1  0
 13 14  1  1
 13 15  1  0
 15 16  1  0
 16 17  1  0
 17 18  2  0
 18 19  1  0
 19 20  1  0
 20 21  1  0
 21 22  1  0
 22 23  1  0
 22 24  1  0
 24 25  1  0
 24 26  1  0
 19 27  1  0
 27 28  1  6
 27 29  1  0
 29 30  1  0
 30 31  1  0
 31 32  1  6
  7  5  1  0
 31 10  1  0
 31 13  1  0
 27 15  1  0
 24 18  1  0
  1 33  1  0
  1 34  1  0
  1 35  1  0
  2 36  1  1
  3 37  1  0
  3 38  1  0
  4 39  1  0
  4 40  1  0
  5 41  1  1
  8 42  1  0
  8 43  1  0
  8 44  1  0
  9 45  1  0
  9 46  1  0
  9 47  1  0
 10 48  1  1
 11 49  1  0
 11 50  1  0
 12 51  1  0
 12 52  1  0
 14 53  1  0
 14 54  1  0
 14 55  1  0
 15 56  1  6
 16 57  1  0
 16 58  1  0
 17 59  1  0
 19 60  1  1
 20 61  1  0
 20 62  1  0
 21 63  1  0
 21 64  1  0
 22 65  1  1
 23 66  1  0
 25 67  1  0
 25 68  1  0
 25 69  1  0
 26 70  1  0
 26 71  1  0
 26 72  1  0
 28 73  1  0
 28 74  1  0
 28 75  1  0
 29 76  1  0
 29 77  1  0
 30 78  1  0
 30 79  1  0
 32 80  1  0
 32 81  1  0
 32 82  1  0
M  END
>  <meeko>  (2) 
{"is_sidechain": [false], "intermolecular_energy": 2.731, "internal_energy": -0.839}

$$$$
EPH_relaxed_0001_pdb2pqr_Repair_2_r2_0001_out
     RDKit          3D

 82 86  0  0  0  0  0  0  0  0999 V2000
    2.0620   18.2010   -2.5770 C   0  0  0  0  0  0  0  0  0  0  0  0
    0.5430   18.0190   -2.6480 C   0  0  2  0  0  0  0  0  0  0  0  0
   -0.1600   18.4940   -1.3610 C   0  0  0  0  0  0  0  0  0  0  0  0
    0.5380   18.0400   -0.0760 C   0  0  0  0  0  0  0  0  0  0  0  0
    1.1220   19.1980    0.6770 C   0  0  2  0  0  0  0  0  0  0  0  0
    2.0400   20.0000   -0.0770 O   0  0  0  0  0  0  0  0  0  0  0  0
    2.5890   19.2980    1.0500 C   0  0  0  0  0  0  0  0  0  0  0  0
    3.5630   18.2240    0.6820 C   0  0  0  0  0  0  0  0  0  0  0  0
    2.9790   20.1930    2.1850 C   0  0  0  0  0  0  0  0  0  0  0  0
    0.2070   16.5570   -2.9160 C   0  0  1  0  0  0  0  0  0  0  0  0
    0.1960   16.2140   -4.4300 C   0  0  0  0  0  0  0  0  0  0  0  0
    0.7270   14.7640   -4.5640 C   0  0  0  0  0  0  0  0  0  0  0  0
    0.7110   14.2080   -3.1210 C   0  0  1  0  0  0  0  0  0  0  0  0
   -0.7690   13.7770   -2.8740 C   0  0  0  0  0  0  0  0  0  0  0  0
    1.7090   13.0430   -2.8180 C   0  0  2  0  0  0  0  0  0  0  0  0
    1.4740   11.7550   -3.6260 C   0  0  0  0  0  0  0  0  0  0  0  0
    0.5600   10.7610   -2.9890 C   0  0  0  0  0  0  0  0  0  0  0  0
    0.1780   10.7650   -1.6990 C   0  0  0  0  0  0  0  0  0  0  0  0
    0.7530   11.7870   -0.7090 C   0  0  1  0  0  0  0  0  0  0  0  0
    1.1740   11.0630    0.5970 C   0  0  0  0  0  0  0  0  0  0  0  0
    0.0390   10.2400    1.2010 C   0  0  0  0  0  0  0  0  0  0  0  0
   -0.4670    9.1970    0.2080 C   0  0  2  0  0  0  0  0  0  0  0  0
    0.5660    8.2320   -0.0130 O   0  0  0  0  0  0  0  0  0  0  0  0
   -0.9100    9.8090   -1.1500 C   0  0  0  0  0  0  0  0  0  0  0  0
   -2.2160   10.6180   -0.9550 C   0  0  0  0  0  0  0  0  0  0  0  0
   -1.2640    8.6380   -2.1080 C   0  0  0  0  0  0  0  0  0  0  0  0
    1.8960   12.7340   -1.2770 C   0  0  1  0  0  0  0  0  0  0  0  0
    3.2850   12.0410   -1.1270 C   0  0  0  0  0  0  0  0  0  0  0  0
    1.9570   14.0440   -0.4070 C   0  0  0  0  0  0  0  0  0  0  0  0
    1.0330   15.2020   -0.8290 C   0  0  0  0  0  0  0  0  0  0  0  0
    1.1620   15.4880   -2.3280 C   0  0  2  0  0  0  0  0  0  0  0  0
    2.6340   15.9450   -2.6040 C   0  0  0  0  0  0  0  0  0  0  0  0
    2.3779   18.2389   -1.5240 H   0  0  0  0  0  0  0  0  0  0  0  0
    2.5564   17.3557   -3.0780 H   0  0  0  0  0  0  0  0  0  0  0  0
    2.3427   19.1392   -3.0780 H   0  0  0  0  0  0  0  0  0  0  0  0
    0.1734   18.6432   -3.4749 H   0  0  0  0  0  0  0  0  0  0  0  0
   -0.1930   19.5935   -1.3686 H   0  0  0  0  0  0  0  0  0  0  0  0
   -1.1640   18.0445   -1.3580 H   0  0  0  0  0  0  0  0  0  0  0  0
   -0.1948   17.5301    0.5666 H   0  0  0  0  0  0  0  0  0  0  0  0
    1.3588   17.3621   -0.3529 H   0  0  0  0  0  0  0  0  0  0  0  0
    0.2011   19.3089    1.2684 H   0  0  0  0  0  0  0  0  0  0  0  0
    3.9731   17.7717    1.5970 H   0  0  0  0  0  0  0  0  0  0  0  0
    3.0508   17.4519    0.0892 H   0  0  0  0  0  0  0  0  0  0  0  0
    4.3814   18.6586    0.0892 H   0  0  0  0  0  0  0  0  0  0  0  0
    2.7604   19.6914    3.1393 H   0  0  0  0  0  0  0  0  0  0  0  0
    4.0549   20.4138    2.1248 H   0  0  0  0  0  0  0  0  0  0  0  0
    2.4082   21.1314    2.1248 H   0  0  0  0  0  0  0  0  0  0  0  0
   -0.7732   16.4997   -2.4200 H   0  0  0  0  0  0  0  0  0  0  0  0
   -0.8281   16.2805   -4.8260 H   0  0  0  0  0  0  0  0  0  0  0  0
    0.8214   16.9177   -4.9989 H   0  0  0  0  0  0  0  0  0  0  0  0
    0.0713   14.1691   -5.2167 H   0  0  0  0  0  0  0  0  0  0  0  0
    1.7299   14.7269   -5.0143 H   0  0  0  0  0  0  0  0  0  0  0  0
   -0.9591   13.7217   -1.7920 H   0  0  0  0  0  0  0  0  0  0  0  0
   -1.4465   14.5152   -3.3280 H   0  0  0  0  0  0  0  0  0  0  0  0
   -0.9443   12.7905   -3.3280 H   0  0  0  0  0  0  0  0  0  0  0  0
    2.6644   13.4510   -3.1796 H   0  0  0  0  0  0  0  0  0  0  0  0
    1.0445   12.0373   -4.5985 H   0  0  0  0  0  0  0  0  0  0  0  0
    2.4539   11.2614   -3.7040 H   0  0  0  0  0  0  0  0  0  0  0  0
    0.1656    9.9575   -3.6284 H   0  0  0  0  0  0  0  0  0  0  0  0
   -0.0607   12.4961   -0.4967 H   0  0  0  0  0  0  0  0  0  0  0  0
    2.0159   10.3915    0.3725 H   0  0  0  0  0  0  0  0  0  0  0  0
    1.4554   11.8331    1.3303 H   0  0  0  0  0  0  0  0  0  0  0  0
    0.4055    9.7295    2.1038 H   0  0  0  0  0  0  0  0  0  0  0  0
   -0.7906   10.9173    1.4520 H   0  0  0  0  0  0  0  0  0  0  0  0
   -1.3603    8.7289    0.6472 H   0  0  0  0  0  0  0  0  0  0  0  0
    0.9830    8.4370   -0.8670 H   0  0  0  0  0  0  0  0  0  0  0  0
   -2.4142   10.7408    0.1200 H   0  0  0  0  0  0  0  0  0  0  0  0
   -2.1078   11.6075   -1.4232 H   0  0  0  0  0  0  0  0  0  0  0  0
   -3.0537   10.0804   -1.4232 H   0  0  0  0  0  0  0  0  0  0  0  0
   -1.5326    7.7496   -1.5175 H   0  0  0  0  0  0  0  0  0  0  0  0
   -2.1147    8.9276   -2.7423 H   0  0  0  0  0  0  0  0  0  0  0  0
   -0.3953    8.4078   -2.7423 H   0  0  0  0  0  0  0  0  0  0  0  0
    3.5223   11.9226   -0.0594 H   0  0  0  0  0  0  0  0  0  0  0  0
    3.2552   11.0521   -1.6079 H   0  0  0  0  0  0  0  0  0  0  0  0
    4.0572   12.6595   -1.6079 H   0  0  0  0  0  0  0  0  0  0  0  0
    1.6964   13.7699    0.6259 H   0  0  0  0  0  0  0  0  0  0  0  0
    2.9790   14.4291   -0.5380 H   0  0  0  0  0  0  0  0  0  0  0  0
   -0.0090   14.9317   -0.6026 H   0  0  0  0  0  0  0  0  0  0  0  0
    1.3261   16.1049   -0.2732 H   0  0  0  0  0  0  0  0  0  0  0  0
    3.1533   16.1062   -1.6478 H   0  0  0  0  0  0  0  0  0  0  0  0
    3.1577   15.1672   -3.1791 H   0  0  0  0  0  0  0  0  0  0  0  0
    2.6251   16.8827   -3.1791 H   0  0  0  0  0  0  0  0  0  0  0  0
  1  2  1  0
  2  3  1  0
  3  4  1  0
  4  5  1  0
  5  6  1  0
  6  7  1  0
  7  8  1  0
  7  9  1  0
  2 10  1  0
 10 11  1  0
 11 12  1  0
 12 13  1  0
 13 14  1  1
 13 15  1  0
 15 16  1  0
 16 17  1  0
 17 18  2  0
 18 19  1  0
 19 20  1  0
 20 21  1  0
 21 22  1  0
 22 23  1  0
 22 24  1  0
 24 25  1  0
 24 26  1  0
 19 27  1  0
 27 28  1  6
 27 29  1  0
 29 30  1  0
 30 31  1  0
 31 32  1  1
  7  5  1  0
 31 10  1  0
 31 13  1  0
 27 15  1  0
 24 18  1  0
  1 33  1  0
  1 34  1  0
  1 35  1  0
  2 36  1  6
  3 37  1  0
  3 38  1  0
  4 39  1  0
  4 40  1  0
  5 41  1  1
  8 42  1  0
  8 43  1  0
  8 44  1  0
  9 45  1  0
  9 46  1  0
  9 47  1  0
 10 48  1  1
 11 49  1  0
 11 50  1  0
 12 51  1  0
 12 52  1  0
 14 53  1  0
 14 54  1  0
 14 55  1  0
 15 56  1  6
 16 57  1  0
 16 58  1  0
 17 59  1  0
 19 60  1  1
 20 61  1  0
 20 62  1  0
 21 63  1  0
 21 64  1  0
 22 65  1  1
 23 66  1  0
 25 67  1  0
 25 68  1  0
 25 69  1  0
 26 70  1  0
 26 71  1  0
 26 72  1  0
 28 73  1  0
 28 74  1  0
 28 75  1  0
 29 76  1  0
 29 77  1  0
 30 78  1  0
 30 79  1  0
 32 80  1  0
 32 81  1  0
 32 82  1  0
M  END
>  <meeko>  (3) 
{"is_sidechain": [false], "intermolecular_energy": 2.731, "internal_energy": -0.839}

$$$$
EPH_relaxed_0001_pdb2pqr_Repair_2_r2_0001_out
     RDKit          3D

 82 86  0  0  0  0  0  0  0  0999 V2000
    2.1990   18.0770   -2.7820 C   0  0  0  0  0  0  0  0  0  0  0  0
    0.9100   17.6800   -2.0580 C   0  0  2  0  0  0  0  0  0  0  0  0
    1.0550   17.7640   -0.5260 C   0  0  0  0  0  0  0  0  0  0  0  0
    0.6940   19.1350    0.0520 C   0  0  0  0  0  0  0  0  0  0  0  0
   -0.7450   19.2000    0.4680 C   0  0  2  0  0  0  0  0  0  0  0  0
   -1.6130   18.3040   -0.2380 O   0  0  0  0  0  0  0  0  0  0  0  0
   -1.8540   19.7070   -0.4350 C   0  0  0  0  0  0  0  0  0  0  0  0
   -1.5720   20.1830   -1.8250 C   0  0  0  0  0  0  0  0  0  0  0  0
   -3.1220   20.1940    0.1940 C   0  0  0  0  0  0  0  0  0  0  0  0
    0.4990   16.2700   -2.4660 C   0  0  1  0  0  0  0  0  0  0  0  0
    0.5180   16.0630   -4.0040 C   0  0  0  0  0  0  0  0  0  0  0  0
    0.9690   14.6010   -4.2530 C   0  0  0  0  0  0  0  0  0  0  0  0
    0.8730   13.9220   -2.8670 C   0  0  1  0  0  0  0  0  0  0  0  0
   -0.6370   13.5610   -2.7000 C   0  0  0  0  0  0  0  0  0  0  0  0
    1.7910   12.6770   -2.6420 C   0  0  2  0  0  0  0  0  0  0  0  0
    1.5090   11.4810   -3.5690 C   0  0  0  0  0  0  0  0  0  0  0  0
    0.5180   10.4920   -3.0490 C   0  0  0  0  0  0  0  0  0  0  0  0
    0.0940   10.4060   -1.7750 C   0  0  0  0  0  0  0  0  0  0  0  0
    0.6940   11.2990   -0.6820 C   0  0  1  0  0  0  0  0  0  0  0  0
    1.0290   10.4390    0.5650 C   0  0  0  0  0  0  0  0  0  0  0  0
   -0.1700    9.6370    1.0610 C   0  0  0  0  0  0  0  0  0  0  0  0
   -0.7030    8.7180   -0.0350 C   0  0  2  0  0  0  0  0  0  0  0  0
    0.2790    7.7150   -0.3130 O   0  0  0  0  0  0  0  0  0  0  0  0
   -1.0650    9.4720   -1.3450 C   0  0  0  0  0  0  0  0  0  0  0  0
   -2.3270   10.3390   -1.1150 C   0  0  0  0  0  0  0  0  0  0  0  0
   -1.4540    8.4150   -2.4130 C   0  0  0  0  0  0  0  0  0  0  0  0
    1.9080   12.2220   -1.1310 C   0  0  1  0  0  0  0  0  0  0  0  0
    3.2490   11.4350   -1.0050 C   0  0  0  0  0  0  0  0  0  0  0  0
    2.0170   13.4440   -0.1450 C   0  0  0  0  0  0  0  0  0  0  0  0
    1.1760   14.6890   -0.4860 C   0  0  0  0  0  0  0  0  0  0  0  0
    1.3700   15.0980   -1.9500 C   0  0  2  0  0  0  0  0  0  0  0  0
    2.8750   15.4870   -2.1420 C   0  0  0  0  0  0  0  0  0  0  0  0
    2.9765   18.3165   -2.0417 H   0  0  0  0  0  0  0  0  0  0  0  0
    2.5377   17.2415   -3.4123 H   0  0  0  0  0  0  0  0  0  0  0  0
    2.0090   18.9583   -3.4123 H   0  0  0  0  0  0  0  0  0  0  0  0
    0.1293   18.3958   -2.3549 H   0  0  0  0  0  0  0  0  0  0  0  0
    0.3936   17.0109   -0.0727 H   0  0  0  0  0  0  0  0  0  0  0  0
    2.1152   17.5860   -0.2932 H   0  0  0  0  0  0  0  0  0  0  0  0
    1.3279   19.3300    0.9296 H   0  0  0  0  0  0  0  0  0  0  0  0
    0.8594   19.8910   -0.7297 H   0  0  0  0  0  0  0  0  0  0  0  0
   -0.4602   19.4527    1.5000 H   0  0  0  0  0  0  0  0  0  0  0  0
   -1.0118   21.1287   -1.7821 H   0  0  0  0  0  0  0  0  0  0  0  0
   -0.9757   19.4274   -2.3574 H   0  0  0  0  0  0  0  0  0  0  0  0
   -2.5212   20.3429   -2.3574 H   0  0  0  0  0  0  0  0  0  0  0  0
   -3.0258   20.1570    1.2892 H   0  0  0  0  0  0  0  0  0  0  0  0
   -3.3140   21.2299   -0.1225 H   0  0  0  0  0  0  0  0  0  0  0  0
   -3.9580   19.5530   -0.1225 H   0  0  0  0  0  0  0  0  0  0  0  0
   -0.4988   16.2288   -2.0049 H   0  0  0  0  0  0  0  0  0  0  0  0
   -0.4870   16.2255   -4.4205 H   0  0  0  0  0  0  0  0  0  0  0  0
    1.2011   16.7752   -4.4899 H   0  0  0  0  0  0  0  0  0  0  0  0
    0.3023   14.1065   -4.9747 H   0  0  0  0  0  0  0  0  0  0  0  0
    1.9826   14.5434   -4.6765 H   0  0  0  0  0  0  0  0  0  0  0  0
   -0.8837   13.5020   -1.6296 H   0  0  0  0  0  0  0  0  0  0  0  0
   -1.2543   14.3369   -3.1764 H   0  0  0  0  0  0  0  0  0  0  0  0
   -0.8367   12.5898   -3.1764 H   0  0  0  0  0  0  0  0  0  0  0  0
    2.7797   13.0575   -2.9383 H   0  0  0  0  0  0  0  0  0  0  0  0
    1.1292   11.8730   -4.5240 H   0  0  0  0  0  0  0  0  0  0  0  0
    2.4608   10.9378   -3.6638 H   0  0  0  0  0  0  0  0  0  0  0  0
    0.0993    9.7730   -3.7685 H   0  0  0  0  0  0  0  0  0  0  0  0
   -0.0840   12.0343   -0.4290 H   0  0  0  0  0  0  0  0  0  0  0  0
    1.8375    9.7401    0.3046 H   0  0  0  0  0  0  0  0  0  0  0  0
    1.3301   11.1234    1.3718 H   0  0  0  0  0  0  0  0  0  0  0  0
    0.1366    9.0278    1.9240 H   0  0  0  0  0  0  0  0  0  0  0  0
   -0.9667   10.3386    1.3490 H   0  0  0  0  0  0  0  0  0  0  0  0
   -1.6361    8.2689    0.3360 H   0  0  0  0  0  0  0  0  0  0  0  0
    0.2240    7.5050   -1.2610 H   0  0  0  0  0  0  0  0  0  0  0  0
   -2.4989   10.4571   -0.0349 H   0  0  0  0  0  0  0  0  0  0  0  0
   -2.1808   11.3282   -1.5733 H   0  0  0  0  0  0  0  0  0  0  0  0
   -3.1979    9.8477   -1.5733 H   0  0  0  0  0  0  0  0  0  0  0  0
   -1.7924    7.4956   -1.9127 H   0  0  0  0  0  0  0  0  0  0  0  0
   -2.2655    8.8103   -3.0416 H   0  0  0  0  0  0  0  0  0  0  0  0
   -0.5798    8.1899   -3.0416 H   0  0  0  0  0  0  0  0  0  0  0  0
    3.4919   11.2924    0.0583 H   0  0  0  0  0  0  0  0  0  0  0  0
    3.1457   10.4542   -1.4922 H   0  0  0  0  0  0  0  0  0  0  0  0
    4.0549   12.0034   -1.4922 H   0  0  0  0  0  0  0  0  0  0  0  0
    1.7075   13.0961    0.8516 H   0  0  0  0  0  0  0  0  0  0  0  0
    3.0635   13.7761   -0.2129 H   0  0  0  0  0  0  0  0  0  0  0  0
    0.1133   14.4637   -0.3131 H   0  0  0  0  0  0  0  0  0  0  0  0
    1.5030   15.5198    0.1565 H   0  0  0  0  0  0  0  0  0  0  0  0
    3.3504   15.6099   -1.1577 H   0  0  0  0  0  0  0  0  0  0  0  0
    3.3905   14.6926   -2.7016 H   0  0  0  0  0  0  0  0  0  0  0  0
    2.9410   16.4317   -2.7016 H   0  0  0  0  0  0  0  0  0  0  0  0
  1  2  1  0
  2  3  1  0
  3  4  1  0
  4  5  1  0
  5  6  1  0
  6  7  1  0
  7  8  1  0
  7  9  1  0
  2 10  1  0
 10 11  1  0
 11 12  1  0
 12 13  1  0
 13 14  1  1
 13 15  1  0
 15 16  1  0
 16 17  1  0
 17 18  2  0
 18 19  1  0
 19 20  1  0
 20 21  1  0
 21 22  1  0
 22 23  1  0
 22 24  1  0
 24 25  1  0
 24 26  1  0
 19 27  1  0
 27 28  1  6
 27 29  1  0
 29 30  1  0
 30 31  1  0
 31 32  1  1
  7  5  1  0
 31 10  1  0
 31 13  1  0
 27 15  1  0
 24 18  1  0
  1 33  1  0
  1 34  1  0
  1 35  1  0
  2 36  1  6
  3 37  1  0
  3 38  1  0
  4 39  1  0
  4 40  1  0
  5 41  1  1
  8 42  1  0
  8 43  1  0
  8 44  1  0
  9 45  1  0
  9 46  1  0
  9 47  1  0
 10 48  1  1
 11 49  1  0
 11 50  1  0
 12 51  1  0
 12 52  1  0
 14 53  1  0
 14 54  1  0
 14 55  1  0
 15 56  1  6
 16 57  1  0
 16 58  1  0
 17 59  1  0
 19 60  1  1
 20 61  1  0
 20 62  1  0
 21 63  1  0
 21 64  1  0
 22 65  1  1
 23 66  1  0
 25 67  1  0
 25 68  1  0
 25 69  1  0
 26 70  1  0
 26 71  1  0
 26 72  1  0
 28 73  1  0
 28 74  1  0
 28 75  1  0
 29 76  1  0
 29 77  1  0
 30 78  1  0
 30 79  1  0
 32 80  1  0
 32 81  1  0
 32 82  1  0
M  END
>  <meeko>  (4) 
{"is_sidechain": [false], "intermolecular_energy": 2.731, "internal_energy": -0.839}

$$$$
EPH_relaxed_0001_pdb2pqr_Repair_2_r2_0001_out
     RDKit          3D

 82 86  0  0  0  0  0  0  0  0999 V2000
    3.7220   17.9530    0.7120 C   0  0  0  0  0  0  0  0  0  0  0  0
    2.7300   18.3540   -0.3830 C   0  0  2  0  0  0  0  0  0  0  0  0
    2.0010   19.6720   -0.0520 C   0  0  0  0  0  0  0  0  0  0  0  0
    0.8650   19.5100    0.9620 C   0  0  0  0  0  0  0  0  0  0  0  0
   -0.4130   20.1140    0.4630 C   0  0  2  0  0  0  0  0  0  0  0  0
   -1.4590   20.1930    1.4410 O   0  0  0  0  0  0  0  0  0  0  0  0
   -1.7060   19.3340    0.3160 C   0  0  0  0  0  0  0  0  0  0  0  0
   -1.7850   17.8810    0.6670 C   0  0  0  0  0  0  0  0  0  0  0  0
   -2.7520   19.8530   -0.6200 C   0  0  0  0  0  0  0  0  0  0  0  0
    1.7150   17.2370   -0.5980 C   0  0  1  0  0  0  0  0  0  0  0  0
    0.5110   17.6840   -1.4690 C   0  0  0  0  0  0  0  0  0  0  0  0
    0.0930   16.4570   -2.3180 C   0  0  0  0  0  0  0  0  0  0  0  0
    0.8420   15.2650   -1.6760 C   0  0  1  0  0  0  0  0  0  0  0  0
   -0.0250   14.8650   -0.4420 C   0  0  0  0  0  0  0  0  0  0  0  0
    1.1200   14.0410   -2.6080 C   0  0  2  0  0  0  0  0  0  0  0  0
   -0.1360   13.3340   -3.1490 C   0  0  0  0  0  0  0  0  0  0  0  0
   -0.6520   12.2170   -2.3040 C   0  0  0  0  0  0  0  0  0  0  0  0
    0.0240   11.6100   -1.3110 C   0  0  0  0  0  0  0  0  0  0  0  0
    1.4840   11.9750   -1.0150 C   0  0  1  0  0  0  0  0  0  0  0  0
    2.3160   10.6770   -0.8410 C   0  0  0  0  0  0  0  0  0  0  0  0
    1.7250    9.7390    0.2070 C   0  0  0  0  0  0  0  0  0  0  0  0
    0.2930    9.3530   -0.1520 C   0  0  2  0  0  0  0  0  0  0  0  0
    0.3140    8.5570   -1.3410 O   0  0  0  0  0  0  0  0  0  0  0  0
   -0.6380   10.5800   -0.3620 C   0  0  0  0  0  0  0  0  0  0  0  0
   -0.9020   11.2720    0.9980 C   0  0  0  0  0  0  0  0  0  0  0  0
   -2.0130   10.0580   -0.8570 C   0  0  0  0  0  0  0  0  0  0  0  0
    2.1600   13.0030   -2.0210 C   0  0  1  0  0  0  0  0  0  0  0  0
    2.7610   12.2380   -3.2390 C   0  0  0  0  0  0  0  0  0  0  0  0
    3.3680   13.7090   -1.3000 C   0  0  0  0  0  0  0  0  0  0  0  0
    3.0480   14.9820   -0.4930 C   0  0  0  0  0  0  0  0  0  0  0  0
    2.2070   15.9590   -1.3210 C   0  0  2  0  0  0  0  0  0  0  0  0
    3.0620   16.3960   -2.5580 C   0  0  0  0  0  0  0  0  0  0  0  0
    3.2719   18.1350    1.6991 H   0  0  0  0  0  0  0  0  0  0  0  0
    3.9668   16.8853    0.6118 H   0  0  0  0  0  0  0  0  0  0  0  0
    4.6400   18.5506    0.6118 H   0  0  0  0  0  0  0  0  0  0  0  0
    3.3044   18.5179   -1.3067 H   0  0  0  0  0  0  0  0  0  0  0  0
    2.7348   20.3808    0.3591 H   0  0  0  0  0  0  0  0  0  0  0  0
    1.5477   20.0320   -0.9874 H   0  0  0  0  0  0  0  0  0  0  0  0
    0.7038   18.4380    1.1486 H   0  0  0  0  0  0  0  0  0  0  0  0
    1.1532   20.0318    1.8865 H   0  0  0  0  0  0  0  0  0  0  0  0
    0.1382   20.7656   -0.2310 H   0  0  0  0  0  0  0  0  0  0  0  0
   -1.7911   17.7679    1.7612 H   0  0  0  0  0  0  0  0  0  0  0  0
   -2.7078   17.4524    0.2489 H   0  0  0  0  0  0  0  0  0  0  0  0
   -0.9141   17.3549    0.2489 H   0  0  0  0  0  0  0  0  0  0  0  0
   -3.5893   20.2685   -0.0401 H   0  0  0  0  0  0  0  0  0  0  0  0
   -2.3186   20.6406   -1.2539 H   0  0  0  0  0  0  0  0  0  0  0  0
   -3.1170   19.0315   -1.2539 H   0  0  0  0  0  0  0  0  0  0  0  0
    1.4699   17.0063    0.4492 H   0  0  0  0  0  0  0  0  0  0  0  0
   -0.3235   18.0023   -0.8269 H   0  0  0  0  0  0  0  0  0  0  0  0
    0.7827   18.5346   -2.1114 H   0  0  0  0  0  0  0  0  0  0  0  0
   -0.9952   16.3036   -2.2693 H   0  0  0  0  0  0  0  0  0  0  0  0
    0.3418   16.5817   -3.3822 H   0  0  0  0  0  0  0  0  0  0  0  0
    0.5160   15.1146    0.4826 H   0  0  0  0  0  0  0  0  0  0  0  0
   -0.9774   15.4147   -0.4693 H   0  0  0  0  0  0  0  0  0  0  0  0
   -0.2249   13.7837   -0.4693 H   0  0  0  0  0  0  0  0  0  0  0  0
    1.5966   14.5119   -3.4804 H   0  0  0  0  0  0  0  0  0  0  0  0
   -0.9342   14.0848   -3.2445 H   0  0  0  0  0  0  0  0  0  0  0  0
    0.1586   12.8803   -4.1068 H   0  0  0  0  0  0  0  0  0  0  0  0
   -1.6716   11.8595   -2.5104 H   0  0  0  0  0  0  0  0  0  0  0  0
    1.4712   12.5403   -0.0715 H   0  0  0  0  0  0  0  0  0  0  0  0
    2.3525   10.1496   -1.8057 H   0  0  0  0  0  0  0  0  0  0  0  0
    3.3206   10.9677   -0.5001 H   0  0  0  0  0  0  0  0  0  0  0  0
    2.3399    8.8287    0.2630 H   0  0  0  0  0  0  0  0  0  0  0  0
    1.7161   10.2575    1.1771 H   0  0  0  0  0  0  0  0  0  0  0  0
   -0.1187    8.7881    0.6973 H   0  0  0  0  0  0  0  0  0  0  0  0
   -0.1120    9.0710   -2.0470 H   0  0  0  0  0  0  0  0  0  0  0  0
   -0.6399   10.5849    1.8160 H   0  0  0  0  0  0  0  0  0  0  0  0
   -0.2877   12.1815    1.0720 H   0  0  0  0  0  0  0  0  0  0  0  0
   -1.9660   11.5412    1.0720 H   0  0  0  0  0  0  0  0  0  0  0  0
   -2.6472    9.8172    0.0090 H   0  0  0  0  0  0  0  0  0  0  0  0
   -2.5020   10.8330   -1.4654 H   0  0  0  0  0  0  0  0  0  0  0  0
   -1.8645    9.1537   -1.4654 H   0  0  0  0  0  0  0  0  0  0  0  0
    3.4030   11.4208   -2.8783 H   0  0  0  0  0  0  0  0  0  0  0  0
    1.9458   11.8218   -3.8491 H   0  0  0  0  0  0  0  0  0  0  0  0
    3.3583   12.9315   -3.8491 H   0  0  0  0  0  0  0  0  0  0  0  0
    3.8146   12.9799   -0.6080 H   0  0  0  0  0  0  0  0  0  0  0  0
    4.0323   14.0419   -2.1110 H   0  0  0  0  0  0  0  0  0  0  0  0
    2.4886   14.7032    0.4121 H   0  0  0  0  0  0  0  0  0  0  0  0
    3.9943   15.4742   -0.2243 H   0  0  0  0  0  0  0  0  0  0  0  0
    3.9917   16.8712   -2.2117 H   0  0  0  0  0  0  0  0  0  0  0  0
    3.3062   15.5122   -3.1656 H   0  0  0  0  0  0  0  0  0  0  0  0
    2.4887   17.1116   -3.1656 H   0  0  0  0  0  0  0  0  0  0  0  0
  1  2  1  0
  2  3  1  0
  3  4  1  0
  4  5  1  0
  5  6  1  0
  6  7  1  0
  7  8  1  0
  7  9  1  0
  2 10  1  0
 10 11  1  0
 11 12  1  0
 12 13  1  0
 13 14  1  1
 13 15  1  0
 15 16  1  0
 16 17  1  0
 17 18  2  0
 18 19  1  0
 19 20  1  0
 20 21  1  0
 21 22  1  0
 22 23  1  0
 22 24  1  0
 24 25  1  0
 24 26  1  0
 19 27  1  0
 27 28  1  6
 27 29  1  0
 29 30  1  0
 30 31  1  0
 31 32  1  6
  7  5  1  0
 31 10  1  0
 31 13  1  0
 27 15  1  0
 24 18  1  0
  1 33  1  0
  1 34  1  0
  1 35  1  0
  2 36  1  6
  3 37  1  0
  3 38  1  0
  4 39  1  0
  4 40  1  0
  5 41  1  6
  8 42  1  0
  8 43  1  0
  8 44  1  0
  9 45  1  0
  9 46  1  0
  9 47  1  0
 10 48  1  1
 11 49  1  0
 11 50  1  0
 12 51  1  0
 12 52  1  0
 14 53  1  0
 14 54  1  0
 14 55  1  0
 15 56  1  6
 16 57  1  0
 16 58  1  0
 17 59  1  0
 19 60  1  1
 20 61  1  0
 20 62  1  0
 21 63  1  0
 21 64  1  0
 22 65  1  1
 23 66  1  0
 25 67  1  0
 25 68  1  0
 25 69  1  0
 26 70  1  0
 26 71  1  0
 26 72  1  0
 28 73  1  0
 28 74  1  0
 28 75  1  0
 29 76  1  0
 29 77  1  0
 30 78  1  0
 30 79  1  0
 32 80  1  0
 32 81  1  0
 32 82  1  0
M  END
>  <meeko>  (5) 
{"is_sidechain": [false], "intermolecular_energy": 2.731, "internal_energy": -0.839}

$$$$
EPH_relaxed_0001_pdb2pqr_Repair_2_r2_0001_out
     RDKit          3D

 82 86  0  0  0  0  0  0  0  0999 V2000
    4.1860   17.5710    0.0770 C   0  0  0  0  0  0  0  0  0  0  0  0
    2.7870   18.1730   -0.0800 C   0  0  2  0  0  0  0  0  0  0  0  0
    2.4410   19.1460    1.0660 C   0  0  0  0  0  0  0  0  0  0  0  0
    3.6550   19.8880    1.6300 C   0  0  0  0  0  0  0  0  0  0  0  0
    4.1480   19.2620    2.8990 C   0  0  2  0  0  0  0  0  0  0  0  0
    4.5290   20.1950    3.9190 O   0  0  0  0  0  0  0  0  0  0  0  0
    5.5810   19.3730    3.3860 C   0  0  0  0  0  0  0  0  0  0  0  0
    6.6120   20.1310    2.6100 C   0  0  0  0  0  0  0  0  0  0  0  0
    6.0910   18.3470    4.3490 C   0  0  0  0  0  0  0  0  0  0  0  0
    1.7470   17.0610   -0.1500 C   0  0  1  0  0  0  0  0  0  0  0  0
    0.3420   17.5800   -0.5570 C   0  0  0  0  0  0  0  0  0  0  0  0
   -0.3140   16.4700   -1.4170 C   0  0  0  0  0  0  0  0  0  0  0  0
    0.5840   15.2290   -1.2030 C   0  0  1  0  0  0  0  0  0  0  0  0
    0.1170   14.6260    0.1590 C   0  0  0  0  0  0  0  0  0  0  0  0
    0.5690   14.1600   -2.3430 C   0  0  2  0  0  0  0  0  0  0  0  0
   -0.7940   13.4900   -2.5910 C   0  0  0  0  0  0  0  0  0  0  0  0
   -1.0450   12.2460   -1.8050 C   0  0  0  0  0  0  0  0  0  0  0  0
   -0.1100   11.5310   -1.1520 C   0  0  0  0  0  0  0  0  0  0  0  0
    1.3750   11.9040   -1.2460 C   0  0  1  0  0  0  0  0  0  0  0  0
    2.2140   10.6280   -1.5140 C   0  0  0  0  0  0  0  0  0  0  0  0
    1.9520    9.5290   -0.4880 C   0  0  0  0  0  0  0  0  0  0  0  0
    0.4750    9.1450   -0.4660 C   0  0  2  0  0  0  0  0  0  0  0  0
    0.1410    8.5260   -1.7120 O   0  0  0  0  0  0  0  0  0  0  0  0
   -0.4690   10.3530   -0.2130 C   0  0  0  0  0  0  0  0  0  0  0  0
   -0.3170   10.8350    1.2510 C   0  0  0  0  0  0  0  0  0  0  0  0
   -1.9320    9.8540   -0.3550 C   0  0  0  0  0  0  0  0  0  0  0  0
    1.7300   13.0890   -2.2440 C   0  0  1  0  0  0  0  0  0  0  0  0
    1.9420   12.5270   -3.6830 C   0  0  0  0  0  0  0  0  0  0  0  0
    3.1010   13.7320   -1.8120 C   0  0  0  0  0  0  0  0  0  0  0  0
    3.0400   14.8650   -0.7700 C   0  0  0  0  0  0  0  0  0  0  0  0
    1.9980   15.9160   -1.1640 C   0  0  2  0  0  0  0  0  0  0  0  0
    2.4530   16.5560   -2.5190 C   0  0  0  0  0  0  0  0  0  0  0  0
    4.4233   17.4689    1.1462 H   0  0  0  0  0  0  0  0  0  0  0  0
    4.2149   16.5808   -0.4012 H   0  0  0  0  0  0  0  0  0  0  0  0
    4.9249   18.2308   -0.4012 H   0  0  0  0  0  0  0  0  0  0  0  0
    2.7787   18.7495   -1.0168 H   0  0  0  0  0  0  0  0  0  0  0  0
    1.7250   19.8897    0.6860 H   0  0  0  0  0  0  0  0  0  0  0  0
    2.0236   18.5425    1.8855 H   0  0  0  0  0  0  0  0  0  0  0  0
    4.4636   19.8665    0.8846 H   0  0  0  0  0  0  0  0  0  0  0  0
    3.3514   20.9214    1.8533 H   0  0  0  0  0  0  0  0  0  0  0  0
    3.4814   18.3983    2.7587 H   0  0  0  0  0  0  0  0  0  0  0  0
    7.2979   20.6352    3.3067 H   0  0  0  0  0  0  0  0  0  0  0  0
    7.1800   19.4338    1.9765 H   0  0  0  0  0  0  0  0  0  0  0  0
    6.1160   20.8811    1.9765 H   0  0  0  0  0  0  0  0  0  0  0  0
    5.9189   18.6932    5.3788 H   0  0  0  0  0  0  0  0  0  0  0  0
    5.5602   17.3971    4.1880 H   0  0  0  0  0  0  0  0  0  0  0  0
    7.1687   18.1967    4.1880 H   0  0  0  0  0  0  0  0  0  0  0  0
    1.8190   16.6769    0.8782 H   0  0  0  0  0  0  0  0  0  0  0  0
   -0.2650   17.7724    0.3399 H   0  0  0  0  0  0  0  0  0  0  0  0
    0.4172   18.5223   -1.1195 H   0  0  0  0  0  0  0  0  0  0  0  0
   -1.3405   16.2701   -1.0759 H   0  0  0  0  0  0  0  0  0  0  0  0
   -0.3887   16.7531   -2.4773 H   0  0  0  0  0  0  0  0  0  0  0  0
    0.5614   15.1998    0.9856 H   0  0  0  0  0  0  0  0  0  0  0  0
   -0.9798   14.6766    0.2256 H   0  0  0  0  0  0  0  0  0  0  0  0
    0.4404   13.5767    0.2256 H   0  0  0  0  0  0  0  0  0  0  0  0
    0.7711   14.7672   -3.2377 H   0  0  0  0  0  0  0  0  0  0  0  0
   -1.5807   14.2162   -2.3386 H   0  0  0  0  0  0  0  0  0  0  0  0
   -0.7967   13.1877   -3.6486 H   0  0  0  0  0  0  0  0  0  0  0  0
   -2.0821   11.8828   -1.7552 H   0  0  0  0  0  0  0  0  0  0  0  0
    1.6444   12.3282   -0.2675 H   0  0  0  0  0  0  0  0  0  0  0  0
    1.9626   10.2442   -2.5138 H   0  0  0  0  0  0  0  0  0  0  0  0
    3.2760   10.9055   -1.4421 H   0  0  0  0  0  0  0  0  0  0  0  0
    2.5505    8.6435   -0.7481 H   0  0  0  0  0  0  0  0  0  0  0  0
    2.2325    9.9036    0.5075 H   0  0  0  0  0  0  0  0  0  0  0  0
    0.3275    8.4510    0.3746 H   0  0  0  0  0  0  0  0  0  0  0  0
    0.7400    8.8840   -2.3890 H   0  0  0  0  0  0  0  0  0  0  0  0
   -0.5758   10.0142    1.9360 H   0  0  0  0  0  0  0  0  0  0  0  0
    0.7230   11.1465    1.4284 H   0  0  0  0  0  0  0  0  0  0  0  0
   -0.9902   11.6867    1.4284 H   0  0  0  0  0  0  0  0  0  0  0  0
   -2.3674    9.7055    0.6442 H   0  0  0  0  0  0  0  0  0  0  0  0
   -2.5226   10.6015   -0.9049 H   0  0  0  0  0  0  0  0  0  0  0  0
   -1.9427    8.9014   -0.9049 H   0  0  0  0  0  0  0  0  0  0  0  0
    2.3296   11.4994   -3.6219 H   0  0  0  0  0  0  0  0  0  0  0  0
    0.9826   12.5256   -4.2211 H   0  0  0  0  0  0  0  0  0  0  0  0
    2.6633   13.1596   -4.2211 H   0  0  0  0  0  0  0  0  0  0  0  0
    3.7278   12.9300   -1.3950 H   0  0  0  0  0  0  0  0  0  0  0  0
    3.4985   14.2013   -2.7240 H   0  0  0  0  0  0  0  0  0  0  0  0
    2.7706   14.4402    0.2083 H   0  0  0  0  0  0  0  0  0  0  0  0
    4.0262   15.3498   -0.7206 H   0  0  0  0  0  0  0  0  0  0  0  0
    3.0795   17.4372   -2.3162 H   0  0  0  0  0  0  0  0  0  0  0  0
    3.0316   15.8198   -3.0962 H   0  0  0  0  0  0  0  0  0  0  0  0
    1.5676   16.8606   -3.0962 H   0  0  0  0  0  0  0  0  0  0  0  0
  1  2  1  0
  2  3  1  0
  3  4  1  0
  4  5  1  0
  5  6  1  0
  6  7  1  0
  7  8  1  0
  7  9  1  0
  2 10  1  0
 10 11  1  0
 11 12  1  0
 12 13  1  0
 13 14  1  1
 13 15  1  0
 15 16  1  0
 16 17  1  0
 17 18  2  0
 18 19  1  0
 19 20  1  0
 20 21  1  0
 21 22  1  0
 22 23  1  0
 22 24  1  0
 24 25  1  0
 24 26  1  0
 19 27  1  0
 27 28  1  6
 27 29  1  0
 29 30  1  0
 30 31  1  0
 31 32  1  6
  7  5  1  0
 31 10  1  0
 31 13  1  0
 27 15  1  0
 24 18  1  0
  1 33  1  0
  1 34  1  0
  1 35  1  0
  2 36  1  6
  3 37  1  0
  3 38  1  0
  4 39  1  0
  4 40  1  0
  5 41  1  1
  8 42  1  0
  8 43  1  0
  8 44  1  0
  9 45  1  0
  9 46  1  0
  9 47  1  0
 10 48  1  1
 11 49  1  0
 11 50  1  0
 12 51  1  0
 12 52  1  0
 14 53  1  0
 14 54  1  0
 14 55  1  0
 15 56  1  6
 16 57  1  0
 16 58  1  0
 17 59  1  0
 19 60  1  1
 20 61  1  0
 20 62  1  0
 21 63  1  0
 21 64  1  0
 22 65  1  1
 23 66  1  0
 25 67  1  0
 25 68  1  0
 25 69  1  0
 26 70  1  0
 26 71  1  0
 26 72  1  0
 28 73  1  0
 28 74  1  0
 28 75  1  0
 29 76  1  0
 29 77  1  0
 30 78  1  0
 30 79  1  0
 32 80  1  0
 32 81  1  0
 32 82  1  0
M  END
>  <meeko>  (6) 
{"is_sidechain": [false], "intermolecular_energy": 2.731, "internal_energy": -0.839}

$$$$
EPH_relaxed_0001_pdb2pqr_Repair_2_r2_0001_out
     RDKit          3D

 82 86  0  0  0  0  0  0  0  0999 V2000
    0.4050    8.8620   -2.5410 C   0  0  0  0  0  0  0  0  0  0  0  0
    1.1670   10.0220   -3.1860 C   0  0  2  0  0  0  0  0  0  0  0  0
    2.6610   10.0210   -2.8030 C   0  0  0  0  0  0  0  0  0  0  0  0
    3.5740   10.6050   -3.8850 C   0  0  0  0  0  0  0  0  0  0  0  0
    4.9650   10.8310   -3.3730 C   0  0  2  0  0  0  0  0  0  0  0  0
    5.5850   12.0370   -3.8380 O   0  0  0  0  0  0  0  0  0  0  0  0
    6.1960   10.8070   -4.2590 C   0  0  0  0  0  0  0  0  0  0  0  0
    6.0940   10.5490   -5.7300 C   0  0  0  0  0  0  0  0  0  0  0  0
    7.5280   10.5480   -3.6260 C   0  0  0  0  0  0  0  0  0  0  0  0
    0.5290   11.3480   -2.7890 C   0  0  1  0  0  0  0  0  0  0  0  0
   -0.8500   11.1650   -2.1000 C   0  0  0  0  0  0  0  0  0  0  0  0
   -0.9670   12.2790   -1.0290 C   0  0  0  0  0  0  0  0  0  0  0  0
    0.1850   13.2580   -1.3570 C   0  0  1  0  0  0  0  0  0  0  0  0
   -0.3600   14.1440   -2.5200 C   0  0  0  0  0  0  0  0  0  0  0  0
    0.7140   14.1260   -0.1680 C   0  0  2  0  0  0  0  0  0  0  0  0
   -0.3170   15.0890    0.4450 C   0  0  0  0  0  0  0  0  0  0  0  0
   -0.3570   16.4520   -0.1640 C   0  0  0  0  0  0  0  0  0  0  0  0
    0.5870   16.9790   -0.9650 C   0  0  0  0  0  0  0  0  0  0  0  0
    1.8880   16.2190   -1.2550 C   0  0  1  0  0  0  0  0  0  0  0  0
    3.0950   17.1810   -1.0990 C   0  0  0  0  0  0  0  0  0  0  0  0
    2.9530   18.4400   -1.9480 C   0  0  0  0  0  0  0  0  0  0  0  0
    1.6780   19.1990   -1.5910 C   0  0  2  0  0  0  0  0  0  0  0  0
    1.8010   19.7060   -0.2590 O   0  0  0  0  0  0  0  0  0  0  0  0
    0.3950   18.3270   -1.7020 C   0  0  0  0  0  0  0  0  0  0  0  0
    0.0960   18.0290   -3.1920 C   0  0  0  0  0  0  0  0  0  0  0  0
   -0.8000   19.1690   -1.1790 C   0  0  0  0  0  0  0  0  0  0  0  0
    2.0870   14.8570   -0.4600 C   0  0  1  0  0  0  0  0  0  0  0  0
    2.7440   15.1400    0.9250 C   0  0  0  0  0  0  0  0  0  0  0  0
    3.0950   13.9430   -1.2520 C   0  0  0  0  0  0  0  0  0  0  0  0
    2.4970   13.0200   -2.3310 C   0  0  0  0  0  0  0  0  0  0  0  0
    1.3020   12.2360   -1.7810 C   0  0  2  0  0  0  0  0  0  0  0  0
    1.8250   11.3180   -0.6240 C   0  0  0  0  0  0  0  0  0  0  0  0
    0.4624    8.9494   -1.4460 H   0  0  0  0  0  0  0  0  0  0  0  0
   -0.6482    8.8945   -2.8567 H   0  0  0  0  0  0  0  0  0  0  0  0
    0.8531    7.9083   -2.8567 H   0  0  0  0  0  0  0  0  0  0  0  0
    1.1058    9.8914   -4.2765 H   0  0  0  0  0  0  0  0  0  0  0  0
    2.7849   10.6157   -1.8859 H   0  0  0  0  0  0  0  0  0  0  0  0
    2.9569    8.9706   -2.6651 H   0  0  0  0  0  0  0  0  0  0  0  0
    3.6153    9.9052   -4.7327 H   0  0  0  0  0  0  0  0  0  0  0  0
    3.1606   11.5759   -4.1957 H   0  0  0  0  0  0  0  0  0  0  0  0
    4.7259   10.3210   -2.4282 H   0  0  0  0  0  0  0  0  0  0  0  0
    5.6943    9.5381   -5.8981 H   0  0  0  0  0  0  0  0  0  0  0  0
    5.4211   11.2899   -6.1864 H   0  0  0  0  0  0  0  0  0  0  0  0
    7.0916   10.6295   -6.1864 H   0  0  0  0  0  0  0  0  0  0  0  0
    7.4238   10.5683   -2.5311 H   0  0  0  0  0  0  0  0  0  0  0  0
    7.8979    9.5611   -3.9409 H   0  0  0  0  0  0  0  0  0  0  0  0
    8.2408   11.3244   -3.9409 H   0  0  0  0  0  0  0  0  0  0  0  0
    0.4947   11.8379   -3.7733 H   0  0  0  0  0  0  0  0  0  0  0  0
   -1.6587   11.2639   -2.8391 H   0  0  0  0  0  0  0  0  0  0  0  0
   -0.9336   10.1679   -1.6430 H   0  0  0  0  0  0  0  0  0  0  0  0
   -1.9403   12.7864   -1.1012 H   0  0  0  0  0  0  0  0  0  0  0  0
   -0.8987   11.8824   -0.0053 H   0  0  0  0  0  0  0  0  0  0  0  0
   -0.8931   15.0106   -2.1019 H   0  0  0  0  0  0  0  0  0  0  0  0
    0.4794   14.4936   -3.1390 H   0  0  0  0  0  0  0  0  0  0  0  0
   -1.0506   13.5524   -3.1390 H   0  0  0  0  0  0  0  0  0  0  0  0
    0.9137   13.3704    0.6061 H   0  0  0  0  0  0  0  0  0  0  0  0
   -1.3135   14.6369    0.3324 H   0  0  0  0  0  0  0  0  0  0  0  0
   -0.0144   15.2324    1.4928 H   0  0  0  0  0  0  0  0  0  0  0  0
   -1.2327   17.0784    0.0614 H   0  0  0  0  0  0  0  0  0  0  0  0
    1.8149   15.8775   -2.2981 H   0  0  0  0  0  0  0  0  0  0  0  0
    3.1768   17.4756   -0.0424 H   0  0  0  0  0  0  0  0  0  0  0  0
    3.9938   16.6472   -1.4412 H   0  0  0  0  0  0  0  0  0  0  0  0
    3.8211   19.0923   -1.7723 H   0  0  0  0  0  0  0  0  0  0  0  0
    2.9008   18.1451   -3.0064 H   0  0  0  0  0  0  0  0  0  0  0  0
    1.5659   20.0166   -2.3183 H   0  0  0  0  0  0  0  0  0  0  0  0
    2.1760   18.9980    0.2920 H   0  0  0  0  0  0  0  0  0  0  0  0
   -0.6815   17.2541   -3.2621 H   0  0  0  0  0  0  0  0  0  0  0  0
   -0.2554   18.9468   -3.6861 H   0  0  0  0  0  0  0  0  0  0  0  0
    1.0126   17.6745   -3.6861 H   0  0  0  0  0  0  0  0  0  0  0  0
   -0.7966   19.1666   -0.0790 H   0  0  0  0  0  0  0  0  0  0  0  0
   -0.7077   20.2027   -1.5437 H   0  0  0  0  0  0  0  0  0  0  0  0
   -1.7423   18.7343   -1.5437 H   0  0  0  0  0  0  0  0  0  0  0  0
    2.0523   14.8420    1.7267 H   0  0  0  0  0  0  0  0  0  0  0  0
    3.6770   14.5640    1.0128 H   0  0  0  0  0  0  0  0  0  0  0  0
    2.9664   16.2137    1.0128 H   0  0  0  0  0  0  0  0  0  0  0  0
    3.8245   14.6021   -1.7453 H   0  0  0  0  0  0  0  0  0  0  0  0
    3.5214   13.2650   -0.4980 H   0  0  0  0  0  0  0  0  0  0  0  0
    2.1650   13.6309   -3.1834 H   0  0  0  0  0  0  0  0  0  0  0  0
    3.2700   12.3044   -2.6480 H   0  0  0  0  0  0  0  0  0  0  0  0
    1.5683   11.7686    0.3461 H   0  0  0  0  0  0  0  0  0  0  0  0
    1.3566   10.3259   -0.7029 H   0  0  0  0  0  0  0  0  0  0  0  0
    2.9173   11.2151   -0.7029 H   0  0  0  0  0  0  0  0  0  0  0  0
  1  2  1  0
  2  3  1  0
  3  4  1  0
  4  5  1  0
  5  6  1  0
  6  7  1  0
  7  8  1  0
  7  9  1  0
  2 10  1  0
 10 11  1  0
 11 12  1  0
 12 13  1  0
 13 14  1  6
 13 15  1  0
 15 16  1  0
 16 17  1  0
 17 18  2  0
 18 19  1  0
 19 20  1  0
 20 21  1  0
 21 22  1  0
 22 23  1  0
 22 24  1  0
 24 25  1  0
 24 26  1  0
 19 27  1  0
 27 28  1  1
 27 29  1  0
 29 30  1  0
 30 31  1  0
 31 32  1  1
  7  5  1  0
 31 10  1  0
 31 13  1  0
 27 15  1  0
 24 18  1  0
  1 33  1  0
  1 34  1  0
  1 35  1  0
  2 36  1  6
  3 37  1  0
  3 38  1  0
  4 39  1  0
  4 40  1  0
  5 41  1  1
  8 42  1  0
  8 43  1  0
  8 44  1  0
  9 45  1  0
  9 46  1  0
  9 47  1  0
 10 48  1  6
 11 49  1  0
 11 50  1  0
 12 51  1  0
 12 52  1  0
 14 53  1  0
 14 54  1  0
 14 55  1  0
 15 56  1  1
 16 57  1  0
 16 58  1  0
 17 59  1  0
 19 60  1  6
 20 61  1  0
 20 62  1  0
 21 63  1  0
 21 64  1  0
 22 65  1  6
 23 66  1  0
 25 67  1  0
 25 68  1  0
 25 69  1  0
 26 70  1  0
 26 71  1  0
 26 72  1  0
 28 73  1  0
 28 74  1  0
 28 75  1  0
 29 76  1  0
 29 77  1  0
 30 78  1  0
 30 79  1  0
 32 80  1  0
 32 81  1  0
 32 82  1  0
M  END
>  <meeko>  (7) 
{"is_sidechain": [false], "intermolecular_energy": 2.731, "internal_energy": -0.839}

$$$$
EPH_relaxed_0001_pdb2pqr_Repair_2_r2_0001_out
     RDKit          3D

 82 86  0  0  0  0  0  0  0  0999 V2000
    0.0990   10.6520   -4.1510 C   0  0  0  0  0  0  0  0  0  0  0  0
    1.0280   10.3220   -2.9790 C   0  0  2  0  0  0  0  0  0  0  0  0
    0.5770    9.0590   -2.2180 C   0  0  0  0  0  0  0  0  0  0  0  0
    0.1570    9.3300   -0.7710 C   0  0  0  0  0  0  0  0  0  0  0  0
   -1.2780    8.9670   -0.5330 C   0  0  2  0  0  0  0  0  0  0  0  0
   -2.0970    8.9610   -1.7100 O   0  0  0  0  0  0  0  0  0  0  0  0
   -2.4280    9.9400   -0.7120 C   0  0  0  0  0  0  0  0  0  0  0  0
   -2.1940   11.3530   -1.1450 C   0  0  0  0  0  0  0  0  0  0  0  0
   -3.7160    9.6640   -0.0010 C   0  0  0  0  0  0  0  0  0  0  0  0
    1.1000   11.5080   -2.0240 C   0  0  1  0  0  0  0  0  0  0  0  0
    2.1840   11.3270   -0.9280 C   0  0  0  0  0  0  0  0  0  0  0  0
    2.7750   12.7330   -0.6470 C   0  0  0  0  0  0  0  0  0  0  0  0
    1.7960   13.7120   -1.3360 C   0  0  1  0  0  0  0  0  0  0  0  0
    0.6120   13.8700   -0.3310 C   0  0  0  0  0  0  0  0  0  0  0  0
    2.3860   15.0980   -1.7550 C   0  0  2  0  0  0  0  0  0  0  0  0
    2.8940   15.9690   -0.5930 C   0  0  0  0  0  0  0  0  0  0  0  0
    1.8840   16.8940    0.0000 C   0  0  0  0  0  0  0  0  0  0  0  0
    0.7070   17.2290   -0.5600 C   0  0  0  0  0  0  0  0  0  0  0  0
    0.3330   16.7360   -1.9640 C   0  0  1  0  0  0  0  0  0  0  0  0
   -0.2270   17.9190   -2.7960 C   0  0  0  0  0  0  0  0  0  0  0  0
   -1.3840   18.6280   -2.1000 C   0  0  0  0  0  0  0  0  0  0  0  0
   -0.9580   19.1550   -0.7320 C   0  0  2  0  0  0  0  0  0  0  0  0
    0.0080   20.1940   -0.9190 O   0  0  0  0  0  0  0  0  0  0  0  0
   -0.3680   18.0530    0.1920 C   0  0  0  0  0  0  0  0  0  0  0  0
   -1.4950   17.0900    0.6390 C   0  0  0  0  0  0  0  0  0  0  0  0
    0.1520   18.7410    1.4830 C   0  0  0  0  0  0  0  0  0  0  0  0
    1.4610   15.9260   -2.7360 C   0  0  1  0  0  0  0  0  0  0  0  0
    2.3950   16.9130   -3.5020 C   0  0  0  0  0  0  0  0  0  0  0  0
    0.7840   15.0170   -3.8300 C   0  0  0  0  0  0  0  0  0  0  0  0
    0.3310   13.6140   -3.3830 C   0  0  0  0  0  0  0  0  0  0  0  0
    1.4510   12.8900   -2.6310 C   0  0  2  0  0  0  0  0  0  0  0  0
    2.6470   12.6970   -3.6230 C   0  0  0  0  0  0  0  0  0  0  0  0
   -0.8713   10.9967   -3.7640 H   0  0  0  0  0  0  0  0  0  0  0  0
    0.5511   11.4445   -4.7654 H   0  0  0  0  0  0  0  0  0  0  0  0
   -0.0501    9.7518   -4.7654 H   0  0  0  0  0  0  0  0  0  0  0  0
    2.0258   10.1177   -3.3945 H   0  0  0  0  0  0  0  0  0  0  0  0
   -0.2785    8.6190   -2.7514 H   0  0  0  0  0  0  0  0  0  0  0  0
    1.4418    8.3803   -2.1802 H   0  0  0  0  0  0  0  0  0  0  0  0
    0.7917    8.7347   -0.0981 H   0  0  0  0  0  0  0  0  0  0  0  0
    0.2756   10.4059   -0.5752 H   0  0  0  0  0  0  0  0  0  0  0  0
   -0.9967    8.3021    0.2969 H   0  0  0  0  0  0  0  0  0  0  0  0
   -2.0876   11.9953   -0.2584 H   0  0  0  0  0  0  0  0  0  0  0  0
   -1.2751   11.4045   -1.7475 H   0  0  0  0  0  0  0  0  0  0  0  0
   -3.0473   11.6980   -1.7475 H   0  0  0  0  0  0  0  0  0  0  0  0
   -3.5498    9.6996    1.0858 H   0  0  0  0  0  0  0  0  0  0  0  0
   -4.4605   10.4230   -0.2832 H   0  0  0  0  0  0  0  0  0  0  0  0
   -4.0842    8.6666   -0.2832 H   0  0  0  0  0  0  0  0  0  0  0  0
    0.0636   11.5114   -1.6555 H   0  0  0  0  0  0  0  0  0  0  0  0
    1.7326   10.9160   -0.0129 H   0  0  0  0  0  0  0  0  0  0  0  0
    2.9668   10.6282   -1.2582 H   0  0  0  0  0  0  0  0  0  0  0  0
    2.8202   12.9262    0.4350 H   0  0  0  0  0  0  0  0  0  0  0  0
    3.8031   12.8365   -1.0241 H   0  0  0  0  0  0  0  0  0  0  0  0
    0.9957   13.8188    0.6986 H   0  0  0  0  0  0  0  0  0  0  0  0
    0.1218   14.8415   -0.4917 H   0  0  0  0  0  0  0  0  0  0  0  0
   -0.1158   13.0610   -0.4917 H   0  0  0  0  0  0  0  0  0  0  0  0
    3.2810   14.8104   -2.3263 H   0  0  0  0  0  0  0  0  0  0  0  0
    3.2501   15.2990    0.2034 H   0  0  0  0  0  0  0  0  0  0  0  0
    3.6821   16.6097   -1.0153 H   0  0  0  0  0  0  0  0  0  0  0  0
    2.1217   17.3395    0.9772 H   0  0  0  0  0  0  0  0  0  0  0  0
   -0.4503   15.9769   -1.8222 H   0  0  0  0  0  0  0  0  0  0  0  0
    0.5816   18.6455   -2.9644 H   0  0  0  0  0  0  0  0  0  0  0  0
   -0.6078   17.5099   -3.7434 H   0  0  0  0  0  0  0  0  0  0  0  0
   -1.7163   19.4714   -2.7231 H   0  0  0  0  0  0  0  0  0  0  0  0
   -2.2031   17.9075   -1.9589 H   0  0  0  0  0  0  0  0  0  0  0  0
   -1.8593   19.5362   -0.2296 H   0  0  0  0  0  0  0  0  0  0  0  0
   -0.3760   20.8460   -1.5300 H   0  0  0  0  0  0  0  0  0  0  0  0
   -1.5343   17.0565    1.7378 H   0  0  0  0  0  0  0  0  0  0  0  0
   -2.4592   17.4475    0.2484 H   0  0  0  0  0  0  0  0  0  0  0  0
   -1.2922   16.0819    0.2484 H   0  0  0  0  0  0  0  0  0  0  0  0
   -0.2452   18.2155    2.3640 H   0  0  0  0  0  0  0  0  0  0  0  0
    1.2513   18.7059    1.4999 H   0  0  0  0  0  0  0  0  0  0  0  0
   -0.1817   19.7890    1.4999 H   0  0  0  0  0  0  0  0  0  0  0  0
    2.9646   17.5149   -2.7786 H   0  0  0  0  0  0  0  0  0  0  0  0
    3.0919   16.3427   -4.1338 H   0  0  0  0  0  0  0  0  0  0  0  0
    1.7872   17.5774   -4.1338 H   0  0  0  0  0  0  0  0  0  0  0  0
   -0.1029   15.5500   -4.2034 H   0  0  0  0  0  0  0  0  0  0  0  0
    1.5664   14.8409   -4.5829 H   0  0  0  0  0  0  0  0  0  0  0  0
   -0.5421   13.7117   -2.7211 H   0  0  0  0  0  0  0  0  0  0  0  0
    0.0728   13.0275   -4.2771 H   0  0  0  0  0  0  0  0  0  0  0  0
    3.5757   12.5471   -3.0529 H   0  0  0  0  0  0  0  0  0  0  0  0
    2.4597   11.8175   -4.2565 H   0  0  0  0  0  0  0  0  0  0  0  0
    2.7458   13.5908   -4.2565 H   0  0  0  0  0  0  0  0  0  0  0  0
  1  2  1  0
  2  3  1  0
  3  4  1  0
  4  5  1  0
  5  6  1  0
  6  7  1  0
  7  8  1  0
  7  9  1  0
  2 10  1  0
 10 11  1  0
 11 12  1  0
 12 13  1  0
 13 14  1  1
 13 15  1  0
 15 16  1  0
 16 17  1  0
 17 18  2  0
 18 19  1  0
 19 20  1  0
 20 21  1  0
 21 22  1  0
 22 23  1  0
 22 24  1  0
 24 25  1  0
 24 26  1  0
 19 27  1  0
 27 28  1  6
 27 29  1  0
 29 30  1  0
 30 31  1  0
 31 32  1  6
  7  5  1  0
 31 10  1  0
 31 13  1  0
 27 15  1  0
 24 18  1  0
  1 33  1  0
  1 34  1  0
  1 35  1  0
  2 36  1  6
  3 37  1  0
  3 38  1  0
  4 39  1  0
  4 40  1  0
  5 41  1  1
  8 42  1  0
  8 43  1  0
  8 44  1  0
  9 45  1  0
  9 46  1  0
  9 47  1  0
 10 48  1  1
 11 49  1  0
 11 50  1  0
 12 51  1  0
 12 52  1  0
 14 53  1  0
 14 54  1  0
 14 55  1  0
 15 56  1  6
 16 57  1  0
 16 58  1  0
 17 59  1  0
 19 60  1  1
 20 61  1  0
 20 62  1  0
 21 63  1  0
 21 64  1  0
 22 65  1  1
 23 66  1  0
 25 67  1  0
 25 68  1  0
 25 69  1  0
 26 70  1  0
 26 71  1  0
 26 72  1  0
 28 73  1  0
 28 74  1  0
 28 75  1  0
 29 76  1  0
 29 77  1  0
 30 78  1  0
 30 79  1  0
 32 80  1  0
 32 81  1  0
 32 82  1  0
M  END
>  <meeko>  (8) 
{"is_sidechain": [false], "intermolecular_energy": 2.731, "internal_energy": -0.839}

$$$$
EPH_relaxed_0001_pdb2pqr_Repair_2_r2_0001_out
     RDKit          3D

 82 86  0  0  0  0  0  0  0  0999 V2000
    0.1760   17.7240   -2.4610 C   0  0  0  0  0  0  0  0  0  0  0  0
   -0.0540   16.8430   -1.2300 C   0  0  2  0  0  0  0  0  0  0  0  0
   -0.0600   17.6610    0.0770 C   0  0  0  0  0  0  0  0  0  0  0  0
    0.5400   19.0610   -0.0710 C   0  0  0  0  0  0  0  0  0  0  0  0
    1.6740   19.2820    0.8830 C   0  0  2  0  0  0  0  0  0  0  0  0
    2.6840   20.1850    0.4140 O   0  0  0  0  0  0  0  0  0  0  0  0
    3.0950   18.8230    0.6140 C   0  0  0  0  0  0  0  0  0  0  0  0
    3.4580   18.1050   -0.6480 C   0  0  0  0  0  0  0  0  0  0  0  0
    4.0190   18.6370    1.7770 C   0  0  0  0  0  0  0  0  0  0  0  0
    1.0140   15.7570   -1.1610 C   0  0  1  0  0  0  0  0  0  0  0  0
    1.1890   15.1830    0.2700 C   0  0  0  0  0  0  0  0  0  0  0  0
    1.5220   13.6770    0.1100 C   0  0  0  0  0  0  0  0  0  0  0  0
    1.8520   13.5080   -1.3920 C   0  0  1  0  0  0  0  0  0  0  0  0
    3.3340   13.9790   -1.5310 C   0  0  0  0  0  0  0  0  0  0  0  0
    1.6430   12.0790   -1.9890 C   0  0  2  0  0  0  0  0  0  0  0  0
    2.5250   10.9790   -1.3750 C   0  0  0  0  0  0  0  0  0  0  0  0
    3.8390   10.7630   -2.0510 C   0  0  0  0  0  0  0  0  0  0  0  0
    4.1750   11.2200   -3.2720 C   0  0  0  0  0  0  0  0  0  0  0  0
    3.1510   11.9570   -4.1460 C   0  0  1  0  0  0  0  0  0  0  0  0
    3.2030   11.3930   -5.5900 C   0  0  0  0  0  0  0  0  0  0  0  0
    4.6090   11.4280   -6.1820 C   0  0  0  0  0  0  0  0  0  0  0  0
    5.5850   10.6370   -5.3150 C   0  0  2  0  0  0  0  0  0  0  0  0
    5.2330    9.2510   -5.3720 O   0  0  0  0  0  0  0  0  0  0  0  0
    5.6130   11.1090   -3.8350 C   0  0  0  0  0  0  0  0  0  0  0  0
    6.2780   12.5050   -3.7460 C   0  0  0  0  0  0  0  0  0  0  0  0
    6.5300   10.1400   -3.0410 C   0  0  0  0  0  0  0  0  0  0  0  0
    1.6710   12.0270   -3.5710 C   0  0  1  0  0  0  0  0  0  0  0  0
    0.8770   10.7520   -3.9890 C   0  0  0  0  0  0  0  0  0  0  0  0
    0.9240   13.2490   -4.2230 C   0  0  0  0  0  0  0  0  0  0  0  0
    1.0730   14.6110   -3.5190 C   0  0  0  0  0  0  0  0  0  0  0  0
    0.7930   14.4860   -2.0180 C   0  0  2  0  0  0  0  0  0  0  0  0
   -0.6980   14.0350   -1.8460 C   0  0  0  0  0  0  0  0  0  0  0  0
    0.4417   18.7417   -2.1391 H   0  0  0  0  0  0  0  0  0  0  0  0
    0.9948   17.3047   -3.0642 H   0  0  0  0  0  0  0  0  0  0  0  0
   -0.7432   17.7585   -3.0642 H   0  0  0  0  0  0  0  0  0  0  0  0
   -1.0470   16.3814   -1.3343 H   0  0  0  0  0  0  0  0  0  0  0  0
   -1.1008   17.7634    0.4178 H   0  0  0  0  0  0  0  0  0  0  0  0
    0.5665   17.1174    0.7995 H   0  0  0  0  0  0  0  0  0  0  0  0
    0.9105   19.1831   -1.0995 H   0  0  0  0  0  0  0  0  0  0  0  0
   -0.2462   19.7965    0.1549 H   0  0  0  0  0  0  0  0  0  0  0  0
    1.0055   19.1460    1.7459 H   0  0  0  0  0  0  0  0  0  0  0  0
    3.9415   17.1487   -0.3997 H   0  0  0  0  0  0  0  0  0  0  0  0
    2.5481   17.9141   -1.2359 H   0  0  0  0  0  0  0  0  0  0  0  0
    4.1512   18.7245   -1.2359 H   0  0  0  0  0  0  0  0  0  0  0  0
    3.4554   18.7504    2.7148 H   0  0  0  0  0  0  0  0  0  0  0  0
    4.4630   17.6315    1.7354 H   0  0  0  0  0  0  0  0  0  0  0  0
    4.8175   19.3924    1.7354 H   0  0  0  0  0  0  0  0  0  0  0  0
    1.8769   16.3221   -1.5433 H   0  0  0  0  0  0  0  0  0  0  0  0
    2.0106   15.6998    0.7876 H   0  0  0  0  0  0  0  0  0  0  0  0
    0.2759   15.3245    0.8668 H   0  0  0  0  0  0  0  0  0  0  0  0
    2.3874   13.4025    0.7311 H   0  0  0  0  0  0  0  0  0  0  0  0
    0.6922   13.0299    0.4303 H   0  0  0  0  0  0  0  0  0  0  0  0
    3.7700   14.1176   -0.5307 H   0  0  0  0  0  0  0  0  0  0  0  0
    3.9101   13.2197   -2.0801 H   0  0  0  0  0  0  0  0  0  0  0  0
    3.3660   14.9316   -2.0801 H   0  0  0  0  0  0  0  0  0  0  0  0
    0.6141   11.8430   -1.6796 H   0  0  0  0  0  0  0  0  0  0  0  0
    2.7222   11.2473   -0.3266 H   0  0  0  0  0  0  0  0  0  0  0  0
    1.9649   10.0395   -1.4917 H   0  0  0  0  0  0  0  0  0  0  0  0
    4.5964   10.1813   -1.5051 H   0  0  0  0  0  0  0  0  0  0  0  0
    3.4556   13.0140   -4.1464 H   0  0  0  0  0  0  0  0  0  0  0  0
    2.8531   10.3503   -5.5740 H   0  0  0  0  0  0  0  0  0  0  0  0
    2.5602   12.0264   -6.2190 H   0  0  0  0  0  0  0  0  0  0  0  0
    4.5861   10.9894   -7.1905 H   0  0  0  0  0  0  0  0  0  0  0  0
    4.9460   12.4742   -6.2256 H   0  0  0  0  0  0  0  0  0  0  0  0
    6.5949   10.8075   -5.7164 H   0  0  0  0  0  0  0  0  0  0  0  0
    5.9410    8.7490   -4.9330 H   0  0  0  0  0  0  0  0  0  0  0  0
    6.4098   12.7817   -2.6896 H   0  0  0  0  0  0  0  0  0  0  0  0
    7.2591   12.4761   -4.2426 H   0  0  0  0  0  0  0  0  0  0  0  0
    5.6374   13.2486   -4.2426 H   0  0  0  0  0  0  0  0  0  0  0  0
    6.3820   10.2964   -1.9623 H   0  0  0  0  0  0  0  0  0  0  0  0
    6.2765    9.1012   -3.2991 H   0  0  0  0  0  0  0  0  0  0  0  0
    7.5812   10.3359   -3.2991 H   0  0  0  0  0  0  0  0  0  0  0  0
    0.5433   10.2161   -3.0882 H   0  0  0  0  0  0  0  0  0  0  0  0
    0.0014   11.0449   -4.5869 H   0  0  0  0  0  0  0  0  0  0  0  0
    1.5262   10.0954   -4.5869 H   0  0  0  0  0  0  0  0  0  0  0  0
    1.3035   13.3618   -5.2493 H   0  0  0  0  0  0  0  0  0  0  0  0
   -0.1459   13.0037   -4.1510 H   0  0  0  0  0  0  0  0  0  0  0  0
    2.0988   14.9808   -3.6641 H   0  0  0  0  0  0  0  0  0  0  0  0
    0.3457   15.3122   -3.9542 H   0  0  0  0  0  0  0  0  0  0  0  0
   -0.9379   13.9624   -0.7749 H   0  0  0  0  0  0  0  0  0  0  0  0
   -1.3614   14.7727   -2.3212 H   0  0  0  0  0  0  0  0  0  0  0  0
   -0.8413   13.0533   -2.3212 H   0  0  0  0  0  0  0  0  0  0  0  0
  1  2  1  0
  2  3  1  0
  3  4  1  0
  4  5  1  0
  5  6  1  0
  6  7  1  0
  7  8  1  0
  7  9  1  0
  2 10  1  0
 10 11  1  0
 11 12  1  0
 12 13  1  0
 13 14  1  1
 13 15  1  0
 15 16  1  0
 16 17  1  0
 17 18  2  0
 18 19  1  0
 19 20  1  0
 20 21  1  0
 21 22  1  0
 22 23  1  0
 22 24  1  0
 24 25  1  0
 24 26  1  0
 19 27  1  0
 27 28  1  1
 27 29  1  0
 29 30  1  0
 30 31  1  0
 31 32  1  6
  7  5  1  0
 31 10  1  0
 31 13  1  0
 27 15  1  0
 24 18  1  0
  1 33  1  0
  1 34  1  0
  1 35  1  0
  2 36  1  6
  3 37  1  0
  3 38  1  0
  4 39  1  0
  4 40  1  0
  5 41  1  1
  8 42  1  0
  8 43  1  0
  8 44  1  0
  9 45  1  0
  9 46  1  0
  9 47  1  0
 10 48  1  6
 11 49  1  0
 11 50  1  0
 12 51  1  0
 12 52  1  0
 14 53  1  0
 14 54  1  0
 14 55  1  0
 15 56  1  1
 16 57  1  0
 16 58  1  0
 17 59  1  0
 19 60  1  6
 20 61  1  0
 20 62  1  0
 21 63  1  0
 21 64  1  0
 22 65  1  6
 23 66  1  0
 25 67  1  0
 25 68  1  0
 25 69  1  0
 26 70  1  0
 26 71  1  0
 26 72  1  0
 28 73  1  0
 28 74  1  0
 28 75  1  0
 29 76  1  0
 29 77  1  0
 30 78  1  0
 30 79  1  0
 32 80  1  0
 32 81  1  0
 32 82  1  0
M  END
>  <meeko>  (9) 
{"is_sidechain": [false], "intermolecular_energy": 2.731, "internal_energy": -0.839}

$$$$
EPH_relaxed_0001_pdb2pqr_Repair_2_r2_0001_out
     RDKit          3D

 82 86  0  0  0  0  0  0  0  0999 V2000
    2.8490   18.9410   -0.8570 C   0  0  0  0  0  0  0  0  0  0  0  0
    2.7390   17.9320   -2.0040 C   0  0  2  0  0  0  0  0  0  0  0  0
    1.4250   18.0910   -2.7930 C   0  0  0  0  0  0  0  0  0  0  0  0
    0.6470   19.3630   -2.4450 C   0  0  0  0  0  0  0  0  0  0  0  0
   -0.6720   19.0500   -1.8060 C   0  0  2  0  0  0  0  0  0  0  0  0
   -1.4870   20.1940   -1.5230 O   0  0  0  0  0  0  0  0  0  0  0  0
   -1.0280   19.4460   -0.3850 C   0  0  0  0  0  0  0  0  0  0  0  0
   -0.0630   20.1890    0.4830 C   0  0  0  0  0  0  0  0  0  0  0  0
   -2.1140   18.6900    0.3170 C   0  0  0  0  0  0  0  0  0  0  0  0
    2.8520   16.5130   -1.4600 C   0  0  1  0  0  0  0  0  0  0  0  0
    3.5100   16.4620   -0.0550 C   0  0  0  0  0  0  0  0  0  0  0  0
    2.8190   15.3110    0.7210 C   0  0  0  0  0  0  0  0  0  0  0  0
    2.0320   14.5310   -0.3580 C   0  0  1  0  0  0  0  0  0  0  0  0
    3.0910   13.6070   -1.0370 C   0  0  0  0  0  0  0  0  0  0  0  0
    0.7940   13.7190    0.1430 C   0  0  2  0  0  0  0  0  0  0  0  0
    1.1130   12.5910    1.1400 C   0  0  0  0  0  0  0  0  0  0  0  0
    1.3860   11.2570    0.5270 C   0  0  0  0  0  0  0  0  0  0  0  0
    1.1010   10.9050   -0.7410 C   0  0  0  0  0  0  0  0  0  0  0  0
    0.3490   11.8640   -1.6740 C   0  0  1  0  0  0  0  0  0  0  0  0
   -0.7810   11.0940   -2.4060 C   0  0  0  0  0  0  0  0  0  0  0  0
   -0.2680    9.8540   -3.1330 C   0  0  0  0  0  0  0  0  0  0  0  0
    0.4210    8.8990   -2.1620 C   0  0  2  0  0  0  0  0  0  0  0  0
   -0.5570    8.3760   -1.2570 O   0  0  0  0  0  0  0  0  0  0  0  0
    1.5720    9.5660   -1.3590 C   0  0  0  0  0  0  0  0  0  0  0  0
    2.7640    9.8600   -2.3040 C   0  0  0  0  0  0  0  0  0  0  0  0
    2.0880    8.5360   -0.3180 C   0  0  0  0  0  0  0  0  0  0  0  0
   -0.1620   13.2160   -1.0130 C   0  0  1  0  0  0  0  0  0  0  0  0
   -1.5640   12.9950   -0.3680 C   0  0  0  0  0  0  0  0  0  0  0  0
   -0.3580   14.2970   -2.1410 C   0  0  0  0  0  0  0  0  0  0  0  0
    0.8730   15.1490   -2.5080 C   0  0  0  0  0  0  0  0  0  0  0  0
    1.5350   15.7240   -1.2520 C   0  0  2  0  0  0  0  0  0  0  0  0
    0.5010   16.6760   -0.5590 C   0  0  0  0  0  0  0  0  0  0  0  0
    2.7912   18.4105    0.1049 H   0  0  0  0  0  0  0  0  0  0  0  0
    3.8103   19.4713   -0.9260 H   0  0  0  0  0  0  0  0  0  0  0  0
    2.0246   19.6659   -0.9260 H   0  0  0  0  0  0  0  0  0  0  0  0
    3.5674   18.1303   -2.7000 H   0  0  0  0  0  0  0  0  0  0  0  0
    1.6652   18.1137   -3.8662 H   0  0  0  0  0  0  0  0  0  0  0  0
    0.7838   17.2387   -2.5238 H   0  0  0  0  0  0  0  0  0  0  0  0
    1.2460   19.9675   -1.7480 H   0  0  0  0  0  0  0  0  0  0  0  0
    0.4536   19.9122   -3.3783 H   0  0  0  0  0  0  0  0  0  0  0  0
   -0.7300   18.0907   -2.3412 H   0  0  0  0  0  0  0  0  0  0  0  0
   -0.3033   20.0040    1.5404 H   0  0  0  0  0  0  0  0  0  0  0  0
    0.9600   19.8431    0.2735 H   0  0  0  0  0  0  0  0  0  0  0  0
   -0.1359   21.2664    0.2735 H   0  0  0  0  0  0  0  0  0  0  0  0
   -1.9809   18.7826    1.4050 H   0  0  0  0  0  0  0  0  0  0  0  0
   -3.0924   19.1032    0.0308 H   0  0  0  0  0  0  0  0  0  0  0  0
   -2.0662   17.6290    0.0308 H   0  0  0  0  0  0  0  0  0  0  0  0
    3.4430   16.0535   -2.2660 H   0  0  0  0  0  0  0  0  0  0  0  0
    4.5877   16.2624   -0.1484 H   0  0  0  0  0  0  0  0  0  0  0  0
    3.3915   17.4204    0.4717 H   0  0  0  0  0  0  0  0  0  0  0  0
    3.5667   14.6626    1.2011 H   0  0  0  0  0  0  0  0  0  0  0  0
    2.1676   15.6824    1.5258 H   0  0  0  0  0  0  0  0  0  0  0  0
    3.6797   13.0933   -0.2627 H   0  0  0  0  0  0  0  0  0  0  0  0
    2.5793   12.8615   -1.6634 H   0  0  0  0  0  0  0  0  0  0  0  0
    3.7603   14.2150   -1.6634 H   0  0  0  0  0  0  0  0  0  0  0  0
    0.2334   14.4729    0.7152 H   0  0  0  0  0  0  0  0  0  0  0  0
    2.0011   12.8882    1.7169 H   0  0  0  0  0  0  0  0  0  0  0  0
    0.2102   12.4643    1.7556 H   0  0  0  0  0  0  0  0  0  0  0  0
    1.8603   10.4973    1.1657 H   0  0  0  0  0  0  0  0  0  0  0  0
    1.0899   12.2220   -2.4040 H   0  0  0  0  0  0  0  0  0  0  0  0
   -1.5327   10.7830   -1.6656 H   0  0  0  0  0  0  0  0  0  0  0  0
   -1.2111   11.7694   -3.1602 H   0  0  0  0  0  0  0  0  0  0  0  0
   -1.1161    9.3370   -3.6056 H   0  0  0  0  0  0  0  0  0  0  0  0
    0.4620   10.1692   -3.8931 H   0  0  0  0  0  0  0  0  0  0  0  0
    0.8794    8.0966   -2.7587 H   0  0  0  0  0  0  0  0  0  0  0  0
   -0.4400    8.8280   -0.4040 H   0  0  0  0  0  0  0  0  0  0  0  0
    3.6603   10.0811   -1.7058 H   0  0  0  0  0  0  0  0  0  0  0  0
    2.9541    8.9818   -2.9386 H   0  0  0  0  0  0  0  0  0  0  0  0
    2.5239   10.7259   -2.9386 H   0  0  0  0  0  0  0  0  0  0  0  0
    1.8984    8.9144    0.6973 H   0  0  0  0  0  0  0  0  0  0  0  0
    1.5626    7.5796   -0.4569 H   0  0  0  0  0  0  0  0  0  0  0  0
    3.1686    8.3842   -0.4569 H   0  0  0  0  0  0  0  0  0  0  0  0
   -1.4699   13.0098    0.7279 H   0  0  0  0  0  0  0  0  0  0  0  0
   -2.2455   13.7968   -0.6884 H   0  0  0  0  0  0  0  0  0  0  0  0
   -1.9658   12.0224   -0.6884 H   0  0  0  0  0  0  0  0  0  0  0  0
   -0.6834   13.7727   -3.0516 H   0  0  0  0  0  0  0  0  0  0  0  0
   -1.0901   15.0095   -1.7331 H   0  0  0  0  0  0  0  0  0  0  0  0
    1.6001   14.5197   -3.0422 H   0  0  0  0  0  0  0  0  0  0  0  0
    0.5451   15.9834   -3.1453 H   0  0  0  0  0  0  0  0  0  0  0  0
    0.5965   16.5881    0.5333 H   0  0  0  0  0  0  0  0  0  0  0  0
    0.6987   17.7148   -0.8619 H   0  0  0  0  0  0  0  0  0  0  0  0
   -0.5180   16.3933   -0.8619 H   0  0  0  0  0  0  0  0  0  0  0  0
  1  2  1  0
  2  3  1  0
  3  4  1  0
  4  5  1  0
  5  6  1  0
  6  7  1  0
  7  8  1  0
  7  9  1  0
  2 10  1  0
 10 11  1  0
 11 12  1  0
 12 13  1  0
 13 14  1  6
 13 15  1  0
 15 16  1  0
 16 17  1  0
 17 18  2  0
 18 19  1  0
 19 20  1  0
 20 21  1  0
 21 22  1  0
 22 23  1  0
 22 24  1  0
 24 25  1  0
 24 26  1  0
 19 27  1  0
 27 28  1  1
 27 29  1  0
 29 30  1  0
 30 31  1  0
 31 32  1  1
  7  5  1  0
 31 10  1  0
 31 13  1  0
 27 15  1  0
 24 18  1  0
  1 33  1  0
  1 34  1  0
  1 35  1  0
  2 36  1  6
  3 37  1  0
  3 38  1  0
  4 39  1  0
  4 40  1  0
  5 41  1  6
  8 42  1  0
  8 43  1  0
  8 44  1  0
  9 45  1  0
  9 46  1  0
  9 47  1  0
 10 48  1  6
 11 49  1  0
 11 50  1  0
 12 51  1  0
 12 52  1  0
 14 53  1  0
 14 54  1  0
 14 55  1  0
 15 56  1  1
 16 57  1  0
 16 58  1  0
 17 59  1  0
 19 60  1  6
 20 61  1  0
 20 62  1  0
 21 63  1  0
 21 64  1  0
 22 65  1  6
 23 66  1  0
 25 67  1  0
 25 68  1  0
 25 69  1  0
 26 70  1  0
 26 71  1  0
 26 72  1  0
 28 73  1  0
 28 74  1  0
 28 75  1  0
 29 76  1  0
 29 77  1  0
 30 78  1  0
 30 79  1  0
 32 80  1  0
 32 81  1  0
 32 82  1  0
M  END
>  <meeko>  (10) 
{"is_sidechain": [false], "intermolecular_energy": 2.731, "internal_energy": -0.839}

$$$$
EPH_relaxed_0001_pdb2pqr_Repair_2_r2_0001_out
     RDKit          3D

 82 86  0  0  0  0  0  0  0  0999 V2000
   -0.9970   16.4000   -5.8960 C   0  0  0  0  0  0  0  0  0  0  0  0
    0.1280   15.7230   -6.6850 C   0  0  2  0  0  0  0  0  0  0  0  0
   -0.2410   15.5280   -8.1690 C   0  0  0  0  0  0  0  0  0  0  0  0
    0.4300   16.5340   -9.1070 C   0  0  0  0  0  0  0  0  0  0  0  0
    1.8380   16.1360   -9.4330 C   0  0  2  0  0  0  0  0  0  0  0  0
    2.3550   16.7010  -10.6450 O   0  0  0  0  0  0  0  0  0  0  0  0
    2.2080   15.2720  -10.6240 C   0  0  0  0  0  0  0  0  0  0  0  0
    1.1670   14.7520  -11.5650 C   0  0  0  0  0  0  0  0  0  0  0  0
    3.5100   14.5330  -10.5940 C   0  0  0  0  0  0  0  0  0  0  0  0
    0.4700   14.3790   -6.0520 C   0  0  1  0  0  0  0  0  0  0  0  0
    1.6820   13.6890   -6.7340 C   0  0  0  0  0  0  0  0  0  0  0  0
    2.4560   12.9400   -5.6200 C   0  0  0  0  0  0  0  0  0  0  0  0
    1.4950   12.9440   -4.4080 C   0  0  1  0  0  0  0  0  0  0  0  0
    0.5010   11.7720   -4.6800 C   0  0  0  0  0  0  0  0  0  0  0  0
    2.1610   12.8200   -2.9980 C   0  0  2  0  0  0  0  0  0  0  0  0
    2.9290   11.5100   -2.7520 C   0  0  0  0  0  0  0  0  0  0  0  0
    2.1250   10.4010   -2.1590 C   0  0  0  0  0  0  0  0  0  0  0  0
    0.9200   10.5340   -1.5750 C   0  0  0  0  0  0  0  0  0  0  0  0
    0.2880   11.9180   -1.3790 C   0  0  1  0  0  0  0  0  0  0  0  0
   -0.2610   12.0370    0.0670 C   0  0  0  0  0  0  0  0  0  0  0  0
   -1.2170   10.9030    0.4250 C   0  0  0  0  0  0  0  0  0  0  0  0
   -0.5340    9.5460    0.2740 C   0  0  2  0  0  0  0  0  0  0  0  0
    0.4980    9.4370    1.2580 O   0  0  0  0  0  0  0  0  0  0  0  0
    0.0670    9.3170   -1.1410 C   0  0  0  0  0  0  0  0  0  0  0  0
   -1.0770    9.1340   -2.1690 C   0  0  0  0  0  0  0  0  0  0  0  0
    0.8470    7.9750   -1.1170 C   0  0  0  0  0  0  0  0  0  0  0  0
    1.1930   13.1580   -1.7930 C   0  0  1  0  0  0  0  0  0  0  0  0
    2.1010   13.5760   -0.5960 C   0  0  0  0  0  0  0  0  0  0  0  0
    0.2640   14.3920   -2.0980 C   0  0  0  0  0  0  0  0  0  0  0  0
   -0.2650   14.5240   -3.5390 C   0  0  0  0  0  0  0  0  0  0  0  0
    0.8720   14.3790   -4.5560 C   0  0  2  0  0  0  0  0  0  0  0  0
    1.8770   15.5580   -4.3210 C   0  0  0  0  0  0  0  0  0  0  0  0
   -0.8086   16.2866   -4.8182 H   0  0  0  0  0  0  0  0  0  0  0  0
   -1.0320   17.4693   -6.1516 H   0  0  0  0  0  0  0  0  0  0  0  0
   -1.9582   15.9302   -6.1516 H   0  0  0  0  0  0  0  0  0  0  0  0
    1.0052   16.3857   -6.6471 H   0  0  0  0  0  0  0  0  0  0  0  0
    0.0621   14.5149   -8.4720 H   0  0  0  0  0  0  0  0  0  0  0  0
   -1.3266   15.6841   -8.2536 H   0  0  0  0  0  0  0  0  0  0  0  0
   -0.1491   16.5919  -10.0404 H   0  0  0  0  0  0  0  0  0  0  0  0
    0.4587   17.5093   -8.5991 H   0  0  0  0  0  0  0  0  0  0  0  0
    2.0911   16.0679   -8.3647 H   0  0  0  0  0  0  0  0  0  0  0  0
    0.3286   14.3332  -10.9891 H   0  0  0  0  0  0  0  0  0  0  0  0
    0.8023   15.5738  -12.1988 H   0  0  0  0  0  0  0  0  0  0  0  0
    1.6050   13.9668  -12.1988 H   0  0  0  0  0  0  0  0  0  0  0  0
    3.8107   14.3623   -9.5498 H   0  0  0  0  0  0  0  0  0  0  0  0
    3.3945   13.5658  -11.1051 H   0  0  0  0  0  0  0  0  0  0  0  0
    4.2812   15.1280  -11.1051 H   0  0  0  0  0  0  0  0  0  0  0  0
   -0.4927   13.8632   -6.1832 H   0  0  0  0  0  0  0  0  0  0  0  0
    1.3328   12.9773   -7.4966 H   0  0  0  0  0  0  0  0  0  0  0  0
    2.3262   14.4271   -7.2343 H   0  0  0  0  0  0  0  0  0  0  0  0
    2.6846   11.9100   -5.9311 H   0  0  0  0  0  0  0  0  0  0  0  0
    3.4206   13.4159   -5.3895 H   0  0  0  0  0  0  0  0  0  0  0  0
    0.1506   11.3588   -3.7227 H   0  0  0  0  0  0  0  0  0  0  0  0
   -0.3590   12.1465   -5.2545 H   0  0  0  0  0  0  0  0  0  0  0  0
    1.0109   10.9846   -5.2545 H   0  0  0  0  0  0  0  0  0  0  0  0
    2.9240   13.6118   -3.0266 H   0  0  0  0  0  0  0  0  0  0  0  0
    3.3268   11.1630   -3.7170 H   0  0  0  0  0  0  0  0  0  0  0  0
    3.7089   11.7486   -2.0139 H   0  0  0  0  0  0  0  0  0  0  0  0
    2.5539    9.3890   -2.2031 H   0  0  0  0  0  0  0  0  0  0  0  0
   -0.5418   11.9783   -2.0986 H   0  0  0  0  0  0  0  0  0  0  0  0
    0.5861   12.0187    0.7684 H   0  0  0  0  0  0  0  0  0  0  0  0
   -0.8222   12.9807    0.1345 H   0  0  0  0  0  0  0  0  0  0  0  0
   -1.5473   11.0259    1.4670 H   0  0  0  0  0  0  0  0  0  0  0  0
   -2.0783   10.9407   -0.2582 H   0  0  0  0  0  0  0  0  0  0  0  0
   -1.3026    8.7723    0.4175 H   0  0  0  0  0  0  0  0  0  0  0  0
    1.2780    9.9110    0.9210 H   0  0  0  0  0  0  0  0  0  0  0  0
   -2.0275    8.9820   -1.6366 H   0  0  0  0  0  0  0  0  0  0  0  0
   -1.1498   10.0319   -2.8002 H   0  0  0  0  0  0  0  0  0  0  0  0
   -0.8661    8.2582   -2.8002 H   0  0  0  0  0  0  0  0  0  0  0  0
    1.0232    7.6719   -0.0744 H   0  0  0  0  0  0  0  0  0  0  0  0
    0.2587    7.1998   -1.6298 H   0  0  0  0  0  0  0  0  0  0  0  0
    1.8118    8.1024   -1.6298 H   0  0  0  0  0  0  0  0  0  0  0  0
    1.5914   13.3414    0.3502 H   0  0  0  0  0  0  0  0  0  0  0  0
    3.0516   13.0249   -0.6469 H   0  0  0  0  0  0  0  0  0  0  0  0
    2.3005   14.6566   -0.6469 H   0  0  0  0  0  0  0  0  0  0  0  0
   -0.6065   14.3267   -1.4286 H   0  0  0  0  0  0  0  0  0  0  0  0
    0.8997   15.2762   -1.9427 H   0  0  0  0  0  0  0  0  0  0  0  0
   -1.0131   13.7384   -3.7211 H   0  0  0  0  0  0  0  0  0  0  0  0
   -0.7163   15.5202   -3.6571 H   0  0  0  0  0  0  0  0  0  0  0  0
    2.0113   15.7155   -3.2406 H   0  0  0  0  0  0  0  0  0  0  0  0
    2.8461   15.3104   -4.7787 H   0  0  0  0  0  0  0  0  0  0  0  0
    1.4791   16.4757   -4.7787 H   0  0  0  0  0  0  0  0  0  0  0  0
  1  2  1  0
  2  3  1  0
  3  4  1  0
  4  5  1  0
  5  6  1  0
  6  7  1  0
  7  8  1  0
  7  9  1  0
  2 10  1  0
 10 11  1  0
 11 12  1  0
 12 13  1  0
 13 14  1  6
 13 15  1  0
 15 16  1  0
 16 17  1  0
 17 18  2  0
 18 19  1  0
 19 20  1  0
 20 21  1  0
 21 22  1  0
 22 23  1  0
 22 24  1  0
 24 25  1  0
 24 26  1  0
 19 27  1  0
 27 28  1  1
 27 29  1  0
 29 30  1  0
 30 31  1  0
 31 32  1  6
  7  5  1  0
 31 10  1  0
 31 13  1  0
 27 15  1  0
 24 18  1  0
  1 33  1  0
  1 34  1  0
  1 35  1  0
  2 36  1  6
  3 37  1  0
  3 38  1  0
  4 39  1  0
  4 40  1  0
  5 41  1  1
  8 42  1  0
  8 43  1  0
  8 44  1  0
  9 45  1  0
  9 46  1  0
  9 47  1  0
 10 48  1  1
 11 49  1  0
 11 50  1  0
 12 51  1  0
 12 52  1  0
 14 53  1  0
 14 54  1  0
 14 55  1  0
 15 56  1  6
 16 57  1  0
 16 58  1  0
 17 59  1  0
 19 60  1  6
 20 61  1  0
 20 62  1  0
 21 63  1  0
 21 64  1  0
 22 65  1  1
 23 66  1  0
 25 67  1  0
 25 68  1  0
 25 69  1  0
 26 70  1  0
 26 71  1  0
 26 72  1  0
 28 73  1  0
 28 74  1  0
 28 75  1  0
 29 76  1  0
 29 77  1  0
 30 78  1  0
 30 79  1  0
 32 80  1  0
 32 81  1  0
 32 82  1  0
M  END
>  <meeko>  (11) 
{"is_sidechain": [false], "intermolecular_energy": 2.731, "internal_energy": -0.839}

$$$$
EPH_relaxed_0001_pdb2pqr_Repair_2_r2_0001_out
     RDKit          3D

 82 86  0  0  0  0  0  0  0  0999 V2000
   -0.1330    9.3480   -2.3040 C   0  0  0  0  0  0  0  0  0  0  0  0
    0.9630   10.3110   -2.7700 C   0  0  2  0  0  0  0  0  0  0  0  0
    2.3410    9.6240   -2.8540 C   0  0  0  0  0  0  0  0  0  0  0  0
    3.2760   10.2490   -3.8940 C   0  0  0  0  0  0  0  0  0  0  0  0
    4.6370   10.5150   -3.3250 C   0  0  2  0  0  0  0  0  0  0  0  0
    5.1630   11.8160   -3.6170 O   0  0  0  0  0  0  0  0  0  0  0  0
    5.8780   10.7030   -4.1780 C   0  0  0  0  0  0  0  0  0  0  0  0
    5.8160   10.6310   -5.6720 C   0  0  0  0  0  0  0  0  0  0  0  0
    7.2180   10.4700   -3.5530 C   0  0  0  0  0  0  0  0  0  0  0  0
    1.0350   11.5090   -1.8300 C   0  0  1  0  0  0  0  0  0  0  0  0
    2.1370   11.3560   -0.7490 C   0  0  0  0  0  0  0  0  0  0  0  0
    2.7140   12.7720   -0.4950 C   0  0  0  0  0  0  0  0  0  0  0  0
    1.7120   13.7300   -1.1810 C   0  0  1  0  0  0  0  0  0  0  0  0
    0.5420   13.8860   -0.1600 C   0  0  0  0  0  0  0  0  0  0  0  0
    2.2780   15.1180   -1.6260 C   0  0  2  0  0  0  0  0  0  0  0  0
    2.7930   16.0100   -0.4830 C   0  0  0  0  0  0  0  0  0  0  0  0
    1.7790   16.9300    0.1140 C   0  0  0  0  0  0  0  0  0  0  0  0
    0.5900   17.2430   -0.4320 C   0  0  0  0  0  0  0  0  0  0  0  0
    0.2010   16.7270   -1.8240 C   0  0  1  0  0  0  0  0  0  0  0  0
   -0.3860   17.8930   -2.6620 C   0  0  0  0  0  0  0  0  0  0  0  0
   -1.5420   18.5960   -1.9570 C   0  0  0  0  0  0  0  0  0  0  0  0
   -1.1020   19.1450   -0.6020 C   0  0  2  0  0  0  0  0  0  0  0  0
   -0.1530   20.1940   -0.8170 O   0  0  0  0  0  0  0  0  0  0  0  0
   -0.4840   18.0630    0.3260 C   0  0  0  0  0  0  0  0  0  0  0  0
   -1.5910   17.0910    0.8020 C   0  0  0  0  0  0  0  0  0  0  0  0
    0.0470   18.7740    1.6000 C   0  0  0  0  0  0  0  0  0  0  0  0
    1.3280   15.9220   -2.6040 C   0  0  1  0  0  0  0  0  0  0  0  0
    2.2370   16.9110   -3.3950 C   0  0  0  0  0  0  0  0  0  0  0  0
    0.6460   14.9910   -3.6750 C   0  0  0  0  0  0  0  0  0  0  0  0
    0.2170   13.5880   -3.2040 C   0  0  0  0  0  0  0  0  0  0  0  0
    1.3580   12.8870   -2.4600 C   0  0  2  0  0  0  0  0  0  0  0  0
    2.5420   12.6970   -3.4680 C   0  0  0  0  0  0  0  0  0  0  0  0
   -0.1583    9.3257   -1.2045 H   0  0  0  0  0  0  0  0  0  0  0  0
   -1.1067    9.6880   -2.6864 H   0  0  0  0  0  0  0  0  0  0  0  0
    0.0789    8.3386   -2.6864 H   0  0  0  0  0  0  0  0  0  0  0  0
    0.6996   10.6483   -3.7833 H   0  0  0  0  0  0  0  0  0  0  0  0
    2.8236    9.6910   -1.8678 H   0  0  0  0  0  0  0  0  0  0  0  0
    2.1641    8.5834   -3.1636 H   0  0  0  0  0  0  0  0  0  0  0  0
    3.3739    9.5598   -4.7457 H   0  0  0  0  0  0  0  0  0  0  0  0
    2.8431   11.2088   -4.2123 H   0  0  0  0  0  0  0  0  0  0  0  0
    4.4278    9.8695   -2.4593 H   0  0  0  0  0  0  0  0  0  0  0  0
    5.1255    9.8291   -5.9721 H   0  0  0  0  0  0  0  0  0  0  0  0
    5.4579   11.5916   -6.0708 H   0  0  0  0  0  0  0  0  0  0  0  0
    6.8191   10.4195   -6.0708 H   0  0  0  0  0  0  0  0  0  0  0  0
    7.1196   10.4871   -2.4575 H   0  0  0  0  0  0  0  0  0  0  0  0
    7.6057    9.4910   -3.8711 H   0  0  0  0  0  0  0  0  0  0  0  0
    7.9134   11.2607   -3.8711 H   0  0  0  0  0  0  0  0  0  0  0  0
    0.0049   11.5031   -1.4443 H   0  0  0  0  0  0  0  0  0  0  0  0
    1.7047   10.9512    0.1780 H   0  0  0  0  0  0  0  0  0  0  0  0
    2.9236   10.6630   -1.0822 H   0  0  0  0  0  0  0  0  0  0  0  0
    2.7734   12.9795    0.5836 H   0  0  0  0  0  0  0  0  0  0  0  0
    3.7348   12.8836   -0.8893 H   0  0  0  0  0  0  0  0  0  0  0  0
    0.9396   13.8330    0.8642 H   0  0  0  0  0  0  0  0  0  0  0  0
    0.0496   14.8578   -0.3123 H   0  0  0  0  0  0  0  0  0  0  0  0
   -0.1878   13.0772   -0.3123 H   0  0  0  0  0  0  0  0  0  0  0  0
    3.1680   14.8343   -2.2070 H   0  0  0  0  0  0  0  0  0  0  0  0
    3.1699   15.3548    0.3162 H   0  0  0  0  0  0  0  0  0  0  0  0
    3.5666   16.6551   -0.9250 H   0  0  0  0  0  0  0  0  0  0  0  0
    2.0253   17.3906    1.0821 H   0  0  0  0  0  0  0  0  0  0  0  0
   -0.5699   15.9596   -1.6605 H   0  0  0  0  0  0  0  0  0  0  0  0
    0.4108   18.6275   -2.8509 H   0  0  0  0  0  0  0  0  0  0  0  0
   -0.7752   17.4679   -3.5989 H   0  0  0  0  0  0  0  0  0  0  0  0
   -1.8945   19.4275   -2.5850 H   0  0  0  0  0  0  0  0  0  0  0  0
   -2.3497   17.8671   -1.7949 H   0  0  0  0  0  0  0  0  0  0  0  0
   -2.0003   19.5203   -0.0900 H   0  0  0  0  0  0  0  0  0  0  0  0
    0.7310   19.7900   -0.8430 H   0  0  0  0  0  0  0  0  0  0  0  0
   -1.6136   17.0712    1.9016 H   0  0  0  0  0  0  0  0  0  0  0  0
   -2.5656   17.4305    0.4213 H   0  0  0  0  0  0  0  0  0  0  0  0
   -1.3804   16.0807    0.4213 H   0  0  0  0  0  0  0  0  0  0  0  0
   -0.3368   18.2601    2.4936 H   0  0  0  0  0  0  0  0  0  0  0  0
    1.1466   18.7454    1.6045 H   0  0  0  0  0  0  0  0  0  0  0  0
   -0.2926   19.8203    1.6045 H   0  0  0  0  0  0  0  0  0  0  0  0
    2.8069   17.5311   -2.6874 H   0  0  0  0  0  0  0  0  0  0  0  0
    2.9340   16.3421   -4.0279 H   0  0  0  0  0  0  0  0  0  0  0  0
    1.6115   17.5577   -4.0279 H   0  0  0  0  0  0  0  0  0  0  0  0
   -0.2530   15.5083   -4.0413 H   0  0  0  0  0  0  0  0  0  0  0  0
    1.4194   14.8146   -4.4371 H   0  0  0  0  0  0  0  0  0  0  0  0
   -0.6471   13.6832   -2.5301 H   0  0  0  0  0  0  0  0  0  0  0  0
   -0.0476   12.9873   -4.0867 H   0  0  0  0  0  0  0  0  0  0  0  0
    3.4780   12.5468   -2.9101 H   0  0  0  0  0  0  0  0  0  0  0  0
    2.3474   11.8186   -4.1009 H   0  0  0  0  0  0  0  0  0  0  0  0
    2.6320   13.5922   -4.1009 H   0  0  0  0  0  0  0  0  0  0  0  0
  1  2  1  0
  2  3  1  0
  3  4  1  0
  4  5  1  0
  5  6  1  0
  6  7  1  0
  7  8  1  0
  7  9  1  0
  2 10  1  0
 10 11  1  0
 11 12  1  0
 12 13  1  0
 13 14  1  1
 13 15  1  0
 15 16  1  0
 16 17  1  0
 17 18  2  0
 18 19  1  0
 19 20  1  0
 20 21  1  0
 21 22  1  0
 22 23  1  0
 22 24  1  0
 24 25  1  0
 24 26  1  0
 19 27  1  0
 27 28  1  6
 27 29  1  0
 29 30  1  0
 30 31  1  0
 31 32  1  6
  7  5  1  0
 31 10  1  0
 31 13  1  0
 27 15  1  0
 24 18  1  0
  1 33  1  0
  1 34  1  0
  1 35  1  0
  2 36  1  6
  3 37  1  0
  3 38  1  0
  4 39  1  0
  4 40  1  0
  5 41  1  1
  8 42  1  0
  8 43  1  0
  8 44  1  0
  9 45  1  0
  9 46  1  0
  9 47  1  0
 10 48  1  1
 11 49  1  0
 11 50  1  0
 12 51  1  0
 12 52  1  0
 14 53  1  0
 14 54  1  0
 14 55  1  0
 15 56  1  6
 16 57  1  0
 16 58  1  0
 17 59  1  0
 19 60  1  1
 20 61  1  0
 20 62  1  0
 21 63  1  0
 21 64  1  0
 22 65  1  1
 23 66  1  0
 25 67  1  0
 25 68  1  0
 25 69  1  0
 26 70  1  0
 26 71  1  0
 26 72  1  0
 28 73  1  0
 28 74  1  0
 28 75  1  0
 29 76  1  0
 29 77  1  0
 30 78  1  0
 30 79  1  0
 32 80  1  0
 32 81  1  0
 32 82  1  0
M  END
>  <meeko>  (12) 
{"is_sidechain": [false], "intermolecular_energy": 2.731, "internal_energy": -0.839}

$$$$
EPH_relaxed_0001_pdb2pqr_Repair_2_r2_0001_out
     RDKit          3D

 82 86  0  0  0  0  0  0  0  0999 V2000
    0.3130   19.1370   -2.4630 C   0  0  0  0  0  0  0  0  0  0  0  0
    0.0010   18.1290   -1.3540 C   0  0  2  0  0  0  0  0  0  0  0  0
    0.6620   18.5140   -0.0150 C   0  0  0  0  0  0  0  0  0  0  0  0
    1.7540   19.5790   -0.1520 C   0  0  0  0  0  0  0  0  0  0  0  0
    2.5940   19.6740    1.0850 C   0  0  2  0  0  0  0  0  0  0  0  0
    3.9170   20.1840    0.8730 O   0  0  0  0  0  0  0  0  0  0  0  0
    3.8280   18.8230    1.3260 C   0  0  0  0  0  0  0  0  0  0  0  0
    4.2890   17.8160    0.3200 C   0  0  0  0  0  0  0  0  0  0  0  0
    4.2960   18.6250    2.7330 C   0  0  0  0  0  0  0  0  0  0  0  0
    0.4530   16.7360   -1.7760 C   0  0  1  0  0  0  0  0  0  0  0  0
    1.8530   16.7390   -2.4450 C   0  0  0  0  0  0  0  0  0  0  0  0
    2.5510   15.4190   -2.0270 C   0  0  0  0  0  0  0  0  0  0  0  0
    1.4220   14.5570   -1.4150 C   0  0  1  0  0  0  0  0  0  0  0  0
    0.6880   13.9290   -2.6410 C   0  0  0  0  0  0  0  0  0  0  0  0
    1.8660   13.4670   -0.3870 C   0  0  2  0  0  0  0  0  0  0  0  0
    2.7880   12.3730   -0.9530 C   0  0  0  0  0  0  0  0  0  0  0  0
    2.0920   11.1720   -1.5010 C   0  0  0  0  0  0  0  0  0  0  0  0
    0.8030   10.8480   -1.2840 C   0  0  0  0  0  0  0  0  0  0  0  0
   -0.0680   11.6790   -0.3340 C   0  0  1  0  0  0  0  0  0  0  0  0
   -0.8520   10.7310    0.6110 C   0  0  0  0  0  0  0  0  0  0  0  0
   -1.6560    9.6800   -0.1490 C   0  0  0  0  0  0  0  0  0  0  0  0
   -0.7460    8.8360   -1.0380 C   0  0  2  0  0  0  0  0  0  0  0  0
    0.1200    8.0590   -0.2060 O   0  0  0  0  0  0  0  0  0  0  0  0
    0.1020    9.6840   -2.0270 C   0  0  0  0  0  0  0  0  0  0  0  0
   -0.8190   10.2880   -3.1160 C   0  0  0  0  0  0  0  0  0  0  0  0
    1.0760    8.7260   -2.7640 C   0  0  0  0  0  0  0  0  0  0  0  0
    0.6760   12.8430    0.4500 C   0  0  1  0  0  0  0  0  0  0  0  0
    1.3020   12.2840    1.7650 C   0  0  0  0  0  0  0  0  0  0  0  0
   -0.3800   13.9260    0.8870 C   0  0  0  0  0  0  0  0  0  0  0  0
   -0.6870   15.0450   -0.1260 C   0  0  0  0  0  0  0  0  0  0  0  0
    0.6050   15.6690   -0.6620 C   0  0  2  0  0  0  0  0  0  0  0  0
    1.3540   16.3290    0.5450 C   0  0  0  0  0  0  0  0  0  0  0  0
    0.6099   20.0962   -2.0138 H   0  0  0  0  0  0  0  0  0  0  0  0
    1.1346   18.7540   -3.0861 H   0  0  0  0  0  0  0  0  0  0  0  0
   -0.5813   19.2851   -3.0861 H   0  0  0  0  0  0  0  0  0  0  0  0
   -1.0879   18.1358   -1.1980 H   0  0  0  0  0  0  0  0  0  0  0  0
   -0.1172   18.9000    0.6587 H   0  0  0  0  0  0  0  0  0  0  0  0
    1.1446   17.6070    0.3781 H   0  0  0  0  0  0  0  0  0  0  0  0
    2.4007   19.3190   -1.0029 H   0  0  0  0  0  0  0  0  0  0  0  0
    1.2660   20.5520   -0.3105 H   0  0  0  0  0  0  0  0  0  0  0  0
    1.7056   19.8768    1.7011 H   0  0  0  0  0  0  0  0  0  0  0  0
    4.6922   16.9352    0.8411 H   0  0  0  0  0  0  0  0  0  0  0  0
    3.4402   17.5124   -0.3104 H   0  0  0  0  0  0  0  0  0  0  0  0
    5.0735   18.2601   -0.3104 H   0  0  0  0  0  0  0  0  0  0  0  0
    3.5124   18.9565    3.4302 H   0  0  0  0  0  0  0  0  0  0  0  0
    4.5099   17.5593    2.9017 H   0  0  0  0  0  0  0  0  0  0  0  0
    5.2098   19.2136    2.9017 H   0  0  0  0  0  0  0  0  0  0  0  0
   -0.3791   16.4670   -2.4433 H   0  0  0  0  0  0  0  0  0  0  0  0
    1.7499   16.7830   -3.5393 H   0  0  0  0  0  0  0  0  0  0  0  0
    2.4402   17.6138   -2.1287 H   0  0  0  0  0  0  0  0  0  0  0  0
    2.9908   14.9183   -2.9022 H   0  0  0  0  0  0  0  0  0  0  0  0
    3.3758   15.5894   -1.3194 H   0  0  0  0  0  0  0  0  0  0  0  0
   -0.1034   13.2519   -2.2872 H   0  0  0  0  0  0  0  0  0  0  0  0
    0.2412   14.7287   -3.2499 H   0  0  0  0  0  0  0  0  0  0  0  0
    1.4089   13.3638   -3.2499 H   0  0  0  0  0  0  0  0  0  0  0  0
    2.4840   14.0441    0.3165 H   0  0  0  0  0  0  0  0  0  0  0  0
    3.3859   12.8178   -1.7621 H   0  0  0  0  0  0  0  0  0  0  0  0
    3.3903   12.0146   -0.1052 H   0  0  0  0  0  0  0  0  0  0  0  0
    2.6816   10.4942   -2.1358 H   0  0  0  0  0  0  0  0  0  0  0  0
   -0.7701   12.2346   -0.9730 H   0  0  0  0  0  0  0  0  0  0  0  0
   -0.1356   10.2184    1.2698 H   0  0  0  0  0  0  0  0  0  0  0  0
   -1.5626   11.3443    1.1845 H   0  0  0  0  0  0  0  0  0  0  0  0
   -2.1639    9.0235    0.5729 H   0  0  0  0  0  0  0  0  0  0  0  0
   -2.3919   10.1929   -0.7856 H   0  0  0  0  0  0  0  0  0  0  0  0
   -1.3914    8.1904   -1.6518 H   0  0  0  0  0  0  0  0  0  0  0  0
   -0.3570    7.8690    0.6190 H   0  0  0  0  0  0  0  0  0  0  0  0
   -1.6468   10.8309   -2.6363 H   0  0  0  0  0  0  0  0  0  0  0  0
   -0.2396   10.9821   -3.7425 H   0  0  0  0  0  0  0  0  0  0  0  0
   -1.2247    9.4800   -3.7425 H   0  0  0  0  0  0  0  0  0  0  0  0
    1.6571    8.1544   -2.0253 H   0  0  0  0  0  0  0  0  0  0  0  0
    0.5007    8.0320   -3.3945 H   0  0  0  0  0  0  0  0  0  0  0  0
    1.7604    9.3127   -3.3945 H   0  0  0  0  0  0  0  0  0  0  0  0
    0.7971   12.7349    2.6320 H   0  0  0  0  0  0  0  0  0  0  0  0
    1.1770   11.1915    1.7951 H   0  0  0  0  0  0  0  0  0  0  0  0
    2.3734   12.5314    1.7951 H   0  0  0  0  0  0  0  0  0  0  0  0
   -1.3237   13.4031    1.1014 H   0  0  0  0  0  0  0  0  0  0  0  0
    0.0712   14.4358    1.7511 H   0  0  0  0  0  0  0  0  0  0  0  0
   -1.2583   14.6231   -0.9660 H   0  0  0  0  0  0  0  0  0  0  0  0
   -1.2700   15.8275    0.3818 H   0  0  0  0  0  0  0  0  0  0  0  0
    0.9297   15.9552    1.4885 H   0  0  0  0  0  0  0  0  0  0  0  0
    2.4229   16.0738    0.4971 H   0  0  0  0  0  0  0  0  0  0  0  0
    1.2353   17.4215    0.4971 H   0  0  0  0  0  0  0  0  0  0  0  0
  1  2  1  0
  2  3  1  0
  3  4  1  0
  4  5  1  0
  5  6  1  0
  6  7  1  0
  7  8  1  0
  7  9  1  0
  2 10  1  0
 10 11  1  0
 11 12  1  0
 12 13  1  0
 13 14  1  6
 13 15  1  0
 15 16  1  0
 16 17  1  0
 17 18  2  0
 18 19  1  0
 19 20  1  0
 20 21  1  0
 21 22  1  0
 22 23  1  0
 22 24  1  0
 24 25  1  0
 24 26  1  0
 19 27  1  0
 27 28  1  1
 27 29  1  0
 29 30  1  0
 30 31  1  0
 31 32  1  1
  7  5  1  0
 31 10  1  0
 31 13  1  0
 27 15  1  0
 24 18  1  0
  1 33  1  0
  1 34  1  0
  1 35  1  0
  2 36  1  1
  3 37  1  0
  3 38  1  0
  4 39  1  0
  4 40  1  0
  5 41  1  1
  8 42  1  0
  8 43  1  0
  8 44  1  0
  9 45  1  0
  9 46  1  0
  9 47  1  0
 10 48  1  6
 11 49  1  0
 11 50  1  0
 12 51  1  0
 12 52  1  0
 14 53  1  0
 14 54  1  0
 14 55  1  0
 15 56  1  1
 16 57  1  0
 16 58  1  0
 17 59  1  0
 19 60  1  6
 20 61  1  0
 20 62  1  0
 21 63  1  0
 21 64  1  0
 22 65  1  6
 23 66  1  0
 25 67  1  0
 25 68  1  0
 25 69  1  0
 26 70  1  0
 26 71  1  0
 26 72  1  0
 28 73  1  0
 28 74  1  0
 28 75  1  0
 29 76  1  0
 29 77  1  0
 30 78  1  0
 30 79  1  0
 32 80  1  0
 32 81  1  0
 32 82  1  0
M  END
>  <meeko>  (13) 
{"is_sidechain": [false], "intermolecular_energy": 2.731, "internal_energy": -0.839}

$$$$
EPH_relaxed_0001_pdb2pqr_Repair_2_r2_0001_out
     RDKit          3D

 82 86  0  0  0  0  0  0  0  0999 V2000
    2.9740   18.3570   -3.4170 C   0  0  0  0  0  0  0  0  0  0  0  0
    2.2400   18.1390   -2.0910 C   0  0  2  0  0  0  0  0  0  0  0  0
    2.6420   19.1800   -1.0260 C   0  0  0  0  0  0  0  0  0  0  0  0
    2.2110   18.8050    0.3940 C   0  0  0  0  0  0  0  0  0  0  0  0
    2.7740   19.7500    1.4120 C   0  0  2  0  0  0  0  0  0  0  0  0
    4.1110   20.1940    1.1420 O   0  0  0  0  0  0  0  0  0  0  0  0
    3.9330   19.4010    2.3270 C   0  0  0  0  0  0  0  0  0  0  0  0
    4.5980   18.0610    2.2680 C   0  0  0  0  0  0  0  0  0  0  0  0
    4.0980   20.1730    3.5990 C   0  0  0  0  0  0  0  0  0  0  0  0
    2.5100   16.7320   -1.5720 C   0  0  1  0  0  0  0  0  0  0  0  0
    3.2320   16.7300   -0.1980 C   0  0  0  0  0  0  0  0  0  0  0  0
    2.6880   15.5110    0.5910 C   0  0  0  0  0  0  0  0  0  0  0  0
    1.9300   14.6700   -0.4630 C   0  0  1  0  0  0  0  0  0  0  0  0
    3.0400   13.8570   -1.2010 C   0  0  0  0  0  0  0  0  0  0  0  0
    0.7970   13.7400    0.0800 C   0  0  2  0  0  0  0  0  0  0  0  0
    1.2650   12.6370    1.0450 C   0  0  0  0  0  0  0  0  0  0  0  0
    1.6350   11.3410    0.4020 C   0  0  0  0  0  0  0  0  0  0  0  0
    1.3270   10.9770   -0.8560 C   0  0  0  0  0  0  0  0  0  0  0  0
    0.4490   11.8690   -1.7420 C   0  0  1  0  0  0  0  0  0  0  0  0
   -0.6360   11.0030   -2.4360 C   0  0  0  0  0  0  0  0  0  0  0  0
   -0.0420    9.8240   -3.2010 C   0  0  0  0  0  0  0  0  0  0  0  0
    0.7770    8.9290   -2.2750 C   0  0  2  0  0  0  0  0  0  0  0  0
   -0.1060    8.3070   -1.3350 O   0  0  0  0  0  0  0  0  0  0  0  0
    1.8950    9.6940   -1.5130 C   0  0  0  0  0  0  0  0  0  0  0  0
    3.0100   10.1090   -2.5050 C   0  0  0  0  0  0  0  0  0  0  0  0
    2.5510    8.7080   -0.5100 C   0  0  0  0  0  0  0  0  0  0  0  0
   -0.1580   13.1600   -1.0410 C   0  0  1  0  0  0  0  0  0  0  0  0
   -1.5030   12.8010   -0.3380 C   0  0  0  0  0  0  0  0  0  0  0  0
   -0.5050   14.2290   -2.1440 C   0  0  0  0  0  0  0  0  0  0  0  0
    0.6220   15.1970   -2.5520 C   0  0  0  0  0  0  0  0  0  0  0  0
    1.2830   15.8200   -1.3180 C   0  0  2  0  0  0  0  0  0  0  0  0
    0.1960   16.6630   -0.5680 C   0  0  0  0  0  0  0  0  0  0  0  0
    4.0107   18.6649   -3.2159 H   0  0  0  0  0  0  0  0  0  0  0  0
    2.9750   17.4204   -3.9938 H   0  0  0  0  0  0  0  0  0  0  0  0
    2.4636   19.1423   -3.9938 H   0  0  0  0  0  0  0  0  0  0  0  0
    1.1643   18.2635   -2.2845 H   0  0  0  0  0  0  0  0  0  0  0  0
    3.7368   19.2863   -1.0400 H   0  0  0  0  0  0  0  0  0  0  0  0
    2.1262   20.1173   -1.2817 H   0  0  0  0  0  0  0  0  0  0  0  0
    1.1128   18.8315    0.4519 H   0  0  0  0  0  0  0  0  0  0  0  0
    2.5932   17.7971    0.6134 H   0  0  0  0  0  0  0  0  0  0  0  0
    1.7758   20.1666    1.6119 H   0  0  0  0  0  0  0  0  0  0  0  0
    4.7790   17.6962    3.2898 H   0  0  0  0  0  0  0  0  0  0  0  0
    3.9473   17.3519    1.7354 H   0  0  0  0  0  0  0  0  0  0  0  0
    5.5563   18.1504    1.7354 H   0  0  0  0  0  0  0  0  0  0  0  0
    3.9542   19.5004    4.4574 H   0  0  0  0  0  0  0  0  0  0  0  0
    5.1088   20.6052    3.6371 H   0  0  0  0  0  0  0  0  0  0  0  0
    3.3522   20.9807    3.6371 H   0  0  0  0  0  0  0  0  0  0  0  0
    3.1051   16.3379   -2.4090 H   0  0  0  0  0  0  0  0  0  0  0  0
    4.3185   16.6345   -0.3411 H   0  0  0  0  0  0  0  0  0  0  0  0
    3.0473   17.6676    0.3468 H   0  0  0  0  0  0  0  0  0  0  0  0
    3.5143   14.9317    1.0287 H   0  0  0  0  0  0  0  0  0  0  0  0
    2.0411   15.8114    1.4284 H   0  0  0  0  0  0  0  0  0  0  0  0
    3.6962   13.3764   -0.4604 H   0  0  0  0  0  0  0  0  0  0  0  0
    2.5722   13.0863   -1.8313 H   0  0  0  0  0  0  0  0  0  0  0  0
    3.6336   14.5355   -1.8313 H   0  0  0  0  0  0  0  0  0  0  0  0
    0.1942   14.4318    0.6867 H   0  0  0  0  0  0  0  0  0  0  0  0
    2.1460   13.0111    1.5870 H   0  0  0  0  0  0  0  0  0  0  0  0
    0.4062   12.4188    1.6968 H   0  0  0  0  0  0  0  0  0  0  0  0
    2.2076   10.6235    1.0080 H   0  0  0  0  0  0  0  0  0  0  0  0
    1.1210   12.3019   -2.4976 H   0  0  0  0  0  0  0  0  0  0  0  0
   -1.3223   10.6157   -1.6685 H   0  0  0  0  0  0  0  0  0  0  0  0
   -1.1599   11.6423   -3.1618 H   0  0  0  0  0  0  0  0  0  0  0  0
   -0.8583    9.2336   -3.6427 H   0  0  0  0  0  0  0  0  0  0  0  0
    0.6203   10.2142   -3.9878 H   0  0  0  0  0  0  0  0  0  0  0  0
    1.2816    8.1800   -2.9029 H   0  0  0  0  0  0  0  0  0  0  0  0
    0.0730    8.6950   -0.4620 H   0  0  0  0  0  0  0  0  0  0  0  0
    3.8964   10.4389   -1.9433 H   0  0  0  0  0  0  0  0  0  0  0  0
    3.2760    9.2497   -3.1381 H   0  0  0  0  0  0  0  0  0  0  0  0
    2.6494   10.9331   -3.1381 H   0  0  0  0  0  0  0  0  0  0  0  0
    2.3347    9.0331    0.5184 H   0  0  0  0  0  0  0  0  0  0  0  0
    2.1439    7.6985   -0.6687 H   0  0  0  0  0  0  0  0  0  0  0  0
    3.6394    8.6935   -0.6687 H   0  0  0  0  0  0  0  0  0  0  0  0
   -1.3675   12.8372    0.7530 H   0  0  0  0  0  0  0  0  0  0  0  0
   -2.2767   13.5241   -0.6356 H   0  0  0  0  0  0  0  0  0  0  0  0
   -1.8135   11.7885   -0.6356 H   0  0  0  0  0  0  0  0  0  0  0  0
   -0.8199   13.6854   -3.0469 H   0  0  0  0  0  0  0  0  0  0  0  0
   -1.2819   14.8648   -1.6944 H   0  0  0  0  0  0  0  0  0  0  0  0
    1.3804   14.6447   -3.1263 H   0  0  0  0  0  0  0  0  0  0  0  0
    0.1884   16.0029   -3.1623 H   0  0  0  0  0  0  0  0  0  0  0  0
    0.3339   16.5560    0.5181 H   0  0  0  0  0  0  0  0  0  0  0  0
    0.2959   17.7221   -0.8477 H   0  0  0  0  0  0  0  0  0  0  0  0
   -0.8050   16.3027   -0.8477 H   0  0  0  0  0  0  0  0  0  0  0  0
  1  2  1  0
  2  3  1  0
  3  4  1  0
  4  5  1  0
  5  6  1  0
  6  7  1  0
  7  8  1  0
  7  9  1  0
  2 10  1  0
 10 11  1  0
 11 12  1  0
 12 13  1  0
 13 14  1  6
 13 15  1  0
 15 16  1  0
 16 17  1  0
 17 18  2  0
 18 19  1  0
 19 20  1  0
 20 21  1  0
 21 22  1  0
 22 23  1  0
 22 24  1  0
 24 25  1  0
 24 26  1  0
 19 27  1  0
 27 28  1  1
 27 29  1  0
 29 30  1  0
 30 31  1  0
 31 32  1  1
  7  5  1  0
 31 10  1  0
 31 13  1  0
 27 15  1  0
 24 18  1  0
  1 33  1  0
  1 34  1  0
  1 35  1  0
  2 36  1  6
  3 37  1  0
  3 38  1  0
  4 39  1  0
  4 40  1  0
  5 41  1  1
  8 42  1  0
  8 43  1  0
  8 44  1  0
  9 45  1  0
  9 46  1  0
  9 47  1  0
 10 48  1  6
 11 49  1  0
 11 50  1  0
 12 51  1  0
 12 52  1  0
 14 53  1  0
 14 54  1  0
 14 55  1  0
 15 56  1  1
 16 57  1  0
 16 58  1  0
 17 59  1  0
 19 60  1  6
 20 61  1  0
 20 62  1  0
 21 63  1  0
 21 64  1  0
 22 65  1  6
 23 66  1  0
 25 67  1  0
 25 68  1  0
 25 69  1  0
 26 70  1  0
 26 71  1  0
 26 72  1  0
 28 73  1  0
 28 74  1  0
 28 75  1  0
 29 76  1  0
 29 77  1  0
 30 78  1  0
 30 79  1  0
 32 80  1  0
 32 81  1  0
 32 82  1  0
M  END
>  <meeko>  (14) 
{"is_sidechain": [false], "intermolecular_energy": 2.731, "internal_energy": -0.839}

$$$$
EPH_relaxed_0001_pdb2pqr_Repair_2_r2_0001_out
     RDKit          3D

 82 86  0  0  0  0  0  0  0  0999 V2000
   -4.0690    7.3680   -3.7400 C   0  0  0  0  0  0  0  0  0  0  0  0
   -3.6660    7.2410   -2.2680 C   0  0  2  0  0  0  0  0  0  0  0  0
   -4.8260    6.7280   -1.3910 C   0  0  0  0  0  0  0  0  0  0  0  0
   -6.2090    6.9490   -2.0100 C   0  0  0  0  0  0  0  0  0  0  0  0
   -7.3060    6.6640   -1.0290 C   0  0  2  0  0  0  0  0  0  0  0  0
   -8.2630    5.6900   -1.4670 O   0  0  0  0  0  0  0  0  0  0  0  0
   -8.7600    7.0240   -1.2730 C   0  0  0  0  0  0  0  0  0  0  0  0
   -9.1950    7.7020   -2.5340 C   0  0  0  0  0  0  0  0  0  0  0  0
   -9.6700    7.1620   -0.0920 C   0  0  0  0  0  0  0  0  0  0  0  0
   -3.1730    8.5850   -1.7460 C   0  0  1  0  0  0  0  0  0  0  0  0
   -3.8800    9.0110   -0.4320 C   0  0  0  0  0  0  0  0  0  0  0  0
   -2.8270    9.7650    0.4190 C   0  0  0  0  0  0  0  0  0  0  0  0
   -1.6590   10.0380   -0.5580 C   0  0  1  0  0  0  0  0  0  0  0  0
   -2.0980   11.3020   -1.3640 C   0  0  0  0  0  0  0  0  0  0  0  0
   -0.2480   10.2260    0.0870 C   0  0  2  0  0  0  0  0  0  0  0  0
   -0.1180   11.4320    1.0340 C   0  0  0  0  0  0  0  0  0  0  0  0
    0.3170   12.7060    0.3890 C   0  0  0  0  0  0  0  0  0  0  0  0
    0.8650   12.8150   -0.8360 C   0  0  0  0  0  0  0  0  0  0  0  0
    1.1880   11.5680   -1.6680 C   0  0  1  0  0  0  0  0  0  0  0  0
    2.6170   11.6960   -2.2600 C   0  0  0  0  0  0  0  0  0  0  0  0
    2.8100   12.9880   -3.0470 C   0  0  0  0  0  0  0  0  0  0  0  0
    2.5360   14.2070   -2.1690 C   0  0  2  0  0  0  0  0  0  0  0  0
    3.5420   14.2800   -1.1540 O   0  0  0  0  0  0  0  0  0  0  0  0
    1.1280   14.1840   -1.5100 C   0  0  0  0  0  0  0  0  0  0  0  0
    0.0430   14.4090   -2.5920 C   0  0  0  0  0  0  0  0  0  0  0  0
    1.0340   15.3940   -0.5430 C   0  0  0  0  0  0  0  0  0  0  0  0
    0.9500   10.1720   -0.9460 C   0  0  1  0  0  0  0  0  0  0  0  0
    2.2190    9.7680   -0.1350 C   0  0  0  0  0  0  0  0  0  0  0  0
    0.7470    9.0560   -2.0390 C   0  0  0  0  0  0  0  0  0  0  0  0
   -0.6900    8.8370   -2.5490 C   0  0  0  0  0  0  0  0  0  0  0  0
   -1.6720    8.6990   -1.3820 C   0  0  2  0  0  0  0  0  0  0  0  0
   -1.2690    7.4240   -0.5660 C   0  0  0  0  0  0  0  0  0  0  0  0
   -5.1162    7.6980   -3.8063 H   0  0  0  0  0  0  0  0  0  0  0  0
   -3.4202    8.1052   -4.2355 H   0  0  0  0  0  0  0  0  0  0  0  0
   -3.9601    6.3920   -4.2355 H   0  0  0  0  0  0  0  0  0  0  0  0
   -2.8552    6.5000   -2.2095 H   0  0  0  0  0  0  0  0  0  0  0  0
   -4.6870    5.6492   -1.2273 H   0  0  0  0  0  0  0  0  0  0  0  0
   -4.7980    7.3015   -0.4527 H   0  0  0  0  0  0  0  0  0  0  0  0
   -6.2889    7.9951   -2.3405 H   0  0  0  0  0  0  0  0  0  0  0  0
   -6.3196    6.2585   -2.8591 H   0  0  0  0  0  0  0  0  0  0  0  0
   -6.6306    6.8544   -0.1819 H   0  0  0  0  0  0  0  0  0  0  0  0
   -9.7735    8.6037   -2.2847 H   0  0  0  0  0  0  0  0  0  0  0  0
   -8.3097    7.9853   -3.1222 H   0  0  0  0  0  0  0  0  0  0  0  0
   -9.8216    7.0153   -3.1222 H   0  0  0  0  0  0  0  0  0  0  0  0
   -9.0841    7.0731    0.8347 H   0  0  0  0  0  0  0  0  0  0  0  0
  -10.1626    8.1451   -0.1215 H   0  0  0  0  0  0  0  0  0  0  0  0
  -10.4319    6.3691   -0.1215 H   0  0  0  0  0  0  0  0  0  0  0  0
   -3.3974    9.2155   -2.6190 H   0  0  0  0  0  0  0  0  0  0  0  0
   -4.7296    9.6726   -0.6565 H   0  0  0  0  0  0  0  0  0  0  0  0
   -4.2703    8.1357    0.1078 H   0  0  0  0  0  0  0  0  0  0  0  0
   -3.2413   10.7091    0.8024 H   0  0  0  0  0  0  0  0  0  0  0  0
   -2.5088    9.1857    1.2983 H   0  0  0  0  0  0  0  0  0  0  0  0
   -2.3766   12.1042   -0.6648 H   0  0  0  0  0  0  0  0  0  0  0  0
   -1.2648   11.6406   -1.9974 H   0  0  0  0  0  0  0  0  0  0  0  0
   -2.9617   11.0513   -1.9974 H   0  0  0  0  0  0  0  0  0  0  0  0
   -0.1608    9.3340    0.7248 H   0  0  0  0  0  0  0  0  0  0  0  0
   -1.0991   11.6050    1.5005 H   0  0  0  0  0  0  0  0  0  0  0  0
    0.6721   11.1701    1.7531 H   0  0  0  0  0  0  0  0  0  0  0  0
    0.1781   13.6341    0.9629 H   0  0  0  0  0  0  0  0  0  0  0  0
    0.4475   11.5450   -2.4811 H   0  0  0  0  0  0  0  0  0  0  0  0
    3.3439   11.6738   -1.4347 H   0  0  0  0  0  0  0  0  0  0  0  0
    2.7674   10.8562   -2.9544 H   0  0  0  0  0  0  0  0  0  0  0  0
    3.8457   13.0344   -3.4147 H   0  0  0  0  0  0  0  0  0  0  0  0
    2.1026   12.9954   -3.8893 H   0  0  0  0  0  0  0  0  0  0  0  0
    2.5629   15.0941   -2.8188 H   0  0  0  0  0  0  0  0  0  0  0  0
    4.2800   14.8040   -1.5080 H   0  0  0  0  0  0  0  0  0  0  0  0
   -0.9233   14.6094   -2.1061 H   0  0  0  0  0  0  0  0  0  0  0  0
    0.3232   15.2681   -3.2192 H   0  0  0  0  0  0  0  0  0  0  0  0
   -0.0415   13.5093   -3.2192 H   0  0  0  0  0  0  0  0  0  0  0  0
    1.0618   15.0356    0.4966 H   0  0  0  0  0  0  0  0  0  0  0  0
    1.8822   16.0716   -0.7201 H   0  0  0  0  0  0  0  0  0  0  0  0
    0.0913   15.9325   -0.7201 H   0  0  0  0  0  0  0  0  0  0  0  0
    2.0034    9.8366    0.9415 H   0  0  0  0  0  0  0  0  0  0  0  0
    2.5019    8.7354   -0.3872 H   0  0  0  0  0  0  0  0  0  0  0  0
    3.0469   10.4470   -0.3872 H   0  0  0  0  0  0  0  0  0  0  0  0
    1.3709    9.3212   -2.9053 H   0  0  0  0  0  0  0  0  0  0  0  0
    1.0234    8.1137   -1.5433 H   0  0  0  0  0  0  0  0  0  0  0  0
   -0.9865    9.6960   -3.1688 H   0  0  0  0  0  0  0  0  0  0  0  0
   -0.7146    7.9090   -3.1391 H   0  0  0  0  0  0  0  0  0  0  0  0
   -1.3375    7.6407    0.5103 H   0  0  0  0  0  0  0  0  0  0  0  0
   -1.9496    6.5973   -0.8176 H   0  0  0  0  0  0  0  0  0  0  0  0
   -0.2369    7.1387   -0.8176 H   0  0  0  0  0  0  0  0  0  0  0  0
  1  2  1  0
  2  3  1  0
  3  4  1  0
  4  5  1  0
  5  6  1  0
  6  7  1  0
  7  8  1  0
  7  9  1  0
  2 10  1  0
 10 11  1  0
 11 12  1  0
 12 13  1  0
 13 14  1  6
 13 15  1  0
 15 16  1  0
 16 17  1  0
 17 18  2  0
 18 19  1  0
 19 20  1  0
 20 21  1  0
 21 22  1  0
 22 23  1  0
 22 24  1  0
 24 25  1  0
 24 26  1  0
 19 27  1  0
 27 28  1  1
 27 29  1  0
 29 30  1  0
 30 31  1  0
 31 32  1  1
  7  5  1  0
 31 10  1  0
 31 13  1  0
 27 15  1  0
 24 18  1  0
  1 33  1  0
  1 34  1  0
  1 35  1  0
  2 36  1  6
  3 37  1  0
  3 38  1  0
  4 39  1  0
  4 40  1  0
  5 41  1  1
  8 42  1  0
  8 43  1  0
  8 44  1  0
  9 45  1  0
  9 46  1  0
  9 47  1  0
 10 48  1  6
 11 49  1  0
 11 50  1  0
 12 51  1  0
 12 52  1  0
 14 53  1  0
 14 54  1  0
 14 55  1  0
 15 56  1  1
 16 57  1  0
 16 58  1  0
 17 59  1  0
 19 60  1  6
 20 61  1  0
 20 62  1  0
 21 63  1  0
 21 64  1  0
 22 65  1  6
 23 66  1  0
 25 67  1  0
 25 68  1  0
 25 69  1  0
 26 70  1  0
 26 71  1  0
 26 72  1  0
 28 73  1  0
 28 74  1  0
 28 75  1  0
 29 76  1  0
 29 77  1  0
 30 78  1  0
 30 79  1  0
 32 80  1  0
 32 81  1  0
 32 82  1  0
M  END
>  <meeko>  (15) 
{"is_sidechain": [false], "intermolecular_energy": 2.731, "internal_energy": -0.839}

$$$$
EPH_relaxed_0001_pdb2pqr_Repair_2_r2_0001_out
     RDKit          3D

 82 86  0  0  0  0  0  0  0  0999 V2000
   -2.1810    7.8030   -2.2190 C   0  0  0  0  0  0  0  0  0  0  0  0
   -2.4400    8.5200   -0.8910 C   0  0  2  0  0  0  0  0  0  0  0  0
   -3.9410    8.5720   -0.5430 C   0  0  0  0  0  0  0  0  0  0  0  0
   -4.6670    7.2390   -0.7480 C   0  0  0  0  0  0  0  0  0  0  0  0
   -5.5850    7.2840   -1.9320 C   0  0  2  0  0  0  0  0  0  0  0  0
   -6.4650    8.4150   -1.9650 O   0  0  0  0  0  0  0  0  0  0  0  0
   -7.0900    7.1280   -1.8300 C   0  0  0  0  0  0  0  0  0  0  0  0
   -7.7650    6.9150   -0.5110 C   0  0  0  0  0  0  0  0  0  0  0  0
   -7.8490    6.6970   -3.0460 C   0  0  0  0  0  0  0  0  0  0  0  0
   -1.8680    9.9320   -0.9420 C   0  0  1  0  0  0  0  0  0  0  0  0
   -1.4280   10.4490    0.4530 C   0  0  0  0  0  0  0  0  0  0  0  0
   -0.1750   11.3340    0.2280 C   0  0  0  0  0  0  0  0  0  0  0  0
   -0.1330   11.5680   -1.3010 C   0  0  1  0  0  0  0  0  0  0  0  0
   -1.1510   12.7230   -1.5580 C   0  0  0  0  0  0  0  0  0  0  0  0
    1.2700   11.8880   -1.9120 C   0  0  2  0  0  0  0  0  0  0  0  0
    1.9220   13.1850   -1.4050 C   0  0  0  0  0  0  0  0  0  0  0  0
    1.6090   14.4100   -2.1980 C   0  0  0  0  0  0  0  0  0  0  0  0
    1.0710   14.4260   -3.4320 C   0  0  0  0  0  0  0  0  0  0  0  0
    0.8110   13.1200   -4.1950 C   0  0  1  0  0  0  0  0  0  0  0  0
    1.3260   13.2610   -5.6520 C   0  0  0  0  0  0  0  0  0  0  0  0
    0.7440   14.4780   -6.3630 C   0  0  0  0  0  0  0  0  0  0  0  0
    1.0730   15.7620   -5.6060 C   0  0  2  0  0  0  0  0  0  0  0  0
    2.4850   15.9830   -5.6650 O   0  0  0  0  0  0  0  0  0  0  0  0
    0.6090   15.7330   -4.1220 C   0  0  0  0  0  0  0  0  0  0  0  0
   -0.9370   15.7980   -4.0580 C   0  0  0  0  0  0  0  0  0  0  0  0
    1.1260   17.0270   -3.4360 C   0  0  0  0  0  0  0  0  0  0  0  0
    1.3260   11.7920   -3.4910 C   0  0  1  0  0  0  0  0  0  0  0  0
    2.8170   11.5330   -3.8690 C   0  0  0  0  0  0  0  0  0  0  0  0
    0.5080   10.5660   -4.0450 C   0  0  0  0  0  0  0  0  0  0  0  0
   -0.8100   10.2270   -3.3240 C   0  0  0  0  0  0  0  0  0  0  0  0
   -0.6030   10.1560   -1.8080 C   0  0  2  0  0  0  0  0  0  0  0  0
    0.4000    8.9880   -1.5160 C   0  0  0  0  0  0  0  0  0  0  0  0
   -1.8134    6.7854   -2.0207 H   0  0  0  0  0  0  0  0  0  0  0  0
   -3.1165    7.7491   -2.7952 H   0  0  0  0  0  0  0  0  0  0  0  0
   -1.4270    8.3594   -2.7952 H   0  0  0  0  0  0  0  0  0  0  0  0
   -1.9372    7.9439   -0.1003 H   0  0  0  0  0  0  0  0  0  0  0  0
   -4.0429    8.8642    0.5126 H   0  0  0  0  0  0  0  0  0  0  0  0
   -4.4044    9.2989   -1.2262 H   0  0  0  0  0  0  0  0  0  0  0  0
   -3.9202    6.4469   -0.9059 H   0  0  0  0  0  0  0  0  0  0  0  0
   -5.2725    7.0370    0.1479 H   0  0  0  0  0  0  0  0  0  0  0  0
   -4.8331    6.7876   -2.5631 H   0  0  0  0  0  0  0  0  0  0  0  0
   -7.0589    7.1378    0.3025 H   0  0  0  0  0  0  0  0  0  0  0  0
   -8.6364    7.5818   -0.4331 H   0  0  0  0  0  0  0  0  0  0  0  0
   -8.0958    5.8688   -0.4331 H   0  0  0  0  0  0  0  0  0  0  0  0
   -8.7676    6.1754   -2.7391 H   0  0  0  0  0  0  0  0  0  0  0  0
   -8.1121    7.5804   -3.6463 H   0  0  0  0  0  0  0  0  0  0  0  0
   -7.2251    6.0184   -3.6463 H   0  0  0  0  0  0  0  0  0  0  0  0
   -2.7247   10.4621   -1.3836 H   0  0  0  0  0  0  0  0  0  0  0  0
   -2.2342   11.0428    0.9084 H   0  0  0  0  0  0  0  0  0  0  0  0
   -1.2038    9.6125    1.1312 H   0  0  0  0  0  0  0  0  0  0  0  0
   -0.2726   12.2892    0.7647 H   0  0  0  0  0  0  0  0  0  0  0  0
    0.7439   10.8598    0.6032 H   0  0  0  0  0  0  0  0  0  0  0  0
   -1.5030   13.1224   -0.5954 H   0  0  0  0  0  0  0  0  0  0  0  0
   -0.6599   13.5241   -2.1298 H   0  0  0  0  0  0  0  0  0  0  0  0
   -2.0075   12.3364   -2.1298 H   0  0  0  0  0  0  0  0  0  0  0  0
    1.8906   11.0689   -1.5196 H   0  0  0  0  0  0  0  0  0  0  0  0
    1.5840   13.3537   -0.3719 H   0  0  0  0  0  0  0  0  0  0  0  0
    3.0079   13.0343   -1.4951 H   0  0  0  0  0  0  0  0  0  0  0  0
    1.8371   15.3815   -1.7353 H   0  0  0  0  0  0  0  0  0  0  0  0
   -0.2800   12.9799   -4.1967 H   0  0  0  0  0  0  0  0  0  0  0  0
    2.4217   13.3555   -5.6310 H   0  0  0  0  0  0  0  0  0  0  0  0
    1.0072   12.3662   -6.2068 H   0  0  0  0  0  0  0  0  0  0  0  0
    1.1673   14.5392   -7.3765 H   0  0  0  0  0  0  0  0  0  0  0  0
   -0.3495   14.3680   -6.4085 H   0  0  0  0  0  0  0  0  0  0  0  0
    0.5229   16.5819   -6.0909 H   0  0  0  0  0  0  0  0  0  0  0  0
    2.7740   16.2750   -4.7830 H   0  0  0  0  0  0  0  0  0  0  0  0
   -1.2602   15.8116   -3.0066 H   0  0  0  0  0  0  0  0  0  0  0  0
   -1.2867   16.7116   -4.5610 H   0  0  0  0  0  0  0  0  0  0  0  0
   -1.3622   14.9169   -4.5610 H   0  0  0  0  0  0  0  0  0  0  0  0
    1.0781   16.9071   -2.3436 H   0  0  0  0  0  0  0  0  0  0  0  0
    2.1671   17.2119   -3.7393 H   0  0  0  0  0  0  0  0  0  0  0  0
    0.4990   17.8784   -3.7393 H   0  0  0  0  0  0  0  0  0  0  0  0
    3.4151   11.4291   -2.9517 H   0  0  0  0  0  0  0  0  0  0  0  0
    2.8900   10.6087   -4.4609 H   0  0  0  0  0  0  0  0  0  0  0  0
    3.1974   12.3785   -4.4609 H   0  0  0  0  0  0  0  0  0  0  0  0
    0.2670   10.7752   -5.0977 H   0  0  0  0  0  0  0  0  0  0  0  0
    1.1563    9.6919   -3.8851 H   0  0  0  0  0  0  0  0  0  0  0  0
   -1.5540   11.0052   -3.5495 H   0  0  0  0  0  0  0  0  0  0  0  0
   -1.1603    9.2457   -3.6765 H   0  0  0  0  0  0  0  0  0  0  0  0
    0.5088    8.8613   -0.4287 H   0  0  0  0  0  0  0  0  0  0  0  0
    0.0163    8.0563   -1.9571 H   0  0  0  0  0  0  0  0  0  0  0  0
    1.3790    9.2265   -1.9571 H   0  0  0  0  0  0  0  0  0  0  0  0
  1  2  1  0
  2  3  1  0
  3  4  1  0
  4  5  1  0
  5  6  1  0
  6  7  1  0
  7  8  1  0
  7  9  1  0
  2 10  1  0
 10 11  1  0
 11 12  1  0
 12 13  1  0
 13 14  1  1
 13 15  1  0
 15 16  1  0
 16 17  1  0
 17 18  2  0
 18 19  1  0
 19 20  1  0
 20 21  1  0
 21 22  1  0
 22 23  1  0
 22 24  1  0
 24 25  1  0
 24 26  1  0
 19 27  1  0
 27 28  1  1
 27 29  1  0
 29 30  1  0
 30 31  1  0
 31 32  1  6
  7  5  1  0
 31 10  1  0
 31 13  1  0
 27 15  1  0
 24 18  1  0
  1 33  1  0
  1 34  1  0
  1 35  1  0
  2 36  1  1
  3 37  1  0
  3 38  1  0
  4 39  1  0
  4 40  1  0
  5 41  1  6
  8 42  1  0
  8 43  1  0
  8 44  1  0
  9 45  1  0
  9 46  1  0
  9 47  1  0
 10 48  1  6
 11 49  1  0
 11 50  1  0
 12 51  1  0
 12 52  1  0
 14 53  1  0
 14 54  1  0
 14 55  1  0
 15 56  1  1
 16 57  1  0
 16 58  1  0
 17 59  1  0
 19 60  1  6
 20 61  1  0
 20 62  1  0
 21 63  1  0
 21 64  1  0
 22 65  1  6
 23 66  1  0
 25 67  1  0
 25 68  1  0
 25 69  1  0
 26 70  1  0
 26 71  1  0
 26 72  1  0
 28 73  1  0
 28 74  1  0
 28 75  1  0
 29 76  1  0
 29 77  1  0
 30 78  1  0
 30 79  1  0
 32 80  1  0
 32 81  1  0
 32 82  1  0
M  END
>  <meeko>  (16) 
{"is_sidechain": [false], "intermolecular_energy": 2.731, "internal_energy": -0.839}

$$$$
EPH_relaxed_0001_pdb2pqr_Repair_2_r2_0001_out
     RDKit          3D

 82 86  0  0  0  0  0  0  0  0999 V2000
   -2.2710    9.7140   -0.3970 C   0  0  0  0  0  0  0  0  0  0  0  0
   -1.5630   10.5370   -1.4770 C   0  0  2  0  0  0  0  0  0  0  0  0
   -0.5500    9.6960   -2.2780 C   0  0  0  0  0  0  0  0  0  0  0  0
    0.8500    9.6660   -1.6610 C   0  0  0  0  0  0  0  0  0  0  0  0
    1.9010   10.0700   -2.6500 C   0  0  2  0  0  0  0  0  0  0  0  0
    3.0410    9.2020   -2.7010 O   0  0  0  0  0  0  0  0  0  0  0  0
    3.2870   10.5440   -2.2520 C   0  0  0  0  0  0  0  0  0  0  0  0
    3.6960   10.6390   -0.8160 C   0  0  0  0  0  0  0  0  0  0  0  0
    4.0670   11.3720   -3.2250 C   0  0  0  0  0  0  0  0  0  0  0  0
   -0.8620   11.7330   -0.8430 C   0  0  1  0  0  0  0  0  0  0  0  0
    0.2970   11.3130    0.1010 C   0  0  0  0  0  0  0  0  0  0  0  0
    1.4000   12.3940   -0.0370 C   0  0  0  0  0  0  0  0  0  0  0  0
    0.7140   13.5580   -0.7900 C   0  0  1  0  0  0  0  0  0  0  0  0
   -0.0830   14.3310    0.3070 C   0  0  0  0  0  0  0  0  0  0  0  0
    1.6560   14.5090   -1.5980 C   0  0  2  0  0  0  0  0  0  0  0  0
    2.6850   15.2800   -0.7530 C   0  0  0  0  0  0  0  0  0  0  0  0
    2.2310   16.6120   -0.2550 C   0  0  0  0  0  0  0  0  0  0  0  0
    1.1620   17.2930   -0.7060 C   0  0  0  0  0  0  0  0  0  0  0  0
    0.3380   16.7710   -1.8900 C   0  0  1  0  0  0  0  0  0  0  0  0
    0.0740   17.9300   -2.8870 C   0  0  0  0  0  0  0  0  0  0  0  0
   -0.5680   19.1420   -2.2190 C   0  0  0  0  0  0  0  0  0  0  0  0
    0.3080   19.6670   -1.0850 C   0  0  2  0  0  0  0  0  0  0  0  0
    1.5170   20.1930   -1.6420 O   0  0  0  0  0  0  0  0  0  0  0  0
    0.6490   18.5850   -0.0230 C   0  0  0  0  0  0  0  0  0  0  0  0
   -0.6220   18.2330    0.7890 C   0  0  0  0  0  0  0  0  0  0  0  0
    1.6510   19.2060    0.9870 C   0  0  0  0  0  0  0  0  0  0  0  0
    0.9000   15.4680   -2.6050 C   0  0  1  0  0  0  0  0  0  0  0  0
    1.9340   15.8660   -3.7020 C   0  0  0  0  0  0  0  0  0  0  0  0
   -0.2810   14.7410   -3.3510 C   0  0  0  0  0  0  0  0  0  0  0  0
   -1.0990   13.7250   -2.5320 C   0  0  0  0  0  0  0  0  0  0  0  0
   -0.1790   12.7450   -1.7970 C   0  0  2  0  0  0  0  0  0  0  0  0
    0.6190   11.9370   -2.8760 C   0  0  0  0  0  0  0  0  0  0  0  0
   -1.9635   10.0714    0.5968 H   0  0  0  0  0  0  0  0  0  0  0  0
   -3.3599    9.8254   -0.5060 H   0  0  0  0  0  0  0  0  0  0  0  0
   -1.9982    8.6540   -0.5060 H   0  0  0  0  0  0  0  0  0  0  0  0
   -2.3310   10.8872   -2.1824 H   0  0  0  0  0  0  0  0  0  0  0  0
   -0.9255    8.6638   -2.3370 H   0  0  0  0  0  0  0  0  0  0  0  0
   -0.4545   10.1656   -3.2681 H   0  0  0  0  0  0  0  0  0  0  0  0
    0.8783   10.3595   -0.8076 H   0  0  0  0  0  0  0  0  0  0  0  0
    1.0605    8.6355   -1.3390 H   0  0  0  0  0  0  0  0  0  0  0  0
    1.1397   10.4955   -3.3203 H   0  0  0  0  0  0  0  0  0  0  0  0
    2.8266   10.4371   -0.1730 H   0  0  0  0  0  0  0  0  0  0  0  0
    4.4842    9.9000   -0.6096 H   0  0  0  0  0  0  0  0  0  0  0  0
    4.0778   11.6497   -0.6096 H   0  0  0  0  0  0  0  0  0  0  0  0
    4.7203   12.0655   -2.6752 H   0  0  0  0  0  0  0  0  0  0  0  0
    4.6807   10.7136   -3.8574 H   0  0  0  0  0  0  0  0  0  0  0  0
    3.3732   11.9453   -3.8574 H   0  0  0  0  0  0  0  0  0  0  0  0
   -1.7198   12.2070   -0.3434 H   0  0  0  0  0  0  0  0  0  0  0  0
   -0.0593   11.2659    1.1406 H   0  0  0  0  0  0  0  0  0  0  0  0
    0.6832   10.3182   -0.1659 H   0  0  0  0  0  0  0  0  0  0  0  0
    1.7470   12.7233    0.9535 H   0  0  0  0  0  0  0  0  0  0  0  0
    2.2872   12.0191   -0.5683 H   0  0  0  0  0  0  0  0  0  0  0  0
    0.2530   14.0051    1.3024 H   0  0  0  0  0  0  0  0  0  0  0  0
    0.0935   15.4110    0.1958 H   0  0  0  0  0  0  0  0  0  0  0  0
   -1.1572   14.1216    0.1958 H   0  0  0  0  0  0  0  0  0  0  0  0
    2.2388   13.8023   -2.2070 H   0  0  0  0  0  0  0  0  0  0  0  0
    2.9415   14.6604    0.1190 H   0  0  0  0  0  0  0  0  0  0  0  0
    3.5381   15.4784   -1.4185 H   0  0  0  0  0  0  0  0  0  0  0  0
    2.8207   17.0762    0.5492 H   0  0  0  0  0  0  0  0  0  0  0  0
   -0.6138   16.4180   -1.4663 H   0  0  0  0  0  0  0  0  0  0  0  0
    1.0321   18.2384   -3.3308 H   0  0  0  0  0  0  0  0  0  0  0  0
   -0.6259   17.5602   -3.6508 H   0  0  0  0  0  0  0  0  0  0  0  0
   -0.7024   19.9367   -2.9676 H   0  0  0  0  0  0  0  0  0  0  0  0
   -1.5395   18.8393   -1.8011 H   0  0  0  0  0  0  0  0  0  0  0  0
   -0.2621   20.4496   -0.5629 H   0  0  0  0  0  0  0  0  0  0  0  0
    1.7300   19.6670   -2.4310 H   0  0  0  0  0  0  0  0  0  0  0  0
   -0.3989   18.2948    1.8644 H   0  0  0  0  0  0  0  0  0  0  0  0
   -1.4246   18.9427    0.5397 H   0  0  0  0  0  0  0  0  0  0  0  0
   -0.9452   17.2115    0.5397 H   0  0  0  0  0  0  0  0  0  0  0  0
    1.3141   18.9972    2.0131 H   0  0  0  0  0  0  0  0  0  0  0  0
    2.6476   18.7670    0.8318 H   0  0  0  0  0  0  0  0  0  0  0  0
    1.7013   20.2938    0.8318 H   0  0  0  0  0  0  0  0  0  0  0  0
    2.8581   16.2217   -3.2230 H   0  0  0  0  0  0  0  0  0  0  0  0
    2.1593   14.9903   -4.3285 H   0  0  0  0  0  0  0  0  0  0  0  0
    1.5140   16.6667   -4.3285 H   0  0  0  0  0  0  0  0  0  0  0  0
   -0.9751   15.5155   -3.7093 H   0  0  0  0  0  0  0  0  0  0  0  0
    0.2001   14.1503   -4.1445 H   0  0  0  0  0  0  0  0  0  0  0  0
   -1.7105   14.2661   -1.7950 H   0  0  0  0  0  0  0  0  0  0  0  0
   -1.7402   13.1549   -3.2204 H   0  0  0  0  0  0  0  0  0  0  0  0
    1.3077   11.2396   -2.3767 H   0  0  0  0  0  0  0  0  0  0  0  0
   -0.0842   11.3709   -3.5045 H   0  0  0  0  0  0  0  0  0  0  0  0
    1.1938   12.6331   -3.5045 H   0  0  0  0  0  0  0  0  0  0  0  0
  1  2  1  0
  2  3  1  0
  3  4  1  0
  4  5  1  0
  5  6  1  0
  6  7  1  0
  7  8  1  0
  7  9  1  0
  2 10  1  0
 10 11  1  0
 11 12  1  0
 12 13  1  0
 13 14  1  1
 13 15  1  0
 15 16  1  0
 16 17  1  0
 17 18  2  0
 18 19  1  0
 19 20  1  0
 20 21  1  0
 21 22  1  0
 22 23  1  0
 22 24  1  0
 24 25  1  0
 24 26  1  0
 19 27  1  0
 27 28  1  6
 27 29  1  0
 29 30  1  0
 30 31  1  0
 31 32  1  6
  7  5  1  0
 31 10  1  0
 31 13  1  0
 27 15  1  0
 24 18  1  0
  1 33  1  0
  1 34  1  0
  1 35  1  0
  2 36  1  6
  3 37  1  0
  3 38  1  0
  4 39  1  0
  4 40  1  0
  5 41  1  6
  8 42  1  0
  8 43  1  0
  8 44  1  0
  9 45  1  0
  9 46  1  0
  9 47  1  0
 10 48  1  1
 11 49  1  0
 11 50  1  0
 12 51  1  0
 12 52  1  0
 14 53  1  0
 14 54  1  0
 14 55  1  0
 15 56  1  6
 16 57  1  0
 16 58  1  0
 17 59  1  0
 19 60  1  1
 20 61  1  0
 20 62  1  0
 21 63  1  0
 21 64  1  0
 22 65  1  1
 23 66  1  0
 25 67  1  0
 25 68  1  0
 25 69  1  0
 26 70  1  0
 26 71  1  0
 26 72  1  0
 28 73  1  0
 28 74  1  0
 28 75  1  0
 29 76  1  0
 29 77  1  0
 30 78  1  0
 30 79  1  0
 32 80  1  0
 32 81  1  0
 32 82  1  0
M  END
>  <meeko>  (17) 
{"is_sidechain": [false], "intermolecular_energy": 2.731, "internal_energy": -0.839}

$$$$
EPH_relaxed_0001_pdb2pqr_Repair_2_r2_0001_out
     RDKit          3D

 82 86  0  0  0  0  0  0  0  0999 V2000
    0.9490   14.9580   -2.7560 C   0  0  0  0  0  0  0  0  0  0  0  0
    1.1990   14.2700   -4.1010 C   0  0  2  0  0  0  0  0  0  0  0  0
    0.4730   14.9800   -5.2610 C   0  0  0  0  0  0  0  0  0  0  0  0
    1.0360   14.6350   -6.6420 C   0  0  0  0  0  0  0  0  0  0  0  0
    0.8310   15.7530   -7.6190 C   0  0  2  0  0  0  0  0  0  0  0  0
    0.4190   15.3370   -8.9280 O   0  0  0  0  0  0  0  0  0  0  0  0
    1.7070   15.9690   -8.8400 C   0  0  0  0  0  0  0  0  0  0  0  0
    2.8540   15.0580   -9.1480 C   0  0  0  0  0  0  0  0  0  0  0  0
    1.7530   17.3320   -9.4560 C   0  0  0  0  0  0  0  0  0  0  0  0
    0.7600   12.8120   -4.0270 C   0  0  1  0  0  0  0  0  0  0  0  0
    1.8950   11.8260   -4.4130 C   0  0  0  0  0  0  0  0  0  0  0  0
    1.7160   10.5680   -3.5250 C   0  0  0  0  0  0  0  0  0  0  0  0
    0.3090   10.7270   -2.9030 C   0  0  1  0  0  0  0  0  0  0  0  0
   -0.6770   10.2390   -4.0120 C   0  0  0  0  0  0  0  0  0  0  0  0
    0.0640    9.9860   -1.5480 C   0  0  2  0  0  0  0  0  0  0  0  0
    0.1800    8.4530   -1.6120 C   0  0  0  0  0  0  0  0  0  0  0  0
   -1.0910    7.7300   -1.9130 C   0  0  0  0  0  0  0  0  0  0  0  0
   -2.3270    8.2580   -1.8440 C   0  0  0  0  0  0  0  0  0  0  0  0
   -2.5450    9.6890   -1.3340 C   0  0  1  0  0  0  0  0  0  0  0  0
   -3.7130    9.7030   -0.3140 C   0  0  0  0  0  0  0  0  0  0  0  0
   -4.9880    9.0830   -0.8760 C   0  0  0  0  0  0  0  0  0  0  0  0
   -4.7460    7.6420   -1.3180 C   0  0  2  0  0  0  0  0  0  0  0  0
   -4.4680    6.8460   -0.1610 O   0  0  0  0  0  0  0  0  0  0  0  0
   -3.5840    7.5020   -2.3400 C   0  0  0  0  0  0  0  0  0  0  0  0
   -4.0110    8.1090   -3.7000 C   0  0  0  0  0  0  0  0  0  0  0  0
   -3.3510    5.9880   -2.5940 C   0  0  0  0  0  0  0  0  0  0  0  0
   -1.2510   10.4360   -0.7920 C   0  0  1  0  0  0  0  0  0  0  0  0
   -1.0350   10.1000    0.7150 C   0  0  0  0  0  0  0  0  0  0  0  0
   -1.4850   11.9910   -0.8710 C   0  0  0  0  0  0  0  0  0  0  0  0
   -1.1120   12.6830   -2.1960 C   0  0  0  0  0  0  0  0  0  0  0  0
    0.2930   12.2780   -2.6500 C   0  0  2  0  0  0  0  0  0  0  0  0
    1.3090   12.7750   -1.5650 C   0  0  0  0  0  0  0  0  0  0  0  0
    1.2002   14.2666   -1.9382 H   0  0  0  0  0  0  0  0  0  0  0  0
    1.5777   15.8576   -2.6818 H   0  0  0  0  0  0  0  0  0  0  0  0
   -0.1106   15.2441   -2.6818 H   0  0  0  0  0  0  0  0  0  0  0  0
    2.2785   14.3245   -4.3052 H   0  0  0  0  0  0  0  0  0  0  0  0
   -0.5878   14.6901   -5.2361 H   0  0  0  0  0  0  0  0  0  0  0  0
    0.6161   16.0610   -5.1163 H   0  0  0  0  0  0  0  0  0  0  0  0
    2.1139   14.4366   -6.5482 H   0  0  0  0  0  0  0  0  0  0  0  0
    0.5035   13.7489   -7.0180 H   0  0  0  0  0  0  0  0  0  0  0  0
    0.5085   16.4289   -6.8133 H   0  0  0  0  0  0  0  0  0  0  0  0
    3.3021   14.7021   -8.2086 H   0  0  0  0  0  0  0  0  0  0  0  0
    2.4928   14.1979   -9.7309 H   0  0  0  0  0  0  0  0  0  0  0  0
    3.6100   15.6045   -9.7309 H   0  0  0  0  0  0  0  0  0  0  0  0
    1.7787   18.0926   -8.6618 H   0  0  0  0  0  0  0  0  0  0  0  0
    2.6547   17.4223  -10.0795 H   0  0  0  0  0  0  0  0  0  0  0  0
    0.8594   17.4829  -10.0795 H   0  0  0  0  0  0  0  0  0  0  0  0
   -0.0884   12.8398   -4.7266 H   0  0  0  0  0  0  0  0  0  0  0  0
    1.8152   11.5539   -5.4758 H   0  0  0  0  0  0  0  0  0  0  0  0
    2.8840   12.2818   -4.2573 H   0  0  0  0  0  0  0  0  0  0  0  0
    1.7709    9.6527   -4.1326 H   0  0  0  0  0  0  0  0  0  0  0  0
    2.5026   10.4811   -2.7610 H   0  0  0  0  0  0  0  0  0  0  0  0
   -1.5683    9.7979   -3.5419 H   0  0  0  0  0  0  0  0  0  0  0  0
   -0.9769   11.0927   -4.6375 H   0  0  0  0  0  0  0  0  0  0  0  0
   -0.1801    9.4828   -4.6375 H   0  0  0  0  0  0  0  0  0  0  0  0
    0.9142   10.3238   -0.9373 H   0  0  0  0  0  0  0  0  0  0  0  0
    0.9091    8.1996   -2.3957 H   0  0  0  0  0  0  0  0  0  0  0  0
    0.4843    8.1283   -0.6060 H   0  0  0  0  0  0  0  0  0  0  0  0
   -1.0104    6.6759   -2.2171 H   0  0  0  0  0  0  0  0  0  0  0  0
   -2.8136   10.2890   -2.2159 H   0  0  0  0  0  0  0  0  0  0  0  0
   -3.4088    9.1360    0.5782 H   0  0  0  0  0  0  0  0  0  0  0  0
   -3.9315   10.7534   -0.0712 H   0  0  0  0  0  0  0  0  0  0  0  0
   -5.7667    9.0952   -0.0992 H   0  0  0  0  0  0  0  0  0  0  0  0
   -5.3072    9.6692   -1.7504 H   0  0  0  0  0  0  0  0  0  0  0  0
   -5.6564    7.2959   -1.8292 H   0  0  0  0  0  0  0  0  0  0  0  0
   -5.2000    6.2160   -0.0550 H   0  0  0  0  0  0  0  0  0  0  0  0
   -4.6358    8.9972   -3.5251 H   0  0  0  0  0  0  0  0  0  0  0  0
   -3.1156    8.3971   -4.2703 H   0  0  0  0  0  0  0  0  0  0  0  0
   -4.5848    7.3636   -4.2703 H   0  0  0  0  0  0  0  0  0  0  0  0
   -3.2702    5.4628   -1.6309 H   0  0  0  0  0  0  0  0  0  0  0  0
   -4.1966    5.5777   -3.1655 H   0  0  0  0  0  0  0  0  0  0  0  0
   -2.4212    5.8509   -3.1655 H   0  0  0  0  0  0  0  0  0  0  0  0
   -1.5263   10.8642    1.3351 H   0  0  0  0  0  0  0  0  0  0  0  0
   -1.4687    9.1137    0.9366 H   0  0  0  0  0  0  0  0  0  0  0  0
    0.0423   10.0850    0.9366 H   0  0  0  0  0  0  0  0  0  0  0  0
   -2.5537   12.1765   -0.6880 H   0  0  0  0  0  0  0  0  0  0  0  0
   -0.8071   12.4227   -0.1199 H   0  0  0  0  0  0  0  0  0  0  0  0
   -1.8377   12.3929   -2.9701 H   0  0  0  0  0  0  0  0  0  0  0  0
   -1.1296   13.7717   -2.0398 H   0  0  0  0  0  0  0  0  0  0  0  0
    0.9018   12.5758   -0.5628 H   0  0  0  0  0  0  0  0  0  0  0  0
    2.2638   12.2422   -1.6854 H   0  0  0  0  0  0  0  0  0  0  0  0
    1.4745   13.8558   -1.6854 H   0  0  0  0  0  0  0  0  0  0  0  0
  1  2  1  0
  2  3  1  0
  3  4  1  0
  4  5  1  0
  5  6  1  0
  6  7  1  0
  7  8  1  0
  7  9  1  0
  2 10  1  0
 10 11  1  0
 11 12  1  0
 12 13  1  0
 13 14  1  6
 13 15  1  0
 15 16  1  0
 16 17  1  0
 17 18  2  0
 18 19  1  0
 19 20  1  0
 20 21  1  0
 21 22  1  0
 22 23  1  0
 22 24  1  0
 24 25  1  0
 24 26  1  0
 19 27  1  0
 27 28  1  1
 27 29  1  0
 29 30  1  0
 30 31  1  0
 31 32  1  1
  7  5  1  0
 31 10  1  0
 31 13  1  0
 27 15  1  0
 24 18  1  0
  1 33  1  0
  1 34  1  0
  1 35  1  0
  2 36  1  6
  3 37  1  0
  3 38  1  0
  4 39  1  0
  4 40  1  0
  5 41  1  1
  8 42  1  0
  8 43  1  0
  8 44  1  0
  9 45  1  0
  9 46  1  0
  9 47  1  0
 10 48  1  6
 11 49  1  0
 11 50  1  0
 12 51  1  0
 12 52  1  0
 14 53  1  0
 14 54  1  0
 14 55  1  0
 15 56  1  1
 16 57  1  0
 16 58  1  0
 17 59  1  0
 19 60  1  6
 20 61  1  0
 20 62  1  0
 21 63  1  0
 21 64  1  0
 22 65  1  6
 23 66  1  0
 25 67  1  0
 25 68  1  0
 25 69  1  0
 26 70  1  0
 26 71  1  0
 26 72  1  0
 28 73  1  0
 28 74  1  0
 28 75  1  0
 29 76  1  0
 29 77  1  0
 30 78  1  0
 30 79  1  0
 32 80  1  0
 32 81  1  0
 32 82  1  0
M  END
>  <meeko>  (18) 
{"is_sidechain": [false], "intermolecular_energy": 2.731, "internal_energy": -0.839}

$$$$
EPH_relaxed_0001_pdb2pqr_Repair_2_r2_0001_out
     RDKit          3D

 82 86  0  0  0  0  0  0  0  0999 V2000
   -5.1600    5.8920   -1.5990 C   0  0  0  0  0  0  0  0  0  0  0  0
   -5.4340    7.3900   -1.7590 C   0  0  2  0  0  0  0  0  0  0  0  0
   -5.1880    8.1680   -0.4510 C   0  0  0  0  0  0  0  0  0  0  0  0
   -4.1440    9.2790   -0.5820 C   0  0  0  0  0  0  0  0  0  0  0  0
   -2.7670    8.7240   -0.7870 C   0  0  2  0  0  0  0  0  0  0  0  0
   -1.8070    9.1240    0.2000 O   0  0  0  0  0  0  0  0  0  0  0  0
   -1.5640    9.5790   -1.1400 C   0  0  0  0  0  0  0  0  0  0  0  0
   -1.6830   11.0620   -1.3100 C   0  0  0  0  0  0  0  0  0  0  0  0
   -0.3880    8.9250   -1.7950 C   0  0  0  0  0  0  0  0  0  0  0  0
   -6.8650    7.6080   -2.2340 C   0  0  1  0  0  0  0  0  0  0  0  0
   -7.1570    6.9120   -3.5900 C   0  0  0  0  0  0  0  0  0  0  0  0
   -8.6300    6.4300   -3.5370 C   0  0  0  0  0  0  0  0  0  0  0  0
   -9.2310    7.1480   -2.3060 C   0  0  1  0  0  0  0  0  0  0  0  0
   -9.5860    8.5820   -2.8110 C   0  0  0  0  0  0  0  0  0  0  0  0
  -10.4590    6.4530   -1.6330 C   0  0  2  0  0  0  0  0  0  0  0  0
  -11.7050    6.3210   -2.5260 C   0  0  0  0  0  0  0  0  0  0  0  0
  -12.6660    7.4610   -2.4520 C   0  0  0  0  0  0  0  0  0  0  0  0
  -12.6830    8.4090   -1.4970 C   0  0  0  0  0  0  0  0  0  0  0  0
  -11.7280    8.3370   -0.2980 C   0  0  1  0  0  0  0  0  0  0  0  0
  -12.5170    8.6110    1.0090 C   0  0  0  0  0  0  0  0  0  0  0  0
  -13.2930    9.9240    0.9600 C   0  0  0  0  0  0  0  0  0  0  0  0
  -14.2730    9.9340   -0.2100 C   0  0  2  0  0  0  0  0  0  0  0  0
  -15.2880    8.9530    0.0300 O   0  0  0  0  0  0  0  0  0  0  0  0
  -13.5940    9.6590   -1.5810 C   0  0  0  0  0  0  0  0  0  0  0  0
  -12.7190   10.8720   -1.9810 C   0  0  0  0  0  0  0  0  0  0  0  0
  -14.7110    9.5560   -2.6550 C   0  0  0  0  0  0  0  0  0  0  0  0
  -10.8290    7.0300   -0.2060 C   0  0  1  0  0  0  0  0  0  0  0  0
  -11.6030    5.9030    0.5430 C   0  0  0  0  0  0  0  0  0  0  0  0
   -9.5530    7.3440    0.6610 C   0  0  0  0  0  0  0  0  0  0  0  0
   -8.3310    7.9180   -0.0820 C   0  0  0  0  0  0  0  0  0  0  0  0
   -8.0050    7.0840   -1.3250 C   0  0  2  0  0  0  0  0  0  0  0  0
   -7.6220    5.6420   -0.8470 C   0  0  0  0  0  0  0  0  0  0  0  0
   -5.1139    5.6399   -0.5293 H   0  0  0  0  0  0  0  0  0  0  0  0
   -5.9681    5.3184   -2.0764 H   0  0  0  0  0  0  0  0  0  0  0  0
   -4.2012    5.6416   -2.0764 H   0  0  0  0  0  0  0  0  0  0  0  0
   -4.7300    7.7773   -2.5103 H   0  0  0  0  0  0  0  0  0  0  0  0
   -6.1385    8.6208   -0.1324 H   0  0  0  0  0  0  0  0  0  0  0  0
   -4.7991    7.4470    0.2831 H   0  0  0  0  0  0  0  0  0  0  0  0
   -4.4044    9.9133   -1.4421 H   0  0  0  0  0  0  0  0  0  0  0  0
   -4.1437    9.8612    0.3513 H   0  0  0  0  0  0  0  0  0  0  0  0
   -3.1779    7.8072   -1.2350 H   0  0  0  0  0  0  0  0  0  0  0  0
   -1.7216   11.5425   -0.3212 H   0  0  0  0  0  0  0  0  0  0  0  0
   -0.8122   11.4383   -1.8668 H   0  0  0  0  0  0  0  0  0  0  0  0
   -2.6027   11.2946   -1.8668 H   0  0  0  0  0  0  0  0  0  0  0  0
    0.2968    8.5442   -1.0230 H   0  0  0  0  0  0  0  0  0  0  0  0
   -0.7347    8.0901   -2.4217 H   0  0  0  0  0  0  0  0  0  0  0  0
    0.1383    9.6600   -2.4217 H   0  0  0  0  0  0  0  0  0  0  0  0
   -6.8832    8.7075   -2.2632 H   0  0  0  0  0  0  0  0  0  0  0  0
   -7.0207    7.6232   -4.4180 H   0  0  0  0  0  0  0  0  0  0  0  0
   -6.4710    6.0685   -3.7569 H   0  0  0  0  0  0  0  0  0  0  0  0
   -9.1658    6.7169   -4.4539 H   0  0  0  0  0  0  0  0  0  0  0  0
   -8.7084    5.3354   -3.4612 H   0  0  0  0  0  0  0  0  0  0  0  0
   -9.7500    9.2444   -1.9483 H   0  0  0  0  0  0  0  0  0  0  0  0
   -8.7572    8.9718   -3.4203 H   0  0  0  0  0  0  0  0  0  0  0  0
  -10.5009    8.5401   -3.4203 H   0  0  0  0  0  0  0  0  0  0  0  0
  -10.0931    5.4273   -1.4777 H   0  0  0  0  0  0  0  0  0  0  0  0
  -11.3675    6.2280   -3.5688 H   0  0  0  0  0  0  0  0  0  0  0  0
  -12.2503    5.4389   -2.1592 H   0  0  0  0  0  0  0  0  0  0  0  0
  -13.4246    7.5322   -3.2454 H   0  0  0  0  0  0  0  0  0  0  0  0
  -10.9808    9.1288   -0.4556 H   0  0  0  0  0  0  0  0  0  0  0  0
  -13.2277    7.7872    1.1710 H   0  0  0  0  0  0  0  0  0  0  0  0
  -11.7882    8.6844    1.8297 H   0  0  0  0  0  0  0  0  0  0  0  0
  -13.8522   10.0472    1.8992 H   0  0  0  0  0  0  0  0  0  0  0  0
  -12.5786   10.7498    0.8271 H   0  0  0  0  0  0  0  0  0  0  0  0
  -14.7035   10.9444   -0.2708 H   0  0  0  0  0  0  0  0  0  0  0  0
  -15.3240    8.3710   -0.7480 H   0  0  0  0  0  0  0  0  0  0  0  0
  -12.3550   11.3766   -1.0739 H   0  0  0  0  0  0  0  0  0  0  0  0
  -11.8617   10.5252   -2.5767 H   0  0  0  0  0  0  0  0  0  0  0  0
  -13.3186   11.5761   -2.5767 H   0  0  0  0  0  0  0  0  0  0  0  0
  -15.6889    9.4658   -2.1595 H   0  0  0  0  0  0  0  0  0  0  0  0
  -14.7001   10.4590   -3.2831 H   0  0  0  0  0  0  0  0  0  0  0  0
  -14.5352    8.6703   -3.2831 H   0  0  0  0  0  0  0  0  0  0  0  0
  -11.5030    6.0487    1.6287 H   0  0  0  0  0  0  0  0  0  0  0  0
  -12.6665    5.9410    0.2644 H   0  0  0  0  0  0  0  0  0  0  0  0
  -11.1857    4.9241    0.2644 H   0  0  0  0  0  0  0  0  0  0  0  0
   -9.8456    8.0720    1.4320 H   0  0  0  0  0  0  0  0  0  0  0  0
   -9.2219    6.3693    1.0486 H   0  0  0  0  0  0  0  0  0  0  0  0
   -8.5490    8.9516   -0.3889 H   0  0  0  0  0  0  0  0  0  0  0  0
   -7.4645    7.8927    0.5951 H   0  0  0  0  0  0  0  0  0  0  0  0
   -7.6136    5.6103    0.2525 H   0  0  0  0  0  0  0  0  0  0  0  0
   -8.3598    4.9211   -1.2290 H   0  0  0  0  0  0  0  0  0  0  0  0
   -6.6237    5.3822   -1.2290 H   0  0  0  0  0  0  0  0  0  0  0  0
  1  2  1  0
  2  3  1  0
  3  4  1  0
  4  5  1  0
  5  6  1  0
  6  7  1  0
  7  8  1  0
  7  9  1  0
  2 10  1  0
 10 11  1  0
 11 12  1  0
 12 13  1  0
 13 14  1  6
 13 15  1  0
 15 16  1  0
 16 17  1  0
 17 18  2  0
 18 19  1  0
 19 20  1  0
 20 21  1  0
 21 22  1  0
 22 23  1  0
 22 24  1  0
 24 25  1  0
 24 26  1  0
 19 27  1  0
 27 28  1  1
 27 29  1  0
 29 30  1  0
 30 31  1  0
 31 32  1  1
  7  5  1  0
 31 10  1  0
 31 13  1  0
 27 15  1  0
 24 18  1  0
  1 33  1  0
  1 34  1  0
  1 35  1  0
  2 36  1  6
  3 37  1  0
  3 38  1  0
  4 39  1  0
  4 40  1  0
  5 41  1  6
  8 42  1  0
  8 43  1  0
  8 44  1  0
  9 45  1  0
  9 46  1  0
  9 47  1  0
 10 48  1  6
 11 49  1  0
 11 50  1  0
 12 51  1  0
 12 52  1  0
 14 53  1  0
 14 54  1  0
 14 55  1  0
 15 56  1  1
 16 57  1  0
 16 58  1  0
 17 59  1  0
 19 60  1  6
 20 61  1  0
 20 62  1  0
 21 63  1  0
 21 64  1  0
 22 65  1  6
 23 66  1  0
 25 67  1  0
 25 68  1  0
 25 69  1  0
 26 70  1  0
 26 71  1  0
 26 72  1  0
 28 73  1  0
 28 74  1  0
 28 75  1  0
 29 76  1  0
 29 77  1  0
 30 78  1  0
 30 79  1  0
 32 80  1  0
 32 81  1  0
 32 82  1  0
M  END
>  <meeko>  (19) 
{"is_sidechain": [false], "intermolecular_energy": 2.731, "internal_energy": -0.839}

$$$$
