EPH_relaxed_0001_pdb2pqr_Repair_47_r2_0001_out
     RDKit          3D

 82 86  0  0  0  0  0  0  0  0999 V2000
   -1.5960    8.5670   -1.8130 C   0  0  0  0  0  0  0  0  0  0  0  0
   -2.0100    9.1520   -0.4600 C   0  0  2  0  0  0  0  0  0  0  0  0
   -3.4990    9.5540   -0.4320 C   0  0  0  0  0  0  0  0  0  0  0  0
   -4.4550    8.3660   -0.2950 C   0  0  0  0  0  0  0  0  0  0  0  0
   -5.0740    7.9990   -1.6100 C   0  0  2  0  0  0  0  0  0  0  0  0
   -6.3360    8.6280   -1.8730 O   0  0  0  0  0  0  0  0  0  0  0  0
   -6.3570    7.1980   -1.7360 C   0  0  0  0  0  0  0  0  0  0  0  0
   -7.0960    6.7140   -0.5280 C   0  0  0  0  0  0  0  0  0  0  0  0
   -6.6240    6.4730   -3.0180 C   0  0  0  0  0  0  0  0  0  0  0  0
   -1.1390   10.3560   -0.1260 C   0  0  1  0  0  0  0  0  0  0  0  0
   -0.0680   10.0390    0.9520 C   0  0  0  0  0  0  0  0  0  0  0  0
    1.1900   10.8700    0.5910 C   0  0  0  0  0  0  0  0  0  0  0  0
    0.6980   11.8800   -0.4730 C   0  0  1  0  0  0  0  0  0  0  0  0
    0.0200   13.0250    0.3430 C   0  0  0  0  0  0  0  0  0  0  0  0
    1.7830   12.4330   -1.4530 C   0  0  2  0  0  0  0  0  0  0  0  0
    2.9110   13.2420   -0.7880 C   0  0  0  0  0  0  0  0  0  0  0  0
    2.6640   14.7100   -0.6790 C   0  0  0  0  0  0  0  0  0  0  0  0
    1.7160   15.3960   -1.3450 C   0  0  0  0  0  0  0  0  0  0  0  0
    0.8330   14.7040   -2.3920 C   0  0  1  0  0  0  0  0  0  0  0  0
    0.7600   15.5820   -3.6690 C   0  0  0  0  0  0  0  0  0  0  0  0
    0.3060   17.0080   -3.3730 C   0  0  0  0  0  0  0  0  0  0  0  0
    1.2420   17.6820   -2.3730 C   0  0  2  0  0  0  0  0  0  0  0  0
    2.5230   17.8580   -2.9870 O   0  0  0  0  0  0  0  0  0  0  0  0
    1.4020   16.8830   -1.0490 C   0  0  0  0  0  0  0  0  0  0  0  0
    0.0840   16.9500   -0.2380 C   0  0  0  0  0  0  0  0  0  0  0  0
    2.4790   17.5970   -0.1880 C   0  0  0  0  0  0  0  0  0  0  0  0
    1.1940   13.1900   -2.7120 C   0  0  1  0  0  0  0  0  0  0  0  0
    2.2870   13.1270   -3.8210 C   0  0  0  0  0  0  0  0  0  0  0  0
   -0.0780   12.4720   -3.3000 C   0  0  0  0  0  0  0  0  0  0  0  0
   -1.0510   11.8400   -2.2860 C   0  0  0  0  0  0  0  0  0  0  0  0
   -0.3000   10.9680   -1.2760 C   0  0  2  0  0  0  0  0  0  0  0  0
    0.3740    9.7940   -2.0650 C   0  0  0  0  0  0  0  0  0  0  0  0
   -0.9674    7.6788   -1.6516 H   0  0  0  0  0  0  0  0  0  0  0  0
   -2.4947    8.2821   -2.3797 H   0  0  0  0  0  0  0  0  0  0  0  0
   -1.0284    9.3198   -2.3797 H   0  0  0  0  0  0  0  0  0  0  0  0
   -1.8658    8.3677    0.2976 H   0  0  0  0  0  0  0  0  0  0  0  0
   -3.6603   10.2296    0.4209 H   0  0  0  0  0  0  0  0  0  0  0  0
   -3.7202   10.0350   -1.3962 H   0  0  0  0  0  0  0  0  0  0  0  0
   -3.8955    7.5006    0.0897 H   0  0  0  0  0  0  0  0  0  0  0  0
   -5.2615    8.6523    0.3960 H   0  0  0  0  0  0  0  0  0  0  0  0
   -4.0825    7.8814   -2.0716 H   0  0  0  0  0  0  0  0  0  0  0  0
   -6.5768    7.0541    0.3801 H   0  0  0  0  0  0  0  0  0  0  0  0
   -8.1193    7.1174   -0.5381 H   0  0  0  0  0  0  0  0  0  0  0  0
   -7.1351    5.6147   -0.5381 H   0  0  0  0  0  0  0  0  0  0  0  0
   -6.9964    5.4619   -2.7967 H   0  0  0  0  0  0  0  0  0  0  0  0
   -7.3787    7.0225   -3.5997 H   0  0  0  0  0  0  0  0  0  0  0  0
   -5.6931    6.4018   -3.5997 H   0  0  0  0  0  0  0  0  0  0  0  0
   -1.9186   11.0649    0.1896 H   0  0  0  0  0  0  0  0  0  0  0  0
   -0.4373   10.3242    1.9481 H   0  0  0  0  0  0  0  0  0  0  0  0
    0.1625    8.9637    0.9754 H   0  0  0  0  0  0  0  0  0  0  0  0
    1.5754   11.3960    1.4769 H   0  0  0  0  0  0  0  0  0  0  0  0
    2.0132   10.2414    0.2205 H   0  0  0  0  0  0  0  0  0  0  0  0
    0.1370   12.8275    1.4188 H   0  0  0  0  0  0  0  0  0  0  0  0
    0.4954   13.9848    0.0926 H   0  0  0  0  0  0  0  0  0  0  0  0
   -1.0502   13.0696    0.0926 H   0  0  0  0  0  0  0  0  0  0  0  0
    2.2552   11.5123   -1.8262 H   0  0  0  0  0  0  0  0  0  0  0  0
    3.0601   12.8461    0.2274 H   0  0  0  0  0  0  0  0  0  0  0  0
    3.7908   13.1290   -1.4386 H   0  0  0  0  0  0  0  0  0  0  0  0
    3.3116   15.2799    0.0035 H   0  0  0  0  0  0  0  0  0  0  0  0
   -0.1660   14.6193   -1.9395 H   0  0  0  0  0  0  0  0  0  0  0  0
    1.7582   15.6182   -4.1296 H   0  0  0  0  0  0  0  0  0  0  0  0
    0.0190   15.1289   -4.3440 H   0  0  0  0  0  0  0  0  0  0  0  0
    0.3023   17.5862   -4.3088 H   0  0  0  0  0  0  0  0  0  0  0  0
   -0.7042   16.9720   -2.9392 H   0  0  0  0  0  0  0  0  0  0  0  0
    0.7947   18.6500   -2.1028 H   0  0  0  0  0  0  0  0  0  0  0  0
    2.6570   17.1190   -3.6040 H   0  0  0  0  0  0  0  0  0  0  0  0
    0.3143   16.9383    0.8376 H   0  0  0  0  0  0  0  0  0  0  0  0
   -0.4535   17.8766   -0.4878 H   0  0  0  0  0  0  0  0  0  0  0  0
   -0.5447   16.0827   -0.4878 H   0  0  0  0  0  0  0  0  0  0  0  0
    2.2540   17.4478    0.8784 H   0  0  0  0  0  0  0  0  0  0  0  0
    3.4693   17.1759   -0.4162 H   0  0  0  0  0  0  0  0  0  0  0  0
    2.4767   18.6731   -0.4162 H   0  0  0  0  0  0  0  0  0  0  0  0
    3.2810   13.0697   -3.3533 H   0  0  0  0  0  0  0  0  0  0  0  0
    2.1241   12.2368   -4.4462 H   0  0  0  0  0  0  0  0  0  0  0  0
    2.2274   14.0301   -4.4462 H   0  0  0  0  0  0  0  0  0  0  0  0
   -0.6411   13.2166   -3.8817 H   0  0  0  0  0  0  0  0  0  0  0  0
    0.3138   11.6281   -3.8869 H   0  0  0  0  0  0  0  0  0  0  0  0
   -1.5795   12.6404   -1.7475 H   0  0  0  0  0  0  0  0  0  0  0  0
   -1.7653   11.2071   -2.8330 H   0  0  0  0  0  0  0  0  0  0  0  0
    0.7917    9.0664   -1.3536 H   0  0  0  0  0  0  0  0  0  0  0  0
   -0.3772    9.2985   -2.6976 H   0  0  0  0  0  0  0  0  0  0  0  0
    1.1806   10.1929   -2.6976 H   0  0  0  0  0  0  0  0  0  0  0  0
  1  2  1  0
  2  3  1  0
  3  4  1  0
  4  5  1  0
  5  6  1  0
  6  7  1  0
  7  8  1  0
  7  9  1  0
  2 10  1  0
 10 11  1  0
 11 12  1  0
 12 13  1  0
 13 14  1  1
 13 15  1  0
 15 16  1  0
 16 17  1  0
 17 18  2  0
 18 19  1  0
 19 20  1  0
 20 21  1  0
 21 22  1  0
 22 23  1  0
 22 24  1  0
 24 25  1  0
 24 26  1  0
 19 27  1  0
 27 28  1  6
 27 29  1  0
 29 30  1  0
 30 31  1  0
 31 32  1  6
  7  5  1  0
 31 10  1  0
 31 13  1  0
 27 15  1  0
 24 18  1  0
  1 33  1  0
  1 34  1  0
  1 35  1  0
  2 36  1  1
  3 37  1  0
  3 38  1  0
  4 39  1  0
  4 40  1  0
  5 41  1  6
  8 42  1  0
  8 43  1  0
  8 44  1  0
  9 45  1  0
  9 46  1  0
  9 47  1  0
 10 48  1  1
 11 49  1  0
 11 50  1  0
 12 51  1  0
 12 52  1  0
 14 53  1  0
 14 54  1  0
 14 55  1  0
 15 56  1  6
 16 57  1  0
 16 58  1  0
 17 59  1  0
 19 60  1  1
 20 61  1  0
 20 62  1  0
 21 63  1  0
 21 64  1  0
 22 65  1  1
 23 66  1  0
 25 67  1  0
 25 68  1  0
 25 69  1  0
 26 70  1  0
 26 71  1  0
 26 72  1  0
 28 73  1  0
 28 74  1  0
 28 75  1  0
 29 76  1  0
 29 77  1  0
 30 78  1  0
 30 79  1  0
 32 80  1  0
 32 81  1  0
 32 82  1  0
M  END
>  <meeko>  (1) 
{"is_sidechain": [false], "intermolecular_energy": 2.731, "internal_energy": -0.839}

$$$$
EPH_relaxed_0001_pdb2pqr_Repair_47_r2_0001_out
     RDKit          3D

 82 86  0  0  0  0  0  0  0  0999 V2000
   -4.5160    5.8870   -2.5960 C   0  0  0  0  0  0  0  0  0  0  0  0
   -5.0430    7.2840   -2.2580 C   0  0  2  0  0  0  0  0  0  0  0  0
   -4.8460    7.6360   -0.7700 C   0  0  0  0  0  0  0  0  0  0  0  0
   -3.9070    8.8220   -0.5370 C   0  0  0  0  0  0  0  0  0  0  0  0
   -2.5290    8.5500   -1.0590 C   0  0  2  0  0  0  0  0  0  0  0  0
   -1.4710    8.8410   -0.1360 O   0  0  0  0  0  0  0  0  0  0  0  0
   -1.5070    9.6380   -1.3310 C   0  0  0  0  0  0  0  0  0  0  0  0
   -1.8210   11.0810   -1.0920 C   0  0  0  0  0  0  0  0  0  0  0  0
   -0.3890    9.3470   -2.2840 C   0  0  0  0  0  0  0  0  0  0  0  0
   -6.5190    7.3860   -2.6260 C   0  0  1  0  0  0  0  0  0  0  0  0
   -6.8630    6.6230   -3.9330 C   0  0  0  0  0  0  0  0  0  0  0  0
   -8.2890    6.0430   -3.7500 C   0  0  0  0  0  0  0  0  0  0  0  0
   -8.8440    6.7600   -2.4970 C   0  0  1  0  0  0  0  0  0  0  0  0
   -9.3390    8.1470   -3.0160 C   0  0  0  0  0  0  0  0  0  0  0  0
   -9.9640    6.0060   -1.7080 C   0  0  2  0  0  0  0  0  0  0  0  0
  -11.2620    5.7560   -2.4960 C   0  0  0  0  0  0  0  0  0  0  0  0
  -12.2940    6.8290   -2.3820 C   0  0  0  0  0  0  0  0  0  0  0  0
  -12.3060    7.8070   -1.4570 C   0  0  0  0  0  0  0  0  0  0  0  0
  -11.2600    7.8440   -0.3360 C   0  0  1  0  0  0  0  0  0  0  0  0
  -11.9640    8.1100    1.0210 C   0  0  0  0  0  0  0  0  0  0  0  0
  -12.8340    9.3620    0.9930 C   0  0  0  0  0  0  0  0  0  0  0  0
  -13.8990    9.2630   -0.0960 C   0  0  2  0  0  0  0  0  0  0  0  0
  -14.8190    8.2230    0.2520 O   0  0  0  0  0  0  0  0  0  0  0  0
  -13.3080    8.9860   -1.5070 C   0  0  0  0  0  0  0  0  0  0  0  0
  -12.5560   10.2430   -2.0110 C   0  0  0  0  0  0  0  0  0  0  0  0
  -14.4930    8.7680   -2.4860 C   0  0  0  0  0  0  0  0  0  0  0  0
  -10.2640    6.6070   -0.2750 C   0  0  1  0  0  0  0  0  0  0  0  0
  -10.8960    5.4560    0.5660 C   0  0  0  0  0  0  0  0  0  0  0  0
   -8.9520    7.0390    0.4790 C   0  0  0  0  0  0  0  0  0  0  0  0
   -7.8350    7.6690   -0.3750 C   0  0  0  0  0  0  0  0  0  0  0  0
   -7.5450    6.8170   -1.6140 C   0  0  2  0  0  0  0  0  0  0  0  0
   -7.0240    5.4230   -1.1240 C   0  0  0  0  0  0  0  0  0  0  0  0
   -4.3090    5.3382   -1.6655 H   0  0  0  0  0  0  0  0  0  0  0  0
   -5.2705    5.3425   -3.1827 H   0  0  0  0  0  0  0  0  0  0  0  0
   -3.5898    5.9765   -3.1827 H   0  0  0  0  0  0  0  0  0  0  0  0
   -4.4613    8.0078   -2.8477 H   0  0  0  0  0  0  0  0  0  0  0  0
   -5.8277    7.8803   -0.3381 H   0  0  0  0  0  0  0  0  0  0  0  0
   -4.3828    6.7606   -0.2914 H   0  0  0  0  0  0  0  0  0  0  0  0
   -4.3146    9.7054   -1.0504 H   0  0  0  0  0  0  0  0  0  0  0  0
   -3.8348    8.9939    0.5471 H   0  0  0  0  0  0  0  0  0  0  0  0
   -2.9009    7.7170   -1.6737 H   0  0  0  0  0  0  0  0  0  0  0  0
   -1.8627   11.2728   -0.0097 H   0  0  0  0  0  0  0  0  0  0  0  0
   -1.0380   11.7066   -1.5453 H   0  0  0  0  0  0  0  0  0  0  0  0
   -2.7932   11.3247   -1.5453 H   0  0  0  0  0  0  0  0  0  0  0  0
    0.5234    9.1095   -1.7173 H   0  0  0  0  0  0  0  0  0  0  0  0
   -0.6608    8.4897   -2.9173 H   0  0  0  0  0  0  0  0  0  0  0  0
   -0.2084   10.2281   -2.9173 H   0  0  0  0  0  0  0  0  0  0  0  0
   -6.6186    8.4797   -2.6879 H   0  0  0  0  0  0  0  0  0  0  0  0
   -6.8413    7.3116   -4.7905 H   0  0  0  0  0  0  0  0  0  0  0  0
   -6.1332    5.8232   -4.1273 H   0  0  0  0  0  0  0  0  0  0  0  0
   -8.9125    6.2603   -4.6298 H   0  0  0  0  0  0  0  0  0  0  0  0
   -8.2829    4.9489   -3.6361 H   0  0  0  0  0  0  0  0  0  0  0  0
   -9.5711    8.7974   -2.1597 H   0  0  0  0  0  0  0  0  0  0  0  0
   -8.5514    8.6123   -3.6269 H   0  0  0  0  0  0  0  0  0  0  0  0
  -10.2432    8.0085   -3.6269 H   0  0  0  0  0  0  0  0  0  0  0  0
   -9.5148    5.0143   -1.5504 H   0  0  0  0  0  0  0  0  0  0  0  0
  -10.9991    5.6487   -3.5587 H   0  0  0  0  0  0  0  0  0  0  0  0
  -11.7132    4.8523   -2.0604 H   0  0  0  0  0  0  0  0  0  0  0  0
  -13.1135    6.8196   -3.1157 H   0  0  0  0  0  0  0  0  0  0  0  0
  -10.5861    8.6794   -0.5769 H   0  0  0  0  0  0  0  0  0  0  0  0
  -12.5985    7.2451    1.2645 H   0  0  0  0  0  0  0  0  0  0  0  0
  -11.1814    8.2641    1.7785 H   0  0  0  0  0  0  0  0  0  0  0  0
  -13.3273    9.4793    1.9692 H   0  0  0  0  0  0  0  0  0  0  0  0
  -12.1929   10.2299    0.7788 H   0  0  0  0  0  0  0  0  0  0  0  0
  -14.4044   10.2384   -0.1528 H   0  0  0  0  0  0  0  0  0  0  0  0
  -15.7170    8.5700    0.1210 H   0  0  0  0  0  0  0  0  0  0  0  0
  -12.2048   10.8301   -1.1496 H   0  0  0  0  0  0  0  0  0  0  0  0
  -11.6939    9.9347   -2.6206 H   0  0  0  0  0  0  0  0  0  0  0  0
  -13.2354   10.8569   -2.6206 H   0  0  0  0  0  0  0  0  0  0  0  0
  -15.4161    8.5982   -1.9123 H   0  0  0  0  0  0  0  0  0  0  0  0
  -14.6138    9.6590   -3.1197 H   0  0  0  0  0  0  0  0  0  0  0  0
  -14.2888    7.8924   -3.1197 H   0  0  0  0  0  0  0  0  0  0  0  0
  -10.7754    5.6756    1.6371 H   0  0  0  0  0  0  0  0  0  0  0  0
  -11.9665    5.3725    0.3271 H   0  0  0  0  0  0  0  0  0  0  0  0
  -10.3919    4.5079    0.3271 H   0  0  0  0  0  0  0  0  0  0  0  0
   -9.2364    7.7722    1.2482 H   0  0  0  0  0  0  0  0  0  0  0  0
   -8.5233    6.1041    0.8691 H   0  0  0  0  0  0  0  0  0  0  0  0
   -8.1497    8.6734   -0.6947 H   0  0  0  0  0  0  0  0  0  0  0  0
   -6.9198    7.7271    0.2325 H   0  0  0  0  0  0  0  0  0  0  0  0
   -7.0156    5.4006   -0.0243 H   0  0  0  0  0  0  0  0  0  0  0  0
   -7.6866    4.6304   -1.5019 H   0  0  0  0  0  0  0  0  0  0  0  0
   -6.0040    5.2593   -1.5019 H   0  0  0  0  0  0  0  0  0  0  0  0
  1  2  1  0
  2  3  1  0
  3  4  1  0
  4  5  1  0
  5  6  1  0
  6  7  1  0
  7  8  1  0
  7  9  1  0
  2 10  1  0
 10 11  1  0
 11 12  1  0
 12 13  1  0
 13 14  1  6
 13 15  1  0
 15 16  1  0
 16 17  1  0
 17 18  2  0
 18 19  1  0
 19 20  1  0
 20 21  1  0
 21 22  1  0
 22 23  1  0
 22 24  1  0
 24 25  1  0
 24 26  1  0
 19 27  1  0
 27 28  1  1
 27 29  1  0
 29 30  1  0
 30 31  1  0
 31 32  1  1
  7  5  1  0
 31 10  1  0
 31 13  1  0
 27 15  1  0
 24 18  1  0
  1 33  1  0
  1 34  1  0
  1 35  1  0
  2 36  1  6
  3 37  1  0
  3 38  1  0
  4 39  1  0
  4 40  1  0
  5 41  1  6
  8 42  1  0
  8 43  1  0
  8 44  1  0
  9 45  1  0
  9 46  1  0
  9 47  1  0
 10 48  1  6
 11 49  1  0
 11 50  1  0
 12 51  1  0
 12 52  1  0
 14 53  1  0
 14 54  1  0
 14 55  1  0
 15 56  1  1
 16 57  1  0
 16 58  1  0
 17 59  1  0
 19 60  1  6
 20 61  1  0
 20 62  1  0
 21 63  1  0
 21 64  1  0
 22 65  1  6
 23 66  1  0
 25 67  1  0
 25 68  1  0
 25 69  1  0
 26 70  1  0
 26 71  1  0
 26 72  1  0
 28 73  1  0
 28 74  1  0
 28 75  1  0
 29 76  1  0
 29 77  1  0
 30 78  1  0
 30 79  1  0
 32 80  1  0
 32 81  1  0
 32 82  1  0
M  END
>  <meeko>  (2) 
{"is_sidechain": [false], "intermolecular_energy": 2.731, "internal_energy": -0.839}

$$$$
EPH_relaxed_0001_pdb2pqr_Repair_47_r2_0001_out
     RDKit          3D

 82 86  0  0  0  0  0  0  0  0999 V2000
    4.1590   17.5330   -0.0470 C   0  0  0  0  0  0  0  0  0  0  0  0
    2.7520   18.1310   -0.1360 C   0  0  2  0  0  0  0  0  0  0  0  0
    2.4510   19.0850    1.0370 C   0  0  0  0  0  0  0  0  0  0  0  0
    3.6780   19.8500    1.5390 C   0  0  0  0  0  0  0  0  0  0  0  0
    4.2020   19.2780    2.8220 C   0  0  2  0  0  0  0  0  0  0  0  0
    4.9640   20.1940    3.6190 O   0  0  0  0  0  0  0  0  0  0  0  0
    5.6780   19.0600    3.0990 C   0  0  0  0  0  0  0  0  0  0  0  0
    6.7230   19.4100    2.0870 C   0  0  0  0  0  0  0  0  0  0  0  0
    6.0690   18.0630    4.1450 C   0  0  0  0  0  0  0  0  0  0  0  0
    1.7150   17.0160   -0.1800 C   0  0  1  0  0  0  0  0  0  0  0  0
    0.3040   17.5270   -0.5740 C   0  0  0  0  0  0  0  0  0  0  0  0
   -0.3610   16.4050   -1.4130 C   0  0  0  0  0  0  0  0  0  0  0  0
    0.5430   15.1690   -1.1960 C   0  0  1  0  0  0  0  0  0  0  0  0
    0.0950   14.5800    0.1780 C   0  0  0  0  0  0  0  0  0  0  0  0
    0.5160   14.0870   -2.3240 C   0  0  2  0  0  0  0  0  0  0  0  0
   -0.8480   13.4100   -2.5470 C   0  0  0  0  0  0  0  0  0  0  0  0
   -1.0860   12.1750   -1.7430 C   0  0  0  0  0  0  0  0  0  0  0  0
   -0.1410   11.4700   -1.0940 C   0  0  0  0  0  0  0  0  0  0  0  0
    1.3420   11.8460   -1.2110 C   0  0  1  0  0  0  0  0  0  0  0  0
    2.1810   10.5680   -1.4760 C   0  0  0  0  0  0  0  0  0  0  0  0
    1.9350    9.4810   -0.4340 C   0  0  0  0  0  0  0  0  0  0  0  0
    0.4600    9.0930   -0.3880 C   0  0  2  0  0  0  0  0  0  0  0  0
    0.1110    8.4590   -1.6220 O   0  0  0  0  0  0  0  0  0  0  0  0
   -0.4840   10.3020   -0.1370 C   0  0  0  0  0  0  0  0  0  0  0  0
   -0.3150   10.8020    1.3200 C   0  0  0  0  0  0  0  0  0  0  0  0
   -1.9480    9.7980   -0.2550 C   0  0  0  0  0  0  0  0  0  0  0  0
    1.6810   13.0200   -2.2280 C   0  0  1  0  0  0  0  0  0  0  0  0
    1.8750   12.4420   -3.6630 C   0  0  0  0  0  0  0  0  0  0  0  0
    3.0560   13.6710   -1.8210 C   0  0  0  0  0  0  0  0  0  0  0  0
    3.0050   14.8160   -0.7910 C   0  0  0  0  0  0  0  0  0  0  0  0
    1.9550   15.8600   -1.1840 C   0  0  2  0  0  0  0  0  0  0  0  0
    2.3910   16.4860   -2.5520 C   0  0  0  0  0  0  0  0  0  0  0  0
    4.4404   17.4134    1.0096 H   0  0  0  0  0  0  0  0  0  0  0  0
    4.1723   16.5514   -0.5434 H   0  0  0  0  0  0  0  0  0  0  0  0
    4.8749   18.2046   -0.5434 H   0  0  0  0  0  0  0  0  0  0  0  0
    2.7018   18.7216   -1.0626 H   0  0  0  0  0  0  0  0  0  0  0  0
    1.6980   19.8153    0.7061 H   0  0  0  0  0  0  0  0  0  0  0  0
    2.0953   18.4644    1.8727 H   0  0  0  0  0  0  0  0  0  0  0  0
    4.4683   19.7963    0.7758 H   0  0  0  0  0  0  0  0  0  0  0  0
    3.3796   20.8923    1.7251 H   0  0  0  0  0  0  0  0  0  0  0  0
    3.3288   18.6149    2.9106 H   0  0  0  0  0  0  0  0  0  0  0  0
    7.6442   19.7185    2.6029 H   0  0  0  0  0  0  0  0  0  0  0  0
    6.9318   18.5327    1.4571 H   0  0  0  0  0  0  0  0  0  0  0  0
    6.3613   20.2360    1.4571 H   0  0  0  0  0  0  0  0  0  0  0  0
    5.9002   18.4934    5.1431 H   0  0  0  0  0  0  0  0  0  0  0  0
    5.4609   17.1536    4.0302 H   0  0  0  0  0  0  0  0  0  0  0  0
    7.1332   17.8094    4.0302 H   0  0  0  0  0  0  0  0  0  0  0  0
    1.8022   16.6434    0.8513 H   0  0  0  0  0  0  0  0  0  0  0  0
   -0.2915   17.7283    0.3287 H   0  0  0  0  0  0  0  0  0  0  0  0
    0.3694   18.4630   -1.1481 H   0  0  0  0  0  0  0  0  0  0  0  0
   -1.3825   16.2067   -1.0562 H   0  0  0  0  0  0  0  0  0  0  0  0
   -0.4505   16.6754   -2.4755 H   0  0  0  0  0  0  0  0  0  0  0  0
    0.5425   15.1684    0.9926 H   0  0  0  0  0  0  0  0  0  0  0  0
   -1.0015   14.6220    0.2549 H   0  0  0  0  0  0  0  0  0  0  0  0
    0.4282   13.5345    0.2549 H   0  0  0  0  0  0  0  0  0  0  0  0
    0.7045   14.6852   -3.2276 H   0  0  0  0  0  0  0  0  0  0  0  0
   -1.6337   14.1370   -2.2939 H   0  0  0  0  0  0  0  0  0  0  0  0
   -0.8625   13.0946   -3.6007 H   0  0  0  0  0  0  0  0  0  0  0  0
   -2.1215   11.8102   -1.6752 H   0  0  0  0  0  0  0  0  0  0  0  0
    1.6228   12.2823   -0.2410 H   0  0  0  0  0  0  0  0  0  0  0  0
    1.9171   10.1721   -2.4678 H   0  0  0  0  0  0  0  0  0  0  0  0
    3.2433   10.8484   -1.4220 H   0  0  0  0  0  0  0  0  0  0  0  0
    2.5326    8.5940   -0.6912 H   0  0  0  0  0  0  0  0  0  0  0  0
    2.2269    9.8687    0.5532 H   0  0  0  0  0  0  0  0  0  0  0  0
    0.3259    8.4082    0.4623 H   0  0  0  0  0  0  0  0  0  0  0  0
    0.4650    9.0060   -2.3440 H   0  0  0  0  0  0  0  0  0  0  0  0
   -0.5872    9.9966    2.0180 H   0  0  0  0  0  0  0  0  0  0  0  0
    0.7320   11.0946    1.4881 H   0  0  0  0  0  0  0  0  0  0  0  0
   -0.9698   11.6698    1.4881 H   0  0  0  0  0  0  0  0  0  0  0  0
   -2.3682    9.6533    0.7512 H   0  0  0  0  0  0  0  0  0  0  0  0
   -2.5488   10.5410   -0.7999 H   0  0  0  0  0  0  0  0  0  0  0  0
   -1.9641    8.8426   -0.7999 H   0  0  0  0  0  0  0  0  0  0  0  0
    2.2243   11.4012   -3.5949 H   0  0  0  0  0  0  0  0  0  0  0  0
    0.9173   12.4727   -4.2032 H   0  0  0  0  0  0  0  0  0  0  0  0
    2.6202   13.0443   -4.2032 H   0  0  0  0  0  0  0  0  0  0  0  0
    3.6901   12.8753   -1.4029 H   0  0  0  0  0  0  0  0  0  0  0  0
    3.4410   14.1306   -2.7433 H   0  0  0  0  0  0  0  0  0  0  0  0
    2.7491   14.4017    0.1953 H   0  0  0  0  0  0  0  0  0  0  0  0
    3.9904   15.3039   -0.7595 H   0  0  0  0  0  0  0  0  0  0  0  0
    3.0107   17.3758   -2.3671 H   0  0  0  0  0  0  0  0  0  0  0  0
    2.9712   15.7476   -3.1248 H   0  0  0  0  0  0  0  0  0  0  0  0
    1.4972   16.7742   -3.1248 H   0  0  0  0  0  0  0  0  0  0  0  0
  1  2  1  0
  2  3  1  0
  3  4  1  0
  4  5  1  0
  5  6  1  0
  6  7  1  0
  7  8  1  0
  7  9  1  0
  2 10  1  0
 10 11  1  0
 11 12  1  0
 12 13  1  0
 13 14  1  1
 13 15  1  0
 15 16  1  0
 16 17  1  0
 17 18  2  0
 18 19  1  0
 19 20  1  0
 20 21  1  0
 21 22  1  0
 22 23  1  0
 22 24  1  0
 24 25  1  0
 24 26  1  0
 19 27  1  0
 27 28  1  6
 27 29  1  0
 29 30  1  0
 30 31  1  0
 31 32  1  6
  7  5  1  0
 31 10  1  0
 31 13  1  0
 27 15  1  0
 24 18  1  0
  1 33  1  0
  1 34  1  0
  1 35  1  0
  2 36  1  6
  3 37  1  0
  3 38  1  0
  4 39  1  0
  4 40  1  0
  5 41  1  1
  8 42  1  0
  8 43  1  0
  8 44  1  0
  9 45  1  0
  9 46  1  0
  9 47  1  0
 10 48  1  1
 11 49  1  0
 11 50  1  0
 12 51  1  0
 12 52  1  0
 14 53  1  0
 14 54  1  0
 14 55  1  0
 15 56  1  6
 16 57  1  0
 16 58  1  0
 17 59  1  0
 19 60  1  1
 20 61  1  0
 20 62  1  0
 21 63  1  0
 21 64  1  0
 22 65  1  1
 23 66  1  0
 25 67  1  0
 25 68  1  0
 25 69  1  0
 26 70  1  0
 26 71  1  0
 26 72  1  0
 28 73  1  0
 28 74  1  0
 28 75  1  0
 29 76  1  0
 29 77  1  0
 30 78  1  0
 30 79  1  0
 32 80  1  0
 32 81  1  0
 32 82  1  0
M  END
>  <meeko>  (3) 
{"is_sidechain": [false], "intermolecular_energy": 2.731, "internal_energy": -0.839}

$$$$
EPH_relaxed_0001_pdb2pqr_Repair_47_r2_0001_out
     RDKit          3D

 82 86  0  0  0  0  0  0  0  0999 V2000
    0.5970   18.4480    0.1090 C   0  0  0  0  0  0  0  0  0  0  0  0
    1.6560   17.3710   -0.1440 C   0  0  2  0  0  0  0  0  0  0  0  0
    2.8680   17.9190   -0.9230 C   0  0  0  0  0  0  0  0  0  0  0  0
    4.0900   18.1980   -0.0440 C   0  0  0  0  0  0  0  0  0  0  0  0
    3.6930   18.6410    1.3320 C   0  0  2  0  0  0  0  0  0  0  0  0
    3.9260   20.0290    1.6050 O   0  0  0  0  0  0  0  0  0  0  0  0
    4.6880   19.0930    2.3840 C   0  0  0  0  0  0  0  0  0  0  0  0
    6.1580   19.1240    2.1060 C   0  0  0  0  0  0  0  0  0  0  0  0
    4.2820   19.0360    3.8240 C   0  0  0  0  0  0  0  0  0  0  0  0
    1.0370   16.2010   -0.9000 C   0  0  1  0  0  0  0  0  0  0  0  0
    0.8250   16.5080   -2.4070 C   0  0  0  0  0  0  0  0  0  0  0  0
    1.0700   15.1820   -3.1720 C   0  0  0  0  0  0  0  0  0  0  0  0
    1.0850   14.0940   -2.0730 C   0  0  1  0  0  0  0  0  0  0  0  0
   -0.4200   13.7960   -1.7830 C   0  0  0  0  0  0  0  0  0  0  0  0
    1.8790   12.7890   -2.4030 C   0  0  2  0  0  0  0  0  0  0  0  0
    1.3400   11.9830   -3.5980 C   0  0  0  0  0  0  0  0  0  0  0  0
    0.3230   10.9440   -3.2600 C   0  0  0  0  0  0  0  0  0  0  0  0
    0.0670   10.4720   -2.0260 C   0  0  0  0  0  0  0  0  0  0  0  0
    0.9060   10.9190   -0.8220 C   0  0  1  0  0  0  0  0  0  0  0  0
    1.3050    9.6790    0.0200 C   0  0  0  0  0  0  0  0  0  0  0  0
    0.1010    8.8370    0.4290 C   0  0  0  0  0  0  0  0  0  0  0  0
   -0.6750    8.3630   -0.7980 C   0  0  2  0  0  0  0  0  0  0  0  0
    0.1410    7.4450   -1.5330 O   0  0  0  0  0  0  0  0  0  0  0  0
   -1.1220    9.5260   -1.7270 C   0  0  0  0  0  0  0  0  0  0  0  0
   -2.2360   10.3480   -1.0330 C   0  0  0  0  0  0  0  0  0  0  0  0
   -1.7680    8.9030   -2.9940 C   0  0  0  0  0  0  0  0  0  0  0  0
    2.1450   11.8580   -1.1510 C   0  0  1  0  0  0  0  0  0  0  0  0
    3.3930   10.9900   -1.5000 C   0  0  0  0  0  0  0  0  0  0  0  0
    2.5230   12.6810    0.1370 C   0  0  0  0  0  0  0  0  0  0  0  0
    1.7900   14.0200    0.3450 C   0  0  0  0  0  0  0  0  0  0  0  0
    1.8310   14.8710   -0.9270 C   0  0  2  0  0  0  0  0  0  0  0  0
    3.3310   15.2060   -1.2320 C   0  0  0  0  0  0  0  0  0  0  0  0
    0.4636   18.5837    1.1924 H   0  0  0  0  0  0  0  0  0  0  0  0
    0.9238   19.3966   -0.3418 H   0  0  0  0  0  0  0  0  0  0  0  0
   -0.3570   18.1372   -0.3418 H   0  0  0  0  0  0  0  0  0  0  0  0
    2.0209   17.0297    0.8360 H   0  0  0  0  0  0  0  0  0  0  0  0
    3.1517   17.1811   -1.6878 H   0  0  0  0  0  0  0  0  0  0  0  0
    2.5607   18.8803   -1.3606 H   0  0  0  0  0  0  0  0  0  0  0  0
    4.6889   17.2788    0.0362 H   0  0  0  0  0  0  0  0  0  0  0  0
    4.6709   19.0071   -0.5107 H   0  0  0  0  0  0  0  0  0  0  0  0
    2.8740   17.9072    1.3577 H   0  0  0  0  0  0  0  0  0  0  0  0
    6.7108   19.1357    3.0569 H   0  0  0  0  0  0  0  0  0  0  0  0
    6.4408   18.2316    1.5284 H   0  0  0  0  0  0  0  0  0  0  0  0
    6.4030   20.0275    1.5284 H   0  0  0  0  0  0  0  0  0  0  0  0
    5.1703   19.1607    4.4606 H   0  0  0  0  0  0  0  0  0  0  0  0
    3.5638   19.8421    4.0347 H   0  0  0  0  0  0  0  0  0  0  0  0
    3.8136   18.0633    4.0347 H   0  0  0  0  0  0  0  0  0  0  0  0
    0.1122   16.0747   -0.3180 H   0  0  0  0  0  0  0  0  0  0  0  0
   -0.2021   16.8615   -2.5808 H   0  0  0  0  0  0  0  0  0  0  0  0
    1.5125   17.2951   -2.7504 H   0  0  0  0  0  0  0  0  0  0  0  0
    0.2606   14.9945   -3.8929 H   0  0  0  0  0  0  0  0  0  0  0  0
    2.0045   15.2018   -3.7519 H   0  0  0  0  0  0  0  0  0  0  0  0
   -0.5845   13.7634   -0.6959 H   0  0  0  0  0  0  0  0  0  0  0  0
   -1.0424   14.5884   -2.2244 H   0  0  0  0  0  0  0  0  0  0  0  0
   -0.6935   12.8263   -2.2244 H   0  0  0  0  0  0  0  0  0  0  0  0
    2.8559   13.1810   -2.7224 H   0  0  0  0  0  0  0  0  0  0  0  0
    0.8817   12.6897   -4.3055 H   0  0  0  0  0  0  0  0  0  0  0  0
    2.2024   11.4408   -4.0130 H   0  0  0  0  0  0  0  0  0  0  0  0
   -0.2674   10.5288   -4.0901 H   0  0  0  0  0  0  0  0  0  0  0  0
    0.2579   11.5802   -0.2281 H   0  0  0  0  0  0  0  0  0  0  0  0
    1.9868    9.0535   -0.5749 H   0  0  0  0  0  0  0  0  0  0  0  0
    1.7866   10.0415    0.9401 H   0  0  0  0  0  0  0  0  0  0  0  0
    0.4500    7.9607    0.9950 H   0  0  0  0  0  0  0  0  0  0  0  0
   -0.5653    9.4547    1.0491 H   0  0  0  0  0  0  0  0  0  0  0  0
   -1.5948    7.8775   -0.4399 H   0  0  0  0  0  0  0  0  0  0  0  0
    0.0360    7.6500   -2.4770 H   0  0  0  0  0  0  0  0  0  0  0  0
   -2.1258   10.2667    0.0584 H   0  0  0  0  0  0  0  0  0  0  0  0
   -2.1535   11.4033   -1.3322 H   0  0  0  0  0  0  0  0  0  0  0  0
   -3.2200    9.9579   -1.3322 H   0  0  0  0  0  0  0  0  0  0  0  0
   -2.5297    8.1684   -2.6937 H   0  0  0  0  0  0  0  0  0  0  0  0
   -2.2394    9.6961   -3.5929 H   0  0  0  0  0  0  0  0  0  0  0  0
   -0.9925    8.4031   -3.5929 H   0  0  0  0  0  0  0  0  0  0  0  0
    3.8769   10.6534   -0.5712 H   0  0  0  0  0  0  0  0  0  0  0  0
    3.0783   10.1149   -2.0874 H   0  0  0  0  0  0  0  0  0  0  0  0
    4.1040   11.5895   -2.0874 H   0  0  0  0  0  0  0  0  0  0  0  0
    2.3124   12.0470    1.0109 H   0  0  0  0  0  0  0  0  0  0  0  0
    3.5818   12.9494    0.0070 H   0  0  0  0  0  0  0  0  0  0  0  0
    0.7414   13.8188    0.6096 H   0  0  0  0  0  0  0  0  0  0  0  0
    2.2920   14.5726    1.1528 H   0  0  0  0  0  0  0  0  0  0  0  0
    3.8790   15.3284   -0.2861 H   0  0  0  0  0  0  0  0  0  0  0  0
    3.7793   14.3858   -1.8120 H   0  0  0  0  0  0  0  0  0  0  0  0
    3.3877   16.1389   -1.8120 H   0  0  0  0  0  0  0  0  0  0  0  0
  1  2  1  0
  2  3  1  0
  3  4  1  0
  4  5  1  0
  5  6  1  0
  6  7  1  0
  7  8  1  0
  7  9  1  0
  2 10  1  0
 10 11  1  0
 11 12  1  0
 12 13  1  0
 13 14  1  1
 13 15  1  0
 15 16  1  0
 16 17  1  0
 17 18  2  0
 18 19  1  0
 19 20  1  0
 20 21  1  0
 21 22  1  0
 22 23  1  0
 22 24  1  0
 24 25  1  0
 24 26  1  0
 19 27  1  0
 27 28  1  6
 27 29  1  0
 29 30  1  0
 30 31  1  0
 31 32  1  6
  7  5  1  0
 31 10  1  0
 31 13  1  0
 27 15  1  0
 24 18  1  0
  1 33  1  0
  1 34  1  0
  1 35  1  0
  2 36  1  1
  3 37  1  0
  3 38  1  0
  4 39  1  0
  4 40  1  0
  5 41  1  1
  8 42  1  0
  8 43  1  0
  8 44  1  0
  9 45  1  0
  9 46  1  0
  9 47  1  0
 10 48  1  1
 11 49  1  0
 11 50  1  0
 12 51  1  0
 12 52  1  0
 14 53  1  0
 14 54  1  0
 14 55  1  0
 15 56  1  6
 16 57  1  0
 16 58  1  0
 17 59  1  0
 19 60  1  1
 20 61  1  0
 20 62  1  0
 21 63  1  0
 21 64  1  0
 22 65  1  1
 23 66  1  0
 25 67  1  0
 25 68  1  0
 25 69  1  0
 26 70  1  0
 26 71  1  0
 26 72  1  0
 28 73  1  0
 28 74  1  0
 28 75  1  0
 29 76  1  0
 29 77  1  0
 30 78  1  0
 30 79  1  0
 32 80  1  0
 32 81  1  0
 32 82  1  0
M  END
>  <meeko>  (4) 
{"is_sidechain": [false], "intermolecular_energy": 2.731, "internal_energy": -0.839}

$$$$
EPH_relaxed_0001_pdb2pqr_Repair_47_r2_0001_out
     RDKit          3D

 82 86  0  0  0  0  0  0  0  0999 V2000
    2.4620   17.9760   -2.6980 C   0  0  0  0  0  0  0  0  0  0  0  0
    1.1800   17.5980   -1.9490 C   0  0  2  0  0  0  0  0  0  0  0  0
    1.3690   17.6360   -0.4190 C   0  0  0  0  0  0  0  0  0  0  0  0
    1.0690   19.0020    0.2040 C   0  0  0  0  0  0  0  0  0  0  0  0
   -0.3720   19.1270    0.5970 C   0  0  2  0  0  0  0  0  0  0  0  0
   -1.2610   18.2420   -0.0970 O   0  0  0  0  0  0  0  0  0  0  0  0
   -1.4510   19.6460   -0.3350 C   0  0  0  0  0  0  0  0  0  0  0  0
   -1.1350   20.0740   -1.7340 C   0  0  0  0  0  0  0  0  0  0  0  0
   -2.7100   20.1940    0.2620 C   0  0  0  0  0  0  0  0  0  0  0  0
    0.7150   16.2130   -2.3830 C   0  0  1  0  0  0  0  0  0  0  0  0
    0.7950   16.0090   -3.9190 C   0  0  0  0  0  0  0  0  0  0  0  0
    1.1790   14.5260   -4.1550 C   0  0  0  0  0  0  0  0  0  0  0  0
    0.9830   13.8490   -2.7780 C   0  0  1  0  0  0  0  0  0  0  0  0
   -0.5490   13.5680   -2.6830 C   0  0  0  0  0  0  0  0  0  0  0  0
    1.8240   12.5570   -2.5170 C   0  0  2  0  0  0  0  0  0  0  0  0
    1.5220   11.3810   -3.4620 C   0  0  0  0  0  0  0  0  0  0  0  0
    0.4580   10.4440   -2.9940 C   0  0  0  0  0  0  0  0  0  0  0  0
   -0.0290   10.3760   -1.7410 C   0  0  0  0  0  0  0  0  0  0  0  0
    0.5670   11.2340   -0.6170 C   0  0  1  0  0  0  0  0  0  0  0  0
    0.7970   10.3540    0.6390 C   0  0  0  0  0  0  0  0  0  0  0  0
   -0.4640    9.6150    1.0750 C   0  0  0  0  0  0  0  0  0  0  0  0
   -0.9930    8.7280   -0.0490 C   0  0  2  0  0  0  0  0  0  0  0  0
   -0.0530    7.6760   -0.2870 O   0  0  0  0  0  0  0  0  0  0  0  0
   -1.2540    9.5040   -1.3700 C   0  0  0  0  0  0  0  0  0  0  0  0
   -2.4780   10.4360   -1.1940 C   0  0  0  0  0  0  0  0  0  0  0  0
   -1.6480    8.4710   -2.4610 C   0  0  0  0  0  0  0  0  0  0  0  0
    1.8470   12.0920   -1.0050 C   0  0  1  0  0  0  0  0  0  0  0  0
    3.1370   11.2360   -0.8210 C   0  0  0  0  0  0  0  0  0  0  0  0
    1.9730   13.3050   -0.0080 C   0  0  0  0  0  0  0  0  0  0  0  0
    1.2160   14.5930   -0.3820 C   0  0  0  0  0  0  0  0  0  0  0  0
    1.4990   14.9950   -1.8330 C   0  0  2  0  0  0  0  0  0  0  0  0
    3.0300   15.3050   -1.9530 C   0  0  0  0  0  0  0  0  0  0  0  0
    3.2551   18.2098   -1.9725 H   0  0  0  0  0  0  0  0  0  0  0  0
    2.7797   17.1333   -3.3296 H   0  0  0  0  0  0  0  0  0  0  0  0
    2.2717   18.8562   -3.3296 H   0  0  0  0  0  0  0  0  0  0  0  0
    0.4137   18.3446   -2.2050 H   0  0  0  0  0  0  0  0  0  0  0  0
    0.6956   16.8927    0.0328 H   0  0  0  0  0  0  0  0  0  0  0  0
    2.4286   17.4175   -0.2203 H   0  0  0  0  0  0  0  0  0  0  0  0
    1.6952   19.1310    1.0991 H   0  0  0  0  0  0  0  0  0  0  0  0
    1.2887   19.7767   -0.5454 H   0  0  0  0  0  0  0  0  0  0  0  0
   -0.0924   19.3982    1.6257 H   0  0  0  0  0  0  0  0  0  0  0  0
   -0.4818   20.9587   -1.7081 H   0  0  0  0  0  0  0  0  0  0  0  0
   -0.6229   19.2555   -2.2610 H   0  0  0  0  0  0  0  0  0  0  0  0
   -2.0680   20.3224   -2.2610 H   0  0  0  0  0  0  0  0  0  0  0  0
   -2.6392   20.1632    1.3593 H   0  0  0  0  0  0  0  0  0  0  0  0
   -2.8494   21.2342   -0.0673 H   0  0  0  0  0  0  0  0  0  0  0  0
   -3.5663   19.5872   -0.0673 H   0  0  0  0  0  0  0  0  0  0  0  0
   -0.3042   16.2234   -1.9692 H   0  0  0  0  0  0  0  0  0  0  0  0
   -0.1794   16.2259   -4.3810 H   0  0  0  0  0  0  0  0  0  0  0  0
    1.5372   16.6850   -4.3686 H   0  0  0  0  0  0  0  0  0  0  0  0
    0.5211   14.0697   -4.9093 H   0  0  0  0  0  0  0  0  0  0  0  0
    2.2065   14.4158   -4.5319 H   0  0  0  0  0  0  0  0  0  0  0  0
   -0.8469   13.5134   -1.6255 H   0  0  0  0  0  0  0  0  0  0  0  0
   -1.1021   14.3797   -3.1783 H   0  0  0  0  0  0  0  0  0  0  0  0
   -0.7780   12.6129   -3.1783 H   0  0  0  0  0  0  0  0  0  0  0  0
    2.8441   12.8858   -2.7645 H   0  0  0  0  0  0  0  0  0  0  0  0
    1.2075   11.7957   -4.4311 H   0  0  0  0  0  0  0  0  0  0  0  0
    2.4472   10.7885   -3.5159 H   0  0  0  0  0  0  0  0  0  0  0  0
    0.0362    9.7503   -3.7362 H   0  0  0  0  0  0  0  0  0  0  0  0
   -0.1809   12.0099   -0.3965 H   0  0  0  0  0  0  0  0  0  0  0  0
    1.5788    9.6140    0.4126 H   0  0  0  0  0  0  0  0  0  0  0  0
    1.0953   11.0194    1.4625 H   0  0  0  0  0  0  0  0  0  0  0  0
   -0.2302    8.9883    1.9483 H   0  0  0  0  0  0  0  0  0  0  0  0
   -1.2354   10.3569    1.3292 H   0  0  0  0  0  0  0  0  0  0  0  0
   -1.9642    8.3269    0.2764 H   0  0  0  0  0  0  0  0  0  0  0  0
   -0.2140    7.3340   -1.1830 H   0  0  0  0  0  0  0  0  0  0  0  0
   -2.6740   10.5853   -0.1220 H   0  0  0  0  0  0  0  0  0  0  0  0
   -2.2706   11.4070   -1.6675 H   0  0  0  0  0  0  0  0  0  0  0  0
   -3.3588    9.9778   -1.6675 H   0  0  0  0  0  0  0  0  0  0  0  0
   -2.0006    7.5465   -1.9804 H   0  0  0  0  0  0  0  0  0  0  0  0
   -2.4504    8.8875   -3.0876 H   0  0  0  0  0  0  0  0  0  0  0  0
   -0.7720    8.2474   -3.0876 H   0  0  0  0  0  0  0  0  0  0  0  0
    3.3384   11.1024    0.2521 H   0  0  0  0  0  0  0  0  0  0  0  0
    2.9948   10.2525   -1.2926 H   0  0  0  0  0  0  0  0  0  0  0  0
    3.9880   11.7492   -1.2926 H   0  0  0  0  0  0  0  0  0  0  0  0
    1.5985   12.9713    0.9710 H   0  0  0  0  0  0  0  0  0  0  0  0
    3.0375   13.5817   -0.0246 H   0  0  0  0  0  0  0  0  0  0  0  0
    0.1360   14.4237   -0.2598 H   0  0  0  0  0  0  0  0  0  0  0  0
    1.5564   15.4038    0.2789 H   0  0  0  0  0  0  0  0  0  0  0  0
    3.4662   15.3933   -0.9470 H   0  0  0  0  0  0  0  0  0  0  0  0
    3.5276   14.4894   -2.4981 H   0  0  0  0  0  0  0  0  0  0  0  0
    3.1712   16.2500   -2.4981 H   0  0  0  0  0  0  0  0  0  0  0  0
  1  2  1  0
  2  3  1  0
  3  4  1  0
  4  5  1  0
  5  6  1  0
  6  7  1  0
  7  8  1  0
  7  9  1  0
  2 10  1  0
 10 11  1  0
 11 12  1  0
 12 13  1  0
 13 14  1  1
 13 15  1  0
 15 16  1  0
 16 17  1  0
 17 18  2  0
 18 19  1  0
 19 20  1  0
 20 21  1  0
 21 22  1  0
 22 23  1  0
 22 24  1  0
 24 25  1  0
 24 26  1  0
 19 27  1  0
 27 28  1  6
 27 29  1  0
 29 30  1  0
 30 31  1  0
 31 32  1  1
  7  5  1  0
 31 10  1  0
 31 13  1  0
 27 15  1  0
 24 18  1  0
  1 33  1  0
  1 34  1  0
  1 35  1  0
  2 36  1  1
  3 37  1  0
  3 38  1  0
  4 39  1  0
  4 40  1  0
  5 41  1  1
  8 42  1  0
  8 43  1  0
  8 44  1  0
  9 45  1  0
  9 46  1  0
  9 47  1  0
 10 48  1  1
 11 49  1  0
 11 50  1  0
 12 51  1  0
 12 52  1  0
 14 53  1  0
 14 54  1  0
 14 55  1  0
 15 56  1  6
 16 57  1  0
 16 58  1  0
 17 59  1  0
 19 60  1  1
 20 61  1  0
 20 62  1  0
 21 63  1  0
 21 64  1  0
 22 65  1  1
 23 66  1  0
 25 67  1  0
 25 68  1  0
 25 69  1  0
 26 70  1  0
 26 71  1  0
 26 72  1  0
 28 73  1  0
 28 74  1  0
 28 75  1  0
 29 76  1  0
 29 77  1  0
 30 78  1  0
 30 79  1  0
 32 80  1  0
 32 81  1  0
 32 82  1  0
M  END
>  <meeko>  (5) 
{"is_sidechain": [false], "intermolecular_energy": 2.731, "internal_energy": -0.839}

$$$$
EPH_relaxed_0001_pdb2pqr_Repair_47_r2_0001_out
     RDKit          3D

 82 86  0  0  0  0  0  0  0  0999 V2000
    3.8350   17.7290    0.5710 C   0  0  0  0  0  0  0  0  0  0  0  0
    2.7870   18.1240   -0.4740 C   0  0  2  0  0  0  0  0  0  0  0  0
    2.1030   19.4630   -0.1320 C   0  0  0  0  0  0  0  0  0  0  0  0
    0.9960   19.3390    0.9190 C   0  0  0  0  0  0  0  0  0  0  0  0
   -0.2640   20.0200    0.4790 C   0  0  2  0  0  0  0  0  0  0  0  0
   -1.2440   20.1900    1.5120 O   0  0  0  0  0  0  0  0  0  0  0  0
   -1.6140   19.3280    0.4240 C   0  0  0  0  0  0  0  0  0  0  0  0
   -1.7700   17.8910    0.8130 C   0  0  0  0  0  0  0  0  0  0  0  0
   -2.6750   19.8980   -0.4640 C   0  0  0  0  0  0  0  0  0  0  0  0
    1.7410   17.0230   -0.6030 C   0  0  1  0  0  0  0  0  0  0  0  0
    0.4670   17.4940   -1.3540 C   0  0  0  0  0  0  0  0  0  0  0  0
   -0.0450   16.2800   -2.1710 C   0  0  0  0  0  0  0  0  0  0  0  0
    0.7440   15.0730   -1.6110 C   0  0  1  0  0  0  0  0  0  0  0  0
   -0.0110   14.6720   -0.3040 C   0  0  0  0  0  0  0  0  0  0  0  0
    0.9170   13.8530   -2.5740 C   0  0  2  0  0  0  0  0  0  0  0  0
   -0.3930   13.1690   -3.0020 C   0  0  0  0  0  0  0  0  0  0  0  0
   -0.8450   12.0500   -2.1220 C   0  0  0  0  0  0  0  0  0  0  0  0
   -0.0880   11.4260   -1.2000 C   0  0  0  0  0  0  0  0  0  0  0  0
    1.3980   11.7680   -1.0380 C   0  0  1  0  0  0  0  0  0  0  0  0
    2.2250   10.4580   -0.9530 C   0  0  0  0  0  0  0  0  0  0  0  0
    1.7200    9.5180    0.1380 C   0  0  0  0  0  0  0  0  0  0  0  0
    0.2550    9.1550   -0.0900 C   0  0  2  0  0  0  0  0  0  0  0  0
    0.1550    8.3690   -1.2820 O   0  0  0  0  0  0  0  0  0  0  0  0
   -0.6730   10.3960   -0.2020 C   0  0  0  0  0  0  0  0  0  0  0  0
   -0.8000   11.0780    1.1820 C   0  0  0  0  0  0  0  0  0  0  0  0
   -2.0960    9.8960   -0.5720 C   0  0  0  0  0  0  0  0  0  0  0  0
    1.9920   12.7960   -2.0950 C   0  0  1  0  0  0  0  0  0  0  0  0
    2.4670   12.0350   -3.3700 C   0  0  0  0  0  0  0  0  0  0  0  0
    3.2720   13.4800   -1.4830 C   0  0  0  0  0  0  0  0  0  0  0  0
    3.0460   14.7490   -0.6400 C   0  0  0  0  0  0  0  0  0  0  0  0
    2.1460   15.7450   -1.3780 C   0  0  2  0  0  0  0  0  0  0  0  0
    2.8880   16.1820   -2.6860 C   0  0  0  0  0  0  0  0  0  0  0  0
    3.4238   17.8840    1.5794 H   0  0  0  0  0  0  0  0  0  0  0  0
    4.1001   16.6692    0.4420 H   0  0  0  0  0  0  0  0  0  0  0  0
    4.7337   18.3501    0.4420 H   0  0  0  0  0  0  0  0  0  0  0  0
    3.3089   18.2550   -1.4334 H   0  0  0  0  0  0  0  0  0  0  0  0
    2.8675   20.1559    0.2492 H   0  0  0  0  0  0  0  0  0  0  0  0
    1.6294   19.8268   -1.0558 H   0  0  0  0  0  0  0  0  0  0  0  0
    0.7843   18.2732    1.0899 H   0  0  0  0  0  0  0  0  0  0  0  0
    1.3439   19.8245    1.8427 H   0  0  0  0  0  0  0  0  0  0  0  0
    0.2890   20.6184   -0.2600 H   0  0  0  0  0  0  0  0  0  0  0  0
   -1.7791   17.8069    1.9097 H   0  0  0  0  0  0  0  0  0  0  0  0
   -2.7157   17.5020    0.4076 H   0  0  0  0  0  0  0  0  0  0  0  0
   -0.9299   17.3081    0.4076 H   0  0  0  0  0  0  0  0  0  0  0  0
   -3.4771   20.3289    0.1532 H   0  0  0  0  0  0  0  0  0  0  0  0
   -2.2389   20.6832   -1.0990 H   0  0  0  0  0  0  0  0  0  0  0  0
   -3.0890   19.1008   -1.0990 H   0  0  0  0  0  0  0  0  0  0  0  0
    1.5909   16.7859    0.4606 H   0  0  0  0  0  0  0  0  0  0  0  0
   -0.2996   17.8166   -0.6341 H   0  0  0  0  0  0  0  0  0  0  0  0
    0.6890   18.3474   -2.0116 H   0  0  0  0  0  0  0  0  0  0  0  0
   -1.1259   16.1400   -2.0227 H   0  0  0  0  0  0  0  0  0  0  0  0
    0.1054   16.4115   -3.2527 H   0  0  0  0  0  0  0  0  0  0  0  0
    0.5783   14.9850    0.5705 H   0  0  0  0  0  0  0  0  0  0  0  0
   -0.9928   15.1675   -0.2810 H   0  0  0  0  0  0  0  0  0  0  0  0
   -0.1502   13.5811   -0.2810 H   0  0  0  0  0  0  0  0  0  0  0  0
    1.3180   14.3252   -3.4830 H   0  0  0  0  0  0  0  0  0  0  0  0
   -1.1857   13.9315   -3.0166 H   0  0  0  0  0  0  0  0  0  0  0  0
   -0.1949   12.7209   -3.9869 H   0  0  0  0  0  0  0  0  0  0  0  0
   -1.8838   11.7069   -2.2369 H   0  0  0  0  0  0  0  0  0  0  0  0
    1.4804   12.3238   -0.0923 H   0  0  0  0  0  0  0  0  0  0  0  0
    2.1648    9.9394   -1.9212 H   0  0  0  0  0  0  0  0  0  0  0  0
    3.2610   10.7322   -0.7048 H   0  0  0  0  0  0  0  0  0  0  0  0
    2.3242    8.5988    0.1293 H   0  0  0  0  0  0  0  0  0  0  0  0
    1.8086   10.0273    1.1090 H   0  0  0  0  0  0  0  0  0  0  0  0
   -0.0854    8.5879    0.7890 H   0  0  0  0  0  0  0  0  0  0  0  0
   -0.6970    7.9010   -1.2550 H   0  0  0  0  0  0  0  0  0  0  0  0
   -0.6603   10.3281    1.9745 H   0  0  0  0  0  0  0  0  0  0  0  0
   -0.0320   11.8597    1.2774 H   0  0  0  0  0  0  0  0  0  0  0  0
   -1.7979   11.5308    1.2774 H   0  0  0  0  0  0  0  0  0  0  0  0
   -2.6651    9.6960    0.3479 H   0  0  0  0  0  0  0  0  0  0  0  0
   -2.6132   10.6663   -1.1630 H   0  0  0  0  0  0  0  0  0  0  0  0
   -2.0177    8.9715   -1.1630 H   0  0  0  0  0  0  0  0  0  0  0  0
    3.0278   11.1365   -3.0731 H   0  0  0  0  0  0  0  0  0  0  0  0
    1.5923   11.7402   -3.9683 H   0  0  0  0  0  0  0  0  0  0  0  0
    3.1161   12.6913   -3.9683 H   0  0  0  0  0  0  0  0  0  0  0  0
    3.7706   12.7387   -0.8412 H   0  0  0  0  0  0  0  0  0  0  0  0
    3.8628   13.8118   -2.3495 H   0  0  0  0  0  0  0  0  0  0  0  0
    2.5689   14.4690    0.3108 H   0  0  0  0  0  0  0  0  0  0  0  0
    4.0201   15.2260   -0.4565 H   0  0  0  0  0  0  0  0  0  0  0  0
    3.8081   16.7239   -2.4220 H   0  0  0  0  0  0  0  0  0  0  0  0
    3.1443   15.2906   -3.2774 H   0  0  0  0  0  0  0  0  0  0  0  0
    2.2327   16.8384   -3.2774 H   0  0  0  0  0  0  0  0  0  0  0  0
  1  2  1  0
  2  3  1  0
  3  4  1  0
  4  5  1  0
  5  6  1  0
  6  7  1  0
  7  8  1  0
  7  9  1  0
  2 10  1  0
 10 11  1  0
 11 12  1  0
 12 13  1  0
 13 14  1  1
 13 15  1  0
 15 16  1  0
 16 17  1  0
 17 18  2  0
 18 19  1  0
 19 20  1  0
 20 21  1  0
 21 22  1  0
 22 23  1  0
 22 24  1  0
 24 25  1  0
 24 26  1  0
 19 27  1  0
 27 28  1  6
 27 29  1  0
 29 30  1  0
 30 31  1  0
 31 32  1  6
  7  5  1  0
 31 10  1  0
 31 13  1  0
 27 15  1  0
 24 18  1  0
  1 33  1  0
  1 34  1  0
  1 35  1  0
  2 36  1  6
  3 37  1  0
  3 38  1  0
  4 39  1  0
  4 40  1  0
  5 41  1  6
  8 42  1  0
  8 43  1  0
  8 44  1  0
  9 45  1  0
  9 46  1  0
  9 47  1  0
 10 48  1  1
 11 49  1  0
 11 50  1  0
 12 51  1  0
 12 52  1  0
 14 53  1  0
 14 54  1  0
 14 55  1  0
 15 56  1  6
 16 57  1  0
 16 58  1  0
 17 59  1  0
 19 60  1  1
 20 61  1  0
 20 62  1  0
 21 63  1  0
 21 64  1  0
 22 65  1  1
 23 66  1  0
 25 67  1  0
 25 68  1  0
 25 69  1  0
 26 70  1  0
 26 71  1  0
 26 72  1  0
 28 73  1  0
 28 74  1  0
 28 75  1  0
 29 76  1  0
 29 77  1  0
 30 78  1  0
 30 79  1  0
 32 80  1  0
 32 81  1  0
 32 82  1  0
M  END
>  <meeko>  (6) 
{"is_sidechain": [false], "intermolecular_energy": 2.731, "internal_energy": -0.839}

$$$$
EPH_relaxed_0001_pdb2pqr_Repair_47_r2_0001_out
     RDKit          3D

 82 86  0  0  0  0  0  0  0  0999 V2000
   -0.5760   10.0410   -2.6030 C   0  0  0  0  0  0  0  0  0  0  0  0
   -0.8500   10.1190   -1.0990 C   0  0  2  0  0  0  0  0  0  0  0  0
   -2.3540   10.0160   -0.7770 C   0  0  0  0  0  0  0  0  0  0  0  0
   -2.8860    8.5800   -0.7700 C   0  0  0  0  0  0  0  0  0  0  0  0
   -4.3790    8.5420   -0.6420 C   0  0  2  0  0  0  0  0  0  0  0  0
   -4.9050    7.3080   -0.1370 O   0  0  0  0  0  0  0  0  0  0  0  0
   -5.2680    7.6480   -1.4850 C   0  0  0  0  0  0  0  0  0  0  0  0
   -4.6950    6.7300   -2.5190 C   0  0  0  0  0  0  0  0  0  0  0  0
   -6.7090    8.0190   -1.6460 C   0  0  0  0  0  0  0  0  0  0  0  0
   -0.2840   11.4160   -0.5340 C   0  0  1  0  0  0  0  0  0  0  0  0
    0.8930   11.1760    0.4500 C   0  0  0  0  0  0  0  0  0  0  0  0
    1.8840   12.3520    0.2560 C   0  0  0  0  0  0  0  0  0  0  0  0
    1.0990   13.3910   -0.5780 C   0  0  1  0  0  0  0  0  0  0  0  0
    0.2090   14.1470    0.4570 C   0  0  0  0  0  0  0  0  0  0  0  0
    1.9560   14.3800   -1.4330 C   0  0  2  0  0  0  0  0  0  0  0  0
    2.8870   15.3030   -0.6270 C   0  0  0  0  0  0  0  0  0  0  0  0
    2.2930   16.6100   -0.2200 C   0  0  0  0  0  0  0  0  0  0  0  0
    1.1690   17.1500   -0.7280 C   0  0  0  0  0  0  0  0  0  0  0  0
    0.4240   16.4750   -1.8860 C   0  0  1  0  0  0  0  0  0  0  0  0
    0.0640   17.5360   -2.9590 C   0  0  0  0  0  0  0  0  0  0  0  0
   -0.7090   18.7170   -2.3770 C   0  0  0  0  0  0  0  0  0  0  0  0
    0.0890   19.3970   -1.2680 C   0  0  2  0  0  0  0  0  0  0  0  0
    1.2490   20.0070   -1.8420 O   0  0  0  0  0  0  0  0  0  0  0  0
    0.5170   18.4240   -0.1350 C   0  0  0  0  0  0  0  0  0  0  0  0
   -0.7280   17.9970    0.6820 C   0  0  0  0  0  0  0  0  0  0  0  0
    1.4320   19.2050    0.8460 C   0  0  0  0  0  0  0  0  0  0  0  0
    1.1270   15.1930   -2.5090 C   0  0  1  0  0  0  0  0  0  0  0  0
    2.1370   15.6240   -3.6160 C   0  0  0  0  0  0  0  0  0  0  0  0
    0.0400   14.3050   -3.2220 C   0  0  0  0  0  0  0  0  0  0  0  0
   -0.6880   13.2640   -2.3490 C   0  0  0  0  0  0  0  0  0  0  0  0
    0.3110   12.4310   -1.5420 C   0  0  2  0  0  0  0  0  0  0  0  0
    1.2070   11.6420   -2.5570 C   0  0  0  0  0  0  0  0  0  0  0  0
    0.4697    9.7433   -2.7702 H   0  0  0  0  0  0  0  0  0  0  0  0
   -1.2463    9.2980   -3.0598 H   0  0  0  0  0  0  0  0  0  0  0  0
   -0.7545   11.0256   -3.0598 H   0  0  0  0  0  0  0  0  0  0  0  0
   -0.3517    9.2595   -0.6269 H   0  0  0  0  0  0  0  0  0  0  0  0
   -2.5271   10.4552    0.2166 H   0  0  0  0  0  0  0  0  0  0  0  0
   -2.8903   10.5532   -1.5731 H   0  0  0  0  0  0  0  0  0  0  0  0
   -2.5963    8.0880   -1.7102 H   0  0  0  0  0  0  0  0  0  0  0  0
   -2.4543    8.0588    0.0972 H   0  0  0  0  0  0  0  0  0  0  0  0
   -4.4114    9.6196   -0.4235 H   0  0  0  0  0  0  0  0  0  0  0  0
   -4.1753    5.8973   -2.0225 H   0  0  0  0  0  0  0  0  0  0  0  0
   -5.5062    6.3334   -3.1472 H   0  0  0  0  0  0  0  0  0  0  0  0
   -3.9824    7.2846   -3.1472 H   0  0  0  0  0  0  0  0  0  0  0  0
   -7.1701    8.1377   -0.6544 H   0  0  0  0  0  0  0  0  0  0  0  0
   -6.7841    8.9658   -2.2010 H   0  0  0  0  0  0  0  0  0  0  0  0
   -7.2319    7.2262   -2.2010 H   0  0  0  0  0  0  0  0  0  0  0  0
   -1.1943   11.8302   -0.0760 H   0  0  0  0  0  0  0  0  0  0  0  0
    0.5234   11.1589    1.4859 H   0  0  0  0  0  0  0  0  0  0  0  0
    1.3820   10.2105    0.2533 H   0  0  0  0  0  0  0  0  0  0  0  0
    2.1781   12.7761    1.2274 H   0  0  0  0  0  0  0  0  0  0  0  0
    2.8138   12.0362   -0.2397 H   0  0  0  0  0  0  0  0  0  0  0  0
    0.5241   13.8793    1.4763 H   0  0  0  0  0  0  0  0  0  0  0  0
    0.3192   15.2318    0.3121 H   0  0  0  0  0  0  0  0  0  0  0  0
   -0.8437   13.8628    0.3121 H   0  0  0  0  0  0  0  0  0  0  0  0
    2.6180   13.6985   -1.9873 H   0  0  0  0  0  0  0  0  0  0  0  0
    3.1890   14.7681    0.2855 H   0  0  0  0  0  0  0  0  0  0  0  0
    3.7272   15.5454   -1.2943 H   0  0  0  0  0  0  0  0  0  0  0  0
    2.8175   17.1803    0.5608 H   0  0  0  0  0  0  0  0  0  0  0  0
   -0.4956   16.0556   -1.4520 H   0  0  0  0  0  0  0  0  0  0  0  0
    0.9944   17.9112   -3.4102 H   0  0  0  0  0  0  0  0  0  0  0  0
   -0.5806   17.0502   -3.7064 H   0  0  0  0  0  0  0  0  0  0  0  0
   -0.9082   19.4460   -3.1763 H   0  0  0  0  0  0  0  0  0  0  0  0
   -1.6530   18.3443   -1.9528 H   0  0  0  0  0  0  0  0  0  0  0  0
   -0.5668   20.1485   -0.8040 H   0  0  0  0  0  0  0  0  0  0  0  0
    1.7820   20.3690   -1.1140 H   0  0  0  0  0  0  0  0  0  0  0  0
   -0.5053   18.0734    1.7565 H   0  0  0  0  0  0  0  0  0  0  0  0
   -1.5727   18.6568    0.4348 H   0  0  0  0  0  0  0  0  0  0  0  0
   -0.9900   16.9576    0.4348 H   0  0  0  0  0  0  0  0  0  0  0  0
    1.1496   18.9640    1.8815 H   0  0  0  0  0  0  0  0  0  0  0  0
    2.4805   18.9191    0.6759 H   0  0  0  0  0  0  0  0  0  0  0  0
    1.3143   20.2854    0.6759 H   0  0  0  0  0  0  0  0  0  0  0  0
    3.0517   16.0143   -3.1459 H   0  0  0  0  0  0  0  0  0  0  0  0
    2.3884   14.7548   -4.2415 H   0  0  0  0  0  0  0  0  0  0  0  0
    1.6834   16.4069   -4.2415 H   0  0  0  0  0  0  0  0  0  0  0  0
   -0.7213   14.9811   -3.6384 H   0  0  0  0  0  0  0  0  0  0  0  0
    0.5931   13.7177   -3.9698 H   0  0  0  0  0  0  0  0  0  0  0  0
   -1.3645   13.7855   -1.6559 H   0  0  0  0  0  0  0  0  0  0  0  0
   -1.2559   12.5899   -3.0071 H   0  0  0  0  0  0  0  0  0  0  0  0
    1.9208   11.0134   -2.0044 H   0  0  0  0  0  0  0  0  0  0  0  0
    0.5710   11.0053   -3.1896 H   0  0  0  0  0  0  0  0  0  0  0  0
    1.7581   12.3534   -3.1896 H   0  0  0  0  0  0  0  0  0  0  0  0
  1  2  1  0
  2  3  1  0
  3  4  1  0
  4  5  1  0
  5  6  1  0
  6  7  1  0
  7  8  1  0
  7  9  1  0
  2 10  1  0
 10 11  1  0
 11 12  1  0
 12 13  1  0
 13 14  1  1
 13 15  1  0
 15 16  1  0
 16 17  1  0
 17 18  2  0
 18 19  1  0
 19 20  1  0
 20 21  1  0
 21 22  1  0
 22 23  1  0
 22 24  1  0
 24 25  1  0
 24 26  1  0
 19 27  1  0
 27 28  1  6
 27 29  1  0
 29 30  1  0
 30 31  1  0
 31 32  1  6
  7  5  1  0
 31 10  1  0
 31 13  1  0
 27 15  1  0
 24 18  1  0
  1 33  1  0
  1 34  1  0
  1 35  1  0
  2 36  1  1
  3 37  1  0
  3 38  1  0
  4 39  1  0
  4 40  1  0
  5 41  1  1
  8 42  1  0
  8 43  1  0
  8 44  1  0
  9 45  1  0
  9 46  1  0
  9 47  1  0
 10 48  1  1
 11 49  1  0
 11 50  1  0
 12 51  1  0
 12 52  1  0
 14 53  1  0
 14 54  1  0
 14 55  1  0
 15 56  1  6
 16 57  1  0
 16 58  1  0
 17 59  1  0
 19 60  1  1
 20 61  1  0
 20 62  1  0
 21 63  1  0
 21 64  1  0
 22 65  1  1
 23 66  1  0
 25 67  1  0
 25 68  1  0
 25 69  1  0
 26 70  1  0
 26 71  1  0
 26 72  1  0
 28 73  1  0
 28 74  1  0
 28 75  1  0
 29 76  1  0
 29 77  1  0
 30 78  1  0
 30 79  1  0
 32 80  1  0
 32 81  1  0
 32 82  1  0
M  END
>  <meeko>  (7) 
{"is_sidechain": [false], "intermolecular_energy": 2.731, "internal_energy": -0.839}

$$$$
EPH_relaxed_0001_pdb2pqr_Repair_47_r2_0001_out
     RDKit          3D

 82 86  0  0  0  0  0  0  0  0999 V2000
   -0.2650   10.5390   -3.9870 C   0  0  0  0  0  0  0  0  0  0  0  0
    0.8830   10.3170   -2.9990 C   0  0  2  0  0  0  0  0  0  0  0  0
    0.7270    9.0000   -2.2130 C   0  0  0  0  0  0  0  0  0  0  0  0
    0.2580    9.1970   -0.7690 C   0  0  0  0  0  0  0  0  0  0  0  0
   -1.1630    8.7570   -0.5820 C   0  0  2  0  0  0  0  0  0  0  0  0
   -1.9710    8.8260   -1.7640 O   0  0  0  0  0  0  0  0  0  0  0  0
   -2.3500    9.6970   -0.6860 C   0  0  0  0  0  0  0  0  0  0  0  0
   -2.1690   11.1520   -0.9870 C   0  0  0  0  0  0  0  0  0  0  0  0
   -3.6310    9.3070   -0.0180 C   0  0  0  0  0  0  0  0  0  0  0  0
    0.9720   11.4930   -2.0330 C   0  0  1  0  0  0  0  0  0  0  0  0
    2.0390   11.2780   -0.9270 C   0  0  0  0  0  0  0  0  0  0  0  0
    2.6590   12.6670   -0.6260 C   0  0  0  0  0  0  0  0  0  0  0  0
    1.7110   13.6740   -1.3180 C   0  0  1  0  0  0  0  0  0  0  0  0
    0.5200   13.8510   -0.3250 C   0  0  0  0  0  0  0  0  0  0  0  0
    2.3370   15.0500   -1.7180 C   0  0  2  0  0  0  0  0  0  0  0  0
    2.8520   15.8990   -0.5430 C   0  0  0  0  0  0  0  0  0  0  0  0
    1.8570   16.8420    0.0470 C   0  0  0  0  0  0  0  0  0  0  0  0
    0.6940   17.2090   -0.5230 C   0  0  0  0  0  0  0  0  0  0  0  0
    0.3250   16.7370   -1.9350 C   0  0  1  0  0  0  0  0  0  0  0  0
   -0.1980   17.9390   -2.7640 C   0  0  0  0  0  0  0  0  0  0  0  0
   -1.3470   18.6690   -2.0740 C   0  0  0  0  0  0  0  0  0  0  0  0
   -0.9230   19.1740   -0.6970 C   0  0  2  0  0  0  0  0  0  0  0  0
    0.0680   20.1930   -0.8650 O   0  0  0  0  0  0  0  0  0  0  0  0
   -0.3690   18.0520    0.2240 C   0  0  0  0  0  0  0  0  0  0  0  0
   -1.5230   17.1110    0.6490 C   0  0  0  0  0  0  0  0  0  0  0  0
    0.1520   18.7160    1.5260 C   0  0  0  0  0  0  0  0  0  0  0  0
    1.4430   15.9070   -2.7030 C   0  0  1  0  0  0  0  0  0  0  0  0
    2.4080   16.8780   -3.4490 C   0  0  0  0  0  0  0  0  0  0  0  0
    0.7570   15.0240   -3.8110 C   0  0  0  0  0  0  0  0  0  0  0  0
    0.2670   13.6280   -3.3820 C   0  0  0  0  0  0  0  0  0  0  0  0
    1.3610   12.8710   -2.6230 C   0  0  2  0  0  0  0  0  0  0  0  0
    2.5640   12.6590   -3.6050 C   0  0  0  0  0  0  0  0  0  0  0  0
   -1.1972   10.7193   -3.4315 H   0  0  0  0  0  0  0  0  0  0  0  0
   -0.0409   11.4104   -4.6197 H   0  0  0  0  0  0  0  0  0  0  0  0
   -0.3819    9.6468   -4.6197 H   0  0  0  0  0  0  0  0  0  0  0  0
    1.8124   10.2442   -3.5829 H   0  0  0  0  0  0  0  0  0  0  0  0
   -0.0086    8.3696   -2.7341 H   0  0  0  0  0  0  0  0  0  0  0  0
    1.7220    8.5333   -2.1670 H   0  0  0  0  0  0  0  0  0  0  0  0
    0.9041    8.6085   -0.1010 H   0  0  0  0  0  0  0  0  0  0  0  0
    0.3186   10.2695   -0.5323 H   0  0  0  0  0  0  0  0  0  0  0  0
   -0.8622    8.0306    0.1873 H   0  0  0  0  0  0  0  0  0  0  0  0
   -2.0989   11.7154   -0.0448 H   0  0  0  0  0  0  0  0  0  0  0  0
   -1.2463   11.2941   -1.5687 H   0  0  0  0  0  0  0  0  0  0  0  0
   -3.0288   11.5158   -1.5687 H   0  0  0  0  0  0  0  0  0  0  0  0
   -3.5020    9.3463    1.0737 H   0  0  0  0  0  0  0  0  0  0  0  0
   -4.4279   10.0032   -0.3183 H   0  0  0  0  0  0  0  0  0  0  0  0
   -3.9047    8.2848   -0.3183 H   0  0  0  0  0  0  0  0  0  0  0  0
   -0.0683   11.5168   -1.6763 H   0  0  0  0  0  0  0  0  0  0  0  0
    1.5680   10.8692   -0.0209 H   0  0  0  0  0  0  0  0  0  0  0  0
    2.8094   10.5648   -1.2554 H   0  0  0  0  0  0  0  0  0  0  0  0
    2.6954   12.8496    0.4581 H   0  0  0  0  0  0  0  0  0  0  0  0
    3.6939   12.7501   -0.9894 H   0  0  0  0  0  0  0  0  0  0  0  0
    0.8929   13.7956    0.7084 H   0  0  0  0  0  0  0  0  0  0  0  0
    0.0459   14.8295   -0.4918 H   0  0  0  0  0  0  0  0  0  0  0  0
   -0.2182   13.0527   -0.4918 H   0  0  0  0  0  0  0  0  0  0  0  0
    3.2318   14.7470   -2.2815 H   0  0  0  0  0  0  0  0  0  0  0  0
    3.1837   15.2142    0.2514 H   0  0  0  0  0  0  0  0  0  0  0  0
    3.6594   16.5249   -0.9510 H   0  0  0  0  0  0  0  0  0  0  0  0
    2.0940   17.2736    1.0307 H   0  0  0  0  0  0  0  0  0  0  0  0
   -0.4771   15.9953   -1.8068 H   0  0  0  0  0  0  0  0  0  0  0  0
    0.6288   18.6481   -2.9176 H   0  0  0  0  0  0  0  0  0  0  0  0
   -0.5769   17.5466   -3.7192 H   0  0  0  0  0  0  0  0  0  0  0  0
   -1.6531   19.5252   -2.6930 H   0  0  0  0  0  0  0  0  0  0  0  0
   -2.1844   17.9669   -1.9483 H   0  0  0  0  0  0  0  0  0  0  0  0
   -1.8207   19.5709   -0.2005 H   0  0  0  0  0  0  0  0  0  0  0  0
    0.4190   20.1160   -1.7680 H   0  0  0  0  0  0  0  0  0  0  0  0
   -1.5757   17.0681    1.7469 H   0  0  0  0  0  0  0  0  0  0  0  0
   -2.4741   17.4943    0.2510 H   0  0  0  0  0  0  0  0  0  0  0  0
   -1.3390   16.1022    0.2510 H   0  0  0  0  0  0  0  0  0  0  0  0
   -0.2621   18.1883    2.3978 H   0  0  0  0  0  0  0  0  0  0  0  0
    1.2503   18.6608    1.5516 H   0  0  0  0  0  0  0  0  0  0  0  0
   -0.1629   19.7697    1.5516 H   0  0  0  0  0  0  0  0  0  0  0  0
    2.9848   17.4584   -2.7138 H   0  0  0  0  0  0  0  0  0  0  0  0
    3.0971   16.2973   -4.0798 H   0  0  0  0  0  0  0  0  0  0  0  0
    1.8230   17.5635   -4.0798 H   0  0  0  0  0  0  0  0  0  0  0  0
   -0.1134   15.5807   -4.1885 H   0  0  0  0  0  0  0  0  0  0  0  0
    1.5432   14.8363   -4.5571 H   0  0  0  0  0  0  0  0  0  0  0  0
   -0.6116   13.7400   -2.7296 H   0  0  0  0  0  0  0  0  0  0  0  0
    0.0067   13.0555   -4.2845 H   0  0  0  0  0  0  0  0  0  0  0  0
    3.4854   12.4966   -3.0264 H   0  0  0  0  0  0  0  0  0  0  0  0
    2.3696   11.7813   -4.2389 H   0  0  0  0  0  0  0  0  0  0  0  0
    2.6813   13.5503   -4.2389 H   0  0  0  0  0  0  0  0  0  0  0  0
  1  2  1  0
  2  3  1  0
  3  4  1  0
  4  5  1  0
  5  6  1  0
  6  7  1  0
  7  8  1  0
  7  9  1  0
  2 10  1  0
 10 11  1  0
 11 12  1  0
 12 13  1  0
 13 14  1  1
 13 15  1  0
 15 16  1  0
 16 17  1  0
 17 18  2  0
 18 19  1  0
 19 20  1  0
 20 21  1  0
 21 22  1  0
 22 23  1  0
 22 24  1  0
 24 25  1  0
 24 26  1  0
 19 27  1  0
 27 28  1  6
 27 29  1  0
 29 30  1  0
 30 31  1  0
 31 32  1  6
  7  5  1  0
 31 10  1  0
 31 13  1  0
 27 15  1  0
 24 18  1  0
  1 33  1  0
  1 34  1  0
  1 35  1  0
  2 36  1  6
  3 37  1  0
  3 38  1  0
  4 39  1  0
  4 40  1  0
  5 41  1  1
  8 42  1  0
  8 43  1  0
  8 44  1  0
  9 45  1  0
  9 46  1  0
  9 47  1  0
 10 48  1  1
 11 49  1  0
 11 50  1  0
 12 51  1  0
 12 52  1  0
 14 53  1  0
 14 54  1  0
 14 55  1  0
 15 56  1  6
 16 57  1  0
 16 58  1  0
 17 59  1  0
 19 60  1  1
 20 61  1  0
 20 62  1  0
 21 63  1  0
 21 64  1  0
 22 65  1  1
 23 66  1  0
 25 67  1  0
 25 68  1  0
 25 69  1  0
 26 70  1  0
 26 71  1  0
 26 72  1  0
 28 73  1  0
 28 74  1  0
 28 75  1  0
 29 76  1  0
 29 77  1  0
 30 78  1  0
 30 79  1  0
 32 80  1  0
 32 81  1  0
 32 82  1  0
M  END
>  <meeko>  (8) 
{"is_sidechain": [false], "intermolecular_energy": 2.731, "internal_energy": -0.839}

$$$$
EPH_relaxed_0001_pdb2pqr_Repair_47_r2_0001_out
     RDKit          3D

 82 86  0  0  0  0  0  0  0  0999 V2000
    0.3820    8.7990   -2.3670 C   0  0  0  0  0  0  0  0  0  0  0  0
    1.1270    9.9390   -3.0680 C   0  0  2  0  0  0  0  0  0  0  0  0
    2.6290    9.9510   -2.7190 C   0  0  0  0  0  0  0  0  0  0  0  0
    3.5110   10.5530   -3.8170 C   0  0  0  0  0  0  0  0  0  0  0  0
    4.9060   10.8060   -3.3310 C   0  0  2  0  0  0  0  0  0  0  0  0
    5.4970   12.0200   -3.8150 O   0  0  0  0  0  0  0  0  0  0  0  0
    6.1220   10.7970   -4.2380 C   0  0  0  0  0  0  0  0  0  0  0  0
    5.9990   10.5270   -5.7050 C   0  0  0  0  0  0  0  0  0  0  0  0
    7.4690   10.5660   -3.6270 C   0  0  0  0  0  0  0  0  0  0  0  0
    0.4960   11.2760   -2.6990 C   0  0  1  0  0  0  0  0  0  0  0  0
   -0.8790   11.1140   -1.9960 C   0  0  0  0  0  0  0  0  0  0  0  0
   -0.9840   12.2560   -0.9530 C   0  0  0  0  0  0  0  0  0  0  0  0
    0.1680   13.2220   -1.3130 C   0  0  1  0  0  0  0  0  0  0  0  0
   -0.3840   14.0810   -2.4940 C   0  0  0  0  0  0  0  0  0  0  0  0
    0.7080   14.1180   -0.1510 C   0  0  2  0  0  0  0  0  0  0  0  0
   -0.3160   15.1000    0.4450 C   0  0  0  0  0  0  0  0  0  0  0  0
   -0.3570   16.4470   -0.1980 C   0  0  0  0  0  0  0  0  0  0  0  0
    0.5830   16.9510   -1.0190 C   0  0  0  0  0  0  0  0  0  0  0  0
    1.8800   16.1800   -1.2980 C   0  0  1  0  0  0  0  0  0  0  0  0
    3.0910   17.1420   -1.1750 C   0  0  0  0  0  0  0  0  0  0  0  0
    2.9460   18.3790   -2.0560 C   0  0  0  0  0  0  0  0  0  0  0  0
    1.6760   19.1500   -1.7080 C   0  0  2  0  0  0  0  0  0  0  0  0
    1.8100   19.6910   -0.3900 O   0  0  0  0  0  0  0  0  0  0  0  0
    0.3900   18.2810   -1.7880 C   0  0  0  0  0  0  0  0  0  0  0  0
    0.0790   17.9460   -3.2680 C   0  0  0  0  0  0  0  0  0  0  0  0
   -0.7990   19.1390   -1.2780 C   0  0  0  0  0  0  0  0  0  0  0  0
    2.0800   14.8370   -0.4710 C   0  0  1  0  0  0  0  0  0  0  0  0
    2.7480   15.1530    0.9020 C   0  0  0  0  0  0  0  0  0  0  0  0
    3.0800   13.9000   -1.2470 C   0  0  0  0  0  0  0  0  0  0  0  0
    2.4710   12.9530   -2.2980 C   0  0  0  0  0  0  0  0  0  0  0  0
    1.2780   12.1860   -1.7200 C   0  0  2  0  0  0  0  0  0  0  0  0
    1.8070   11.2960   -0.5430 C   0  0  0  0  0  0  0  0  0  0  0  0
    0.4633    8.9234   -1.2771 H   0  0  0  0  0  0  0  0  0  0  0  0
   -0.6780    8.8188   -2.6602 H   0  0  0  0  0  0  0  0  0  0  0  0
    0.8257    7.8361   -2.6602 H   0  0  0  0  0  0  0  0  0  0  0  0
    1.0409    9.7740   -4.1521 H   0  0  0  0  0  0  0  0  0  0  0  0
    2.7675   10.5400   -1.8003 H   0  0  0  0  0  0  0  0  0  0  0  0
    2.9390    8.9028   -2.5960 H   0  0  0  0  0  0  0  0  0  0  0  0
    3.5504    9.8543   -4.6657 H   0  0  0  0  0  0  0  0  0  0  0  0
    3.0732   11.5159   -4.1191 H   0  0  0  0  0  0  0  0  0  0  0  0
    4.6922   10.2983   -2.3789 H   0  0  0  0  0  0  0  0  0  0  0  0
    5.5475    9.5358   -5.8588 H   0  0  0  0  0  0  0  0  0  0  0  0
    5.3622   11.2957   -6.1672 H   0  0  0  0  0  0  0  0  0  0  0  0
    6.9969   10.5510   -6.1672 H   0  0  0  0  0  0  0  0  0  0  0  0
    7.3817   10.5810   -2.5306 H   0  0  0  0  0  0  0  0  0  0  0  0
    7.8557    9.5884   -3.9507 H   0  0  0  0  0  0  0  0  0  0  0  0
    8.1593   11.3589   -3.9507 H   0  0  0  0  0  0  0  0  0  0  0  0
    0.4563   11.7417   -3.6948 H   0  0  0  0  0  0  0  0  0  0  0  0
   -1.6928   11.1965   -2.7315 H   0  0  0  0  0  0  0  0  0  0  0  0
   -0.9629   10.1290   -1.5136 H   0  0  0  0  0  0  0  0  0  0  0  0
   -1.9560   12.7649   -1.0313 H   0  0  0  0  0  0  0  0  0  0  0  0
   -0.9092   11.8850    0.0799 H   0  0  0  0  0  0  0  0  0  0  0  0
   -0.9378   14.9427   -2.0931 H   0  0  0  0  0  0  0  0  0  0  0  0
    0.4540   14.4383   -3.1105 H   0  0  0  0  0  0  0  0  0  0  0  0
   -1.0572   13.4672   -3.1105 H   0  0  0  0  0  0  0  0  0  0  0  0
    0.9112   13.3814    0.6403 H   0  0  0  0  0  0  0  0  0  0  0  0
   -1.3145   14.6482    0.3514 H   0  0  0  0  0  0  0  0  0  0  0  0
   -0.0048   15.2693    1.4864 H   0  0  0  0  0  0  0  0  0  0  0  0
   -1.2295   17.0813    0.0176 H   0  0  0  0  0  0  0  0  0  0  0  0
    1.7992   15.8125   -2.3316 H   0  0  0  0  0  0  0  0  0  0  0  0
    3.1809   17.4638   -0.1270 H   0  0  0  0  0  0  0  0  0  0  0  0
    3.9862   16.5969   -1.5088 H   0  0  0  0  0  0  0  0  0  0  0  0
    3.8173   19.0331   -1.9044 H   0  0  0  0  0  0  0  0  0  0  0  0
    2.8850   18.0572   -3.1061 H   0  0  0  0  0  0  0  0  0  0  0  0
    1.5613   19.9493   -2.4550 H   0  0  0  0  0  0  0  0  0  0  0  0
    1.6120   20.6410   -0.4400 H   0  0  0  0  0  0  0  0  0  0  0  0
   -0.6688   17.1405   -3.3123 H   0  0  0  0  0  0  0  0  0  0  0  0
   -0.3158   18.8409   -3.7714 H   0  0  0  0  0  0  0  0  0  0  0  0
    1.0007   17.6187   -3.7714 H   0  0  0  0  0  0  0  0  0  0  0  0
   -0.8035   19.1423   -0.1780 H   0  0  0  0  0  0  0  0  0  0  0  0
   -0.6924   20.1697   -1.6473 H   0  0  0  0  0  0  0  0  0  0  0  0
   -1.7435   18.7130   -1.6473 H   0  0  0  0  0  0  0  0  0  0  0  0
    2.0796   14.8368    1.7164 H   0  0  0  0  0  0  0  0  0  0  0  0
    3.7019   14.6107    0.9791 H   0  0  0  0  0  0  0  0  0  0  0  0
    2.9338   16.2345    0.9791 H   0  0  0  0  0  0  0  0  0  0  0  0
    3.8082   14.5441   -1.7617 H   0  0  0  0  0  0  0  0  0  0  0  0
    3.5100   13.2397   -0.4795 H   0  0  0  0  0  0  0  0  0  0  0  0
    2.1340   13.5440   -3.1624 H   0  0  0  0  0  0  0  0  0  0  0  0
    3.2395   12.2275   -2.6031 H   0  0  0  0  0  0  0  0  0  0  0  0
    1.5329   11.7572    0.4173 H   0  0  0  0  0  0  0  0  0  0  0  0
    1.3576   10.2942   -0.6102 H   0  0  0  0  0  0  0  0  0  0  0  0
    2.9017   11.2120   -0.6102 H   0  0  0  0  0  0  0  0  0  0  0  0
  1  2  1  0
  2  3  1  0
  3  4  1  0
  4  5  1  0
  5  6  1  0
  6  7  1  0
  7  8  1  0
  7  9  1  0
  2 10  1  0
 10 11  1  0
 11 12  1  0
 12 13  1  0
 13 14  1  6
 13 15  1  0
 15 16  1  0
 16 17  1  0
 17 18  2  0
 18 19  1  0
 19 20  1  0
 20 21  1  0
 21 22  1  0
 22 23  1  0
 22 24  1  0
 24 25  1  0
 24 26  1  0
 19 27  1  0
 27 28  1  1
 27 29  1  0
 29 30  1  0
 30 31  1  0
 31 32  1  1
  7  5  1  0
 31 10  1  0
 31 13  1  0
 27 15  1  0
 24 18  1  0
  1 33  1  0
  1 34  1  0
  1 35  1  0
  2 36  1  6
  3 37  1  0
  3 38  1  0
  4 39  1  0
  4 40  1  0
  5 41  1  1
  8 42  1  0
  8 43  1  0
  8 44  1  0
  9 45  1  0
  9 46  1  0
  9 47  1  0
 10 48  1  6
 11 49  1  0
 11 50  1  0
 12 51  1  0
 12 52  1  0
 14 53  1  0
 14 54  1  0
 14 55  1  0
 15 56  1  1
 16 57  1  0
 16 58  1  0
 17 59  1  0
 19 60  1  6
 20 61  1  0
 20 62  1  0
 21 63  1  0
 21 64  1  0
 22 65  1  6
 23 66  1  0
 25 67  1  0
 25 68  1  0
 25 69  1  0
 26 70  1  0
 26 71  1  0
 26 72  1  0
 28 73  1  0
 28 74  1  0
 28 75  1  0
 29 76  1  0
 29 77  1  0
 30 78  1  0
 30 79  1  0
 32 80  1  0
 32 81  1  0
 32 82  1  0
M  END
>  <meeko>  (9) 
{"is_sidechain": [false], "intermolecular_energy": 2.731, "internal_energy": -0.839}

$$$$
EPH_relaxed_0001_pdb2pqr_Repair_47_r2_0001_out
     RDKit          3D

 82 86  0  0  0  0  0  0  0  0999 V2000
  -15.2870    8.7200    0.5870 C   0  0  0  0  0  0  0  0  0  0  0  0
  -14.5120    9.1220   -0.6710 C   0  0  2  0  0  0  0  0  0  0  0  0
  -14.9130    8.2770   -1.8960 C   0  0  0  0  0  0  0  0  0  0  0  0
  -14.6420    8.9670   -3.2360 C   0  0  0  0  0  0  0  0  0  0  0  0
  -15.2710   10.3260   -3.2970 C   0  0  2  0  0  0  0  0  0  0  0  0
  -14.7930   11.1590   -4.3610 O   0  0  0  0  0  0  0  0  0  0  0  0
  -14.5130   11.6120   -3.0270 C   0  0  0  0  0  0  0  0  0  0  0  0
  -13.0580   11.6010   -2.6740 C   0  0  0  0  0  0  0  0  0  0  0  0
  -15.2870   12.8290   -2.6280 C   0  0  0  0  0  0  0  0  0  0  0  0
  -13.0140    8.9970   -0.4200 C   0  0  1  0  0  0  0  0  0  0  0  0
  -12.6350    9.2360    1.0660 C   0  0  0  0  0  0  0  0  0  0  0  0
  -11.4470    8.2920    1.3820 C   0  0  0  0  0  0  0  0  0  0  0  0
  -10.9680    7.7910   -0.0010 C   0  0  1  0  0  0  0  0  0  0  0  0
  -10.0710    8.9420   -0.5560 C   0  0  0  0  0  0  0  0  0  0  0  0
  -10.2220    6.4170   -0.0190 C   0  0  2  0  0  0  0  0  0  0  0  0
   -8.9030    6.3810    0.7730 C   0  0  0  0  0  0  0  0  0  0  0  0
   -7.6810    6.7370   -0.0080 C   0  0  0  0  0  0  0  0  0  0  0  0
   -7.6000    6.7940   -1.3500 C   0  0  0  0  0  0  0  0  0  0  0  0
   -8.7890    6.3890   -2.2290 C   0  0  1  0  0  0  0  0  0  0  0  0
   -8.2960    5.4640   -3.3730 C   0  0  0  0  0  0  0  0  0  0  0  0
   -7.1600    6.0850   -4.1800 C   0  0  0  0  0  0  0  0  0  0  0  0
   -5.9740    6.4220   -3.2800 C   0  0  2  0  0  0  0  0  0  0  0  0
   -5.4080    5.2030   -2.7890 O   0  0  0  0  0  0  0  0  0  0  0  0
   -6.3510    7.3410   -2.0860 C   0  0  0  0  0  0  0  0  0  0  0  0
   -6.6780    8.7630   -2.6060 C   0  0  0  0  0  0  0  0  0  0  0  0
   -5.0980    7.4870   -1.1810 C   0  0  0  0  0  0  0  0  0  0  0  0
  -10.0470    5.7930   -1.4620 C   0  0  1  0  0  0  0  0  0  0  0  0
   -9.8710    4.2560   -1.2640 C   0  0  0  0  0  0  0  0  0  0  0  0
  -11.3310    5.9810   -2.3550 C   0  0  0  0  0  0  0  0  0  0  0  0
  -12.0920    7.3110   -2.2050 C   0  0  0  0  0  0  0  0  0  0  0  0
  -12.3520    7.6310   -0.7290 C   0  0  2  0  0  0  0  0  0  0  0  0
  -13.2710    6.5020   -0.1500 C   0  0  0  0  0  0  0  0  0  0  0  0
  -14.7163    9.0161    1.4795 H   0  0  0  0  0  0  0  0  0  0  0  0
  -16.2643    9.2249    0.5926 H   0  0  0  0  0  0  0  0  0  0  0  0
  -15.4372    7.6303    0.5926 H   0  0  0  0  0  0  0  0  0  0  0  0
  -14.7659   10.1685   -0.8954 H   0  0  0  0  0  0  0  0  0  0  0  0
  -14.3449    7.3354   -1.8692 H   0  0  0  0  0  0  0  0  0  0  0  0
  -15.9990    8.1143   -1.8324 H   0  0  0  0  0  0  0  0  0  0  0  0
  -13.5552    9.0709   -3.3701 H   0  0  0  0  0  0  0  0  0  0  0  0
  -15.0805    8.3501   -4.0342 H   0  0  0  0  0  0  0  0  0  0  0  0
  -16.2183    9.9312   -2.9011 H   0  0  0  0  0  0  0  0  0  0  0  0
  -12.9462   11.6002   -1.5797 H   0  0  0  0  0  0  0  0  0  0  0  0
  -12.5862   10.6993   -3.0915 H   0  0  0  0  0  0  0  0  0  0  0  0
  -12.5726   12.4955   -3.0915 H   0  0  0  0  0  0  0  0  0  0  0  0
  -15.3283   12.8939   -1.5307 H   0  0  0  0  0  0  0  0  0  0  0  0
  -14.7930   13.7259   -3.0300 H   0  0  0  0  0  0  0  0  0  0  0  0
  -16.3087   12.7619   -3.0300 H   0  0  0  0  0  0  0  0  0  0  0  0
  -12.6459    9.7604   -1.1213 H   0  0  0  0  0  0  0  0  0  0  0  0
  -12.3366   10.2839    1.2170 H   0  0  0  0  0  0  0  0  0  0  0  0
  -13.4887    9.0320    1.7290 H   0  0  0  0  0  0  0  0  0  0  0  0
  -10.6431    8.8385    1.8968 H   0  0  0  0  0  0  0  0  0  0  0  0
  -11.7366    7.4655    2.0477 H   0  0  0  0  0  0  0  0  0  0  0  0
   -9.6337    9.5031    0.2830 H   0  0  0  0  0  0  0  0  0  0  0  0
   -9.2652    8.5148   -1.1710 H   0  0  0  0  0  0  0  0  0  0  0  0
  -10.6821    9.6190   -1.1710 H   0  0  0  0  0  0  0  0  0  0  0  0
  -10.9174    5.7637    0.5283 H   0  0  0  0  0  0  0  0  0  0  0  0
   -8.9897    7.0891    1.6103 H   0  0  0  0  0  0  0  0  0  0  0  0
   -8.7674    5.3370    1.0917 H   0  0  0  0  0  0  0  0  0  0  0  0
   -6.7701    6.9725    0.5619 H   0  0  0  0  0  0  0  0  0  0  0  0
   -9.1879    7.3236   -2.6502 H   0  0  0  0  0  0  0  0  0  0  0  0
   -7.9416    4.5195   -2.9346 H   0  0  0  0  0  0  0  0  0  0  0  0
   -9.1413    5.3009   -4.0578 H   0  0  0  0  0  0  0  0  0  0  0  0
   -6.8351    5.3722   -4.9522 H   0  0  0  0  0  0  0  0  0  0  0  0
   -7.5246    7.0135   -4.6436 H   0  0  0  0  0  0  0  0  0  0  0  0
   -5.2478    6.9817   -3.8878 H   0  0  0  0  0  0  0  0  0  0  0  0
   -6.1420    4.6260   -2.5170 H   0  0  0  0  0  0  0  0  0  0  0  0
   -6.8334    9.4389   -1.7522 H   0  0  0  0  0  0  0  0  0  0  0  0
   -5.8411    9.1312   -3.2175 H   0  0  0  0  0  0  0  0  0  0  0  0
   -7.5917    8.7287   -3.2175 H   0  0  0  0  0  0  0  0  0  0  0  0
   -5.4026    7.4515   -0.1246 H   0  0  0  0  0  0  0  0  0  0  0  0
   -4.3979    6.6644   -1.3886 H   0  0  0  0  0  0  0  0  0  0  0  0
   -4.6058    8.4486   -1.3886 H   0  0  0  0  0  0  0  0  0  0  0  0
   -9.8446    4.0255   -0.1888 H   0  0  0  0  0  0  0  0  0  0  0  0
  -10.7144    3.7271   -1.7318 H   0  0  0  0  0  0  0  0  0  0  0  0
   -8.9298    3.9314   -1.7318 H   0  0  0  0  0  0  0  0  0  0  0  0
  -11.0210    5.8917   -3.4066 H   0  0  0  0  0  0  0  0  0  0  0  0
  -12.0344    5.2068   -2.0145 H   0  0  0  0  0  0  0  0  0  0  0  0
  -11.4932    8.1202   -2.6485 H   0  0  0  0  0  0  0  0  0  0  0  0
  -13.0598    7.2213   -2.7201 H   0  0  0  0  0  0  0  0  0  0  0  0
  -13.2441    6.5350    0.9492 H   0  0  0  0  0  0  0  0  0  0  0  0
  -14.3036    6.6561   -0.4963 H   0  0  0  0  0  0  0  0  0  0  0  0
  -12.9105    5.5221   -0.4963 H   0  0  0  0  0  0  0  0  0  0  0  0
  1  2  1  0
  2  3  1  0
  3  4  1  0
  4  5  1  0
  5  6  1  0
  6  7  1  0
  7  8  1  0
  7  9  1  0
  2 10  1  0
 10 11  1  0
 11 12  1  0
 12 13  1  0
 13 14  1  6
 13 15  1  0
 15 16  1  0
 16 17  1  0
 17 18  2  0
 18 19  1  0
 19 20  1  0
 20 21  1  0
 21 22  1  0
 22 23  1  0
 22 24  1  0
 24 25  1  0
 24 26  1  0
 19 27  1  0
 27 28  1  1
 27 29  1  0
 29 30  1  0
 30 31  1  0
 31 32  1  1
  7  5  1  0
 31 10  1  0
 31 13  1  0
 27 15  1  0
 24 18  1  0
  1 33  1  0
  1 34  1  0
  1 35  1  0
  2 36  1  6
  3 37  1  0
  3 38  1  0
  4 39  1  0
  4 40  1  0
  5 41  1  1
  8 42  1  0
  8 43  1  0
  8 44  1  0
  9 45  1  0
  9 46  1  0
  9 47  1  0
 10 48  1  6
 11 49  1  0
 11 50  1  0
 12 51  1  0
 12 52  1  0
 14 53  1  0
 14 54  1  0
 14 55  1  0
 15 56  1  1
 16 57  1  0
 16 58  1  0
 17 59  1  0
 19 60  1  6
 20 61  1  0
 20 62  1  0
 21 63  1  0
 21 64  1  0
 22 65  1  6
 23 66  1  0
 25 67  1  0
 25 68  1  0
 25 69  1  0
 26 70  1  0
 26 71  1  0
 26 72  1  0
 28 73  1  0
 28 74  1  0
 28 75  1  0
 29 76  1  0
 29 77  1  0
 30 78  1  0
 30 79  1  0
 32 80  1  0
 32 81  1  0
 32 82  1  0
M  END
>  <meeko>  (10) 
{"is_sidechain": [false], "intermolecular_energy": 2.731, "internal_energy": -0.839}

$$$$
EPH_relaxed_0001_pdb2pqr_Repair_47_r2_0001_out
     RDKit          3D

 82 86  0  0  0  0  0  0  0  0999 V2000
    0.1210   17.7540   -2.5620 C   0  0  0  0  0  0  0  0  0  0  0  0
   -0.1180   16.8680   -1.3370 C   0  0  2  0  0  0  0  0  0  0  0  0
   -0.1690   17.6850   -0.0300 C   0  0  0  0  0  0  0  0  0  0  0  0
    0.4600   19.0760   -0.1490 C   0  0  0  0  0  0  0  0  0  0  0  0
    1.6090   19.2480    0.7980 C   0  0  2  0  0  0  0  0  0  0  0  0
    2.5990   20.1940    0.3730 O   0  0  0  0  0  0  0  0  0  0  0  0
    3.0310   18.8280    0.4730 C   0  0  0  0  0  0  0  0  0  0  0  0
    3.3790   18.2010   -0.8410 C   0  0  0  0  0  0  0  0  0  0  0  0
    3.9790   18.5770    1.6040 C   0  0  0  0  0  0  0  0  0  0  0  0
    0.9700   15.8040   -1.2440 C   0  0  1  0  0  0  0  0  0  0  0  0
    1.1690   15.2770    0.2020 C   0  0  0  0  0  0  0  0  0  0  0  0
    1.5260   13.7730    0.0850 C   0  0  0  0  0  0  0  0  0  0  0  0
    1.8460   13.5640   -1.4130 C   0  0  1  0  0  0  0  0  0  0  0  0
    3.3170   14.0560   -1.5820 C   0  0  0  0  0  0  0  0  0  0  0  0
    1.6560   12.1130   -1.9640 C   0  0  2  0  0  0  0  0  0  0  0  0
    2.5630   11.0480   -1.3240 C   0  0  0  0  0  0  0  0  0  0  0  0
    3.8740   10.8340   -2.0070 C   0  0  0  0  0  0  0  0  0  0  0  0
    4.1900   11.2590   -3.2440 C   0  0  0  0  0  0  0  0  0  0  0  0
    3.1460   11.9490   -4.1300 C   0  0  1  0  0  0  0  0  0  0  0  0
    3.1940   11.3420   -5.5570 C   0  0  0  0  0  0  0  0  0  0  0  0
    4.5930   11.3830   -6.1630 C   0  0  0  0  0  0  0  0  0  0  0  0
    5.5920   10.6360   -5.2830 C   0  0  2  0  0  0  0  0  0  0  0  0
    5.2630    9.2430   -5.2920 O   0  0  0  0  0  0  0  0  0  0  0  0
    5.6250   11.1550   -3.8180 C   0  0  0  0  0  0  0  0  0  0  0  0
    6.2670   12.5640   -3.7790 C   0  0  0  0  0  0  0  0  0  0  0  0
    6.5660   10.2270   -3.0040 C   0  0  0  0  0  0  0  0  0  0  0  0
    1.6700   12.0120   -3.5430 C   0  0  1  0  0  0  0  0  0  0  0  0
    0.8950   10.7110   -3.9130 C   0  0  0  0  0  0  0  0  0  0  0  0
    0.8950   13.2000   -4.2260 C   0  0  0  0  0  0  0  0  0  0  0  0
    1.0270   14.5860   -3.5660 C   0  0  0  0  0  0  0  0  0  0  0  0
    0.7630   14.5030   -2.0590 C   0  0  2  0  0  0  0  0  0  0  0  0
   -0.7180   14.0310   -1.8580 C   0  0  0  0  0  0  0  0  0  0  0  0
    0.3944   18.7676   -2.2337 H   0  0  0  0  0  0  0  0  0  0  0  0
    0.9373   17.3316   -3.1664 H   0  0  0  0  0  0  0  0  0  0  0  0
   -0.7970   17.7995   -3.1664 H   0  0  0  0  0  0  0  0  0  0  0  0
   -1.0988   16.3865   -1.4638 H   0  0  0  0  0  0  0  0  0  0  0  0
   -1.2222   17.8041    0.2643 H   0  0  0  0  0  0  0  0  0  0  0  0
    0.4158   17.1306    0.7188 H   0  0  0  0  0  0  0  0  0  0  0  0
    0.8222   19.2165   -1.1781 H   0  0  0  0  0  0  0  0  0  0  0  0
   -0.3076   19.8221    0.1043 H   0  0  0  0  0  0  0  0  0  0  0  0
    0.9584   19.0452    1.6615 H   0  0  0  0  0  0  0  0  0  0  0  0
    3.9060   17.2515   -0.6660 H   0  0  0  0  0  0  0  0  0  0  0  0
    2.4581   18.0095   -1.4113 H   0  0  0  0  0  0  0  0  0  0  0  0
    4.0286   18.8813   -1.4113 H   0  0  0  0  0  0  0  0  0  0  0  0
    3.4537   18.7161    2.5604 H   0  0  0  0  0  0  0  0  0  0  0  0
    4.3601   17.5470    1.5413 H   0  0  0  0  0  0  0  0  0  0  0  0
    4.8198   19.2835    1.5413 H   0  0  0  0  0  0  0  0  0  0  0  0
    1.8191   16.3727   -1.6510 H   0  0  0  0  0  0  0  0  0  0  0  0
    1.9867   15.8231    0.6950 H   0  0  0  0  0  0  0  0  0  0  0  0
    0.2594   15.4213    0.8035 H   0  0  0  0  0  0  0  0  0  0  0  0
    2.4011   13.5320    0.7064 H   0  0  0  0  0  0  0  0  0  0  0  0
    0.7100   13.1221    0.4322 H   0  0  0  0  0  0  0  0  0  0  0  0
    3.7692   14.2072   -0.5907 H   0  0  0  0  0  0  0  0  0  0  0  0
    3.8943   13.3020   -2.1372 H   0  0  0  0  0  0  0  0  0  0  0  0
    3.3245   15.0056   -2.1372 H   0  0  0  0  0  0  0  0  0  0  0  0
    0.6340   11.8691   -1.6382 H   0  0  0  0  0  0  0  0  0  0  0  0
    2.7657   11.3527   -0.2867 H   0  0  0  0  0  0  0  0  0  0  0  0
    2.0184   10.0957   -1.4044 H   0  0  0  0  0  0  0  0  0  0  0  0
    4.6467   10.2822   -1.4517 H   0  0  0  0  0  0  0  0  0  0  0  0
    3.4329   13.0103   -4.1662 H   0  0  0  0  0  0  0  0  0  0  0  0
    2.8623   10.2944   -5.5060 H   0  0  0  0  0  0  0  0  0  0  0  0
    2.5343   11.9446   -6.1986 H   0  0  0  0  0  0  0  0  0  0  0  0
    4.5682   10.9136   -7.1575 H   0  0  0  0  0  0  0  0  0  0  0  0
    4.9109   12.4332   -6.2406 H   0  0  0  0  0  0  0  0  0  0  0  0
    6.5945   10.8103   -5.7008 H   0  0  0  0  0  0  0  0  0  0  0  0
    4.3290    9.1600   -5.0360 H   0  0  0  0  0  0  0  0  0  0  0  0
    6.4082   12.8738   -2.7330 H   0  0  0  0  0  0  0  0  0  0  0  0
    7.2417   12.5370   -4.2881 H   0  0  0  0  0  0  0  0  0  0  0  0
    5.6071   13.2818   -4.2881 H   0  0  0  0  0  0  0  0  0  0  0  0
    6.4010   10.3897   -1.9287 H   0  0  0  0  0  0  0  0  0  0  0  0
    6.3513    9.1773   -3.2532 H   0  0  0  0  0  0  0  0  0  0  0  0
    7.6126   10.4563   -3.2532 H   0  0  0  0  0  0  0  0  0  0  0  0
    0.5867   10.1935   -2.9926 H   0  0  0  0  0  0  0  0  0  0  0  0
    0.0041   10.9704   -4.5038 H   0  0  0  0  0  0  0  0  0  0  0  0
    1.5473   10.0511   -4.5038 H   0  0  0  0  0  0  0  0  0  0  0  0
    1.2627   13.2870   -5.2591 H   0  0  0  0  0  0  0  0  0  0  0  0
   -0.1697   12.9386   -4.1362 H   0  0  0  0  0  0  0  0  0  0  0  0
    2.0449   14.9684   -3.7325 H   0  0  0  0  0  0  0  0  0  0  0  0
    0.2838   15.2609   -4.0157 H   0  0  0  0  0  0  0  0  0  0  0  0
   -0.9377   13.9610   -0.7825 H   0  0  0  0  0  0  0  0  0  0  0  0
   -1.4006   14.7561   -2.3252 H   0  0  0  0  0  0  0  0  0  0  0  0
   -0.8551   13.0446   -2.3252 H   0  0  0  0  0  0  0  0  0  0  0  0
  1  2  1  0
  2  3  1  0
  3  4  1  0
  4  5  1  0
  5  6  1  0
  6  7  1  0
  7  8  1  0
  7  9  1  0
  2 10  1  0
 10 11  1  0
 11 12  1  0
 12 13  1  0
 13 14  1  1
 13 15  1  0
 15 16  1  0
 16 17  1  0
 17 18  2  0
 18 19  1  0
 19 20  1  0
 20 21  1  0
 21 22  1  0
 22 23  1  0
 22 24  1  0
 24 25  1  0
 24 26  1  0
 19 27  1  0
 27 28  1  1
 27 29  1  0
 29 30  1  0
 30 31  1  0
 31 32  1  6
  7  5  1  0
 31 10  1  0
 31 13  1  0
 27 15  1  0
 24 18  1  0
  1 33  1  0
  1 34  1  0
  1 35  1  0
  2 36  1  6
  3 37  1  0
  3 38  1  0
  4 39  1  0
  4 40  1  0
  5 41  1  1
  8 42  1  0
  8 43  1  0
  8 44  1  0
  9 45  1  0
  9 46  1  0
  9 47  1  0
 10 48  1  6
 11 49  1  0
 11 50  1  0
 12 51  1  0
 12 52  1  0
 14 53  1  0
 14 54  1  0
 14 55  1  0
 15 56  1  1
 16 57  1  0
 16 58  1  0
 17 59  1  0
 19 60  1  6
 20 61  1  0
 20 62  1  0
 21 63  1  0
 21 64  1  0
 22 65  1  6
 23 66  1  0
 25 67  1  0
 25 68  1  0
 25 69  1  0
 26 70  1  0
 26 71  1  0
 26 72  1  0
 28 73  1  0
 28 74  1  0
 28 75  1  0
 29 76  1  0
 29 77  1  0
 30 78  1  0
 30 79  1  0
 32 80  1  0
 32 81  1  0
 32 82  1  0
M  END
>  <meeko>  (11) 
{"is_sidechain": [false], "intermolecular_energy": 2.731, "internal_energy": -0.839}

$$$$
EPH_relaxed_0001_pdb2pqr_Repair_47_r2_0001_out
     RDKit          3D

 82 86  0  0  0  0  0  0  0  0999 V2000
    3.6360   18.4770   -2.5910 C   0  0  0  0  0  0  0  0  0  0  0  0
    2.3110   17.7290   -2.7630 C   0  0  2  0  0  0  0  0  0  0  0  0
    1.1010   18.5870   -2.3420 C   0  0  0  0  0  0  0  0  0  0  0  0
    1.2540   19.2310   -0.9620 C   0  0  0  0  0  0  0  0  0  0  0  0
    0.0450   20.0350   -0.5880 C   0  0  2  0  0  0  0  0  0  0  0  0
   -0.1570   20.1930    0.8220 O   0  0  0  0  0  0  0  0  0  0  0  0
   -1.1640   19.4490    0.1170 C   0  0  0  0  0  0  0  0  0  0  0  0
   -1.2240   18.0010    0.4890 C   0  0  0  0  0  0  0  0  0  0  0  0
   -2.4740   20.1650    0.0050 C   0  0  0  0  0  0  0  0  0  0  0  0
    2.3370   16.4340   -1.9590 C   0  0  1  0  0  0  0  0  0  0  0  0
    2.5610   16.6770   -0.4430 C   0  0  0  0  0  0  0  0  0  0  0  0
    1.7370   15.6000    0.3090 C   0  0  0  0  0  0  0  0  0  0  0  0
    1.3400   14.5800   -0.7830 C   0  0  1  0  0  0  0  0  0  0  0  0
    2.5980   13.6740   -0.9630 C   0  0  0  0  0  0  0  0  0  0  0  0
    0.0550   13.7350   -0.5040 C   0  0  2  0  0  0  0  0  0  0  0  0
    0.1310   12.8190    0.7300 C   0  0  0  0  0  0  0  0  0  0  0  0
    0.6410   11.4410    0.4710 C   0  0  0  0  0  0  0  0  0  0  0  0
    0.7550   10.8630   -0.7390 C   0  0  0  0  0  0  0  0  0  0  0  0
    0.2570   11.5770   -2.0020 C   0  0  1  0  0  0  0  0  0  0  0  0
   -0.5690   10.5870   -2.8650 C   0  0  0  0  0  0  0  0  0  0  0  0
    0.1980    9.3060   -3.1820 C   0  0  0  0  0  0  0  0  0  0  0  0
    0.6250    8.5950   -1.9010 C   0  0  2  0  0  0  0  0  0  0  0  0
   -0.5430    8.1260   -1.2220 O   0  0  0  0  0  0  0  0  0  0  0  0
    1.4570    9.4980   -0.9470 C   0  0  0  0  0  0  0  0  0  0  0  0
    2.8530    9.7590   -1.5630 C   0  0  0  0  0  0  0  0  0  0  0  0
    1.7030    8.7070    0.3660 C   0  0  0  0  0  0  0  0  0  0  0  0
   -0.4960   12.9570   -1.7680 C   0  0  1  0  0  0  0  0  0  0  0  0
   -2.0110   12.6980   -1.5050 C   0  0  0  0  0  0  0  0  0  0  0  0
   -0.4140   13.8180   -3.0830 C   0  0  0  0  0  0  0  0  0  0  0  0
    0.8220   14.7230   -3.2450 C   0  0  0  0  0  0  0  0  0  0  0  0
    1.0600   15.5570   -1.9830 C   0  0  2  0  0  0  0  0  0  0  0  0
   -0.1800   16.4950   -1.7890 C   0  0  0  0  0  0  0  0  0  0  0  0
    3.8518   18.5988   -1.5193 H   0  0  0  0  0  0  0  0  0  0  0  0
    4.4455   17.9026   -3.0651 H   0  0  0  0  0  0  0  0  0  0  0  0
    3.5625   19.4669   -3.0651 H   0  0  0  0  0  0  0  0  0  0  0  0
    2.1966   17.4999   -3.8328 H   0  0  0  0  0  0  0  0  0  0  0  0
    0.9667   19.3865   -3.0854 H   0  0  0  0  0  0  0  0  0  0  0  0
    0.2327   17.9139   -2.2882 H   0  0  0  0  0  0  0  0  0  0  0  0
    1.4008   18.4387   -0.2132 H   0  0  0  0  0  0  0  0  0  0  0  0
    2.1199   19.9086   -0.9940 H   0  0  0  0  0  0  0  0  0  0  0  0
    0.1444   20.6494   -1.4950 H   0  0  0  0  0  0  0  0  0  0  0  0
   -1.2280   17.9038    1.5847 H   0  0  0  0  0  0  0  0  0  0  0  0
   -2.1414   17.5545    0.0779 H   0  0  0  0  0  0  0  0  0  0  0  0
   -0.3467   17.4802    0.0779 H   0  0  0  0  0  0  0  0  0  0  0  0
   -2.8629   20.3776    1.0118 H   0  0  0  0  0  0  0  0  0  0  0  0
   -2.3301   21.1099   -0.5395 H   0  0  0  0  0  0  0  0  0  0  0  0
   -3.1916   19.5336   -0.5395 H   0  0  0  0  0  0  0  0  0  0  0  0
    3.1599   15.9144   -2.4717 H   0  0  0  0  0  0  0  0  0  0  0  0
    3.6285   16.5774   -0.1970 H   0  0  0  0  0  0  0  0  0  0  0  0
    2.2440   17.6900   -0.1542 H   0  0  0  0  0  0  0  0  0  0  0  0
    2.3466   15.1180    1.0875 H   0  0  0  0  0  0  0  0  0  0  0  0
    0.8611   16.0262    0.8200 H   0  0  0  0  0  0  0  0  0  0  0  0
    2.9906   13.3912    0.0249 H   0  0  0  0  0  0  0  0  0  0  0  0
    2.3201   12.7673   -1.5204 H   0  0  0  0  0  0  0  0  0  0  0  0
    3.3699   14.2249   -1.5204 H   0  0  0  0  0  0  0  0  0  0  0  0
   -0.6866   14.5087   -0.2562 H   0  0  0  0  0  0  0  0  0  0  0  0
    0.7960   13.2947    1.4659 H   0  0  0  0  0  0  0  0  0  0  0  0
   -0.9036   12.6988    1.0837 H   0  0  0  0  0  0  0  0  0  0  0  0
    0.9502   10.8468    1.3435 H   0  0  0  0  0  0  0  0  0  0  0  0
    1.1585   11.8883   -2.5501 H   0  0  0  0  0  0  0  0  0  0  0  0
   -1.4860   10.3227   -2.3180 H   0  0  0  0  0  0  0  0  0  0  0  0
   -0.7960   11.0850   -3.8192 H   0  0  0  0  0  0  0  0  0  0  0  0
   -0.4478    8.6354   -3.7679 H   0  0  0  0  0  0  0  0  0  0  0  0
    1.0995    9.5691   -3.7548 H   0  0  0  0  0  0  0  0  0  0  0  0
    1.2783    7.7587   -2.1906 H   0  0  0  0  0  0  0  0  0  0  0  0
   -0.6160    7.1710   -1.3880 H   0  0  0  0  0  0  0  0  0  0  0  0
    3.5893    9.8967   -0.7575 H   0  0  0  0  0  0  0  0  0  0  0  0
    3.1459    8.9001   -2.1846 H   0  0  0  0  0  0  0  0  0  0  0  0
    2.8158   10.6657   -2.1846 H   0  0  0  0  0  0  0  0  0  0  0  0
    1.5006    9.3577    1.2295 H   0  0  0  0  0  0  0  0  0  0  0  0
    1.0337    7.8347    0.3994 H   0  0  0  0  0  0  0  0  0  0  0  0
    2.7490    8.3681    0.3994 H   0  0  0  0  0  0  0  0  0  0  0  0
   -2.1948   12.6666   -0.4209 H   0  0  0  0  0  0  0  0  0  0  0  0
   -2.6048   13.5077   -1.9543 H   0  0  0  0  0  0  0  0  0  0  0  0
   -2.3021   11.7371   -1.9543 H   0  0  0  0  0  0  0  0  0  0  0  0
   -0.4327   13.1244   -3.9366 H   0  0  0  0  0  0  0  0  0  0  0  0
   -1.2700   14.5068   -3.0297 H   0  0  0  0  0  0  0  0  0  0  0  0
    1.7054   14.0952   -3.4333 H   0  0  0  0  0  0  0  0  0  0  0  0
    0.6481   15.4063   -4.0893 H   0  0  0  0  0  0  0  0  0  0  0  0
   -0.3678   16.6370   -0.7145 H   0  0  0  0  0  0  0  0  0  0  0  0
    0.0205   17.4695   -2.2582 H   0  0  0  0  0  0  0  0  0  0  0  0
   -1.0632   16.0369   -2.2582 H   0  0  0  0  0  0  0  0  0  0  0  0
  1  2  1  0
  2  3  1  0
  3  4  1  0
  4  5  1  0
  5  6  1  0
  6  7  1  0
  7  8  1  0
  7  9  1  0
  2 10  1  0
 10 11  1  0
 11 12  1  0
 12 13  1  0
 13 14  1  6
 13 15  1  0
 15 16  1  0
 16 17  1  0
 17 18  2  0
 18 19  1  0
 19 20  1  0
 20 21  1  0
 21 22  1  0
 22 23  1  0
 22 24  1  0
 24 25  1  0
 24 26  1  0
 19 27  1  0
 27 28  1  1
 27 29  1  0
 29 30  1  0
 30 31  1  0
 31 32  1  1
  7  5  1  0
 31 10  1  0
 31 13  1  0
 27 15  1  0
 24 18  1  0
  1 33  1  0
  1 34  1  0
  1 35  1  0
  2 36  1  6
  3 37  1  0
  3 38  1  0
  4 39  1  0
  4 40  1  0
  5 41  1  6
  8 42  1  0
  8 43  1  0
  8 44  1  0
  9 45  1  0
  9 46  1  0
  9 47  1  0
 10 48  1  6
 11 49  1  0
 11 50  1  0
 12 51  1  0
 12 52  1  0
 14 53  1  0
 14 54  1  0
 14 55  1  0
 15 56  1  1
 16 57  1  0
 16 58  1  0
 17 59  1  0
 19 60  1  6
 20 61  1  0
 20 62  1  0
 21 63  1  0
 21 64  1  0
 22 65  1  6
 23 66  1  0
 25 67  1  0
 25 68  1  0
 25 69  1  0
 26 70  1  0
 26 71  1  0
 26 72  1  0
 28 73  1  0
 28 74  1  0
 28 75  1  0
 29 76  1  0
 29 77  1  0
 30 78  1  0
 30 79  1  0
 32 80  1  0
 32 81  1  0
 32 82  1  0
M  END
>  <meeko>  (12) 
{"is_sidechain": [false], "intermolecular_energy": 2.731, "internal_energy": -0.839}

$$$$
EPH_relaxed_0001_pdb2pqr_Repair_47_r2_0001_out
     RDKit          3D

 82 86  0  0  0  0  0  0  0  0999 V2000
   -0.9170   16.3920   -5.8690 C   0  0  0  0  0  0  0  0  0  0  0  0
    0.1800   15.6950   -6.6780 C   0  0  2  0  0  0  0  0  0  0  0  0
   -0.2190   15.5050   -8.1550 C   0  0  0  0  0  0  0  0  0  0  0  0
    0.4360   16.5120   -9.1040 C   0  0  0  0  0  0  0  0  0  0  0  0
    1.8440   16.1210   -9.4410 C   0  0  2  0  0  0  0  0  0  0  0  0
    2.3460   16.6840  -10.6590 O   0  0  0  0  0  0  0  0  0  0  0  0
    2.2090   15.2540  -10.6320 C   0  0  0  0  0  0  0  0  0  0  0  0
    1.1630   14.7250  -11.5620 C   0  0  0  0  0  0  0  0  0  0  0  0
    3.5150   14.5230  -10.6110 C   0  0  0  0  0  0  0  0  0  0  0  0
    0.5120   14.3470   -6.0500 C   0  0  1  0  0  0  0  0  0  0  0  0
    1.7380   13.6640   -6.7140 C   0  0  0  0  0  0  0  0  0  0  0  0
    2.4900   12.9060   -5.5910 C   0  0  0  0  0  0  0  0  0  0  0  0
    1.5050   12.8980   -4.3980 C   0  0  1  0  0  0  0  0  0  0  0  0
    0.5180   11.7270   -4.7010 C   0  0  0  0  0  0  0  0  0  0  0  0
    2.1420   12.7630   -2.9770 C   0  0  2  0  0  0  0  0  0  0  0  0
    2.9070   11.4520   -2.7260 C   0  0  0  0  0  0  0  0  0  0  0  0
    2.0930   10.3360   -2.1600 C   0  0  0  0  0  0  0  0  0  0  0  0
    0.8760   10.4630   -1.5990 C   0  0  0  0  0  0  0  0  0  0  0  0
    0.2380   11.8440   -1.4040 C   0  0  1  0  0  0  0  0  0  0  0  0
   -0.3400   11.9500    0.0320 C   0  0  0  0  0  0  0  0  0  0  0  0
   -1.3010   10.8120    0.3600 C   0  0  0  0  0  0  0  0  0  0  0  0
   -0.6140    9.4570    0.2110 C   0  0  2  0  0  0  0  0  0  0  0  0
    0.3980    9.3400    1.2150 O   0  0  0  0  0  0  0  0  0  0  0  0
    0.0150    9.2410   -1.1940 C   0  0  0  0  0  0  0  0  0  0  0  0
   -1.1070    9.0660   -2.2460 C   0  0  0  0  0  0  0  0  0  0  0  0
    0.7960    7.8990   -1.1650 C   0  0  0  0  0  0  0  0  0  0  0  0
    1.1500   13.0890   -1.7880 C   0  0  1  0  0  0  0  0  0  0  0  0
    2.0330   13.4970   -0.5700 C   0  0  0  0  0  0  0  0  0  0  0  0
    0.2260   14.3250   -2.1010 C   0  0  0  0  0  0  0  0  0  0  0  0
   -0.2740   14.4690   -3.5520 C   0  0  0  0  0  0  0  0  0  0  0  0
    0.8830   14.3340   -4.5460 C   0  0  2  0  0  0  0  0  0  0  0  0
    1.8820   15.5120   -4.2800 C   0  0  0  0  0  0  0  0  0  0  0  0
   -0.7172   16.2650   -4.7948 H   0  0  0  0  0  0  0  0  0  0  0  0
   -0.9294   17.4640   -6.1155 H   0  0  0  0  0  0  0  0  0  0  0  0
   -1.8927   15.9478   -6.1155 H   0  0  0  0  0  0  0  0  0  0  0  0
    1.0685   16.3432   -6.6575 H   0  0  0  0  0  0  0  0  0  0  0  0
    0.0753   14.4920   -8.4666 H   0  0  0  0  0  0  0  0  0  0  0  0
   -1.3056   15.6643   -8.2174 H   0  0  0  0  0  0  0  0  0  0  0  0
   -0.1521   16.5619  -10.0322 H   0  0  0  0  0  0  0  0  0  0  0  0
    0.4624   17.4901   -8.6014 H   0  0  0  0  0  0  0  0  0  0  0  0
    2.1071   16.0587   -8.3748 H   0  0  0  0  0  0  0  0  0  0  0  0
    0.3315   14.3045  -10.9775 H   0  0  0  0  0  0  0  0  0  0  0  0
    0.7889   15.5423  -12.1961 H   0  0  0  0  0  0  0  0  0  0  0  0
    1.5996   13.9393  -12.1961 H   0  0  0  0  0  0  0  0  0  0  0  0
    3.8222   14.3510   -9.5689 H   0  0  0  0  0  0  0  0  0  0  0  0
    3.4026   13.5566  -11.1244 H   0  0  0  0  0  0  0  0  0  0  0  0
    4.2799   15.1241  -11.1244 H   0  0  0  0  0  0  0  0  0  0  0  0
   -0.4471   13.8311   -6.2049 H   0  0  0  0  0  0  0  0  0  0  0  0
    1.4047   12.9587   -7.4896 H   0  0  0  0  0  0  0  0  0  0  0  0
    2.3913   14.4067   -7.1952 H   0  0  0  0  0  0  0  0  0  0  0  0
    2.7261   11.8790   -5.9065 H   0  0  0  0  0  0  0  0  0  0  0  0
    3.4490   13.3812   -5.3369 H   0  0  0  0  0  0  0  0  0  0  0  0
    0.1565   11.2981   -3.7548 H   0  0  0  0  0  0  0  0  0  0  0  0
   -0.3357   12.1078   -5.2809 H   0  0  0  0  0  0  0  0  0  0  0  0
    1.0378   10.9501   -5.2809 H   0  0  0  0  0  0  0  0  0  0  0  0
    2.9036   13.5566   -2.9847 H   0  0  0  0  0  0  0  0  0  0  0  0
    3.3261   11.1142   -3.6853 H   0  0  0  0  0  0  0  0  0  0  0  0
    3.6702   11.6857   -1.9691 H   0  0  0  0  0  0  0  0  0  0  0  0
    2.5239    9.3249   -2.2052 H   0  0  0  0  0  0  0  0  0  0  0  0
   -0.5771   11.9091   -2.1398 H   0  0  0  0  0  0  0  0  0  0  0  0
    0.4929   11.9265    0.7502 H   0  0  0  0  0  0  0  0  0  0  0  0
   -0.9034   12.8925    0.0969 H   0  0  0  0  0  0  0  0  0  0  0  0
   -1.6526   10.9252    1.3961 H   0  0  0  0  0  0  0  0  0  0  0  0
   -2.1478   10.8550   -0.3407 H   0  0  0  0  0  0  0  0  0  0  0  0
   -1.3843    8.6812    0.3324 H   0  0  0  0  0  0  0  0  0  0  0  0
    0.9970   10.1000    1.1180 H   0  0  0  0  0  0  0  0  0  0  0  0
   -2.0692    8.9159   -1.7344 H   0  0  0  0  0  0  0  0  0  0  0  0
   -1.1630    9.9663   -2.8756 H   0  0  0  0  0  0  0  0  0  0  0  0
   -0.8862    8.1914   -2.8756 H   0  0  0  0  0  0  0  0  0  0  0  0
    0.9707    7.5989   -0.1212 H   0  0  0  0  0  0  0  0  0  0  0  0
    0.2090    7.1220   -1.6766 H   0  0  0  0  0  0  0  0  0  0  0  0
    1.7615    8.0255   -1.6766 H   0  0  0  0  0  0  0  0  0  0  0  0
    1.5051   13.2531    0.3637 H   0  0  0  0  0  0  0  0  0  0  0  0
    2.9853   12.9476   -0.6071 H   0  0  0  0  0  0  0  0  0  0  0  0
    2.2318   14.5782   -0.6071 H   0  0  0  0  0  0  0  0  0  0  0  0
   -0.6578   14.2531   -1.4500 H   0  0  0  0  0  0  0  0  0  0  0  0
    0.8574   15.2084   -1.9251 H   0  0  0  0  0  0  0  0  0  0  0  0
   -1.0173   13.6842   -3.7561 H   0  0  0  0  0  0  0  0  0  0  0  0
   -0.7241   15.4656   -3.6707 H   0  0  0  0  0  0  0  0  0  0  0  0
    2.0019   15.6533   -3.1957 H   0  0  0  0  0  0  0  0  0  0  0  0
    2.8576   15.2738   -4.7288 H   0  0  0  0  0  0  0  0  0  0  0  0
    1.4876   16.4356   -4.7288 H   0  0  0  0  0  0  0  0  0  0  0  0
  1  2  1  0
  2  3  1  0
  3  4  1  0
  4  5  1  0
  5  6  1  0
  6  7  1  0
  7  8  1  0
  7  9  1  0
  2 10  1  0
 10 11  1  0
 11 12  1  0
 12 13  1  0
 13 14  1  6
 13 15  1  0
 15 16  1  0
 16 17  1  0
 17 18  2  0
 18 19  1  0
 19 20  1  0
 20 21  1  0
 21 22  1  0
 22 23  1  0
 22 24  1  0
 24 25  1  0
 24 26  1  0
 19 27  1  0
 27 28  1  1
 27 29  1  0
 29 30  1  0
 30 31  1  0
 31 32  1  6
  7  5  1  0
 31 10  1  0
 31 13  1  0
 27 15  1  0
 24 18  1  0
  1 33  1  0
  1 34  1  0
  1 35  1  0
  2 36  1  6
  3 37  1  0
  3 38  1  0
  4 39  1  0
  4 40  1  0
  5 41  1  1
  8 42  1  0
  8 43  1  0
  8 44  1  0
  9 45  1  0
  9 46  1  0
  9 47  1  0
 10 48  1  1
 11 49  1  0
 11 50  1  0
 12 51  1  0
 12 52  1  0
 14 53  1  0
 14 54  1  0
 14 55  1  0
 15 56  1  6
 16 57  1  0
 16 58  1  0
 17 59  1  0
 19 60  1  6
 20 61  1  0
 20 62  1  0
 21 63  1  0
 21 64  1  0
 22 65  1  1
 23 66  1  0
 25 67  1  0
 25 68  1  0
 25 69  1  0
 26 70  1  0
 26 71  1  0
 26 72  1  0
 28 73  1  0
 28 74  1  0
 28 75  1  0
 29 76  1  0
 29 77  1  0
 30 78  1  0
 30 79  1  0
 32 80  1  0
 32 81  1  0
 32 82  1  0
M  END
>  <meeko>  (13) 
{"is_sidechain": [false], "intermolecular_energy": 2.731, "internal_energy": -0.839}

$$$$
EPH_relaxed_0001_pdb2pqr_Repair_47_r2_0001_out
     RDKit          3D

 82 86  0  0  0  0  0  0  0  0999 V2000
   -4.0250    7.2270   -3.4750 C   0  0  0  0  0  0  0  0  0  0  0  0
   -3.9430    7.2720   -1.9470 C   0  0  2  0  0  0  0  0  0  0  0  0
   -5.3150    7.0340   -1.2840 C   0  0  0  0  0  0  0  0  0  0  0  0
   -6.4680    6.9150   -2.2840 C   0  0  0  0  0  0  0  0  0  0  0  0
   -7.7510    7.4430   -1.7160 C   0  0  2  0  0  0  0  0  0  0  0  0
   -8.2020    6.7730   -0.5320 O   0  0  0  0  0  0  0  0  0  0  0  0
   -9.0440    6.6490   -1.6900 C   0  0  0  0  0  0  0  0  0  0  0  0
   -9.1180    5.2610   -2.2420 C   0  0  0  0  0  0  0  0  0  0  0  0
  -10.3380    7.3940   -1.5770 C   0  0  0  0  0  0  0  0  0  0  0  0
   -3.3720    8.6110   -1.4960 C   0  0  1  0  0  0  0  0  0  0  0  0
   -3.9910    9.1060   -0.1610 C   0  0  0  0  0  0  0  0  0  0  0  0
   -2.8650    9.8440    0.6080 C   0  0  0  0  0  0  0  0  0  0  0  0
   -1.7420   10.0400   -0.4380 C   0  0  1  0  0  0  0  0  0  0  0  0
   -2.1750   11.2940   -1.2610 C   0  0  0  0  0  0  0  0  0  0  0  0
   -0.2920   10.1920    0.1260 C   0  0  2  0  0  0  0  0  0  0  0  0
   -0.0660   11.4210    1.0240 C   0  0  0  0  0  0  0  0  0  0  0  0
    0.3820   12.6550    0.3150 C   0  0  0  0  0  0  0  0  0  0  0  0
    0.8680   12.7040   -0.9400 C   0  0  0  0  0  0  0  0  0  0  0  0
    1.0980   11.4190   -1.7460 C   0  0  1  0  0  0  0  0  0  0  0  0
    2.4960   11.4720   -2.4150 C   0  0  0  0  0  0  0  0  0  0  0  0
    2.6960   12.7310   -3.2540 C   0  0  0  0  0  0  0  0  0  0  0  0
    2.5160   13.9860   -2.4050 C   0  0  2  0  0  0  0  0  0  0  0  0
    3.5770   14.0500   -1.4470 O   0  0  0  0  0  0  0  0  0  0  0  0
    1.1460   14.0400   -1.6730 C   0  0  0  0  0  0  0  0  0  0  0  0
    0.0140   14.2740   -2.7030 C   0  0  0  0  0  0  0  0  0  0  0  0
    1.1500   15.2830   -0.7420 C   0  0  0  0  0  0  0  0  0  0  0  0
    0.8460   10.0570   -0.9660 C   0  0  1  0  0  0  0  0  0  0  0  0
    2.1400    9.6290   -0.2100 C   0  0  0  0  0  0  0  0  0  0  0  0
    0.5420    8.9170   -2.0090 C   0  0  0  0  0  0  0  0  0  0  0  0
   -0.9270    8.7390   -2.4360 C   0  0  0  0  0  0  0  0  0  0  0  0
   -1.8500    8.6770   -1.2150 C   0  0  2  0  0  0  0  0  0  0  0  0
   -1.4530    7.4130   -0.3790 C   0  0  0  0  0  0  0  0  0  0  0  0
   -4.9521    6.7182   -3.7776 H   0  0  0  0  0  0  0  0  0  0  0  0
   -4.0230    8.2526   -3.8727 H   0  0  0  0  0  0  0  0  0  0  0  0
   -3.1588    6.6778   -3.8727 H   0  0  0  0  0  0  0  0  0  0  0  0
   -3.2765    6.4572   -1.6277 H   0  0  0  0  0  0  0  0  0  0  0  0
   -5.2626    6.1023   -0.7016 H   0  0  0  0  0  0  0  0  0  0  0  0
   -5.5245    7.9109   -0.6538 H   0  0  0  0  0  0  0  0  0  0  0  0
   -6.2160    7.4880   -3.1885 H   0  0  0  0  0  0  0  0  0  0  0  0
   -6.6096    5.8498   -2.5190 H   0  0  0  0  0  0  0  0  0  0  0  0
   -7.5159    8.4586   -2.0672 H   0  0  0  0  0  0  0  0  0  0  0  0
   -9.1565    4.5385   -1.4135 H   0  0  0  0  0  0  0  0  0  0  0  0
  -10.0228    5.1596   -2.8593 H   0  0  0  0  0  0  0  0  0  0  0  0
   -8.2291    5.0640   -2.8593 H   0  0  0  0  0  0  0  0  0  0  0  0
  -10.5870    7.5374   -0.5152 H   0  0  0  0  0  0  0  0  0  0  0  0
  -10.2406    8.3743   -2.0664 H   0  0  0  0  0  0  0  0  0  0  0  0
  -11.1369    6.8176   -2.0664 H   0  0  0  0  0  0  0  0  0  0  0  0
   -3.6191    9.2221   -2.3766 H   0  0  0  0  0  0  0  0  0  0  0  0
   -4.8256    9.7936   -0.3625 H   0  0  0  0  0  0  0  0  0  0  0  0
   -4.3850    8.2644    0.4276 H   0  0  0  0  0  0  0  0  0  0  0  0
   -3.2218   10.8152    0.9814 H   0  0  0  0  0  0  0  0  0  0  0  0
   -2.5218    9.2801    1.4879 H   0  0  0  0  0  0  0  0  0  0  0  0
   -2.4551   12.1053   -0.5730 H   0  0  0  0  0  0  0  0  0  0  0  0
   -1.3385   11.6233   -1.8949 H   0  0  0  0  0  0  0  0  0  0  0  0
   -3.0364   11.0370   -1.8949 H   0  0  0  0  0  0  0  0  0  0  0  0
   -0.2044    9.3182    0.7884 H   0  0  0  0  0  0  0  0  0  0  0  0
   -1.0135   11.6476    1.5347 H   0  0  0  0  0  0  0  0  0  0  0  0
    0.7506   11.1507    1.7096 H   0  0  0  0  0  0  0  0  0  0  0  0
    0.3091   13.6054    0.8640 H   0  0  0  0  0  0  0  0  0  0  0  0
    0.3148   11.3993   -2.5181 H   0  0  0  0  0  0  0  0  0  0  0  0
    3.2645   11.4467   -1.6284 H   0  0  0  0  0  0  0  0  0  0  0  0
    2.5770   10.6058   -3.0882 H   0  0  0  0  0  0  0  0  0  0  0  0
    3.7117   12.7246   -3.6764 H   0  0  0  0  0  0  0  0  0  0  0  0
    1.9453   12.7402   -4.0580 H   0  0  0  0  0  0  0  0  0  0  0  0
    2.5416   14.8506   -3.0846 H   0  0  0  0  0  0  0  0  0  0  0  0
    3.8990   14.9680   -1.4250 H   0  0  0  0  0  0  0  0  0  0  0  0
   -0.9297   14.4691   -2.1726 H   0  0  0  0  0  0  0  0  0  0  0  0
    0.2656   15.1391   -3.3341 H   0  0  0  0  0  0  0  0  0  0  0  0
   -0.0981   13.3800   -3.3341 H   0  0  0  0  0  0  0  0  0  0  0  0
    1.1489   14.9548    0.3079 H   0  0  0  0  0  0  0  0  0  0  0  0
    2.0501   15.8844   -0.9372 H   0  0  0  0  0  0  0  0  0  0  0  0
    0.2538   15.8902   -0.9372 H   0  0  0  0  0  0  0  0  0  0  0  0
    1.9668    9.6863    0.8748 H   0  0  0  0  0  0  0  0  0  0  0  0
    2.4012    8.5966   -0.4856 H   0  0  0  0  0  0  0  0  0  0  0  0
    2.9653   10.3020   -0.4856 H   0  0  0  0  0  0  0  0  0  0  0  0
    1.1282    9.1301   -2.9150 H   0  0  0  0  0  0  0  0  0  0  0  0
    0.8080    7.9805   -1.4969 H   0  0  0  0  0  0  0  0  0  0  0  0
   -1.2234    9.5890   -3.0682 H   0  0  0  0  0  0  0  0  0  0  0  0
   -1.0182    7.7946   -2.9925 H   0  0  0  0  0  0  0  0  0  0  0  0
   -1.5259    7.6452    0.6937 H   0  0  0  0  0  0  0  0  0  0  0  0
   -2.1340    6.5840   -0.6219 H   0  0  0  0  0  0  0  0  0  0  0  0
   -0.4203    7.1223   -0.6219 H   0  0  0  0  0  0  0  0  0  0  0  0
  1  2  1  0
  2  3  1  0
  3  4  1  0
  4  5  1  0
  5  6  1  0
  6  7  1  0
  7  8  1  0
  7  9  1  0
  2 10  1  0
 10 11  1  0
 11 12  1  0
 12 13  1  0
 13 14  1  6
 13 15  1  0
 15 16  1  0
 16 17  1  0
 17 18  2  0
 18 19  1  0
 19 20  1  0
 20 21  1  0
 21 22  1  0
 22 23  1  0
 22 24  1  0
 24 25  1  0
 24 26  1  0
 19 27  1  0
 27 28  1  1
 27 29  1  0
 29 30  1  0
 30 31  1  0
 31 32  1  1
  7  5  1  0
 31 10  1  0
 31 13  1  0
 27 15  1  0
 24 18  1  0
  1 33  1  0
  1 34  1  0
  1 35  1  0
  2 36  1  1
  3 37  1  0
  3 38  1  0
  4 39  1  0
  4 40  1  0
  5 41  1  1
  8 42  1  0
  8 43  1  0
  8 44  1  0
  9 45  1  0
  9 46  1  0
  9 47  1  0
 10 48  1  6
 11 49  1  0
 11 50  1  0
 12 51  1  0
 12 52  1  0
 14 53  1  0
 14 54  1  0
 14 55  1  0
 15 56  1  1
 16 57  1  0
 16 58  1  0
 17 59  1  0
 19 60  1  6
 20 61  1  0
 20 62  1  0
 21 63  1  0
 21 64  1  0
 22 65  1  6
 23 66  1  0
 25 67  1  0
 25 68  1  0
 25 69  1  0
 26 70  1  0
 26 71  1  0
 26 72  1  0
 28 73  1  0
 28 74  1  0
 28 75  1  0
 29 76  1  0
 29 77  1  0
 30 78  1  0
 30 79  1  0
 32 80  1  0
 32 81  1  0
 32 82  1  0
M  END
>  <meeko>  (14) 
{"is_sidechain": [false], "intermolecular_energy": 2.731, "internal_energy": -0.839}

$$$$
EPH_relaxed_0001_pdb2pqr_Repair_47_r2_0001_out
     RDKit          3D

 82 86  0  0  0  0  0  0  0  0999 V2000
    0.5230   18.9490   -2.4420 C   0  0  0  0  0  0  0  0  0  0  0  0
    0.0660   17.9430   -1.3820 C   0  0  2  0  0  0  0  0  0  0  0  0
    0.5940   18.2990    0.0220 C   0  0  0  0  0  0  0  0  0  0  0  0
    1.4670   19.5570    0.0510 C   0  0  0  0  0  0  0  0  0  0  0  0
    2.4540   19.5200    1.1780 C   0  0  2  0  0  0  0  0  0  0  0  0
    3.6910   20.1940    0.9120 O   0  0  0  0  0  0  0  0  0  0  0  0
    3.7730   18.7730    1.1110 C   0  0  0  0  0  0  0  0  0  0  0  0
    4.1760   18.0090   -0.1120 C   0  0  0  0  0  0  0  0  0  0  0  0
    4.4390   18.3810    2.3930 C   0  0  0  0  0  0  0  0  0  0  0  0
    0.5170   16.5400   -1.7680 C   0  0  1  0  0  0  0  0  0  0  0  0
    1.9420   16.5190   -2.3820 C   0  0  0  0  0  0  0  0  0  0  0  0
    2.6080   15.1970   -1.9210 C   0  0  0  0  0  0  0  0  0  0  0  0
    1.4470   14.3560   -1.3420 C   0  0  1  0  0  0  0  0  0  0  0  0
    0.7530   13.7190   -2.5870 C   0  0  0  0  0  0  0  0  0  0  0  0
    1.8380   13.2740   -0.2830 C   0  0  2  0  0  0  0  0  0  0  0  0
    2.7680   12.1630   -0.7990 C   0  0  0  0  0  0  0  0  0  0  0  0
    2.0790   10.9620   -1.3580 C   0  0  0  0  0  0  0  0  0  0  0  0
    0.7800   10.6550   -1.1870 C   0  0  0  0  0  0  0  0  0  0  0  0
   -0.1180   11.5090   -0.2810 C   0  0  1  0  0  0  0  0  0  0  0  0
   -0.9490   10.5820    0.6450 C   0  0  0  0  0  0  0  0  0  0  0  0
   -1.7340    9.5300   -0.1320 C   0  0  0  0  0  0  0  0  0  0  0  0
   -0.8010    8.6650   -0.9750 C   0  0  2  0  0  0  0  0  0  0  0  0
    0.0230    7.8890   -0.1000 O   0  0  0  0  0  0  0  0  0  0  0  0
    0.0940    9.4900   -1.9410 C   0  0  0  0  0  0  0  0  0  0  0  0
   -0.7770   10.0890   -3.0730 C   0  0  0  0  0  0  0  0  0  0  0  0
    1.0840    8.5110   -2.6270 C   0  0  0  0  0  0  0  0  0  0  0  0
    0.6100   12.6750    0.5160 C   0  0  1  0  0  0  0  0  0  0  0  0
    1.1780   12.1270    1.8600 C   0  0  0  0  0  0  0  0  0  0  0  0
   -0.4500   13.7760    0.8970 C   0  0  0  0  0  0  0  0  0  0  0  0
   -0.7050   14.8850   -0.1420 C   0  0  0  0  0  0  0  0  0  0  0  0
    0.6140   15.4870   -0.6360 C   0  0  2  0  0  0  0  0  0  0  0  0
    1.3240   16.1540    0.5910 C   0  0  0  0  0  0  0  0  0  0  0  0
    0.9294   19.8436   -1.9474 H   0  0  0  0  0  0  0  0  0  0  0  0
    1.3017   18.4916   -3.0700 H   0  0  0  0  0  0  0  0  0  0  0  0
   -0.3338   19.2345   -3.0700 H   0  0  0  0  0  0  0  0  0  0  0  0
   -1.0326   17.9817   -1.3410 H   0  0  0  0  0  0  0  0  0  0  0  0
   -0.2677   18.4589    0.6868 H   0  0  0  0  0  0  0  0  0  0  0  0
    1.2269   17.4610    0.3493 H   0  0  0  0  0  0  0  0  0  0  0  0
    2.0144   19.6332   -0.9001 H   0  0  0  0  0  0  0  0  0  0  0  0
    0.8103   20.4271    0.1983 H   0  0  0  0  0  0  0  0  0  0  0  0
    1.6423   19.5181    1.9203 H   0  0  0  0  0  0  0  0  0  0  0  0
    4.6699   17.0726    0.1868 H   0  0  0  0  0  0  0  0  0  0  0  0
    3.2827   17.7775   -0.7106 H   0  0  0  0  0  0  0  0  0  0  0  0
    4.8715   18.6156   -0.7106 H   0  0  0  0  0  0  0  0  0  0  0  0
    3.8367   18.7355    3.2424 H   0  0  0  0  0  0  0  0  0  0  0  0
    4.5293   17.2857    2.4393 H   0  0  0  0  0  0  0  0  0  0  0  0
    5.4404   18.8337    2.4393 H   0  0  0  0  0  0  0  0  0  0  0  0
   -0.2920   16.2711   -2.4631 H   0  0  0  0  0  0  0  0  0  0  0  0
    1.8819   16.5502   -3.4799 H   0  0  0  0  0  0  0  0  0  0  0  0
    2.5265   17.3912   -2.0538 H   0  0  0  0  0  0  0  0  0  0  0  0
    3.0749   14.6800   -2.7723 H   0  0  0  0  0  0  0  0  0  0  0  0
    3.4071   15.3674   -1.1845 H   0  0  0  0  0  0  0  0  0  0  0  0
   -0.0193   13.0102   -2.2536 H   0  0  0  0  0  0  0  0  0  0  0  0
    0.2873   14.5107   -3.1923 H   0  0  0  0  0  0  0  0  0  0  0  0
    1.5020   13.1873   -3.1923 H   0  0  0  0  0  0  0  0  0  0  0  0
    2.4349   13.8534    0.4368 H   0  0  0  0  0  0  0  0  0  0  0  0
    3.4014   12.5904   -1.5903 H   0  0  0  0  0  0  0  0  0  0  0  0
    3.3336   11.8094    0.0757 H   0  0  0  0  0  0  0  0  0  0  0  0
    2.6847   10.2694   -1.9608 H   0  0  0  0  0  0  0  0  0  0  0  0
   -0.7890   12.0642   -0.9529 H   0  0  0  0  0  0  0  0  0  0  0  0
   -0.2647   10.0707    1.3380 H   0  0  0  0  0  0  0  0  0  0  0  0
   -1.6745   11.2105    1.1823 H   0  0  0  0  0  0  0  0  0  0  0  0
   -2.2762    8.8882    0.5781 H   0  0  0  0  0  0  0  0  0  0  0  0
   -2.4389   10.0427   -0.8030 H   0  0  0  0  0  0  0  0  0  0  0  0
   -1.4297    8.0193   -1.6057 H   0  0  0  0  0  0  0  0  0  0  0  0
   -0.3610    6.9970   -0.0480 H   0  0  0  0  0  0  0  0  0  0  0  0
   -1.6077   10.6603   -2.6332 H   0  0  0  0  0  0  0  0  0  0  0  0
   -0.1620   10.7561   -3.6949 H   0  0  0  0  0  0  0  0  0  0  0  0
   -1.1799    9.2760   -3.6949 H   0  0  0  0  0  0  0  0  0  0  0  0
    1.6438    7.9574   -1.8588 H   0  0  0  0  0  0  0  0  0  0  0  0
    0.5234    7.8023   -3.2542 H   0  0  0  0  0  0  0  0  0  0  0  0
    1.7864    9.0795   -3.2542 H   0  0  0  0  0  0  0  0  0  0  0  0
    0.6680   12.6190    2.7013 H   0  0  0  0  0  0  0  0  0  0  0  0
    1.0098   11.0413    1.9136 H   0  0  0  0  0  0  0  0  0  0  0  0
    2.2570   12.3340    1.9136 H   0  0  0  0  0  0  0  0  0  0  0  0
   -1.4073   13.2664    1.0814 H   0  0  0  0  0  0  0  0  0  0  0  0
   -0.0265   14.2926    1.7709 H   0  0  0  0  0  0  0  0  0  0  0  0
   -1.2487   14.4583   -0.9978 H   0  0  0  0  0  0  0  0  0  0  0  0
   -1.2978   15.6808    0.3326 H   0  0  0  0  0  0  0  0  0  0  0  0
    0.8982   15.7540    1.5230 H   0  0  0  0  0  0  0  0  0  0  0  0
    2.4011   15.9336    0.5557 H   0  0  0  0  0  0  0  0  0  0  0  0
    1.1712   17.2428    0.5557 H   0  0  0  0  0  0  0  0  0  0  0  0
  1  2  1  0
  2  3  1  0
  3  4  1  0
  4  5  1  0
  5  6  1  0
  6  7  1  0
  7  8  1  0
  7  9  1  0
  2 10  1  0
 10 11  1  0
 11 12  1  0
 12 13  1  0
 13 14  1  6
 13 15  1  0
 15 16  1  0
 16 17  1  0
 17 18  2  0
 18 19  1  0
 19 20  1  0
 20 21  1  0
 21 22  1  0
 22 23  1  0
 22 24  1  0
 24 25  1  0
 24 26  1  0
 19 27  1  0
 27 28  1  1
 27 29  1  0
 29 30  1  0
 30 31  1  0
 31 32  1  1
  7  5  1  0
 31 10  1  0
 31 13  1  0
 27 15  1  0
 24 18  1  0
  1 33  1  0
  1 34  1  0
  1 35  1  0
  2 36  1  1
  3 37  1  0
  3 38  1  0
  4 39  1  0
  4 40  1  0
  5 41  1  1
  8 42  1  0
  8 43  1  0
  8 44  1  0
  9 45  1  0
  9 46  1  0
  9 47  1  0
 10 48  1  6
 11 49  1  0
 11 50  1  0
 12 51  1  0
 12 52  1  0
 14 53  1  0
 14 54  1  0
 14 55  1  0
 15 56  1  1
 16 57  1  0
 16 58  1  0
 17 59  1  0
 19 60  1  6
 20 61  1  0
 20 62  1  0
 21 63  1  0
 21 64  1  0
 22 65  1  6
 23 66  1  0
 25 67  1  0
 25 68  1  0
 25 69  1  0
 26 70  1  0
 26 71  1  0
 26 72  1  0
 28 73  1  0
 28 74  1  0
 28 75  1  0
 29 76  1  0
 29 77  1  0
 30 78  1  0
 30 79  1  0
 32 80  1  0
 32 81  1  0
 32 82  1  0
M  END
>  <meeko>  (15) 
{"is_sidechain": [false], "intermolecular_energy": 2.731, "internal_energy": -0.839}

$$$$
EPH_relaxed_0001_pdb2pqr_Repair_47_r2_0001_out
     RDKit          3D

 82 86  0  0  0  0  0  0  0  0999 V2000
   -1.9960    7.7770   -2.2180 C   0  0  0  0  0  0  0  0  0  0  0  0
   -2.2110    8.4630   -0.8660 C   0  0  2  0  0  0  0  0  0  0  0  0
   -3.6940    8.4620   -0.4440 C   0  0  0  0  0  0  0  0  0  0  0  0
   -4.5480    7.4380   -1.1970 C   0  0  0  0  0  0  0  0  0  0  0  0
   -5.9860    7.8570   -1.2630 C   0  0  2  0  0  0  0  0  0  0  0  0
   -6.9130    6.8960   -0.7410 O   0  0  0  0  0  0  0  0  0  0  0  0
   -7.0150    7.1770   -2.1460 C   0  0  0  0  0  0  0  0  0  0  0  0
   -6.6490    6.0230   -3.0260 C   0  0  0  0  0  0  0  0  0  0  0  0
   -8.2500    7.9370   -2.5200 C   0  0  0  0  0  0  0  0  0  0  0  0
   -1.6850    9.8920   -0.9190 C   0  0  1  0  0  0  0  0  0  0  0  0
   -1.2500   10.4210    0.4740 C   0  0  0  0  0  0  0  0  0  0  0  0
   -0.0280   11.3460    0.2400 C   0  0  0  0  0  0  0  0  0  0  0  0
   -0.0060   11.5840   -1.2890 C   0  0  1  0  0  0  0  0  0  0  0  0
   -1.0630   12.7060   -1.5350 C   0  0  0  0  0  0  0  0  0  0  0  0
    1.3800   11.9500   -1.9110 C   0  0  2  0  0  0  0  0  0  0  0  0
    1.9950   13.2670   -1.4060 C   0  0  0  0  0  0  0  0  0  0  0  0
    1.6350   14.4820   -2.1950 C   0  0  0  0  0  0  0  0  0  0  0  0
    1.0870   14.4830   -3.4240 C   0  0  0  0  0  0  0  0  0  0  0  0
    0.8630   13.1710   -4.1880 C   0  0  1  0  0  0  0  0  0  0  0  0
    1.3610   13.3300   -5.6480 C   0  0  0  0  0  0  0  0  0  0  0  0
    0.7340   14.5290   -6.3520 C   0  0  0  0  0  0  0  0  0  0  0  0
    1.0280   15.8220   -5.5950 C   0  0  2  0  0  0  0  0  0  0  0  0
    2.4320   16.0880   -5.6650 O   0  0  0  0  0  0  0  0  0  0  0  0
    0.5780   15.7760   -4.1080 C   0  0  0  0  0  0  0  0  0  0  0  0
   -0.9680   15.7900   -4.0310 C   0  0  0  0  0  0  0  0  0  0  0  0
    1.0590   17.0840   -3.4230 C   0  0  0  0  0  0  0  0  0  0  0  0
    1.4260   11.8580   -3.4900 C   0  0  1  0  0  0  0  0  0  0  0  0
    2.9210   11.6480   -3.8810 C   0  0  0  0  0  0  0  0  0  0  0  0
    0.6440   10.6080   -4.0400 C   0  0  0  0  0  0  0  0  0  0  0  0
   -0.6570   10.2250   -3.3090 C   0  0  0  0  0  0  0  0  0  0  0  0
   -0.4350   10.1580   -1.7940 C   0  0  2  0  0  0  0  0  0  0  0  0
    0.6080    9.0220   -1.5140 C   0  0  0  0  0  0  0  0  0  0  0  0
   -1.6707    6.7390   -2.0548 H   0  0  0  0  0  0  0  0  0  0  0  0
   -2.9385    7.7810   -2.7852 H   0  0  0  0  0  0  0  0  0  0  0  0
   -1.2244    8.3182   -2.7852 H   0  0  0  0  0  0  0  0  0  0  0  0
   -1.6529    7.8896   -0.1112 H   0  0  0  0  0  0  0  0  0  0  0  0
   -3.7489    8.2363    0.6312 H   0  0  0  0  0  0  0  0  0  0  0  0
   -4.0974    9.4565   -0.6855 H   0  0  0  0  0  0  0  0  0  0  0  0
   -4.1596    7.3338   -2.2209 H   0  0  0  0  0  0  0  0  0  0  0  0
   -4.4938    6.4819   -0.6558 H   0  0  0  0  0  0  0  0  0  0  0  0
   -5.7095    8.9135   -1.1315 H   0  0  0  0  0  0  0  0  0  0  0  0
   -6.3750    5.1590   -2.4027 H   0  0  0  0  0  0  0  0  0  0  0  0
   -7.5076    5.7594   -3.6610 H   0  0  0  0  0  0  0  0  0  0  0  0
   -5.7954    6.3024   -3.6610 H   0  0  0  0  0  0  0  0  0  0  0  0
   -8.7730    8.2588   -1.6073 H   0  0  0  0  0  0  0  0  0  0  0  0
   -7.9714    8.8201   -3.1137 H   0  0  0  0  0  0  0  0  0  0  0  0
   -8.9128    7.2903   -3.1137 H   0  0  0  0  0  0  0  0  0  0  0  0
   -2.5619   10.3946   -1.3530 H   0  0  0  0  0  0  0  0  0  0  0  0
   -2.0710   10.9880    0.9371 H   0  0  0  0  0  0  0  0  0  0  0  0
   -0.9935    9.5912    1.1490 H   0  0  0  0  0  0  0  0  0  0  0  0
   -0.1517   12.2967    0.7793 H   0  0  0  0  0  0  0  0  0  0  0  0
    0.9087   10.9006    0.6065 H   0  0  0  0  0  0  0  0  0  0  0  0
   -1.4234   13.0885   -0.5687 H   0  0  0  0  0  0  0  0  0  0  0  0
   -0.6015   13.5259   -2.1049 H   0  0  0  0  0  0  0  0  0  0  0  0
   -1.9090   12.2942   -2.1049 H   0  0  0  0  0  0  0  0  0  0  0  0
    2.0300   11.1506   -1.5257 H   0  0  0  0  0  0  0  0  0  0  0  0
    1.6605   13.4231   -0.3698 H   0  0  0  0  0  0  0  0  0  0  0  0
    3.0845   13.1518   -1.5043 H   0  0  0  0  0  0  0  0  0  0  0  0
    1.8347   15.4598   -1.7323 H   0  0  0  0  0  0  0  0  0  0  0  0
   -0.2231   12.9969   -4.1818 H   0  0  0  0  0  0  0  0  0  0  0  0
    2.4533   13.4596   -5.6359 H   0  0  0  0  0  0  0  0  0  0  0  0
    1.0669   12.4261   -6.2016 H   0  0  0  0  0  0  0  0  0  0  0  0
    1.1465   14.6055   -7.3688 H   0  0  0  0  0  0  0  0  0  0  0  0
   -0.3558   14.3839   -6.3887 H   0  0  0  0  0  0  0  0  0  0  0  0
    0.4477   16.6245   -6.0738 H   0  0  0  0  0  0  0  0  0  0  0  0
    2.8940   15.2330   -5.6760 H   0  0  0  0  0  0  0  0  0  0  0  0
   -1.2826   15.7928   -2.9770 H   0  0  0  0  0  0  0  0  0  0  0  0
   -1.3519   16.6917   -4.5307 H   0  0  0  0  0  0  0  0  0  0  0  0
   -1.3681   14.8954   -4.5307 H   0  0  0  0  0  0  0  0  0  0  0  0
    1.0147   16.9635   -2.3305 H   0  0  0  0  0  0  0  0  0  0  0  0
    2.0945   17.2975   -3.7266 H   0  0  0  0  0  0  0  0  0  0  0  0
    0.4086   17.9175   -3.7266 H   0  0  0  0  0  0  0  0  0  0  0  0
    3.5300   11.5625   -2.9690 H   0  0  0  0  0  0  0  0  0  0  0  0
    3.0188   10.7273   -4.4749 H   0  0  0  0  0  0  0  0  0  0  0  0
    3.2687   12.5061   -4.4749 H   0  0  0  0  0  0  0  0  0  0  0  0
    0.3879   10.8115   -5.0902 H   0  0  0  0  0  0  0  0  0  0  0  0
    1.3215    9.7549   -3.8873 H   0  0  0  0  0  0  0  0  0  0  0  0
   -1.4277   10.9791   -3.5269 H   0  0  0  0  0  0  0  0  0  0  0  0
   -0.9784    9.2336   -3.6608 H   0  0  0  0  0  0  0  0  0  0  0  0
    0.7267    8.8927   -0.4281 H   0  0  0  0  0  0  0  0  0  0  0  0
    0.2531    8.0806   -1.9587 H   0  0  0  0  0  0  0  0  0  0  0  0
    1.5762    9.2954   -1.9587 H   0  0  0  0  0  0  0  0  0  0  0  0
  1  2  1  0
  2  3  1  0
  3  4  1  0
  4  5  1  0
  5  6  1  0
  6  7  1  0
  7  8  1  0
  7  9  1  0
  2 10  1  0
 10 11  1  0
 11 12  1  0
 12 13  1  0
 13 14  1  1
 13 15  1  0
 15 16  1  0
 16 17  1  0
 17 18  2  0
 18 19  1  0
 19 20  1  0
 20 21  1  0
 21 22  1  0
 22 23  1  0
 22 24  1  0
 24 25  1  0
 24 26  1  0
 19 27  1  0
 27 28  1  1
 27 29  1  0
 29 30  1  0
 30 31  1  0
 31 32  1  6
  7  5  1  0
 31 10  1  0
 31 13  1  0
 27 15  1  0
 24 18  1  0
  1 33  1  0
  1 34  1  0
  1 35  1  0
  2 36  1  1
  3 37  1  0
  3 38  1  0
  4 39  1  0
  4 40  1  0
  5 41  1  1
  8 42  1  0
  8 43  1  0
  8 44  1  0
  9 45  1  0
  9 46  1  0
  9 47  1  0
 10 48  1  6
 11 49  1  0
 11 50  1  0
 12 51  1  0
 12 52  1  0
 14 53  1  0
 14 54  1  0
 14 55  1  0
 15 56  1  1
 16 57  1  0
 16 58  1  0
 17 59  1  0
 19 60  1  6
 20 61  1  0
 20 62  1  0
 21 63  1  0
 21 64  1  0
 22 65  1  6
 23 66  1  0
 25 67  1  0
 25 68  1  0
 25 69  1  0
 26 70  1  0
 26 71  1  0
 26 72  1  0
 28 73  1  0
 28 74  1  0
 28 75  1  0
 29 76  1  0
 29 77  1  0
 30 78  1  0
 30 79  1  0
 32 80  1  0
 32 81  1  0
 32 82  1  0
M  END
>  <meeko>  (16) 
{"is_sidechain": [false], "intermolecular_energy": 2.731, "internal_energy": -0.839}

$$$$
EPH_relaxed_0001_pdb2pqr_Repair_47_r2_0001_out
     RDKit          3D

 82 86  0  0  0  0  0  0  0  0999 V2000
    2.8380   11.3660   -5.3660 C   0  0  0  0  0  0  0  0  0  0  0  0
    1.8350   11.0600   -4.2500 C   0  0  2  0  0  0  0  0  0  0  0  0
    0.7150   10.1100   -4.7210 C   0  0  0  0  0  0  0  0  0  0  0  0
   -0.3530    9.8430   -3.6570 C   0  0  0  0  0  0  0  0  0  0  0  0
    0.1890    9.0350   -2.5170 C   0  0  2  0  0  0  0  0  0  0  0  0
   -0.6530    7.9540   -2.0960 O   0  0  0  0  0  0  0  0  0  0  0  0
   -0.4430    9.0050   -1.1380 C   0  0  0  0  0  0  0  0  0  0  0  0
   -1.6730    9.7980   -0.8260 C   0  0  0  0  0  0  0  0  0  0  0  0
    0.4030    8.5980    0.0280 C   0  0  0  0  0  0  0  0  0  0  0  0
    1.2300   12.3570   -3.7250 C   0  0  1  0  0  0  0  0  0  0  0  0
   -0.3090   12.2710   -3.5480 C   0  0  0  0  0  0  0  0  0  0  0  0
   -0.6650   13.1260   -2.3050 C   0  0  0  0  0  0  0  0  0  0  0  0
    0.6180   13.9370   -2.0090 C   0  0  1  0  0  0  0  0  0  0  0  0
    0.5730   15.1380   -3.0040 C   0  0  0  0  0  0  0  0  0  0  0  0
    0.8060   14.4170   -0.5330 C   0  0  2  0  0  0  0  0  0  0  0  0
   -0.2730   15.3880   -0.0200 C   0  0  0  0  0  0  0  0  0  0  0  0
    0.0200   16.8360   -0.2330 C   0  0  0  0  0  0  0  0  0  0  0  0
    1.2210   17.3530   -0.5510 C   0  0  0  0  0  0  0  0  0  0  0  0
    2.4660   16.4600   -0.6320 C   0  0  1  0  0  0  0  0  0  0  0  0
    3.6400   17.1390    0.1210 C   0  0  0  0  0  0  0  0  0  0  0  0
    3.9070   18.5590   -0.3700 C   0  0  0  0  0  0  0  0  0  0  0  0
    2.6640   19.4310   -0.2190 C   0  0  2  0  0  0  0  0  0  0  0  0
    2.3890   19.6050    1.1740 O   0  0  0  0  0  0  0  0  0  0  0  0
    1.4120   18.8420   -0.9290 C   0  0  0  0  0  0  0  0  0  0  0  0
    1.5940   18.9350   -2.4650 C   0  0  0  0  0  0  0  0  0  0  0  0
    0.1970   19.7440   -0.5810 C   0  0  0  0  0  0  0  0  0  0  0  0
    2.2610   14.9440   -0.2030 C   0  0  1  0  0  0  0  0  0  0  0  0
    2.4490   14.7970    1.3380 C   0  0  0  0  0  0  0  0  0  0  0  0
    3.3820   14.0640   -0.8730 C   0  0  0  0  0  0  0  0  0  0  0  0
    3.0870   13.5190   -2.2830 C   0  0  0  0  0  0  0  0  0  0  0  0
    1.7090   12.8540   -2.3370 C   0  0  2  0  0  0  0  0  0  0  0  0
    1.7310   11.6280   -1.3620 C   0  0  0  0  0  0  0  0  0  0  0  0
    3.8010   11.6598   -4.9230 H   0  0  0  0  0  0  0  0  0  0  0  0
    2.9788   10.4699   -5.9883 H   0  0  0  0  0  0  0  0  0  0  0  0
    2.4546   12.1881   -5.9883 H   0  0  0  0  0  0  0  0  0  0  0  0
    2.3827   10.5514   -3.4429 H   0  0  0  0  0  0  0  0  0  0  0  0
    0.2263   10.5575   -5.5990 H   0  0  0  0  0  0  0  0  0  0  0  0
    1.1882    9.1440   -4.9512 H   0  0  0  0  0  0  0  0  0  0  0  0
   -0.7184   10.8055   -3.2696 H   0  0  0  0  0  0  0  0  0  0  0  0
   -1.1677    9.2712   -4.1253 H   0  0  0  0  0  0  0  0  0  0  0  0
    1.2218    9.2126   -2.8513 H   0  0  0  0  0  0  0  0  0  0  0  0
   -1.7927    9.8751    0.2647 H   0  0  0  0  0  0  0  0  0  0  0  0
   -1.5786   10.8058   -1.2567 H   0  0  0  0  0  0  0  0  0  0  0  0
   -2.5519    9.2960   -1.2567 H   0  0  0  0  0  0  0  0  0  0  0  0
   -0.1177    8.8485    0.9640 H   0  0  0  0  0  0  0  0  0  0  0  0
    0.5848    7.5139   -0.0116 H   0  0  0  0  0  0  0  0  0  0  0  0
    1.3636    9.1326   -0.0116 H   0  0  0  0  0  0  0  0  0  0  0  0
    1.5679   13.0488   -4.5106 H   0  0  0  0  0  0  0  0  0  0  0  0
   -0.8156   12.6694   -4.4394 H   0  0  0  0  0  0  0  0  0  0  0  0
   -0.6336   11.2283   -3.4161 H   0  0  0  0  0  0  0  0  0  0  0  0
   -1.5074   13.7984   -2.5245 H   0  0  0  0  0  0  0  0  0  0  0  0
   -0.9751   12.5087   -1.4490 H   0  0  0  0  0  0  0  0  0  0  0  0
    0.5377   16.0811   -2.4390 H   0  0  0  0  0  0  0  0  0  0  0  0
    1.4723   15.1234   -3.6373 H   0  0  0  0  0  0  0  0  0  0  0  0
   -0.3227   15.0562   -3.6373 H   0  0  0  0  0  0  0  0  0  0  0  0
    0.6665   13.4866    0.0370 H   0  0  0  0  0  0  0  0  0  0  0  0
   -1.2155   15.1523   -0.5359 H   0  0  0  0  0  0  0  0  0  0  0  0
   -0.3195   15.2437    1.0695 H   0  0  0  0  0  0  0  0  0  0  0  0
   -0.8172   17.5406   -0.1204 H   0  0  0  0  0  0  0  0  0  0  0  0
    2.7090   16.3732   -1.7013 H   0  0  0  0  0  0  0  0  0  0  0  0
    3.3966   17.1765    1.1931 H   0  0  0  0  0  0  0  0  0  0  0  0
    4.5461   16.5446   -0.0679 H   0  0  0  0  0  0  0  0  0  0  0  0
    4.7268   18.9955    0.2194 H   0  0  0  0  0  0  0  0  0  0  0  0
    4.1791   18.5169   -1.4350 H   0  0  0  0  0  0  0  0  0  0  0  0
    2.8764   20.3945   -0.7054 H   0  0  0  0  0  0  0  0  0  0  0  0
    3.2420   19.6600    1.6380 H   0  0  0  0  0  0  0  0  0  0  0  0
    2.5525   19.4248   -2.6917 H   0  0  0  0  0  0  0  0  0  0  0  0
    1.5880   17.9233   -2.8969 H   0  0  0  0  0  0  0  0  0  0  0  0
    0.7707   19.5229   -2.8969 H   0  0  0  0  0  0  0  0  0  0  0  0
    0.0967   19.8184    0.5119 H   0  0  0  0  0  0  0  0  0  0  0  0
    0.3521   20.7474   -1.0042 H   0  0  0  0  0  0  0  0  0  0  0  0
   -0.7186   19.3051   -1.0042 H   0  0  0  0  0  0  0  0  0  0  0  0
    1.6858   15.3937    1.8591 H   0  0  0  0  0  0  0  0  0  0  0  0
    2.3437   13.7393    1.6210 H   0  0  0  0  0  0  0  0  0  0  0  0
    3.4501   15.1543    1.6210 H   0  0  0  0  0  0  0  0  0  0  0  0
    4.2927   14.6775   -0.9372 H   0  0  0  0  0  0  0  0  0  0  0  0
    3.4700   13.1738   -0.2329 H   0  0  0  0  0  0  0  0  0  0  0  0
    3.1137   14.3503   -3.0028 H   0  0  0  0  0  0  0  0  0  0  0  0
    3.8492   12.7668   -2.5345 H   0  0  0  0  0  0  0  0  0  0  0  0
    1.7246   11.9864   -0.3220 H   0  0  0  0  0  0  0  0  0  0  0  0
    0.8439   11.0023   -1.5397 H   0  0  0  0  0  0  0  0  0  0  0  0
    2.6399   11.0345   -1.5397 H   0  0  0  0  0  0  0  0  0  0  0  0
  1  2  1  0
  2  3  1  0
  3  4  1  0
  4  5  1  0
  5  6  1  0
  6  7  1  0
  7  8  1  0
  7  9  1  0
  2 10  1  0
 10 11  1  0
 11 12  1  0
 12 13  1  0
 13 14  1  6
 13 15  1  0
 15 16  1  0
 16 17  1  0
 17 18  2  0
 18 19  1  0
 19 20  1  0
 20 21  1  0
 21 22  1  0
 22 23  1  0
 22 24  1  0
 24 25  1  0
 24 26  1  0
 19 27  1  0
 27 28  1  1
 27 29  1  0
 29 30  1  0
 30 31  1  0
 31 32  1  1
  7  5  1  0
 31 10  1  0
 31 13  1  0
 27 15  1  0
 24 18  1  0
  1 33  1  0
  1 34  1  0
  1 35  1  0
  2 36  1  1
  3 37  1  0
  3 38  1  0
  4 39  1  0
  4 40  1  0
  5 41  1  1
  8 42  1  0
  8 43  1  0
  8 44  1  0
  9 45  1  0
  9 46  1  0
  9 47  1  0
 10 48  1  6
 11 49  1  0
 11 50  1  0
 12 51  1  0
 12 52  1  0
 14 53  1  0
 14 54  1  0
 14 55  1  0
 15 56  1  1
 16 57  1  0
 16 58  1  0
 17 59  1  0
 19 60  1  6
 20 61  1  0
 20 62  1  0
 21 63  1  0
 21 64  1  0
 22 65  1  6
 23 66  1  0
 25 67  1  0
 25 68  1  0
 25 69  1  0
 26 70  1  0
 26 71  1  0
 26 72  1  0
 28 73  1  0
 28 74  1  0
 28 75  1  0
 29 76  1  0
 29 77  1  0
 30 78  1  0
 30 79  1  0
 32 80  1  0
 32 81  1  0
 32 82  1  0
M  END
>  <meeko>  (17) 
{"is_sidechain": [false], "intermolecular_energy": 2.731, "internal_energy": -0.839}

$$$$
EPH_relaxed_0001_pdb2pqr_Repair_47_r2_0001_out
     RDKit          3D

 82 86  0  0  0  0  0  0  0  0999 V2000
  -13.6660    9.6950    1.4840 C   0  0  0  0  0  0  0  0  0  0  0  0
  -13.1960    9.3150    0.0770 C   0  0  2  0  0  0  0  0  0  0  0  0
  -14.3270    8.6860   -0.7620 C   0  0  0  0  0  0  0  0  0  0  0  0
  -15.2870    9.7130   -1.3680 C   0  0  0  0  0  0  0  0  0  0  0  0
  -14.9640    9.9950   -2.8040 C   0  0  2  0  0  0  0  0  0  0  0  0
  -13.7480   10.7250   -3.0120 O   0  0  0  0  0  0  0  0  0  0  0  0
  -14.9610   11.3890   -3.4020 C   0  0  0  0  0  0  0  0  0  0  0  0
  -15.2870   12.5940   -2.5770 C   0  0  0  0  0  0  0  0  0  0  0  0
  -15.1190   11.5330   -4.8840 C   0  0  0  0  0  0  0  0  0  0  0  0
  -12.0170    8.3530    0.1650 C   0  0  1  0  0  0  0  0  0  0  0  0
  -12.3600    7.0570    0.9460 C   0  0  0  0  0  0  0  0  0  0  0  0
  -11.5710    5.9060    0.2710 C   0  0  0  0  0  0  0  0  0  0  0  0
  -10.5550    6.6180   -0.6520 C   0  0  1  0  0  0  0  0  0  0  0  0
   -9.3830    7.0380    0.2900 C   0  0  0  0  0  0  0  0  0  0  0  0
  -10.0420    5.7970   -1.8800 C   0  0  2  0  0  0  0  0  0  0  0  0
   -9.2650    4.5160   -1.5290 C   0  0  0  0  0  0  0  0  0  0  0  0
   -7.7890    4.6860   -1.3840 C   0  0  0  0  0  0  0  0  0  0  0  0
   -7.0790    5.7500   -1.8030 C   0  0  0  0  0  0  0  0  0  0  0  0
   -7.7500    6.8860   -2.5860 C   0  0  1  0  0  0  0  0  0  0  0  0
   -6.8800    7.2510   -3.8170 C   0  0  0  0  0  0  0  0  0  0  0  0
   -5.4380    7.5750   -3.4400 C   0  0  0  0  0  0  0  0  0  0  0  0
   -4.7860    6.4010   -2.7150 C   0  0  2  0  0  0  0  0  0  0  0  0
   -4.6550    5.3090   -3.6310 O   0  0  0  0  0  0  0  0  0  0  0  0
   -5.5800    5.9380   -1.4610 C   0  0  0  0  0  0  0  0  0  0  0  0
   -5.4660    7.0090   -0.3480 C   0  0  0  0  0  0  0  0  0  0  0  0
   -4.8940    4.6610   -0.9060 C   0  0  0  0  0  0  0  0  0  0  0  0
   -9.2770    6.6600   -2.9630 C   0  0  1  0  0  0  0  0  0  0  0  0
   -9.3830    5.8800   -4.3090 C   0  0  0  0  0  0  0  0  0  0  0  0
   -9.9600    8.0580   -3.2050 C   0  0  0  0  0  0  0  0  0  0  0  0
  -10.5520    8.7650   -1.9710 C   0  0  0  0  0  0  0  0  0  0  0  0
  -11.4400    7.8110   -1.1670 C   0  0  2  0  0  0  0  0  0  0  0  0
  -12.6410    7.3890   -2.0810 C   0  0  0  0  0  0  0  0  0  0  0  0
  -13.0375    9.1869    2.2302 H   0  0  0  0  0  0  0  0  0  0  0  0
  -13.5844   10.7840    1.6162 H   0  0  0  0  0  0  0  0  0  0  0  0
  -14.7137    9.3871    1.6162 H   0  0  0  0  0  0  0  0  0  0  0  0
  -12.8839   10.2404   -0.4292 H   0  0  0  0  0  0  0  0  0  0  0  0
  -13.8724    8.1097   -1.5813 H   0  0  0  0  0  0  0  0  0  0  0  0
  -14.9184    8.0544   -0.0827 H   0  0  0  0  0  0  0  0  0  0  0  0
  -16.3134    9.3227   -1.3036 H   0  0  0  0  0  0  0  0  0  0  0  0
  -15.1856   10.6516   -0.8034 H   0  0  0  0  0  0  0  0  0  0  0  0
  -15.4440    9.0573   -3.1207 H   0  0  0  0  0  0  0  0  0  0  0  0
  -15.2176   12.3373   -1.5096 H   0  0  0  0  0  0  0  0  0  0  0  0
  -14.5746   13.3998   -2.8074 H   0  0  0  0  0  0  0  0  0  0  0  0
  -16.3085   12.9307   -2.8074 H   0  0  0  0  0  0  0  0  0  0  0  0
  -15.9163   12.2597   -5.0988 H   0  0  0  0  0  0  0  0  0  0  0  0
  -14.1734   11.8864   -5.3209 H   0  0  0  0  0  0  0  0  0  0  0  0
  -15.3834   10.5587   -5.3209 H   0  0  0  0  0  0  0  0  0  0  0  0
  -11.2813    9.0080    0.6545 H   0  0  0  0  0  0  0  0  0  0  0  0
  -12.0569    7.1576    1.9986 H   0  0  0  0  0  0  0  0  0  0  0  0
  -13.4418    6.8588    0.9265 H   0  0  0  0  0  0  0  0  0  0  0  0
  -11.0504    5.2976    1.0252 H   0  0  0  0  0  0  0  0  0  0  0  0
  -12.2277    5.2191   -0.2830 H   0  0  0  0  0  0  0  0  0  0  0  0
   -9.6968    6.9255    1.3383 H   0  0  0  0  0  0  0  0  0  0  0  0
   -8.5102    6.3967    0.0977 H   0  0  0  0  0  0  0  0  0  0  0  0
   -9.1162    8.0877    0.0977 H   0  0  0  0  0  0  0  0  0  0  0  0
  -10.9791    5.4592   -2.3466 H   0  0  0  0  0  0  0  0  0  0  0  0
   -9.6580    4.1300   -0.5769 H   0  0  0  0  0  0  0  0  0  0  0  0
   -9.4109    3.8295   -2.3760 H   0  0  0  0  0  0  0  0  0  0  0  0
   -7.2345    3.8727   -0.8930 H   0  0  0  0  0  0  0  0  0  0  0  0
   -7.7994    7.7423   -1.8973 H   0  0  0  0  0  0  0  0  0  0  0  0
   -6.8794    6.3993   -4.5131 H   0  0  0  0  0  0  0  0  0  0  0  0
   -7.3145    8.1506   -4.2774 H   0  0  0  0  0  0  0  0  0  0  0  0
   -4.8676    7.7947   -4.3546 H   0  0  0  0  0  0  0  0  0  0  0  0
   -5.4384    8.4458   -2.7679 H   0  0  0  0  0  0  0  0  0  0  0  0
   -3.8027    6.7396   -2.3566 H   0  0  0  0  0  0  0  0  0  0  0  0
   -5.3920    5.3650   -4.2620 H   0  0  0  0  0  0  0  0  0  0  0  0
   -5.5179    6.5215    0.6367 H   0  0  0  0  0  0  0  0  0  0  0  0
   -4.5065    7.5380   -0.4451 H   0  0  0  0  0  0  0  0  0  0  0  0
   -6.2927    7.7282   -0.4451 H   0  0  0  0  0  0  0  0  0  0  0  0
   -4.9074    4.6860    0.1936 H   0  0  0  0  0  0  0  0  0  0  0  0
   -5.4354    3.7710   -1.2592 H   0  0  0  0  0  0  0  0  0  0  0  0
   -3.8530    4.6210   -1.2592 H   0  0  0  0  0  0  0  0  0  0  0  0
   -9.5285    4.8095   -4.1020 H   0  0  0  0  0  0  0  0  0  0  0  0
  -10.2376    6.2611   -4.8873 H   0  0  0  0  0  0  0  0  0  0  0  0
   -8.4577    6.0192   -4.8873 H   0  0  0  0  0  0  0  0  0  0  0  0
   -9.2033    8.7270   -3.6407 H   0  0  0  0  0  0  0  0  0  0  0  0
  -10.8207    7.8487   -3.8572 H   0  0  0  0  0  0  0  0  0  0  0  0
   -9.7308    9.1185   -1.3302 H   0  0  0  0  0  0  0  0  0  0  0  0
  -11.1655    9.6119   -2.3123 H   0  0  0  0  0  0  0  0  0  0  0  0
  -13.4927    7.0897   -1.4524 H   0  0  0  0  0  0  0  0  0  0  0  0
  -12.9344    8.2379   -2.7161 H   0  0  0  0  0  0  0  0  0  0  0  0
  -12.3389    6.5432   -2.7161 H   0  0  0  0  0  0  0  0  0  0  0  0
  1  2  1  0
  2  3  1  0
  3  4  1  0
  4  5  1  0
  5  6  1  0
  6  7  1  0
  7  8  1  0
  7  9  1  0
  2 10  1  0
 10 11  1  0
 11 12  1  0
 12 13  1  0
 13 14  1  1
 13 15  1  0
 15 16  1  0
 16 17  1  0
 17 18  2  0
 18 19  1  0
 19 20  1  0
 20 21  1  0
 21 22  1  0
 22 23  1  0
 22 24  1  0
 24 25  1  0
 24 26  1  0
 19 27  1  0
 27 28  1  6
 27 29  1  0
 29 30  1  0
 30 31  1  0
 31 32  1  6
  7  5  1  0
 31 10  1  0
 31 13  1  0
 27 15  1  0
 24 18  1  0
  1 33  1  0
  1 34  1  0
  1 35  1  0
  2 36  1  6
  3 37  1  0
  3 38  1  0
  4 39  1  0
  4 40  1  0
  5 41  1  6
  8 42  1  0
  8 43  1  0
  8 44  1  0
  9 45  1  0
  9 46  1  0
  9 47  1  0
 10 48  1  1
 11 49  1  0
 11 50  1  0
 12 51  1  0
 12 52  1  0
 14 53  1  0
 14 54  1  0
 14 55  1  0
 15 56  1  6
 16 57  1  0
 16 58  1  0
 17 59  1  0
 19 60  1  1
 20 61  1  0
 20 62  1  0
 21 63  1  0
 21 64  1  0
 22 65  1  1
 23 66  1  0
 25 67  1  0
 25 68  1  0
 25 69  1  0
 26 70  1  0
 26 71  1  0
 26 72  1  0
 28 73  1  0
 28 74  1  0
 28 75  1  0
 29 76  1  0
 29 77  1  0
 30 78  1  0
 30 79  1  0
 32 80  1  0
 32 81  1  0
 32 82  1  0
M  END
>  <meeko>  (18) 
{"is_sidechain": [false], "intermolecular_energy": 2.731, "internal_energy": -0.839}

$$$$
EPH_relaxed_0001_pdb2pqr_Repair_47_r2_0001_out
     RDKit          3D

 82 86  0  0  0  0  0  0  0  0999 V2000
    1.1760   20.1480   -0.5930 C   0  0  0  0  0  0  0  0  0  0  0  0
    0.9320   19.6460   -2.0190 C   0  0  2  0  0  0  0  0  0  0  0  0
   -0.5700   19.5750   -2.3610 C   0  0  0  0  0  0  0  0  0  0  0  0
   -1.4740   20.1940   -1.2920 C   0  0  0  0  0  0  0  0  0  0  0  0
   -2.1980   19.1450   -0.5030 C   0  0  2  0  0  0  0  0  0  0  0  0
   -2.9120   19.6400    0.6370 O   0  0  0  0  0  0  0  0  0  0  0  0
   -1.8170   18.7520    0.9120 C   0  0  0  0  0  0  0  0  0  0  0  0
   -0.6700   19.4020    1.6210 C   0  0  0  0  0  0  0  0  0  0  0  0
   -2.2420   17.4100    1.4210 C   0  0  0  0  0  0  0  0  0  0  0  0
    1.5740   18.2760   -2.2050 C   0  0  1  0  0  0  0  0  0  0  0  0
    3.1140   18.3080   -2.0160 C   0  0  0  0  0  0  0  0  0  0  0  0
    3.5120   16.9610   -1.3580 C   0  0  0  0  0  0  0  0  0  0  0  0
    2.2520   16.0740   -1.4940 C   0  0  1  0  0  0  0  0  0  0  0  0
    2.3050   15.5220   -2.9530 C   0  0  0  0  0  0  0  0  0  0  0  0
    2.1010   14.9230   -0.4460 C   0  0  2  0  0  0  0  0  0  0  0  0
    3.2100   13.8570   -0.4840 C   0  0  0  0  0  0  0  0  0  0  0  0
    2.9450   12.6940   -1.3820 C   0  0  0  0  0  0  0  0  0  0  0  0
    1.7500   12.3670   -1.9080 C   0  0  0  0  0  0  0  0  0  0  0  0
    0.4850   13.1490   -1.5330 C   0  0  1  0  0  0  0  0  0  0  0  0
   -0.6610   12.1550   -1.2070 C   0  0  0  0  0  0  0  0  0  0  0  0
   -0.9050   11.1550   -2.3340 C   0  0  0  0  0  0  0  0  0  0  0  0
    0.3600   10.3570   -2.6380 C   0  0  2  0  0  0  0  0  0  0  0  0
    0.6640    9.5260   -1.5130 O   0  0  0  0  0  0  0  0  0  0  0  0
    1.5850   11.2530   -2.9710 C   0  0  0  0  0  0  0  0  0  0  0  0
    1.3780   11.9250   -4.3510 C   0  0  0  0  0  0  0  0  0  0  0  0
    2.8260   10.3320   -3.1190 C   0  0  0  0  0  0  0  0  0  0  0  0
    0.6640   14.2620   -0.4120 C   0  0  1  0  0  0  0  0  0  0  0  0
    0.5000   13.6240    1.0010 C   0  0  0  0  0  0  0  0  0  0  0  0
   -0.4880   15.3260   -0.5560 C   0  0  0  0  0  0  0  0  0  0  0  0
   -0.2310   16.5030   -1.5160 C   0  0  0  0  0  0  0  0  0  0  0  0
    1.1310   17.1470   -1.2410 C   0  0  2  0  0  0  0  0  0  0  0  0
    1.1000   17.7310    0.2130 C   0  0  0  0  0  0  0  0  0  0  0  0
    0.8122   19.3996    0.1264 H   0  0  0  0  0  0  0  0  0  0  0  0
    2.2533   20.3099   -0.4406 H   0  0  0  0  0  0  0  0  0  0  0  0
    0.6377   21.0951   -0.4406 H   0  0  0  0  0  0  0  0  0  0  0  0
    1.3933   20.3692   -2.7076 H   0  0  0  0  0  0  0  0  0  0  0  0
   -0.7362   20.1091   -3.3082 H   0  0  0  0  0  0  0  0  0  0  0  0
   -0.8345   18.5094   -2.4282 H   0  0  0  0  0  0  0  0  0  0  0  0
   -0.8567   20.7931   -0.6064 H   0  0  0  0  0  0  0  0  0  0  0  0
   -2.2233   20.8209   -1.7976 H   0  0  0  0  0  0  0  0  0  0  0  0
   -2.3764   18.5508   -1.4113 H   0  0  0  0  0  0  0  0  0  0  0  0
   -0.8164   19.3190    2.7081 H   0  0  0  0  0  0  0  0  0  0  0  0
    0.2674   18.9009    1.3380 H   0  0  0  0  0  0  0  0  0  0  0  0
   -0.6182   20.4637    1.3380 H   0  0  0  0  0  0  0  0  0  0  0  0
   -2.2396   17.4175    2.5210 H   0  0  0  0  0  0  0  0  0  0  0  0
   -3.2556   17.1843    1.0580 H   0  0  0  0  0  0  0  0  0  0  0  0
   -1.5431   16.6420    1.0580 H   0  0  0  0  0  0  0  0  0  0  0  0
    1.2372   18.0509   -3.2277 H   0  0  0  0  0  0  0  0  0  0  0  0
    3.6131   18.4157   -2.9903 H   0  0  0  0  0  0  0  0  0  0  0  0
    3.4174   19.1590   -1.3885 H   0  0  0  0  0  0  0  0  0  0  0  0
    4.3647   16.5081   -1.8851 H   0  0  0  0  0  0  0  0  0  0  0  0
    3.8247   17.0843   -0.3106 H   0  0  0  0  0  0  0  0  0  0  0  0
    2.4101   14.4273   -2.9273 H   0  0  0  0  0  0  0  0  0  0  0  0
    1.3771   15.7890   -3.4800 H   0  0  0  0  0  0  0  0  0  0  0  0
    3.1652   15.9607   -3.4800 H   0  0  0  0  0  0  0  0  0  0  0  0
    2.2300   15.4541    0.5086 H   0  0  0  0  0  0  0  0  0  0  0  0
    4.1373   14.3429   -0.8216 H   0  0  0  0  0  0  0  0  0  0  0  0
    3.2736   13.4470    0.5348 H   0  0  0  0  0  0  0  0  0  0  0  0
    3.7995   12.0493   -1.6354 H   0  0  0  0  0  0  0  0  0  0  0  0
    0.2222   13.7445   -2.4198 H   0  0  0  0  0  0  0  0  0  0  0  0
   -0.3981   11.6005   -0.2941 H   0  0  0  0  0  0  0  0  0  0  0  0
   -1.5830   12.7398   -1.0733 H   0  0  0  0  0  0  0  0  0  0  0  0
   -1.7045   10.4618   -2.0335 H   0  0  0  0  0  0  0  0  0  0  0  0
   -1.1965   11.7092   -3.2384 H   0  0  0  0  0  0  0  0  0  0  0  0
    0.1599    9.7530   -3.5353 H   0  0  0  0  0  0  0  0  0  0  0  0
    0.3990    8.6180   -1.7370 H   0  0  0  0  0  0  0  0  0  0  0  0
    1.0570   12.9672   -4.2069 H   0  0  0  0  0  0  0  0  0  0  0  0
    2.3234   11.9069   -4.9131 H   0  0  0  0  0  0  0  0  0  0  0  0
    0.6067   11.3781   -4.9131 H   0  0  0  0  0  0  0  0  0  0  0  0
    3.1985   10.0556   -2.1216 H   0  0  0  0  0  0  0  0  0  0  0  0
    2.5442    9.4227   -3.6701 H   0  0  0  0  0  0  0  0  0  0  0  0
    3.6147   10.8652   -3.6701 H   0  0  0  0  0  0  0  0  0  0  0  0
    0.6954   14.3843    1.7715 H   0  0  0  0  0  0  0  0  0  0  0  0
   -0.5254   13.2424    1.1142 H   0  0  0  0  0  0  0  0  0  0  0  0
    1.2143   12.7952    1.1142 H   0  0  0  0  0  0  0  0  0  0  0  0
   -1.3860   14.7982   -0.9096 H   0  0  0  0  0  0  0  0  0  0  0  0
   -0.5837   15.7829    0.4400 H   0  0  0  0  0  0  0  0  0  0  0  0
   -0.2519   16.1336   -2.5519 H   0  0  0  0  0  0  0  0  0  0  0  0
   -1.0144   17.2595   -1.3612 H   0  0  0  0  0  0  0  0  0  0  0  0
    1.1437   16.9068    0.9402 H   0  0  0  0  0  0  0  0  0  0  0  0
    1.9641   18.3957    0.3597 H   0  0  0  0  0  0  0  0  0  0  0  0
    0.1704   18.3004    0.3597 H   0  0  0  0  0  0  0  0  0  0  0  0
  1  2  1  0
  2  3  1  0
  3  4  1  0
  4  5  1  0
  5  6  1  0
  6  7  1  0
  7  8  1  0
  7  9  1  0
  2 10  1  0
 10 11  1  0
 11 12  1  0
 12 13  1  0
 13 14  1  6
 13 15  1  0
 15 16  1  0
 16 17  1  0
 17 18  2  0
 18 19  1  0
 19 20  1  0
 20 21  1  0
 21 22  1  0
 22 23  1  0
 22 24  1  0
 24 25  1  0
 24 26  1  0
 19 27  1  0
 27 28  1  1
 27 29  1  0
 29 30  1  0
 30 31  1  0
 31 32  1  1
  7  5  1  0
 31 10  1  0
 31 13  1  0
 27 15  1  0
 24 18  1  0
  1 33  1  0
  1 34  1  0
  1 35  1  0
  2 36  1  6
  3 37  1  0
  3 38  1  0
  4 39  1  0
  4 40  1  0
  5 41  1  6
  8 42  1  0
  8 43  1  0
  8 44  1  0
  9 45  1  0
  9 46  1  0
  9 47  1  0
 10 48  1  6
 11 49  1  0
 11 50  1  0
 12 51  1  0
 12 52  1  0
 14 53  1  0
 14 54  1  0
 14 55  1  0
 15 56  1  1
 16 57  1  0
 16 58  1  0
 17 59  1  0
 19 60  1  6
 20 61  1  0
 20 62  1  0
 21 63  1  0
 21 64  1  0
 22 65  1  6
 23 66  1  0
 25 67  1  0
 25 68  1  0
 25 69  1  0
 26 70  1  0
 26 71  1  0
 26 72  1  0
 28 73  1  0
 28 74  1  0
 28 75  1  0
 29 76  1  0
 29 77  1  0
 30 78  1  0
 30 79  1  0
 32 80  1  0
 32 81  1  0
 32 82  1  0
M  END
>  <meeko>  (19) 
{"is_sidechain": [false], "intermolecular_energy": 2.731, "internal_energy": -0.839}

$$$$
EPH_relaxed_0001_pdb2pqr_Repair_47_r2_0001_out
     RDKit          3D

 82 86  0  0  0  0  0  0  0  0999 V2000
   -0.5810    9.2580   -1.7630 C   0  0  0  0  0  0  0  0  0  0  0  0
    0.4990   10.1520   -2.3790 C   0  0  2  0  0  0  0  0  0  0  0  0
    1.8430    9.4140   -2.5380 C   0  0  0  0  0  0  0  0  0  0  0  0
    2.7290    9.9810   -3.6510 C   0  0  0  0  0  0  0  0  0  0  0  0
    4.1440   10.1640   -3.1950 C   0  0  2  0  0  0  0  0  0  0  0  0
    4.5440   11.5290   -3.0150 O   0  0  0  0  0  0  0  0  0  0  0  0
    5.2240   10.8000   -4.0500 C   0  0  0  0  0  0  0  0  0  0  0  0
    4.9330   11.2940   -5.4330 C   0  0  0  0  0  0  0  0  0  0  0  0
    6.6560   10.5000   -3.7360 C   0  0  0  0  0  0  0  0  0  0  0  0
    0.6880   11.4010   -1.5250 C   0  0  1  0  0  0  0  0  0  0  0  0
    1.8210   11.2410   -0.4760 C   0  0  0  0  0  0  0  0  0  0  0  0
    2.5010   12.6270   -0.3370 C   0  0  0  0  0  0  0  0  0  0  0  0
    1.5390   13.6060   -1.0500 C   0  0  1  0  0  0  0  0  0  0  0  0
    0.4230   13.9080   -0.0010 C   0  0  0  0  0  0  0  0  0  0  0  0
    2.1780   14.9200   -1.6060 C   0  0  2  0  0  0  0  0  0  0  0  0
    2.7970   15.8460   -0.5440 C   0  0  0  0  0  0  0  0  0  0  0  0
    1.8720   16.8700    0.0250 C   0  0  0  0  0  0  0  0  0  0  0  0
    0.6850   17.2300   -0.4980 C   0  0  0  0  0  0  0  0  0  0  0  0
    0.2080   16.6540   -1.8380 C   0  0  1  0  0  0  0  0  0  0  0  0
   -0.3330   17.8010   -2.7310 C   0  0  0  0  0  0  0  0  0  0  0  0
   -1.4100   18.6270   -2.0340 C   0  0  0  0  0  0  0  0  0  0  0  0
   -0.8800   19.2300   -0.7360 C   0  0  2  0  0  0  0  0  0  0  0  0
    0.1280   20.1950   -1.0540 O   0  0  0  0  0  0  0  0  0  0  0  0
   -0.2990   18.1690    0.2400 C   0  0  0  0  0  0  0  0  0  0  0  0
   -1.4500   17.3100    0.8190 C   0  0  0  0  0  0  0  0  0  0  0  0
    0.3280   18.9220    1.4450 C   0  0  0  0  0  0  0  0  0  0  0  0
    1.2460   15.7240   -2.6010 C   0  0  1  0  0  0  0  0  0  0  0  0
    2.1880   16.5940   -3.4890 C   0  0  0  0  0  0  0  0  0  0  0  0
    0.4610   14.7750   -3.5830 C   0  0  0  0  0  0  0  0  0  0  0  0
   -0.0410   13.4390   -3.0050 C   0  0  0  0  0  0  0  0  0  0  0  0
    1.0780   12.7100   -2.2560 C   0  0  2  0  0  0  0  0  0  0  0  0
    2.2060   12.3730   -3.2910 C   0  0  0  0  0  0  0  0  0  0  0  0
   -0.5182    9.3100   -0.6660 H   0  0  0  0  0  0  0  0  0  0  0  0
   -1.5730    9.6028   -2.0902 H   0  0  0  0  0  0  0  0  0  0  0  0
   -0.4276    8.2191   -2.0902 H   0  0  0  0  0  0  0  0  0  0  0  0
    0.1586   10.4371   -3.3854 H   0  0  0  0  0  0  0  0  0  0  0  0
    2.3921    9.4840   -1.5874 H   0  0  0  0  0  0  0  0  0  0  0  0
    1.6085    8.3748   -2.8119 H   0  0  0  0  0  0  0  0  0  0  0  0
    2.7166    9.2872   -4.5045 H   0  0  0  0  0  0  0  0  0  0  0  0
    2.3313   10.9659   -3.9371 H   0  0  0  0  0  0  0  0  0  0  0  0
    4.1091    9.2189   -2.6333 H   0  0  0  0  0  0  0  0  0  0  0  0
    4.3755   12.2404   -5.3745 H   0  0  0  0  0  0  0  0  0  0  0  0
    5.8787   11.4581   -5.9703 H   0  0  0  0  0  0  0  0  0  0  0  0
    4.3310   10.5464   -5.9703 H   0  0  0  0  0  0  0  0  0  0  0  0
    6.7939   10.4711   -2.6451 H   0  0  0  0  0  0  0  0  0  0  0  0
    6.9292    9.5251   -4.1661 H   0  0  0  0  0  0  0  0  0  0  0  0
    7.2975   11.2832   -4.1661 H   0  0  0  0  0  0  0  0  0  0  0  0
   -0.3244   11.4922   -1.1046 H   0  0  0  0  0  0  0  0  0  0  0  0
    1.4006   10.9267    0.4907 H   0  0  0  0  0  0  0  0  0  0  0  0
    2.5455   10.4755   -0.7909 H   0  0  0  0  0  0  0  0  0  0  0  0
    2.6164   12.8985    0.7227 H   0  0  0  0  0  0  0  0  0  0  0  0
    3.5108   12.6422   -0.7730 H   0  0  0  0  0  0  0  0  0  0  0  0
    0.8336   13.7969    1.0134 H   0  0  0  0  0  0  0  0  0  0  0  0
    0.0591   14.9369   -0.1386 H   0  0  0  0  0  0  0  0  0  0  0  0
   -0.4101   13.2030   -0.1386 H   0  0  0  0  0  0  0  0  0  0  0  0
    3.0229   14.5380   -2.1978 H   0  0  0  0  0  0  0  0  0  0  0  0
    3.1607   15.2191    0.2835 H   0  0  0  0  0  0  0  0  0  0  0  0
    3.5940   16.4059   -1.0552 H   0  0  0  0  0  0  0  0  0  0  0  0
    2.1872   17.3735    0.9508 H   0  0  0  0  0  0  0  0  0  0  0  0
   -0.6054   15.9540   -1.5964 H   0  0  0  0  0  0  0  0  0  0  0  0
    0.5029   18.4645   -2.9976 H   0  0  0  0  0  0  0  0  0  0  0  0
   -0.7874   17.3441   -3.6225 H   0  0  0  0  0  0  0  0  0  0  0  0
   -1.7307   19.4388   -2.7035 H   0  0  0  0  0  0  0  0  0  0  0  0
   -2.2578   17.9683   -1.7947 H   0  0  0  0  0  0  0  0  0  0  0  0
   -1.7299   19.6992   -0.2188 H   0  0  0  0  0  0  0  0  0  0  0  0
    0.9500   19.7100   -1.2440 H   0  0  0  0  0  0  0  0  0  0  0  0
   -1.4118   17.3385    1.9180 H   0  0  0  0  0  0  0  0  0  0  0  0
   -2.4151   17.7104    0.4752 H   0  0  0  0  0  0  0  0  0  0  0  0
   -1.3407   16.2708    0.4752 H   0  0  0  0  0  0  0  0  0  0  0  0
   -0.0389   18.4814    2.3838 H   0  0  0  0  0  0  0  0  0  0  0  0
    1.4237   18.8342    1.4023 H   0  0  0  0  0  0  0  0  0  0  0  0
    0.0433   19.9837    1.4023 H   0  0  0  0  0  0  0  0  0  0  0  0
    2.8432   17.1991   -2.8451 H   0  0  0  0  0  0  0  0  0  0  0  0
    2.8019   15.9384   -4.1241 H   0  0  0  0  0  0  0  0  0  0  0  0
    1.5832   17.2580   -4.1241 H   0  0  0  0  0  0  0  0  0  0  0  0
   -0.4155   15.3286   -3.9510 H   0  0  0  0  0  0  0  0  0  0  0  0
    1.1900   14.4971   -4.3585 H   0  0  0  0  0  0  0  0  0  0  0  0
   -0.8699   13.6368   -2.3094 H   0  0  0  0  0  0  0  0  0  0  0  0
   -0.3788   12.8025   -3.8361 H   0  0  0  0  0  0  0  0  0  0  0  0
    3.1260   12.0982   -2.7542 H   0  0  0  0  0  0  0  0  0  0  0  0
    1.8847   11.5316   -3.9225 H   0  0  0  0  0  0  0  0  0  0  0  0
    2.3989   13.2527   -3.9225 H   0  0  0  0  0  0  0  0  0  0  0  0
  1  2  1  0
  2  3  1  0
  3  4  1  0
  4  5  1  0
  5  6  1  0
  6  7  1  0
  7  8  1  0
  7  9  1  0
  2 10  1  0
 10 11  1  0
 11 12  1  0
 12 13  1  0
 13 14  1  1
 13 15  1  0
 15 16  1  0
 16 17  1  0
 17 18  2  0
 18 19  1  0
 19 20  1  0
 20 21  1  0
 21 22  1  0
 22 23  1  0
 22 24  1  0
 24 25  1  0
 24 26  1  0
 19 27  1  0
 27 28  1  6
 27 29  1  0
 29 30  1  0
 30 31  1  0
 31 32  1  6
  7  5  1  0
 31 10  1  0
 31 13  1  0
 27 15  1  0
 24 18  1  0
  1 33  1  0
  1 34  1  0
  1 35  1  0
  2 36  1  6
  3 37  1  0
  3 38  1  0
  4 39  1  0
  4 40  1  0
  5 41  1  1
  8 42  1  0
  8 43  1  0
  8 44  1  0
  9 45  1  0
  9 46  1  0
  9 47  1  0
 10 48  1  1
 11 49  1  0
 11 50  1  0
 12 51  1  0
 12 52  1  0
 14 53  1  0
 14 54  1  0
 14 55  1  0
 15 56  1  6
 16 57  1  0
 16 58  1  0
 17 59  1  0
 19 60  1  1
 20 61  1  0
 20 62  1  0
 21 63  1  0
 21 64  1  0
 22 65  1  1
 23 66  1  0
 25 67  1  0
 25 68  1  0
 25 69  1  0
 26 70  1  0
 26 71  1  0
 26 72  1  0
 28 73  1  0
 28 74  1  0
 28 75  1  0
 29 76  1  0
 29 77  1  0
 30 78  1  0
 30 79  1  0
 32 80  1  0
 32 81  1  0
 32 82  1  0
M  END
>  <meeko>  (20) 
{"is_sidechain": [false], "intermolecular_energy": 2.731, "internal_energy": -0.839}

$$$$
