EPH_relaxed_0001_pdb2pqr_Repair_85_r2_0001_out
     RDKit          3D

 82 86  0  0  0  0  0  0  0  0999 V2000
    4.2540   17.5800   -0.5700 C   0  0  0  0  0  0  0  0  0  0  0  0
    2.8920   18.1540   -0.1710 C   0  0  2  0  0  0  0  0  0  0  0  0
    2.9360   18.8510    1.2030 C   0  0  0  0  0  0  0  0  0  0  0  0
    4.2670   18.6790    1.9390 C   0  0  0  0  0  0  0  0  0  0  0  0
    4.1980   19.2030    3.3410 C   0  0  2  0  0  0  0  0  0  0  0  0
    5.1850   20.1930    3.6590 O   0  0  0  0  0  0  0  0  0  0  0  0
    5.2750   18.9550    4.3810 C   0  0  0  0  0  0  0  0  0  0  0  0
    6.4970   18.1510    4.0630 C   0  0  0  0  0  0  0  0  0  0  0  0
    4.9120   19.0740    5.8290 C   0  0  0  0  0  0  0  0  0  0  0  0
    1.8440   17.0470   -0.1610 C   0  0  1  0  0  0  0  0  0  0  0  0
    0.4140   17.5750   -0.4520 C   0  0  0  0  0  0  0  0  0  0  0  0
   -0.3150   16.4700   -1.2590 C   0  0  0  0  0  0  0  0  0  0  0  0
    0.5910   15.2240   -1.1210 C   0  0  1  0  0  0  0  0  0  0  0  0
    0.2310   14.6200    0.2720 C   0  0  0  0  0  0  0  0  0  0  0  0
    0.4790   14.1580   -2.2590 C   0  0  2  0  0  0  0  0  0  0  0  0
   -0.9030   13.4960   -2.3990 C   0  0  0  0  0  0  0  0  0  0  0  0
   -1.0970   12.2510   -1.5980 C   0  0  0  0  0  0  0  0  0  0  0  0
   -0.1170   11.5300   -1.0230 C   0  0  0  0  0  0  0  0  0  0  0  0
    1.3580   11.8960   -1.2350 C   0  0  1  0  0  0  0  0  0  0  0  0
    2.1660   10.6160   -1.5720 C   0  0  0  0  0  0  0  0  0  0  0  0
    1.9820    9.5160   -0.5310 C   0  0  0  0  0  0  0  0  0  0  0  0
    0.5090    9.1380   -0.3920 C   0  0  2  0  0  0  0  0  0  0  0  0
    0.0730    8.5240   -1.6080 O   0  0  0  0  0  0  0  0  0  0  0  0
   -0.4050   10.3510   -0.0610 C   0  0  0  0  0  0  0  0  0  0  0  0
   -0.1340   10.8280    1.3870 C   0  0  0  0  0  0  0  0  0  0  0  0
   -1.8780    9.8600   -0.0870 C   0  0  0  0  0  0  0  0  0  0  0  0
    1.6380   13.0810   -2.2550 C   0  0  1  0  0  0  0  0  0  0  0  0
    1.7310   12.5220   -3.7080 C   0  0  0  0  0  0  0  0  0  0  0  0
    3.0430   13.7160   -1.9330 C   0  0  0  0  0  0  0  0  0  0  0  0
    3.0710   14.8460   -0.8870 C   0  0  0  0  0  0  0  0  0  0  0  0
    2.0070   15.9040   -1.1940 C   0  0  2  0  0  0  0  0  0  0  0  0
    2.3550   16.5460   -2.5800 C   0  0  0  0  0  0  0  0  0  0  0  0
    4.8293   17.3376    0.3357 H   0  0  0  0  0  0  0  0  0  0  0  0
    4.1069   16.6674   -1.1662 H   0  0  0  0  0  0  0  0  0  0  0  0
    4.8045   18.3227   -1.1662 H   0  0  0  0  0  0  0  0  0  0  0  0
    2.6215   18.9147   -0.9182 H   0  0  0  0  0  0  0  0  0  0  0  0
    2.7590   19.9262    1.0526 H   0  0  0  0  0  0  0  0  0  0  0  0
    2.1613   18.3807    1.8265 H   0  0  0  0  0  0  0  0  0  0  0  0
    4.5210   17.6092    1.9706 H   0  0  0  0  0  0  0  0  0  0  0  0
    5.0344   19.2511    1.3970 H   0  0  0  0  0  0  0  0  0  0  0  0
    3.1064   19.0689    3.3626 H   0  0  0  0  0  0  0  0  0  0  0  0
    6.9804   17.8330    4.9985 H   0  0  0  0  0  0  0  0  0  0  0  0
    6.2106   17.2643    3.4784 H   0  0  0  0  0  0  0  0  0  0  0  0
    7.1980   18.7649    3.4784 H   0  0  0  0  0  0  0  0  0  0  0  0
    5.7760   18.7908    6.4481 H   0  0  0  0  0  0  0  0  0  0  0  0
    4.6265   20.1128    6.0513 H   0  0  0  0  0  0  0  0  0  0  0  0
    4.0669   18.4059    6.0513 H   0  0  0  0  0  0  0  0  0  0  0  0
    1.9962   16.6585    0.8568 H   0  0  0  0  0  0  0  0  0  0  0  0
   -0.1177   17.7683    0.4914 H   0  0  0  0  0  0  0  0  0  0  0  0
    0.4485   18.5186   -1.0163 H   0  0  0  0  0  0  0  0  0  0  0  0
   -1.3116   16.2742   -0.8366 H   0  0  0  0  0  0  0  0  0  0  0  0
   -0.4735   16.7563   -2.3092 H   0  0  0  0  0  0  0  0  0  0  0  0
    0.6204   15.2734    1.0667 H   0  0  0  0  0  0  0  0  0  0  0  0
   -0.8621   14.5403    0.3657 H   0  0  0  0  0  0  0  0  0  0  0  0
    0.6809   13.6206    0.3657 H   0  0  0  0  0  0  0  0  0  0  0  0
    0.6122   14.7664   -3.1657 H   0  0  0  0  0  0  0  0  0  0  0  0
   -1.6631   14.2256   -2.0829 H   0  0  0  0  0  0  0  0  0  0  0  0
   -0.9920   13.1966   -3.4537 H   0  0  0  0  0  0  0  0  0  0  0  0
   -2.1287   11.8927   -1.4667 H   0  0  0  0  0  0  0  0  0  0  0  0
    1.7073   12.3167   -0.2805 H   0  0  0  0  0  0  0  0  0  0  0  0
    1.8329   10.2359   -2.5490 H   0  0  0  0  0  0  0  0  0  0  0  0
    3.2317   10.8881   -1.5849 H   0  0  0  0  0  0  0  0  0  0  0  0
    2.5539    8.6286   -0.8399 H   0  0  0  0  0  0  0  0  0  0  0  0
    2.3427    9.8870    0.4397 H   0  0  0  0  0  0  0  0  0  0  0  0
    0.4255    8.4415    0.4553 H   0  0  0  0  0  0  0  0  0  0  0  0
   -0.3350    9.2160   -2.1570 H   0  0  0  0  0  0  0  0  0  0  0  0
   -0.5489   10.0977    2.0973 H   0  0  0  0  0  0  0  0  0  0  0  0
    0.9506   10.9189    1.5462 H   0  0  0  0  0  0  0  0  0  0  0  0
   -0.6112   11.8062    1.5462 H   0  0  0  0  0  0  0  0  0  0  0  0
   -2.2423    9.7386    0.9438 H   0  0  0  0  0  0  0  0  0  0  0  0
   -2.5016   10.5989   -0.6116 H   0  0  0  0  0  0  0  0  0  0  0  0
   -1.9335    8.8948   -0.6116 H   0  0  0  0  0  0  0  0  0  0  0  0
    1.9114   11.4375   -3.6728 H   0  0  0  0  0  0  0  0  0  0  0  0
    0.7876   12.7197   -4.2380 H   0  0  0  0  0  0  0  0  0  0  0  0
    2.5595   13.0145   -4.2380 H   0  0  0  0  0  0  0  0  0  0  0  0
    3.6971   12.9098   -1.5695 H   0  0  0  0  0  0  0  0  0  0  0  0
    3.3688   14.1856   -2.8728 H   0  0  0  0  0  0  0  0  0  0  0  0
    2.8778   14.4197    0.1085 H   0  0  0  0  0  0  0  0  0  0  0  0
    4.0606   15.3255   -0.9152 H   0  0  0  0  0  0  0  0  0  0  0  0
    2.8737   17.5029   -2.4210 H   0  0  0  0  0  0  0  0  0  0  0  0
    3.0074   15.8649   -3.1461 H   0  0  0  0  0  0  0  0  0  0  0  0
    1.4282   16.7209   -3.1461 H   0  0  0  0  0  0  0  0  0  0  0  0
  1  2  1  0
  2  3  1  0
  3  4  1  0
  4  5  1  0
  5  6  1  0
  6  7  1  0
  7  8  1  0
  7  9  1  0
  2 10  1  0
 10 11  1  0
 11 12  1  0
 12 13  1  0
 13 14  1  1
 13 15  1  0
 15 16  1  0
 16 17  1  0
 17 18  2  0
 18 19  1  0
 19 20  1  0
 20 21  1  0
 21 22  1  0
 22 23  1  0
 22 24  1  0
 24 25  1  0
 24 26  1  0
 19 27  1  0
 27 28  1  6
 27 29  1  0
 29 30  1  0
 30 31  1  0
 31 32  1  6
  7  5  1  0
 31 10  1  0
 31 13  1  0
 27 15  1  0
 24 18  1  0
  1 33  1  0
  1 34  1  0
  1 35  1  0
  2 36  1  6
  3 37  1  0
  3 38  1  0
  4 39  1  0
  4 40  1  0
  5 41  1  1
  8 42  1  0
  8 43  1  0
  8 44  1  0
  9 45  1  0
  9 46  1  0
  9 47  1  0
 10 48  1  1
 11 49  1  0
 11 50  1  0
 12 51  1  0
 12 52  1  0
 14 53  1  0
 14 54  1  0
 14 55  1  0
 15 56  1  6
 16 57  1  0
 16 58  1  0
 17 59  1  0
 19 60  1  1
 20 61  1  0
 20 62  1  0
 21 63  1  0
 21 64  1  0
 22 65  1  1
 23 66  1  0
 25 67  1  0
 25 68  1  0
 25 69  1  0
 26 70  1  0
 26 71  1  0
 26 72  1  0
 28 73  1  0
 28 74  1  0
 28 75  1  0
 29 76  1  0
 29 77  1  0
 30 78  1  0
 30 79  1  0
 32 80  1  0
 32 81  1  0
 32 82  1  0
M  END
>  <meeko>  (1) 
{"is_sidechain": [false], "intermolecular_energy": 2.731, "internal_energy": -0.839}

$$$$
EPH_relaxed_0001_pdb2pqr_Repair_85_r2_0001_out
     RDKit          3D

 82 86  0  0  0  0  0  0  0  0999 V2000
    0.4210   18.4450    0.0120 C   0  0  0  0  0  0  0  0  0  0  0  0
    1.5110   17.3950   -0.2240 C   0  0  2  0  0  0  0  0  0  0  0  0
    2.7160   17.9720   -0.9930 C   0  0  0  0  0  0  0  0  0  0  0  0
    3.9510   18.2030   -0.1190 C   0  0  0  0  0  0  0  0  0  0  0  0
    3.5780   18.6640    1.2570 C   0  0  2  0  0  0  0  0  0  0  0  0
    3.8390   20.0500    1.5160 O   0  0  0  0  0  0  0  0  0  0  0  0
    4.5920   19.1070    2.2950 C   0  0  0  0  0  0  0  0  0  0  0  0
    6.0600   19.1090    2.0010 C   0  0  0  0  0  0  0  0  0  0  0  0
    4.2010   19.0700    3.7390 C   0  0  0  0  0  0  0  0  0  0  0  0
    0.9320   16.2050   -0.9790 C   0  0  1  0  0  0  0  0  0  0  0  0
    0.7740   16.4800   -2.4980 C   0  0  0  0  0  0  0  0  0  0  0  0
    1.0600   15.1420   -3.2270 C   0  0  0  0  0  0  0  0  0  0  0  0
    1.0440   14.0760   -2.1070 C   0  0  1  0  0  0  0  0  0  0  0  0
   -0.4670   13.7680   -1.8670 C   0  0  0  0  0  0  0  0  0  0  0  0
    1.8620   12.7730   -2.3820 C   0  0  2  0  0  0  0  0  0  0  0  0
    1.3770   11.9380   -3.5800 C   0  0  0  0  0  0  0  0  0  0  0  0
    0.3580   10.8950   -3.2600 C   0  0  0  0  0  0  0  0  0  0  0  0
    0.0600   10.4450   -2.0270 C   0  0  0  0  0  0  0  0  0  0  0  0
    0.8490   10.9240   -0.8020 C   0  0  1  0  0  0  0  0  0  0  0  0
    1.2290    9.7040    0.0790 C   0  0  0  0  0  0  0  0  0  0  0  0
    0.0180    8.8580    0.4590 C   0  0  0  0  0  0  0  0  0  0  0  0
   -0.7070    8.3520   -0.7860 C   0  0  2  0  0  0  0  0  0  0  0  0
    0.1450    7.4290   -1.4720 O   0  0  0  0  0  0  0  0  0  0  0  0
   -1.1300    9.4920   -1.7540 C   0  0  0  0  0  0  0  0  0  0  0  0
   -2.2770   10.3170   -1.1180 C   0  0  0  0  0  0  0  0  0  0  0  0
   -1.7220    8.8380   -3.0310 C   0  0  0  0  0  0  0  0  0  0  0  0
    2.0910   11.8690   -1.1030 C   0  0  1  0  0  0  0  0  0  0  0  0
    3.3590   11.0070   -1.3870 C   0  0  0  0  0  0  0  0  0  0  0  0
    2.4120   12.7210    0.1820 C   0  0  0  0  0  0  0  0  0  0  0  0
    1.6590   14.0560    0.3370 C   0  0  0  0  0  0  0  0  0  0  0  0
    1.7390   14.8830   -0.9500 C   0  0  2  0  0  0  0  0  0  0  0  0
    3.2460   15.2270   -1.2050 C   0  0  0  0  0  0  0  0  0  0  0  0
    0.2752   18.5855    1.0932 H   0  0  0  0  0  0  0  0  0  0  0  0
    0.7256   19.3986   -0.4439 H   0  0  0  0  0  0  0  0  0  0  0  0
   -0.5206   18.1049   -0.4439 H   0  0  0  0  0  0  0  0  0  0  0  0
    1.8744   17.0681    0.7614 H   0  0  0  0  0  0  0  0  0  0  0  0
    2.9849   17.2689   -1.7951 H   0  0  0  0  0  0  0  0  0  0  0  0
    2.4088   18.9544   -1.3811 H   0  0  0  0  0  0  0  0  0  0  0  0
    4.5125   17.2605   -0.0392 H   0  0  0  0  0  0  0  0  0  0  0  0
    4.5621   18.9874   -0.5895 H   0  0  0  0  0  0  0  0  0  0  0  0
    2.7466   17.9449    1.2975 H   0  0  0  0  0  0  0  0  0  0  0  0
    6.6232   19.1098    2.9459 H   0  0  0  0  0  0  0  0  0  0  0  0
    6.3189   18.2112    1.4205 H   0  0  0  0  0  0  0  0  0  0  0  0
    6.3165   20.0075    1.4205 H   0  0  0  0  0  0  0  0  0  0  0  0
    5.1015   19.1552    4.3650 H   0  0  0  0  0  0  0  0  0  0  0  0
    3.5224   19.9079    3.9567 H   0  0  0  0  0  0  0  0  0  0  0  0
    3.6917   18.1196    3.9567 H   0  0  0  0  0  0  0  0  0  0  0  0
   -0.0129   16.0810   -0.4296 H   0  0  0  0  0  0  0  0  0  0  0  0
   -0.2491   16.8195   -2.7171 H   0  0  0  0  0  0  0  0  0  0  0  0
    1.4666   17.2670   -2.8310 H   0  0  0  0  0  0  0  0  0  0  0  0
    0.2800   14.9323   -3.9738 H   0  0  0  0  0  0  0  0  0  0  0  0
    2.0153   15.1600   -3.7720 H   0  0  0  0  0  0  0  0  0  0  0  0
   -0.6657   13.7275   -0.7859 H   0  0  0  0  0  0  0  0  0  0  0  0
   -1.0795   14.5598   -2.3230 H   0  0  0  0  0  0  0  0  0  0  0  0
   -0.7208   12.7997   -2.3230 H   0  0  0  0  0  0  0  0  0  0  0  0
    2.8457   13.1700   -2.6732 H   0  0  0  0  0  0  0  0  0  0  0  0
    0.9391   12.6257   -4.3185 H   0  0  0  0  0  0  0  0  0  0  0  0
    2.2599   11.3969   -3.9509 H   0  0  0  0  0  0  0  0  0  0  0  0
   -0.1962   10.4572   -4.1033 H   0  0  0  0  0  0  0  0  0  0  0  0
    0.1724   11.5899   -0.2463 H   0  0  0  0  0  0  0  0  0  0  0  0
    1.9386    9.0742   -0.4777 H   0  0  0  0  0  0  0  0  0  0  0  0
    1.6730   10.0887    1.0090 H   0  0  0  0  0  0  0  0  0  0  0  0
    0.3535    7.9966    1.0552 H   0  0  0  0  0  0  0  0  0  0  0  0
   -0.6770    9.4814    1.0408 H   0  0  0  0  0  0  0  0  0  0  0  0
   -1.6346    7.8638   -0.4526 H   0  0  0  0  0  0  0  0  0  0  0  0
    0.9210    7.2710   -0.9080 H   0  0  0  0  0  0  0  0  0  0  0  0
   -2.2028   10.2637   -0.0218 H   0  0  0  0  0  0  0  0  0  0  0  0
   -2.1968   11.3656   -1.4403 H   0  0  0  0  0  0  0  0  0  0  0  0
   -3.2457    9.9074   -1.4403 H   0  0  0  0  0  0  0  0  0  0  0  0
   -2.4345    8.0509   -2.7432 H   0  0  0  0  0  0  0  0  0  0  0  0
   -2.2414    9.6025   -3.6274 H   0  0  0  0  0  0  0  0  0  0  0  0
   -0.9097    8.3971   -3.6274 H   0  0  0  0  0  0  0  0  0  0  0  0
    3.8134   10.6981   -0.4340 H   0  0  0  0  0  0  0  0  0  0  0  0
    3.0741   10.1146   -1.9637 H   0  0  0  0  0  0  0  0  0  0  0  0
    4.0840   11.6002   -1.9637 H   0  0  0  0  0  0  0  0  0  0  0  0
    2.1750   12.1016    1.0596 H   0  0  0  0  0  0  0  0  0  0  0  0
    3.4721   12.9983    0.0857 H   0  0  0  0  0  0  0  0  0  0  0  0
    0.6034   13.8492    0.5668 H   0  0  0  0  0  0  0  0  0  0  0  0
    2.1252   14.6292    1.1519 H   0  0  0  0  0  0  0  0  0  0  0  0
    3.7633   15.3451   -0.2414 H   0  0  0  0  0  0  0  0  0  0  0  0
    3.7163   14.4131   -1.7763 H   0  0  0  0  0  0  0  0  0  0  0  0
    3.3165   16.1644   -1.7763 H   0  0  0  0  0  0  0  0  0  0  0  0
  1  2  1  0
  2  3  1  0
  3  4  1  0
  4  5  1  0
  5  6  1  0
  6  7  1  0
  7  8  1  0
  7  9  1  0
  2 10  1  0
 10 11  1  0
 11 12  1  0
 12 13  1  0
 13 14  1  1
 13 15  1  0
 15 16  1  0
 16 17  1  0
 17 18  2  0
 18 19  1  0
 19 20  1  0
 20 21  1  0
 21 22  1  0
 22 23  1  0
 22 24  1  0
 24 25  1  0
 24 26  1  0
 19 27  1  0
 27 28  1  6
 27 29  1  0
 29 30  1  0
 30 31  1  0
 31 32  1  6
  7  5  1  0
 31 10  1  0
 31 13  1  0
 27 15  1  0
 24 18  1  0
  1 33  1  0
  1 34  1  0
  1 35  1  0
  2 36  1  1
  3 37  1  0
  3 38  1  0
  4 39  1  0
  4 40  1  0
  5 41  1  1
  8 42  1  0
  8 43  1  0
  8 44  1  0
  9 45  1  0
  9 46  1  0
  9 47  1  0
 10 48  1  1
 11 49  1  0
 11 50  1  0
 12 51  1  0
 12 52  1  0
 14 53  1  0
 14 54  1  0
 14 55  1  0
 15 56  1  6
 16 57  1  0
 16 58  1  0
 17 59  1  0
 19 60  1  1
 20 61  1  0
 20 62  1  0
 21 63  1  0
 21 64  1  0
 22 65  1  1
 23 66  1  0
 25 67  1  0
 25 68  1  0
 25 69  1  0
 26 70  1  0
 26 71  1  0
 26 72  1  0
 28 73  1  0
 28 74  1  0
 28 75  1  0
 29 76  1  0
 29 77  1  0
 30 78  1  0
 30 79  1  0
 32 80  1  0
 32 81  1  0
 32 82  1  0
M  END
>  <meeko>  (2) 
{"is_sidechain": [false], "intermolecular_energy": 2.731, "internal_energy": -0.839}

$$$$
EPH_relaxed_0001_pdb2pqr_Repair_85_r2_0001_out
     RDKit          3D

 82 86  0  0  0  0  0  0  0  0999 V2000
    2.1890   18.0380   -2.5510 C   0  0  0  0  0  0  0  0  0  0  0  0
    0.6670   17.8870   -2.6260 C   0  0  2  0  0  0  0  0  0  0  0  0
   -0.0270   18.3560   -1.3320 C   0  0  0  0  0  0  0  0  0  0  0  0
    0.7080   17.9420   -0.0540 C   0  0  0  0  0  0  0  0  0  0  0  0
    1.2740   19.1270    0.6680 C   0  0  2  0  0  0  0  0  0  0  0  0
    2.1620   19.9370   -0.1130 O   0  0  0  0  0  0  0  0  0  0  0  0
    2.7440   19.2700    1.0190 C   0  0  0  0  0  0  0  0  0  0  0  0
    3.7380   18.2120    0.6570 C   0  0  0  0  0  0  0  0  0  0  0  0
    3.1270   20.1940    2.1310 C   0  0  0  0  0  0  0  0  0  0  0  0
    0.3020   16.4360   -2.9170 C   0  0  1  0  0  0  0  0  0  0  0  0
    0.3560   16.0980   -4.4300 C   0  0  0  0  0  0  0  0  0  0  0  0
    0.8510   14.6330   -4.5440 C   0  0  0  0  0  0  0  0  0  0  0  0
    0.7460   14.0740   -3.1050 C   0  0  1  0  0  0  0  0  0  0  0  0
   -0.7560   13.6860   -2.9340 C   0  0  0  0  0  0  0  0  0  0  0  0
    1.6940   12.8800   -2.7580 C   0  0  2  0  0  0  0  0  0  0  0  0
    1.4610   11.6010   -3.5820 C   0  0  0  0  0  0  0  0  0  0  0  0
    0.4870   10.6330   -2.9950 C   0  0  0  0  0  0  0  0  0  0  0  0
    0.0410   10.6450   -1.7260 C   0  0  0  0  0  0  0  0  0  0  0  0
    0.5960   11.6460   -0.7050 C   0  0  1  0  0  0  0  0  0  0  0  0
    0.9290   10.9070    0.6180 C   0  0  0  0  0  0  0  0  0  0  0  0
   -0.2570   10.1170    1.1610 C   0  0  0  0  0  0  0  0  0  0  0  0
   -0.7440    9.0920    0.1400 C   0  0  2  0  0  0  0  0  0  0  0  0
    0.2700    8.0970   -0.0330 O   0  0  0  0  0  0  0  0  0  0  0  0
   -1.1000    9.7190   -1.2360 C   0  0  0  0  0  0  0  0  0  0  0  0
   -2.3900   10.5670   -1.1030 C   0  0  0  0  0  0  0  0  0  0  0  0
   -1.4400    8.5630   -2.2150 C   0  0  0  0  0  0  0  0  0  0  0  0
    1.7930   12.5600   -1.2110 C   0  0  1  0  0  0  0  0  0  0  0  0
    3.1520   11.8260   -0.9950 C   0  0  0  0  0  0  0  0  0  0  0  0
    1.8500   13.8660   -0.3330 C   0  0  0  0  0  0  0  0  0  0  0  0
    0.9820   15.0530   -0.7960 C   0  0  0  0  0  0  0  0  0  0  0  0
    1.1940   15.3380   -2.2860 C   0  0  2  0  0  0  0  0  0  0  0  0
    2.6920   15.7530   -2.4850 C   0  0  0  0  0  0  0  0  0  0  0  0
    2.5029   18.0691   -1.4972 H   0  0  0  0  0  0  0  0  0  0  0  0
    2.6674   17.1829   -3.0510 H   0  0  0  0  0  0  0  0  0  0  0  0
    2.4900   18.9704   -3.0510 H   0  0  0  0  0  0  0  0  0  0  0  0
    0.3104   18.5306   -3.4437 H   0  0  0  0  0  0  0  0  0  0  0  0
   -0.0955   19.4537   -1.3530 H   0  0  0  0  0  0  0  0  0  0  0  0
   -1.0154   17.8740   -1.3047 H   0  0  0  0  0  0  0  0  0  0  0  0
    0.0021   17.4230    0.6111 H   0  0  0  0  0  0  0  0  0  0  0  0
    1.5415   17.2819   -0.3361 H   0  0  0  0  0  0  0  0  0  0  0  0
    0.3585   19.2264    1.2697 H   0  0  0  0  0  0  0  0  0  0  0  0
    4.1534   17.7698    1.5746 H   0  0  0  0  0  0  0  0  0  0  0  0
    3.2411   17.4292    0.0651 H   0  0  0  0  0  0  0  0  0  0  0  0
    4.5503   18.6591    0.0651 H   0  0  0  0  0  0  0  0  0  0  0  0
    2.9256   19.7082    3.0972 H   0  0  0  0  0  0  0  0  0  0  0  0
    4.1982   20.4328    2.0568 H   0  0  0  0  0  0  0  0  0  0  0  0
    2.5388   21.1206    2.0568 H   0  0  0  0  0  0  0  0  0  0  0  0
   -0.7032   16.4062   -2.4712 H   0  0  0  0  0  0  0  0  0  0  0  0
   -0.6449   16.1954   -4.8758 H   0  0  0  0  0  0  0  0  0  0  0  0
    1.0289   16.7848   -4.9642 H   0  0  0  0  0  0  0  0  0  0  0  0
    0.2119   14.0593   -5.2313 H   0  0  0  0  0  0  0  0  0  0  0  0
    1.8736   14.5675   -4.9440 H   0  0  0  0  0  0  0  0  0  0  0  0
   -0.9989   13.6233   -1.8630 H   0  0  0  0  0  0  0  0  0  0  0  0
   -1.3885   14.4502   -3.4092 H   0  0  0  0  0  0  0  0  0  0  0  0
   -0.9392   12.7110   -3.4092 H   0  0  0  0  0  0  0  0  0  0  0  0
    2.6777   13.2613   -3.0694 H   0  0  0  0  0  0  0  0  0  0  0  0
    1.0891   11.8985   -4.5736 H   0  0  0  0  0  0  0  0  0  0  0  0
    2.4284   11.0784   -3.6131 H   0  0  0  0  0  0  0  0  0  0  0  0
    0.1016    9.8431   -3.6565 H   0  0  0  0  0  0  0  0  0  0  0  0
   -0.2060   12.3785   -0.5311 H   0  0  0  0  0  0  0  0  0  0  0  0
    1.7612   10.2117    0.4337 H   0  0  0  0  0  0  0  0  0  0  0  0
    1.1950   11.6672    1.3672 H   0  0  0  0  0  0  0  0  0  0  0  0
    0.0492    9.5934    2.0787 H   0  0  0  0  0  0  0  0  0  0  0  0
   -1.0778   10.8179    1.3733 H   0  0  0  0  0  0  0  0  0  0  0  0
   -1.6719    8.6506    0.5326 H   0  0  0  0  0  0  0  0  0  0  0  0
    0.7960    8.0670    0.7840 H   0  0  0  0  0  0  0  0  0  0  0  0
   -2.6209   10.7188   -0.0383 H   0  0  0  0  0  0  0  0  0  0  0  0
   -2.2391   11.5426   -1.5882 H   0  0  0  0  0  0  0  0  0  0  0  0
   -3.2258   10.0416   -1.5882 H   0  0  0  0  0  0  0  0  0  0  0  0
   -1.7048    7.6626   -1.6413 H   0  0  0  0  0  0  0  0  0  0  0  0
   -2.2897    8.8571   -2.8487 H   0  0  0  0  0  0  0  0  0  0  0  0
   -0.5664    8.3503   -2.8487 H   0  0  0  0  0  0  0  0  0  0  0  0
    3.3451   11.7217    0.0829 H   0  0  0  0  0  0  0  0  0  0  0  0
    3.1079   10.8291   -1.4578 H   0  0  0  0  0  0  0  0  0  0  0  0
    3.9615   12.4096   -1.4578 H   0  0  0  0  0  0  0  0  0  0  0  0
    1.5306   13.5971    0.6847 H   0  0  0  0  0  0  0  0  0  0  0  0
    2.8883   14.2207   -0.4115 H   0  0  0  0  0  0  0  0  0  0  0  0
   -0.0775   14.8134   -0.6225 H   0  0  0  0  0  0  0  0  0  0  0  0
    1.2734   15.9456   -0.2229 H   0  0  0  0  0  0  0  0  0  0  0  0
    3.1694   15.8853   -1.5029 H   0  0  0  0  0  0  0  0  0  0  0  0
    3.2188   14.9670   -3.0459 H   0  0  0  0  0  0  0  0  0  0  0  0
    2.7393   16.6981   -3.0459 H   0  0  0  0  0  0  0  0  0  0  0  0
  1  2  1  0
  2  3  1  0
  3  4  1  0
  4  5  1  0
  5  6  1  0
  6  7  1  0
  7  8  1  0
  7  9  1  0
  2 10  1  0
 10 11  1  0
 11 12  1  0
 12 13  1  0
 13 14  1  1
 13 15  1  0
 15 16  1  0
 16 17  1  0
 17 18  2  0
 18 19  1  0
 19 20  1  0
 20 21  1  0
 21 22  1  0
 22 23  1  0
 22 24  1  0
 24 25  1  0
 24 26  1  0
 19 27  1  0
 27 28  1  6
 27 29  1  0
 29 30  1  0
 30 31  1  0
 31 32  1  1
  7  5  1  0
 31 10  1  0
 31 13  1  0
 27 15  1  0
 24 18  1  0
  1 33  1  0
  1 34  1  0
  1 35  1  0
  2 36  1  6
  3 37  1  0
  3 38  1  0
  4 39  1  0
  4 40  1  0
  5 41  1  1
  8 42  1  0
  8 43  1  0
  8 44  1  0
  9 45  1  0
  9 46  1  0
  9 47  1  0
 10 48  1  1
 11 49  1  0
 11 50  1  0
 12 51  1  0
 12 52  1  0
 14 53  1  0
 14 54  1  0
 14 55  1  0
 15 56  1  6
 16 57  1  0
 16 58  1  0
 17 59  1  0
 19 60  1  1
 20 61  1  0
 20 62  1  0
 21 63  1  0
 21 64  1  0
 22 65  1  1
 23 66  1  0
 25 67  1  0
 25 68  1  0
 25 69  1  0
 26 70  1  0
 26 71  1  0
 26 72  1  0
 28 73  1  0
 28 74  1  0
 28 75  1  0
 29 76  1  0
 29 77  1  0
 30 78  1  0
 30 79  1  0
 32 80  1  0
 32 81  1  0
 32 82  1  0
M  END
>  <meeko>  (3) 
{"is_sidechain": [false], "intermolecular_energy": 2.731, "internal_energy": -0.839}

$$$$
EPH_relaxed_0001_pdb2pqr_Repair_85_r2_0001_out
     RDKit          3D

 82 86  0  0  0  0  0  0  0  0999 V2000
    2.1540   18.2890   -2.6640 C   0  0  0  0  0  0  0  0  0  0  0  0
    0.8990   17.8310   -1.9160 C   0  0  2  0  0  0  0  0  0  0  0  0
    1.0900   17.8670   -0.3860 C   0  0  0  0  0  0  0  0  0  0  0  0
    0.7040   19.2050    0.2510 C   0  0  0  0  0  0  0  0  0  0  0  0
   -0.7570   19.2600    0.5820 C   0  0  2  0  0  0  0  0  0  0  0  0
   -1.5680   18.3170   -0.1300 O   0  0  0  0  0  0  0  0  0  0  0  0
   -1.8220   19.7050   -0.4020 C   0  0  0  0  0  0  0  0  0  0  0  0
   -1.4710   20.1270   -1.7940 C   0  0  0  0  0  0  0  0  0  0  0  0
   -3.1320   20.1940    0.1340 C   0  0  0  0  0  0  0  0  0  0  0  0
    0.5130   16.4250   -2.3590 C   0  0  1  0  0  0  0  0  0  0  0  0
    0.6180   16.2330   -3.8960 C   0  0  0  0  0  0  0  0  0  0  0  0
    1.0840   14.7730   -4.1330 C   0  0  0  0  0  0  0  0  0  0  0  0
    0.9120   14.0810   -2.7610 C   0  0  1  0  0  0  0  0  0  0  0  0
   -0.6040   13.7170   -2.6830 C   0  0  0  0  0  0  0  0  0  0  0  0
    1.8190   12.8350   -2.4980 C   0  0  2  0  0  0  0  0  0  0  0  0
    1.5890   11.6480   -3.4500 C   0  0  0  0  0  0  0  0  0  0  0  0
    0.5730   10.6530   -2.9970 C   0  0  0  0  0  0  0  0  0  0  0  0
    0.0790   10.5540   -1.7490 C   0  0  0  0  0  0  0  0  0  0  0  0
    0.6160   11.4370   -0.6160 C   0  0  1  0  0  0  0  0  0  0  0  0
    0.8820   10.5650    0.6400 C   0  0  0  0  0  0  0  0  0  0  0  0
   -0.3420    9.7570    1.0600 C   0  0  0  0  0  0  0  0  0  0  0  0
   -0.8110    8.8490   -0.0730 C   0  0  2  0  0  0  0  0  0  0  0  0
    0.1860    7.8490   -0.3050 O   0  0  0  0  0  0  0  0  0  0  0  0
   -1.1010    9.6150   -1.3930 C   0  0  0  0  0  0  0  0  0  0  0  0
   -2.3750   10.4790   -1.2250 C   0  0  0  0  0  0  0  0  0  0  0  0
   -1.4290    8.5680   -2.4910 C   0  0  0  0  0  0  0  0  0  0  0  0
    1.8520   12.3650   -0.9870 C   0  0  1  0  0  0  0  0  0  0  0  0
    3.1850   11.5780   -0.7950 C   0  0  0  0  0  0  0  0  0  0  0  0
    1.9040   13.5780    0.0160 C   0  0  0  0  0  0  0  0  0  0  0  0
    1.0810   14.8250   -0.3600 C   0  0  0  0  0  0  0  0  0  0  0  0
    1.3560   15.2480   -1.8060 C   0  0  2  0  0  0  0  0  0  0  0  0
    2.8690   15.6410   -1.9110 C   0  0  0  0  0  0  0  0  0  0  0  0
    2.9305   18.5724   -1.9382 H   0  0  0  0  0  0  0  0  0  0  0  0
    2.5245   17.4681   -3.2956 H   0  0  0  0  0  0  0  0  0  0  0  0
    1.9087   19.1556   -3.2956 H   0  0  0  0  0  0  0  0  0  0  0  0
    0.0905   18.5340   -2.1652 H   0  0  0  0  0  0  0  0  0  0  0  0
    0.4676   17.0774    0.0604 H   0  0  0  0  0  0  0  0  0  0  0  0
    2.1622   17.7160   -0.1922 H   0  0  0  0  0  0  0  0  0  0  0  0
    1.2844   19.3404    1.1756 H   0  0  0  0  0  0  0  0  0  0  0  0
    0.9223   20.0048   -0.4719 H   0  0  0  0  0  0  0  0  0  0  0  0
   -0.5350   19.5636    1.6157 H   0  0  0  0  0  0  0  0  0  0  0  0
   -0.7680   20.9722   -1.7547 H   0  0  0  0  0  0  0  0  0  0  0  0
   -1.0030   19.2852   -2.3253 H   0  0  0  0  0  0  0  0  0  0  0  0
   -2.3840   20.4339   -2.3253 H   0  0  0  0  0  0  0  0  0  0  0  0
   -3.1050   20.1839    1.2336 H   0  0  0  0  0  0  0  0  0  0  0  0
   -3.3125   21.2201   -0.2190 H   0  0  0  0  0  0  0  0  0  0  0  0
   -3.9407   19.5372   -0.2190 H   0  0  0  0  0  0  0  0  0  0  0  0
   -0.5088   16.3783   -1.9544 H   0  0  0  0  0  0  0  0  0  0  0  0
   -0.3624   16.3989   -4.3664 H   0  0  0  0  0  0  0  0  0  0  0  0
    1.3261   16.9503   -4.3365 H   0  0  0  0  0  0  0  0  0  0  0  0
    0.4590   14.2848   -4.8952 H   0  0  0  0  0  0  0  0  0  0  0  0
    2.1196   14.7201   -4.5000 H   0  0  0  0  0  0  0  0  0  0  0  0
   -0.9097   13.6436   -1.6289 H   0  0  0  0  0  0  0  0  0  0  0  0
   -1.1950   14.4988   -3.1826 H   0  0  0  0  0  0  0  0  0  0  0  0
   -0.7756   12.7521   -3.1826 H   0  0  0  0  0  0  0  0  0  0  0  0
    2.8221   13.2190   -2.7355 H   0  0  0  0  0  0  0  0  0  0  0  0
    1.2619   12.0495   -4.4205 H   0  0  0  0  0  0  0  0  0  0  0  0
    2.5451   11.1061   -3.4960 H   0  0  0  0  0  0  0  0  0  0  0  0
    0.1963    9.9408   -3.7460 H   0  0  0  0  0  0  0  0  0  0  0  0
   -0.1759   12.1694   -0.4005 H   0  0  0  0  0  0  0  0  0  0  0  0
    1.7049    9.8694    0.4187 H   0  0  0  0  0  0  0  0  0  0  0  0
    1.1364   11.2417    1.4690 H   0  0  0  0  0  0  0  0  0  0  0  0
   -0.0835    9.1394    1.9328 H   0  0  0  0  0  0  0  0  0  0  0  0
   -1.1546   10.4550    1.3099 H   0  0  0  0  0  0  0  0  0  0  0  0
   -1.7629    8.3956    0.2406 H   0  0  0  0  0  0  0  0  0  0  0  0
    0.7460    8.1580   -1.0370 H   0  0  0  0  0  0  0  0  0  0  0  0
   -2.5835   10.6204   -0.1542 H   0  0  0  0  0  0  0  0  0  0  0  0
   -2.2191   11.4585   -1.7007 H   0  0  0  0  0  0  0  0  0  0  0  0
   -3.2273    9.9718   -1.7007 H   0  0  0  0  0  0  0  0  0  0  0  0
   -1.7258    7.6206   -2.0173 H   0  0  0  0  0  0  0  0  0  0  0  0
   -2.2539    8.9392   -3.1169 H   0  0  0  0  0  0  0  0  0  0  0  0
   -0.5398    8.4022   -3.1169 H   0  0  0  0  0  0  0  0  0  0  0  0
    3.3884   11.4579    0.2793 H   0  0  0  0  0  0  0  0  0  0  0  0
    3.0967   10.5871   -1.2645 H   0  0  0  0  0  0  0  0  0  0  0  0
    4.0099   12.1340   -1.2645 H   0  0  0  0  0  0  0  0  0  0  0  0
    1.5399   13.2202    0.9904 H   0  0  0  0  0  0  0  0  0  0  0  0
    2.9521   13.9119    0.0103 H   0  0  0  0  0  0  0  0  0  0  0  0
    0.0107   14.5965   -0.2493 H   0  0  0  0  0  0  0  0  0  0  0  0
    1.3697   15.6501    0.3077 H   0  0  0  0  0  0  0  0  0  0  0  0
    3.2904   15.7504   -0.9008 H   0  0  0  0  0  0  0  0  0  0  0  0
    3.4153   14.8549   -2.4530 H   0  0  0  0  0  0  0  0  0  0  0  0
    2.9637   16.5935   -2.4530 H   0  0  0  0  0  0  0  0  0  0  0  0
  1  2  1  0
  2  3  1  0
  3  4  1  0
  4  5  1  0
  5  6  1  0
  6  7  1  0
  7  8  1  0
  7  9  1  0
  2 10  1  0
 10 11  1  0
 11 12  1  0
 12 13  1  0
 13 14  1  1
 13 15  1  0
 15 16  1  0
 16 17  1  0
 17 18  2  0
 18 19  1  0
 19 20  1  0
 20 21  1  0
 21 22  1  0
 22 23  1  0
 22 24  1  0
 24 25  1  0
 24 26  1  0
 19 27  1  0
 27 28  1  6
 27 29  1  0
 29 30  1  0
 30 31  1  0
 31 32  1  1
  7  5  1  0
 31 10  1  0
 31 13  1  0
 27 15  1  0
 24 18  1  0
  1 33  1  0
  1 34  1  0
  1 35  1  0
  2 36  1  1
  3 37  1  0
  3 38  1  0
  4 39  1  0
  4 40  1  0
  5 41  1  1
  8 42  1  0
  8 43  1  0
  8 44  1  0
  9 45  1  0
  9 46  1  0
  9 47  1  0
 10 48  1  1
 11 49  1  0
 11 50  1  0
 12 51  1  0
 12 52  1  0
 14 53  1  0
 14 54  1  0
 14 55  1  0
 15 56  1  6
 16 57  1  0
 16 58  1  0
 17 59  1  0
 19 60  1  1
 20 61  1  0
 20 62  1  0
 21 63  1  0
 21 64  1  0
 22 65  1  1
 23 66  1  0
 25 67  1  0
 25 68  1  0
 25 69  1  0
 26 70  1  0
 26 71  1  0
 26 72  1  0
 28 73  1  0
 28 74  1  0
 28 75  1  0
 29 76  1  0
 29 77  1  0
 30 78  1  0
 30 79  1  0
 32 80  1  0
 32 81  1  0
 32 82  1  0
M  END
>  <meeko>  (4) 
{"is_sidechain": [false], "intermolecular_energy": 2.731, "internal_energy": -0.839}

$$$$
EPH_relaxed_0001_pdb2pqr_Repair_85_r2_0001_out
     RDKit          3D

 82 86  0  0  0  0  0  0  0  0999 V2000
    3.7180   17.6960    0.5730 C   0  0  0  0  0  0  0  0  0  0  0  0
    2.7800   17.9970   -0.6000 C   0  0  2  0  0  0  0  0  0  0  0  0
    2.1040   19.3750   -0.4630 C   0  0  0  0  0  0  0  0  0  0  0  0
    1.1750   19.4880    0.7480 C   0  0  0  0  0  0  0  0  0  0  0  0
   -0.1440   20.0970    0.3800 C   0  0  2  0  0  0  0  0  0  0  0  0
   -1.0820   20.1930    1.4600 O   0  0  0  0  0  0  0  0  0  0  0  0
   -1.4500   19.3250    0.3760 C   0  0  0  0  0  0  0  0  0  0  0  0
   -1.5010   17.8760    0.7470 C   0  0  0  0  0  0  0  0  0  0  0  0
   -2.5850   19.8420   -0.4510 C   0  0  0  0  0  0  0  0  0  0  0  0
    1.7220   16.9060   -0.7110 C   0  0  1  0  0  0  0  0  0  0  0  0
    0.4500   17.3820   -1.4630 C   0  0  0  0  0  0  0  0  0  0  0  0
   -0.0790   16.1640   -2.2630 C   0  0  0  0  0  0  0  0  0  0  0  0
    0.6990   14.9550   -1.6920 C   0  0  1  0  0  0  0  0  0  0  0  0
   -0.0540   14.5780   -0.3770 C   0  0  0  0  0  0  0  0  0  0  0  0
    0.8540   13.7220   -2.6410 C   0  0  2  0  0  0  0  0  0  0  0  0
   -0.4650   13.0470   -3.0550 C   0  0  0  0  0  0  0  0  0  0  0  0
   -0.9250   11.9440   -2.1600 C   0  0  0  0  0  0  0  0  0  0  0  0
   -0.1710   11.3220   -1.2340 C   0  0  0  0  0  0  0  0  0  0  0  0
    1.3200   11.6500   -1.0830 C   0  0  1  0  0  0  0  0  0  0  0  0
    2.1320   10.3320   -0.9850 C   0  0  0  0  0  0  0  0  0  0  0  0
    1.6220    9.4100    0.1190 C   0  0  0  0  0  0  0  0  0  0  0  0
    0.1520    9.0610   -0.0990 C   0  0  2  0  0  0  0  0  0  0  0  0
    0.0380    8.2620   -1.2810 O   0  0  0  0  0  0  0  0  0  0  0  0
   -0.7630   10.3110   -0.2220 C   0  0  0  0  0  0  0  0  0  0  0  0
   -0.8770   11.0110    1.1550 C   0  0  0  0  0  0  0  0  0  0  0  0
   -2.1930    9.8220   -0.5790 C   0  0  0  0  0  0  0  0  0  0  0  0
    1.9200   12.6590   -2.1540 C   0  0  1  0  0  0  0  0  0  0  0  0
    2.3810   11.8770   -3.4220 C   0  0  0  0  0  0  0  0  0  0  0  0
    3.2100   13.3350   -1.5560 C   0  0  0  0  0  0  0  0  0  0  0  0
    3.0020   14.6170   -0.7270 C   0  0  0  0  0  0  0  0  0  0  0  0
    2.1090   15.6140   -1.4730 C   0  0  2  0  0  0  0  0  0  0  0  0
    2.8510   16.0280   -2.7890 C   0  0  0  0  0  0  0  0  0  0  0  0
    3.1863   17.8666    1.5207 H   0  0  0  0  0  0  0  0  0  0  0  0
    4.0462   16.6474    0.5203 H   0  0  0  0  0  0  0  0  0  0  0  0
    4.5951   18.3578    0.5203 H   0  0  0  0  0  0  0  0  0  0  0  0
    3.3896   18.0184   -1.5154 H   0  0  0  0  0  0  0  0  0  0  0  0
    2.8896   20.1393   -0.3703 H   0  0  0  0  0  0  0  0  0  0  0  0
    1.4822   19.5180   -1.3590 H   0  0  0  0  0  0  0  0  0  0  0  0
    1.0011   18.4826    1.1589 H   0  0  0  0  0  0  0  0  0  0  0  0
    1.6581   20.1395    1.4911 H   0  0  0  0  0  0  0  0  0  0  0  0
    0.3363   20.7386   -0.3735 H   0  0  0  0  0  0  0  0  0  0  0  0
   -1.5045   17.7779    1.8426 H   0  0  0  0  0  0  0  0  0  0  0  0
   -2.4156   17.4241    0.3355 H   0  0  0  0  0  0  0  0  0  0  0  0
   -0.6204   17.3609    0.3355 H   0  0  0  0  0  0  0  0  0  0  0  0
   -3.3847   20.2062    0.2107 H   0  0  0  0  0  0  0  0  0  0  0  0
   -2.2300   20.6672   -1.0858 H   0  0  0  0  0  0  0  0  0  0  0  0
   -2.9746   19.0325   -1.0858 H   0  0  0  0  0  0  0  0  0  0  0  0
    1.5746   16.6833    0.3561 H   0  0  0  0  0  0  0  0  0  0  0  0
   -0.3100   17.7220   -0.7441 H   0  0  0  0  0  0  0  0  0  0  0  0
    0.6789   18.2246   -2.1321 H   0  0  0  0  0  0  0  0  0  0  0  0
   -1.1608   16.0379   -2.1084 H   0  0  0  0  0  0  0  0  0  0  0  0
    0.0681   16.2808   -3.3468 H   0  0  0  0  0  0  0  0  0  0  0  0
    0.5501   14.8805    0.4911 H   0  0  0  0  0  0  0  0  0  0  0  0
   -1.0234   15.0971   -0.3479 H   0  0  0  0  0  0  0  0  0  0  0  0
   -0.2192   13.4909   -0.3479 H   0  0  0  0  0  0  0  0  0  0  0  0
    1.2554   14.1791   -3.5575 H   0  0  0  0  0  0  0  0  0  0  0  0
   -1.2495   13.8178   -3.0754 H   0  0  0  0  0  0  0  0  0  0  0  0
   -0.2760   12.5849   -4.0352 H   0  0  0  0  0  0  0  0  0  0  0  0
   -1.9681   11.6114   -2.2661 H   0  0  0  0  0  0  0  0  0  0  0  0
    1.4137   12.2168   -0.1449 H   0  0  0  0  0  0  0  0  0  0  0  0
    2.0620    9.8026   -1.9467 H   0  0  0  0  0  0  0  0  0  0  0  0
    3.1717   10.5980   -0.7435 H   0  0  0  0  0  0  0  0  0  0  0  0
    2.2160    8.4842    0.1181 H   0  0  0  0  0  0  0  0  0  0  0  0
    1.7208    9.9288    1.0839 H   0  0  0  0  0  0  0  0  0  0  0  0
   -0.1908    8.5084    0.7882 H   0  0  0  0  0  0  0  0  0  0  0  0
    0.8980    8.2820   -1.7330 H   0  0  0  0  0  0  0  0  0  0  0  0
   -0.7558   10.2667    1.9558 H   0  0  0  0  0  0  0  0  0  0  0  0
   -0.0916   11.7761    1.2435 H   0  0  0  0  0  0  0  0  0  0  0  0
   -1.8646   11.4873    1.2435 H   0  0  0  0  0  0  0  0  0  0  0  0
   -2.7562    9.6294    0.3460 H   0  0  0  0  0  0  0  0  0  0  0  0
   -2.7085   10.5949   -1.1680 H   0  0  0  0  0  0  0  0  0  0  0  0
   -2.1272    8.8953   -1.1680 H   0  0  0  0  0  0  0  0  0  0  0  0
    2.9176   10.9667   -3.1164 H   0  0  0  0  0  0  0  0  0  0  0  0
    1.5016   11.6002   -4.0220 H   0  0  0  0  0  0  0  0  0  0  0  0
    3.0490   12.5125   -4.0220 H   0  0  0  0  0  0  0  0  0  0  0  0
    3.7029   12.5957   -0.9075 H   0  0  0  0  0  0  0  0  0  0  0  0
    3.8010   13.6495   -2.4288 H   0  0  0  0  0  0  0  0  0  0  0  0
    2.5266   14.3538    0.2294 H   0  0  0  0  0  0  0  0  0  0  0  0
    3.9821   15.0855   -0.5539 H   0  0  0  0  0  0  0  0  0  0  0  0
    3.7855   16.5494   -2.5345 H   0  0  0  0  0  0  0  0  0  0  0  0
    3.0819   15.1283   -3.3783 H   0  0  0  0  0  0  0  0  0  0  0  0
    2.2066   16.6970   -3.3783 H   0  0  0  0  0  0  0  0  0  0  0  0
  1  2  1  0
  2  3  1  0
  3  4  1  0
  4  5  1  0
  5  6  1  0
  6  7  1  0
  7  8  1  0
  7  9  1  0
  2 10  1  0
 10 11  1  0
 11 12  1  0
 12 13  1  0
 13 14  1  1
 13 15  1  0
 15 16  1  0
 16 17  1  0
 17 18  2  0
 18 19  1  0
 19 20  1  0
 20 21  1  0
 21 22  1  0
 22 23  1  0
 22 24  1  0
 24 25  1  0
 24 26  1  0
 19 27  1  0
 27 28  1  6
 27 29  1  0
 29 30  1  0
 30 31  1  0
 31 32  1  6
  7  5  1  0
 31 10  1  0
 31 13  1  0
 27 15  1  0
 24 18  1  0
  1 33  1  0
  1 34  1  0
  1 35  1  0
  2 36  1  6
  3 37  1  0
  3 38  1  0
  4 39  1  0
  4 40  1  0
  5 41  1  6
  8 42  1  0
  8 43  1  0
  8 44  1  0
  9 45  1  0
  9 46  1  0
  9 47  1  0
 10 48  1  1
 11 49  1  0
 11 50  1  0
 12 51  1  0
 12 52  1  0
 14 53  1  0
 14 54  1  0
 14 55  1  0
 15 56  1  6
 16 57  1  0
 16 58  1  0
 17 59  1  0
 19 60  1  1
 20 61  1  0
 20 62  1  0
 21 63  1  0
 21 64  1  0
 22 65  1  1
 23 66  1  0
 25 67  1  0
 25 68  1  0
 25 69  1  0
 26 70  1  0
 26 71  1  0
 26 72  1  0
 28 73  1  0
 28 74  1  0
 28 75  1  0
 29 76  1  0
 29 77  1  0
 30 78  1  0
 30 79  1  0
 32 80  1  0
 32 81  1  0
 32 82  1  0
M  END
>  <meeko>  (5) 
{"is_sidechain": [false], "intermolecular_energy": 2.731, "internal_energy": -0.839}

$$$$
EPH_relaxed_0001_pdb2pqr_Repair_85_r2_0001_out
     RDKit          3D

 82 86  0  0  0  0  0  0  0  0999 V2000
    3.1010   17.9550    0.2990 C   0  0  0  0  0  0  0  0  0  0  0  0
    2.9590   17.0160   -0.9020 C   0  0  2  0  0  0  0  0  0  0  0  0
    2.6090   17.7770   -2.1960 C   0  0  0  0  0  0  0  0  0  0  0  0
    1.9090   19.1170   -1.9520 C   0  0  0  0  0  0  0  0  0  0  0  0
    0.4210   18.9580   -1.8710 C   0  0  2  0  0  0  0  0  0  0  0  0
   -0.3170   20.1850   -1.9540 O   0  0  0  0  0  0  0  0  0  0  0  0
   -0.4130   19.4700   -0.7110 C   0  0  0  0  0  0  0  0  0  0  0  0
    0.2140   20.1780    0.4480 C   0  0  0  0  0  0  0  0  0  0  0  0
   -1.7570   18.8560   -0.4710 C   0  0  0  0  0  0  0  0  0  0  0  0
    1.8960   15.9620   -0.6140 C   0  0  1  0  0  0  0  0  0  0  0  0
    0.5080   16.5820   -0.3040 C   0  0  0  0  0  0  0  0  0  0  0  0
   -0.5550   15.6160   -0.8900 C   0  0  0  0  0  0  0  0  0  0  0  0
    0.2310   14.3250   -1.2190 C   0  0  1  0  0  0  0  0  0  0  0  0
    0.3500   13.5700    0.1420 C   0  0  0  0  0  0  0  0  0  0  0  0
   -0.3750   13.4130   -2.3340 C   0  0  2  0  0  0  0  0  0  0  0  0
   -1.7650   12.8320   -2.0180 C   0  0  0  0  0  0  0  0  0  0  0  0
   -1.7600   11.5080   -1.3290 C   0  0  0  0  0  0  0  0  0  0  0  0
   -0.7030   10.6800   -1.2310 C   0  0  0  0  0  0  0  0  0  0  0  0
    0.6200   11.0060   -1.9350 C   0  0  1  0  0  0  0  0  0  0  0  0
    1.1400    9.7440   -2.6710 C   0  0  0  0  0  0  0  0  0  0  0  0
    1.2520    8.5340   -1.7490 C   0  0  0  0  0  0  0  0  0  0  0  0
   -0.0960    8.2050   -1.1130 C   0  0  2  0  0  0  0  0  0  0  0  0
   -0.9930    7.7640   -2.1370 O   0  0  0  0  0  0  0  0  0  0  0  0
   -0.7230    9.4060   -0.3510 C   0  0  0  0  0  0  0  0  0  0  0  0
    0.0930    9.6900    0.9340 C   0  0  0  0  0  0  0  0  0  0  0  0
   -2.1410    8.9850    0.1200 C   0  0  0  0  0  0  0  0  0  0  0  0
    0.6120   12.2950   -2.8650 C   0  0  1  0  0  0  0  0  0  0  0  0
    0.1250   11.9150   -4.2960 C   0  0  0  0  0  0  0  0  0  0  0  0
    2.0860   12.8250   -3.0230 C   0  0  0  0  0  0  0  0  0  0  0  0
    2.5860   13.8160   -1.9550 C   0  0  0  0  0  0  0  0  0  0  0  0
    1.5770   14.9480   -1.7410 C   0  0  2  0  0  0  0  0  0  0  0  0
    1.4530   15.7390   -3.0880 C   0  0  0  0  0  0  0  0  0  0  0  0
    3.0134   17.3755    1.2299 H   0  0  0  0  0  0  0  0  0  0  0  0
    4.0839   18.4478    0.2650 H   0  0  0  0  0  0  0  0  0  0  0  0
    2.3078   18.7163    0.2650 H   0  0  0  0  0  0  0  0  0  0  0  0
    3.9329   16.5293   -1.0588 H   0  0  0  0  0  0  0  0  0  0  0  0
    3.5403   17.9674   -2.7496 H   0  0  0  0  0  0  0  0  0  0  0  0
    1.9069   17.1456   -2.7603 H   0  0  0  0  0  0  0  0  0  0  0  0
    2.2741   19.5429   -1.0058 H   0  0  0  0  0  0  0  0  0  0  0  0
    2.1374   19.7823   -2.7977 H   0  0  0  0  0  0  0  0  0  0  0  0
    0.4748   17.9762   -2.3641 H   0  0  0  0  0  0  0  0  0  0  0  0
   -0.1650   19.7500    1.3878 H   0  0  0  0  0  0  0  0  0  0  0  0
    1.3064   20.0569    0.4043 H   0  0  0  0  0  0  0  0  0  0  0  0
   -0.0383   21.2478    0.4043 H   0  0  0  0  0  0  0  0  0  0  0  0
   -1.9350   18.7747    0.6115 H   0  0  0  0  0  0  0  0  0  0  0  0
   -2.5350   19.4880   -0.9241 H   0  0  0  0  0  0  0  0  0  0  0  0
   -1.7886   17.8541   -0.9241 H   0  0  0  0  0  0  0  0  0  0  0  0
    2.3725   15.4462    0.2327 H   0  0  0  0  0  0  0  0  0  0  0  0
    0.3716   16.6809    0.7830 H   0  0  0  0  0  0  0  0  0  0  0  0
    0.4161   17.5852   -0.7458 H   0  0  0  0  0  0  0  0  0  0  0  0
   -1.3443   15.4126   -0.1513 H   0  0  0  0  0  0  0  0  0  0  0  0
   -1.0578   16.0353   -1.7740 H   0  0  0  0  0  0  0  0  0  0  0  0
    0.2372   14.2859    0.9695 H   0  0  0  0  0  0  0  0  0  0  0  0
   -0.4388   12.8062    0.2078 H   0  0  0  0  0  0  0  0  0  0  0  0
    1.3355   13.0859    0.2078 H   0  0  0  0  0  0  0  0  0  0  0  0
   -0.5285   14.1219   -3.1610 H   0  0  0  0  0  0  0  0  0  0  0  0
   -2.2947   13.5488   -1.3733 H   0  0  0  0  0  0  0  0  0  0  0  0
   -2.2548   12.6682   -2.9892 H   0  0  0  0  0  0  0  0  0  0  0  0
   -2.7003   11.1808   -0.8613 H   0  0  0  0  0  0  0  0  0  0  0  0
    1.3246   11.2911   -1.1399 H   0  0  0  0  0  0  0  0  0  0  0  0
    0.4453    9.5013   -3.4886 H   0  0  0  0  0  0  0  0  0  0  0  0
    2.1478    9.9697   -3.0497 H   0  0  0  0  0  0  0  0  0  0  0  0
    1.5955    7.6673   -2.3328 H   0  0  0  0  0  0  0  0  0  0  0  0
    1.9695    8.7681   -0.9488 H   0  0  0  0  0  0  0  0  0  0  0  0
    0.0749    7.4149   -0.3670 H   0  0  0  0  0  0  0  0  0  0  0  0
   -1.4000    6.9340   -1.8350 H   0  0  0  0  0  0  0  0  0  0  0  0
   -0.5266    9.4744    1.8170 H   0  0  0  0  0  0  0  0  0  0  0  0
    0.9879    9.0505    0.9489 H   0  0  0  0  0  0  0  0  0  0  0  0
    0.3974   10.7469    0.9489 H   0  0  0  0  0  0  0  0  0  0  0  0
   -2.1743    8.9751    1.2195 H   0  0  0  0  0  0  0  0  0  0  0  0
   -2.8824    9.7018   -0.2629 H   0  0  0  0  0  0  0  0  0  0  0  0
   -2.3711    7.9798   -0.2629 H   0  0  0  0  0  0  0  0  0  0  0  0
   -0.7402   11.2399   -4.2216 H   0  0  0  0  0  0  0  0  0  0  0  0
   -0.1667   12.8266   -4.8382 H   0  0  0  0  0  0  0  0  0  0  0  0
    0.9383   11.4104   -4.8382 H   0  0  0  0  0  0  0  0  0  0  0  0
    2.7565   11.9531   -3.0079 H   0  0  0  0  0  0  0  0  0  0  0  0
    2.0884   13.3922   -3.9655 H   0  0  0  0  0  0  0  0  0  0  0  0
    2.7308   13.2791   -1.0059 H   0  0  0  0  0  0  0  0  0  0  0  0
    3.5349   14.2530   -2.2995 H   0  0  0  0  0  0  0  0  0  0  0  0
    1.2859   16.8048   -2.8733 H   0  0  0  0  0  0  0  0  0  0  0  0
    2.3803   15.6228   -3.6681 H   0  0  0  0  0  0  0  0  0  0  0  0
    0.6057   15.3446   -3.6681 H   0  0  0  0  0  0  0  0  0  0  0  0
  1  2  1  0
  2  3  1  0
  3  4  1  0
  4  5  1  0
  5  6  1  0
  6  7  1  0
  7  8  1  0
  7  9  1  0
  2 10  1  0
 10 11  1  0
 11 12  1  0
 12 13  1  0
 13 14  1  1
 13 15  1  0
 15 16  1  0
 16 17  1  0
 17 18  2  0
 18 19  1  0
 19 20  1  0
 20 21  1  0
 21 22  1  0
 22 23  1  0
 22 24  1  0
 24 25  1  0
 24 26  1  0
 19 27  1  0
 27 28  1  6
 27 29  1  0
 29 30  1  0
 30 31  1  0
 31 32  1  6
  7  5  1  0
 31 10  1  0
 31 13  1  0
 27 15  1  0
 24 18  1  0
  1 33  1  0
  1 34  1  0
  1 35  1  0
  2 36  1  6
  3 37  1  0
  3 38  1  0
  4 39  1  0
  4 40  1  0
  5 41  1  6
  8 42  1  0
  8 43  1  0
  8 44  1  0
  9 45  1  0
  9 46  1  0
  9 47  1  0
 10 48  1  1
 11 49  1  0
 11 50  1  0
 12 51  1  0
 12 52  1  0
 14 53  1  0
 14 54  1  0
 14 55  1  0
 15 56  1  6
 16 57  1  0
 16 58  1  0
 17 59  1  0
 19 60  1  1
 20 61  1  0
 20 62  1  0
 21 63  1  0
 21 64  1  0
 22 65  1  1
 23 66  1  0
 25 67  1  0
 25 68  1  0
 25 69  1  0
 26 70  1  0
 26 71  1  0
 26 72  1  0
 28 73  1  0
 28 74  1  0
 28 75  1  0
 29 76  1  0
 29 77  1  0
 30 78  1  0
 30 79  1  0
 32 80  1  0
 32 81  1  0
 32 82  1  0
M  END
>  <meeko>  (6) 
{"is_sidechain": [false], "intermolecular_energy": 2.731, "internal_energy": -0.839}

$$$$
EPH_relaxed_0001_pdb2pqr_Repair_85_r2_0001_out
     RDKit          3D

 82 86  0  0  0  0  0  0  0  0999 V2000
    0.0120   10.4760   -3.7920 C   0  0  0  0  0  0  0  0  0  0  0  0
    1.0870   10.2700   -2.7210 C   0  0  2  0  0  0  0  0  0  0  0  0
    0.8480    8.9890   -1.8970 C   0  0  0  0  0  0  0  0  0  0  0  0
    0.2560    9.2520   -0.5100 C   0  0  0  0  0  0  0  0  0  0  0  0
   -1.1800    8.8270   -0.4310 C   0  0  2  0  0  0  0  0  0  0  0  0
   -1.8970    8.9070   -1.6700 O   0  0  0  0  0  0  0  0  0  0  0  0
   -2.3460    9.7790   -0.6200 C   0  0  0  0  0  0  0  0  0  0  0  0
   -2.1280   11.2330   -0.9020 C   0  0  0  0  0  0  0  0  0  0  0  0
   -3.6770    9.4010   -0.0500 C   0  0  0  0  0  0  0  0  0  0  0  0
    1.1390   11.4820   -1.7980 C   0  0  1  0  0  0  0  0  0  0  0  0
    2.2010   11.3320   -0.6760 C   0  0  0  0  0  0  0  0  0  0  0  0
    2.7840   12.7460   -0.4210 C   0  0  0  0  0  0  0  0  0  0  0  0
    1.8200   13.7050   -1.1570 C   0  0  1  0  0  0  0  0  0  0  0  0
    0.6150   13.8890   -0.1820 C   0  0  0  0  0  0  0  0  0  0  0  0
    2.4170   15.0790   -1.6030 C   0  0  2  0  0  0  0  0  0  0  0  0
    2.9010   15.9830   -0.4550 C   0  0  0  0  0  0  0  0  0  0  0  0
    1.8780   16.9230    0.0910 C   0  0  0  0  0  0  0  0  0  0  0  0
    0.7130   17.2410   -0.5020 C   0  0  0  0  0  0  0  0  0  0  0  0
    0.3690   16.7090   -1.8990 C   0  0  1  0  0  0  0  0  0  0  0  0
   -0.1750   17.8680   -2.7750 C   0  0  0  0  0  0  0  0  0  0  0  0
   -1.3470   18.5950   -2.1230 C   0  0  0  0  0  0  0  0  0  0  0  0
   -0.9490   19.1600   -0.7610 C   0  0  2  0  0  0  0  0  0  0  0  0
    0.0200   20.1940   -0.9570 O   0  0  0  0  0  0  0  0  0  0  0  0
   -0.3770   18.0850    0.2050 C   0  0  0  0  0  0  0  0  0  0  0  0
   -1.5130   17.1330    0.6550 C   0  0  0  0  0  0  0  0  0  0  0  0
    0.1160   18.8080    1.4870 C   0  0  0  0  0  0  0  0  0  0  0  0
    1.5130   15.8790   -2.6250 C   0  0  1  0  0  0  0  0  0  0  0  0
    2.4620   16.8450   -3.3990 C   0  0  0  0  0  0  0  0  0  0  0  0
    0.8580   14.9400   -3.7070 C   0  0  0  0  0  0  0  0  0  0  0  0
    0.3970   13.5490   -3.2310 C   0  0  0  0  0  0  0  0  0  0  0  0
    1.5010   12.8470   -2.4360 C   0  0  2  0  0  0  0  0  0  0  0  0
    2.7180   12.6280   -3.3980 C   0  0  0  0  0  0  0  0  0  0  0  0
   -0.9577   10.6618   -3.3072 H   0  0  0  0  0  0  0  0  0  0  0  0
    0.2798   11.3392   -4.4191 H   0  0  0  0  0  0  0  0  0  0  0  0
   -0.0583    9.5750   -4.4191 H   0  0  0  0  0  0  0  0  0  0  0  0
    2.0514   10.1543   -3.2373 H   0  0  0  0  0  0  0  0  0  0  0  0
    0.1542    8.3421   -2.4539 H   0  0  0  0  0  0  0  0  0  0  0  0
    1.8297    8.5171   -1.7437 H   0  0  0  0  0  0  0  0  0  0  0  0
    0.8357    8.6906    0.2375 H   0  0  0  0  0  0  0  0  0  0  0  0
    0.3051   10.3335   -0.3153 H   0  0  0  0  0  0  0  0  0  0  0  0
   -0.9447    8.0960    0.3565 H   0  0  0  0  0  0  0  0  0  0  0  0
   -2.0456   11.7823    0.0475 H   0  0  0  0  0  0  0  0  0  0  0  0
   -1.2009   11.3594   -1.4803 H   0  0  0  0  0  0  0  0  0  0  0  0
   -2.9773   11.6257   -1.4803 H   0  0  0  0  0  0  0  0  0  0  0  0
   -3.6231    9.4163    1.0486 H   0  0  0  0  0  0  0  0  0  0  0  0
   -4.4385   10.1184   -0.3898 H   0  0  0  0  0  0  0  0  0  0  0  0
   -3.9478    8.3904   -0.3898 H   0  0  0  0  0  0  0  0  0  0  0  0
    0.0954   11.4948   -1.4504 H   0  0  0  0  0  0  0  0  0  0  0  0
    1.7319   10.9446    0.2404 H   0  0  0  0  0  0  0  0  0  0  0  0
    2.9912   10.6261   -0.9715 H   0  0  0  0  0  0  0  0  0  0  0  0
    2.8056   12.9685    0.6560 H   0  0  0  0  0  0  0  0  0  0  0  0
    3.8198   12.8405   -0.7790 H   0  0  0  0  0  0  0  0  0  0  0  0
    0.9723   13.8344    0.8569 H   0  0  0  0  0  0  0  0  0  0  0  0
    0.1473   14.8690   -0.3579 H   0  0  0  0  0  0  0  0  0  0  0  0
   -0.1238   13.0933   -0.3579 H   0  0  0  0  0  0  0  0  0  0  0  0
    3.3227   14.7756   -2.1486 H   0  0  0  0  0  0  0  0  0  0  0  0
    3.2410   15.3359    0.3670 H   0  0  0  0  0  0  0  0  0  0  0  0
    3.6975   16.6125   -0.8785 H   0  0  0  0  0  0  0  0  0  0  0  0
    2.0951   17.3957    1.0602 H   0  0  0  0  0  0  0  0  0  0  0  0
   -0.4163   15.9528   -1.7523 H   0  0  0  0  0  0  0  0  0  0  0  0
    0.6363   18.5906   -2.9469 H   0  0  0  0  0  0  0  0  0  0  0  0
   -0.5361   17.4320   -3.7181 H   0  0  0  0  0  0  0  0  0  0  0  0
   -1.6667   19.4206   -2.7758 H   0  0  0  0  0  0  0  0  0  0  0  0
   -2.1689   17.8781   -1.9793 H   0  0  0  0  0  0  0  0  0  0  0  0
   -1.8607   19.5536   -0.2878 H   0  0  0  0  0  0  0  0  0  0  0  0
    0.7910   19.9850   -0.4030 H   0  0  0  0  0  0  0  0  0  0  0  0
   -1.5510   17.1012    1.7539 H   0  0  0  0  0  0  0  0  0  0  0  0
   -2.4743   17.4993    0.2653 H   0  0  0  0  0  0  0  0  0  0  0  0
   -1.3205   16.1225    0.2653 H   0  0  0  0  0  0  0  0  0  0  0  0
   -0.2501   18.2711    2.3745 H   0  0  0  0  0  0  0  0  0  0  0  0
    1.2158   18.8267    1.4975 H   0  0  0  0  0  0  0  0  0  0  0  0
   -0.2683   19.8386    1.4975 H   0  0  0  0  0  0  0  0  0  0  0  0
    3.0457   17.4392   -2.6806 H   0  0  0  0  0  0  0  0  0  0  0  0
    3.1455   16.2591   -4.0311 H   0  0  0  0  0  0  0  0  0  0  0  0
    1.8641   17.5179   -4.0311 H   0  0  0  0  0  0  0  0  0  0  0  0
   -0.0217   15.4617   -4.1120 H   0  0  0  0  0  0  0  0  0  0  0  0
    1.6551   14.7444   -4.4394 H   0  0  0  0  0  0  0  0  0  0  0  0
   -0.4899   13.6637   -2.5905 H   0  0  0  0  0  0  0  0  0  0  0  0
    0.1585   12.9379   -4.1140 H   0  0  0  0  0  0  0  0  0  0  0  0
    3.6296   12.4640   -2.8046 H   0  0  0  0  0  0  0  0  0  0  0  0
    2.5304   11.7492   -4.0324 H   0  0  0  0  0  0  0  0  0  0  0  0
    2.8485   13.5171   -4.0324 H   0  0  0  0  0  0  0  0  0  0  0  0
  1  2  1  0
  2  3  1  0
  3  4  1  0
  4  5  1  0
  5  6  1  0
  6  7  1  0
  7  8  1  0
  7  9  1  0
  2 10  1  0
 10 11  1  0
 11 12  1  0
 12 13  1  0
 13 14  1  1
 13 15  1  0
 15 16  1  0
 16 17  1  0
 17 18  2  0
 18 19  1  0
 19 20  1  0
 20 21  1  0
 21 22  1  0
 22 23  1  0
 22 24  1  0
 24 25  1  0
 24 26  1  0
 19 27  1  0
 27 28  1  6
 27 29  1  0
 29 30  1  0
 30 31  1  0
 31 32  1  6
  7  5  1  0
 31 10  1  0
 31 13  1  0
 27 15  1  0
 24 18  1  0
  1 33  1  0
  1 34  1  0
  1 35  1  0
  2 36  1  6
  3 37  1  0
  3 38  1  0
  4 39  1  0
  4 40  1  0
  5 41  1  1
  8 42  1  0
  8 43  1  0
  8 44  1  0
  9 45  1  0
  9 46  1  0
  9 47  1  0
 10 48  1  1
 11 49  1  0
 11 50  1  0
 12 51  1  0
 12 52  1  0
 14 53  1  0
 14 54  1  0
 14 55  1  0
 15 56  1  6
 16 57  1  0
 16 58  1  0
 17 59  1  0
 19 60  1  1
 20 61  1  0
 20 62  1  0
 21 63  1  0
 21 64  1  0
 22 65  1  1
 23 66  1  0
 25 67  1  0
 25 68  1  0
 25 69  1  0
 26 70  1  0
 26 71  1  0
 26 72  1  0
 28 73  1  0
 28 74  1  0
 28 75  1  0
 29 76  1  0
 29 77  1  0
 30 78  1  0
 30 79  1  0
 32 80  1  0
 32 81  1  0
 32 82  1  0
M  END
>  <meeko>  (7) 
{"is_sidechain": [false], "intermolecular_energy": 2.731, "internal_energy": -0.839}

$$$$
EPH_relaxed_0001_pdb2pqr_Repair_85_r2_0001_out
     RDKit          3D

 82 86  0  0  0  0  0  0  0  0999 V2000
   -3.3220    9.4300    0.2170 C   0  0  0  0  0  0  0  0  0  0  0  0
   -2.1930    9.5500   -0.8110 C   0  0  2  0  0  0  0  0  0  0  0  0
   -1.4200    8.2270   -0.9810 C   0  0  0  0  0  0  0  0  0  0  0  0
   -1.6150    7.5720   -2.3510 C   0  0  0  0  0  0  0  0  0  0  0  0
   -2.9910    7.8200   -2.8930 C   0  0  2  0  0  0  0  0  0  0  0  0
   -4.0560    7.5070   -1.9860 O   0  0  0  0  0  0  0  0  0  0  0  0
   -3.9880    6.7130   -3.1820 C   0  0  0  0  0  0  0  0  0  0  0  0
   -3.6500    5.2750   -2.9400 C   0  0  0  0  0  0  0  0  0  0  0  0
   -5.0970    6.9840   -4.1500 C   0  0  0  0  0  0  0  0  0  0  0  0
   -1.2360   10.6640   -0.4030 C   0  0  1  0  0  0  0  0  0  0  0  0
   -0.1410   10.1790    0.5840 C   0  0  0  0  0  0  0  0  0  0  0  0
    1.1480   10.9710    0.2450 C   0  0  0  0  0  0  0  0  0  0  0  0
    0.6730   12.1090   -0.6890 C   0  0  1  0  0  0  0  0  0  0  0  0
    0.1020   13.2020    0.2680 C   0  0  0  0  0  0  0  0  0  0  0  0
    1.7460   12.6970   -1.6620 C   0  0  2  0  0  0  0  0  0  0  0  0
    2.9490   13.3700   -0.9780 C   0  0  0  0  0  0  0  0  0  0  0  0
    2.7960   14.8310   -0.7120 C   0  0  0  0  0  0  0  0  0  0  0  0
    1.8640   15.6330   -1.2600 C   0  0  0  0  0  0  0  0  0  0  0  0
    0.8950   15.1010   -2.3250 C   0  0  1  0  0  0  0  0  0  0  0  0
    0.8200   16.1060   -3.5040 C   0  0  0  0  0  0  0  0  0  0  0  0
    0.4670   17.5190   -3.0470 C   0  0  0  0  0  0  0  0  0  0  0  0
    1.4850   18.0340   -2.0340 C   0  0  2  0  0  0  0  0  0  0  0  0
    2.7460   18.1990   -2.6900 O   0  0  0  0  0  0  0  0  0  0  0  0
    1.6540   17.0980   -0.8050 C   0  0  0  0  0  0  0  0  0  0  0  0
    0.3790   17.1560    0.0730 C   0  0  0  0  0  0  0  0  0  0  0  0
    2.8080   17.6590    0.0690 C   0  0  0  0  0  0  0  0  0  0  0  0
    1.1490   13.6090   -2.8100 C   0  0  1  0  0  0  0  0  0  0  0  0
    2.1870   13.5970   -3.9730 C   0  0  0  0  0  0  0  0  0  0  0  0
   -0.1880   13.0270   -3.4020 C   0  0  0  0  0  0  0  0  0  0  0  0
   -1.1530   12.3520   -2.4090 C   0  0  0  0  0  0  0  0  0  0  0  0
   -0.4130   11.3410   -1.5270 C   0  0  2  0  0  0  0  0  0  0  0  0
    0.1540   10.2170   -2.4610 C   0  0  0  0  0  0  0  0  0  0  0  0
   -2.9001    9.4748    1.2319 H   0  0  0  0  0  0  0  0  0  0  0  0
   -4.0333   10.2576    0.0787 H   0  0  0  0  0  0  0  0  0  0  0  0
   -3.8434    8.4714    0.0787 H   0  0  0  0  0  0  0  0  0  0  0  0
   -2.6521    9.7908   -1.7812 H   0  0  0  0  0  0  0  0  0  0  0  0
   -0.3479    8.4310   -0.8430 H   0  0  0  0  0  0  0  0  0  0  0  0
   -1.8138    7.5258   -0.2305 H   0  0  0  0  0  0  0  0  0  0  0  0
   -0.8755    7.9857   -3.0525 H   0  0  0  0  0  0  0  0  0  0  0  0
   -1.4828    6.4862   -2.2341 H   0  0  0  0  0  0  0  0  0  0  0  0
   -2.6264    8.6614   -3.5005 H   0  0  0  0  0  0  0  0  0  0  0  0
   -3.6056    5.0860   -1.8573 H   0  0  0  0  0  0  0  0  0  0  0  0
   -4.4223    4.6356   -3.3924 H   0  0  0  0  0  0  0  0  0  0  0  0
   -2.6737    5.0467   -3.3924 H   0  0  0  0  0  0  0  0  0  0  0  0
   -6.0202    7.2096   -3.5961 H   0  0  0  0  0  0  0  0  0  0  0  0
   -4.8297    7.8433   -4.7826 H   0  0  0  0  0  0  0  0  0  0  0  0
   -5.2561    6.0983   -4.7826 H   0  0  0  0  0  0  0  0  0  0  0  0
   -1.9558   11.3805    0.0194 H   0  0  0  0  0  0  0  0  0  0  0  0
   -0.4486   10.3814    1.6205 H   0  0  0  0  0  0  0  0  0  0  0  0
    0.0244    9.0956    0.4897 H   0  0  0  0  0  0  0  0  0  0  0  0
    1.6024   11.3825    1.1584 H   0  0  0  0  0  0  0  0  0  0  0  0
    1.9147   10.3380   -0.2256 H   0  0  0  0  0  0  0  0  0  0  0  0
    0.2623   12.8952    1.3121 H   0  0  0  0  0  0  0  0  0  0  0  0
    0.6167   14.1564    0.0831 H   0  0  0  0  0  0  0  0  0  0  0  0
   -0.9754   13.3247    0.0831 H   0  0  0  0  0  0  0  0  0  0  0  0
    2.1453   11.7937   -2.1463 H   0  0  0  0  0  0  0  0  0  0  0  0
    3.1189   12.8652   -0.0155 H   0  0  0  0  0  0  0  0  0  0  0  0
    3.7906   13.2749   -1.6799 H   0  0  0  0  0  0  0  0  0  0  0  0
    3.5052   15.2913   -0.0083 H   0  0  0  0  0  0  0  0  0  0  0  0
   -0.0866   15.0273   -1.8340 H   0  0  0  0  0  0  0  0  0  0  0  0
    1.7975   16.1322   -4.0078 H   0  0  0  0  0  0  0  0  0  0  0  0
    0.0239   15.7659   -4.1826 H   0  0  0  0  0  0  0  0  0  0  0  0
    0.4576   18.1881   -3.9201 H   0  0  0  0  0  0  0  0  0  0  0  0
   -0.5236   17.4966   -2.5693 H   0  0  0  0  0  0  0  0  0  0  0  0
    1.1095   18.9933   -1.6483 H   0  0  0  0  0  0  0  0  0  0  0  0
    2.6620   18.9480   -3.3040 H   0  0  0  0  0  0  0  0  0  0  0  0
    0.6644   17.1430    1.1353 H   0  0  0  0  0  0  0  0  0  0  0  0
   -0.1756   18.0803   -0.1464 H   0  0  0  0  0  0  0  0  0  0  0  0
   -0.2572   16.2859   -0.1464 H   0  0  0  0  0  0  0  0  0  0  0  0
    2.5555   17.5362    1.1326 H   0  0  0  0  0  0  0  0  0  0  0  0
    3.7358   17.1114   -0.1532 H   0  0  0  0  0  0  0  0  0  0  0  0
    2.9504   18.7269   -0.1532 H   0  0  0  0  0  0  0  0  0  0  0  0
    3.2048   13.5852   -3.5559 H   0  0  0  0  0  0  0  0  0  0  0  0
    2.0339   12.7006   -4.5918 H   0  0  0  0  0  0  0  0  0  0  0  0
    2.0547   14.4967   -4.5918 H   0  0  0  0  0  0  0  0  0  0  0  0
   -0.7293   13.8570   -3.8796 H   0  0  0  0  0  0  0  0  0  0  0  0
    0.1261   12.2257   -4.0870 H   0  0  0  0  0  0  0  0  0  0  0  0
   -1.6081   13.1224   -1.7693 H   0  0  0  0  0  0  0  0  0  0  0  0
   -1.9276   11.8189   -2.9798 H   0  0  0  0  0  0  0  0  0  0  0  0
    0.5649    9.4024   -1.8466 H   0  0  0  0  0  0  0  0  0  0  0  0
   -0.6544    9.8254   -3.0959 H   0  0  0  0  0  0  0  0  0  0  0  0
    0.9494   10.6345   -3.0959 H   0  0  0  0  0  0  0  0  0  0  0  0
  1  2  1  0
  2  3  1  0
  3  4  1  0
  4  5  1  0
  5  6  1  0
  6  7  1  0
  7  8  1  0
  7  9  1  0
  2 10  1  0
 10 11  1  0
 11 12  1  0
 12 13  1  0
 13 14  1  1
 13 15  1  0
 15 16  1  0
 16 17  1  0
 17 18  2  0
 18 19  1  0
 19 20  1  0
 20 21  1  0
 21 22  1  0
 22 23  1  0
 22 24  1  0
 24 25  1  0
 24 26  1  0
 19 27  1  0
 27 28  1  6
 27 29  1  0
 29 30  1  0
 30 31  1  0
 31 32  1  6
  7  5  1  0
 31 10  1  0
 31 13  1  0
 27 15  1  0
 24 18  1  0
  1 33  1  0
  1 34  1  0
  1 35  1  0
  2 36  1  6
  3 37  1  0
  3 38  1  0
  4 39  1  0
  4 40  1  0
  5 41  1  6
  8 42  1  0
  8 43  1  0
  8 44  1  0
  9 45  1  0
  9 46  1  0
  9 47  1  0
 10 48  1  1
 11 49  1  0
 11 50  1  0
 12 51  1  0
 12 52  1  0
 14 53  1  0
 14 54  1  0
 14 55  1  0
 15 56  1  6
 16 57  1  0
 16 58  1  0
 17 59  1  0
 19 60  1  1
 20 61  1  0
 20 62  1  0
 21 63  1  0
 21 64  1  0
 22 65  1  1
 23 66  1  0
 25 67  1  0
 25 68  1  0
 25 69  1  0
 26 70  1  0
 26 71  1  0
 26 72  1  0
 28 73  1  0
 28 74  1  0
 28 75  1  0
 29 76  1  0
 29 77  1  0
 30 78  1  0
 30 79  1  0
 32 80  1  0
 32 81  1  0
 32 82  1  0
M  END
>  <meeko>  (8) 
{"is_sidechain": [false], "intermolecular_energy": 2.731, "internal_energy": -0.839}

$$$$
EPH_relaxed_0001_pdb2pqr_Repair_85_r2_0001_out
     RDKit          3D

 82 86  0  0  0  0  0  0  0  0999 V2000
    0.4210    8.8250   -2.4510 C   0  0  0  0  0  0  0  0  0  0  0  0
    1.1720    9.9770   -3.1250 C   0  0  2  0  0  0  0  0  0  0  0  0
    2.6690    9.9870   -2.7580 C   0  0  0  0  0  0  0  0  0  0  0  0
    3.5610   10.6190   -3.8300 C   0  0  0  0  0  0  0  0  0  0  0  0
    4.9580   10.8360   -3.3320 C   0  0  2  0  0  0  0  0  0  0  0  0
    5.5750   12.0470   -3.7880 O   0  0  0  0  0  0  0  0  0  0  0  0
    6.1790   10.8210   -4.2320 C   0  0  0  0  0  0  0  0  0  0  0  0
    6.0600   10.5820   -5.7050 C   0  0  0  0  0  0  0  0  0  0  0  0
    7.5180   10.5520   -3.6180 C   0  0  0  0  0  0  0  0  0  0  0  0
    0.5330   11.3070   -2.7430 C   0  0  1  0  0  0  0  0  0  0  0  0
   -0.8450   11.1310   -2.0500 C   0  0  0  0  0  0  0  0  0  0  0  0
   -0.9610   12.2590   -0.9930 C   0  0  0  0  0  0  0  0  0  0  0  0
    0.1890   13.2340   -1.3350 C   0  0  1  0  0  0  0  0  0  0  0  0
   -0.3590   14.1050   -2.5090 C   0  0  0  0  0  0  0  0  0  0  0  0
    0.7180   14.1180   -0.1590 C   0  0  2  0  0  0  0  0  0  0  0  0
   -0.3120   15.0880    0.4440 C   0  0  0  0  0  0  0  0  0  0  0  0
   -0.3550   16.4430   -0.1830 C   0  0  0  0  0  0  0  0  0  0  0  0
    0.5880   16.9600   -0.9920 C   0  0  0  0  0  0  0  0  0  0  0  0
    1.8890   16.1980   -1.2730 C   0  0  1  0  0  0  0  0  0  0  0  0
    3.0950   17.1630   -1.1310 C   0  0  0  0  0  0  0  0  0  0  0  0
    2.9510   18.4110   -1.9970 C   0  0  0  0  0  0  0  0  0  0  0  0
    1.6750   19.1730   -1.6470 C   0  0  2  0  0  0  0  0  0  0  0  0
    1.8000   19.6970   -0.3220 O   0  0  0  0  0  0  0  0  0  0  0  0
    0.3930   18.2990   -1.7450 C   0  0  0  0  0  0  0  0  0  0  0  0
    0.0930   17.9820   -3.2310 C   0  0  0  0  0  0  0  0  0  0  0  0
   -0.8020   19.1460   -1.2320 C   0  0  0  0  0  0  0  0  0  0  0  0
    2.0900   14.8470   -0.4620 C   0  0  1  0  0  0  0  0  0  0  0  0
    2.7490   15.1480    0.9190 C   0  0  0  0  0  0  0  0  0  0  0  0
    3.0980   13.9230   -1.2430 C   0  0  0  0  0  0  0  0  0  0  0  0
    2.4990   12.9870   -2.3100 C   0  0  0  0  0  0  0  0  0  0  0  0
    1.3060   12.2080   -1.7480 C   0  0  2  0  0  0  0  0  0  0  0  0
    1.8310   11.3060   -0.5800 C   0  0  0  0  0  0  0  0  0  0  0  0
    0.4905    8.9315   -1.3584 H   0  0  0  0  0  0  0  0  0  0  0  0
   -0.6358    8.8485   -2.7553 H   0  0  0  0  0  0  0  0  0  0  0  0
    0.8689    7.8675   -2.7553 H   0  0  0  0  0  0  0  0  0  0  0  0
    1.0999    9.8285   -4.2125 H   0  0  0  0  0  0  0  0  0  0  0  0
    2.7938   10.5541   -1.8237 H   0  0  0  0  0  0  0  0  0  0  0  0
    2.9823    8.9374   -2.6567 H   0  0  0  0  0  0  0  0  0  0  0  0
    3.5939    9.9526   -4.7046 H   0  0  0  0  0  0  0  0  0  0  0  0
    3.1360   11.5981   -4.0959 H   0  0  0  0  0  0  0  0  0  0  0  0
    4.7286   10.3140   -2.3913 H   0  0  0  0  0  0  0  0  0  0  0  0
    5.5760    9.6100   -5.8808 H   0  0  0  0  0  0  0  0  0  0  0  0
    5.4543   11.3805   -6.1583 H   0  0  0  0  0  0  0  0  0  0  0  0
    7.0623   10.5799   -6.1583 H   0  0  0  0  0  0  0  0  0  0  0  0
    7.4290   10.5699   -2.5218 H   0  0  0  0  0  0  0  0  0  0  0  0
    7.8774    9.5637   -3.9406 H   0  0  0  0  0  0  0  0  0  0  0  0
    8.2312   11.3248   -3.9406 H   0  0  0  0  0  0  0  0  0  0  0  0
    0.4968   11.7847   -3.7332 H   0  0  0  0  0  0  0  0  0  0  0  0
   -1.6548   11.2197   -2.7891 H   0  0  0  0  0  0  0  0  0  0  0  0
   -0.9274   10.1396   -1.5805 H   0  0  0  0  0  0  0  0  0  0  0  0
   -1.9348   12.7648   -1.0702 H   0  0  0  0  0  0  0  0  0  0  0  0
   -0.8907   11.8755    0.0356 H   0  0  0  0  0  0  0  0  0  0  0  0
   -0.9030   14.9697   -2.1011 H   0  0  0  0  0  0  0  0  0  0  0  0
    0.4802   14.4578   -3.1265 H   0  0  0  0  0  0  0  0  0  0  0  0
   -1.0402   13.5012   -3.1265 H   0  0  0  0  0  0  0  0  0  0  0  0
    0.9186   13.3717    0.6238 H   0  0  0  0  0  0  0  0  0  0  0  0
   -1.3084   14.6336    0.3402 H   0  0  0  0  0  0  0  0  0  0  0  0
   -0.0066   15.2455    1.4889 H   0  0  0  0  0  0  0  0  0  0  0  0
   -1.2313   17.0712    0.0349 H   0  0  0  0  0  0  0  0  0  0  0  0
    1.8152   15.8429   -2.3115 H   0  0  0  0  0  0  0  0  0  0  0  0
    3.1775   17.4718   -0.0785 H   0  0  0  0  0  0  0  0  0  0  0  0
    3.9940   16.6255   -1.4669 H   0  0  0  0  0  0  0  0  0  0  0  0
    3.8188   19.0664   -1.8313 H   0  0  0  0  0  0  0  0  0  0  0  0
    2.8981   18.1027   -3.0516 H   0  0  0  0  0  0  0  0  0  0  0  0
    1.5605   19.9811   -2.3844 H   0  0  0  0  0  0  0  0  0  0  0  0
    0.9030   19.8130    0.0340 H   0  0  0  0  0  0  0  0  0  0  0  0
   -0.6620   17.1842   -3.2905 H   0  0  0  0  0  0  0  0  0  0  0  0
   -0.2884   18.8857   -3.7289 H   0  0  0  0  0  0  0  0  0  0  0  0
    1.0163   17.6510   -3.7289 H   0  0  0  0  0  0  0  0  0  0  0  0
   -0.8046   19.1479   -0.1320 H   0  0  0  0  0  0  0  0  0  0  0  0
   -0.7048   20.1780   -1.6002 H   0  0  0  0  0  0  0  0  0  0  0  0
   -1.7435   18.7125   -1.6002 H   0  0  0  0  0  0  0  0  0  0  0  0
    2.0686   14.8372    1.7255 H   0  0  0  0  0  0  0  0  0  0  0  0
    3.6948   14.5926    1.0028 H   0  0  0  0  0  0  0  0  0  0  0  0
    2.9485   16.2265    1.0028 H   0  0  0  0  0  0  0  0  0  0  0  0
    3.8274   14.5758   -1.7448 H   0  0  0  0  0  0  0  0  0  0  0  0
    3.5250   13.2545   -0.4809 H   0  0  0  0  0  0  0  0  0  0  0  0
    2.1644   13.5876   -3.1687 H   0  0  0  0  0  0  0  0  0  0  0  0
    3.2721   12.2688   -2.6206 H   0  0  0  0  0  0  0  0  0  0  0  0
    1.5649   11.7632    0.3844 H   0  0  0  0  0  0  0  0  0  0  0  0
    1.3722   10.3089   -0.6521 H   0  0  0  0  0  0  0  0  0  0  0  0
    2.9246   11.2125   -0.6521 H   0  0  0  0  0  0  0  0  0  0  0  0
  1  2  1  0
  2  3  1  0
  3  4  1  0
  4  5  1  0
  5  6  1  0
  6  7  1  0
  7  8  1  0
  7  9  1  0
  2 10  1  0
 10 11  1  0
 11 12  1  0
 12 13  1  0
 13 14  1  6
 13 15  1  0
 15 16  1  0
 16 17  1  0
 17 18  2  0
 18 19  1  0
 19 20  1  0
 20 21  1  0
 21 22  1  0
 22 23  1  0
 22 24  1  0
 24 25  1  0
 24 26  1  0
 19 27  1  0
 27 28  1  1
 27 29  1  0
 29 30  1  0
 30 31  1  0
 31 32  1  1
  7  5  1  0
 31 10  1  0
 31 13  1  0
 27 15  1  0
 24 18  1  0
  1 33  1  0
  1 34  1  0
  1 35  1  0
  2 36  1  6
  3 37  1  0
  3 38  1  0
  4 39  1  0
  4 40  1  0
  5 41  1  1
  8 42  1  0
  8 43  1  0
  8 44  1  0
  9 45  1  0
  9 46  1  0
  9 47  1  0
 10 48  1  6
 11 49  1  0
 11 50  1  0
 12 51  1  0
 12 52  1  0
 14 53  1  0
 14 54  1  0
 14 55  1  0
 15 56  1  1
 16 57  1  0
 16 58  1  0
 17 59  1  0
 19 60  1  6
 20 61  1  0
 20 62  1  0
 21 63  1  0
 21 64  1  0
 22 65  1  6
 23 66  1  0
 25 67  1  0
 25 68  1  0
 25 69  1  0
 26 70  1  0
 26 71  1  0
 26 72  1  0
 28 73  1  0
 28 74  1  0
 28 75  1  0
 29 76  1  0
 29 77  1  0
 30 78  1  0
 30 79  1  0
 32 80  1  0
 32 81  1  0
 32 82  1  0
M  END
>  <meeko>  (9) 
{"is_sidechain": [false], "intermolecular_energy": 2.731, "internal_energy": -0.839}

$$$$
EPH_relaxed_0001_pdb2pqr_Repair_85_r2_0001_out
     RDKit          3D

 82 86  0  0  0  0  0  0  0  0999 V2000
    1.2970   19.7150   -1.8460 C   0  0  0  0  0  0  0  0  0  0  0  0
    1.5050   19.3700   -0.3690 C   0  0  2  0  0  0  0  0  0  0  0  0
    2.9670   19.5770    0.0760 C   0  0  0  0  0  0  0  0  0  0  0  0
    3.2410   19.1370    1.5170 C   0  0  0  0  0  0  0  0  0  0  0  0
    4.6550   19.4210    1.9240 C   0  0  2  0  0  0  0  0  0  0  0  0
    5.3450   18.3080    2.5060 O   0  0  0  0  0  0  0  0  0  0  0  0
    5.1230   19.4360    3.3680 C   0  0  0  0  0  0  0  0  0  0  0  0
    4.1790   19.1620    4.4970 C   0  0  0  0  0  0  0  0  0  0  0  0
    6.3700   20.1900    3.7080 C   0  0  0  0  0  0  0  0  0  0  0  0
    1.0810   17.9300   -0.1070 C   0  0  1  0  0  0  0  0  0  0  0  0
   -0.3170   17.8310    0.5610 C   0  0  0  0  0  0  0  0  0  0  0  0
   -0.9930   16.5540   -0.0020 C   0  0  0  0  0  0  0  0  0  0  0  0
    0.1490   15.7890   -0.7100 C   0  0  1  0  0  0  0  0  0  0  0  0
    0.9000   15.0390    0.4350 C   0  0  0  0  0  0  0  0  0  0  0  0
   -0.2790   14.8140   -1.8550 C   0  0  2  0  0  0  0  0  0  0  0  0
   -1.1790   13.6460   -1.4160 C   0  0  0  0  0  0  0  0  0  0  0  0
   -0.4580   12.4040   -1.0090 C   0  0  0  0  0  0  0  0  0  0  0  0
    0.8350   12.1300   -1.2640 C   0  0  0  0  0  0  0  0  0  0  0  0
    1.6880   13.0800   -2.1150 C   0  0  1  0  0  0  0  0  0  0  0  0
    2.4850   12.2600   -3.1630 C   0  0  0  0  0  0  0  0  0  0  0  0
    3.3100   11.1450   -2.5290 C   0  0  0  0  0  0  0  0  0  0  0  0
    2.4200   10.1890   -1.7400 C   0  0  2  0  0  0  0  0  0  0  0  0
    1.5650    9.4950   -2.6530 O   0  0  0  0  0  0  0  0  0  0  0  0
    1.5610   10.9030   -0.6590 C   0  0  0  0  0  0  0  0  0  0  0  0
    2.4740   11.3960    0.4900 C   0  0  0  0  0  0  0  0  0  0  0  0
    0.6070    9.8500   -0.0340 C   0  0  0  0  0  0  0  0  0  0  0  0
    0.9190   14.3120   -2.7600 C   0  0  1  0  0  0  0  0  0  0  0  0
    0.2980   13.8940   -4.1290 C   0  0  0  0  0  0  0  0  0  0  0  0
    1.9530   15.4570   -3.0730 C   0  0  0  0  0  0  0  0  0  0  0  0
    2.2440   16.4590   -1.9400 C   0  0  0  0  0  0  0  0  0  0  0  0
    0.9430   16.9940   -1.3340 C   0  0  2  0  0  0  0  0  0  0  0  0
    0.1770   17.7730   -2.4570 C   0  0  0  0  0  0  0  0  0  0  0  0
    0.7306   20.6545   -1.9268 H   0  0  0  0  0  0  0  0  0  0  0  0
    2.2747   19.8329   -2.3362 H   0  0  0  0  0  0  0  0  0  0  0  0
    0.7363   18.9055   -2.3362 H   0  0  0  0  0  0  0  0  0  0  0  0
    0.8797   20.0557    0.2216 H   0  0  0  0  0  0  0  0  0  0  0  0
    3.6191   18.9973   -0.5939 H   0  0  0  0  0  0  0  0  0  0  0  0
    3.1678   20.6574    0.0265 H   0  0  0  0  0  0  0  0  0  0  0  0
    2.5606   19.6786    2.1906 H   0  0  0  0  0  0  0  0  0  0  0  0
    3.0773   18.0511    1.5809 H   0  0  0  0  0  0  0  0  0  0  0  0
    4.7713   20.1440    1.1031 H   0  0  0  0  0  0  0  0  0  0  0  0
    4.6989   19.3129    5.4545 H   0  0  0  0  0  0  0  0  0  0  0  0
    3.3218   19.8484    4.4330 H   0  0  0  0  0  0  0  0  0  0  0  0
    3.8225   18.1233    4.4330 H   0  0  0  0  0  0  0  0  0  0  0  0
    6.4739   20.2528    4.8013 H   0  0  0  0  0  0  0  0  0  0  0  0
    7.2411   19.6672    3.2863 H   0  0  0  0  0  0  0  0  0  0  0  0
    6.3117   21.2043    3.2863 H   0  0  0  0  0  0  0  0  0  0  0  0
    1.9211   17.6027    0.5232 H   0  0  0  0  0  0  0  0  0  0  0  0
   -0.2103   17.7529    1.6530 H   0  0  0  0  0  0  0  0  0  0  0  0
   -0.9212   18.7248    0.3464 H   0  0  0  0  0  0  0  0  0  0  0  0
   -1.4195   15.9492    0.8119 H   0  0  0  0  0  0  0  0  0  0  0  0
   -1.8243   16.7876   -0.6835 H   0  0  0  0  0  0  0  0  0  0  0  0
    0.5382   15.4003    1.4089 H   0  0  0  0  0  0  0  0  0  0  0  0
    0.7108   13.9586    0.3514 H   0  0  0  0  0  0  0  0  0  0  0  0
    1.9801   15.2296    0.3514 H   0  0  0  0  0  0  0  0  0  0  0  0
   -0.9104   15.4557   -2.4871 H   0  0  0  0  0  0  0  0  0  0  0  0
   -1.7824   13.9846   -0.5608 H   0  0  0  0  0  0  0  0  0  0  0  0
   -1.7781   13.3751   -2.2979 H   0  0  0  0  0  0  0  0  0  0  0  0
   -1.0323   11.6481   -0.4533 H   0  0  0  0  0  0  0  0  0  0  0  0
    2.3830   13.5722   -1.4188 H   0  0  0  0  0  0  0  0  0  0  0  0
    1.7753   11.8126   -3.8745 H   0  0  0  0  0  0  0  0  0  0  0  0
    3.1822   12.9473   -3.6646 H   0  0  0  0  0  0  0  0  0  0  0  0
    3.8267   10.5842   -3.3218 H   0  0  0  0  0  0  0  0  0  0  0  0
    4.0386   11.5961   -1.8394 H   0  0  0  0  0  0  0  0  0  0  0  0
    3.0798    9.4901   -1.2050 H   0  0  0  0  0  0  0  0  0  0  0  0
    0.6860    9.4290   -2.2420 H   0  0  0  0  0  0  0  0  0  0  0  0
    2.0130   11.1471    1.4572 H   0  0  0  0  0  0  0  0  0  0  0  0
    3.4556   10.9053    0.4146 H   0  0  0  0  0  0  0  0  0  0  0  0
    2.6021   12.4859    0.4146 H   0  0  0  0  0  0  0  0  0  0  0  0
    0.6620    9.9107    1.0629 H   0  0  0  0  0  0  0  0  0  0  0  0
   -0.4241   10.0496   -0.3610 H   0  0  0  0  0  0  0  0  0  0  0  0
    0.9071    8.8435   -0.3610 H   0  0  0  0  0  0  0  0  0  0  0  0
   -0.6028   13.2877   -3.9531 H   0  0  0  0  0  0  0  0  0  0  0  0
    0.0280   14.7949   -4.6995 H   0  0  0  0  0  0  0  0  0  0  0  0
    1.0310   13.3047   -4.6995 H   0  0  0  0  0  0  0  0  0  0  0  0
    2.9052   14.9795   -3.3476 H   0  0  0  0  0  0  0  0  0  0  0  0
    1.4888   16.0533   -3.8723 H   0  0  0  0  0  0  0  0  0  0  0  0
    2.8263   15.9550   -1.1546 H   0  0  0  0  0  0  0  0  0  0  0  0
    2.8108   17.3047   -2.3566 H   0  0  0  0  0  0  0  0  0  0  0  0
   -0.5235   18.4853   -1.9966 H   0  0  0  0  0  0  0  0  0  0  0  0
    0.8987   18.3200   -3.0814 H   0  0  0  0  0  0  0  0  0  0  0  0
   -0.3821   17.0606   -3.0814 H   0  0  0  0  0  0  0  0  0  0  0  0
  1  2  1  0
  2  3  1  0
  3  4  1  0
  4  5  1  0
  5  6  1  0
  6  7  1  0
  7  8  1  0
  7  9  1  0
  2 10  1  0
 10 11  1  0
 11 12  1  0
 12 13  1  0
 13 14  1  1
 13 15  1  0
 15 16  1  0
 16 17  1  0
 17 18  2  0
 18 19  1  0
 19 20  1  0
 20 21  1  0
 21 22  1  0
 22 23  1  0
 22 24  1  0
 24 25  1  0
 24 26  1  0
 19 27  1  0
 27 28  1  6
 27 29  1  0
 29 30  1  0
 30 31  1  0
 31 32  1  6
  7  5  1  0
 31 10  1  0
 31 13  1  0
 27 15  1  0
 24 18  1  0
  1 33  1  0
  1 34  1  0
  1 35  1  0
  2 36  1  1
  3 37  1  0
  3 38  1  0
  4 39  1  0
  4 40  1  0
  5 41  1  6
  8 42  1  0
  8 43  1  0
  8 44  1  0
  9 45  1  0
  9 46  1  0
  9 47  1  0
 10 48  1  1
 11 49  1  0
 11 50  1  0
 12 51  1  0
 12 52  1  0
 14 53  1  0
 14 54  1  0
 14 55  1  0
 15 56  1  6
 16 57  1  0
 16 58  1  0
 17 59  1  0
 19 60  1  1
 20 61  1  0
 20 62  1  0
 21 63  1  0
 21 64  1  0
 22 65  1  1
 23 66  1  0
 25 67  1  0
 25 68  1  0
 25 69  1  0
 26 70  1  0
 26 71  1  0
 26 72  1  0
 28 73  1  0
 28 74  1  0
 28 75  1  0
 29 76  1  0
 29 77  1  0
 30 78  1  0
 30 79  1  0
 32 80  1  0
 32 81  1  0
 32 82  1  0
M  END
>  <meeko>  (10) 
{"is_sidechain": [false], "intermolecular_energy": 2.731, "internal_energy": -0.839}

$$$$
EPH_relaxed_0001_pdb2pqr_Repair_85_r2_0001_out
     RDKit          3D

 82 86  0  0  0  0  0  0  0  0999 V2000
    3.0840   18.7110   -1.2280 C   0  0  0  0  0  0  0  0  0  0  0  0
    2.7120   17.6470   -2.2650 C   0  0  2  0  0  0  0  0  0  0  0  0
    1.3090   17.8810   -2.8590 C   0  0  0  0  0  0  0  0  0  0  0  0
    0.6700   19.2040   -2.4270 C   0  0  0  0  0  0  0  0  0  0  0  0
   -0.6710   18.9910   -1.7930 C   0  0  2  0  0  0  0  0  0  0  0  0
   -1.3990   20.1940   -1.5140 O   0  0  0  0  0  0  0  0  0  0  0  0
   -1.0020   19.4140   -0.3740 C   0  0  0  0  0  0  0  0  0  0  0  0
    0.0130   20.0840    0.4970 C   0  0  0  0  0  0  0  0  0  0  0  0
   -2.1440   18.7440    0.3240 C   0  0  0  0  0  0  0  0  0  0  0  0
    2.7870   16.2600   -1.6360 C   0  0  1  0  0  0  0  0  0  0  0  0
    3.4090   16.2810   -0.2140 C   0  0  0  0  0  0  0  0  0  0  0  0
    2.6800   15.1890    0.6090 C   0  0  0  0  0  0  0  0  0  0  0  0
    1.9070   14.3590   -0.4430 C   0  0  1  0  0  0  0  0  0  0  0  0
    2.9660   13.3800   -1.0390 C   0  0  0  0  0  0  0  0  0  0  0  0
    0.6430   13.5960    0.0720 C   0  0  2  0  0  0  0  0  0  0  0  0
    0.9170   12.5240    1.1400 C   0  0  0  0  0  0  0  0  0  0  0  0
    1.1840   11.1520    0.6130 C   0  0  0  0  0  0  0  0  0  0  0  0
    0.9240   10.7320   -0.6380 C   0  0  0  0  0  0  0  0  0  0  0  0
    0.2130   11.6450   -1.6450 C   0  0  1  0  0  0  0  0  0  0  0  0
   -0.9120   10.8510   -2.3600 C   0  0  0  0  0  0  0  0  0  0  0  0
   -0.4020    9.5630   -3.0000 C   0  0  0  0  0  0  0  0  0  0  0  0
    0.2460    8.6560   -1.9580 C   0  0  2  0  0  0  0  0  0  0  0  0
   -0.7620    8.2030   -1.0500 O   0  0  0  0  0  0  0  0  0  0  0  0
    1.3880    9.3510   -1.1660 C   0  0  0  0  0  0  0  0  0  0  0  0
    2.6080    9.5710   -2.0950 C   0  0  0  0  0  0  0  0  0  0  0  0
    1.8600    8.3760   -0.0530 C   0  0  0  0  0  0  0  0  0  0  0  0
   -0.2920   13.0410   -1.0770 C   0  0  1  0  0  0  0  0  0  0  0  0
   -1.7140   12.8800   -0.4570 C   0  0  0  0  0  0  0  0  0  0  0  0
   -0.4420   14.0580   -2.2710 C   0  0  0  0  0  0  0  0  0  0  0  0
    0.8120   14.8680   -2.6540 C   0  0  0  0  0  0  0  0  0  0  0  0
    1.4520   15.5050   -1.4170 C   0  0  2  0  0  0  0  0  0  0  0  0
    0.4170   16.5120   -0.8080 C   0  0  0  0  0  0  0  0  0  0  0  0
    2.9413   18.3029   -0.2165 H   0  0  0  0  0  0  0  0  0  0  0  0
    4.1367   19.0007   -1.3614 H   0  0  0  0  0  0  0  0  0  0  0  0
    2.4411   19.5936   -1.3614 H   0  0  0  0  0  0  0  0  0  0  0  0
    3.4360   17.7209   -3.0898 H   0  0  0  0  0  0  0  0  0  0  0  0
    1.3913   17.8770   -3.9559 H   0  0  0  0  0  0  0  0  0  0  0  0
    0.6624   17.0742   -2.4835 H   0  0  0  0  0  0  0  0  0  0  0  0
    1.3323   19.6998   -1.7021 H   0  0  0  0  0  0  0  0  0  0  0  0
    0.5305   19.8262   -3.3233 H   0  0  0  0  0  0  0  0  0  0  0  0
   -0.7987   18.0381   -2.3275 H   0  0  0  0  0  0  0  0  0  0  0  0
   -0.2422   19.9156    1.5537 H   0  0  0  0  0  0  0  0  0  0  0  0
    1.0086   19.6650    0.2889 H   0  0  0  0  0  0  0  0  0  0  0  0
    0.0190   21.1641    0.2889 H   0  0  0  0  0  0  0  0  0  0  0  0
   -2.0066   18.8246    1.4124 H   0  0  0  0  0  0  0  0  0  0  0  0
   -3.0868   19.2322    0.0363 H   0  0  0  0  0  0  0  0  0  0  0  0
   -2.1778   17.6828    0.0363 H   0  0  0  0  0  0  0  0  0  0  0  0
    3.3900   15.7449   -2.3983 H   0  0  0  0  0  0  0  0  0  0  0  0
    4.4851   16.0595   -0.2679 H   0  0  0  0  0  0  0  0  0  0  0  0
    3.2938   17.2703    0.2529 H   0  0  0  0  0  0  0  0  0  0  0  0
    3.4044   14.5585    1.1453 H   0  0  0  0  0  0  0  0  0  0  0  0
    2.0150   15.6170    1.3736 H   0  0  0  0  0  0  0  0  0  0  0  0
    3.5057   12.8811   -0.2206 H   0  0  0  0  0  0  0  0  0  0  0  0
    2.4597   12.6249   -1.6583 H   0  0  0  0  0  0  0  0  0  0  0  0
    3.6791   13.9439   -1.6583 H   0  0  0  0  0  0  0  0  0  0  0  0
    0.0816   14.3909    0.5847 H   0  0  0  0  0  0  0  0  0  0  0  0
    1.7945   12.8411    1.7226 H   0  0  0  0  0  0  0  0  0  0  0  0
   -0.0037   12.4469    1.7370 H   0  0  0  0  0  0  0  0  0  0  0  0
    1.6307   10.4241    1.3062 H   0  0  0  0  0  0  0  0  0  0  0  0
    0.9781   11.9470   -2.3753 H   0  0  0  0  0  0  0  0  0  0  0  0
   -1.6870   10.5956   -1.6224 H   0  0  0  0  0  0  0  0  0  0  0  0
   -1.3120   11.4876   -3.1629 H   0  0  0  0  0  0  0  0  0  0  0  0
   -1.2466    9.0324   -3.4638 H   0  0  0  0  0  0  0  0  0  0  0  0
    0.3521    9.8220   -3.7578 H   0  0  0  0  0  0  0  0  0  0  0  0
    0.7048    7.8127   -2.4950 H   0  0  0  0  0  0  0  0  0  0  0  0
   -1.0580    7.3270   -1.3520 H   0  0  0  0  0  0  0  0  0  0  0  0
    3.5088    9.7334   -1.4850 H   0  0  0  0  0  0  0  0  0  0  0  0
    2.7501    8.6840   -2.7298 H   0  0  0  0  0  0  0  0  0  0  0  0
    2.4313   10.4518   -2.7298 H   0  0  0  0  0  0  0  0  0  0  0  0
    1.6476    8.8148    0.9331 H   0  0  0  0  0  0  0  0  0  0  0  0
    1.3250    7.4200   -0.1519 H   0  0  0  0  0  0  0  0  0  0  0  0
    2.9418    8.2027   -0.1519 H   0  0  0  0  0  0  0  0  0  0  0  0
   -1.6386   12.8885    0.6404 H   0  0  0  0  0  0  0  0  0  0  0  0
   -2.3542   13.7114   -0.7870 H   0  0  0  0  0  0  0  0  0  0  0  0
   -2.1521   11.9265   -0.7870 H   0  0  0  0  0  0  0  0  0  0  0  0
   -0.7531   13.4867   -3.1580 H   0  0  0  0  0  0  0  0  0  0  0  0
   -1.1724   14.8039   -1.9244 H   0  0  0  0  0  0  0  0  0  0  0  0
    1.5415   14.1974   -3.1317 H   0  0  0  0  0  0  0  0  0  0  0  0
    0.5142   15.6690   -3.3466 H   0  0  0  0  0  0  0  0  0  0  0  0
    0.4637   16.4666    0.2901 H   0  0  0  0  0  0  0  0  0  0  0  0
    0.6567   17.5318   -1.1433 H   0  0  0  0  0  0  0  0  0  0  0  0
   -0.5959   16.2444   -1.1433 H   0  0  0  0  0  0  0  0  0  0  0  0
  1  2  1  0
  2  3  1  0
  3  4  1  0
  4  5  1  0
  5  6  1  0
  6  7  1  0
  7  8  1  0
  7  9  1  0
  2 10  1  0
 10 11  1  0
 11 12  1  0
 12 13  1  0
 13 14  1  6
 13 15  1  0
 15 16  1  0
 16 17  1  0
 17 18  2  0
 18 19  1  0
 19 20  1  0
 20 21  1  0
 21 22  1  0
 22 23  1  0
 22 24  1  0
 24 25  1  0
 24 26  1  0
 19 27  1  0
 27 28  1  1
 27 29  1  0
 29 30  1  0
 30 31  1  0
 31 32  1  1
  7  5  1  0
 31 10  1  0
 31 13  1  0
 27 15  1  0
 24 18  1  0
  1 33  1  0
  1 34  1  0
  1 35  1  0
  2 36  1  6
  3 37  1  0
  3 38  1  0
  4 39  1  0
  4 40  1  0
  5 41  1  6
  8 42  1  0
  8 43  1  0
  8 44  1  0
  9 45  1  0
  9 46  1  0
  9 47  1  0
 10 48  1  6
 11 49  1  0
 11 50  1  0
 12 51  1  0
 12 52  1  0
 14 53  1  0
 14 54  1  0
 14 55  1  0
 15 56  1  1
 16 57  1  0
 16 58  1  0
 17 59  1  0
 19 60  1  6
 20 61  1  0
 20 62  1  0
 21 63  1  0
 21 64  1  0
 22 65  1  6
 23 66  1  0
 25 67  1  0
 25 68  1  0
 25 69  1  0
 26 70  1  0
 26 71  1  0
 26 72  1  0
 28 73  1  0
 28 74  1  0
 28 75  1  0
 29 76  1  0
 29 77  1  0
 30 78  1  0
 30 79  1  0
 32 80  1  0
 32 81  1  0
 32 82  1  0
M  END
>  <meeko>  (11) 
{"is_sidechain": [false], "intermolecular_energy": 2.731, "internal_energy": -0.839}

$$$$
EPH_relaxed_0001_pdb2pqr_Repair_85_r2_0001_out
     RDKit          3D

 82 86  0  0  0  0  0  0  0  0999 V2000
   -0.4540    8.1600   -0.8810 C   0  0  0  0  0  0  0  0  0  0  0  0
   -1.4030    9.2360   -0.3470 C   0  0  2  0  0  0  0  0  0  0  0  0
   -2.5440    9.5470   -1.3370 C   0  0  0  0  0  0  0  0  0  0  0  0
   -3.7470    8.6100   -1.2030 C   0  0  0  0  0  0  0  0  0  0  0  0
   -3.5430    7.3350   -1.9640 C   0  0  2  0  0  0  0  0  0  0  0  0
   -3.1210    7.5090   -3.3230 O   0  0  0  0  0  0  0  0  0  0  0  0
   -4.4130    6.9090   -3.1320 C   0  0  0  0  0  0  0  0  0  0  0  0
   -5.5530    7.7560   -3.6060 C   0  0  0  0  0  0  0  0  0  0  0  0
   -4.4630    5.4580   -3.4950 C   0  0  0  0  0  0  0  0  0  0  0  0
   -0.6240   10.5080   -0.0340 C   0  0  1  0  0  0  0  0  0  0  0  0
    0.5360   10.2660    0.9690 C   0  0  0  0  0  0  0  0  0  0  0  0
    1.6900   11.2160    0.5550 C   0  0  0  0  0  0  0  0  0  0  0  0
    1.0450   12.1980   -0.4500 C   0  0  1  0  0  0  0  0  0  0  0  0
    0.3200   13.2600    0.4350 C   0  0  0  0  0  0  0  0  0  0  0  0
    2.0130   12.8690   -1.4780 C   0  0  2  0  0  0  0  0  0  0  0  0
    3.1030   13.7630   -0.8620 C   0  0  0  0  0  0  0  0  0  0  0  0
    2.7330   15.2000   -0.6980 C   0  0  0  0  0  0  0  0  0  0  0  0
    1.6880   15.8100   -1.2880 C   0  0  0  0  0  0  0  0  0  0  0  0
    0.8070   15.0630   -2.2980 C   0  0  1  0  0  0  0  0  0  0  0  0
    0.5760   15.9580   -3.5440 C   0  0  0  0  0  0  0  0  0  0  0  0
    0.0160   17.3300   -3.1840 C   0  0  0  0  0  0  0  0  0  0  0  0
    0.9490   18.0650   -2.2240 C   0  0  2  0  0  0  0  0  0  0  0  0
    2.1680   18.3700   -2.9090 O   0  0  0  0  0  0  0  0  0  0  0  0
    1.2620   17.2560   -0.9340 C   0  0  0  0  0  0  0  0  0  0  0  0
   -0.0030   17.1860   -0.0440 C   0  0  0  0  0  0  0  0  0  0  0  0
    2.3220   18.0470   -0.1210 C   0  0  0  0  0  0  0  0  0  0  0  0
    1.2810   13.5950   -2.6790 C   0  0  1  0  0  0  0  0  0  0  0  0
    2.3050   13.6550   -3.8540 C   0  0  0  0  0  0  0  0  0  0  0  0
    0.0450   12.7770   -3.2090 C   0  0  0  0  0  0  0  0  0  0  0  0
   -0.8030   12.0390   -2.1550 C   0  0  0  0  0  0  0  0  0  0  0  0
    0.0840   11.2170   -1.2150 C   0  0  2  0  0  0  0  0  0  0  0  0
    0.8100   10.1260   -2.0750 C   0  0  0  0  0  0  0  0  0  0  0  0
    0.0126    7.6310   -0.0370 H   0  0  0  0  0  0  0  0  0  0  0  0
   -1.0199    7.4438   -1.4949 H   0  0  0  0  0  0  0  0  0  0  0  0
    0.3272    8.6320   -1.4949 H   0  0  0  0  0  0  0  0  0  0  0  0
   -1.8615    8.8453    0.5734 H   0  0  0  0  0  0  0  0  0  0  0  0
   -2.8853   10.5778   -1.1609 H   0  0  0  0  0  0  0  0  0  0  0  0
   -2.1383    9.4066   -2.3497 H   0  0  0  0  0  0  0  0  0  0  0  0
   -3.8960    8.3708   -0.1397 H   0  0  0  0  0  0  0  0  0  0  0  0
   -4.6280    9.1208   -1.6189 H   0  0  0  0  0  0  0  0  0  0  0  0
   -3.2290    6.8120   -1.0487 H   0  0  0  0  0  0  0  0  0  0  0  0
   -6.0957    8.1592   -2.7383 H   0  0  0  0  0  0  0  0  0  0  0  0
   -5.1648    8.5865   -4.2140 H   0  0  0  0  0  0  0  0  0  0  0  0
   -6.2361    7.1446   -4.2140 H   0  0  0  0  0  0  0  0  0  0  0  0
   -4.4839    4.8511   -2.5778 H   0  0  0  0  0  0  0  0  0  0  0  0
   -5.3685    5.2591   -4.0870 H   0  0  0  0  0  0  0  0  0  0  0  0
   -3.5733    5.1973   -4.0870 H   0  0  0  0  0  0  0  0  0  0  0  0
   -1.4425   11.1370    0.3460 H   0  0  0  0  0  0  0  0  0  0  0  0
    0.2056   10.4950    1.9929 H   0  0  0  0  0  0  0  0  0  0  0  0
    0.8625    9.2157    0.9498 H   0  0  0  0  0  0  0  0  0  0  0  0
    2.0808   11.7565    1.4297 H   0  0  0  0  0  0  0  0  0  0  0  0
    2.5417   10.6728    0.1195 H   0  0  0  0  0  0  0  0  0  0  0  0
    0.4812   13.0238    1.4972 H   0  0  0  0  0  0  0  0  0  0  0  0
    0.7257   14.2587    0.2157 H   0  0  0  0  0  0  0  0  0  0  0  0
   -0.7578   13.2459    0.2157 H   0  0  0  0  0  0  0  0  0  0  0  0
    2.5422   12.0030   -1.9023 H   0  0  0  0  0  0  0  0  0  0  0  0
    3.3512   13.3606    0.1312 H   0  0  0  0  0  0  0  0  0  0  0  0
    3.9460   13.7450   -1.5685 H   0  0  0  0  0  0  0  0  0  0  0  0
    3.3675   15.8117   -0.0398 H   0  0  0  0  0  0  0  0  0  0  0  0
   -0.1504   14.8779   -1.7890 H   0  0  0  0  0  0  0  0  0  0  0  0
    1.5363   16.0944   -4.0629 H   0  0  0  0  0  0  0  0  0  0  0  0
   -0.1628   15.4538   -4.1844 H   0  0  0  0  0  0  0  0  0  0  0  0
   -0.0973   17.9250   -4.1023 H   0  0  0  0  0  0  0  0  0  0  0  0
   -0.9582   17.1937   -2.6917 H   0  0  0  0  0  0  0  0  0  0  0  0
    0.4347   18.9823   -1.9013 H   0  0  0  0  0  0  0  0  0  0  0  0
    2.7980   18.7100   -2.2510 H   0  0  0  0  0  0  0  0  0  0  0  0
    0.2927   17.2024    1.0154 H   0  0  0  0  0  0  0  0  0  0  0  0
   -0.6498   18.0497   -0.2575 H   0  0  0  0  0  0  0  0  0  0  0  0
   -0.5506   16.2562   -0.2575 H   0  0  0  0  0  0  0  0  0  0  0  0
    2.1371   17.9090    0.9545 H   0  0  0  0  0  0  0  0  0  0  0  0
    3.3271   17.6764   -0.3707 H   0  0  0  0  0  0  0  0  0  0  0  0
    2.2528   19.1160   -0.3707 H   0  0  0  0  0  0  0  0  0  0  0  0
    3.3257   13.7148   -3.4482 H   0  0  0  0  0  0  0  0  0  0  0  0
    2.2083   12.7496   -4.4712 H   0  0  0  0  0  0  0  0  0  0  0  0
    2.1032   14.5429   -4.4712 H   0  0  0  0  0  0  0  0  0  0  0  0
   -0.6172   13.4791   -3.7368 H   0  0  0  0  0  0  0  0  0  0  0  0
    0.4734   11.9845   -3.8402 H   0  0  0  0  0  0  0  0  0  0  0  0
   -1.3657   12.7772   -1.5647 H   0  0  0  0  0  0  0  0  0  0  0  0
   -1.4912   11.3558   -2.6744 H   0  0  0  0  0  0  0  0  0  0  0  0
    1.2951    9.3971   -1.4091 H   0  0  0  0  0  0  0  0  0  0  0  0
    0.0745    9.6101   -2.7097 H   0  0  0  0  0  0  0  0  0  0  0  0
    1.5699   10.6052   -2.7097 H   0  0  0  0  0  0  0  0  0  0  0  0
  1  2  1  0
  2  3  1  0
  3  4  1  0
  4  5  1  0
  5  6  1  0
  6  7  1  0
  7  8  1  0
  7  9  1  0
  2 10  1  0
 10 11  1  0
 11 12  1  0
 12 13  1  0
 13 14  1  1
 13 15  1  0
 15 16  1  0
 16 17  1  0
 17 18  2  0
 18 19  1  0
 19 20  1  0
 20 21  1  0
 21 22  1  0
 22 23  1  0
 22 24  1  0
 24 25  1  0
 24 26  1  0
 19 27  1  0
 27 28  1  6
 27 29  1  0
 29 30  1  0
 30 31  1  0
 31 32  1  6
  7  5  1  0
 31 10  1  0
 31 13  1  0
 27 15  1  0
 24 18  1  0
  1 33  1  0
  1 34  1  0
  1 35  1  0
  2 36  1  1
  3 37  1  0
  3 38  1  0
  4 39  1  0
  4 40  1  0
  5 41  1  1
  8 42  1  0
  8 43  1  0
  8 44  1  0
  9 45  1  0
  9 46  1  0
  9 47  1  0
 10 48  1  1
 11 49  1  0
 11 50  1  0
 12 51  1  0
 12 52  1  0
 14 53  1  0
 14 54  1  0
 14 55  1  0
 15 56  1  6
 16 57  1  0
 16 58  1  0
 17 59  1  0
 19 60  1  1
 20 61  1  0
 20 62  1  0
 21 63  1  0
 21 64  1  0
 22 65  1  1
 23 66  1  0
 25 67  1  0
 25 68  1  0
 25 69  1  0
 26 70  1  0
 26 71  1  0
 26 72  1  0
 28 73  1  0
 28 74  1  0
 28 75  1  0
 29 76  1  0
 29 77  1  0
 30 78  1  0
 30 79  1  0
 32 80  1  0
 32 81  1  0
 32 82  1  0
M  END
>  <meeko>  (12) 
{"is_sidechain": [false], "intermolecular_energy": 2.731, "internal_energy": -0.839}

$$$$
EPH_relaxed_0001_pdb2pqr_Repair_85_r2_0001_out
     RDKit          3D

 82 86  0  0  0  0  0  0  0  0999 V2000
   -1.7010    8.6220   -1.5770 C   0  0  0  0  0  0  0  0  0  0  0  0
   -2.1700    9.3880   -0.3380 C   0  0  2  0  0  0  0  0  0  0  0  0
   -3.6050    9.9290   -0.4970 C   0  0  0  0  0  0  0  0  0  0  0  0
   -4.6200    8.8640   -0.9210 C   0  0  0  0  0  0  0  0  0  0  0  0
   -5.9010    9.4780   -1.3990 C   0  0  2  0  0  0  0  0  0  0  0  0
   -7.0810    8.7340   -1.0710 O   0  0  0  0  0  0  0  0  0  0  0  0
   -6.7780    8.8560   -2.4700 C   0  0  0  0  0  0  0  0  0  0  0  0
   -6.4090    7.5630   -3.1270 C   0  0  0  0  0  0  0  0  0  0  0  0
   -7.7280    9.7380   -3.2180 C   0  0  0  0  0  0  0  0  0  0  0  0
   -1.2110   10.5360   -0.0430 C   0  0  1  0  0  0  0  0  0  0  0  0
   -0.0780   10.1310    0.9390 C   0  0  0  0  0  0  0  0  0  0  0  0
    1.1910   10.9060    0.5010 C   0  0  0  0  0  0  0  0  0  0  0  0
    0.6740   11.9710   -0.4950 C   0  0  1  0  0  0  0  0  0  0  0  0
    0.1250   13.1250    0.4010 C   0  0  0  0  0  0  0  0  0  0  0  0
    1.7090   12.4960   -1.5430 C   0  0  2  0  0  0  0  0  0  0  0  0
    2.9270   13.2250   -0.9490 C   0  0  0  0  0  0  0  0  0  0  0  0
    2.7690   14.7000   -0.7830 C   0  0  0  0  0  0  0  0  0  0  0  0
    1.8110   15.4530   -1.3550 C   0  0  0  0  0  0  0  0  0  0  0  0
    0.8130   14.8400   -2.3460 C   0  0  1  0  0  0  0  0  0  0  0  0
    0.6890   15.7570   -3.5910 C   0  0  0  0  0  0  0  0  0  0  0  0
    0.3380   17.1960   -3.2240 C   0  0  0  0  0  0  0  0  0  0  0  0
    1.3840   17.7900   -2.2840 C   0  0  2  0  0  0  0  0  0  0  0  0
    2.6210   17.9170   -2.9920 O   0  0  0  0  0  0  0  0  0  0  0  0
    1.6020   16.9450   -0.9980 C   0  0  0  0  0  0  0  0  0  0  0  0
    0.3560   17.0570   -0.0850 C   0  0  0  0  0  0  0  0  0  0  0  0
    2.7790   17.5770   -0.2060 C   0  0  0  0  0  0  0  0  0  0  0  0
    1.0660   13.3190   -2.7320 C   0  0  1  0  0  0  0  0  0  0  0  0
    2.0650   13.2310   -3.9260 C   0  0  0  0  0  0  0  0  0  0  0  0
   -0.2850   12.6850   -3.2360 C   0  0  0  0  0  0  0  0  0  0  0  0
   -1.2090   12.0760   -2.1650 C   0  0  0  0  0  0  0  0  0  0  0  0
   -0.4310   11.1360   -1.2390 C   0  0  2  0  0  0  0  0  0  0  0  0
    0.1160    9.9530   -2.1090 C   0  0  0  0  0  0  0  0  0  0  0  0
   -1.1502    7.7224   -1.2652 H   0  0  0  0  0  0  0  0  0  0  0  0
   -2.5738    8.3275   -2.1782 H   0  0  0  0  0  0  0  0  0  0  0  0
   -1.0419    9.2655   -2.1782 H   0  0  0  0  0  0  0  0  0  0  0  0
   -2.1756    8.6811    0.5048 H   0  0  0  0  0  0  0  0  0  0  0  0
   -3.9261   10.3507    0.4669 H   0  0  0  0  0  0  0  0  0  0  0  0
   -3.5776   10.6838   -1.2967 H   0  0  0  0  0  0  0  0  0  0  0  0
   -4.1874    8.2631   -1.7345 H   0  0  0  0  0  0  0  0  0  0  0  0
   -4.8458    8.2377   -0.0453 H   0  0  0  0  0  0  0  0  0  0  0  0
   -5.4876   10.4903   -1.2796 H   0  0  0  0  0  0  0  0  0  0  0  0
   -6.1936    6.8084   -2.3562 H   0  0  0  0  0  0  0  0  0  0  0  0
   -7.2447    7.2186   -3.7539 H   0  0  0  0  0  0  0  0  0  0  0  0
   -5.5174    7.7116   -3.7539 H   0  0  0  0  0  0  0  0  0  0  0  0
   -8.3406   10.3067   -2.5030 H   0  0  0  0  0  0  0  0  0  0  0  0
   -7.1597   10.4360   -3.8504 H   0  0  0  0  0  0  0  0  0  0  0  0
   -8.3819    9.1195   -3.8504 H   0  0  0  0  0  0  0  0  0  0  0  0
   -1.9241   11.2753    0.3505 H   0  0  0  0  0  0  0  0  0  0  0  0
   -0.3528   10.4049    1.9683 H   0  0  0  0  0  0  0  0  0  0  0  0
    0.0949    9.0449    0.9166 H   0  0  0  0  0  0  0  0  0  0  0  0
    1.6716   11.3850    1.3668 H   0  0  0  0  0  0  0  0  0  0  0  0
    1.9477   10.2466    0.0509 H   0  0  0  0  0  0  0  0  0  0  0  0
    0.2518   12.8585    1.4607 H   0  0  0  0  0  0  0  0  0  0  0  0
    0.6792   14.0508    0.1869 H   0  0  0  0  0  0  0  0  0  0  0  0
   -0.9429   13.2791    0.1869 H   0  0  0  0  0  0  0  0  0  0  0  0
    2.1010   11.5635   -1.9751 H   0  0  0  0  0  0  0  0  0  0  0  0
    3.1329   12.7917    0.0409 H   0  0  0  0  0  0  0  0  0  0  0  0
    3.7461   13.0860   -1.6699 H   0  0  0  0  0  0  0  0  0  0  0  0
    3.4969   15.2151   -0.1389 H   0  0  0  0  0  0  0  0  0  0  0  0
   -0.1511   14.7954   -1.8182 H   0  0  0  0  0  0  0  0  0  0  0  0
    1.6488   15.7540   -4.1283 H   0  0  0  0  0  0  0  0  0  0  0  0
   -0.1257   15.3632   -4.2164 H   0  0  0  0  0  0  0  0  0  0  0  0
    0.2937   17.8010   -4.1416 H   0  0  0  0  0  0  0  0  0  0  0  0
   -0.6361   17.2004   -2.7130 H   0  0  0  0  0  0  0  0  0  0  0  0
    1.0124   18.7716   -1.9548 H   0  0  0  0  0  0  0  0  0  0  0  0
    2.9430   18.8250   -2.8600 H   0  0  0  0  0  0  0  0  0  0  0  0
    0.6699   17.0288    0.9689 H   0  0  0  0  0  0  0  0  0  0  0  0
   -0.1630   18.0054   -0.2877 H   0  0  0  0  0  0  0  0  0  0  0  0
   -0.3239   16.2163   -0.2877 H   0  0  0  0  0  0  0  0  0  0  0  0
    2.5909   17.4760    0.8731 H   0  0  0  0  0  0  0  0  0  0  0  0
    3.7147   17.0600   -0.4651 H   0  0  0  0  0  0  0  0  0  0  0  0
    2.8650   18.6426   -0.4651 H   0  0  0  0  0  0  0  0  0  0  0  0
    3.0910   13.1406   -3.5398 H   0  0  0  0  0  0  0  0  0  0  0  0
    1.8256   12.3505   -4.5403 H   0  0  0  0  0  0  0  0  0  0  0  0
    1.9832   14.1398   -4.5403 H   0  0  0  0  0  0  0  0  0  0  0  0
   -0.8503   13.4742   -3.7533 H   0  0  0  0  0  0  0  0  0  0  0  0
    0.0141   11.8391   -3.8725 H   0  0  0  0  0  0  0  0  0  0  0  0
   -1.6495   12.8871   -1.5666 H   0  0  0  0  0  0  0  0  0  0  0  0
   -1.9970   11.4978   -2.6697 H   0  0  0  0  0  0  0  0  0  0  0  0
    0.4856    9.1536   -1.4500 H   0  0  0  0  0  0  0  0  0  0  0  0
   -0.6920    9.5606   -2.7439 H   0  0  0  0  0  0  0  0  0  0  0  0
    0.9384   10.3144   -2.7439 H   0  0  0  0  0  0  0  0  0  0  0  0
  1  2  1  0
  2  3  1  0
  3  4  1  0
  4  5  1  0
  5  6  1  0
  6  7  1  0
  7  8  1  0
  7  9  1  0
  2 10  1  0
 10 11  1  0
 11 12  1  0
 12 13  1  0
 13 14  1  1
 13 15  1  0
 15 16  1  0
 16 17  1  0
 17 18  2  0
 18 19  1  0
 19 20  1  0
 20 21  1  0
 21 22  1  0
 22 23  1  0
 22 24  1  0
 24 25  1  0
 24 26  1  0
 19 27  1  0
 27 28  1  6
 27 29  1  0
 29 30  1  0
 30 31  1  0
 31 32  1  6
  7  5  1  0
 31 10  1  0
 31 13  1  0
 27 15  1  0
 24 18  1  0
  1 33  1  0
  1 34  1  0
  1 35  1  0
  2 36  1  1
  3 37  1  0
  3 38  1  0
  4 39  1  0
  4 40  1  0
  5 41  1  6
  8 42  1  0
  8 43  1  0
  8 44  1  0
  9 45  1  0
  9 46  1  0
  9 47  1  0
 10 48  1  1
 11 49  1  0
 11 50  1  0
 12 51  1  0
 12 52  1  0
 14 53  1  0
 14 54  1  0
 14 55  1  0
 15 56  1  6
 16 57  1  0
 16 58  1  0
 17 59  1  0
 19 60  1  1
 20 61  1  0
 20 62  1  0
 21 63  1  0
 21 64  1  0
 22 65  1  1
 23 66  1  0
 25 67  1  0
 25 68  1  0
 25 69  1  0
 26 70  1  0
 26 71  1  0
 26 72  1  0
 28 73  1  0
 28 74  1  0
 28 75  1  0
 29 76  1  0
 29 77  1  0
 30 78  1  0
 30 79  1  0
 32 80  1  0
 32 81  1  0
 32 82  1  0
M  END
>  <meeko>  (13) 
{"is_sidechain": [false], "intermolecular_energy": 2.731, "internal_energy": -0.839}

$$$$
EPH_relaxed_0001_pdb2pqr_Repair_85_r2_0001_out
     RDKit          3D

 82 86  0  0  0  0  0  0  0  0999 V2000
   -0.9260   16.3990   -5.8970 C   0  0  0  0  0  0  0  0  0  0  0  0
    0.1750   15.7000   -6.7000 C   0  0  2  0  0  0  0  0  0  0  0  0
   -0.2220   15.4970   -8.1760 C   0  0  0  0  0  0  0  0  0  0  0  0
    0.4260   16.5030   -9.1310 C   0  0  0  0  0  0  0  0  0  0  0  0
    1.8350   16.1190   -9.4690 C   0  0  2  0  0  0  0  0  0  0  0  0
    2.3310   16.6800  -10.6910 O   0  0  0  0  0  0  0  0  0  0  0  0
    2.2030   15.2490  -10.6560 C   0  0  0  0  0  0  0  0  0  0  0  0
    1.1590   14.7090  -11.5810 C   0  0  0  0  0  0  0  0  0  0  0  0
    3.5140   14.5270  -10.6340 C   0  0  0  0  0  0  0  0  0  0  0  0
    0.5110   14.3570   -6.0610 C   0  0  1  0  0  0  0  0  0  0  0  0
    1.7380   13.6720   -6.7200 C   0  0  0  0  0  0  0  0  0  0  0  0
    2.4930   12.9250   -5.5910 C   0  0  0  0  0  0  0  0  0  0  0  0
    1.5100   12.9250   -4.3980 C   0  0  1  0  0  0  0  0  0  0  0  0
    0.5250   11.7500   -4.6890 C   0  0  0  0  0  0  0  0  0  0  0  0
    2.1490   12.8040   -2.9760 C   0  0  2  0  0  0  0  0  0  0  0  0
    2.9170   11.4960   -2.7150 C   0  0  0  0  0  0  0  0  0  0  0  0
    2.1060   10.3840   -2.1380 C   0  0  0  0  0  0  0  0  0  0  0  0
    0.8890   10.5120   -1.5770 C   0  0  0  0  0  0  0  0  0  0  0  0
    0.2490   11.8940   -1.3930 C   0  0  1  0  0  0  0  0  0  0  0  0
   -0.3280   12.0110    0.0420 C   0  0  0  0  0  0  0  0  0  0  0  0
   -1.2860   10.8730    0.3820 C   0  0  0  0  0  0  0  0  0  0  0  0
   -0.5960    9.5190    0.2430 C   0  0  2  0  0  0  0  0  0  0  0  0
    0.4180    9.4130    1.2470 O   0  0  0  0  0  0  0  0  0  0  0  0
    0.0320    9.2920   -1.1600 C   0  0  0  0  0  0  0  0  0  0  0  0
   -1.0910    9.1050   -2.2100 C   0  0  0  0  0  0  0  0  0  0  0  0
    0.8160    7.9520   -1.1210 C   0  0  0  0  0  0  0  0  0  0  0  0
    1.1570   13.1370   -1.7890 C   0  0  1  0  0  0  0  0  0  0  0  0
    2.0410   13.5590   -0.5750 C   0  0  0  0  0  0  0  0  0  0  0  0
    0.2300   14.3690   -2.1120 C   0  0  0  0  0  0  0  0  0  0  0  0
   -0.2720   14.4990   -3.5620 C   0  0  0  0  0  0  0  0  0  0  0  0
    0.8840   14.3580   -4.5570 C   0  0  2  0  0  0  0  0  0  0  0  0
    1.8800   15.5410   -4.3030 C   0  0  0  0  0  0  0  0  0  0  0  0
   -0.7305   16.2749   -4.8216 H   0  0  0  0  0  0  0  0  0  0  0  0
   -0.9377   17.4703   -6.1463 H   0  0  0  0  0  0  0  0  0  0  0  0
   -1.9005   15.9538   -6.1463 H   0  0  0  0  0  0  0  0  0  0  0  0
    1.0610   16.3517   -6.6837 H   0  0  0  0  0  0  0  0  0  0  0  0
    0.0802   14.4842   -8.4809 H   0  0  0  0  0  0  0  0  0  0  0  0
   -1.3098   15.6472   -8.2401 H   0  0  0  0  0  0  0  0  0  0  0  0
   -0.1641   16.5452  -10.0583 H   0  0  0  0  0  0  0  0  0  0  0  0
    0.4481   17.4834   -8.6326 H   0  0  0  0  0  0  0  0  0  0  0  0
    2.1007   16.0630   -8.4030 H   0  0  0  0  0  0  0  0  0  0  0  0
    0.3334   14.2820  -10.9928 H   0  0  0  0  0  0  0  0  0  0  0  0
    0.7753   15.5217  -12.2153 H   0  0  0  0  0  0  0  0  0  0  0  0
    1.6005   13.9262  -12.2153 H   0  0  0  0  0  0  0  0  0  0  0  0
    3.8218   14.3575   -9.5916 H   0  0  0  0  0  0  0  0  0  0  0  0
    3.4086   13.5597  -11.1471 H   0  0  0  0  0  0  0  0  0  0  0  0
    4.2751   15.1332  -11.1471 H   0  0  0  0  0  0  0  0  0  0  0  0
   -0.4468   13.8372   -6.2109 H   0  0  0  0  0  0  0  0  0  0  0  0
    1.4061   12.9595   -7.4895 H   0  0  0  0  0  0  0  0  0  0  0  0
    2.3890   14.4125   -7.2077 H   0  0  0  0  0  0  0  0  0  0  0  0
    2.7310   11.8959   -5.8980 H   0  0  0  0  0  0  0  0  0  0  0  0
    3.4512   13.4045   -5.3419 H   0  0  0  0  0  0  0  0  0  0  0  0
    0.1693   11.3257   -3.7385 H   0  0  0  0  0  0  0  0  0  0  0  0
   -0.3326   12.1250   -5.2668 H   0  0  0  0  0  0  0  0  0  0  0  0
    1.0440   10.9710   -5.2668 H   0  0  0  0  0  0  0  0  0  0  0  0
    2.9085   13.5996   -2.9906 H   0  0  0  0  0  0  0  0  0  0  0  0
    3.3348   11.1506   -3.6721 H   0  0  0  0  0  0  0  0  0  0  0  0
    3.6813   11.7374   -1.9616 H   0  0  0  0  0  0  0  0  0  0  0  0
    2.5396    9.3737   -2.1742 H   0  0  0  0  0  0  0  0  0  0  0  0
   -0.5667   11.9514   -2.1288 H   0  0  0  0  0  0  0  0  0  0  0  0
    0.5056   11.9964    0.7595 H   0  0  0  0  0  0  0  0  0  0  0  0
   -0.8943   12.9523    0.0985 H   0  0  0  0  0  0  0  0  0  0  0  0
   -1.6356   10.9942    1.4179 H   0  0  0  0  0  0  0  0  0  0  0  0
   -2.1346   10.9079   -0.3170 H   0  0  0  0  0  0  0  0  0  0  0  0
   -1.3648    8.7427    0.3712 H   0  0  0  0  0  0  0  0  0  0  0  0
    1.1780    8.9540    0.8510 H   0  0  0  0  0  0  0  0  0  0  0  0
   -2.0504    8.9452   -1.6962 H   0  0  0  0  0  0  0  0  0  0  0  0
   -1.1576   10.0044   -2.8398 H   0  0  0  0  0  0  0  0  0  0  0  0
   -0.8626    8.2325   -2.8398 H   0  0  0  0  0  0  0  0  0  0  0  0
    0.9880    7.6581   -0.0750 H   0  0  0  0  0  0  0  0  0  0  0  0
    0.2325    7.1708   -1.6302 H   0  0  0  0  0  0  0  0  0  0  0  0
    1.7829    8.0779   -1.6302 H   0  0  0  0  0  0  0  0  0  0  0  0
    1.5204   13.3105    0.3616 H   0  0  0  0  0  0  0  0  0  0  0  0
    2.9999   13.0215   -0.6153 H   0  0  0  0  0  0  0  0  0  0  0  0
    2.2261   14.6426   -0.6153 H   0  0  0  0  0  0  0  0  0  0  0  0
   -0.6527   14.3015   -1.4591 H   0  0  0  0  0  0  0  0  0  0  0  0
    0.8603   15.2550   -1.9451 H   0  0  0  0  0  0  0  0  0  0  0  0
   -1.0137   13.7107   -3.7581 H   0  0  0  0  0  0  0  0  0  0  0  0
   -0.7245   15.4936   -3.6887 H   0  0  0  0  0  0  0  0  0  0  0  0
    2.0048   15.6892   -3.2202 H   0  0  0  0  0  0  0  0  0  0  0  0
    2.8542   15.3036   -4.7553 H   0  0  0  0  0  0  0  0  0  0  0  0
    1.4801   16.4605   -4.7553 H   0  0  0  0  0  0  0  0  0  0  0  0
  1  2  1  0
  2  3  1  0
  3  4  1  0
  4  5  1  0
  5  6  1  0
  6  7  1  0
  7  8  1  0
  7  9  1  0
  2 10  1  0
 10 11  1  0
 11 12  1  0
 12 13  1  0
 13 14  1  6
 13 15  1  0
 15 16  1  0
 16 17  1  0
 17 18  2  0
 18 19  1  0
 19 20  1  0
 20 21  1  0
 21 22  1  0
 22 23  1  0
 22 24  1  0
 24 25  1  0
 24 26  1  0
 19 27  1  0
 27 28  1  1
 27 29  1  0
 29 30  1  0
 30 31  1  0
 31 32  1  6
  7  5  1  0
 31 10  1  0
 31 13  1  0
 27 15  1  0
 24 18  1  0
  1 33  1  0
  1 34  1  0
  1 35  1  0
  2 36  1  6
  3 37  1  0
  3 38  1  0
  4 39  1  0
  4 40  1  0
  5 41  1  1
  8 42  1  0
  8 43  1  0
  8 44  1  0
  9 45  1  0
  9 46  1  0
  9 47  1  0
 10 48  1  1
 11 49  1  0
 11 50  1  0
 12 51  1  0
 12 52  1  0
 14 53  1  0
 14 54  1  0
 14 55  1  0
 15 56  1  6
 16 57  1  0
 16 58  1  0
 17 59  1  0
 19 60  1  6
 20 61  1  0
 20 62  1  0
 21 63  1  0
 21 64  1  0
 22 65  1  1
 23 66  1  0
 25 67  1  0
 25 68  1  0
 25 69  1  0
 26 70  1  0
 26 71  1  0
 26 72  1  0
 28 73  1  0
 28 74  1  0
 28 75  1  0
 29 76  1  0
 29 77  1  0
 30 78  1  0
 30 79  1  0
 32 80  1  0
 32 81  1  0
 32 82  1  0
M  END
>  <meeko>  (14) 
{"is_sidechain": [false], "intermolecular_energy": 2.731, "internal_energy": -0.839}

$$$$
EPH_relaxed_0001_pdb2pqr_Repair_85_r2_0001_out
     RDKit          3D

 82 86  0  0  0  0  0  0  0  0999 V2000
    2.8360   11.3520   -5.3170 C   0  0  0  0  0  0  0  0  0  0  0  0
    1.8170   11.0540   -4.2140 C   0  0  2  0  0  0  0  0  0  0  0  0
    0.6970   10.1100   -4.6970 C   0  0  0  0  0  0  0  0  0  0  0  0
   -0.3720    9.8300   -3.6370 C   0  0  0  0  0  0  0  0  0  0  0  0
    0.1810    9.0470   -2.4860 C   0  0  2  0  0  0  0  0  0  0  0  0
   -0.6390    7.9530   -2.0570 O   0  0  0  0  0  0  0  0  0  0  0  0
   -0.4580    9.0180   -1.1100 C   0  0  0  0  0  0  0  0  0  0  0  0
   -1.7070    9.7870   -0.8130 C   0  0  0  0  0  0  0  0  0  0  0  0
    0.3900    8.6420    0.0650 C   0  0  0  0  0  0  0  0  0  0  0  0
    1.2140   12.3560   -3.6980 C   0  0  1  0  0  0  0  0  0  0  0  0
   -0.3230   12.2670   -3.5030 C   0  0  0  0  0  0  0  0  0  0  0  0
   -0.6690   13.1370   -2.2680 C   0  0  0  0  0  0  0  0  0  0  0  0
    0.6150   13.9560   -1.9960 C   0  0  1  0  0  0  0  0  0  0  0  0
    0.5550   15.1440   -3.0070 C   0  0  0  0  0  0  0  0  0  0  0  0
    0.8180   14.4570   -0.5290 C   0  0  2  0  0  0  0  0  0  0  0  0
   -0.2580   15.4300   -0.0170 C   0  0  0  0  0  0  0  0  0  0  0  0
    0.0270   16.8770   -0.2520 C   0  0  0  0  0  0  0  0  0  0  0  0
    1.2230   17.3930   -0.5910 C   0  0  0  0  0  0  0  0  0  0  0  0
    2.4700   16.5040   -0.6740 C   0  0  1  0  0  0  0  0  0  0  0  0
    3.6510   17.1960    0.0560 C   0  0  0  0  0  0  0  0  0  0  0  0
    3.9070   18.6100   -0.4560 C   0  0  0  0  0  0  0  0  0  0  0  0
    2.6620   19.4800   -0.3020 C   0  0  2  0  0  0  0  0  0  0  0  0
    2.4030   19.6710    1.0920 O   0  0  0  0  0  0  0  0  0  0  0  0
    1.4050   18.8780   -0.9910 C   0  0  0  0  0  0  0  0  0  0  0  0
    1.5690   18.9510   -2.5290 C   0  0  0  0  0  0  0  0  0  0  0  0
    0.1910   19.7800   -0.6410 C   0  0  0  0  0  0  0  0  0  0  0  0
    2.2750   14.9920   -0.2230 C   0  0  1  0  0  0  0  0  0  0  0  0
    2.4810   14.8670    1.3180 C   0  0  0  0  0  0  0  0  0  0  0  0
    3.3920   14.1070   -0.8930 C   0  0  0  0  0  0  0  0  0  0  0  0
    3.0830   13.5430   -2.2940 C   0  0  0  0  0  0  0  0  0  0  0  0
    1.7060   12.8720   -2.3230 C   0  0  2  0  0  0  0  0  0  0  0  0
    1.7440   11.6600   -1.3320 C   0  0  0  0  0  0  0  0  0  0  0  0
    3.7972   11.6331   -4.8620 H   0  0  0  0  0  0  0  0  0  0  0  0
    2.9736   10.4565   -5.9408 H   0  0  0  0  0  0  0  0  0  0  0  0
    2.4694   12.1805   -5.9408 H   0  0  0  0  0  0  0  0  0  0  0  0
    2.3512   10.5427   -3.3996 H   0  0  0  0  0  0  0  0  0  0  0  0
    0.2089   10.5683   -5.5698 H   0  0  0  0  0  0  0  0  0  0  0  0
    1.1703    9.1468   -4.9384 H   0  0  0  0  0  0  0  0  0  0  0  0
   -0.7618   10.7879   -3.2621 H   0  0  0  0  0  0  0  0  0  0  0  0
   -1.1707    9.2352   -4.1042 H   0  0  0  0  0  0  0  0  0  0  0  0
    1.2114    9.2435   -2.8171 H   0  0  0  0  0  0  0  0  0  0  0  0
   -1.8378    9.8675    0.2762 H   0  0  0  0  0  0  0  0  0  0  0  0
   -1.6298   10.7942   -1.2485 H   0  0  0  0  0  0  0  0  0  0  0  0
   -2.5715    9.2646   -1.2485 H   0  0  0  0  0  0  0  0  0  0  0  0
   -0.1464    8.8799    0.9954 H   0  0  0  0  0  0  0  0  0  0  0  0
    0.6057    7.5639    0.0315 H   0  0  0  0  0  0  0  0  0  0  0  0
    1.3338    9.2060    0.0315 H   0  0  0  0  0  0  0  0  0  0  0  0
    1.5417   13.0390   -4.4956 H   0  0  0  0  0  0  0  0  0  0  0  0
   -0.8406   12.6516   -4.3941 H   0  0  0  0  0  0  0  0  0  0  0  0
   -0.6421   11.2250   -3.3535 H   0  0  0  0  0  0  0  0  0  0  0  0
   -1.5158   13.8039   -2.4876 H   0  0  0  0  0  0  0  0  0  0  0  0
   -0.9685   12.5302   -1.4008 H   0  0  0  0  0  0  0  0  0  0  0  0
    0.5070   16.0938   -2.4542 H   0  0  0  0  0  0  0  0  0  0  0  0
    1.4548   15.1329   -3.6396 H   0  0  0  0  0  0  0  0  0  0  0  0
   -0.3392   15.0423   -3.6396 H   0  0  0  0  0  0  0  0  0  0  0  0
    0.6879   13.5344    0.0557 H   0  0  0  0  0  0  0  0  0  0  0  0
   -1.2053   15.1842   -0.5192 H   0  0  0  0  0  0  0  0  0  0  0  0
   -0.2916   15.2997    1.0747 H   0  0  0  0  0  0  0  0  0  0  0  0
   -0.8111   17.5803   -0.1385 H   0  0  0  0  0  0  0  0  0  0  0  0
    2.7011   16.4051   -1.7449 H   0  0  0  0  0  0  0  0  0  0  0  0
    3.4206   17.2463    1.1304 H   0  0  0  0  0  0  0  0  0  0  0  0
    4.5567   16.6020   -0.1364 H   0  0  0  0  0  0  0  0  0  0  0  0
    4.7318   19.0570    0.1184 H   0  0  0  0  0  0  0  0  0  0  0  0
    4.1670   18.5551   -1.5234 H   0  0  0  0  0  0  0  0  0  0  0  0
    2.8645   20.4383   -0.8027 H   0  0  0  0  0  0  0  0  0  0  0  0
    2.2830   18.7930    1.4920 H   0  0  0  0  0  0  0  0  0  0  0  0
    2.5489   19.3872   -2.7730 H   0  0  0  0  0  0  0  0  0  0  0  0
    1.5025   17.9383   -2.9533 H   0  0  0  0  0  0  0  0  0  0  0  0
    0.7721   19.5794   -2.9533 H   0  0  0  0  0  0  0  0  0  0  0  0
    0.0919   19.8536    0.4521 H   0  0  0  0  0  0  0  0  0  0  0  0
    0.3461   20.7837   -1.0635 H   0  0  0  0  0  0  0  0  0  0  0  0
   -0.7252   19.3418   -1.0635 H   0  0  0  0  0  0  0  0  0  0  0  0
    1.6534   15.3692    1.8405 H   0  0  0  0  0  0  0  0  0  0  0  0
    2.5015   13.8040    1.6002 H   0  0  0  0  0  0  0  0  0  0  0  0
    3.4333   15.3397    1.6002 H   0  0  0  0  0  0  0  0  0  0  0  0
    4.3001   14.7224   -0.9746 H   0  0  0  0  0  0  0  0  0  0  0  0
    3.4903   13.2254   -0.2425 H   0  0  0  0  0  0  0  0  0  0  0  0
    3.0981   14.3653   -3.0244 H   0  0  0  0  0  0  0  0  0  0  0  0
    3.8453   12.7909   -2.5455 H   0  0  0  0  0  0  0  0  0  0  0  0
    1.7323   12.0322   -0.2969 H   0  0  0  0  0  0  0  0  0  0  0  0
    0.8655   11.0201   -1.5015 H   0  0  0  0  0  0  0  0  0  0  0  0
    2.6609   11.0764   -1.5015 H   0  0  0  0  0  0  0  0  0  0  0  0
  1  2  1  0
  2  3  1  0
  3  4  1  0
  4  5  1  0
  5  6  1  0
  6  7  1  0
  7  8  1  0
  7  9  1  0
  2 10  1  0
 10 11  1  0
 11 12  1  0
 12 13  1  0
 13 14  1  6
 13 15  1  0
 15 16  1  0
 16 17  1  0
 17 18  2  0
 18 19  1  0
 19 20  1  0
 20 21  1  0
 21 22  1  0
 22 23  1  0
 22 24  1  0
 24 25  1  0
 24 26  1  0
 19 27  1  0
 27 28  1  1
 27 29  1  0
 29 30  1  0
 30 31  1  0
 31 32  1  1
  7  5  1  0
 31 10  1  0
 31 13  1  0
 27 15  1  0
 24 18  1  0
  1 33  1  0
  1 34  1  0
  1 35  1  0
  2 36  1  1
  3 37  1  0
  3 38  1  0
  4 39  1  0
  4 40  1  0
  5 41  1  1
  8 42  1  0
  8 43  1  0
  8 44  1  0
  9 45  1  0
  9 46  1  0
  9 47  1  0
 10 48  1  6
 11 49  1  0
 11 50  1  0
 12 51  1  0
 12 52  1  0
 14 53  1  0
 14 54  1  0
 14 55  1  0
 15 56  1  1
 16 57  1  0
 16 58  1  0
 17 59  1  0
 19 60  1  6
 20 61  1  0
 20 62  1  0
 21 63  1  0
 21 64  1  0
 22 65  1  6
 23 66  1  0
 25 67  1  0
 25 68  1  0
 25 69  1  0
 26 70  1  0
 26 71  1  0
 26 72  1  0
 28 73  1  0
 28 74  1  0
 28 75  1  0
 29 76  1  0
 29 77  1  0
 30 78  1  0
 30 79  1  0
 32 80  1  0
 32 81  1  0
 32 82  1  0
M  END
>  <meeko>  (15) 
{"is_sidechain": [false], "intermolecular_energy": 2.731, "internal_energy": -0.839}

$$$$
EPH_relaxed_0001_pdb2pqr_Repair_85_r2_0001_out
     RDKit          3D

 82 86  0  0  0  0  0  0  0  0999 V2000
   -2.0620    9.6340   -0.2640 C   0  0  0  0  0  0  0  0  0  0  0  0
   -1.5450   10.5460   -1.3800 C   0  0  2  0  0  0  0  0  0  0  0  0
   -0.5990    9.8040   -2.3450 C   0  0  0  0  0  0  0  0  0  0  0  0
    0.7850    9.5230   -1.7550 C   0  0  0  0  0  0  0  0  0  0  0  0
    1.8780   10.0740   -2.6200 C   0  0  2  0  0  0  0  0  0  0  0  0
    3.0280    9.2260   -2.7440 O   0  0  0  0  0  0  0  0  0  0  0  0
    3.2380   10.4870   -2.0880 C   0  0  0  0  0  0  0  0  0  0  0  0
    3.5760   10.3680   -0.6350 C   0  0  0  0  0  0  0  0  0  0  0  0
    4.0550   11.4530   -2.8870 C   0  0  0  0  0  0  0  0  0  0  0  0
   -0.8340   11.7520   -0.7780 C   0  0  1  0  0  0  0  0  0  0  0  0
    0.3370   11.3500    0.1580 C   0  0  0  0  0  0  0  0  0  0  0  0
    1.4380   12.4270   -0.0160 C   0  0  0  0  0  0  0  0  0  0  0  0
    0.7430   13.5770   -0.7810 C   0  0  1  0  0  0  0  0  0  0  0  0
   -0.0380   14.3710    0.3130 C   0  0  0  0  0  0  0  0  0  0  0  0
    1.6740   14.5120   -1.6190 C   0  0  2  0  0  0  0  0  0  0  0  0
    2.7150   15.2970   -0.8030 C   0  0  0  0  0  0  0  0  0  0  0  0
    2.2700   16.6390   -0.3240 C   0  0  0  0  0  0  0  0  0  0  0  0
    1.1950   17.3130   -0.7730 C   0  0  0  0  0  0  0  0  0  0  0  0
    0.3540   16.7700   -1.9360 C   0  0  1  0  0  0  0  0  0  0  0  0
    0.0770   17.9100   -2.9510 C   0  0  0  0  0  0  0  0  0  0  0  0
   -0.5550   19.1340   -2.2970 C   0  0  0  0  0  0  0  0  0  0  0  0
    0.3370   19.6800   -1.1840 C   0  0  2  0  0  0  0  0  0  0  0  0
    1.5390   20.1940   -1.7670 O   0  0  0  0  0  0  0  0  0  0  0  0
    0.6920   18.6170   -0.1070 C   0  0  0  0  0  0  0  0  0  0  0  0
   -0.5680   18.2820    0.7290 C   0  0  0  0  0  0  0  0  0  0  0  0
    1.7080   19.2570    0.8770 C   0  0  0  0  0  0  0  0  0  0  0  0
    0.9050   15.4520   -2.6330 C   0  0  1  0  0  0  0  0  0  0  0  0
    1.9250   15.8290   -3.7520 C   0  0  0  0  0  0  0  0  0  0  0  0
   -0.2860   14.7130   -3.3500 C   0  0  0  0  0  0  0  0  0  0  0  0
   -1.0940   13.7130   -2.5010 C   0  0  0  0  0  0  0  0  0  0  0  0
   -0.1640   12.7460   -1.7600 C   0  0  2  0  0  0  0  0  0  0  0  0
    0.6180   11.9170   -2.8340 C   0  0  0  0  0  0  0  0  0  0  0  0
   -1.8130   10.0732    0.7133 H   0  0  0  0  0  0  0  0  0  0  0  0
   -3.1535    9.5297   -0.3518 H   0  0  0  0  0  0  0  0  0  0  0  0
   -1.5909    8.6439   -0.3518 H   0  0  0  0  0  0  0  0  0  0  0  0
   -2.4153   10.8807   -1.9636 H   0  0  0  0  0  0  0  0  0  0  0  0
   -1.0625    8.8439   -2.6159 H   0  0  0  0  0  0  0  0  0  0  0  0
   -0.4502   10.4589   -3.2162 H   0  0  0  0  0  0  0  0  0  0  0  0
    0.8494    9.9874   -0.7599 H   0  0  0  0  0  0  0  0  0  0  0  0
    0.9154    8.4327   -1.6901 H   0  0  0  0  0  0  0  0  0  0  0  0
    1.1457   10.5931   -3.2559 H   0  0  0  0  0  0  0  0  0  0  0  0
    2.7090   10.6732   -0.0307 H   0  0  0  0  0  0  0  0  0  0  0  0
    3.8354    9.3245   -0.4032 H   0  0  0  0  0  0  0  0  0  0  0  0
    4.4320   11.0188   -0.4032 H   0  0  0  0  0  0  0  0  0  0  0  0
    4.6128   12.1125   -2.2059 H   0  0  0  0  0  0  0  0  0  0  0  0
    4.7622   10.8983   -3.5212 H   0  0  0  0  0  0  0  0  0  0  0  0
    3.3906   12.0583   -3.5212 H   0  0  0  0  0  0  0  0  0  0  0  0
   -1.6848   12.2350   -0.2752 H   0  0  0  0  0  0  0  0  0  0  0  0
   -0.0053   11.3235    1.2031 H   0  0  0  0  0  0  0  0  0  0  0  0
    0.7192   10.3499   -0.0945 H   0  0  0  0  0  0  0  0  0  0  0  0
    1.7990   12.7747    0.9632 H   0  0  0  0  0  0  0  0  0  0  0  0
    2.3172   12.0411   -0.5527 H   0  0  0  0  0  0  0  0  0  0  0  0
    0.2882   14.0394    1.3098 H   0  0  0  0  0  0  0  0  0  0  0  0
    0.1641   15.4464    0.2000 H   0  0  0  0  0  0  0  0  0  0  0  0
   -1.1166   14.1867    0.2000 H   0  0  0  0  0  0  0  0  0  0  0  0
    2.2482   13.7939   -2.2228 H   0  0  0  0  0  0  0  0  0  0  0  0
    2.9824   14.6936    0.0770 H   0  0  0  0  0  0  0  0  0  0  0  0
    3.5590   15.4815   -1.4839 H   0  0  0  0  0  0  0  0  0  0  0  0
    2.8717   17.1176    0.4627 H   0  0  0  0  0  0  0  0  0  0  0  0
   -0.5927   16.4269   -1.4933 H   0  0  0  0  0  0  0  0  0  0  0  0
    1.0290   18.2094   -3.4136 H   0  0  0  0  0  0  0  0  0  0  0  0
   -0.6332   17.5265   -3.6984 H   0  0  0  0  0  0  0  0  0  0  0  0
   -0.6993   19.9147   -3.0583 H   0  0  0  0  0  0  0  0  0  0  0  0
   -1.5207   18.8394   -1.8603 H   0  0  0  0  0  0  0  0  0  0  0  0
   -0.2255   20.4728   -0.6691 H   0  0  0  0  0  0  0  0  0  0  0  0
    1.8430   20.9320   -1.2120 H   0  0  0  0  0  0  0  0  0  0  0  0
   -0.3253   18.3465    1.7999 H   0  0  0  0  0  0  0  0  0  0  0  0
   -1.3676   18.9988    0.4904 H   0  0  0  0  0  0  0  0  0  0  0  0
   -0.9060   17.2628    0.4904 H   0  0  0  0  0  0  0  0  0  0  0  0
    1.3918   19.0578    1.9116 H   0  0  0  0  0  0  0  0  0  0  0  0
    2.7048   18.8234    0.7083 H   0  0  0  0  0  0  0  0  0  0  0  0
    1.7474   20.3433    0.7083 H   0  0  0  0  0  0  0  0  0  0  0  0
    2.8623   16.1754   -3.2922 H   0  0  0  0  0  0  0  0  0  0  0  0
    2.1273   14.9462   -4.3763 H   0  0  0  0  0  0  0  0  0  0  0  0
    1.5045   16.6311   -4.3763 H   0  0  0  0  0  0  0  0  0  0  0  0
   -0.9841   15.4815   -3.7134 H   0  0  0  0  0  0  0  0  0  0  0  0
    0.1839   14.1074   -4.1390 H   0  0  0  0  0  0  0  0  0  0  0  0
   -1.6953   14.2683   -1.7661 H   0  0  0  0  0  0  0  0  0  0  0  0
   -1.7450   13.1307   -3.1697 H   0  0  0  0  0  0  0  0  0  0  0  0
    1.2892   11.2055   -2.3307 H   0  0  0  0  0  0  0  0  0  0  0  0
   -0.0963   11.3653   -3.4628 H   0  0  0  0  0  0  0  0  0  0  0  0
    1.2104   12.5979   -3.4628 H   0  0  0  0  0  0  0  0  0  0  0  0
  1  2  1  0
  2  3  1  0
  3  4  1  0
  4  5  1  0
  5  6  1  0
  6  7  1  0
  7  8  1  0
  7  9  1  0
  2 10  1  0
 10 11  1  0
 11 12  1  0
 12 13  1  0
 13 14  1  1
 13 15  1  0
 15 16  1  0
 16 17  1  0
 17 18  2  0
 18 19  1  0
 19 20  1  0
 20 21  1  0
 21 22  1  0
 22 23  1  0
 22 24  1  0
 24 25  1  0
 24 26  1  0
 19 27  1  0
 27 28  1  6
 27 29  1  0
 29 30  1  0
 30 31  1  0
 31 32  1  6
  7  5  1  0
 31 10  1  0
 31 13  1  0
 27 15  1  0
 24 18  1  0
  1 33  1  0
  1 34  1  0
  1 35  1  0
  2 36  1  6
  3 37  1  0
  3 38  1  0
  4 39  1  0
  4 40  1  0
  5 41  1  6
  8 42  1  0
  8 43  1  0
  8 44  1  0
  9 45  1  0
  9 46  1  0
  9 47  1  0
 10 48  1  1
 11 49  1  0
 11 50  1  0
 12 51  1  0
 12 52  1  0
 14 53  1  0
 14 54  1  0
 14 55  1  0
 15 56  1  6
 16 57  1  0
 16 58  1  0
 17 59  1  0
 19 60  1  1
 20 61  1  0
 20 62  1  0
 21 63  1  0
 21 64  1  0
 22 65  1  1
 23 66  1  0
 25 67  1  0
 25 68  1  0
 25 69  1  0
 26 70  1  0
 26 71  1  0
 26 72  1  0
 28 73  1  0
 28 74  1  0
 28 75  1  0
 29 76  1  0
 29 77  1  0
 30 78  1  0
 30 79  1  0
 32 80  1  0
 32 81  1  0
 32 82  1  0
M  END
>  <meeko>  (16) 
{"is_sidechain": [false], "intermolecular_energy": 2.731, "internal_energy": -0.839}

$$$$
EPH_relaxed_0001_pdb2pqr_Repair_85_r2_0001_out
     RDKit          3D

 82 86  0  0  0  0  0  0  0  0999 V2000
    0.5020    9.4150    0.0290 C   0  0  0  0  0  0  0  0  0  0  0  0
   -0.6520   10.4160   -0.0790 C   0  0  2  0  0  0  0  0  0  0  0  0
   -1.2410   10.4720   -1.5020 C   0  0  0  0  0  0  0  0  0  0  0  0
   -0.3520    9.8170   -2.5630 C   0  0  0  0  0  0  0  0  0  0  0  0
   -0.1320   10.7220   -3.7370 C   0  0  2  0  0  0  0  0  0  0  0  0
    0.4280   10.0800   -4.8910 O   0  0  0  0  0  0  0  0  0  0  0  0
    1.2430   11.0860   -4.2670 C   0  0  0  0  0  0  0  0  0  0  0  0
    2.4890   10.5520   -3.6340 C   0  0  0  0  0  0  0  0  0  0  0  0
    1.3890   12.3340   -5.0800 C   0  0  0  0  0  0  0  0  0  0  0  0
   -0.1790   11.8020    0.3440 C   0  0  1  0  0  0  0  0  0  0  0  0
    0.9150   11.7510    1.4440 C   0  0  0  0  0  0  0  0  0  0  0  0
    1.8810   12.9320    1.1690 C   0  0  0  0  0  0  0  0  0  0  0  0
    1.1390   13.8110    0.1370 C   0  0  1  0  0  0  0  0  0  0  0  0
    0.1380   14.6620    0.9800 C   0  0  0  0  0  0  0  0  0  0  0  0
    2.0350   14.7110   -0.7760 C   0  0  2  0  0  0  0  0  0  0  0  0
    2.8610   15.7750   -0.0330 C   0  0  0  0  0  0  0  0  0  0  0  0
    2.1930   17.0990    0.1370 C   0  0  0  0  0  0  0  0  0  0  0  0
    1.1000   17.5140   -0.5310 C   0  0  0  0  0  0  0  0  0  0  0  0
    0.4810   16.6550   -1.6410 C   0  0  1  0  0  0  0  0  0  0  0  0
    0.1810   17.5430   -2.8770 C   0  0  0  0  0  0  0  0  0  0  0  0
   -0.6760   18.7570   -2.5310 C   0  0  0  0  0  0  0  0  0  0  0  0
   -0.0010   19.6170   -1.4670 C   0  0  2  0  0  0  0  0  0  0  0  0
    1.1850   20.1930   -2.0240 O   0  0  0  0  0  0  0  0  0  0  0  0
    0.3580   18.8270   -0.1770 C   0  0  0  0  0  0  0  0  0  0  0  0
   -0.9380   18.4610    0.5870 C   0  0  0  0  0  0  0  0  0  0  0  0
    1.1590   19.7740    0.7560 C   0  0  0  0  0  0  0  0  0  0  0  0
    1.2770   15.3320   -2.0180 C   0  0  1  0  0  0  0  0  0  0  0  0
    2.3640   15.6520   -3.0890 C   0  0  0  0  0  0  0  0  0  0  0  0
    0.2840   14.3080   -2.6860 C   0  0  0  0  0  0  0  0  0  0  0  0
   -0.4830   13.3650   -1.7400 C   0  0  0  0  0  0  0  0  0  0  0  0
    0.4690   12.6950   -0.7440 C   0  0  2  0  0  0  0  0  0  0  0  0
    1.4740   11.8140   -1.5630 C   0  0  0  0  0  0  0  0  0  0  0  0
    0.7230    9.2233    1.0894 H   0  0  0  0  0  0  0  0  0  0  0  0
    0.2174    8.4729   -0.4624 H   0  0  0  0  0  0  0  0  0  0  0  0
    1.3944    9.8298   -0.4624 H   0  0  0  0  0  0  0  0  0  0  0  0
   -1.4509   10.0738    0.5953 H   0  0  0  0  0  0  0  0  0  0  0  0
   -2.2124    9.9559   -1.4962 H   0  0  0  0  0  0  0  0  0  0  0  0
   -1.3317   11.5349   -1.7705 H   0  0  0  0  0  0  0  0  0  0  0  0
    0.6217    9.5748   -2.1122 H   0  0  0  0  0  0  0  0  0  0  0  0
   -0.8578    8.9080   -2.9207 H   0  0  0  0  0  0  0  0  0  0  0  0
   -1.0010   11.3356   -3.4571 H   0  0  0  0  0  0  0  0  0  0  0  0
    2.3911   10.5940   -2.5392 H   0  0  0  0  0  0  0  0  0  0  0  0
    2.6422    9.5092   -3.9487 H   0  0  0  0  0  0  0  0  0  0  0  0
    3.3498   11.1602   -3.9487 H   0  0  0  0  0  0  0  0  0  0  0  0
    1.4902   13.1993   -4.4085 H   0  0  0  0  0  0  0  0  0  0  0  0
    2.2841   12.2556   -5.7145 H   0  0  0  0  0  0  0  0  0  0  0  0
    0.5000   12.4643   -5.7145 H   0  0  0  0  0  0  0  0  0  0  0  0
   -1.1387   12.2340    0.6640 H   0  0  0  0  0  0  0  0  0  0  0  0
    0.4576   11.8594    2.4385 H   0  0  0  0  0  0  0  0  0  0  0  0
    1.4502   10.7902    1.4246 H   0  0  0  0  0  0  0  0  0  0  0  0
    2.0755   13.4975    2.0922 H   0  0  0  0  0  0  0  0  0  0  0  0
    2.8602   12.5926    0.8002 H   0  0  0  0  0  0  0  0  0  0  0  0
    0.3296   14.4991    2.0509 H   0  0  0  0  0  0  0  0  0  0  0  0
    0.2713   15.7275    0.7416 H   0  0  0  0  0  0  0  0  0  0  0  0
   -0.8922   14.3590    0.7416 H   0  0  0  0  0  0  0  0  0  0  0  0
    2.7643   13.9905   -1.1748 H   0  0  0  0  0  0  0  0  0  0  0  0
    3.0982   15.3834    0.9672 H   0  0  0  0  0  0  0  0  0  0  0  0
    3.7482   15.9604   -0.6563 H   0  0  0  0  0  0  0  0  0  0  0  0
    2.6302   17.7938    0.8692 H   0  0  0  0  0  0  0  0  0  0  0  0
   -0.4592   16.2582   -1.2305 H   0  0  0  0  0  0  0  0  0  0  0  0
    1.1344   17.8932   -3.2993 H   0  0  0  0  0  0  0  0  0  0  0  0
   -0.3813   16.9321   -3.5985 H   0  0  0  0  0  0  0  0  0  0  0  0
   -0.8280   19.3604   -3.4381 H   0  0  0  0  0  0  0  0  0  0  0  0
   -1.6405   18.4044   -2.1368 H   0  0  0  0  0  0  0  0  0  0  0  0
   -0.7185   20.3954   -1.1683 H   0  0  0  0  0  0  0  0  0  0  0  0
    1.2130   21.1270   -1.7550 H   0  0  0  0  0  0  0  0  0  0  0  0
   -0.7524   18.5134    1.6700 H   0  0  0  0  0  0  0  0  0  0  0  0
   -1.7353   19.1691    0.3169 H   0  0  0  0  0  0  0  0  0  0  0  0
   -1.2471   17.4404    0.3169 H   0  0  0  0  0  0  0  0  0  0  0  0
    0.9456   19.5217    1.8052 H   0  0  0  0  0  0  0  0  0  0  0  0
    2.2353   19.6557    0.5620 H   0  0  0  0  0  0  0  0  0  0  0  0
    0.8638   20.8157    0.5620 H   0  0  0  0  0  0  0  0  0  0  0  0
    3.3030   15.9284   -2.5872 H   0  0  0  0  0  0  0  0  0  0  0  0
    2.5316   14.7651   -3.7177 H   0  0  0  0  0  0  0  0  0  0  0  0
    2.0243   16.4883   -3.7177 H   0  0  0  0  0  0  0  0  0  0  0  0
   -0.4596   14.8873   -3.2529 H   0  0  0  0  0  0  0  0  0  0  0  0
    0.9186   13.6488   -3.2965 H   0  0  0  0  0  0  0  0  0  0  0  0
   -1.2346   13.9454   -1.1848 H   0  0  0  0  0  0  0  0  0  0  0  0
   -0.9685   12.5828   -2.3420 H   0  0  0  0  0  0  0  0  0  0  0  0
    2.1166   11.2507   -0.8703 H   0  0  0  0  0  0  0  0  0  0  0  0
    0.9133   11.1111   -2.1967 H   0  0  0  0  0  0  0  0  0  0  0  0
    2.0974   12.4619   -2.1967 H   0  0  0  0  0  0  0  0  0  0  0  0
  1  2  1  0
  2  3  1  0
  3  4  1  0
  4  5  1  0
  5  6  1  0
  6  7  1  0
  7  8  1  0
  7  9  1  0
  2 10  1  0
 10 11  1  0
 11 12  1  0
 12 13  1  0
 13 14  1  1
 13 15  1  0
 15 16  1  0
 16 17  1  0
 17 18  2  0
 18 19  1  0
 19 20  1  0
 20 21  1  0
 21 22  1  0
 22 23  1  0
 22 24  1  0
 24 25  1  0
 24 26  1  0
 19 27  1  0
 27 28  1  6
 27 29  1  0
 29 30  1  0
 30 31  1  0
 31 32  1  6
  7  5  1  0
 31 10  1  0
 31 13  1  0
 27 15  1  0
 24 18  1  0
  1 33  1  0
  1 34  1  0
  1 35  1  0
  2 36  1  1
  3 37  1  0
  3 38  1  0
  4 39  1  0
  4 40  1  0
  5 41  1  6
  8 42  1  0
  8 43  1  0
  8 44  1  0
  9 45  1  0
  9 46  1  0
  9 47  1  0
 10 48  1  1
 11 49  1  0
 11 50  1  0
 12 51  1  0
 12 52  1  0
 14 53  1  0
 14 54  1  0
 14 55  1  0
 15 56  1  6
 16 57  1  0
 16 58  1  0
 17 59  1  0
 19 60  1  1
 20 61  1  0
 20 62  1  0
 21 63  1  0
 21 64  1  0
 22 65  1  1
 23 66  1  0
 25 67  1  0
 25 68  1  0
 25 69  1  0
 26 70  1  0
 26 71  1  0
 26 72  1  0
 28 73  1  0
 28 74  1  0
 28 75  1  0
 29 76  1  0
 29 77  1  0
 30 78  1  0
 30 79  1  0
 32 80  1  0
 32 81  1  0
 32 82  1  0
M  END
>  <meeko>  (17) 
{"is_sidechain": [false], "intermolecular_energy": 2.731, "internal_energy": -0.839}

$$$$
EPH_relaxed_0001_pdb2pqr_Repair_85_r2_0001_out
     RDKit          3D

 82 86  0  0  0  0  0  0  0  0999 V2000
   -1.7370   14.7780    0.3810 C   0  0  0  0  0  0  0  0  0  0  0  0
   -0.3840   15.4880    0.2880 C   0  0  2  0  0  0  0  0  0  0  0  0
   -0.3720   16.5730   -0.8070 C   0  0  0  0  0  0  0  0  0  0  0  0
   -0.0400   17.9730   -0.2830 C   0  0  0  0  0  0  0  0  0  0  0  0
    1.4180   18.1170    0.0310 C   0  0  2  0  0  0  0  0  0  0  0  0
    2.0400   19.2780   -0.5320 O   0  0  0  0  0  0  0  0  0  0  0  0
    2.5130   18.0100   -1.0130 C   0  0  0  0  0  0  0  0  0  0  0  0
    2.1960   17.7480   -2.4520 C   0  0  0  0  0  0  0  0  0  0  0  0
    3.9010   17.6730   -0.5630 C   0  0  0  0  0  0  0  0  0  0  0  0
    0.7200   14.4700    0.0260 C   0  0  1  0  0  0  0  0  0  0  0  0
    0.8650   13.4360    1.1740 C   0  0  0  0  0  0  0  0  0  0  0  0
    1.2580   12.0890    0.5150 C   0  0  0  0  0  0  0  0  0  0  0  0
    1.6490   12.4630   -0.9340 C   0  0  1  0  0  0  0  0  0  0  0  0
    3.1160   12.9850   -0.8320 C   0  0  0  0  0  0  0  0  0  0  0  0
    1.5130   11.3280   -2.0010 C   0  0  2  0  0  0  0  0  0  0  0  0
    2.4130   10.1020   -1.7670 C   0  0  0  0  0  0  0  0  0  0  0  0
    3.7570   10.1640   -2.4140 C   0  0  0  0  0  0  0  0  0  0  0  0
    4.1200   11.0260   -3.3820 C   0  0  0  0  0  0  0  0  0  0  0  0
    3.1020   11.9990   -3.9920 C   0  0  1  0  0  0  0  0  0  0  0  0
    3.2270   11.9760   -5.5380 C   0  0  0  0  0  0  0  0  0  0  0  0
    4.6510   12.2470   -6.0140 C   0  0  0  0  0  0  0  0  0  0  0  0
    5.6240   11.2240   -5.4330 C   0  0  2  0  0  0  0  0  0  0  0  0
    5.3250    9.9380   -5.9840 O   0  0  0  0  0  0  0  0  0  0  0  0
    5.5800   11.1510   -3.8810 C   0  0  0  0  0  0  0  0  0  0  0  0
    6.1910   12.4420   -3.2810 C   0  0  0  0  0  0  0  0  0  0  0  0
    6.5030    9.9850   -3.4320 C   0  0  0  0  0  0  0  0  0  0  0  0
    1.6010   11.8320   -3.4980 C   0  0  1  0  0  0  0  0  0  0  0  0
    0.8700   10.7660   -4.3700 C   0  0  0  0  0  0  0  0  0  0  0  0
    0.8330   13.1880   -3.7190 C   0  0  0  0  0  0  0  0  0  0  0  0
    0.9060   14.2220   -2.5780 C   0  0  0  0  0  0  0  0  0  0  0  0
    0.5770   13.5740   -1.2300 C   0  0  2  0  0  0  0  0  0  0  0  0
   -0.9010   13.0590   -1.2950 C   0  0  0  0  0  0  0  0  0  0  0  0
   -2.0053   14.6372    1.4385 H   0  0  0  0  0  0  0  0  0  0  0  0
   -2.5063   15.3886   -0.1143 H   0  0  0  0  0  0  0  0  0  0  0  0
   -1.6716   13.7980   -0.1143 H   0  0  0  0  0  0  0  0  0  0  0  0
   -0.2060   15.9894    1.2508 H   0  0  0  0  0  0  0  0  0  0  0  0
    0.3799   16.2971   -1.5610 H   0  0  0  0  0  0  0  0  0  0  0  0
   -1.3884   16.6190   -1.2250 H   0  0  0  0  0  0  0  0  0  0  0  0
   -0.3146   18.7142   -1.0480 H   0  0  0  0  0  0  0  0  0  0  0  0
   -0.6078   18.1348    0.6451 H   0  0  0  0  0  0  0  0  0  0  0  0
    1.2795   17.6299    1.0075 H   0  0  0  0  0  0  0  0  0  0  0  0
    1.3497   17.0485   -2.5196 H   0  0  0  0  0  0  0  0  0  0  0  0
    1.9305   18.6937   -2.9470 H   0  0  0  0  0  0  0  0  0  0  0  0
    3.0748   17.3091   -2.9470 H   0  0  0  0  0  0  0  0  0  0  0  0
    3.9380   17.6640    0.5363 H   0  0  0  0  0  0  0  0  0  0  0  0
    4.1804   16.6809   -0.9474 H   0  0  0  0  0  0  0  0  0  0  0  0
    4.6042   18.4265   -0.9474 H   0  0  0  0  0  0  0  0  0  0  0  0
    1.5748   15.1519   -0.0935 H   0  0  0  0  0  0  0  0  0  0  0  0
    1.6484   13.7570    1.8763 H   0  0  0  0  0  0  0  0  0  0  0  0
   -0.0732   13.3400    1.7402 H   0  0  0  0  0  0  0  0  0  0  0  0
    2.1093   11.6329    1.0415 H   0  0  0  0  0  0  0  0  0  0  0  0
    0.4409   11.3534    0.5499 H   0  0  0  0  0  0  0  0  0  0  0  0
    3.3968   13.0849    0.2268 H   0  0  0  0  0  0  0  0  0  0  0  0
    3.7937   12.2728   -1.3255 H   0  0  0  0  0  0  0  0  0  0  0  0
    3.1916   13.9652   -1.3255 H   0  0  0  0  0  0  0  0  0  0  0  0
    0.4826   10.9772   -1.8426 H   0  0  0  0  0  0  0  0  0  0  0  0
    2.5626    9.9923   -0.6828 H   0  0  0  0  0  0  0  0  0  0  0  0
    1.8923    9.2501   -2.2287 H   0  0  0  0  0  0  0  0  0  0  0  0
    4.5148    9.4444   -2.0706 H   0  0  0  0  0  0  0  0  0  0  0  0
    3.3674   12.9961   -3.6108 H   0  0  0  0  0  0  0  0  0  0  0  0
    2.9159   10.9858   -5.9022 H   0  0  0  0  0  0  0  0  0  0  0  0
    2.5840   12.7744   -5.9368 H   0  0  0  0  0  0  0  0  0  0  0  0
    4.6808   12.1891   -7.1121 H   0  0  0  0  0  0  0  0  0  0  0  0
    4.9504   13.2493   -5.6737 H   0  0  0  0  0  0  0  0  0  0  0  0
    6.6408   11.5446   -5.7037 H   0  0  0  0  0  0  0  0  0  0  0  0
    5.0930    9.3490   -5.2470 H   0  0  0  0  0  0  0  0  0  0  0  0
    6.1638   12.3845   -2.1828 H   0  0  0  0  0  0  0  0  0  0  0  0
    7.2333   12.5449   -3.6171 H   0  0  0  0  0  0  0  0  0  0  0  0
    5.6097   13.3133   -3.6171 H   0  0  0  0  0  0  0  0  0  0  0  0
    6.5348    9.9448   -2.3332 H   0  0  0  0  0  0  0  0  0  0  0  0
    6.1097    9.0348   -3.8224 H   0  0  0  0  0  0  0  0  0  0  0  0
    7.5181   10.1497   -3.8224 H   0  0  0  0  0  0  0  0  0  0  0  0
    0.3701   10.0370   -3.7153 H   0  0  0  0  0  0  0  0  0  0  0  0
    0.1214   11.2624   -5.0049 H   0  0  0  0  0  0  0  0  0  0  0  0
    1.6028   10.2465   -5.0049 H   0  0  0  0  0  0  0  0  0  0  0  0
    1.2450   13.6603   -4.6230 H   0  0  0  0  0  0  0  0  0  0  0  0
   -0.2289   12.9095   -3.7876 H   0  0  0  0  0  0  0  0  0  0  0  0
    1.9219   14.6419   -2.5372 H   0  0  0  0  0  0  0  0  0  0  0  0
    0.1696   15.0150   -2.7753 H   0  0  0  0  0  0  0  0  0  0  0  0
   -1.2876   12.9243   -0.2740 H   0  0  0  0  0  0  0  0  0  0  0  0
   -1.5222   13.7937   -1.8283 H   0  0  0  0  0  0  0  0  0  0  0  0
   -0.9311   12.0974   -1.8283 H   0  0  0  0  0  0  0  0  0  0  0  0
  1  2  1  0
  2  3  1  0
  3  4  1  0
  4  5  1  0
  5  6  1  0
  6  7  1  0
  7  8  1  0
  7  9  1  0
  2 10  1  0
 10 11  1  0
 11 12  1  0
 12 13  1  0
 13 14  1  1
 13 15  1  0
 15 16  1  0
 16 17  1  0
 17 18  2  0
 18 19  1  0
 19 20  1  0
 20 21  1  0
 21 22  1  0
 22 23  1  0
 22 24  1  0
 24 25  1  0
 24 26  1  0
 19 27  1  0
 27 28  1  6
 27 29  1  0
 29 30  1  0
 30 31  1  0
 31 32  1  6
  7  5  1  0
 31 10  1  0
 31 13  1  0
 27 15  1  0
 24 18  1  0
  1 33  1  0
  1 34  1  0
  1 35  1  0
  2 36  1  1
  3 37  1  0
  3 38  1  0
  4 39  1  0
  4 40  1  0
  5 41  1  1
  8 42  1  0
  8 43  1  0
  8 44  1  0
  9 45  1  0
  9 46  1  0
  9 47  1  0
 10 48  1  6
 11 49  1  0
 11 50  1  0
 12 51  1  0
 12 52  1  0
 14 53  1  0
 14 54  1  0
 14 55  1  0
 15 56  1  6
 16 57  1  0
 16 58  1  0
 17 59  1  0
 19 60  1  1
 20 61  1  0
 20 62  1  0
 21 63  1  0
 21 64  1  0
 22 65  1  1
 23 66  1  0
 25 67  1  0
 25 68  1  0
 25 69  1  0
 26 70  1  0
 26 71  1  0
 26 72  1  0
 28 73  1  0
 28 74  1  0
 28 75  1  0
 29 76  1  0
 29 77  1  0
 30 78  1  0
 30 79  1  0
 32 80  1  0
 32 81  1  0
 32 82  1  0
M  END
>  <meeko>  (18) 
{"is_sidechain": [false], "intermolecular_energy": 2.731, "internal_energy": -0.839}

$$$$
EPH_relaxed_0001_pdb2pqr_Repair_85_r2_0001_out
     RDKit          3D

 82 86  0  0  0  0  0  0  0  0999 V2000
    0.1610    9.2820   -2.2010 C   0  0  0  0  0  0  0  0  0  0  0  0
    1.1690   10.3210   -2.7000 C   0  0  2  0  0  0  0  0  0  0  0  0
    2.5910    9.7380   -2.8230 C   0  0  0  0  0  0  0  0  0  0  0  0
    3.4810   10.4910   -3.8160 C   0  0  0  0  0  0  0  0  0  0  0  0
    4.8760   10.6570   -3.2950 C   0  0  2  0  0  0  0  0  0  0  0  0
    5.4940   11.9080   -3.6250 O   0  0  0  0  0  0  0  0  0  0  0  0
    6.1000   10.7340   -4.1890 C   0  0  0  0  0  0  0  0  0  0  0  0
    5.9840   10.6450   -5.6790 C   0  0  0  0  0  0  0  0  0  0  0  0
    7.4370   10.4040   -3.6020 C   0  0  0  0  0  0  0  0  0  0  0  0
    1.1790   11.5260   -1.7660 C   0  0  1  0  0  0  0  0  0  0  0  0
    2.2360   11.3970   -0.6370 C   0  0  0  0  0  0  0  0  0  0  0  0
    2.7760   12.8250   -0.3660 C   0  0  0  0  0  0  0  0  0  0  0  0
    1.7900   13.7620   -1.1010 C   0  0  1  0  0  0  0  0  0  0  0  0
    0.5730   13.9030   -0.1330 C   0  0  0  0  0  0  0  0  0  0  0  0
    2.3510   15.1570   -1.5300 C   0  0  2  0  0  0  0  0  0  0  0  0
    2.7990   16.0640   -0.3710 C   0  0  0  0  0  0  0  0  0  0  0  0
    1.7460   16.9690    0.1760 C   0  0  0  0  0  0  0  0  0  0  0  0
    0.5760   17.2590   -0.4240 C   0  0  0  0  0  0  0  0  0  0  0  0
    0.2580   16.7290   -1.8280 C   0  0  1  0  0  0  0  0  0  0  0  0
   -0.3120   17.8790   -2.6990 C   0  0  0  0  0  0  0  0  0  0  0  0
   -1.5100   18.5660   -2.0500 C   0  0  0  0  0  0  0  0  0  0  0  0
   -1.1390   19.1310   -0.6810 C   0  0  2  0  0  0  0  0  0  0  0  0
   -0.1990   20.1950   -0.8600 O   0  0  0  0  0  0  0  0  0  0  0  0
   -0.5440   18.0640    0.2810 C   0  0  0  0  0  0  0  0  0  0  0  0
   -1.6550   17.0760    0.7140 C   0  0  0  0  0  0  0  0  0  0  0  0
   -0.0820   18.7910    1.5730 C   0  0  0  0  0  0  0  0  0  0  0  0
    1.4310   15.9390   -2.5530 C   0  0  1  0  0  0  0  0  0  0  0  0
    2.3570   16.9390   -3.3100 C   0  0  0  0  0  0  0  0  0  0  0  0
    0.8130   14.9900   -3.6470 C   0  0  0  0  0  0  0  0  0  0  0  0
    0.3880   13.5830   -3.1870 C   0  0  0  0  0  0  0  0  0  0  0  0
    1.5060   12.9060   -2.3890 C   0  0  2  0  0  0  0  0  0  0  0  0
    2.7360   12.7310   -3.3440 C   0  0  0  0  0  0  0  0  0  0  0  0
    0.1550    9.2758   -1.1010 H   0  0  0  0  0  0  0  0  0  0  0  0
   -0.8427    9.5373   -2.5717 H   0  0  0  0  0  0  0  0  0  0  0  0
    0.4466    8.2865   -2.5717 H   0  0  0  0  0  0  0  0  0  0  0  0
    0.8520   10.6330   -3.7061 H   0  0  0  0  0  0  0  0  0  0  0  0
    3.0680    9.7740   -1.8325 H   0  0  0  0  0  0  0  0  0  0  0  0
    2.4856    8.7103   -3.2008 H   0  0  0  0  0  0  0  0  0  0  0  0
    3.5178    9.9275   -4.7600 H   0  0  0  0  0  0  0  0  0  0  0  0
    3.0515   11.4918   -3.9706 H   0  0  0  0  0  0  0  0  0  0  0  0
    4.6442   10.0426   -2.4125 H   0  0  0  0  0  0  0  0  0  0  0  0
    5.1367    9.9949   -5.9426 H   0  0  0  0  0  0  0  0  0  0  0  0
    5.8183   11.6499   -6.0946 H   0  0  0  0  0  0  0  0  0  0  0  0
    6.9117   10.2248   -6.0946 H   0  0  0  0  0  0  0  0  0  0  0  0
    7.3697   10.4206   -2.5042 H   0  0  0  0  0  0  0  0  0  0  0  0
    7.7467    9.4025   -3.9352 H   0  0  0  0  0  0  0  0  0  0  0  0
    8.1771   11.1464   -3.9352 H   0  0  0  0  0  0  0  0  0  0  0  0
    0.1329   11.5054   -1.4266 H   0  0  0  0  0  0  0  0  0  0  0  0
    1.7712   10.9887    0.2725 H   0  0  0  0  0  0  0  0  0  0  0  0
    3.0483   10.7164   -0.9318 H   0  0  0  0  0  0  0  0  0  0  0  0
    2.7835   13.0388    0.7130 H   0  0  0  0  0  0  0  0  0  0  0  0
    3.8111   12.9524   -0.7156 H   0  0  0  0  0  0  0  0  0  0  0  0
    0.9259   13.8621    0.9081 H   0  0  0  0  0  0  0  0  0  0  0  0
    0.0712   14.8653   -0.3126 H   0  0  0  0  0  0  0  0  0  0  0  0
   -0.1355   13.0809   -0.3126 H   0  0  0  0  0  0  0  0  0  0  0  0
    3.2701   14.8857   -2.0701 H   0  0  0  0  0  0  0  0  0  0  0  0
    3.1517   15.4196    0.4477 H   0  0  0  0  0  0  0  0  0  0  0  0
    3.5793   16.7206   -0.7835 H   0  0  0  0  0  0  0  0  0  0  0  0
    1.9421   17.4386    1.1512 H   0  0  0  0  0  0  0  0  0  0  0  0
   -0.5060   15.9493   -1.6925 H   0  0  0  0  0  0  0  0  0  0  0  0
    0.4794   18.6262   -2.8582 H   0  0  0  0  0  0  0  0  0  0  0  0
   -0.6524   17.4411   -3.6489 H   0  0  0  0  0  0  0  0  0  0  0  0
   -1.8490   19.3872   -2.6986 H   0  0  0  0  0  0  0  0  0  0  0  0
   -2.3114   17.8241   -1.9183 H   0  0  0  0  0  0  0  0  0  0  0  0
   -2.0653   19.4946   -0.2122 H   0  0  0  0  0  0  0  0  0  0  0  0
    0.6090   19.8120   -1.2430 H   0  0  0  0  0  0  0  0  0  0  0  0
   -1.7014   17.0348    1.8122 H   0  0  0  0  0  0  0  0  0  0  0  0
   -2.6233   17.4169    0.3187 H   0  0  0  0  0  0  0  0  0  0  0  0
   -1.4296   16.0746    0.3187 H   0  0  0  0  0  0  0  0  0  0  0  0
   -0.4357   18.2344    2.4534 H   0  0  0  0  0  0  0  0  0  0  0  0
    1.0165   18.8451    1.5904 H   0  0  0  0  0  0  0  0  0  0  0  0
   -0.4995   19.8085    1.5904 H   0  0  0  0  0  0  0  0  0  0  0  0
    2.9169   17.5437   -2.5814 H   0  0  0  0  0  0  0  0  0  0  0  0
    3.0627   16.3792   -3.9414 H   0  0  0  0  0  0  0  0  0  0  0  0
    1.7447   17.5997   -3.9414 H   0  0  0  0  0  0  0  0  0  0  0  0
   -0.0777   15.4895   -4.0558 H   0  0  0  0  0  0  0  0  0  0  0  0
    1.6224   14.8228   -4.3730 H   0  0  0  0  0  0  0  0  0  0  0  0
   -0.5068   13.6668   -2.5527 H   0  0  0  0  0  0  0  0  0  0  0  0
    0.1735   12.9730   -4.0769 H   0  0  0  0  0  0  0  0  0  0  0  0
    3.6495   12.6010   -2.7452 H   0  0  0  0  0  0  0  0  0  0  0  0
    2.5844   11.8454   -3.9786 H   0  0  0  0  0  0  0  0  0  0  0  0
    2.8374   13.6238   -3.9786 H   0  0  0  0  0  0  0  0  0  0  0  0
  1  2  1  0
  2  3  1  0
  3  4  1  0
  4  5  1  0
  5  6  1  0
  6  7  1  0
  7  8  1  0
  7  9  1  0
  2 10  1  0
 10 11  1  0
 11 12  1  0
 12 13  1  0
 13 14  1  1
 13 15  1  0
 15 16  1  0
 16 17  1  0
 17 18  2  0
 18 19  1  0
 19 20  1  0
 20 21  1  0
 21 22  1  0
 22 23  1  0
 22 24  1  0
 24 25  1  0
 24 26  1  0
 19 27  1  0
 27 28  1  6
 27 29  1  0
 29 30  1  0
 30 31  1  0
 31 32  1  6
  7  5  1  0
 31 10  1  0
 31 13  1  0
 27 15  1  0
 24 18  1  0
  1 33  1  0
  1 34  1  0
  1 35  1  0
  2 36  1  6
  3 37  1  0
  3 38  1  0
  4 39  1  0
  4 40  1  0
  5 41  1  1
  8 42  1  0
  8 43  1  0
  8 44  1  0
  9 45  1  0
  9 46  1  0
  9 47  1  0
 10 48  1  1
 11 49  1  0
 11 50  1  0
 12 51  1  0
 12 52  1  0
 14 53  1  0
 14 54  1  0
 14 55  1  0
 15 56  1  6
 16 57  1  0
 16 58  1  0
 17 59  1  0
 19 60  1  1
 20 61  1  0
 20 62  1  0
 21 63  1  0
 21 64  1  0
 22 65  1  1
 23 66  1  0
 25 67  1  0
 25 68  1  0
 25 69  1  0
 26 70  1  0
 26 71  1  0
 26 72  1  0
 28 73  1  0
 28 74  1  0
 28 75  1  0
 29 76  1  0
 29 77  1  0
 30 78  1  0
 30 79  1  0
 32 80  1  0
 32 81  1  0
 32 82  1  0
M  END
>  <meeko>  (19) 
{"is_sidechain": [false], "intermolecular_energy": 2.731, "internal_energy": -0.839}

$$$$
EPH_relaxed_0001_pdb2pqr_Repair_85_r2_0001_out
     RDKit          3D

 82 86  0  0  0  0  0  0  0  0999 V2000
    1.0240   20.0880   -2.2770 C   0  0  0  0  0  0  0  0  0  0  0  0
    1.3530   19.3800   -0.9600 C   0  0  2  0  0  0  0  0  0  0  0  0
    2.3340   20.1930   -0.0920 C   0  0  0  0  0  0  0  0  0  0  0  0
    3.2370   19.3290    0.7920 C   0  0  0  0  0  0  0  0  0  0  0  0
    3.7840   20.1050    1.9510 C   0  0  2  0  0  0  0  0  0  0  0  0
    5.2150   20.1560    2.0150 O   0  0  0  0  0  0  0  0  0  0  0  0
    4.5580   19.4700    3.0920 C   0  0  0  0  0  0  0  0  0  0  0  0
    4.8250   17.9980    3.1290 C   0  0  0  0  0  0  0  0  0  0  0  0
    4.6270   20.1950    4.4000 C   0  0  0  0  0  0  0  0  0  0  0  0
    1.9310   17.9980   -1.2430 C   0  0  1  0  0  0  0  0  0  0  0  0
    3.4100   17.8650   -0.7910 C   0  0  0  0  0  0  0  0  0  0  0  0
    3.5960   16.4090   -0.2920 C   0  0  0  0  0  0  0  0  0  0  0  0
    2.3290   15.6660   -0.7770 C   0  0  1  0  0  0  0  0  0  0  0  0
    2.6130   15.3230   -2.2730 C   0  0  0  0  0  0  0  0  0  0  0  0
    1.9180   14.3960    0.0380 C   0  0  2  0  0  0  0  0  0  0  0  0
    2.9460   13.2520    0.0260 C   0  0  0  0  0  0  0  0  0  0  0  0
    2.7780   12.2560   -1.0740 C   0  0  0  0  0  0  0  0  0  0  0  0
    1.6800   12.1150   -1.8400 C   0  0  0  0  0  0  0  0  0  0  0  0
    0.4190   12.9450   -1.5700 C   0  0  1  0  0  0  0  0  0  0  0  0
   -0.8270   12.0210   -1.6020 C   0  0  0  0  0  0  0  0  0  0  0  0
   -0.9240   11.2160   -2.8950 C   0  0  0  0  0  0  0  0  0  0  0  0
    0.3230   10.3590   -3.0990 C   0  0  2  0  0  0  0  0  0  0  0  0
    0.3640    9.3540   -2.0810 O   0  0  0  0  0  0  0  0  0  0  0  0
    1.6420   11.1810   -3.0750 C   0  0  0  0  0  0  0  0  0  0  0  0
    1.7320   12.0570   -4.3490 C   0  0  0  0  0  0  0  0  0  0  0  0
    2.8280   10.1830   -3.1500 C   0  0  0  0  0  0  0  0  0  0  0  0
    0.4600   13.8680   -0.2760 C   0  0  1  0  0  0  0  0  0  0  0  0
    0.0020   13.0540    0.9730 C   0  0  0  0  0  0  0  0  0  0  0  0
   -0.5770   15.0400   -0.4470 C   0  0  0  0  0  0  0  0  0  0  0  0
   -0.0770   16.3130   -1.1550 C   0  0  0  0  0  0  0  0  0  0  0  0
    1.2500   16.7880   -0.5550 C   0  0  2  0  0  0  0  0  0  0  0  0
    0.9910   17.1610    0.9440 C   0  0  0  0  0  0  0  0  0  0  0  0
    0.5693   21.0666   -2.0636 H   0  0  0  0  0  0  0  0  0  0  0  0
    1.9477   20.2315   -2.8568 H   0  0  0  0  0  0  0  0  0  0  0  0
    0.3187   19.4746   -2.8568 H   0  0  0  0  0  0  0  0  0  0  0  0
    0.4148   19.2824   -0.3941 H   0  0  0  0  0  0  0  0  0  0  0  0
    2.9717   20.7928   -0.7581 H   0  0  0  0  0  0  0  0  0  0  0  0
    1.7265   20.8156    0.5813 H   0  0  0  0  0  0  0  0  0  0  0  0
    2.6530   18.4794    1.1756 H   0  0  0  0  0  0  0  0  0  0  0  0
    4.0836   18.9817    0.1816 H   0  0  0  0  0  0  0  0  0  0  0  0
    2.9201   20.7857    1.9338 H   0  0  0  0  0  0  0  0  0  0  0  0
    4.8858   17.6626    4.1748 H   0  0  0  0  0  0  0  0  0  0  0  0
    4.0090   17.4644    2.6197 H   0  0  0  0  0  0  0  0  0  0  0  0
    5.7764   17.7850    2.6197 H   0  0  0  0  0  0  0  0  0  0  0  0
    4.5581   19.4705    5.2249 H   0  0  0  0  0  0  0  0  0  0  0  0
    5.5809   20.7385    4.4681 H   0  0  0  0  0  0  0  0  0  0  0  0
    3.7927   20.9087    4.4681 H   0  0  0  0  0  0  0  0  0  0  0  0
    1.7725   17.9508   -2.3305 H   0  0  0  0  0  0  0  0  0  0  0  0
    4.0841   18.0645   -1.6371 H   0  0  0  0  0  0  0  0  0  0  0  0
    3.6467   18.5881    0.0034 H   0  0  0  0  0  0  0  0  0  0  0  0
    4.5004   15.9610   -0.7295 H   0  0  0  0  0  0  0  0  0  0  0  0
    3.7196   16.3545    0.7997 H   0  0  0  0  0  0  0  0  0  0  0  0
    3.3136   14.4768   -2.3285 H   0  0  0  0  0  0  0  0  0  0  0  0
    1.6710   15.0524   -2.7724 H   0  0  0  0  0  0  0  0  0  0  0  0
    3.0545   16.1980   -2.7724 H   0  0  0  0  0  0  0  0  0  0  0  0
    1.9043   14.7731    1.0712 H   0  0  0  0  0  0  0  0  0  0  0  0
    3.9480   13.6962   -0.0675 H   0  0  0  0  0  0  0  0  0  0  0  0
    2.7961   12.6978    0.9643 H   0  0  0  0  0  0  0  0  0  0  0  0
    3.6226   11.5807   -1.2753 H   0  0  0  0  0  0  0  0  0  0  0  0
    0.3595   13.6804   -2.3859 H   0  0  0  0  0  0  0  0  0  0  0  0
   -0.7698   11.3220   -0.7546 H   0  0  0  0  0  0  0  0  0  0  0  0
   -1.7195   12.6608   -1.5386 H   0  0  0  0  0  0  0  0  0  0  0  0
   -1.8067   10.5614   -2.8462 H   0  0  0  0  0  0  0  0  0  0  0  0
   -1.0107   11.9162   -3.7389 H   0  0  0  0  0  0  0  0  0  0  0  0
    0.2526    9.9078   -4.0998 H   0  0  0  0  0  0  0  0  0  0  0  0
   -0.4560    9.4260   -1.5640 H   0  0  0  0  0  0  0  0  0  0  0  0
    1.8405   13.1131   -4.0609 H   0  0  0  0  0  0  0  0  0  0  0  0
    2.6032   11.7483   -4.9455 H   0  0  0  0  0  0  0  0  0  0  0  0
    0.8163   11.9319   -4.9455 H   0  0  0  0  0  0  0  0  0  0  0  0
    3.1466    9.9149   -2.1318 H   0  0  0  0  0  0  0  0  0  0  0  0
    2.5108    9.2761   -3.6857 H   0  0  0  0  0  0  0  0  0  0  0  0
    3.6673   10.6505   -3.6857 H   0  0  0  0  0  0  0  0  0  0  0  0
    0.3016   13.5865    1.8877 H   0  0  0  0  0  0  0  0  0  0  0  0
   -1.0921   12.9411    0.9561 H   0  0  0  0  0  0  0  0  0  0  0  0
    0.4734   12.0603    0.9561 H   0  0  0  0  0  0  0  0  0  0  0  0
   -1.4274   14.6499   -1.0255 H   0  0  0  0  0  0  0  0  0  0  0  0
   -0.8225   15.3582    0.5769 H   0  0  0  0  0  0  0  0  0  0  0  0
    0.0680   16.0971   -2.2238 H   0  0  0  0  0  0  0  0  0  0  0  0
   -0.8268   17.1066   -1.0211 H   0  0  0  0  0  0  0  0  0  0  0  0
    1.4965   16.4330    1.5956 H   0  0  0  0  0  0  0  0  0  0  0  0
    1.3850   18.1682    1.1446 H   0  0  0  0  0  0  0  0  0  0  0  0
   -0.0904   17.1437    1.1446 H   0  0  0  0  0  0  0  0  0  0  0  0
  1  2  1  0
  2  3  1  0
  3  4  1  0
  4  5  1  0
  5  6  1  0
  6  7  1  0
  7  8  1  0
  7  9  1  0
  2 10  1  0
 10 11  1  0
 11 12  1  0
 12 13  1  0
 13 14  1  6
 13 15  1  0
 15 16  1  0
 16 17  1  0
 17 18  2  0
 18 19  1  0
 19 20  1  0
 20 21  1  0
 21 22  1  0
 22 23  1  0
 22 24  1  0
 24 25  1  0
 24 26  1  0
 19 27  1  0
 27 28  1  1
 27 29  1  0
 29 30  1  0
 30 31  1  0
 31 32  1  1
  7  5  1  0
 31 10  1  0
 31 13  1  0
 27 15  1  0
 24 18  1  0
  1 33  1  0
  1 34  1  0
  1 35  1  0
  2 36  1  1
  3 37  1  0
  3 38  1  0
  4 39  1  0
  4 40  1  0
  5 41  1  1
  8 42  1  0
  8 43  1  0
  8 44  1  0
  9 45  1  0
  9 46  1  0
  9 47  1  0
 10 48  1  6
 11 49  1  0
 11 50  1  0
 12 51  1  0
 12 52  1  0
 14 53  1  0
 14 54  1  0
 14 55  1  0
 15 56  1  1
 16 57  1  0
 16 58  1  0
 17 59  1  0
 19 60  1  6
 20 61  1  0
 20 62  1  0
 21 63  1  0
 21 64  1  0
 22 65  1  6
 23 66  1  0
 25 67  1  0
 25 68  1  0
 25 69  1  0
 26 70  1  0
 26 71  1  0
 26 72  1  0
 28 73  1  0
 28 74  1  0
 28 75  1  0
 29 76  1  0
 29 77  1  0
 30 78  1  0
 30 79  1  0
 32 80  1  0
 32 81  1  0
 32 82  1  0
M  END
>  <meeko>  (20) 
{"is_sidechain": [false], "intermolecular_energy": 2.731, "internal_energy": -0.839}

$$$$
