EPH_relaxed_0001_pdb2pqr_Repair_300_r2_0001_out
     RDKit          3D

 82 86  0  0  0  0  0  0  0  0999 V2000
   -1.6360    8.6290   -1.8380 C   0  0  0  0  0  0  0  0  0  0  0  0
   -2.0380    9.1570   -0.4580 C   0  0  2  0  0  0  0  0  0  0  0  0
   -3.5430    9.4810   -0.3750 C   0  0  0  0  0  0  0  0  0  0  0  0
   -4.4350    8.2410   -0.2760 C   0  0  0  0  0  0  0  0  0  0  0  0
   -5.1470    7.9650   -1.5650 C   0  0  2  0  0  0  0  0  0  0  0  0
   -6.3500    8.7210   -1.7590 O   0  0  0  0  0  0  0  0  0  0  0  0
   -6.5080    7.2970   -1.6430 C   0  0  0  0  0  0  0  0  0  0  0  0
   -7.2360    6.8640   -0.4100 C   0  0  0  0  0  0  0  0  0  0  0  0
   -6.9040    6.6290   -2.9230 C   0  0  0  0  0  0  0  0  0  0  0  0
   -1.2190   10.3960   -0.1170 C   0  0  1  0  0  0  0  0  0  0  0  0
   -0.1970   10.1410    1.0230 C   0  0  0  0  0  0  0  0  0  0  0  0
    1.0540   10.9990    0.7030 C   0  0  0  0  0  0  0  0  0  0  0  0
    0.5910   11.9610   -0.4160 C   0  0  1  0  0  0  0  0  0  0  0  0
   -0.1600   13.1090    0.3290 C   0  0  0  0  0  0  0  0  0  0  0  0
    1.7100   12.5180   -1.3560 C   0  0  2  0  0  0  0  0  0  0  0  0
    2.7790   13.3790   -0.6590 C   0  0  0  0  0  0  0  0  0  0  0  0
    2.4850   14.8410   -0.6080 C   0  0  0  0  0  0  0  0  0  0  0  0
    1.5550   15.4790   -1.3420 C   0  0  0  0  0  0  0  0  0  0  0  0
    0.7470   14.7320   -2.4110 C   0  0  1  0  0  0  0  0  0  0  0  0
    0.7160   15.5690   -3.7170 C   0  0  0  0  0  0  0  0  0  0  0  0
    0.2080   16.9890   -3.4890 C   0  0  0  0  0  0  0  0  0  0  0  0
    1.0720   17.7190   -2.4630 C   0  0  2  0  0  0  0  0  0  0  0  0
    2.3770   17.9150   -3.0150 O   0  0  0  0  0  0  0  0  0  0  0  0
    1.1850   16.9640   -1.1090 C   0  0  0  0  0  0  0  0  0  0  0  0
   -0.1750   17.0160   -0.3690 C   0  0  0  0  0  0  0  0  0  0  0  0
    2.1940   17.7350   -0.2160 C   0  0  0  0  0  0  0  0  0  0  0  0
    1.1660   13.2200   -2.6660 C   0  0  1  0  0  0  0  0  0  0  0  0
    2.3170   13.1560   -3.7150 C   0  0  0  0  0  0  0  0  0  0  0  0
   -0.0530   12.4480   -3.2960 C   0  0  0  0  0  0  0  0  0  0  0  0
   -1.0590   11.8180   -2.3140 C   0  0  0  0  0  0  0  0  0  0  0  0
   -0.3380   10.9980   -1.2410 C   0  0  2  0  0  0  0  0  0  0  0  0
    0.4090    9.8220   -1.9580 C   0  0  0  0  0  0  0  0  0  0  0  0
   -0.9736    7.7589   -1.7190 H   0  0  0  0  0  0  0  0  0  0  0  0
   -2.5374    8.3303   -2.3932 H   0  0  0  0  0  0  0  0  0  0  0  0
   -1.1082    9.4185   -2.3932 H   0  0  0  0  0  0  0  0  0  0  0  0
   -1.8314    8.3616    0.2732 H   0  0  0  0  0  0  0  0  0  0  0  0
   -3.7154   10.1047    0.5146 H   0  0  0  0  0  0  0  0  0  0  0  0
   -3.8126    9.9971   -1.3082 H   0  0  0  0  0  0  0  0  0  0  0  0
   -3.8104    7.3722   -0.0209 H   0  0  0  0  0  0  0  0  0  0  0  0
   -5.1919    8.4247    0.5008 H   0  0  0  0  0  0  0  0  0  0  0  0
   -4.1940    7.7598   -2.0745 H   0  0  0  0  0  0  0  0  0  0  0  0
   -6.6798    7.1948    0.4795 H   0  0  0  0  0  0  0  0  0  0  0  0
   -8.2409    7.3113   -0.4014 H   0  0  0  0  0  0  0  0  0  0  0  0
   -7.3227    5.7675   -0.4014 H   0  0  0  0  0  0  0  0  0  0  0  0
   -7.4531    5.7027   -2.6986 H   0  0  0  0  0  0  0  0  0  0  0  0
   -7.5475    7.3048   -3.5055 H   0  0  0  0  0  0  0  0  0  0  0  0
   -6.0023    6.3888   -3.5055 H   0  0  0  0  0  0  0  0  0  0  0  0
   -2.0329   11.0912    0.1363 H   0  0  0  0  0  0  0  0  0  0  0  0
   -0.6256   10.4423    1.9902 H   0  0  0  0  0  0  0  0  0  0  0  0
    0.0624    9.0741    1.0892 H   0  0  0  0  0  0  0  0  0  0  0  0
    1.3760   11.5626    1.5911 H   0  0  0  0  0  0  0  0  0  0  0  0
    1.9137   10.3851    0.3963 H   0  0  0  0  0  0  0  0  0  0  0  0
   -0.0654   12.9645    1.4154 H   0  0  0  0  0  0  0  0  0  0  0  0
    0.2797   14.0774    0.0483 H   0  0  0  0  0  0  0  0  0  0  0  0
   -1.2235   13.0941    0.0483 H   0  0  0  0  0  0  0  0  0  0  0  0
    2.2270   11.6015   -1.6764 H   0  0  0  0  0  0  0  0  0  0  0  0
    2.8861   13.0174    0.3743 H   0  0  0  0  0  0  0  0  0  0  0  0
    3.6945   13.2731   -1.2595 H   0  0  0  0  0  0  0  0  0  0  0  0
    3.0795   15.4494    0.0894 H   0  0  0  0  0  0  0  0  0  0  0  0
   -0.2714   14.6326   -2.0073 H   0  0  0  0  0  0  0  0  0  0  0  0
    1.7354   15.6207   -4.1271 H   0  0  0  0  0  0  0  0  0  0  0  0
    0.0239   15.0745   -4.4145 H   0  0  0  0  0  0  0  0  0  0  0  0
    0.2373   17.5391   -4.4411 H   0  0  0  0  0  0  0  0  0  0  0  0
   -0.8222   16.9365   -3.1070 H   0  0  0  0  0  0  0  0  0  0  0  0
    0.5843   18.6808   -2.2458 H   0  0  0  0  0  0  0  0  0  0  0  0
    2.4450   17.3620   -3.8120 H   0  0  0  0  0  0  0  0  0  0  0  0
   -0.0019   17.0094    0.7173 H   0  0  0  0  0  0  0  0  0  0  0  0
   -0.7101   17.9353   -0.6494 H   0  0  0  0  0  0  0  0  0  0  0  0
   -0.7787   16.1403   -0.6494 H   0  0  0  0  0  0  0  0  0  0  0  0
    1.9583   17.5549    0.8432 H   0  0  0  0  0  0  0  0  0  0  0  0
    3.2146   17.3846   -0.4292 H   0  0  0  0  0  0  0  0  0  0  0  0
    2.1240   18.8119   -0.4292 H   0  0  0  0  0  0  0  0  0  0  0  0
    3.2847   13.1022   -3.1947 H   0  0  0  0  0  0  0  0  0  0  0  0
    2.1895   12.2636   -4.3453 H   0  0  0  0  0  0  0  0  0  0  0  0
    2.2892   14.0571   -4.3453 H   0  0  0  0  0  0  0  0  0  0  0  0
   -0.6057   13.1583   -3.9285 H   0  0  0  0  0  0  0  0  0  0  0  0
    0.3920   11.5992   -3.8360 H   0  0  0  0  0  0  0  0  0  0  0  0
   -1.6364   12.6182   -1.8278 H   0  0  0  0  0  0  0  0  0  0  0  0
   -1.7263   11.1489   -2.8770 H   0  0  0  0  0  0  0  0  0  0  0  0
    0.8383    9.1462   -1.2036 H   0  0  0  0  0  0  0  0  0  0  0  0
   -0.3015    9.2655   -2.5869 H   0  0  0  0  0  0  0  0  0  0  0  0
    1.2147   10.2287   -2.5869 H   0  0  0  0  0  0  0  0  0  0  0  0
  1  2  1  0
  2  3  1  0
  3  4  1  0
  4  5  1  0
  5  6  1  0
  6  7  1  0
  7  8  1  0
  7  9  1  0
  2 10  1  0
 10 11  1  0
 11 12  1  0
 12 13  1  0
 13 14  1  1
 13 15  1  0
 15 16  1  0
 16 17  1  0
 17 18  2  0
 18 19  1  0
 19 20  1  0
 20 21  1  0
 21 22  1  0
 22 23  1  0
 22 24  1  0
 24 25  1  0
 24 26  1  0
 19 27  1  0
 27 28  1  6
 27 29  1  0
 29 30  1  0
 30 31  1  0
 31 32  1  6
  7  5  1  0
 31 10  1  0
 31 13  1  0
 27 15  1  0
 24 18  1  0
  1 33  1  0
  1 34  1  0
  1 35  1  0
  2 36  1  1
  3 37  1  0
  3 38  1  0
  4 39  1  0
  4 40  1  0
  5 41  1  6
  8 42  1  0
  8 43  1  0
  8 44  1  0
  9 45  1  0
  9 46  1  0
  9 47  1  0
 10 48  1  1
 11 49  1  0
 11 50  1  0
 12 51  1  0
 12 52  1  0
 14 53  1  0
 14 54  1  0
 14 55  1  0
 15 56  1  6
 16 57  1  0
 16 58  1  0
 17 59  1  0
 19 60  1  1
 20 61  1  0
 20 62  1  0
 21 63  1  0
 21 64  1  0
 22 65  1  1
 23 66  1  0
 25 67  1  0
 25 68  1  0
 25 69  1  0
 26 70  1  0
 26 71  1  0
 26 72  1  0
 28 73  1  0
 28 74  1  0
 28 75  1  0
 29 76  1  0
 29 77  1  0
 30 78  1  0
 30 79  1  0
 32 80  1  0
 32 81  1  0
 32 82  1  0
M  END
>  <meeko>  (1) 
{"is_sidechain": [false], "intermolecular_energy": 2.731, "internal_energy": -0.839}

$$$$
EPH_relaxed_0001_pdb2pqr_Repair_300_r2_0001_out
     RDKit          3D

 82 86  0  0  0  0  0  0  0  0999 V2000
    1.9690   19.6280   -0.5580 C   0  0  0  0  0  0  0  0  0  0  0  0
    2.3870   18.3940    0.2470 C   0  0  2  0  0  0  0  0  0  0  0  0
    3.8310   17.9560   -0.0700 C   0  0  0  0  0  0  0  0  0  0  0  0
    4.8370   18.3050    1.0300 C   0  0  0  0  0  0  0  0  0  0  0  0
    4.1920   19.0650    2.1490 C   0  0  2  0  0  0  0  0  0  0  0  0
    4.9430   20.1930    2.6180 O   0  0  0  0  0  0  0  0  0  0  0  0
    4.7560   19.1210    3.5570 C   0  0  0  0  0  0  0  0  0  0  0  0
    6.0180   18.4040    3.9200 C   0  0  0  0  0  0  0  0  0  0  0  0
    3.8320   19.4620    4.6840 C   0  0  0  0  0  0  0  0  0  0  0  0
    1.4220   17.2460   -0.0240 C   0  0  1  0  0  0  0  0  0  0  0  0
    0.1460   17.7030   -0.7780 C   0  0  0  0  0  0  0  0  0  0  0  0
   -0.2560   16.5410   -1.7220 C   0  0  0  0  0  0  0  0  0  0  0  0
    0.5930   15.3400   -1.2460 C   0  0  1  0  0  0  0  0  0  0  0  0
   -0.1760   14.7700   -0.0120 C   0  0  0  0  0  0  0  0  0  0  0  0
    0.8790   14.2300   -2.3090 C   0  0  2  0  0  0  0  0  0  0  0  0
   -0.3670   13.5070   -2.8490 C   0  0  0  0  0  0  0  0  0  0  0  0
   -0.7710   12.2840   -2.0940 C   0  0  0  0  0  0  0  0  0  0  0  0
   -0.0050   11.6250   -1.2050 C   0  0  0  0  0  0  0  0  0  0  0  0
    1.4490   12.0440   -0.9550 C   0  0  1  0  0  0  0  0  0  0  0  0
    2.3580   10.7870   -0.9580 C   0  0  0  0  0  0  0  0  0  0  0  0
    1.8820    9.7180    0.0210 C   0  0  0  0  0  0  0  0  0  0  0  0
    0.4530    9.2850   -0.2960 C   0  0  2  0  0  0  0  0  0  0  0  0
    0.4450    8.6110   -1.5580 O   0  0  0  0  0  0  0  0  0  0  0  0
   -0.5530   10.4700   -0.3300 C   0  0  0  0  0  0  0  0  0  0  0  0
   -0.7700   11.0090    1.1050 C   0  0  0  0  0  0  0  0  0  0  0  0
   -1.9250    9.9170   -0.7990 C   0  0  0  0  0  0  0  0  0  0  0  0
    2.0070   13.2030   -1.8880 C   0  0  1  0  0  0  0  0  0  0  0  0
    2.5730   12.5970   -3.2080 C   0  0  0  0  0  0  0  0  0  0  0  0
    3.2170   13.9070   -1.1660 C   0  0  0  0  0  0  0  0  0  0  0  0
    2.8780   15.0730   -0.2190 C   0  0  0  0  0  0  0  0  0  0  0  0
    1.9380   16.0750   -0.8970 C   0  0  2  0  0  0  0  0  0  0  0  0
    2.6920   16.6810   -2.1290 C   0  0  0  0  0  0  0  0  0  0  0  0
    1.6940   20.4397    0.1315 H   0  0  0  0  0  0  0  0  0  0  0  0
    2.8070   19.9534   -1.1919 H   0  0  0  0  0  0  0  0  0  0  0  0
    1.1057   19.3771   -1.1919 H   0  0  0  0  0  0  0  0  0  0  0  0
    2.3514   18.6654    1.3124 H   0  0  0  0  0  0  0  0  0  0  0  0
    3.8391   16.8655   -0.2144 H   0  0  0  0  0  0  0  0  0  0  0  0
    4.1409   18.5020   -0.9732 H   0  0  0  0  0  0  0  0  0  0  0  0
    5.2643   17.3741    1.4310 H   0  0  0  0  0  0  0  0  0  0  0  0
    5.6200   18.9402    0.5902 H   0  0  0  0  0  0  0  0  0  0  0  0
    3.1894   18.8257    1.7648 H   0  0  0  0  0  0  0  0  0  0  0  0
    6.1085   18.3526    5.0151 H   0  0  0  0  0  0  0  0  0  0  0  0
    5.9930   17.3852    3.5059 H   0  0  0  0  0  0  0  0  0  0  0  0
    6.8803   18.9470    3.5059 H   0  0  0  0  0  0  0  0  0  0  0  0
    4.3383   19.2752    5.6425 H   0  0  0  0  0  0  0  0  0  0  0  0
    3.5503   20.5233    4.6189 H   0  0  0  0  0  0  0  0  0  0  0  0
    2.9284   18.8381    4.6189 H   0  0  0  0  0  0  0  0  0  0  0  0
    1.2523   16.9009    1.0066 H   0  0  0  0  0  0  0  0  0  0  0  0
   -0.6641   17.9073   -0.0624 H   0  0  0  0  0  0  0  0  0  0  0  0
    0.3322   18.6266   -1.3457 H   0  0  0  0  0  0  0  0  0  0  0  0
   -1.3293   16.3189   -1.6291 H   0  0  0  0  0  0  0  0  0  0  0  0
   -0.0793   16.7833   -2.7803 H   0  0  0  0  0  0  0  0  0  0  0  0
    0.3018   15.1241    0.9134 H   0  0  0  0  0  0  0  0  0  0  0  0
   -1.2205   15.1137   -0.0401 H   0  0  0  0  0  0  0  0  0  0  0  0
   -0.1509   13.6706   -0.0401 H   0  0  0  0  0  0  0  0  0  0  0  0
    1.2768   14.8108   -3.1542 H   0  0  0  0  0  0  0  0  0  0  0  0
   -1.2084   14.2152   -2.8245 H   0  0  0  0  0  0  0  0  0  0  0  0
   -0.1069   13.1674   -3.8624 H   0  0  0  0  0  0  0  0  0  0  0  0
   -1.7802   11.8880   -2.2801 H   0  0  0  0  0  0  0  0  0  0  0  0
    1.4634   12.5126    0.0401 H   0  0  0  0  0  0  0  0  0  0  0  0
    2.3646   10.3592   -1.9714 H   0  0  0  0  0  0  0  0  0  0  0  0
    3.3643   11.1021   -0.6448 H   0  0  0  0  0  0  0  0  0  0  0  0
    2.5467    8.8443   -0.0488 H   0  0  0  0  0  0  0  0  0  0  0  0
    1.9042   10.1380    1.0374 H   0  0  0  0  0  0  0  0  0  0  0  0
    0.1234    8.6169    0.5133 H   0  0  0  0  0  0  0  0  0  0  0  0
    0.2010    7.6850   -1.3950 H   0  0  0  0  0  0  0  0  0  0  0  0
   -0.4624   10.2449    1.8341 H   0  0  0  0  0  0  0  0  0  0  0  0
   -0.1677   11.9179    1.2503 H   0  0  0  0  0  0  0  0  0  0  0  0
   -1.8341   11.2471    1.2503 H   0  0  0  0  0  0  0  0  0  0  0  0
   -2.5399    9.6692    0.0788 H   0  0  0  0  0  0  0  0  0  0  0  0
   -2.4396   10.6779   -1.4041 H   0  0  0  0  0  0  0  0  0  0  0  0
   -1.7681    9.0119   -1.4041 H   0  0  0  0  0  0  0  0  0  0  0  0
    3.3056   11.8127   -2.9668 H   0  0  0  0  0  0  0  0  0  0  0  0
    1.7500   12.1623   -3.7943 H   0  0  0  0  0  0  0  0  0  0  0  0
    3.0628   13.3884   -3.7943 H   0  0  0  0  0  0  0  0  0  0  0  0
    3.7434   13.1419   -0.5765 H   0  0  0  0  0  0  0  0  0  0  0  0
    3.8121   14.3568   -1.9744 H   0  0  0  0  0  0  0  0  0  0  0  0
    2.3893   14.6742    0.6822 H   0  0  0  0  0  0  0  0  0  0  0  0
    3.8110   15.5917    0.0464 H   0  0  0  0  0  0  0  0  0  0  0  0
    3.5043   17.3339   -1.7769 H   0  0  0  0  0  0  0  0  0  0  0  0
    3.1133   15.8673   -2.7376 H   0  0  0  0  0  0  0  0  0  0  0  0
    1.9880   17.2674   -2.7376 H   0  0  0  0  0  0  0  0  0  0  0  0
  1  2  1  0
  2  3  1  0
  3  4  1  0
  4  5  1  0
  5  6  1  0
  6  7  1  0
  7  8  1  0
  7  9  1  0
  2 10  1  0
 10 11  1  0
 11 12  1  0
 12 13  1  0
 13 14  1  1
 13 15  1  0
 15 16  1  0
 16 17  1  0
 17 18  2  0
 18 19  1  0
 19 20  1  0
 20 21  1  0
 21 22  1  0
 22 23  1  0
 22 24  1  0
 24 25  1  0
 24 26  1  0
 19 27  1  0
 27 28  1  6
 27 29  1  0
 29 30  1  0
 30 31  1  0
 31 32  1  6
  7  5  1  0
 31 10  1  0
 31 13  1  0
 27 15  1  0
 24 18  1  0
  1 33  1  0
  1 34  1  0
  1 35  1  0
  2 36  1  1
  3 37  1  0
  3 38  1  0
  4 39  1  0
  4 40  1  0
  5 41  1  1
  8 42  1  0
  8 43  1  0
  8 44  1  0
  9 45  1  0
  9 46  1  0
  9 47  1  0
 10 48  1  1
 11 49  1  0
 11 50  1  0
 12 51  1  0
 12 52  1  0
 14 53  1  0
 14 54  1  0
 14 55  1  0
 15 56  1  6
 16 57  1  0
 16 58  1  0
 17 59  1  0
 19 60  1  1
 20 61  1  0
 20 62  1  0
 21 63  1  0
 21 64  1  0
 22 65  1  1
 23 66  1  0
 25 67  1  0
 25 68  1  0
 25 69  1  0
 26 70  1  0
 26 71  1  0
 26 72  1  0
 28 73  1  0
 28 74  1  0
 28 75  1  0
 29 76  1  0
 29 77  1  0
 30 78  1  0
 30 79  1  0
 32 80  1  0
 32 81  1  0
 32 82  1  0
M  END
>  <meeko>  (2) 
{"is_sidechain": [false], "intermolecular_energy": 2.731, "internal_energy": -0.839}

$$$$
EPH_relaxed_0001_pdb2pqr_Repair_300_r2_0001_out
     RDKit          3D

 82 86  0  0  0  0  0  0  0  0999 V2000
    0.3420   18.3400    0.0430 C   0  0  0  0  0  0  0  0  0  0  0  0
    1.4240   17.2850   -0.2050 C   0  0  2  0  0  0  0  0  0  0  0  0
    2.6170   17.8520   -0.9990 C   0  0  0  0  0  0  0  0  0  0  0  0
    3.8670   18.0880   -0.1460 C   0  0  0  0  0  0  0  0  0  0  0  0
    3.5180   18.6000    1.2190 C   0  0  2  0  0  0  0  0  0  0  0  0
    3.7710   19.9980    1.4170 O   0  0  0  0  0  0  0  0  0  0  0  0
    4.5500   19.0930    2.2160 C   0  0  0  0  0  0  0  0  0  0  0  0
    6.0110   19.0960    1.8910 C   0  0  0  0  0  0  0  0  0  0  0  0
    4.1890   19.1100    3.6690 C   0  0  0  0  0  0  0  0  0  0  0  0
    0.8270   16.0920   -0.9430 C   0  0  1  0  0  0  0  0  0  0  0  0
    0.6280   16.3660   -2.4580 C   0  0  0  0  0  0  0  0  0  0  0  0
    0.8960   15.0280   -3.1930 C   0  0  0  0  0  0  0  0  0  0  0  0
    0.9130   13.9630   -2.0720 C   0  0  1  0  0  0  0  0  0  0  0  0
   -0.5910   13.6520   -1.7910 C   0  0  0  0  0  0  0  0  0  0  0  0
    1.7260   12.6610   -2.3670 C   0  0  2  0  0  0  0  0  0  0  0  0
    1.2100   11.8240   -3.5510 C   0  0  0  0  0  0  0  0  0  0  0  0
    0.2020   10.7800   -3.2030 C   0  0  0  0  0  0  0  0  0  0  0  0
   -0.0610   10.3300   -1.9620 C   0  0  0  0  0  0  0  0  0  0  0  0
    0.7600   10.8110   -0.7590 C   0  0  1  0  0  0  0  0  0  0  0  0
    1.1650    9.5930    0.1120 C   0  0  0  0  0  0  0  0  0  0  0  0
   -0.0330    8.7450    0.5260 C   0  0  0  0  0  0  0  0  0  0  0  0
   -0.7900    8.2370   -0.6980 C   0  0  2  0  0  0  0  0  0  0  0  0
    0.0440    7.3150   -1.4060 O   0  0  0  0  0  0  0  0  0  0  0  0
   -1.2410    9.3750   -1.6560 C   0  0  0  0  0  0  0  0  0  0  0  0
   -2.3720   10.1970   -0.9900 C   0  0  0  0  0  0  0  0  0  0  0  0
   -1.8670    8.7190   -2.9160 C   0  0  0  0  0  0  0  0  0  0  0  0
    1.9910   11.7590   -1.0940 C   0  0  1  0  0  0  0  0  0  0  0  0
    3.2530   10.8990   -1.4120 C   0  0  0  0  0  0  0  0  0  0  0  0
    2.3450   12.6120    0.1810 C   0  0  0  0  0  0  0  0  0  0  0  0
    1.5940   13.9460    0.3540 C   0  0  0  0  0  0  0  0  0  0  0  0
    1.6370   14.7720   -0.9350 C   0  0  2  0  0  0  0  0  0  0  0  0
    3.1360   15.1190   -1.2300 C   0  0  0  0  0  0  0  0  0  0  0  0
    0.2032   18.4753    1.1258 H   0  0  0  0  0  0  0  0  0  0  0  0
    0.6498   19.2943   -0.4093 H   0  0  0  0  0  0  0  0  0  0  0  0
   -0.6042   18.0082   -0.4093 H   0  0  0  0  0  0  0  0  0  0  0  0
    1.8037   16.9636    0.7761 H   0  0  0  0  0  0  0  0  0  0  0  0
    2.8714   17.1410   -1.7988 H   0  0  0  0  0  0  0  0  0  0  0  0
    2.3059   18.8313   -1.3918 H   0  0  0  0  0  0  0  0  0  0  0  0
    4.4121   17.1383   -0.0419 H   0  0  0  0  0  0  0  0  0  0  0  0
    4.4870   18.8453   -0.6482 H   0  0  0  0  0  0  0  0  0  0  0  0
    2.6946   17.8759    1.3063 H   0  0  0  0  0  0  0  0  0  0  0  0
    6.5941   19.0972    2.8237 H   0  0  0  0  0  0  0  0  0  0  0  0
    6.2582   18.1984    1.3052 H   0  0  0  0  0  0  0  0  0  0  0  0
    6.2545   19.9946    1.3052 H   0  0  0  0  0  0  0  0  0  0  0  0
    5.1059   19.0668    4.2751 H   0  0  0  0  0  0  0  0  0  0  0  0
    3.6402   20.0350    3.8997 H   0  0  0  0  0  0  0  0  0  0  0  0
    3.5557   18.2407    3.8997 H   0  0  0  0  0  0  0  0  0  0  0  0
   -0.1022   15.9659   -0.3679 H   0  0  0  0  0  0  0  0  0  0  0  0
   -0.4010   16.7042   -2.6499 H   0  0  0  0  0  0  0  0  0  0  0  0
    1.3103   17.1537   -2.8100 H   0  0  0  0  0  0  0  0  0  0  0  0
    0.0960   14.8161   -3.9177 H   0  0  0  0  0  0  0  0  0  0  0  0
    1.8359   15.0471   -3.7642 H   0  0  0  0  0  0  0  0  0  0  0  0
   -0.7614   13.6168   -0.7049 H   0  0  0  0  0  0  0  0  0  0  0  0
   -1.2175   14.4396   -2.2351 H   0  0  0  0  0  0  0  0  0  0  0  0
   -0.8537   12.6805   -2.2351 H   0  0  0  0  0  0  0  0  0  0  0  0
    2.7011   13.0591   -2.6843 H   0  0  0  0  0  0  0  0  0  0  0  0
    0.7512   12.5104   -4.2779 H   0  0  0  0  0  0  0  0  0  0  0  0
    2.0835   11.2839   -3.9451 H   0  0  0  0  0  0  0  0  0  0  0  0
   -0.3747   10.3412   -4.0305 H   0  0  0  0  0  0  0  0  0  0  0  0
    0.0978   11.4759   -0.1851 H   0  0  0  0  0  0  0  0  0  0  0  0
    1.8602    8.9639   -0.4633 H   0  0  0  0  0  0  0  0  0  0  0  0
    1.6329    9.9798    1.0293 H   0  0  0  0  0  0  0  0  0  0  0  0
    0.3205    7.8848    1.1134 H   0  0  0  0  0  0  0  0  0  0  0  0
   -0.7130    9.3670    1.1265 H   0  0  0  0  0  0  0  0  0  0  0  0
   -1.7074    7.7479   -0.3384 H   0  0  0  0  0  0  0  0  0  0  0  0
   -0.5320    6.7600   -1.9580 H   0  0  0  0  0  0  0  0  0  0  0  0
   -2.2790   10.1294    0.1040 H   0  0  0  0  0  0  0  0  0  0  0  0
   -2.2921   11.2493   -1.3005 H   0  0  0  0  0  0  0  0  0  0  0  0
   -3.3482    9.7962   -1.3005 H   0  0  0  0  0  0  0  0  0  0  0  0
   -2.5960    7.9551   -2.6078 H   0  0  0  0  0  0  0  0  0  0  0  0
   -2.3741    9.4886   -3.5165 H   0  0  0  0  0  0  0  0  0  0  0  0
   -1.0745    8.2485   -3.5165 H   0  0  0  0  0  0  0  0  0  0  0  0
    3.7243   10.5778   -0.4714 H   0  0  0  0  0  0  0  0  0  0  0  0
    2.9565   10.0142   -1.9944 H   0  0  0  0  0  0  0  0  0  0  0  0
    3.9681   11.4986   -1.9944 H   0  0  0  0  0  0  0  0  0  0  0  0
    2.1323   11.9931    1.0652 H   0  0  0  0  0  0  0  0  0  0  0  0
    3.4020   12.8904    0.0571 H   0  0  0  0  0  0  0  0  0  0  0  0
    0.5454   13.7374    0.6126 H   0  0  0  0  0  0  0  0  0  0  0  0
    2.0817   14.5211    1.1549 H   0  0  0  0  0  0  0  0  0  0  0  0
    3.6771   15.2443   -0.2805 H   0  0  0  0  0  0  0  0  0  0  0  0
    3.5943   14.3032   -1.8083 H   0  0  0  0  0  0  0  0  0  0  0  0
    3.1892   16.0532   -1.8083 H   0  0  0  0  0  0  0  0  0  0  0  0
  1  2  1  0
  2  3  1  0
  3  4  1  0
  4  5  1  0
  5  6  1  0
  6  7  1  0
  7  8  1  0
  7  9  1  0
  2 10  1  0
 10 11  1  0
 11 12  1  0
 12 13  1  0
 13 14  1  1
 13 15  1  0
 15 16  1  0
 16 17  1  0
 17 18  2  0
 18 19  1  0
 19 20  1  0
 20 21  1  0
 21 22  1  0
 22 23  1  0
 22 24  1  0
 24 25  1  0
 24 26  1  0
 19 27  1  0
 27 28  1  6
 27 29  1  0
 29 30  1  0
 30 31  1  0
 31 32  1  6
  7  5  1  0
 31 10  1  0
 31 13  1  0
 27 15  1  0
 24 18  1  0
  1 33  1  0
  1 34  1  0
  1 35  1  0
  2 36  1  1
  3 37  1  0
  3 38  1  0
  4 39  1  0
  4 40  1  0
  5 41  1  1
  8 42  1  0
  8 43  1  0
  8 44  1  0
  9 45  1  0
  9 46  1  0
  9 47  1  0
 10 48  1  1
 11 49  1  0
 11 50  1  0
 12 51  1  0
 12 52  1  0
 14 53  1  0
 14 54  1  0
 14 55  1  0
 15 56  1  6
 16 57  1  0
 16 58  1  0
 17 59  1  0
 19 60  1  1
 20 61  1  0
 20 62  1  0
 21 63  1  0
 21 64  1  0
 22 65  1  1
 23 66  1  0
 25 67  1  0
 25 68  1  0
 25 69  1  0
 26 70  1  0
 26 71  1  0
 26 72  1  0
 28 73  1  0
 28 74  1  0
 28 75  1  0
 29 76  1  0
 29 77  1  0
 30 78  1  0
 30 79  1  0
 32 80  1  0
 32 81  1  0
 32 82  1  0
M  END
>  <meeko>  (3) 
{"is_sidechain": [false], "intermolecular_energy": 2.731, "internal_energy": -0.839}

$$$$
EPH_relaxed_0001_pdb2pqr_Repair_300_r2_0001_out
     RDKit          3D

 82 86  0  0  0  0  0  0  0  0999 V2000
    1.1770   18.7860   -3.3470 C   0  0  0  0  0  0  0  0  0  0  0  0
    0.6360   18.0440   -2.1210 C   0  0  2  0  0  0  0  0  0  0  0  0
    1.6450   18.0360   -0.9550 C   0  0  0  0  0  0  0  0  0  0  0  0
    1.1740   18.8210    0.2720 C   0  0  0  0  0  0  0  0  0  0  0  0
   -0.0020   19.6940   -0.0460 C   0  0  2  0  0  0  0  0  0  0  0  0
   -0.7420   20.1420    1.0980 O   0  0  0  0  0  0  0  0  0  0  0  0
   -1.4420   19.2760    0.1900 C   0  0  0  0  0  0  0  0  0  0  0  0
   -1.7820   17.9370    0.7660 C   0  0  0  0  0  0  0  0  0  0  0  0
   -2.5220   19.9630   -0.5860 C   0  0  0  0  0  0  0  0  0  0  0  0
    0.2650   16.6150   -2.4990 C   0  0  1  0  0  0  0  0  0  0  0  0
    0.3200   16.3700   -4.0310 C   0  0  0  0  0  0  0  0  0  0  0  0
    0.8090   14.9120   -4.2330 C   0  0  0  0  0  0  0  0  0  0  0  0
    0.7010   14.2670   -2.8320 C   0  0  1  0  0  0  0  0  0  0  0  0
   -0.8030   13.8750   -2.6850 C   0  0  0  0  0  0  0  0  0  0  0  0
    1.6440   13.0500   -2.5570 C   0  0  2  0  0  0  0  0  0  0  0  0
    1.4070   11.8250   -3.4570 C   0  0  0  0  0  0  0  0  0  0  0  0
    0.4300   10.8270   -2.9320 C   0  0  0  0  0  0  0  0  0  0  0  0
   -0.0180   10.7630   -1.6640 C   0  0  0  0  0  0  0  0  0  0  0  0
    0.5410   11.6980   -0.5830 C   0  0  1  0  0  0  0  0  0  0  0  0
    0.8700   10.8780    0.6920 C   0  0  0  0  0  0  0  0  0  0  0  0
   -0.3200   10.0610    1.1850 C   0  0  0  0  0  0  0  0  0  0  0  0
   -0.8090    9.1020    0.1030 C   0  0  2  0  0  0  0  0  0  0  0  0
    0.2010    8.1150   -0.1290 O   0  0  0  0  0  0  0  0  0  0  0  0
   -1.1630    9.8140   -1.2320 C   0  0  0  0  0  0  0  0  0  0  0  0
   -2.4490   10.6560   -1.0490 C   0  0  0  0  0  0  0  0  0  0  0  0
   -1.5060    8.7200   -2.2800 C   0  0  0  0  0  0  0  0  0  0  0  0
    1.7420   12.6370   -1.0330 C   0  0  1  0  0  0  0  0  0  0  0  0
    3.0970   11.8860   -0.8610 C   0  0  0  0  0  0  0  0  0  0  0  0
    1.8020   13.8870   -0.0770 C   0  0  0  0  0  0  0  0  0  0  0  0
    0.9400   15.1020   -0.4660 C   0  0  0  0  0  0  0  0  0  0  0  0
    1.1530   15.4770   -1.9360 C   0  0  2  0  0  0  0  0  0  0  0  0
    2.6530   15.8970   -2.1100 C   0  0  0  0  0  0  0  0  0  0  0  0
    1.7955   19.6343   -3.0187 H   0  0  0  0  0  0  0  0  0  0  0  0
    1.7877   18.0991   -3.9513 H   0  0  0  0  0  0  0  0  0  0  0  0
    0.3363   19.1574   -3.9513 H   0  0  0  0  0  0  0  0  0  0  0  0
   -0.2603   18.5818   -1.7782 H   0  0  0  0  0  0  0  0  0  0  0  0
    1.8193   16.9925   -0.6538 H   0  0  0  0  0  0  0  0  0  0  0  0
    2.5601   18.5264   -1.3185 H   0  0  0  0  0  0  0  0  0  0  0  0
    0.8873   18.1104    1.0613 H   0  0  0  0  0  0  0  0  0  0  0  0
    2.0004   19.4667    0.6038 H   0  0  0  0  0  0  0  0  0  0  0  0
    0.5120   20.1063   -0.9268 H   0  0  0  0  0  0  0  0  0  0  0  0
   -1.7671   17.9958    1.8643 H   0  0  0  0  0  0  0  0  0  0  0  0
   -2.7849   17.6366    0.4285 H   0  0  0  0  0  0  0  0  0  0  0  0
   -1.0439   17.1945    0.4285 H   0  0  0  0  0  0  0  0  0  0  0  0
   -3.2402   20.4199    0.1108 H   0  0  0  0  0  0  0  0  0  0  0  0
   -2.0777   20.7448   -1.2195 H   0  0  0  0  0  0  0  0  0  0  0  0
   -3.0418   19.2292   -1.2195 H   0  0  0  0  0  0  0  0  0  0  0  0
   -0.7404   16.5615   -2.0560 H   0  0  0  0  0  0  0  0  0  0  0  0
   -0.6797   16.4988   -4.4715 H   0  0  0  0  0  0  0  0  0  0  0  0
    0.9965   17.0853   -4.5216 H   0  0  0  0  0  0  0  0  0  0  0  0
    0.1680   14.3838   -4.9542 H   0  0  0  0  0  0  0  0  0  0  0  0
    1.8318   14.8669   -4.6354 H   0  0  0  0  0  0  0  0  0  0  0  0
   -1.0617   13.8076   -1.6180 H   0  0  0  0  0  0  0  0  0  0  0  0
   -1.4300   14.6397   -3.1667 H   0  0  0  0  0  0  0  0  0  0  0  0
   -0.9770   12.9015   -3.1667 H   0  0  0  0  0  0  0  0  0  0  0  0
    2.6294   13.4458   -2.8441 H   0  0  0  0  0  0  0  0  0  0  0  0
    1.0371   12.1839   -4.4288 H   0  0  0  0  0  0  0  0  0  0  0  0
    2.3726   11.3017   -3.5186 H   0  0  0  0  0  0  0  0  0  0  0  0
    0.0430   10.0803   -3.6410 H   0  0  0  0  0  0  0  0  0  0  0  0
   -0.2576   12.4221   -0.3639 H   0  0  0  0  0  0  0  0  0  0  0  0
    1.6994   10.1918    0.4657 H   0  0  0  0  0  0  0  0  0  0  0  0
    1.1387   11.5896    1.4866 H   0  0  0  0  0  0  0  0  0  0  0  0
   -0.0171    9.4815    2.0696 H   0  0  0  0  0  0  0  0  0  0  0  0
   -1.1384   10.7507    1.4388 H   0  0  0  0  0  0  0  0  0  0  0  0
   -1.7386    8.6399    0.4667 H   0  0  0  0  0  0  0  0  0  0  0  0
    0.3270    7.6230    0.6990 H   0  0  0  0  0  0  0  0  0  0  0  0
   -2.6510   10.7883    0.0242 H   0  0  0  0  0  0  0  0  0  0  0  0
   -2.3129   11.6404   -1.5206 H   0  0  0  0  0  0  0  0  0  0  0  0
   -3.2969   10.1376   -1.5206 H   0  0  0  0  0  0  0  0  0  0  0  0
   -1.7963    7.7941   -1.7619 H   0  0  0  0  0  0  0  0  0  0  0  0
   -2.3393    9.0643   -2.9101 H   0  0  0  0  0  0  0  0  0  0  0  0
   -0.6253    8.5269   -2.9101 H   0  0  0  0  0  0  0  0  0  0  0  0
    3.3156   11.7648    0.2102 H   0  0  0  0  0  0  0  0  0  0  0  0
    3.0304   10.8960   -1.3359 H   0  0  0  0  0  0  0  0  0  0  0  0
    3.9012   12.4672   -1.3359 H   0  0  0  0  0  0  0  0  0  0  0  0
    1.4805   13.5574    0.9220 H   0  0  0  0  0  0  0  0  0  0  0  0
    2.8415   14.2423   -0.1336 H   0  0  0  0  0  0  0  0  0  0  0  0
   -0.1204   14.8565   -0.3072 H   0  0  0  0  0  0  0  0  0  0  0  0
    1.2353   15.9566    0.1604 H   0  0  0  0  0  0  0  0  0  0  0  0
    3.1148   16.0263   -1.1200 H   0  0  0  0  0  0  0  0  0  0  0  0
    3.1906   15.1149   -2.6660 H   0  0  0  0  0  0  0  0  0  0  0  0
    2.7063   16.8446   -2.6660 H   0  0  0  0  0  0  0  0  0  0  0  0
  1  2  1  0
  2  3  1  0
  3  4  1  0
  4  5  1  0
  5  6  1  0
  6  7  1  0
  7  8  1  0
  7  9  1  0
  2 10  1  0
 10 11  1  0
 11 12  1  0
 12 13  1  0
 13 14  1  1
 13 15  1  0
 15 16  1  0
 16 17  1  0
 17 18  2  0
 18 19  1  0
 19 20  1  0
 20 21  1  0
 21 22  1  0
 22 23  1  0
 22 24  1  0
 24 25  1  0
 24 26  1  0
 19 27  1  0
 27 28  1  6
 27 29  1  0
 29 30  1  0
 30 31  1  0
 31 32  1  1
  7  5  1  0
 31 10  1  0
 31 13  1  0
 27 15  1  0
 24 18  1  0
  1 33  1  0
  1 34  1  0
  1 35  1  0
  2 36  1  1
  3 37  1  0
  3 38  1  0
  4 39  1  0
  4 40  1  0
  5 41  1  6
  8 42  1  0
  8 43  1  0
  8 44  1  0
  9 45  1  0
  9 46  1  0
  9 47  1  0
 10 48  1  1
 11 49  1  0
 11 50  1  0
 12 51  1  0
 12 52  1  0
 14 53  1  0
 14 54  1  0
 14 55  1  0
 15 56  1  6
 16 57  1  0
 16 58  1  0
 17 59  1  0
 19 60  1  1
 20 61  1  0
 20 62  1  0
 21 63  1  0
 21 64  1  0
 22 65  1  1
 23 66  1  0
 25 67  1  0
 25 68  1  0
 25 69  1  0
 26 70  1  0
 26 71  1  0
 26 72  1  0
 28 73  1  0
 28 74  1  0
 28 75  1  0
 29 76  1  0
 29 77  1  0
 30 78  1  0
 30 79  1  0
 32 80  1  0
 32 81  1  0
 32 82  1  0
M  END
>  <meeko>  (4) 
{"is_sidechain": [false], "intermolecular_energy": 2.731, "internal_energy": -0.839}

$$$$
EPH_relaxed_0001_pdb2pqr_Repair_300_r2_0001_out
     RDKit          3D

 82 86  0  0  0  0  0  0  0  0999 V2000
    3.6990   18.0640    0.8740 C   0  0  0  0  0  0  0  0  0  0  0  0
    2.6890   18.5090   -0.1880 C   0  0  2  0  0  0  0  0  0  0  0  0
    1.9340   19.7880    0.2280 C   0  0  0  0  0  0  0  0  0  0  0  0
    0.7110   19.5210    1.1100 C   0  0  0  0  0  0  0  0  0  0  0  0
   -0.5280   20.1430    0.5420 C   0  0  2  0  0  0  0  0  0  0  0  0
   -1.6400   20.1940    1.4450 O   0  0  0  0  0  0  0  0  0  0  0  0
   -1.8070   19.3700    0.2800 C   0  0  0  0  0  0  0  0  0  0  0  0
   -1.9100   17.9080    0.5790 C   0  0  0  0  0  0  0  0  0  0  0  0
   -2.7850   19.9200   -0.7120 C   0  0  0  0  0  0  0  0  0  0  0  0
    1.6970   17.3860   -0.4640 C   0  0  1  0  0  0  0  0  0  0  0  0
    0.5510   17.8210   -1.4160 C   0  0  0  0  0  0  0  0  0  0  0  0
    0.1970   16.5870   -2.2840 C   0  0  0  0  0  0  0  0  0  0  0  0
    0.9080   15.4030   -1.5880 C   0  0  1  0  0  0  0  0  0  0  0  0
   -0.0360   15.0030   -0.4120 C   0  0  0  0  0  0  0  0  0  0  0  0
    1.2550   14.1760   -2.4940 C   0  0  2  0  0  0  0  0  0  0  0  0
    0.0420   13.4590   -3.1130 C   0  0  0  0  0  0  0  0  0  0  0  0
   -0.5230   12.3430   -2.2990 C   0  0  0  0  0  0  0  0  0  0  0  0
    0.0890   11.7450   -1.2590 C   0  0  0  0  0  0  0  0  0  0  0  0
    1.5250   12.1190   -0.8690 C   0  0  1  0  0  0  0  0  0  0  0  0
    2.3510   10.8280   -0.6340 C   0  0  0  0  0  0  0  0  0  0  0  0
    1.6970    9.8910    0.3770 C   0  0  0  0  0  0  0  0  0  0  0  0
    0.2940    9.4950   -0.0750 C   0  0  2  0  0  0  0  0  0  0  0  0
    0.3980    8.6930   -1.2560 O   0  0  0  0  0  0  0  0  0  0  0  0
   -0.6280   10.7150   -0.3520 C   0  0  0  0  0  0  0  0  0  0  0  0
   -0.9850   11.4120    0.9850 C   0  0  0  0  0  0  0  0  0  0  0  0
   -1.9650   10.1820   -0.9340 C   0  0  0  0  0  0  0  0  0  0  0  0
    2.2590   13.1470   -1.8340 C   0  0  1  0  0  0  0  0  0  0  0  0
    2.9450   12.3800   -3.0060 C   0  0  0  0  0  0  0  0  0  0  0  0
    3.4130   13.8640   -1.0380 C   0  0  0  0  0  0  0  0  0  0  0  0
    3.0330   15.1380   -0.2600 C   0  0  0  0  0  0  0  0  0  0  0  0
    2.2430   16.1060   -1.1460 C   0  0  2  0  0  0  0  0  0  0  0  0
    3.1760   16.5440   -2.3270 C   0  0  0  0  0  0  0  0  0  0  0  0
    3.2827   18.2474    1.8755 H   0  0  0  0  0  0  0  0  0  0  0  0
    3.9077   16.9906    0.7546 H   0  0  0  0  0  0  0  0  0  0  0  0
    4.6319   18.6344    0.7546 H   0  0  0  0  0  0  0  0  0  0  0  0
    3.2525   18.7413   -1.1037 H   0  0  0  0  0  0  0  0  0  0  0  0
    2.6280   20.4359    0.7834 H   0  0  0  0  0  0  0  0  0  0  0  0
    1.5676   20.2600   -0.6956 H   0  0  0  0  0  0  0  0  0  0  0  0
    0.5598   18.4344    1.1904 H   0  0  0  0  0  0  0  0  0  0  0  0
    0.8967   19.9672    2.0981 H   0  0  0  0  0  0  0  0  0  0  0  0
    0.0706   20.8152   -0.0904 H   0  0  0  0  0  0  0  0  0  0  0  0
   -1.9207   17.7564    1.6685 H   0  0  0  0  0  0  0  0  0  0  0  0
   -2.8385   17.5093    0.1442 H   0  0  0  0  0  0  0  0  0  0  0  0
   -1.0466   17.3831    0.1442 H   0  0  0  0  0  0  0  0  0  0  0  0
   -3.6232   20.3914   -0.1779 H   0  0  0  0  0  0  0  0  0  0  0  0
   -2.2848   20.6691   -1.3434 H   0  0  0  0  0  0  0  0  0  0  0  0
   -3.1653   19.1035   -1.3434 H   0  0  0  0  0  0  0  0  0  0  0  0
    1.3841   17.1600    0.5660 H   0  0  0  0  0  0  0  0  0  0  0  0
   -0.3261   18.1378   -0.8327 H   0  0  0  0  0  0  0  0  0  0  0  0
    0.8603   18.6695   -2.0440 H   0  0  0  0  0  0  0  0  0  0  0  0
   -0.8911   16.4274   -2.3066 H   0  0  0  0  0  0  0  0  0  0  0  0
    0.5152   16.7078   -3.3300 H   0  0  0  0  0  0  0  0  0  0  0  0
    0.4619   15.2140    0.5459 H   0  0  0  0  0  0  0  0  0  0  0  0
   -0.9682   15.5835   -0.4764 H   0  0  0  0  0  0  0  0  0  0  0  0
   -0.2673   13.9295   -0.4764 H   0  0  0  0  0  0  0  0  0  0  0  0
    1.7862   14.6458   -3.3349 H   0  0  0  0  0  0  0  0  0  0  0  0
   -0.7523   14.2046   -3.2651 H   0  0  0  0  0  0  0  0  0  0  0  0
    0.4025   13.0023   -4.0465 H   0  0  0  0  0  0  0  0  0  0  0  0
   -1.5242   11.9779   -2.5716 H   0  0  0  0  0  0  0  0  0  0  0  0
    1.4476   12.6873    0.0697 H   0  0  0  0  0  0  0  0  0  0  0  0
    2.4548   10.2966   -1.5915 H   0  0  0  0  0  0  0  0  0  0  0  0
    3.3290   11.1265   -0.2286 H   0  0  0  0  0  0  0  0  0  0  0  0
    2.3120    8.9846    0.4781 H   0  0  0  0  0  0  0  0  0  0  0  0
    1.6208   10.4135    1.3420 H   0  0  0  0  0  0  0  0  0  0  0  0
   -0.1699    8.9315    0.7480 H   0  0  0  0  0  0  0  0  0  0  0  0
   -0.3590    8.9090   -1.8260 H   0  0  0  0  0  0  0  0  0  0  0  0
   -0.6615   10.7804    1.8255 H   0  0  0  0  0  0  0  0  0  0  0  0
   -0.4741   12.3846    1.0393 H   0  0  0  0  0  0  0  0  0  0  0  0
   -2.0728   11.5657    1.0393 H   0  0  0  0  0  0  0  0  0  0  0  0
   -2.6419    9.9122   -0.1100 H   0  0  0  0  0  0  0  0  0  0  0  0
   -2.4328   10.9624   -1.5522 H   0  0  0  0  0  0  0  0  0  0  0  0
   -1.7676    9.2938   -1.5522 H   0  0  0  0  0  0  0  0  0  0  0  0
    3.6258   11.6188   -2.5973 H   0  0  0  0  0  0  0  0  0  0  0  0
    2.1771   11.8914   -3.6237 H   0  0  0  0  0  0  0  0  0  0  0  0
    3.5160   13.0889   -3.6237 H   0  0  0  0  0  0  0  0  0  0  0  0
    3.8175   13.1407   -0.3147 H   0  0  0  0  0  0  0  0  0  0  0  0
    4.1273   14.1977   -1.8051 H   0  0  0  0  0  0  0  0  0  0  0  0
    2.4166   14.8595    0.6075 H   0  0  0  0  0  0  0  0  0  0  0  0
    3.9566   15.6372    0.0684 H   0  0  0  0  0  0  0  0  0  0  0  0
    4.1015   16.9785   -1.9213 H   0  0  0  0  0  0  0  0  0  0  0  0
    3.4223   15.6674   -2.9442 H   0  0  0  0  0  0  0  0  0  0  0  0
    2.6589   17.2934   -2.9442 H   0  0  0  0  0  0  0  0  0  0  0  0
  1  2  1  0
  2  3  1  0
  3  4  1  0
  4  5  1  0
  5  6  1  0
  6  7  1  0
  7  8  1  0
  7  9  1  0
  2 10  1  0
 10 11  1  0
 11 12  1  0
 12 13  1  0
 13 14  1  1
 13 15  1  0
 15 16  1  0
 16 17  1  0
 17 18  2  0
 18 19  1  0
 19 20  1  0
 20 21  1  0
 21 22  1  0
 22 23  1  0
 22 24  1  0
 24 25  1  0
 24 26  1  0
 19 27  1  0
 27 28  1  6
 27 29  1  0
 29 30  1  0
 30 31  1  0
 31 32  1  6
  7  5  1  0
 31 10  1  0
 31 13  1  0
 27 15  1  0
 24 18  1  0
  1 33  1  0
  1 34  1  0
  1 35  1  0
  2 36  1  6
  3 37  1  0
  3 38  1  0
  4 39  1  0
  4 40  1  0
  5 41  1  6
  8 42  1  0
  8 43  1  0
  8 44  1  0
  9 45  1  0
  9 46  1  0
  9 47  1  0
 10 48  1  1
 11 49  1  0
 11 50  1  0
 12 51  1  0
 12 52  1  0
 14 53  1  0
 14 54  1  0
 14 55  1  0
 15 56  1  6
 16 57  1  0
 16 58  1  0
 17 59  1  0
 19 60  1  1
 20 61  1  0
 20 62  1  0
 21 63  1  0
 21 64  1  0
 22 65  1  1
 23 66  1  0
 25 67  1  0
 25 68  1  0
 25 69  1  0
 26 70  1  0
 26 71  1  0
 26 72  1  0
 28 73  1  0
 28 74  1  0
 28 75  1  0
 29 76  1  0
 29 77  1  0
 30 78  1  0
 30 79  1  0
 32 80  1  0
 32 81  1  0
 32 82  1  0
M  END
>  <meeko>  (5) 
{"is_sidechain": [false], "intermolecular_energy": 2.731, "internal_energy": -0.839}

$$$$
EPH_relaxed_0001_pdb2pqr_Repair_300_r2_0001_out
     RDKit          3D

 82 86  0  0  0  0  0  0  0  0999 V2000
   -5.2640    5.7500   -1.6630 C   0  0  0  0  0  0  0  0  0  0  0  0
   -5.4950    7.2520   -1.8510 C   0  0  2  0  0  0  0  0  0  0  0  0
   -5.2030    8.0510   -0.5650 C   0  0  0  0  0  0  0  0  0  0  0  0
   -4.2190    9.2060   -0.7690 C   0  0  0  0  0  0  0  0  0  0  0  0
   -2.8250    8.8230   -0.3740 C   0  0  2  0  0  0  0  0  0  0  0  0
   -2.2820    9.5810    0.7150 O   0  0  0  0  0  0  0  0  0  0  0  0
   -1.6250    9.7340   -0.5530 C   0  0  0  0  0  0  0  0  0  0  0  0
   -1.7640   11.1000   -1.1500 C   0  0  0  0  0  0  0  0  0  0  0  0
   -0.2610    9.1190   -0.6040 C   0  0  0  0  0  0  0  0  0  0  0  0
   -6.9280    7.5040   -2.3060 C   0  0  1  0  0  0  0  0  0  0  0  0
   -7.2550    6.8170   -3.6590 C   0  0  0  0  0  0  0  0  0  0  0  0
   -8.7370    6.3690   -3.5870 C   0  0  0  0  0  0  0  0  0  0  0  0
   -9.3050    7.0970   -2.3460 C   0  0  1  0  0  0  0  0  0  0  0  0
   -9.6340    8.5390   -2.8430 C   0  0  0  0  0  0  0  0  0  0  0  0
  -10.5380    6.4280   -1.6570 C   0  0  2  0  0  0  0  0  0  0  0  0
  -11.7990    6.3260   -2.5330 C   0  0  0  0  0  0  0  0  0  0  0  0
  -12.7330    7.4870   -2.4430 C   0  0  0  0  0  0  0  0  0  0  0  0
  -12.7160    8.4330   -1.4860 C   0  0  0  0  0  0  0  0  0  0  0  0
  -11.7460    8.3370   -0.3010 C   0  0  1  0  0  0  0  0  0  0  0  0
  -12.5100    8.6260    1.0180 C   0  0  0  0  0  0  0  0  0  0  0  0
  -13.2570    9.9560    0.9820 C   0  0  0  0  0  0  0  0  0  0  0  0
  -14.2530    9.9900   -0.1750 C   0  0  2  0  0  0  0  0  0  0  0  0
  -15.2850    9.0320    0.0780 O   0  0  0  0  0  0  0  0  0  0  0  0
  -13.5990    9.7030   -1.5550 C   0  0  0  0  0  0  0  0  0  0  0  0
  -12.7030   10.8980   -1.9650 C   0  0  0  0  0  0  0  0  0  0  0  0
  -14.7330    9.6280   -2.6140 C   0  0  0  0  0  0  0  0  0  0  0  0
  -10.8750    7.0100   -0.2240 C   0  0  1  0  0  0  0  0  0  0  0  0
  -11.6640    5.8990    0.5340 C   0  0  0  0  0  0  0  0  0  0  0  0
   -9.5800    7.2930    0.6260 C   0  0  0  0  0  0  0  0  0  0  0  0
   -8.3570    7.8410   -0.1330 C   0  0  0  0  0  0  0  0  0  0  0  0
   -8.0660    7.0030   -1.3820 C   0  0  2  0  0  0  0  0  0  0  0  0
   -7.7100    5.5510   -0.9120 C   0  0  0  0  0  0  0  0  0  0  0  0
   -5.2280    5.5162   -0.5887 H   0  0  0  0  0  0  0  0  0  0  0  0
   -6.0867    5.1909   -2.1326 H   0  0  0  0  0  0  0  0  0  0  0  0
   -4.3113    5.4639   -2.1326 H   0  0  0  0  0  0  0  0  0  0  0  0
   -4.7923    7.6004   -2.6223 H   0  0  0  0  0  0  0  0  0  0  0  0
   -6.1509    8.4643   -0.1900 H   0  0  0  0  0  0  0  0  0  0  0  0
   -4.7381    7.3543    0.1481 H   0  0  0  0  0  0  0  0  0  0  0  0
   -4.2223    9.4938   -1.8307 H   0  0  0  0  0  0  0  0  0  0  0  0
   -4.5377   10.0444   -0.1322 H   0  0  0  0  0  0  0  0  0  0  0  0
   -3.0060    7.7763   -0.6598 H   0  0  0  0  0  0  0  0  0  0  0  0
   -1.8399   11.8459   -0.3451 H   0  0  0  0  0  0  0  0  0  0  0  0
   -0.8836   11.3198   -1.7717 H   0  0  0  0  0  0  0  0  0  0  0  0
   -2.6706   11.1379   -1.7717 H   0  0  0  0  0  0  0  0  0  0  0  0
    0.1053    8.9539    0.4200 H   0  0  0  0  0  0  0  0  0  0  0  0
   -0.3122    8.1569   -1.1347 H   0  0  0  0  0  0  0  0  0  0  0  0
    0.4261    9.7944   -1.1347 H   0  0  0  0  0  0  0  0  0  0  0  0
   -6.9218    8.6036   -2.3335 H   0  0  0  0  0  0  0  0  0  0  0  0
   -7.1136    7.5263   -4.4878 H   0  0  0  0  0  0  0  0  0  0  0  0
   -6.5911    5.9580   -3.8361 H   0  0  0  0  0  0  0  0  0  0  0  0
   -9.2784    6.6707   -4.4958 H   0  0  0  0  0  0  0  0  0  0  0  0
   -8.8393    5.2763   -3.5127 H   0  0  0  0  0  0  0  0  0  0  0  0
   -9.7848    9.1999   -1.9767 H   0  0  0  0  0  0  0  0  0  0  0  0
   -8.7989    8.9166   -3.4513 H   0  0  0  0  0  0  0  0  0  0  0  0
  -10.5502    8.5170   -3.4513 H   0  0  0  0  0  0  0  0  0  0  0  0
  -10.1930    5.3941   -1.5084 H   0  0  0  0  0  0  0  0  0  0  0  0
  -11.4782    6.2282   -3.5806 H   0  0  0  0  0  0  0  0  0  0  0  0
  -12.3588    5.4553   -2.1608 H   0  0  0  0  0  0  0  0  0  0  0  0
  -13.5006    7.5769   -3.2257 H   0  0  0  0  0  0  0  0  0  0  0  0
  -10.9836    9.1121   -0.4681 H   0  0  0  0  0  0  0  0  0  0  0  0
  -13.2366    7.8180    1.1890 H   0  0  0  0  0  0  0  0  0  0  0  0
  -11.7682    8.6815    1.8283 H   0  0  0  0  0  0  0  0  0  0  0  0
  -13.8003   10.0897    1.9291 H   0  0  0  0  0  0  0  0  0  0  0  0
  -12.5263   10.7660    0.8408 H   0  0  0  0  0  0  0  0  0  0  0  0
  -14.6622   11.0096   -0.2290 H   0  0  0  0  0  0  0  0  0  0  0  0
  -15.0650    8.5730    0.9050 H   0  0  0  0  0  0  0  0  0  0  0  0
  -12.3262   11.4005   -1.0620 H   0  0  0  0  0  0  0  0  0  0  0  0
  -11.8546   10.5323   -2.5621 H   0  0  0  0  0  0  0  0  0  0  0  0
  -13.2918   11.6099   -2.5621 H   0  0  0  0  0  0  0  0  0  0  0  0
  -15.7061    9.5636   -2.1052 H   0  0  0  0  0  0  0  0  0  0  0  0
  -14.7072   10.5298   -3.2433 H   0  0  0  0  0  0  0  0  0  0  0  0
  -14.5887    8.7374   -3.2433 H   0  0  0  0  0  0  0  0  0  0  0  0
  -11.5576    6.0488    1.6185 H   0  0  0  0  0  0  0  0  0  0  0  0
  -12.7278    5.9523    0.2591 H   0  0  0  0  0  0  0  0  0  0  0  0
  -11.2632    4.9122    0.2591 H   0  0  0  0  0  0  0  0  0  0  0  0
   -9.8452    8.0254    1.4027 H   0  0  0  0  0  0  0  0  0  0  0  0
   -9.2655    6.3102    1.0072 H   0  0  0  0  0  0  0  0  0  0  0  0
   -8.5567    8.8797   -0.4351 H   0  0  0  0  0  0  0  0  0  0  0  0
   -7.4820    7.7949    0.5320 H   0  0  0  0  0  0  0  0  0  0  0  0
   -7.7008    5.5134    0.1873 H   0  0  0  0  0  0  0  0  0  0  0  0
   -8.4620    4.8464   -1.2967 H   0  0  0  0  0  0  0  0  0  0  0  0
   -6.7174    5.2741   -1.2967 H   0  0  0  0  0  0  0  0  0  0  0  0
  1  2  1  0
  2  3  1  0
  3  4  1  0
  4  5  1  0
  5  6  1  0
  6  7  1  0
  7  8  1  0
  7  9  1  0
  2 10  1  0
 10 11  1  0
 11 12  1  0
 12 13  1  0
 13 14  1  6
 13 15  1  0
 15 16  1  0
 16 17  1  0
 17 18  2  0
 18 19  1  0
 19 20  1  0
 20 21  1  0
 21 22  1  0
 22 23  1  0
 22 24  1  0
 24 25  1  0
 24 26  1  0
 19 27  1  0
 27 28  1  1
 27 29  1  0
 29 30  1  0
 30 31  1  0
 31 32  1  1
  7  5  1  0
 31 10  1  0
 31 13  1  0
 27 15  1  0
 24 18  1  0
  1 33  1  0
  1 34  1  0
  1 35  1  0
  2 36  1  6
  3 37  1  0
  3 38  1  0
  4 39  1  0
  4 40  1  0
  5 41  1  1
  8 42  1  0
  8 43  1  0
  8 44  1  0
  9 45  1  0
  9 46  1  0
  9 47  1  0
 10 48  1  6
 11 49  1  0
 11 50  1  0
 12 51  1  0
 12 52  1  0
 14 53  1  0
 14 54  1  0
 14 55  1  0
 15 56  1  1
 16 57  1  0
 16 58  1  0
 17 59  1  0
 19 60  1  6
 20 61  1  0
 20 62  1  0
 21 63  1  0
 21 64  1  0
 22 65  1  6
 23 66  1  0
 25 67  1  0
 25 68  1  0
 25 69  1  0
 26 70  1  0
 26 71  1  0
 26 72  1  0
 28 73  1  0
 28 74  1  0
 28 75  1  0
 29 76  1  0
 29 77  1  0
 30 78  1  0
 30 79  1  0
 32 80  1  0
 32 81  1  0
 32 82  1  0
M  END
>  <meeko>  (6) 
{"is_sidechain": [false], "intermolecular_energy": 2.731, "internal_energy": -0.839}

$$$$
EPH_relaxed_0001_pdb2pqr_Repair_300_r2_0001_out
     RDKit          3D

 82 86  0  0  0  0  0  0  0  0999 V2000
    0.4590    8.8780   -2.2930 C   0  0  0  0  0  0  0  0  0  0  0  0
    1.2140    9.9640   -3.0650 C   0  0  2  0  0  0  0  0  0  0  0  0
    2.7160    9.9840   -2.7190 C   0  0  0  0  0  0  0  0  0  0  0  0
    3.5940   10.5780   -3.8240 C   0  0  0  0  0  0  0  0  0  0  0  0
    4.9840   10.8590   -3.3370 C   0  0  2  0  0  0  0  0  0  0  0  0
    5.5590   12.0730   -3.8370 O   0  0  0  0  0  0  0  0  0  0  0  0
    6.2030   10.8530   -4.2400 C   0  0  0  0  0  0  0  0  0  0  0  0
    6.0900   10.5600   -5.7030 C   0  0  0  0  0  0  0  0  0  0  0  0
    7.5510   10.6500   -3.6210 C   0  0  0  0  0  0  0  0  0  0  0  0
    0.5960   11.3280   -2.7800 C   0  0  1  0  0  0  0  0  0  0  0  0
   -0.8430   11.2250   -2.2100 C   0  0  0  0  0  0  0  0  0  0  0  0
   -1.0090   12.3890   -1.2000 C   0  0  0  0  0  0  0  0  0  0  0  0
    0.2050   13.3110   -1.4650 C   0  0  1  0  0  0  0  0  0  0  0  0
   -0.2030   14.1630   -2.7080 C   0  0  0  0  0  0  0  0  0  0  0  0
    0.6620   14.2120   -0.2720 C   0  0  2  0  0  0  0  0  0  0  0  0
   -0.3800   15.2380    0.2070 C   0  0  0  0  0  0  0  0  0  0  0  0
   -0.3140   16.5720   -0.4590 C   0  0  0  0  0  0  0  0  0  0  0  0
    0.7170   17.0290   -1.1950 C   0  0  0  0  0  0  0  0  0  0  0  0
    2.0070   16.2120   -1.3360 C   0  0  1  0  0  0  0  0  0  0  0  0
    3.2330   17.1360   -1.1140 C   0  0  0  0  0  0  0  0  0  0  0  0
    3.2150   18.3600   -2.0250 C   0  0  0  0  0  0  0  0  0  0  0  0
    1.9440   19.1790   -1.8130 C   0  0  2  0  0  0  0  0  0  0  0  0
    1.9710   19.7400   -0.4980 O   0  0  0  0  0  0  0  0  0  0  0  0
    0.6430   18.3490   -2.0010 C   0  0  0  0  0  0  0  0  0  0  0  0
    0.4630   17.9950   -3.4980 C   0  0  0  0  0  0  0  0  0  0  0  0
   -0.5600   19.2550   -1.6220 C   0  0  0  0  0  0  0  0  0  0  0  0
    2.0820   14.8800   -0.4720 C   0  0  1  0  0  0  0  0  0  0  0  0
    2.6280   15.2010    0.9540 C   0  0  0  0  0  0  0  0  0  0  0  0
    3.1190   13.8960   -1.1320 C   0  0  0  0  0  0  0  0  0  0  0  0
    2.5810   12.9480   -2.2210 C   0  0  0  0  0  0  0  0  0  0  0  0
    1.3130   12.2320   -1.7460 C   0  0  2  0  0  0  0  0  0  0  0  0
    1.6970   11.3490   -0.5100 C   0  0  0  0  0  0  0  0  0  0  0  0
    0.5767    9.0472   -1.2125 H   0  0  0  0  0  0  0  0  0  0  0  0
   -0.6084    8.9160   -2.5560 H   0  0  0  0  0  0  0  0  0  0  0  0
    0.8665    7.8907   -2.5560 H   0  0  0  0  0  0  0  0  0  0  0  0
    1.1251    9.7315   -4.1365 H   0  0  0  0  0  0  0  0  0  0  0  0
    2.8542   10.5822   -1.8063 H   0  0  0  0  0  0  0  0  0  0  0  0
    3.0295    8.9380   -2.5865 H   0  0  0  0  0  0  0  0  0  0  0  0
    3.6465    9.8647   -4.6597 H   0  0  0  0  0  0  0  0  0  0  0  0
    3.1443   11.5291   -4.1452 H   0  0  0  0  0  0  0  0  0  0  0  0
    4.7741   10.3633   -2.3777 H   0  0  0  0  0  0  0  0  0  0  0  0
    5.6974    9.5421   -5.8438 H   0  0  0  0  0  0  0  0  0  0  0  0
    5.4068   11.2844   -6.1703 H   0  0  0  0  0  0  0  0  0  0  0  0
    7.0827   10.6381   -6.1703 H   0  0  0  0  0  0  0  0  0  0  0  0
    7.4571   10.6641   -2.5251 H   0  0  0  0  0  0  0  0  0  0  0  0
    7.9594    9.6802   -3.9416 H   0  0  0  0  0  0  0  0  0  0  0  0
    8.2269   11.4565   -3.9416 H   0  0  0  0  0  0  0  0  0  0  0  0
    0.6663   11.7747   -3.7827 H   0  0  0  0  0  0  0  0  0  0  0  0
   -1.5795   11.3199   -3.0216 H   0  0  0  0  0  0  0  0  0  0  0  0
   -1.0055   10.2527   -1.7219 H   0  0  0  0  0  0  0  0  0  0  0  0
   -1.9517   12.9270   -1.3788 H   0  0  0  0  0  0  0  0  0  0  0  0
   -1.0457   12.0361   -0.1588 H   0  0  0  0  0  0  0  0  0  0  0  0
   -0.6554   15.1078   -2.3724 H   0  0  0  0  0  0  0  0  0  0  0  0
    0.6895   14.3787   -3.3137 H   0  0  0  0  0  0  0  0  0  0  0  0
   -0.9306   13.6028   -3.3137 H   0  0  0  0  0  0  0  0  0  0  0  0
    0.7639   13.4854    0.5476 H   0  0  0  0  0  0  0  0  0  0  0  0
   -1.3799   14.8168    0.0260 H   0  0  0  0  0  0  0  0  0  0  0  0
   -0.1636   15.4177    1.2704 H   0  0  0  0  0  0  0  0  0  0  0  0
   -1.1809   17.2383   -0.3385 H   0  0  0  0  0  0  0  0  0  0  0  0
    2.0119   15.8276   -2.3666 H   0  0  0  0  0  0  0  0  0  0  0  0
    3.2342   17.4751   -0.0676 H   0  0  0  0  0  0  0  0  0  0  0  0
    4.1365   16.5554   -1.3522 H   0  0  0  0  0  0  0  0  0  0  0  0
    4.0897   18.9883   -1.8012 H   0  0  0  0  0  0  0  0  0  0  0  0
    3.2433   18.0199   -3.0707 H   0  0  0  0  0  0  0  0  0  0  0  0
    1.9272   19.9672   -2.5801 H   0  0  0  0  0  0  0  0  0  0  0  0
    2.6130   20.4700   -0.5020 H   0  0  0  0  0  0  0  0  0  0  0  0
   -0.0340   17.0177   -3.5865 H   0  0  0  0  0  0  0  0  0  0  0  0
   -0.1530   18.7650   -3.9854 H   0  0  0  0  0  0  0  0  0  0  0  0
    1.4481   17.9509   -3.9854 H   0  0  0  0  0  0  0  0  0  0  0  0
   -0.6419   19.3166   -0.5268 H   0  0  0  0  0  0  0  0  0  0  0  0
   -0.4048   20.2625   -2.0354 H   0  0  0  0  0  0  0  0  0  0  0  0
   -1.4854   18.8276   -2.0354 H   0  0  0  0  0  0  0  0  0  0  0  0
    1.9392   14.7961    1.7101 H   0  0  0  0  0  0  0  0  0  0  0  0
    3.6200   14.7424    1.0786 H   0  0  0  0  0  0  0  0  0  0  0  0
    2.7096   16.2909    1.0786 H   0  0  0  0  0  0  0  0  0  0  0  0
    3.9146   14.5058   -1.5850 H   0  0  0  0  0  0  0  0  0  0  0  0
    3.4510   13.2377   -0.3157 H   0  0  0  0  0  0  0  0  0  0  0  0
    2.3479   13.5320   -3.1236 H   0  0  0  0  0  0  0  0  0  0  0  0
    3.3498   12.1923   -2.4396 H   0  0  0  0  0  0  0  0  0  0  0  0
    1.4606   11.8926    0.4166 H   0  0  0  0  0  0  0  0  0  0  0  0
    1.1264   10.4090   -0.5394 H   0  0  0  0  0  0  0  0  0  0  0  0
    2.7736   11.1254   -0.5394 H   0  0  0  0  0  0  0  0  0  0  0  0
  1  2  1  0
  2  3  1  0
  3  4  1  0
  4  5  1  0
  5  6  1  0
  6  7  1  0
  7  8  1  0
  7  9  1  0
  2 10  1  0
 10 11  1  0
 11 12  1  0
 12 13  1  0
 13 14  1  6
 13 15  1  0
 15 16  1  0
 16 17  1  0
 17 18  2  0
 18 19  1  0
 19 20  1  0
 20 21  1  0
 21 22  1  0
 22 23  1  0
 22 24  1  0
 24 25  1  0
 24 26  1  0
 19 27  1  0
 27 28  1  1
 27 29  1  0
 29 30  1  0
 30 31  1  0
 31 32  1  1
  7  5  1  0
 31 10  1  0
 31 13  1  0
 27 15  1  0
 24 18  1  0
  1 33  1  0
  1 34  1  0
  1 35  1  0
  2 36  1  6
  3 37  1  0
  3 38  1  0
  4 39  1  0
  4 40  1  0
  5 41  1  1
  8 42  1  0
  8 43  1  0
  8 44  1  0
  9 45  1  0
  9 46  1  0
  9 47  1  0
 10 48  1  6
 11 49  1  0
 11 50  1  0
 12 51  1  0
 12 52  1  0
 14 53  1  0
 14 54  1  0
 14 55  1  0
 15 56  1  1
 16 57  1  0
 16 58  1  0
 17 59  1  0
 19 60  1  6
 20 61  1  0
 20 62  1  0
 21 63  1  0
 21 64  1  0
 22 65  1  6
 23 66  1  0
 25 67  1  0
 25 68  1  0
 25 69  1  0
 26 70  1  0
 26 71  1  0
 26 72  1  0
 28 73  1  0
 28 74  1  0
 28 75  1  0
 29 76  1  0
 29 77  1  0
 30 78  1  0
 30 79  1  0
 32 80  1  0
 32 81  1  0
 32 82  1  0
M  END
>  <meeko>  (7) 
{"is_sidechain": [false], "intermolecular_energy": 2.731, "internal_energy": -0.839}

$$$$
EPH_relaxed_0001_pdb2pqr_Repair_300_r2_0001_out
     RDKit          3D

 82 86  0  0  0  0  0  0  0  0999 V2000
    0.4350   18.0090    0.4610 C   0  0  0  0  0  0  0  0  0  0  0  0
    1.4740   17.0070   -0.0500 C   0  0  2  0  0  0  0  0  0  0  0  0
    2.4870   17.6590   -1.0120 C   0  0  0  0  0  0  0  0  0  0  0  0
    2.0530   19.0360   -1.5210 C   0  0  0  0  0  0  0  0  0  0  0  0
    1.2870   18.9350   -2.8050 C   0  0  2  0  0  0  0  0  0  0  0  0
    0.8810   20.1930   -3.3610 O   0  0  0  0  0  0  0  0  0  0  0  0
   -0.1760   19.3160   -2.9390 C   0  0  0  0  0  0  0  0  0  0  0  0
   -0.9600   19.8250   -1.7700 C   0  0  0  0  0  0  0  0  0  0  0  0
   -0.9660   18.7360   -4.0710 C   0  0  0  0  0  0  0  0  0  0  0  0
    0.7760   15.8410   -0.7410 C   0  0  1  0  0  0  0  0  0  0  0  0
    0.3330   16.1830   -2.1880 C   0  0  0  0  0  0  0  0  0  0  0  0
    0.4910   14.8870   -3.0230 C   0  0  0  0  0  0  0  0  0  0  0  0
    0.6980   13.7700   -1.9730 C   0  0  1  0  0  0  0  0  0  0  0  0
   -0.7380   13.4210   -1.4700 C   0  0  0  0  0  0  0  0  0  0  0  0
    1.4640   12.4970   -2.4600 C   0  0  2  0  0  0  0  0  0  0  0  0
    0.7710   11.7090   -3.5860 C   0  0  0  0  0  0  0  0  0  0  0  0
   -0.1590   10.6330   -3.1320 C   0  0  0  0  0  0  0  0  0  0  0  0
   -0.2140   10.1200   -1.8890 C   0  0  0  0  0  0  0  0  0  0  0  0
    0.7860   10.5570   -0.8110 C   0  0  1  0  0  0  0  0  0  0  0  0
    1.3380    9.3060   -0.0780 C   0  0  0  0  0  0  0  0  0  0  0  0
    0.2290    8.4190    0.4800 C   0  0  0  0  0  0  0  0  0  0  0  0
   -0.7110    7.9570   -0.6300 C   0  0  2  0  0  0  0  0  0  0  0  0
    0.0060    7.0840   -1.5080 O   0  0  0  0  0  0  0  0  0  0  0  0
   -1.3210    9.1320   -1.4450 C   0  0  0  0  0  0  0  0  0  0  0  0
   -2.3370    9.9030   -0.5660 C   0  0  0  0  0  0  0  0  0  0  0  0
   -2.1360    8.5260   -2.6200 C   0  0  0  0  0  0  0  0  0  0  0  0
    1.9390   11.5400   -1.2930 C   0  0  1  0  0  0  0  0  0  0  0  0
    3.1400   10.7180   -1.8520 C   0  0  0  0  0  0  0  0  0  0  0  0
    2.4860   12.3370   -0.0510 C   0  0  0  0  0  0  0  0  0  0  0  0
    1.7610   13.6490    0.3080 C   0  0  0  0  0  0  0  0  0  0  0  0
    1.5890   14.5360   -0.9290 C   0  0  2  0  0  0  0  0  0  0  0  0
    3.0180   14.9210   -1.4440 C   0  0  0  0  0  0  0  0  0  0  0  0
    0.4353   18.0087    1.5610 H   0  0  0  0  0  0  0  0  0  0  0  0
    0.6851   19.0156    0.0945 H   0  0  0  0  0  0  0  0  0  0  0  0
   -0.5618   17.7226    0.0945 H   0  0  0  0  0  0  0  0  0  0  0  0
    2.0360   16.6406    0.8218 H   0  0  0  0  0  0  0  0  0  0  0  0
    3.4456   17.7701   -0.4840 H   0  0  0  0  0  0  0  0  0  0  0  0
    2.5657   17.0015   -1.8903 H   0  0  0  0  0  0  0  0  0  0  0  0
    1.4152   19.5122   -0.7617 H   0  0  0  0  0  0  0  0  0  0  0  0
    2.9573   19.6341   -1.7068 H   0  0  0  0  0  0  0  0  0  0  0  0
    1.8435   18.0309   -3.0930 H   0  0  0  0  0  0  0  0  0  0  0  0
   -0.4727   19.5086   -0.8360 H   0  0  0  0  0  0  0  0  0  0  0  0
   -1.0027   20.9235   -1.8075 H   0  0  0  0  0  0  0  0  0  0  0  0
   -1.9808   19.4169   -1.8075 H   0  0  0  0  0  0  0  0  0  0  0  0
   -1.7915   18.1300   -3.6694 H   0  0  0  0  0  0  0  0  0  0  0  0
   -1.3750   19.5500   -4.6876 H   0  0  0  0  0  0  0  0  0  0  0  0
   -0.3119   18.1020   -4.6876 H   0  0  0  0  0  0  0  0  0  0  0  0
   -0.0474   15.6724   -0.0314 H   0  0  0  0  0  0  0  0  0  0  0  0
   -0.7165   16.5122   -2.1948 H   0  0  0  0  0  0  0  0  0  0  0  0
    0.9427   16.9980   -2.6051 H   0  0  0  0  0  0  0  0  0  0  0  0
   -0.4134   14.6966   -3.6196 H   0  0  0  0  0  0  0  0  0  0  0  0
    1.3260   14.9492   -3.7364 H   0  0  0  0  0  0  0  0  0  0  0  0
   -0.7506   13.4179   -0.3701 H   0  0  0  0  0  0  0  0  0  0  0  0
   -1.4498   14.1723   -1.8427 H   0  0  0  0  0  0  0  0  0  0  0  0
   -1.0255   12.4268   -1.8427 H   0  0  0  0  0  0  0  0  0  0  0  0
    2.3713   12.9260   -2.9102 H   0  0  0  0  0  0  0  0  0  0  0  0
    0.1951   12.4215   -4.1949 H   0  0  0  0  0  0  0  0  0  0  0  0
    1.5739   11.2028   -4.1420 H   0  0  0  0  0  0  0  0  0  0  0  0
   -0.8585   10.2249   -3.8765 H   0  0  0  0  0  0  0  0  0  0  0  0
    0.2188   11.1823   -0.1058 H   0  0  0  0  0  0  0  0  0  0  0  0
    1.9373    8.7170   -0.7879 H   0  0  0  0  0  0  0  0  0  0  0  0
    1.9446    9.6561    0.7702 H   0  0  0  0  0  0  0  0  0  0  0  0
    0.6800    7.5378    0.9597 H   0  0  0  0  0  0  0  0  0  0  0  0
   -0.3510    9.0008    1.2115 H   0  0  0  0  0  0  0  0  0  0  0  0
   -1.5537    7.4356   -0.1526 H   0  0  0  0  0  0  0  0  0  0  0  0
    0.9360    7.0790   -1.2230 H   0  0  0  0  0  0  0  0  0  0  0  0
   -2.1087    9.7297    0.4960 H   0  0  0  0  0  0  0  0  0  0  0  0
   -2.2690   10.9789   -0.7849 H   0  0  0  0  0  0  0  0  0  0  0  0
   -3.3548    9.5479   -0.7849 H   0  0  0  0  0  0  0  0  0  0  0  0
   -2.9580    7.9148   -2.2192 H   0  0  0  0  0  0  0  0  0  0  0  0
   -2.5495    9.3378   -3.2365 H   0  0  0  0  0  0  0  0  0  0  0  0
   -1.4777    7.8963   -3.2365 H   0  0  0  0  0  0  0  0  0  0  0  0
    3.7293   10.3146   -1.0153 H   0  0  0  0  0  0  0  0  0  0  0  0
    2.7618    9.8885   -2.4675 H   0  0  0  0  0  0  0  0  0  0  0  0
    3.7763   11.3709   -2.4675 H   0  0  0  0  0  0  0  0  0  0  0  0
    2.4245   11.6729    0.8237 H   0  0  0  0  0  0  0  0  0  0  0  0
    3.5062   12.6393   -0.3300 H   0  0  0  0  0  0  0  0  0  0  0  0
    0.7696   13.4110    0.7209 H   0  0  0  0  0  0  0  0  0  0  0  0
    2.3658   14.1929    1.0485 H   0  0  0  0  0  0  0  0  0  0  0  0
    3.6815   15.0998   -0.5850 H   0  0  0  0  0  0  0  0  0  0  0  0
    3.4215   14.0995   -2.0542 H   0  0  0  0  0  0  0  0  0  0  0  0
    2.9542   15.8340   -2.0542 H   0  0  0  0  0  0  0  0  0  0  0  0
  1  2  1  0
  2  3  1  0
  3  4  1  0
  4  5  1  0
  5  6  1  0
  6  7  1  0
  7  8  1  0
  7  9  1  0
  2 10  1  0
 10 11  1  0
 11 12  1  0
 12 13  1  0
 13 14  1  1
 13 15  1  0
 15 16  1  0
 16 17  1  0
 17 18  2  0
 18 19  1  0
 19 20  1  0
 20 21  1  0
 21 22  1  0
 22 23  1  0
 22 24  1  0
 24 25  1  0
 24 26  1  0
 19 27  1  0
 27 28  1  6
 27 29  1  0
 29 30  1  0
 30 31  1  0
 31 32  1  6
  7  5  1  0
 31 10  1  0
 31 13  1  0
 27 15  1  0
 24 18  1  0
  1 33  1  0
  1 34  1  0
  1 35  1  0
  2 36  1  1
  3 37  1  0
  3 38  1  0
  4 39  1  0
  4 40  1  0
  5 41  1  6
  8 42  1  0
  8 43  1  0
  8 44  1  0
  9 45  1  0
  9 46  1  0
  9 47  1  0
 10 48  1  1
 11 49  1  0
 11 50  1  0
 12 51  1  0
 12 52  1  0
 14 53  1  0
 14 54  1  0
 14 55  1  0
 15 56  1  6
 16 57  1  0
 16 58  1  0
 17 59  1  0
 19 60  1  1
 20 61  1  0
 20 62  1  0
 21 63  1  0
 21 64  1  0
 22 65  1  1
 23 66  1  0
 25 67  1  0
 25 68  1  0
 25 69  1  0
 26 70  1  0
 26 71  1  0
 26 72  1  0
 28 73  1  0
 28 74  1  0
 28 75  1  0
 29 76  1  0
 29 77  1  0
 30 78  1  0
 30 79  1  0
 32 80  1  0
 32 81  1  0
 32 82  1  0
M  END
>  <meeko>  (8) 
{"is_sidechain": [false], "intermolecular_energy": 2.731, "internal_energy": -0.839}

$$$$
EPH_relaxed_0001_pdb2pqr_Repair_300_r2_0001_out
     RDKit          3D

 82 86  0  0  0  0  0  0  0  0999 V2000
    1.3900   19.3470   -1.7690 C   0  0  0  0  0  0  0  0  0  0  0  0
    1.9350   18.3830   -2.8270 C   0  0  2  0  0  0  0  0  0  0  0  0
    0.9220   18.1340   -3.9630 C   0  0  0  0  0  0  0  0  0  0  0  0
    1.5370   17.4800   -5.2030 C   0  0  0  0  0  0  0  0  0  0  0  0
    0.4970   16.8090   -6.0480 C   0  0  2  0  0  0  0  0  0  0  0  0
    0.8400   15.4850   -6.4800 O   0  0  0  0  0  0  0  0  0  0  0  0
    0.7000   16.4730   -7.5140 C   0  0  0  0  0  0  0  0  0  0  0  0
    1.9790   16.8000   -8.2200 C   0  0  0  0  0  0  0  0  0  0  0  0
   -0.5070   16.2760   -8.3770 C   0  0  0  0  0  0  0  0  0  0  0  0
    2.3210   17.0600   -2.1740 C   0  0  1  0  0  0  0  0  0  0  0  0
    3.0830   17.2540   -0.8360 C   0  0  0  0  0  0  0  0  0  0  0  0
    2.6520   16.0920    0.0960 C   0  0  0  0  0  0  0  0  0  0  0  0
    1.9250   15.0940   -0.8350 C   0  0  1  0  0  0  0  0  0  0  0  0
    3.0670   14.2850   -1.5260 C   0  0  0  0  0  0  0  0  0  0  0  0
    0.8790   14.1520   -0.1560 C   0  0  2  0  0  0  0  0  0  0  0  0
    1.4540   13.1930    0.9010 C   0  0  0  0  0  0  0  0  0  0  0  0
    1.8960   11.8640    0.3840 C   0  0  0  0  0  0  0  0  0  0  0  0
    1.5770   11.3470   -0.8180 C   0  0  0  0  0  0  0  0  0  0  0  0
    0.6100   12.0780   -1.7580 C   0  0  1  0  0  0  0  0  0  0  0  0
   -0.4300   11.0710   -2.3150 C   0  0  0  0  0  0  0  0  0  0  0  0
    0.2230    9.8600   -2.9760 C   0  0  0  0  0  0  0  0  0  0  0  0
    1.1320    9.1270   -1.9920 C   0  0  2  0  0  0  0  0  0  0  0  0
    0.3250    8.5510   -0.9610 O   0  0  0  0  0  0  0  0  0  0  0  0
    2.2150   10.0440   -1.3580 C   0  0  0  0  0  0  0  0  0  0  0  0
    3.2670   10.4250   -2.4300 C   0  0  0  0  0  0  0  0  0  0  0  0
    2.9710    9.2170   -0.2840 C   0  0  0  0  0  0  0  0  0  0  0  0
   -0.0660   13.3920   -1.1730 C   0  0  1  0  0  0  0  0  0  0  0  0
   -1.3590   13.0190   -0.3850 C   0  0  0  0  0  0  0  0  0  0  0  0
   -0.5220   14.3110   -2.3670 C   0  0  0  0  0  0  0  0  0  0  0  0
    0.5200   15.3040   -2.9160 C   0  0  0  0  0  0  0  0  0  0  0  0
    1.1710   16.0990   -1.7800 C   0  0  2  0  0  0  0  0  0  0  0  0
    0.0500   16.9410   -1.0810 C   0  0  0  0  0  0  0  0  0  0  0  0
    1.6121   18.9541   -0.7658 H   0  0  0  0  0  0  0  0  0  0  0  0
    1.8651   20.3316   -1.8906 H   0  0  0  0  0  0  0  0  0  0  0  0
    0.3014   19.4476   -1.8906 H   0  0  0  0  0  0  0  0  0  0  0  0
    2.8242   18.8508   -3.2747 H   0  0  0  0  0  0  0  0  0  0  0  0
    0.1271   17.4763   -3.5816 H   0  0  0  0  0  0  0  0  0  0  0  0
    0.5396   19.1173   -4.2742 H   0  0  0  0  0  0  0  0  0  0  0  0
    2.0388   18.2538   -5.8025 H   0  0  0  0  0  0  0  0  0  0  0  0
    2.2532   16.7152   -4.8683 H   0  0  0  0  0  0  0  0  0  0  0  0
   -0.3093   17.3356   -5.5165 H   0  0  0  0  0  0  0  0  0  0  0  0
    2.7661   17.0012   -7.4784 H   0  0  0  0  0  0  0  0  0  0  0  0
    2.2778   15.9494   -8.8502 H   0  0  0  0  0  0  0  0  0  0  0  0
    1.8329   17.6897   -8.8502 H   0  0  0  0  0  0  0  0  0  0  0  0
   -1.3928   16.1314   -7.7410 H   0  0  0  0  0  0  0  0  0  0  0  0
   -0.6523   17.1623   -9.0121 H   0  0  0  0  0  0  0  0  0  0  0  0
   -0.3629   15.3895   -9.0121 H   0  0  0  0  0  0  0  0  0  0  0  0
    2.9168   16.6200   -2.9872 H   0  0  0  0  0  0  0  0  0  0  0  0
    4.1686   17.2178   -1.0095 H   0  0  0  0  0  0  0  0  0  0  0  0
    2.8485   18.2297   -0.3855 H   0  0  0  0  0  0  0  0  0  0  0  0
    3.5306   15.6204    0.5604 H   0  0  0  0  0  0  0  0  0  0  0  0
    2.0109   16.4352    0.9214 H   0  0  0  0  0  0  0  0  0  0  0  0
    3.7099   13.8295   -0.7584 H   0  0  0  0  0  0  0  0  0  0  0  0
    2.6288   13.4948   -2.1533 H   0  0  0  0  0  0  0  0  0  0  0  0
    3.6671   14.9605   -2.1533 H   0  0  0  0  0  0  0  0  0  0  0  0
    0.2467   14.8620    0.3972 H   0  0  0  0  0  0  0  0  0  0  0  0
    2.3221   13.6821    1.3671 H   0  0  0  0  0  0  0  0  0  0  0  0
    0.6332   12.9880    1.6041 H   0  0  0  0  0  0  0  0  0  0  0  0
    2.5361   11.2558    1.0401 H   0  0  0  0  0  0  0  0  0  0  0  0
    1.2252   12.4732   -2.5798 H   0  0  0  0  0  0  0  0  0  0  0  0
   -1.0619   10.7216   -1.4852 H   0  0  0  0  0  0  0  0  0  0  0  0
   -1.0210   11.5920   -3.0827 H   0  0  0  0  0  0  0  0  0  0  0  0
   -0.5620    9.1718   -3.3226 H   0  0  0  0  0  0  0  0  0  0  0  0
    0.8308   10.2075   -3.8244 H   0  0  0  0  0  0  0  0  0  0  0  0
    1.6703    8.3506   -2.5555 H   0  0  0  0  0  0  0  0  0  0  0  0
    0.6530    8.8860   -0.1090 H   0  0  0  0  0  0  0  0  0  0  0  0
    4.1905   10.7595   -1.9348 H   0  0  0  0  0  0  0  0  0  0  0  0
    3.4845    9.5485   -3.0581 H   0  0  0  0  0  0  0  0  0  0  0  0
    2.8728   11.2375   -3.0581 H   0  0  0  0  0  0  0  0  0  0  0  0
    2.6654    9.5513    0.7184 H   0  0  0  0  0  0  0  0  0  0  0  0
    2.7288    8.1508   -0.4046 H   0  0  0  0  0  0  0  0  0  0  0  0
    4.0546    9.3628   -0.4046 H   0  0  0  0  0  0  0  0  0  0  0  0
   -1.1595   13.0766    0.6952 H   0  0  0  0  0  0  0  0  0  0  0  0
   -2.1637   13.7216   -0.6472 H   0  0  0  0  0  0  0  0  0  0  0  0
   -1.6658   11.9957   -0.6472 H   0  0  0  0  0  0  0  0  0  0  0  0
   -0.8248   13.6541   -3.1958 H   0  0  0  0  0  0  0  0  0  0  0  0
   -1.3283   14.9370   -1.9570 H   0  0  0  0  0  0  0  0  0  0  0  0
    1.2985   14.7462   -3.4571 H   0  0  0  0  0  0  0  0  0  0  0  0
    0.0118   16.0085   -3.5909 H   0  0  0  0  0  0  0  0  0  0  0  0
    0.1576   16.8602    0.0107 H   0  0  0  0  0  0  0  0  0  0  0  0
    0.1420   17.9952   -1.3815 H   0  0  0  0  0  0  0  0  0  0  0  0
   -0.9368   16.5589   -1.3815 H   0  0  0  0  0  0  0  0  0  0  0  0
  1  2  1  0
  2  3  1  0
  3  4  1  0
  4  5  1  0
  5  6  1  0
  6  7  1  0
  7  8  1  0
  7  9  1  0
  2 10  1  0
 10 11  1  0
 11 12  1  0
 12 13  1  0
 13 14  1  6
 13 15  1  0
 15 16  1  0
 16 17  1  0
 17 18  2  0
 18 19  1  0
 19 20  1  0
 20 21  1  0
 21 22  1  0
 22 23  1  0
 22 24  1  0
 24 25  1  0
 24 26  1  0
 19 27  1  0
 27 28  1  1
 27 29  1  0
 29 30  1  0
 30 31  1  0
 31 32  1  1
  7  5  1  0
 31 10  1  0
 31 13  1  0
 27 15  1  0
 24 18  1  0
  1 33  1  0
  1 34  1  0
  1 35  1  0
  2 36  1  6
  3 37  1  0
  3 38  1  0
  4 39  1  0
  4 40  1  0
  5 41  1  6
  8 42  1  0
  8 43  1  0
  8 44  1  0
  9 45  1  0
  9 46  1  0
  9 47  1  0
 10 48  1  6
 11 49  1  0
 11 50  1  0
 12 51  1  0
 12 52  1  0
 14 53  1  0
 14 54  1  0
 14 55  1  0
 15 56  1  1
 16 57  1  0
 16 58  1  0
 17 59  1  0
 19 60  1  6
 20 61  1  0
 20 62  1  0
 21 63  1  0
 21 64  1  0
 22 65  1  6
 23 66  1  0
 25 67  1  0
 25 68  1  0
 25 69  1  0
 26 70  1  0
 26 71  1  0
 26 72  1  0
 28 73  1  0
 28 74  1  0
 28 75  1  0
 29 76  1  0
 29 77  1  0
 30 78  1  0
 30 79  1  0
 32 80  1  0
 32 81  1  0
 32 82  1  0
M  END
>  <meeko>  (9) 
{"is_sidechain": [false], "intermolecular_energy": 2.731, "internal_energy": -0.839}

$$$$
EPH_relaxed_0001_pdb2pqr_Repair_300_r2_0001_out
     RDKit          3D

 82 86  0  0  0  0  0  0  0  0999 V2000
   -1.7690    8.0580   -2.2410 C   0  0  0  0  0  0  0  0  0  0  0  0
   -1.6900    8.7370   -0.8700 C   0  0  2  0  0  0  0  0  0  0  0  0
   -2.9940    8.5710   -0.0640 C   0  0  0  0  0  0  0  0  0  0  0  0
   -4.2620    8.7280   -0.9070 C   0  0  0  0  0  0  0  0  0  0  0  0
   -4.9900    7.4270   -1.0630 C   0  0  2  0  0  0  0  0  0  0  0  0
   -5.2140    7.0250   -2.4200 O   0  0  0  0  0  0  0  0  0  0  0  0
   -6.3870    7.3140   -1.6430 C   0  0  0  0  0  0  0  0  0  0  0  0
   -7.1410    8.5220   -2.1040 C   0  0  0  0  0  0  0  0  0  0  0  0
   -7.2040    6.1040   -1.3110 C   0  0  0  0  0  0  0  0  0  0  0  0
   -1.3670   10.2170   -1.0400 C   0  0  1  0  0  0  0  0  0  0  0  0
   -1.0320   10.9140    0.3050 C   0  0  0  0  0  0  0  0  0  0  0  0
    0.0520   11.9790   -0.0010 C   0  0  0  0  0  0  0  0  0  0  0  0
    0.0650   12.0900   -1.5430 C   0  0  1  0  0  0  0  0  0  0  0  0
   -1.1340   13.0290   -1.8880 C   0  0  0  0  0  0  0  0  0  0  0  0
    1.3970   12.5940   -2.1880 C   0  0  2  0  0  0  0  0  0  0  0  0
    1.8140   14.0220   -1.7930 C   0  0  0  0  0  0  0  0  0  0  0  0
    1.3020   15.1050   -2.6820 C   0  0  0  0  0  0  0  0  0  0  0  0
    0.7780   14.9280   -3.9100 C   0  0  0  0  0  0  0  0  0  0  0  0
    0.7510   13.5390   -4.5610 C   0  0  1  0  0  0  0  0  0  0  0  0
    1.2460   13.6460   -6.0280 C   0  0  0  0  0  0  0  0  0  0  0  0
    0.4690   14.6830   -6.8330 C   0  0  0  0  0  0  0  0  0  0  0  0
    0.5680   16.0620   -6.1850 C   0  0  2  0  0  0  0  0  0  0  0  0
    1.9220   16.5160   -6.2720 O   0  0  0  0  0  0  0  0  0  0  0  0
    0.1050   16.0760   -4.7010 C   0  0  0  0  0  0  0  0  0  0  0  0
   -1.4290   15.8800   -4.6330 C   0  0  0  0  0  0  0  0  0  0  0  0
    0.3880   17.4910   -4.1270 C   0  0  0  0  0  0  0  0  0  0  0  0
    1.4810   12.3810   -3.7540 C   0  0  1  0  0  0  0  0  0  0  0  0
    2.9960   12.3500   -4.1190 C   0  0  0  0  0  0  0  0  0  0  0  0
    0.8880   10.9920   -4.2010 C   0  0  0  0  0  0  0  0  0  0  0  0
   -0.3580   10.4920   -3.4450 C   0  0  0  0  0  0  0  0  0  0  0  0
   -0.1520   10.5820   -1.9300 C   0  0  2  0  0  0  0  0  0  0  0  0
    1.0330    9.6310   -1.5500 C   0  0  0  0  0  0  0  0  0  0  0  0
   -1.8952    6.9736   -2.1064 H   0  0  0  0  0  0  0  0  0  0  0  0
   -2.6264    8.4602   -2.8005 H   0  0  0  0  0  0  0  0  0  0  0  0
   -0.8422    8.2526   -2.8005 H   0  0  0  0  0  0  0  0  0  0  0  0
   -0.8864    8.2445   -0.3028 H   0  0  0  0  0  0  0  0  0  0  0  0
   -2.9985    7.5676    0.3866 H   0  0  0  0  0  0  0  0  0  0  0  0
   -3.0091    9.3702    0.6917 H   0  0  0  0  0  0  0  0  0  0  0  0
   -4.9285    9.4526   -0.4164 H   0  0  0  0  0  0  0  0  0  0  0  0
   -3.9670    9.0774   -1.9074 H   0  0  0  0  0  0  0  0  0  0  0  0
   -4.5424    7.0390   -0.1361 H   0  0  0  0  0  0  0  0  0  0  0  0
   -7.4948    9.0889   -1.2303 H   0  0  0  0  0  0  0  0  0  0  0  0
   -6.4792    9.1580   -2.7103 H   0  0  0  0  0  0  0  0  0  0  0  0
   -8.0031    8.2069   -2.7103 H   0  0  0  0  0  0  0  0  0  0  0  0
   -7.2754    5.9983   -0.2184 H   0  0  0  0  0  0  0  0  0  0  0  0
   -8.2128    6.2150   -1.7353 H   0  0  0  0  0  0  0  0  0  0  0  0
   -6.7241    5.2098   -1.7353 H   0  0  0  0  0  0  0  0  0  0  0  0
   -2.2984   10.5552   -1.5176 H   0  0  0  0  0  0  0  0  0  0  0  0
   -1.9312   11.3961    0.7161 H   0  0  0  0  0  0  0  0  0  0  0  0
   -0.6726   10.1868    1.0479 H   0  0  0  0  0  0  0  0  0  0  0  0
   -0.2121   12.9443    0.4556 H   0  0  0  0  0  0  0  0  0  0  0  0
    1.0358   11.7018    0.4057 H   0  0  0  0  0  0  0  0  0  0  0  0
   -1.5959   13.3908   -0.9575 H   0  0  0  0  0  0  0  0  0  0  0  0
   -0.7716   13.8860   -2.4747 H   0  0  0  0  0  0  0  0  0  0  0  0
   -1.8791   12.4717   -2.4747 H   0  0  0  0  0  0  0  0  0  0  0  0
    2.1449   11.9271   -1.7343 H   0  0  0  0  0  0  0  0  0  0  0  0
    1.4441   14.2147   -0.7751 H   0  0  0  0  0  0  0  0  0  0  0  0
    2.9104   14.0527   -1.8769 H   0  0  0  0  0  0  0  0  0  0  0  0
    1.3571   16.1359   -2.3022 H   0  0  0  0  0  0  0  0  0  0  0  0
   -0.3000   13.2148   -4.5437 H   0  0  0  0  0  0  0  0  0  0  0  0
    2.3091   13.9285   -6.0218 H   0  0  0  0  0  0  0  0  0  0  0  0
    1.0902   12.6673   -6.5053 H   0  0  0  0  0  0  0  0  0  0  0  0
    0.8831   14.7328   -7.8509 H   0  0  0  0  0  0  0  0  0  0  0  0
   -0.5891   14.3839   -6.8628 H   0  0  0  0  0  0  0  0  0  0  0  0
   -0.1112   16.7332   -6.7311 H   0  0  0  0  0  0  0  0  0  0  0  0
    2.0740   17.1310   -5.5340 H   0  0  0  0  0  0  0  0  0  0  0  0
   -1.7472   15.8393   -3.5808 H   0  0  0  0  0  0  0  0  0  0  0  0
   -1.9288   16.7216   -5.1349 H   0  0  0  0  0  0  0  0  0  0  0  0
   -1.7011   14.9398   -5.1349 H   0  0  0  0  0  0  0  0  0  0  0  0
    0.3796   17.4492   -3.0278 H   0  0  0  0  0  0  0  0  0  0  0  0
    1.3731   17.8369   -4.4733 H   0  0  0  0  0  0  0  0  0  0  0  0
   -0.3883   18.1892   -4.4733 H   0  0  0  0  0  0  0  0  0  0  0  0
    3.5952   12.3377   -3.1966 H   0  0  0  0  0  0  0  0  0  0  0  0
    3.2126   11.4472   -4.7090 H   0  0  0  0  0  0  0  0  0  0  0  0
    3.2494   13.2431   -4.7090 H   0  0  0  0  0  0  0  0  0  0  0  0
    0.6218   11.0710   -5.2654 H   0  0  0  0  0  0  0  0  0  0  0  0
    1.6751   10.2574   -3.9755 H   0  0  0  0  0  0  0  0  0  0  0  0
   -1.2228   11.1100   -3.7280 H   0  0  0  0  0  0  0  0  0  0  0  0
   -0.5328    9.4397   -3.7136 H   0  0  0  0  0  0  0  0  0  0  0  0
    1.1142    9.5659   -0.4549 H   0  0  0  0  0  0  0  0  0  0  0  0
    0.8464    8.6291   -1.9641 H   0  0  0  0  0  0  0  0  0  0  0  0
    1.9707   10.0301   -1.9641 H   0  0  0  0  0  0  0  0  0  0  0  0
  1  2  1  0
  2  3  1  0
  3  4  1  0
  4  5  1  0
  5  6  1  0
  6  7  1  0
  7  8  1  0
  7  9  1  0
  2 10  1  0
 10 11  1  0
 11 12  1  0
 12 13  1  0
 13 14  1  1
 13 15  1  0
 15 16  1  0
 16 17  1  0
 17 18  2  0
 18 19  1  0
 19 20  1  0
 20 21  1  0
 21 22  1  0
 22 23  1  0
 22 24  1  0
 24 25  1  0
 24 26  1  0
 19 27  1  0
 27 28  1  6
 27 29  1  0
 29 30  1  0
 30 31  1  0
 31 32  1  1
  7  5  1  0
 31 10  1  0
 31 13  1  0
 27 15  1  0
 24 18  1  0
  1 33  1  0
  1 34  1  0
  1 35  1  0
  2 36  1  1
  3 37  1  0
  3 38  1  0
  4 39  1  0
  4 40  1  0
  5 41  1  1
  8 42  1  0
  8 43  1  0
  8 44  1  0
  9 45  1  0
  9 46  1  0
  9 47  1  0
 10 48  1  6
 11 49  1  0
 11 50  1  0
 12 51  1  0
 12 52  1  0
 14 53  1  0
 14 54  1  0
 14 55  1  0
 15 56  1  1
 16 57  1  0
 16 58  1  0
 17 59  1  0
 19 60  1  6
 20 61  1  0
 20 62  1  0
 21 63  1  0
 21 64  1  0
 22 65  1  6
 23 66  1  0
 25 67  1  0
 25 68  1  0
 25 69  1  0
 26 70  1  0
 26 71  1  0
 26 72  1  0
 28 73  1  0
 28 74  1  0
 28 75  1  0
 29 76  1  0
 29 77  1  0
 30 78  1  0
 30 79  1  0
 32 80  1  0
 32 81  1  0
 32 82  1  0
M  END
>  <meeko>  (10) 
{"is_sidechain": [false], "intermolecular_energy": 2.731, "internal_energy": -0.839}

$$$$
EPH_relaxed_0001_pdb2pqr_Repair_300_r2_0001_out
     RDKit          3D

 82 86  0  0  0  0  0  0  0  0999 V2000
    0.0400   17.7910   -2.4300 C   0  0  0  0  0  0  0  0  0  0  0  0
   -0.1340   16.9020   -1.1960 C   0  0  2  0  0  0  0  0  0  0  0  0
   -0.1520   17.7200    0.1110 C   0  0  0  0  0  0  0  0  0  0  0  0
    0.4940   19.1020   -0.0190 C   0  0  0  0  0  0  0  0  0  0  0  0
    1.6950   19.2390    0.8660 C   0  0  2  0  0  0  0  0  0  0  0  0
    2.6660   20.1920    0.4150 O   0  0  0  0  0  0  0  0  0  0  0  0
    3.0930   18.8210    0.4490 C   0  0  0  0  0  0  0  0  0  0  0  0
    3.3620   18.2340   -0.9010 C   0  0  0  0  0  0  0  0  0  0  0  0
    4.1020   18.5300    1.5160 C   0  0  0  0  0  0  0  0  0  0  0  0
    0.9790   15.8620   -1.1440 C   0  0  1  0  0  0  0  0  0  0  0  0
    1.2900   15.3920    0.3020 C   0  0  0  0  0  0  0  0  0  0  0  0
    1.6690   13.8910    0.2130 C   0  0  0  0  0  0  0  0  0  0  0  0
    1.8860   13.6330   -1.2970 C   0  0  1  0  0  0  0  0  0  0  0  0
    3.3310   14.1440   -1.5880 C   0  0  0  0  0  0  0  0  0  0  0  0
    1.6860   12.1600   -1.7820 C   0  0  2  0  0  0  0  0  0  0  0  0
    2.6580   11.1350   -1.1710 C   0  0  0  0  0  0  0  0  0  0  0  0
    3.9210   10.9190   -1.9380 C   0  0  0  0  0  0  0  0  0  0  0  0
    4.1400   11.3040   -3.2090 C   0  0  0  0  0  0  0  0  0  0  0  0
    3.0220   11.9440   -4.0420 C   0  0  1  0  0  0  0  0  0  0  0  0
    2.9820   11.2850   -5.4460 C   0  0  0  0  0  0  0  0  0  0  0  0
    4.3330   11.3290   -6.1520 C   0  0  0  0  0  0  0  0  0  0  0  0
    5.4060   10.6330   -5.3190 C   0  0  2  0  0  0  0  0  0  0  0  0
    5.1060    9.2350   -5.2570 O   0  0  0  0  0  0  0  0  0  0  0  0
    5.5320   11.2050   -3.8800 C   0  0  0  0  0  0  0  0  0  0  0  0
    6.1470   12.6250   -3.9360 C   0  0  0  0  0  0  0  0  0  0  0  0
    6.5470   10.3240   -3.1030 C   0  0  0  0  0  0  0  0  0  0  0  0
    1.5910   12.0020   -3.3530 C   0  0  1  0  0  0  0  0  0  0  0  0
    0.8170   10.6740   -3.6210 C   0  0  0  0  0  0  0  0  0  0  0  0
    0.7460   13.1510   -4.0200 C   0  0  0  0  0  0  0  0  0  0  0  0
    0.8960   14.5620   -3.4200 C   0  0  0  0  0  0  0  0  0  0  0  0
    0.7410   14.5280   -1.8960 C   0  0  2  0  0  0  0  0  0  0  0  0
   -0.7120   14.0390   -1.5740 C   0  0  0  0  0  0  0  0  0  0  0  0
    0.2423   18.8244   -2.1119 H   0  0  0  0  0  0  0  0  0  0  0  0
    0.8828   17.4212   -3.0324 H   0  0  0  0  0  0  0  0  0  0  0  0
   -0.8800   17.7662   -3.0324 H   0  0  0  0  0  0  0  0  0  0  0  0
   -1.1086   16.3997   -1.2846 H   0  0  0  0  0  0  0  0  0  0  0  0
   -1.1984   17.8537    0.4226 H   0  0  0  0  0  0  0  0  0  0  0  0
    0.4375   17.1578    0.8502 H   0  0  0  0  0  0  0  0  0  0  0  0
    0.8022   19.2543   -1.0639 H   0  0  0  0  0  0  0  0  0  0  0  0
   -0.2456   19.8560    0.2884 H   0  0  0  0  0  0  0  0  0  0  0  0
    1.0924   19.0137    1.7583 H   0  0  0  0  0  0  0  0  0  0  0  0
    3.8177   17.2396   -0.7843 H   0  0  0  0  0  0  0  0  0  0  0  0
    2.4165   18.1413   -1.4555 H   0  0  0  0  0  0  0  0  0  0  0  0
    4.0495   18.8896   -1.4555 H   0  0  0  0  0  0  0  0  0  0  0  0
    3.6389   18.6636    2.5048 H   0  0  0  0  0  0  0  0  0  0  0  0
    4.4553   17.4933    1.4136 H   0  0  0  0  0  0  0  0  0  0  0  0
    4.9531   19.2193    1.4136 H   0  0  0  0  0  0  0  0  0  0  0  0
    1.7855   16.4300   -1.6307 H   0  0  0  0  0  0  0  0  0  0  0  0
    2.1289   15.9706    0.7161 H   0  0  0  0  0  0  0  0  0  0  0  0
    0.4222   15.5417    0.9611 H   0  0  0  0  0  0  0  0  0  0  0  0
    2.5909   13.6890    0.7780 H   0  0  0  0  0  0  0  0  0  0  0  0
    0.8936   13.2385    0.6408 H   0  0  0  0  0  0  0  0  0  0  0  0
    3.8530   14.3286   -0.6375 H   0  0  0  0  0  0  0  0  0  0  0  0
    3.8789   13.3851   -2.1658 H   0  0  0  0  0  0  0  0  0  0  0  0
    3.2800   15.0786   -2.1658 H   0  0  0  0  0  0  0  0  0  0  0  0
    0.6944   11.9103   -1.3765 H   0  0  0  0  0  0  0  0  0  0  0  0
    2.9277   11.4813   -0.1624 H   0  0  0  0  0  0  0  0  0  0  0  0
    2.1284   10.1709   -1.1783 H   0  0  0  0  0  0  0  0  0  0  0  0
    4.7420   10.4013   -1.4203 H   0  0  0  0  0  0  0  0  0  0  0  0
    3.2829   13.0084   -4.1366 H   0  0  0  0  0  0  0  0  0  0  0  0
    2.6771   10.2341   -5.3336 H   0  0  0  0  0  0  0  0  0  0  0  0
    2.2661   11.8511   -6.0600 H   0  0  0  0  0  0  0  0  0  0  0  0
    4.2476   10.8227   -7.1248 H   0  0  0  0  0  0  0  0  0  0  0  0
    4.6230   12.3810   -6.2904 H   0  0  0  0  0  0  0  0  0  0  0  0
    6.3732   10.8106   -5.8119 H   0  0  0  0  0  0  0  0  0  0  0  0
    4.7180    9.0560   -4.3830 H   0  0  0  0  0  0  0  0  0  0  0  0
    6.3075   12.9957   -2.9128 H   0  0  0  0  0  0  0  0  0  0  0  0
    7.1093   12.5871   -4.4675 H   0  0  0  0  0  0  0  0  0  0  0  0
    5.4610   13.3010   -4.4675 H   0  0  0  0  0  0  0  0  0  0  0  0
    6.3947   10.4562   -2.0216 H   0  0  0  0  0  0  0  0  0  0  0  0
    6.3940    9.2675   -3.3684 H   0  0  0  0  0  0  0  0  0  0  0  0
    7.5715   10.6241   -3.3684 H   0  0  0  0  0  0  0  0  0  0  0  0
    0.5454   10.2080   -2.6623 H   0  0  0  0  0  0  0  0  0  0  0  0
   -0.0960   10.8911   -4.1948 H   0  0  0  0  0  0  0  0  0  0  0  0
    1.4559    9.9866   -4.1948 H   0  0  0  0  0  0  0  0  0  0  0  0
    1.0382   13.2070   -5.0790 H   0  0  0  0  0  0  0  0  0  0  0  0
   -0.3042   12.8743   -3.8453 H   0  0  0  0  0  0  0  0  0  0  0  0
    1.8915   14.9564   -3.6719 H   0  0  0  0  0  0  0  0  0  0  0  0
    0.1096   15.2071   -3.8387 H   0  0  0  0  0  0  0  0  0  0  0  0
   -0.8501   13.9925   -0.4837 H   0  0  0  0  0  0  0  0  0  0  0  0
   -1.4396   14.7418   -2.0061 H   0  0  0  0  0  0  0  0  0  0  0  0
   -0.8666   13.0393   -2.0061 H   0  0  0  0  0  0  0  0  0  0  0  0
  1  2  1  0
  2  3  1  0
  3  4  1  0
  4  5  1  0
  5  6  1  0
  6  7  1  0
  7  8  1  0
  7  9  1  0
  2 10  1  0
 10 11  1  0
 11 12  1  0
 12 13  1  0
 13 14  1  6
 13 15  1  0
 15 16  1  0
 16 17  1  0
 17 18  2  0
 18 19  1  0
 19 20  1  0
 20 21  1  0
 21 22  1  0
 22 23  1  0
 22 24  1  0
 24 25  1  0
 24 26  1  0
 19 27  1  0
 27 28  1  1
 27 29  1  0
 29 30  1  0
 30 31  1  0
 31 32  1  6
  7  5  1  0
 31 10  1  0
 31 13  1  0
 27 15  1  0
 24 18  1  0
  1 33  1  0
  1 34  1  0
  1 35  1  0
  2 36  1  6
  3 37  1  0
  3 38  1  0
  4 39  1  0
  4 40  1  0
  5 41  1  1
  8 42  1  0
  8 43  1  0
  8 44  1  0
  9 45  1  0
  9 46  1  0
  9 47  1  0
 10 48  1  6
 11 49  1  0
 11 50  1  0
 12 51  1  0
 12 52  1  0
 14 53  1  0
 14 54  1  0
 14 55  1  0
 15 56  1  1
 16 57  1  0
 16 58  1  0
 17 59  1  0
 19 60  1  6
 20 61  1  0
 20 62  1  0
 21 63  1  0
 21 64  1  0
 22 65  1  6
 23 66  1  0
 25 67  1  0
 25 68  1  0
 25 69  1  0
 26 70  1  0
 26 71  1  0
 26 72  1  0
 28 73  1  0
 28 74  1  0
 28 75  1  0
 29 76  1  0
 29 77  1  0
 30 78  1  0
 30 79  1  0
 32 80  1  0
 32 81  1  0
 32 82  1  0
M  END
>  <meeko>  (11) 
{"is_sidechain": [false], "intermolecular_energy": 2.731, "internal_energy": -0.839}

$$$$
EPH_relaxed_0001_pdb2pqr_Repair_300_r2_0001_out
     RDKit          3D

 82 86  0  0  0  0  0  0  0  0999 V2000
   -3.7850    7.2150   -3.4130 C   0  0  0  0  0  0  0  0  0  0  0  0
   -3.7990    7.3050   -1.8850 C   0  0  2  0  0  0  0  0  0  0  0  0
   -5.2160    7.1240   -1.3050 C   0  0  0  0  0  0  0  0  0  0  0  0
   -6.3330    7.3540   -2.3270 C   0  0  0  0  0  0  0  0  0  0  0  0
   -7.6640    7.5380   -1.6620 C   0  0  2  0  0  0  0  0  0  0  0  0
   -8.2160    6.3470   -1.0870 O   0  0  0  0  0  0  0  0  0  0  0  0
   -8.9500    6.9220   -2.1800 C   0  0  0  0  0  0  0  0  0  0  0  0
   -8.9690    6.0750   -3.4130 C   0  0  0  0  0  0  0  0  0  0  0  0
  -10.2520    7.5380   -1.7730 C   0  0  0  0  0  0  0  0  0  0  0  0
   -3.2200    8.6420   -1.4370 C   0  0  1  0  0  0  0  0  0  0  0  0
   -3.8510    9.1540   -0.1150 C   0  0  0  0  0  0  0  0  0  0  0  0
   -2.7270    9.8870    0.6620 C   0  0  0  0  0  0  0  0  0  0  0  0
   -1.5890   10.0620   -0.3710 C   0  0  1  0  0  0  0  0  0  0  0  0
   -1.9980   11.3140   -1.2090 C   0  0  0  0  0  0  0  0  0  0  0  0
   -0.1440   10.2040    0.2100 C   0  0  2  0  0  0  0  0  0  0  0  0
    0.0830   11.4370    1.1020 C   0  0  0  0  0  0  0  0  0  0  0  0
    0.5520   12.6620    0.3880 C   0  0  0  0  0  0  0  0  0  0  0  0
    1.0540   12.6950   -0.8600 C   0  0  0  0  0  0  0  0  0  0  0  0
    1.2820   11.4020   -1.6530 C   0  0  1  0  0  0  0  0  0  0  0  0
    2.6890   11.4350   -2.3060 C   0  0  0  0  0  0  0  0  0  0  0  0
    2.9120   12.6840   -3.1520 C   0  0  0  0  0  0  0  0  0  0  0  0
    2.7340   13.9480   -2.3150 C   0  0  2  0  0  0  0  0  0  0  0  0
    3.7840   14.0100   -1.3440 O   0  0  0  0  0  0  0  0  0  0  0  0
    1.3560   14.0220   -1.6010 C   0  0  0  0  0  0  0  0  0  0  0  0
    0.2390   14.2590   -2.6470 C   0  0  0  0  0  0  0  0  0  0  0  0
    1.3610   15.2720   -0.6800 C   0  0  0  0  0  0  0  0  0  0  0  0
    1.0050   10.0490   -0.8660 C   0  0  1  0  0  0  0  0  0  0  0  0
    2.2860    9.6130   -0.0900 C   0  0  0  0  0  0  0  0  0  0  0  0
    0.7030    8.9030   -1.9030 C   0  0  0  0  0  0  0  0  0  0  0  0
   -0.7620    8.7370   -2.3480 C   0  0  0  0  0  0  0  0  0  0  0  0
   -1.7010    8.6950   -1.1380 C   0  0  2  0  0  0  0  0  0  0  0  0
   -1.3280    7.4330   -0.2870 C   0  0  0  0  0  0  0  0  0  0  0  0
   -3.6225    6.1705   -3.7173 H   0  0  0  0  0  0  0  0  0  0  0  0
   -4.7487    7.5669   -3.8099 H   0  0  0  0  0  0  0  0  0  0  0  0
   -2.9737    7.8430   -3.8099 H   0  0  0  0  0  0  0  0  0  0  0  0
   -3.1774    6.4831   -1.5002 H   0  0  0  0  0  0  0  0  0  0  0  0
   -5.3047    6.0980   -0.9185 H   0  0  0  0  0  0  0  0  0  0  0  0
   -5.3401    7.8813   -0.5169 H   0  0  0  0  0  0  0  0  0  0  0  0
   -6.0998    8.2551   -2.9132 H   0  0  0  0  0  0  0  0  0  0  0  0
   -6.3931    6.4669   -2.9747 H   0  0  0  0  0  0  0  0  0  0  0  0
   -7.4030    8.5664   -1.3717 H   0  0  0  0  0  0  0  0  0  0  0  0
   -8.9928    5.0129   -3.1279 H   0  0  0  0  0  0  0  0  0  0  0  0
   -9.8620    6.3148   -4.0089 H   0  0  0  0  0  0  0  0  0  0  0  0
   -8.0662    6.2745   -4.0089 H   0  0  0  0  0  0  0  0  0  0  0  0
  -10.3160    7.5683   -0.6753 H   0  0  0  0  0  0  0  0  0  0  0  0
  -10.3143    8.5611   -2.1723 H   0  0  0  0  0  0  0  0  0  0  0  0
  -11.0825    6.9373   -2.1723 H   0  0  0  0  0  0  0  0  0  0  0  0
   -3.4496    9.2487   -2.3253 H   0  0  0  0  0  0  0  0  0  0  0  0
   -4.6759    9.8483   -0.3329 H   0  0  0  0  0  0  0  0  0  0  0  0
   -4.2614    8.3215    0.4754 H   0  0  0  0  0  0  0  0  0  0  0  0
   -3.0782   10.8652    1.0223 H   0  0  0  0  0  0  0  0  0  0  0  0
   -2.4010    9.3273    1.5511 H   0  0  0  0  0  0  0  0  0  0  0  0
   -2.2669   12.1373   -0.5308 H   0  0  0  0  0  0  0  0  0  0  0  0
   -1.1539   11.6224   -1.8433 H   0  0  0  0  0  0  0  0  0  0  0  0
   -2.8614   11.0646   -1.8433 H   0  0  0  0  0  0  0  0  0  0  0  0
   -0.0730    9.3345    0.8800 H   0  0  0  0  0  0  0  0  0  0  0  0
   -0.8683   11.6766    1.5995 H   0  0  0  0  0  0  0  0  0  0  0  0
    0.8881   11.1641    1.8001 H   0  0  0  0  0  0  0  0  0  0  0  0
    0.4811   13.6178    0.9278 H   0  0  0  0  0  0  0  0  0  0  0  0
    0.5091   11.3847   -2.4355 H   0  0  0  0  0  0  0  0  0  0  0  0
    3.4478   11.4081   -1.5101 H   0  0  0  0  0  0  0  0  0  0  0  0
    2.7689   10.5626   -2.9712 H   0  0  0  0  0  0  0  0  0  0  0  0
    3.9327   12.6640   -3.5615 H   0  0  0  0  0  0  0  0  0  0  0  0
    2.1717   12.6941   -3.9655 H   0  0  0  0  0  0  0  0  0  0  0  0
    2.7768   14.8064   -3.0015 H   0  0  0  0  0  0  0  0  0  0  0  0
    4.2940   14.8200   -1.5120 H   0  0  0  0  0  0  0  0  0  0  0  0
   -0.7108   14.4605   -2.1299 H   0  0  0  0  0  0  0  0  0  0  0  0
    0.5036   15.1210   -3.2770 H   0  0  0  0  0  0  0  0  0  0  0  0
    0.1307   13.3638   -3.2770 H   0  0  0  0  0  0  0  0  0  0  0  0
    1.3597   14.9520    0.3724 H   0  0  0  0  0  0  0  0  0  0  0  0
    2.2615   15.8712   -0.8800 H   0  0  0  0  0  0  0  0  0  0  0  0
    0.4653   15.8784   -0.8800 H   0  0  0  0  0  0  0  0  0  0  0  0
    2.0987    9.6767    0.9921 H   0  0  0  0  0  0  0  0  0  0  0  0
    2.5419    8.5771   -0.3574 H   0  0  0  0  0  0  0  0  0  0  0  0
    3.1207   10.2776   -0.3574 H   0  0  0  0  0  0  0  0  0  0  0  0
    1.3036    9.1019   -2.8029 H   0  0  0  0  0  0  0  0  0  0  0  0
    0.9523    7.9683   -1.3794 H   0  0  0  0  0  0  0  0  0  0  0  0
   -1.0411    9.5848   -2.9909 H   0  0  0  0  0  0  0  0  0  0  0  0
   -0.8563    7.7892   -2.8983 H   0  0  0  0  0  0  0  0  0  0  0  0
   -1.4004    7.6778    0.7830 H   0  0  0  0  0  0  0  0  0  0  0  0
   -2.0222    6.6131   -0.5233 H   0  0  0  0  0  0  0  0  0  0  0  0
   -0.2996    7.1223   -0.5233 H   0  0  0  0  0  0  0  0  0  0  0  0
  1  2  1  0
  2  3  1  0
  3  4  1  0
  4  5  1  0
  5  6  1  0
  6  7  1  0
  7  8  1  0
  7  9  1  0
  2 10  1  0
 10 11  1  0
 11 12  1  0
 12 13  1  0
 13 14  1  6
 13 15  1  0
 15 16  1  0
 16 17  1  0
 17 18  2  0
 18 19  1  0
 19 20  1  0
 20 21  1  0
 21 22  1  0
 22 23  1  0
 22 24  1  0
 24 25  1  0
 24 26  1  0
 19 27  1  0
 27 28  1  1
 27 29  1  0
 29 30  1  0
 30 31  1  0
 31 32  1  1
  7  5  1  0
 31 10  1  0
 31 13  1  0
 27 15  1  0
 24 18  1  0
  1 33  1  0
  1 34  1  0
  1 35  1  0
  2 36  1  1
  3 37  1  0
  3 38  1  0
  4 39  1  0
  4 40  1  0
  5 41  1  1
  8 42  1  0
  8 43  1  0
  8 44  1  0
  9 45  1  0
  9 46  1  0
  9 47  1  0
 10 48  1  6
 11 49  1  0
 11 50  1  0
 12 51  1  0
 12 52  1  0
 14 53  1  0
 14 54  1  0
 14 55  1  0
 15 56  1  1
 16 57  1  0
 16 58  1  0
 17 59  1  0
 19 60  1  6
 20 61  1  0
 20 62  1  0
 21 63  1  0
 21 64  1  0
 22 65  1  6
 23 66  1  0
 25 67  1  0
 25 68  1  0
 25 69  1  0
 26 70  1  0
 26 71  1  0
 26 72  1  0
 28 73  1  0
 28 74  1  0
 28 75  1  0
 29 76  1  0
 29 77  1  0
 30 78  1  0
 30 79  1  0
 32 80  1  0
 32 81  1  0
 32 82  1  0
M  END
>  <meeko>  (12) 
{"is_sidechain": [false], "intermolecular_energy": 2.731, "internal_energy": -0.839}

$$$$
EPH_relaxed_0001_pdb2pqr_Repair_300_r2_0001_out
     RDKit          3D

 82 86  0  0  0  0  0  0  0  0999 V2000
    1.9980   17.7030   -7.0420 C   0  0  0  0  0  0  0  0  0  0  0  0
    1.2930   16.3440   -7.0740 C   0  0  2  0  0  0  0  0  0  0  0  0
    0.0190   16.3720   -7.9430 C   0  0  0  0  0  0  0  0  0  0  0  0
    0.2790   16.0950   -9.4260 C   0  0  0  0  0  0  0  0  0  0  0  0
    1.7260   15.8050   -9.6900 C   0  0  2  0  0  0  0  0  0  0  0  0
    2.2790   16.4980  -10.8170 O   0  0  0  0  0  0  0  0  0  0  0  0
    2.2200   15.0660  -10.9200 C   0  0  0  0  0  0  0  0  0  0  0  0
    1.2720   14.5690  -11.9650 C   0  0  0  0  0  0  0  0  0  0  0  0
    3.5610   14.4020  -10.8650 C   0  0  0  0  0  0  0  0  0  0  0  0
    0.9480   15.9040   -5.6570 C   0  0  1  0  0  0  0  0  0  0  0  0
   -0.4140   16.4680   -5.1710 C   0  0  0  0  0  0  0  0  0  0  0  0
   -1.0520   15.3810   -4.2690 C   0  0  0  0  0  0  0  0  0  0  0  0
    0.0930   14.3780   -3.9960 C   0  0  1  0  0  0  0  0  0  0  0  0
    0.9260   15.0240   -2.8450 C   0  0  0  0  0  0  0  0  0  0  0  0
   -0.3360   12.9160   -3.6480 C   0  0  2  0  0  0  0  0  0  0  0  0
   -1.1610   12.7680   -2.3580 C   0  0  0  0  0  0  0  0  0  0  0  0
   -0.3670   12.5310   -1.1160 C   0  0  0  0  0  0  0  0  0  0  0  0
    0.9260   12.1580   -1.0740 C   0  0  0  0  0  0  0  0  0  0  0  0
    1.6970   11.8410   -2.3620 C   0  0  1  0  0  0  0  0  0  0  0  0
    2.4870   10.5180   -2.1800 C   0  0  0  0  0  0  0  0  0  0  0  0
    3.3890   10.5400   -0.9510 C   0  0  0  0  0  0  0  0  0  0  0  0
    2.5790   10.8010    0.3160 C   0  0  2  0  0  0  0  0  0  0  0  0
    1.7190    9.6810    0.5520 O   0  0  0  0  0  0  0  0  0  0  0  0
    1.7340   12.1030    0.2460 C   0  0  0  0  0  0  0  0  0  0  0  0
    2.6710   13.3350    0.2950 C   0  0  0  0  0  0  0  0  0  0  0  0
    0.8580   12.1730    1.5260 C   0  0  0  0  0  0  0  0  0  0  0  0
    0.8440   11.8630   -3.7030 C   0  0  1  0  0  0  0  0  0  0  0  0
    0.1870   10.4690   -3.9390 C   0  0  0  0  0  0  0  0  0  0  0  0
    1.8100   12.1100   -4.9220 C   0  0  0  0  0  0  0  0  0  0  0  0
    2.1010   13.5770   -5.2920 C   0  0  0  0  0  0  0  0  0  0  0  0
    0.8030   14.3830   -5.3990 C   0  0  2  0  0  0  0  0  0  0  0  0
   -0.0460   13.7700   -6.5650 C   0  0  0  0  0  0  0  0  0  0  0  0
    2.1568   18.0092   -5.9975 H   0  0  0  0  0  0  0  0  0  0  0  0
    2.9691   17.6244   -7.5528 H   0  0  0  0  0  0  0  0  0  0  0  0
    1.3745   18.4516   -7.5528 H   0  0  0  0  0  0  0  0  0  0  0  0
    1.9868   15.6213   -7.5283 H   0  0  0  0  0  0  0  0  0  0  0  0
   -0.6767   15.6088   -7.5640 H   0  0  0  0  0  0  0  0  0  0  0  0
   -0.3949   17.3888   -7.8738 H   0  0  0  0  0  0  0  0  0  0  0  0
   -0.3211   15.2273   -9.7372 H   0  0  0  0  0  0  0  0  0  0  0  0
   -0.0008   16.9926   -9.9969 H   0  0  0  0  0  0  0  0  0  0  0  0
    1.9180   15.6616   -8.6164 H   0  0  0  0  0  0  0  0  0  0  0  0
    0.3980   14.1108  -11.4791 H   0  0  0  0  0  0  0  0  0  0  0  0
    0.9434   15.4108  -12.5922 H   0  0  0  0  0  0  0  0  0  0  0  0
    1.7775   13.8199  -12.5922 H   0  0  0  0  0  0  0  0  0  0  0  0
    3.8552   14.2563   -9.8151 H   0  0  0  0  0  0  0  0  0  0  0  0
    3.5079   13.4261  -11.3697 H   0  0  0  0  0  0  0  0  0  0  0  0
    4.3050   15.0358  -11.3697 H   0  0  0  0  0  0  0  0  0  0  0  0
    1.8281   16.2934   -5.1243 H   0  0  0  0  0  0  0  0  0  0  0  0
   -0.2577   17.3930   -4.5966 H   0  0  0  0  0  0  0  0  0  0  0  0
   -1.0680   16.7088   -6.0220 H   0  0  0  0  0  0  0  0  0  0  0  0
   -1.4151   15.8210   -3.3285 H   0  0  0  0  0  0  0  0  0  0  0  0
   -1.9209   14.9023   -4.7442 H   0  0  0  0  0  0  0  0  0  0  0  0
    0.5173   14.7071   -1.8742 H   0  0  0  0  0  0  0  0  0  0  0  0
    1.9743   14.7004   -2.9248 H   0  0  0  0  0  0  0  0  0  0  0  0
    0.8735   16.1198   -2.9248 H   0  0  0  0  0  0  0  0  0  0  0  0
   -1.0220   12.6696   -4.4718 H   0  0  0  0  0  0  0  0  0  0  0  0
   -1.7423   13.6914   -2.2186 H   0  0  0  0  0  0  0  0  0  0  0  0
   -1.7835   11.8717   -2.4965 H   0  0  0  0  0  0  0  0  0  0  0  0
   -0.8817   12.6731   -0.1543 H   0  0  0  0  0  0  0  0  0  0  0  0
    2.3972   12.6761   -2.5114 H   0  0  0  0  0  0  0  0  0  0  0  0
    1.7698    9.6905   -2.0762 H   0  0  0  0  0  0  0  0  0  0  0  0
    3.1295   10.3885   -3.0634 H   0  0  0  0  0  0  0  0  0  0  0  0
    3.8968    9.5685   -0.8598 H   0  0  0  0  0  0  0  0  0  0  0  0
    4.1247   11.3491   -1.0701 H   0  0  0  0  0  0  0  0  0  0  0  0
    3.2929   10.9351    1.1421 H   0  0  0  0  0  0  0  0  0  0  0  0
    2.2450    8.8740    0.4220 H   0  0  0  0  0  0  0  0  0  0  0  0
    2.8730   13.6006    1.3432 H   0  0  0  0  0  0  0  0  0  0  0  0
    3.6177   13.0961   -0.2117 H   0  0  0  0  0  0  0  0  0  0  0  0
    2.1879   14.1835   -0.2117 H   0  0  0  0  0  0  0  0  0  0  0  0
    1.5034   12.1214    2.4153 H   0  0  0  0  0  0  0  0  0  0  0  0
    0.2965   13.1189    1.5348 H   0  0  0  0  0  0  0  0  0  0  0  0
    0.1534   11.3283    1.5348 H   0  0  0  0  0  0  0  0  0  0  0  0
   -0.0344    9.9991   -2.9694 H   0  0  0  0  0  0  0  0  0  0  0  0
   -0.7465   10.5951   -4.5071 H   0  0  0  0  0  0  0  0  0  0  0  0
    0.8784    9.8292   -4.5071 H   0  0  0  0  0  0  0  0  0  0  0  0
    2.7711   11.6290   -4.6876 H   0  0  0  0  0  0  0  0  0  0  0  0
    1.2856   11.6920   -5.7939 H   0  0  0  0  0  0  0  0  0  0  0  0
    2.7393   14.0241   -4.5157 H   0  0  0  0  0  0  0  0  0  0  0  0
    2.6089   13.5987   -6.2675 H   0  0  0  0  0  0  0  0  0  0  0  0
   -0.8702   13.1749   -6.1448 H   0  0  0  0  0  0  0  0  0  0  0  0
   -0.4576   14.5806   -7.1843 H   0  0  0  0  0  0  0  0  0  0  0  0
    0.5939   13.1242   -7.1843 H   0  0  0  0  0  0  0  0  0  0  0  0
  1  2  1  0
  2  3  1  0
  3  4  1  0
  4  5  1  0
  5  6  1  0
  6  7  1  0
  7  8  1  0
  7  9  1  0
  2 10  1  0
 10 11  1  0
 11 12  1  0
 12 13  1  0
 13 14  1  1
 13 15  1  0
 15 16  1  0
 16 17  1  0
 17 18  2  0
 18 19  1  0
 19 20  1  0
 20 21  1  0
 21 22  1  0
 22 23  1  0
 22 24  1  0
 24 25  1  0
 24 26  1  0
 19 27  1  0
 27 28  1  6
 27 29  1  0
 29 30  1  0
 30 31  1  0
 31 32  1  6
  7  5  1  0
 31 10  1  0
 31 13  1  0
 27 15  1  0
 24 18  1  0
  1 33  1  0
  1 34  1  0
  1 35  1  0
  2 36  1  6
  3 37  1  0
  3 38  1  0
  4 39  1  0
  4 40  1  0
  5 41  1  1
  8 42  1  0
  8 43  1  0
  8 44  1  0
  9 45  1  0
  9 46  1  0
  9 47  1  0
 10 48  1  1
 11 49  1  0
 11 50  1  0
 12 51  1  0
 12 52  1  0
 14 53  1  0
 14 54  1  0
 14 55  1  0
 15 56  1  6
 16 57  1  0
 16 58  1  0
 17 59  1  0
 19 60  1  6
 20 61  1  0
 20 62  1  0
 21 63  1  0
 21 64  1  0
 22 65  1  1
 23 66  1  0
 25 67  1  0
 25 68  1  0
 25 69  1  0
 26 70  1  0
 26 71  1  0
 26 72  1  0
 28 73  1  0
 28 74  1  0
 28 75  1  0
 29 76  1  0
 29 77  1  0
 30 78  1  0
 30 79  1  0
 32 80  1  0
 32 81  1  0
 32 82  1  0
M  END
>  <meeko>  (13) 
{"is_sidechain": [false], "intermolecular_energy": 2.731, "internal_energy": -0.839}

$$$$
EPH_relaxed_0001_pdb2pqr_Repair_300_r2_0001_out
     RDKit          3D

 82 86  0  0  0  0  0  0  0  0999 V2000
   -0.7240   10.3200   -2.7970 C   0  0  0  0  0  0  0  0  0  0  0  0
   -0.0680   10.0670   -1.4370 C   0  0  2  0  0  0  0  0  0  0  0  0
   -0.9680    9.2330   -0.5040 C   0  0  0  0  0  0  0  0  0  0  0  0
   -2.1330    8.5480   -1.2230 C   0  0  0  0  0  0  0  0  0  0  0  0
   -3.4570    8.9910   -0.6800 C   0  0  2  0  0  0  0  0  0  0  0  0
   -4.0330    8.1060    0.2900 O   0  0  0  0  0  0  0  0  0  0  0  0
   -4.7580    8.2550   -0.9420 C   0  0  0  0  0  0  0  0  0  0  0  0
   -4.7970    7.0140   -1.7780 C   0  0  0  0  0  0  0  0  0  0  0  0
   -6.0460    9.0030   -0.7960 C   0  0  0  0  0  0  0  0  0  0  0  0
    0.2820   11.3950   -0.7750 C   0  0  1  0  0  0  0  0  0  0  0  0
    1.4540   11.2680    0.2350 C   0  0  0  0  0  0  0  0  0  0  0  0
    2.2620   12.5880    0.1500 C   0  0  0  0  0  0  0  0  0  0  0  0
    1.3530   13.5510   -0.6490 C   0  0  1  0  0  0  0  0  0  0  0  0
    0.3310   14.0980    0.3970 C   0  0  0  0  0  0  0  0  0  0  0  0
    2.0750   14.7100   -1.4110 C   0  0  2  0  0  0  0  0  0  0  0  0
    2.8340   15.7060   -0.5160 C   0  0  0  0  0  0  0  0  0  0  0  0
    2.0400   16.8820   -0.0540 C   0  0  0  0  0  0  0  0  0  0  0  0
    0.8620   17.2810   -0.5690 C   0  0  0  0  0  0  0  0  0  0  0  0
    0.2590   16.5800   -1.7930 C   0  0  1  0  0  0  0  0  0  0  0  0
   -0.2270   17.6440   -2.8120 C   0  0  0  0  0  0  0  0  0  0  0  0
   -1.1840   18.6560   -2.1890 C   0  0  0  0  0  0  0  0  0  0  0  0
   -0.5280   19.3740   -1.0120 C   0  0  2  0  0  0  0  0  0  0  0  0
    0.5430   20.1850   -1.5050 O   0  0  0  0  0  0  0  0  0  0  0  0
    0.0100   18.4030    0.0750 C   0  0  0  0  0  0  0  0  0  0  0  0
   -1.1790   17.7440    0.8190 C   0  0  0  0  0  0  0  0  0  0  0  0
    0.7700   19.2460    1.1340 C   0  0  0  0  0  0  0  0  0  0  0  0
    1.1630   15.4600   -2.4650 C   0  0  1  0  0  0  0  0  0  0  0  0
    2.1270   16.1070   -3.5060 C   0  0  0  0  0  0  0  0  0  0  0  0
    0.2410   14.4690   -3.2700 C   0  0  0  0  0  0  0  0  0  0  0  0
   -0.3460   13.2770   -2.4890 C   0  0  0  0  0  0  0  0  0  0  0  0
    0.7450   12.5500   -1.6970 C   0  0  2  0  0  0  0  0  0  0  0  0
    1.7760   11.9700   -2.7240 C   0  0  0  0  0  0  0  0  0  0  0  0
   -1.7407   10.7121   -2.6464 H   0  0  0  0  0  0  0  0  0  0  0  0
   -0.1282   11.0528   -3.3609 H   0  0  0  0  0  0  0  0  0  0  0  0
   -0.7745    9.3769   -3.3609 H   0  0  0  0  0  0  0  0  0  0  0  0
    0.8494    9.4865   -1.6142 H   0  0  0  0  0  0  0  0  0  0  0  0
   -0.3501    8.4578   -0.0273 H   0  0  0  0  0  0  0  0  0  0  0  0
   -1.4059    9.9290    0.2266 H   0  0  0  0  0  0  0  0  0  0  0  0
   -2.0860    8.7955   -2.2938 H   0  0  0  0  0  0  0  0  0  0  0  0
   -2.0432    7.4632   -1.0647 H   0  0  0  0  0  0  0  0  0  0  0  0
   -3.1732   10.0484   -0.7869 H   0  0  0  0  0  0  0  0  0  0  0  0
   -4.8247    6.1311   -1.1225 H   0  0  0  0  0  0  0  0  0  0  0  0
   -5.6952    7.0277   -2.4129 H   0  0  0  0  0  0  0  0  0  0  0  0
   -3.8998    6.9713   -2.4129 H   0  0  0  0  0  0  0  0  0  0  0  0
   -6.2741    9.1355    0.2719 H   0  0  0  0  0  0  0  0  0  0  0  0
   -5.9543    9.9883   -1.2763 H   0  0  0  0  0  0  0  0  0  0  0  0
   -6.8564    8.4350   -1.2763 H   0  0  0  0  0  0  0  0  0  0  0  0
   -0.6924   11.6398   -0.3271 H   0  0  0  0  0  0  0  0  0  0  0  0
    1.0629   11.1281    1.2536 H   0  0  0  0  0  0  0  0  0  0  0  0
    2.0878   10.4008   -0.0022 H   0  0  0  0  0  0  0  0  0  0  0  0
    2.4613   12.9868    1.1556 H   0  0  0  0  0  0  0  0  0  0  0  0
    3.2426   12.4469   -0.3281 H   0  0  0  0  0  0  0  0  0  0  0  0
    0.7036   13.8986    1.4126 H   0  0  0  0  0  0  0  0  0  0  0  0
    0.2085   15.1822    0.2577 H   0  0  0  0  0  0  0  0  0  0  0  0
   -0.6391   13.5985    0.2577 H   0  0  0  0  0  0  0  0  0  0  0  0
    2.8465   14.1722   -1.9815 H   0  0  0  0  0  0  0  0  0  0  0  0
    3.1863   15.1632    0.3736 H   0  0  0  0  0  0  0  0  0  0  0  0
    3.6472   16.1126   -1.1352 H   0  0  0  0  0  0  0  0  0  0  0  0
    2.4521   17.4726    0.7775 H   0  0  0  0  0  0  0  0  0  0  0  0
   -0.5989   16.0013   -1.4202 H   0  0  0  0  0  0  0  0  0  0  0  0
    0.6484   18.1819   -3.2048 H   0  0  0  0  0  0  0  0  0  0  0  0
   -0.7706   17.1179   -3.6106 H   0  0  0  0  0  0  0  0  0  0  0  0
   -1.4689   19.3977   -2.9497 H   0  0  0  0  0  0  0  0  0  0  0  0
   -2.0722   18.1202   -1.8228 H   0  0  0  0  0  0  0  0  0  0  0  0
   -1.3015   19.9887   -0.5284 H   0  0  0  0  0  0  0  0  0  0  0  0
    0.9220   19.7330   -2.2780 H   0  0  0  0  0  0  0  0  0  0  0  0
   -1.0248   17.8294    1.9048 H   0  0  0  0  0  0  0  0  0  0  0  0
   -2.1135   18.2529    0.5402 H   0  0  0  0  0  0  0  0  0  0  0  0
   -1.2427   16.6818    0.5402 H   0  0  0  0  0  0  0  0  0  0  0  0
    0.4758   18.9196    2.1424 H   0  0  0  0  0  0  0  0  0  0  0  0
    1.8535   19.1065    1.0050 H   0  0  0  0  0  0  0  0  0  0  0  0
    0.5193   20.3093    1.0050 H   0  0  0  0  0  0  0  0  0  0  0  0
    2.9285   16.6450   -2.9786 H   0  0  0  0  0  0  0  0  0  0  0  0
    2.5668   15.3205   -4.1369 H   0  0  0  0  0  0  0  0  0  0  0  0
    1.5657   16.8120   -4.1369 H   0  0  0  0  0  0  0  0  0  0  0  0
   -0.6015   15.0507   -3.6723 H   0  0  0  0  0  0  0  0  0  0  0  0
    0.8961   14.0201   -4.0311 H   0  0  0  0  0  0  0  0  0  0  0  0
   -1.1119   13.6462   -1.7911 H   0  0  0  0  0  0  0  0  0  0  0  0
   -0.7880   12.5706   -3.2071 H   0  0  0  0  0  0  0  0  0  0  0  0
    2.6099   11.5009   -2.1812 H   0  0  0  0  0  0  0  0  0  0  0  0
    1.2807   11.2181   -3.3559 H   0  0  0  0  0  0  0  0  0  0  0  0
    2.1614   12.7837   -3.3559 H   0  0  0  0  0  0  0  0  0  0  0  0
  1  2  1  0
  2  3  1  0
  3  4  1  0
  4  5  1  0
  5  6  1  0
  6  7  1  0
  7  8  1  0
  7  9  1  0
  2 10  1  0
 10 11  1  0
 11 12  1  0
 12 13  1  0
 13 14  1  1
 13 15  1  0
 15 16  1  0
 16 17  1  0
 17 18  2  0
 18 19  1  0
 19 20  1  0
 20 21  1  0
 21 22  1  0
 22 23  1  0
 22 24  1  0
 24 25  1  0
 24 26  1  0
 19 27  1  0
 27 28  1  6
 27 29  1  0
 29 30  1  0
 30 31  1  0
 31 32  1  6
  7  5  1  0
 31 10  1  0
 31 13  1  0
 27 15  1  0
 24 18  1  0
  1 33  1  0
  1 34  1  0
  1 35  1  0
  2 36  1  6
  3 37  1  0
  3 38  1  0
  4 39  1  0
  4 40  1  0
  5 41  1  1
  8 42  1  0
  8 43  1  0
  8 44  1  0
  9 45  1  0
  9 46  1  0
  9 47  1  0
 10 48  1  1
 11 49  1  0
 11 50  1  0
 12 51  1  0
 12 52  1  0
 14 53  1  0
 14 54  1  0
 14 55  1  0
 15 56  1  6
 16 57  1  0
 16 58  1  0
 17 59  1  0
 19 60  1  1
 20 61  1  0
 20 62  1  0
 21 63  1  0
 21 64  1  0
 22 65  1  1
 23 66  1  0
 25 67  1  0
 25 68  1  0
 25 69  1  0
 26 70  1  0
 26 71  1  0
 26 72  1  0
 28 73  1  0
 28 74  1  0
 28 75  1  0
 29 76  1  0
 29 77  1  0
 30 78  1  0
 30 79  1  0
 32 80  1  0
 32 81  1  0
 32 82  1  0
M  END
>  <meeko>  (14) 
{"is_sidechain": [false], "intermolecular_energy": 2.731, "internal_energy": -0.839}

$$$$
EPH_relaxed_0001_pdb2pqr_Repair_300_r2_0001_out
     RDKit          3D

 82 86  0  0  0  0  0  0  0  0999 V2000
   -0.4720   16.3940   -5.5170 C   0  0  0  0  0  0  0  0  0  0  0  0
    0.4520   15.6090   -6.4540 C   0  0  2  0  0  0  0  0  0  0  0  0
   -0.1130   15.5210   -7.8860 C   0  0  0  0  0  0  0  0  0  0  0  0
    0.4790   16.5560   -8.8460 C   0  0  0  0  0  0  0  0  0  0  0  0
    1.8620   16.1790   -9.2840 C   0  0  2  0  0  0  0  0  0  0  0  0
    2.2730   16.7540  -10.5310 O   0  0  0  0  0  0  0  0  0  0  0  0
    2.1500   15.3220  -10.5020 C   0  0  0  0  0  0  0  0  0  0  0  0
    1.0450   14.7890  -11.3590 C   0  0  0  0  0  0  0  0  0  0  0  0
    3.4600   14.6030  -10.5780 C   0  0  0  0  0  0  0  0  0  0  0  0
    0.6870   14.2100   -5.8990 C   0  0  1  0  0  0  0  0  0  0  0  0
    2.0250   13.5910   -6.3850 C   0  0  0  0  0  0  0  0  0  0  0  0
    2.5730   12.7340   -5.2160 C   0  0  0  0  0  0  0  0  0  0  0  0
    1.3880   12.6180   -4.2280 C   0  0  1  0  0  0  0  0  0  0  0  0
    0.4920   11.4790   -4.8090 C   0  0  0  0  0  0  0  0  0  0  0  0
    1.7580   12.3550   -2.7320 C   0  0  2  0  0  0  0  0  0  0  0  0
    2.4880   11.0270   -2.4640 C   0  0  0  0  0  0  0  0  0  0  0  0
    1.6030    9.8640   -2.1570 C   0  0  0  0  0  0  0  0  0  0  0  0
    0.3020    9.9380   -1.8190 C   0  0  0  0  0  0  0  0  0  0  0  0
   -0.3830   11.2960   -1.6210 C   0  0  1  0  0  0  0  0  0  0  0  0
   -1.2140   11.2710   -0.3120 C   0  0  0  0  0  0  0  0  0  0  0  0
   -2.2000   10.1080   -0.2670 C   0  0  0  0  0  0  0  0  0  0  0  0
   -1.4740    8.7720   -0.4080 C   0  0  2  0  0  0  0  0  0  0  0  0
   -0.6600    8.5660    0.7500 O   0  0  0  0  0  0  0  0  0  0  0  0
   -0.5960    8.6840   -1.6880 C   0  0  0  0  0  0  0  0  0  0  0  0
   -1.5060    8.6050   -2.9390 C   0  0  0  0  0  0  0  0  0  0  0  0
    0.1890    7.3460   -1.6370 C   0  0  0  0  0  0  0  0  0  0  0  0
    0.5610   12.5710   -1.7200 C   0  0  1  0  0  0  0  0  0  0  0  0
    1.2010   12.8680   -0.3300 C   0  0  0  0  0  0  0  0  0  0  0  0
   -0.3110   13.8300   -2.0860 C   0  0  0  0  0  0  0  0  0  0  0  0
   -0.5420   14.1040   -3.5840 C   0  0  0  0  0  0  0  0  0  0  0  0
    0.7790   14.0610   -4.3590 C   0  0  2  0  0  0  0  0  0  0  0  0
    1.6920   15.2100   -3.8120 C   0  0  0  0  0  0  0  0  0  0  0  0
   -0.2098   16.1712   -4.4722 H   0  0  0  0  0  0  0  0  0  0  0  0
   -0.3532   17.4716   -5.7031 H   0  0  0  0  0  0  0  0  0  0  0  0
   -1.5163   16.1027   -5.7031 H   0  0  0  0  0  0  0  0  0  0  0  0
    1.4072   16.1517   -6.5092 H   0  0  0  0  0  0  0  0  0  0  0  0
    0.1006   14.5174   -8.2825 H   0  0  0  0  0  0  0  0  0  0  0  0
   -1.1918   15.7250   -7.8189 H   0  0  0  0  0  0  0  0  0  0  0  0
   -0.1677   16.6307   -9.7326 H   0  0  0  0  0  0  0  0  0  0  0  0
    0.5373   17.5193   -8.3181 H   0  0  0  0  0  0  0  0  0  0  0  0
    2.1996   16.1126   -8.2392 H   0  0  0  0  0  0  0  0  0  0  0  0
    0.2393   14.4004  -10.7188 H   0  0  0  0  0  0  0  0  0  0  0  0
    0.6515   15.5964  -11.9941 H   0  0  0  0  0  0  0  0  0  0  0  0
    1.4319   13.9785  -11.9941 H   0  0  0  0  0  0  0  0  0  0  0  0
    3.8272   14.4015   -9.5609 H   0  0  0  0  0  0  0  0  0  0  0  0
    3.3258   13.6521  -11.1145 H   0  0  0  0  0  0  0  0  0  0  0  0
    4.1901   15.2268  -11.1145 H   0  0  0  0  0  0  0  0  0  0  0  0
   -0.2188   13.7099   -6.2724 H   0  0  0  0  0  0  0  0  0  0  0  0
    1.8511   12.9592   -7.2685 H   0  0  0  0  0  0  0  0  0  0  0  0
    2.7422   14.3751   -6.6694 H   0  0  0  0  0  0  0  0  0  0  0  0
    2.8791   11.7398   -5.5736 H   0  0  0  0  0  0  0  0  0  0  0  0
    3.4621   13.1839   -4.7500 H   0  0  0  0  0  0  0  0  0  0  0  0
    0.0430   10.9082   -3.9828 H   0  0  0  0  0  0  0  0  0  0  0  0
   -0.3050   11.9185   -5.4268 H   0  0  0  0  0  0  0  0  0  0  0  0
    1.1068   10.8079   -5.4268 H   0  0  0  0  0  0  0  0  0  0  0  0
    2.4940   13.1469   -2.5289 H   0  0  0  0  0  0  0  0  0  0  0  0
    3.0794   10.7778   -3.3574 H   0  0  0  0  0  0  0  0  0  0  0  0
    3.0984   11.1912   -1.5638 H   0  0  0  0  0  0  0  0  0  0  0  0
    2.0524    8.8615   -2.2117 H   0  0  0  0  0  0  0  0  0  0  0  0
   -1.0509   11.4275   -2.4850 H   0  0  0  0  0  0  0  0  0  0  0  0
   -0.5253   11.1826    0.5412 H   0  0  0  0  0  0  0  0  0  0  0  0
   -1.7956   12.2036   -0.2680 H   0  0  0  0  0  0  0  0  0  0  0  0
   -2.7358   10.1271    0.6935 H   0  0  0  0  0  0  0  0  0  0  0  0
   -2.9066   10.2139   -1.1034 H   0  0  0  0  0  0  0  0  0  0  0  0
   -2.2398    7.9877   -0.4994 H   0  0  0  0  0  0  0  0  0  0  0  0
   -0.6250    7.6090    0.9180 H   0  0  0  0  0  0  0  0  0  0  0  0
   -2.5559    8.5139   -2.6236 H   0  0  0  0  0  0  0  0  0  0  0  0
   -1.3819    9.5173   -3.5409 H   0  0  0  0  0  0  0  0  0  0  0  0
   -1.2265    7.7277   -3.5409 H   0  0  0  0  0  0  0  0  0  0  0  0
    0.3572    7.0593   -0.5884 H   0  0  0  0  0  0  0  0  0  0  0  0
   -0.3916    6.5607   -2.1432 H   0  0  0  0  0  0  0  0  0  0  0  0
    1.1577    7.4697   -2.1432 H   0  0  0  0  0  0  0  0  0  0  0  0
    0.5127   12.5486    0.4664 H   0  0  0  0  0  0  0  0  0  0  0  0
    2.1490   12.3178   -0.2377 H   0  0  0  0  0  0  0  0  0  0  0  0
    1.3929   13.9472   -0.2377 H   0  0  0  0  0  0  0  0  0  0  0  0
   -1.2969   13.6999   -1.6157 H   0  0  0  0  0  0  0  0  0  0  0  0
    0.2639   14.6939   -1.7210 H   0  0  0  0  0  0  0  0  0  0  0  0
   -1.2219   13.3400   -3.9890 H   0  0  0  0  0  0  0  0  0  0  0  0
   -0.9808   15.1067   -3.6938 H   0  0  0  0  0  0  0  0  0  0  0  0
    1.6804   15.1954   -2.7122 H   0  0  0  0  0  0  0  0  0  0  0  0
    2.7216   15.0620   -4.1698 H   0  0  0  0  0  0  0  0  0  0  0  0
    1.3152   16.1795   -4.1698 H   0  0  0  0  0  0  0  0  0  0  0  0
  1  2  1  0
  2  3  1  0
  3  4  1  0
  4  5  1  0
  5  6  1  0
  6  7  1  0
  7  8  1  0
  7  9  1  0
  2 10  1  0
 10 11  1  0
 11 12  1  0
 12 13  1  0
 13 14  1  6
 13 15  1  0
 15 16  1  0
 16 17  1  0
 17 18  2  0
 18 19  1  0
 19 20  1  0
 20 21  1  0
 21 22  1  0
 22 23  1  0
 22 24  1  0
 24 25  1  0
 24 26  1  0
 19 27  1  0
 27 28  1  1
 27 29  1  0
 29 30  1  0
 30 31  1  0
 31 32  1  1
  7  5  1  0
 31 10  1  0
 31 13  1  0
 27 15  1  0
 24 18  1  0
  1 33  1  0
  1 34  1  0
  1 35  1  0
  2 36  1  6
  3 37  1  0
  3 38  1  0
  4 39  1  0
  4 40  1  0
  5 41  1  1
  8 42  1  0
  8 43  1  0
  8 44  1  0
  9 45  1  0
  9 46  1  0
  9 47  1  0
 10 48  1  6
 11 49  1  0
 11 50  1  0
 12 51  1  0
 12 52  1  0
 14 53  1  0
 14 54  1  0
 14 55  1  0
 15 56  1  1
 16 57  1  0
 16 58  1  0
 17 59  1  0
 19 60  1  6
 20 61  1  0
 20 62  1  0
 21 63  1  0
 21 64  1  0
 22 65  1  6
 23 66  1  0
 25 67  1  0
 25 68  1  0
 25 69  1  0
 26 70  1  0
 26 71  1  0
 26 72  1  0
 28 73  1  0
 28 74  1  0
 28 75  1  0
 29 76  1  0
 29 77  1  0
 30 78  1  0
 30 79  1  0
 32 80  1  0
 32 81  1  0
 32 82  1  0
M  END
>  <meeko>  (15) 
{"is_sidechain": [false], "intermolecular_energy": 2.731, "internal_energy": -0.839}

$$$$
EPH_relaxed_0001_pdb2pqr_Repair_300_r2_0001_out
     RDKit          3D

 82 86  0  0  0  0  0  0  0  0999 V2000
    0.1710    9.7300   -4.4300 C   0  0  0  0  0  0  0  0  0  0  0  0
    1.2380   10.5040   -3.6510 C   0  0  2  0  0  0  0  0  0  0  0  0
    1.7120    9.7380   -2.4000 C   0  0  0  0  0  0  0  0  0  0  0  0
    0.7550    8.6280   -1.9570 C   0  0  0  0  0  0  0  0  0  0  0  0
   -0.1710    9.0930   -0.8750 C   0  0  2  0  0  0  0  0  0  0  0  0
   -0.8050    8.0410   -0.1350 O   0  0  0  0  0  0  0  0  0  0  0  0
   -1.6730    8.8830   -0.9110 C   0  0  0  0  0  0  0  0  0  0  0  0
   -2.3360    8.1830   -2.0560 C   0  0  0  0  0  0  0  0  0  0  0  0
   -2.5420    9.7780   -0.0830 C   0  0  0  0  0  0  0  0  0  0  0  0
    0.6990   11.8720   -3.2500 C   0  0  1  0  0  0  0  0  0  0  0  0
   -0.7860   11.8220   -2.8030 C   0  0  0  0  0  0  0  0  0  0  0  0
   -0.9500   12.8730   -1.6750 C   0  0  0  0  0  0  0  0  0  0  0  0
    0.3450   13.7170   -1.7380 C   0  0  1  0  0  0  0  0  0  0  0  0
    0.1030   14.7360   -2.8950 C   0  0  0  0  0  0  0  0  0  0  0  0
    0.7660   14.4350   -0.4150 C   0  0  2  0  0  0  0  0  0  0  0  0
   -0.2340   15.4810    0.1070 C   0  0  0  0  0  0  0  0  0  0  0  0
   -0.0170   16.8730   -0.3870 C   0  0  0  0  0  0  0  0  0  0  0  0
    1.1000   17.3260   -0.9850 C   0  0  0  0  0  0  0  0  0  0  0  0
    2.3350   16.4270   -1.1290 C   0  0  1  0  0  0  0  0  0  0  0  0
    3.6020   17.2180   -0.7090 C   0  0  0  0  0  0  0  0  0  0  0  0
    3.7480   18.5350   -1.4640 C   0  0  0  0  0  0  0  0  0  0  0  0
    2.5260   19.4250   -1.2490 C   0  0  2  0  0  0  0  0  0  0  0  0
    2.4850   19.8280    0.1230 O   0  0  0  0  0  0  0  0  0  0  0  0
    1.1880   18.7310   -1.6300 C   0  0  0  0  0  0  0  0  0  0  0  0
    1.1070   18.5660   -3.1680 C   0  0  0  0  0  0  0  0  0  0  0  0
    0.0270   19.6830   -1.2330 C   0  0  0  0  0  0  0  0  0  0  0  0
    2.2430   15.0040   -0.4280 C   0  0  1  0  0  0  0  0  0  0  0  0
    2.6910   15.1150    1.0610 C   0  0  0  0  0  0  0  0  0  0  0  0
    3.2570   14.0210   -1.1250 C   0  0  0  0  0  0  0  0  0  0  0  0
    2.7430   13.2510   -2.3560 C   0  0  0  0  0  0  0  0  0  0  0  0
    1.3910   12.5910   -2.0650 C   0  0  2  0  0  0  0  0  0  0  0  0
    1.6080   11.5440   -0.9190 C   0  0  0  0  0  0  0  0  0  0  0  0
   -0.5116    9.2348   -3.7237 H   0  0  0  0  0  0  0  0  0  0  0  0
   -0.3983   10.4266   -5.0630 H   0  0  0  0  0  0  0  0  0  0  0  0
    0.6564    8.9725   -5.0630 H   0  0  0  0  0  0  0  0  0  0  0  0
    2.1077   10.6267   -4.3133 H   0  0  0  0  0  0  0  0  0  0  0  0
    2.6902    9.2855   -2.6201 H   0  0  0  0  0  0  0  0  0  0  0  0
    1.7613   10.4664   -1.5772 H   0  0  0  0  0  0  0  0  0  0  0  0
    0.1580    8.3056   -2.8228 H   0  0  0  0  0  0  0  0  0  0  0  0
    1.3554    7.7962   -1.5601 H   0  0  0  0  0  0  0  0  0  0  0  0
    0.4450    9.9876   -0.7011 H   0  0  0  0  0  0  0  0  0  0  0  0
   -3.0439    7.4356   -1.6685 H   0  0  0  0  0  0  0  0  0  0  0  0
   -2.8777    8.9171   -2.6705 H   0  0  0  0  0  0  0  0  0  0  0  0
   -1.5736    7.6819   -2.6705 H   0  0  0  0  0  0  0  0  0  0  0  0
   -2.3553    9.5857    0.9838 H   0  0  0  0  0  0  0  0  0  0  0  0
   -2.3102   10.8286   -0.3123 H   0  0  0  0  0  0  0  0  0  0  0  0
   -3.5989    9.5773   -0.3123 H   0  0  0  0  0  0  0  0  0  0  0  0
    0.8843   12.4227   -4.1840 H   0  0  0  0  0  0  0  0  0  0  0  0
   -1.4446   12.0685   -3.6489 H   0  0  0  0  0  0  0  0  0  0  0  0
   -1.0578   10.8168   -2.4484 H   0  0  0  0  0  0  0  0  0  0  0  0
   -1.8334   13.5029   -1.8563 H   0  0  0  0  0  0  0  0  0  0  0  0
   -1.0977   12.4078   -0.6892 H   0  0  0  0  0  0  0  0  0  0  0  0
   -0.1315   15.7235   -2.4708 H   0  0  0  0  0  0  0  0  0  0  0  0
    1.0088   14.8089   -3.5148 H   0  0  0  0  0  0  0  0  0  0  0  0
   -0.7389   14.3939   -3.5148 H   0  0  0  0  0  0  0  0  0  0  0  0
    0.7465   13.6128    0.3155 H   0  0  0  0  0  0  0  0  0  0  0  0
   -1.2437   15.1665   -0.1956 H   0  0  0  0  0  0  0  0  0  0  0  0
   -0.0927   15.5195    1.1972 H   0  0  0  0  0  0  0  0  0  0  0  0
   -0.8405   17.5894   -0.2505 H   0  0  0  0  0  0  0  0  0  0  0  0
    2.3961   16.1622   -2.1949 H   0  0  0  0  0  0  0  0  0  0  0  0
    3.5416   17.4340    0.3679 H   0  0  0  0  0  0  0  0  0  0  0  0
    4.4775   16.5971   -0.9497 H   0  0  0  0  0  0  0  0  0  0  0  0
    4.6442   19.0602   -1.1020 H   0  0  0  0  0  0  0  0  0  0  0  0
    3.8385   18.3160   -2.5382 H   0  0  0  0  0  0  0  0  0  0  0  0
    2.6295   20.2940   -1.9154 H   0  0  0  0  0  0  0  0  0  0  0  0
    3.2670   19.4530    0.5630 H   0  0  0  0  0  0  0  0  0  0  0  0
    0.6340   17.6026   -3.4090 H   0  0  0  0  0  0  0  0  0  0  0  0
    0.5085   19.3849   -3.5936 H   0  0  0  0  0  0  0  0  0  0  0  0
    2.1210   18.5933   -3.5936 H   0  0  0  0  0  0  0  0  0  0  0  0
   -0.0421   19.7397   -0.1366 H   0  0  0  0  0  0  0  0  0  0  0  0
    0.2199   20.6863   -1.6406 H   0  0  0  0  0  0  0  0  0  0  0  0
   -0.9191   19.2973   -1.6406 H   0  0  0  0  0  0  0  0  0  0  0  0
    1.8349   14.9029    1.7183 H   0  0  0  0  0  0  0  0  0  0  0  0
    3.4931   14.3884    1.2577 H   0  0  0  0  0  0  0  0  0  0  0  0
    3.0611   16.1320    1.2577 H   0  0  0  0  0  0  0  0  0  0  0  0
    4.1287   14.6121   -1.4423 H   0  0  0  0  0  0  0  0  0  0  0  0
    3.4730   13.2488   -0.3720 H   0  0  0  0  0  0  0  0  0  0  0  0
    2.6280   13.9514   -3.1964 H   0  0  0  0  0  0  0  0  0  0  0  0
    3.4703   12.4648   -2.6067 H   0  0  0  0  0  0  0  0  0  0  0  0
    1.5049   12.0416    0.0566 H   0  0  0  0  0  0  0  0  0  0  0  0
    0.8563   10.7455   -1.0047 H   0  0  0  0  0  0  0  0  0  0  0  0
    2.6152   11.1101   -1.0047 H   0  0  0  0  0  0  0  0  0  0  0  0
  1  2  1  0
  2  3  1  0
  3  4  1  0
  4  5  1  0
  5  6  1  0
  6  7  1  0
  7  8  1  0
  7  9  1  0
  2 10  1  0
 10 11  1  0
 11 12  1  0
 12 13  1  0
 13 14  1  6
 13 15  1  0
 15 16  1  0
 16 17  1  0
 17 18  2  0
 18 19  1  0
 19 20  1  0
 20 21  1  0
 21 22  1  0
 22 23  1  0
 22 24  1  0
 24 25  1  0
 24 26  1  0
 19 27  1  0
 27 28  1  1
 27 29  1  0
 29 30  1  0
 30 31  1  0
 31 32  1  1
  7  5  1  0
 31 10  1  0
 31 13  1  0
 27 15  1  0
 24 18  1  0
  1 33  1  0
  1 34  1  0
  1 35  1  0
  2 36  1  6
  3 37  1  0
  3 38  1  0
  4 39  1  0
  4 40  1  0
  5 41  1  1
  8 42  1  0
  8 43  1  0
  8 44  1  0
  9 45  1  0
  9 46  1  0
  9 47  1  0
 10 48  1  6
 11 49  1  0
 11 50  1  0
 12 51  1  0
 12 52  1  0
 14 53  1  0
 14 54  1  0
 14 55  1  0
 15 56  1  1
 16 57  1  0
 16 58  1  0
 17 59  1  0
 19 60  1  6
 20 61  1  0
 20 62  1  0
 21 63  1  0
 21 64  1  0
 22 65  1  6
 23 66  1  0
 25 67  1  0
 25 68  1  0
 25 69  1  0
 26 70  1  0
 26 71  1  0
 26 72  1  0
 28 73  1  0
 28 74  1  0
 28 75  1  0
 29 76  1  0
 29 77  1  0
 30 78  1  0
 30 79  1  0
 32 80  1  0
 32 81  1  0
 32 82  1  0
M  END
>  <meeko>  (16) 
{"is_sidechain": [false], "intermolecular_energy": 2.731, "internal_energy": -0.839}

$$$$
EPH_relaxed_0001_pdb2pqr_Repair_300_r2_0001_out
     RDKit          3D

 82 86  0  0  0  0  0  0  0  0999 V2000
    0.1370   19.0820   -2.5530 C   0  0  0  0  0  0  0  0  0  0  0  0
   -0.0920   18.1130   -1.3900 C   0  0  2  0  0  0  0  0  0  0  0  0
    0.5760   18.6000   -0.0880 C   0  0  0  0  0  0  0  0  0  0  0  0
    1.7650   19.5370   -0.3200 C   0  0  0  0  0  0  0  0  0  0  0  0
    2.5840   19.7100    0.9230 C   0  0  2  0  0  0  0  0  0  0  0  0
    3.9160   20.1910    0.7000 O   0  0  0  0  0  0  0  0  0  0  0  0
    3.8030   18.8670    1.2460 C   0  0  0  0  0  0  0  0  0  0  0  0
    4.2710   17.7860    0.3220 C   0  0  0  0  0  0  0  0  0  0  0  0
    4.2450   18.7630    2.6720 C   0  0  0  0  0  0  0  0  0  0  0  0
    0.4300   16.7280   -1.7560 C   0  0  1  0  0  0  0  0  0  0  0  0
    1.8900   16.7600   -2.2800 C   0  0  0  0  0  0  0  0  0  0  0  0
    2.5700   15.4570   -1.7870 C   0  0  0  0  0  0  0  0  0  0  0  0
    1.4040   14.5730   -1.2870 C   0  0  1  0  0  0  0  0  0  0  0  0
    0.8110   13.9240   -2.5760 C   0  0  0  0  0  0  0  0  0  0  0  0
    1.7640   13.4960   -0.2120 C   0  0  2  0  0  0  0  0  0  0  0  0
    2.7620   12.4200   -0.6750 C   0  0  0  0  0  0  0  0  0  0  0  0
    2.1500   11.2020   -1.2840 C   0  0  0  0  0  0  0  0  0  0  0  0
    0.8530   10.8510   -1.1960 C   0  0  0  0  0  0  0  0  0  0  0  0
   -0.1280   11.6670   -0.3440 C   0  0  1  0  0  0  0  0  0  0  0  0
   -0.9830   10.7060    0.5230 C   0  0  0  0  0  0  0  0  0  0  0  0
   -1.6830    9.6350   -0.3080 C   0  0  0  0  0  0  0  0  0  0  0  0
   -0.6710    8.8080   -1.0960 C   0  0  2  0  0  0  0  0  0  0  0  0
    0.1230    8.0520   -0.1760 O   0  0  0  0  0  0  0  0  0  0  0  0
    0.2550    9.6700   -1.9990 C   0  0  0  0  0  0  0  0  0  0  0  0
   -0.5640   10.2500   -3.1800 C   0  0  0  0  0  0  0  0  0  0  0  0
    1.3180    8.7300   -2.6290 C   0  0  0  0  0  0  0  0  0  0  0  0
    0.5090   12.8500    0.5050 C   0  0  1  0  0  0  0  0  0  0  0  0
    1.0110   12.3100    1.8790 C   0  0  0  0  0  0  0  0  0  0  0  0
   -0.6080   13.9120    0.8260 C   0  0  0  0  0  0  0  0  0  0  0  0
   -0.8350   15.0200   -0.2200 C   0  0  0  0  0  0  0  0  0  0  0  0
    0.4910   15.6700   -0.6260 C   0  0  2  0  0  0  0  0  0  0  0  0
    1.1010   16.3500    0.6470 C   0  0  0  0  0  0  0  0  0  0  0  0
    0.3730   20.0808   -2.1571 H   0  0  0  0  0  0  0  0  0  0  0  0
    0.9753   18.7242   -3.1688 H   0  0  0  0  0  0  0  0  0  0  0  0
   -0.7728   19.1373   -3.1688 H   0  0  0  0  0  0  0  0  0  0  0  0
   -1.1758   18.0658   -1.2079 H   0  0  0  0  0  0  0  0  0  0  0  0
   -0.1767   19.1352    0.5095 H   0  0  0  0  0  0  0  0  0  0  0  0
    0.9642   17.7090    0.4272 H   0  0  0  0  0  0  0  0  0  0  0  0
    2.4023   19.1153   -1.1112 H   0  0  0  0  0  0  0  0  0  0  0  0
    1.3735   20.5223   -0.6131 H   0  0  0  0  0  0  0  0  0  0  0  0
    1.6870   19.9638    1.5069 H   0  0  0  0  0  0  0  0  0  0  0  0
    4.6399   16.9339    0.9117 H   0  0  0  0  0  0  0  0  0  0  0  0
    3.4343   17.4581   -0.3123 H   0  0  0  0  0  0  0  0  0  0  0  0
    5.0827   18.1718   -0.3123 H   0  0  0  0  0  0  0  0  0  0  0  0
    3.3914   18.9639    3.3360 H   0  0  0  0  0  0  0  0  0  0  0  0
    4.6285   17.7501    2.8641 H   0  0  0  0  0  0  0  0  0  0  0  0
    5.0400   19.4986    2.8641 H   0  0  0  0  0  0  0  0  0  0  0  0
   -0.3239   16.4373   -2.5024 H   0  0  0  0  0  0  0  0  0  0  0  0
    1.8973   16.7987   -3.3793 H   0  0  0  0  0  0  0  0  0  0  0  0
    2.4232   17.6483   -1.9104 H   0  0  0  0  0  0  0  0  0  0  0  0
    3.1060   14.9631   -2.6109 H   0  0  0  0  0  0  0  0  0  0  0  0
    3.3156   15.6474   -1.0010 H   0  0  0  0  0  0  0  0  0  0  0  0
    0.0937   13.1390   -2.2946 H   0  0  0  0  0  0  0  0  0  0  0  0
    0.2976   14.6936   -3.1711 H   0  0  0  0  0  0  0  0  0  0  0  0
    1.6237   13.4819   -3.1711 H   0  0  0  0  0  0  0  0  0  0  0  0
    2.2948   14.0893    0.5471 H   0  0  0  0  0  0  0  0  0  0  0  0
    3.4296   12.8745   -1.4218 H   0  0  0  0  0  0  0  0  0  0  0  0
    3.2828   12.0779    0.2315 H   0  0  0  0  0  0  0  0  0  0  0  0
    2.8147   10.5350   -1.8526 H   0  0  0  0  0  0  0  0  0  0  0  0
   -0.7737   12.2044   -1.0541 H   0  0  0  0  0  0  0  0  0  0  0  0
   -0.3261   10.2118    1.2540 H   0  0  0  0  0  0  0  0  0  0  0  0
   -1.7608   11.3058    1.0183 H   0  0  0  0  0  0  0  0  0  0  0  0
   -2.2468    8.9701    0.3629 H   0  0  0  0  0  0  0  0  0  0  0  0
   -2.3615   10.1297   -1.0186 H   0  0  0  0  0  0  0  0  0  0  0  0
   -1.2378    8.1472   -1.7684 H   0  0  0  0  0  0  0  0  0  0  0  0
    0.3680    7.2190   -0.6140 H   0  0  0  0  0  0  0  0  0  0  0  0
   -1.4027   10.8440   -2.7878 H   0  0  0  0  0  0  0  0  0  0  0  0
    0.0838   10.8918   -3.7952 H   0  0  0  0  0  0  0  0  0  0  0  0
   -0.9544    9.4259   -3.7952 H   0  0  0  0  0  0  0  0  0  0  0  0
    1.8843    8.2292   -1.8299 H   0  0  0  0  0  0  0  0  0  0  0  0
    0.8165    7.9746   -3.2517 H   0  0  0  0  0  0  0  0  0  0  0  0
    2.0064    9.3202   -3.2517 H   0  0  0  0  0  0  0  0  0  0  0  0
    0.5068   12.8523    2.6925 H   0  0  0  0  0  0  0  0  0  0  0  0
    0.7823   11.2369    1.9569 H   0  0  0  0  0  0  0  0  0  0  0  0
    2.0980   12.4599    1.9569 H   0  0  0  0  0  0  0  0  0  0  0  0
   -1.5574   13.3698    0.9477 H   0  0  0  0  0  0  0  0  0  0  0  0
   -0.2567   14.4353    1.7276 H   0  0  0  0  0  0  0  0  0  0  0  0
   -1.3089   14.5822   -1.1109 H   0  0  0  0  0  0  0  0  0  0  0  0
   -1.4834   15.7914    0.2210 H   0  0  0  0  0  0  0  0  0  0  0  0
    0.6811   15.8819    1.5495 H   0  0  0  0  0  0  0  0  0  0  0  0
    2.1936   16.2230    0.6426 H   0  0  0  0  0  0  0  0  0  0  0  0
    0.8565   17.4225    0.6426 H   0  0  0  0  0  0  0  0  0  0  0  0
  1  2  1  0
  2  3  1  0
  3  4  1  0
  4  5  1  0
  5  6  1  0
  6  7  1  0
  7  8  1  0
  7  9  1  0
  2 10  1  0
 10 11  1  0
 11 12  1  0
 12 13  1  0
 13 14  1  6
 13 15  1  0
 15 16  1  0
 16 17  1  0
 17 18  2  0
 18 19  1  0
 19 20  1  0
 20 21  1  0
 21 22  1  0
 22 23  1  0
 22 24  1  0
 24 25  1  0
 24 26  1  0
 19 27  1  0
 27 28  1  1
 27 29  1  0
 29 30  1  0
 30 31  1  0
 31 32  1  1
  7  5  1  0
 31 10  1  0
 31 13  1  0
 27 15  1  0
 24 18  1  0
  1 33  1  0
  1 34  1  0
  1 35  1  0
  2 36  1  1
  3 37  1  0
  3 38  1  0
  4 39  1  0
  4 40  1  0
  5 41  1  1
  8 42  1  0
  8 43  1  0
  8 44  1  0
  9 45  1  0
  9 46  1  0
  9 47  1  0
 10 48  1  6
 11 49  1  0
 11 50  1  0
 12 51  1  0
 12 52  1  0
 14 53  1  0
 14 54  1  0
 14 55  1  0
 15 56  1  1
 16 57  1  0
 16 58  1  0
 17 59  1  0
 19 60  1  6
 20 61  1  0
 20 62  1  0
 21 63  1  0
 21 64  1  0
 22 65  1  6
 23 66  1  0
 25 67  1  0
 25 68  1  0
 25 69  1  0
 26 70  1  0
 26 71  1  0
 26 72  1  0
 28 73  1  0
 28 74  1  0
 28 75  1  0
 29 76  1  0
 29 77  1  0
 30 78  1  0
 30 79  1  0
 32 80  1  0
 32 81  1  0
 32 82  1  0
M  END
>  <meeko>  (17) 
{"is_sidechain": [false], "intermolecular_energy": 2.731, "internal_energy": -0.839}

$$$$
EPH_relaxed_0001_pdb2pqr_Repair_300_r2_0001_out
     RDKit          3D

 82 86  0  0  0  0  0  0  0  0999 V2000
   -2.4560    7.7230   -0.0550 C   0  0  0  0  0  0  0  0  0  0  0  0
   -3.1480    9.0880   -0.1250 C   0  0  2  0  0  0  0  0  0  0  0  0
   -4.6060    8.9750   -0.6130 C   0  0  0  0  0  0  0  0  0  0  0  0
   -5.1180    7.5350   -0.6970 C   0  0  0  0  0  0  0  0  0  0  0  0
   -5.9550    7.3140   -1.9200 C   0  0  2  0  0  0  0  0  0  0  0  0
   -6.8690    8.3770   -2.2190 O   0  0  0  0  0  0  0  0  0  0  0  0
   -7.4580    7.1110   -1.8800 C   0  0  0  0  0  0  0  0  0  0  0  0
   -8.2120    7.1180   -0.5870 C   0  0  0  0  0  0  0  0  0  0  0  0
   -8.1190    6.4240   -3.0340 C   0  0  0  0  0  0  0  0  0  0  0  0
   -2.3640   10.0220   -1.0390 C   0  0  1  0  0  0  0  0  0  0  0  0
   -3.0110   11.4270   -1.1540 C   0  0  0  0  0  0  0  0  0  0  0  0
   -1.8500   12.4470   -1.2800 C   0  0  0  0  0  0  0  0  0  0  0  0
   -0.6010   11.5810   -1.5660 C   0  0  1  0  0  0  0  0  0  0  0  0
   -0.6650   11.2750   -3.0950 C   0  0  0  0  0  0  0  0  0  0  0  0
    0.7770   12.1990   -1.1580 C   0  0  2  0  0  0  0  0  0  0  0  0
    1.1520   13.4970   -1.8940 C   0  0  0  0  0  0  0  0  0  0  0  0
    1.9250   13.3140   -3.1570 C   0  0  0  0  0  0  0  0  0  0  0  0
    2.5490   12.1820   -3.5360 C   0  0  0  0  0  0  0  0  0  0  0  0
    2.5940   10.9610   -2.6090 C   0  0  1  0  0  0  0  0  0  0  0  0
    4.0390   10.3970   -2.5660 C   0  0  0  0  0  0  0  0  0  0  0  0
    4.5910   10.0960   -3.9560 C   0  0  0  0  0  0  0  0  0  0  0  0
    4.5830   11.3480   -4.8290 C   0  0  2  0  0  0  0  0  0  0  0  0
    5.5190   12.2890   -4.2930 O   0  0  0  0  0  0  0  0  0  0  0  0
    3.1810   12.0100   -4.9380 C   0  0  0  0  0  0  0  0  0  0  0  0
    2.2470   11.1120   -5.7860 C   0  0  0  0  0  0  0  0  0  0  0  0
    3.3410   13.3380   -5.7270 C   0  0  0  0  0  0  0  0  0  0  0  0
    1.9760   11.1670   -1.1590 C   0  0  1  0  0  0  0  0  0  0  0  0
    3.0590   11.7420   -0.1960 C   0  0  0  0  0  0  0  0  0  0  0  0
    1.5600    9.7660   -0.5740 C   0  0  0  0  0  0  0  0  0  0  0  0
    0.1440    9.2640   -0.9130 C   0  0  0  0  0  0  0  0  0  0  0  0
   -0.9030   10.3480   -0.6380 C   0  0  2  0  0  0  0  0  0  0  0  0
   -0.8760   10.6600    0.8970 C   0  0  0  0  0  0  0  0  0  0  0  0
   -2.3118    7.4386    0.9978 H   0  0  0  0  0  0  0  0  0  0  0  0
   -3.0807    6.9690   -0.5563 H   0  0  0  0  0  0  0  0  0  0  0  0
   -1.4786    7.7813   -0.5563 H   0  0  0  0  0  0  0  0  0  0  0  0
   -3.1719    9.4996    0.8948 H   0  0  0  0  0  0  0  0  0  0  0  0
   -5.2494    9.5320    0.0839 H   0  0  0  0  0  0  0  0  0  0  0  0
   -4.6360    9.3863   -1.6328 H   0  0  0  0  0  0  0  0  0  0  0  0
   -4.2565    6.8517   -0.7266 H   0  0  0  0  0  0  0  0  0  0  0  0
   -5.7445    7.3421    0.1863 H   0  0  0  0  0  0  0  0  0  0  0  0
   -5.1462    6.7430   -2.3994 H   0  0  0  0  0  0  0  0  0  0  0  0
   -7.5009    7.1114    0.2522 H   0  0  0  0  0  0  0  0  0  0  0  0
   -8.8363    8.0220   -0.5315 H   0  0  0  0  0  0  0  0  0  0  0  0
   -8.8530    6.2258   -0.5315 H   0  0  0  0  0  0  0  0  0  0  0  0
   -8.8353    5.6796   -2.6562 H   0  0  0  0  0  0  0  0  0  0  0  0
   -8.6510    7.1665   -3.6469 H   0  0  0  0  0  0  0  0  0  0  0  0
   -7.3565    5.9211   -3.6469 H   0  0  0  0  0  0  0  0  0  0  0  0
   -2.3772    9.4280   -1.9647 H   0  0  0  0  0  0  0  0  0  0  0  0
   -3.6555   11.4752   -2.0441 H   0  0  0  0  0  0  0  0  0  0  0  0
   -3.6353   11.6467   -0.2754 H   0  0  0  0  0  0  0  0  0  0  0  0
   -2.0357   13.1467   -2.1083 H   0  0  0  0  0  0  0  0  0  0  0  0
   -1.7339   13.0615   -0.3751 H   0  0  0  0  0  0  0  0  0  0  0  0
   -0.8880   10.2086   -3.2465 H   0  0  0  0  0  0  0  0  0  0  0  0
   -1.4552   11.8842   -3.5581 H   0  0  0  0  0  0  0  0  0  0  0  0
    0.3031   11.5165   -3.5581 H   0  0  0  0  0  0  0  0  0  0  0  0
    0.6060   12.4875   -0.1104 H   0  0  0  0  0  0  0  0  0  0  0  0
    0.2212   14.0294   -2.1395 H   0  0  0  0  0  0  0  0  0  0  0  0
    1.8116   14.0534   -1.2119 H   0  0  0  0  0  0  0  0  0  0  0  0
    1.9909   14.1767   -3.8363 H   0  0  0  0  0  0  0  0  0  0  0  0
    1.9155   10.2175   -3.0526 H   0  0  0  0  0  0  0  0  0  0  0  0
    4.6920   11.1368   -2.0799 H   0  0  0  0  0  0  0  0  0  0  0  0
    4.0117    9.4509   -2.0055 H   0  0  0  0  0  0  0  0  0  0  0  0
    5.6239    9.7296   -3.8616 H   0  0  0  0  0  0  0  0  0  0  0  0
    3.9543    9.3340   -4.4292 H   0  0  0  0  0  0  0  0  0  0  0  0
    4.8652   11.0423   -5.8473 H   0  0  0  0  0  0  0  0  0  0  0  0
    5.7880   11.9690   -3.4160 H   0  0  0  0  0  0  0  0  0  0  0  0
    1.6164   10.5057   -5.1190 H   0  0  0  0  0  0  0  0  0  0  0  0
    1.6081   11.7436   -6.4207 H   0  0  0  0  0  0  0  0  0  0  0  0
    2.8530   10.4487   -6.4207 H   0  0  0  0  0  0  0  0  0  0  0  0
    3.4418   14.1747   -5.0200 H   0  0  0  0  0  0  0  0  0  0  0  0
    4.2390   13.2826   -6.3599 H   0  0  0  0  0  0  0  0  0  0  0  0
    2.4556   13.4974   -6.3599 H   0  0  0  0  0  0  0  0  0  0  0  0
    2.7479   11.5768    0.8461 H   0  0  0  0  0  0  0  0  0  0  0  0
    4.0178   11.2341   -0.3773 H   0  0  0  0  0  0  0  0  0  0  0  0
    3.1754   12.8207   -0.3773 H   0  0  0  0  0  0  0  0  0  0  0  0
    2.2762    9.0217   -0.9521 H   0  0  0  0  0  0  0  0  0  0  0  0
    1.5647    9.8975    0.5181 H   0  0  0  0  0  0  0  0  0  0  0  0
    0.1053    8.9881   -1.9771 H   0  0  0  0  0  0  0  0  0  0  0  0
   -0.0796    8.3922   -0.2806 H   0  0  0  0  0  0  0  0  0  0  0  0
   -0.9573    9.7206    1.4636 H   0  0  0  0  0  0  0  0  0  0  0  0
    0.0689   11.1618    1.1526 H   0  0  0  0  0  0  0  0  0  0  0  0
   -1.7207   11.3166    1.1526 H   0  0  0  0  0  0  0  0  0  0  0  0
  1  2  1  0
  2  3  1  0
  3  4  1  0
  4  5  1  0
  5  6  1  0
  6  7  1  0
  7  8  1  0
  7  9  1  0
  2 10  1  0
 10 11  1  0
 11 12  1  0
 12 13  1  0
 13 14  1  6
 13 15  1  0
 15 16  1  0
 16 17  1  0
 17 18  2  0
 18 19  1  0
 19 20  1  0
 20 21  1  0
 21 22  1  0
 22 23  1  0
 22 24  1  0
 24 25  1  0
 24 26  1  0
 19 27  1  0
 27 28  1  1
 27 29  1  0
 29 30  1  0
 30 31  1  0
 31 32  1  1
  7  5  1  0
 31 10  1  0
 31 13  1  0
 27 15  1  0
 24 18  1  0
  1 33  1  0
  1 34  1  0
  1 35  1  0
  2 36  1  1
  3 37  1  0
  3 38  1  0
  4 39  1  0
  4 40  1  0
  5 41  1  6
  8 42  1  0
  8 43  1  0
  8 44  1  0
  9 45  1  0
  9 46  1  0
  9 47  1  0
 10 48  1  6
 11 49  1  0
 11 50  1  0
 12 51  1  0
 12 52  1  0
 14 53  1  0
 14 54  1  0
 14 55  1  0
 15 56  1  1
 16 57  1  0
 16 58  1  0
 17 59  1  0
 19 60  1  6
 20 61  1  0
 20 62  1  0
 21 63  1  0
 21 64  1  0
 22 65  1  6
 23 66  1  0
 25 67  1  0
 25 68  1  0
 25 69  1  0
 26 70  1  0
 26 71  1  0
 26 72  1  0
 28 73  1  0
 28 74  1  0
 28 75  1  0
 29 76  1  0
 29 77  1  0
 30 78  1  0
 30 79  1  0
 32 80  1  0
 32 81  1  0
 32 82  1  0
M  END
>  <meeko>  (18) 
{"is_sidechain": [false], "intermolecular_energy": 2.731, "internal_energy": -0.839}

$$$$
EPH_relaxed_0001_pdb2pqr_Repair_300_r2_0001_out
     RDKit          3D

 82 86  0  0  0  0  0  0  0  0999 V2000
   -1.9570   14.4640    0.2450 C   0  0  0  0  0  0  0  0  0  0  0  0
   -0.6140   15.1520    0.5070 C   0  0  2  0  0  0  0  0  0  0  0  0
   -0.4580   16.4520   -0.3080 C   0  0  0  0  0  0  0  0  0  0  0  0
    0.9860   16.7510   -0.7180 C   0  0  0  0  0  0  0  0  0  0  0  0
    1.0500   17.7500   -1.8340 C   0  0  2  0  0  0  0  0  0  0  0  0
    2.3420   18.3350   -2.0410 O   0  0  0  0  0  0  0  0  0  0  0  0
    1.3000   19.2310   -1.6190 C   0  0  0  0  0  0  0  0  0  0  0  0
    1.5020   19.7970   -0.2490 C   0  0  0  0  0  0  0  0  0  0  0  0
    0.8640   20.1920   -2.6810 C   0  0  0  0  0  0  0  0  0  0  0  0
    0.5300   14.1970    0.1880 C   0  0  1  0  0  0  0  0  0  0  0  0
    0.7410   13.1270    1.2920 C   0  0  0  0  0  0  0  0  0  0  0  0
    1.1840   11.8250    0.5760 C   0  0  0  0  0  0  0  0  0  0  0  0
    1.5320   12.2720   -0.8630 C   0  0  1  0  0  0  0  0  0  0  0  0
    2.9760   12.8570   -0.7640 C   0  0  0  0  0  0  0  0  0  0  0  0
    1.4300   11.1730   -1.9710 C   0  0  2  0  0  0  0  0  0  0  0  0
    2.3880    9.9820   -1.7990 C   0  0  0  0  0  0  0  0  0  0  0  0
    3.7170   10.1300   -2.4640 C   0  0  0  0  0  0  0  0  0  0  0  0
    4.0230   11.0440   -3.4030 C   0  0  0  0  0  0  0  0  0  0  0  0
    2.9520   11.9920   -3.9590 C   0  0  1  0  0  0  0  0  0  0  0  0
    3.0510   12.0340   -5.5070 C   0  0  0  0  0  0  0  0  0  0  0  0
    4.4530   12.3870   -5.9940 C   0  0  0  0  0  0  0  0  0  0  0  0
    5.4810   11.3890   -5.4680 C   0  0  2  0  0  0  0  0  0  0  0  0
    5.2310   10.1120   -6.0640 O   0  0  0  0  0  0  0  0  0  0  0  0
    5.4680   11.2540   -3.9200 C   0  0  0  0  0  0  0  0  0  0  0  0
    6.0290   12.5480   -3.2800 C   0  0  0  0  0  0  0  0  0  0  0  0
    6.4500   10.1160   -3.5310 C   0  0  0  0  0  0  0  0  0  0  0  0
    1.4690   11.7370   -3.4490 C   0  0  1  0  0  0  0  0  0  0  0  0
    0.7720   10.6730   -4.3500 C   0  0  0  0  0  0  0  0  0  0  0  0
    0.6370   13.0650   -3.6050 C   0  0  0  0  0  0  0  0  0  0  0  0
    0.6830   14.0560   -2.4260 C   0  0  0  0  0  0  0  0  0  0  0  0
    0.4060   13.3430   -1.0990 C   0  0  2  0  0  0  0  0  0  0  0  0
   -1.0480   12.7630   -1.1610 C   0  0  0  0  0  0  0  0  0  0  0  0
   -2.4364   14.2184    1.2041 H   0  0  0  0  0  0  0  0  0  0  0  0
   -2.6091   15.1391   -0.3286 H   0  0  0  0  0  0  0  0  0  0  0  0
   -1.7901   13.5404   -0.3286 H   0  0  0  0  0  0  0  0  0  0  0  0
   -0.5846   15.4250    1.5722 H   0  0  0  0  0  0  0  0  0  0  0  0
   -1.0672   16.3656   -1.2198 H   0  0  0  0  0  0  0  0  0  0  0  0
   -0.7864   17.2787    0.3391 H   0  0  0  0  0  0  0  0  0  0  0  0
    1.5275   17.1524    0.1513 H   0  0  0  0  0  0  0  0  0  0  0  0
    1.4436   15.8145   -1.0695 H   0  0  0  0  0  0  0  0  0  0  0  0
    0.2755   17.2068   -2.3953 H   0  0  0  0  0  0  0  0  0  0  0  0
    1.2323   19.0412    0.5034 H   0  0  0  0  0  0  0  0  0  0  0  0
    2.5570   20.0811   -0.1215 H   0  0  0  0  0  0  0  0  0  0  0  0
    0.8652   20.6849   -0.1215 H   0  0  0  0  0  0  0  0  0  0  0  0
    0.4533   21.0973   -2.2101 H   0  0  0  0  0  0  0  0  0  0  0  0
    1.7271   20.4635   -3.3066 H   0  0  0  0  0  0  0  0  0  0  0  0
    0.0913   19.7213   -3.3066 H   0  0  0  0  0  0  0  0  0  0  0  0
    1.3504   14.9220    0.0815 H   0  0  0  0  0  0  0  0  0  0  0  0
    1.5205   13.4566    1.9947 H   0  0  0  0  0  0  0  0  0  0  0  0
   -0.1828   12.9662    1.8671 H   0  0  0  0  0  0  0  0  0  0  0  0
    2.0644   11.3895    1.0712 H   0  0  0  0  0  0  0  0  0  0  0  0
    0.4027   11.0509    0.5956 H   0  0  0  0  0  0  0  0  0  0  0  0
    3.2542   12.9697    0.2943 H   0  0  0  0  0  0  0  0  0  0  0  0
    3.6829   12.1743   -1.2582 H   0  0  0  0  0  0  0  0  0  0  0  0
    3.0084   13.8392   -1.2582 H   0  0  0  0  0  0  0  0  0  0  0  0
    0.4196   10.7692   -1.8098 H   0  0  0  0  0  0  0  0  0  0  0  0
    2.5610    9.8380   -0.7223 H   0  0  0  0  0  0  0  0  0  0  0  0
    1.8984    9.1255   -2.2855 H   0  0  0  0  0  0  0  0  0  0  0  0
    4.5125    9.4334   -2.1608 H   0  0  0  0  0  0  0  0  0  0  0  0
    3.1789   12.9849   -3.5436 H   0  0  0  0  0  0  0  0  0  0  0  0
    2.7780   11.0454   -5.9048 H   0  0  0  0  0  0  0  0  0  0  0  0
    2.3663   12.8173   -5.8643 H   0  0  0  0  0  0  0  0  0  0  0  0
    4.4665   12.3716   -7.0938 H   0  0  0  0  0  0  0  0  0  0  0  0
    4.7127   13.3883   -5.6199 H   0  0  0  0  0  0  0  0  0  0  0  0
    6.4771   11.7672   -5.7414 H   0  0  0  0  0  0  0  0  0  0  0  0
    6.0800    9.6420   -6.1180 H   0  0  0  0  0  0  0  0  0  0  0  0
    5.9913   12.4612   -2.1841 H   0  0  0  0  0  0  0  0  0  0  0  0
    7.0711   12.6937   -3.6007 H   0  0  0  0  0  0  0  0  0  0  0  0
    5.4230   13.4082   -3.6007 H   0  0  0  0  0  0  0  0  0  0  0  0
    6.5122   10.0440   -2.4351 H   0  0  0  0  0  0  0  0  0  0  0  0
    6.0868    9.1621   -3.9411 H   0  0  0  0  0  0  0  0  0  0  0  0
    7.4468   10.3357   -3.9411 H   0  0  0  0  0  0  0  0  0  0  0  0
    0.2796    9.9213   -3.7157 H   0  0  0  0  0  0  0  0  0  0  0  0
    0.0210   11.1656   -4.9851 H   0  0  0  0  0  0  0  0  0  0  0  0
    1.5236   10.1813   -4.9851 H   0  0  0  0  0  0  0  0  0  0  0  0
    1.0121   13.5900   -4.4959 H   0  0  0  0  0  0  0  0  0  0  0  0
   -0.4124   12.7415   -3.6684 H   0  0  0  0  0  0  0  0  0  0  0  0
    1.6797   14.5194   -2.3842 H   0  0  0  0  0  0  0  0  0  0  0  0
   -0.0915   14.8215   -2.5810 H   0  0  0  0  0  0  0  0  0  0  0  0
   -1.4264   12.6120   -0.1392 H   0  0  0  0  0  0  0  0  0  0  0  0
   -1.7020   13.4691   -1.6937 H   0  0  0  0  0  0  0  0  0  0  0  0
   -1.0365   11.8006   -1.6937 H   0  0  0  0  0  0  0  0  0  0  0  0
  1  2  1  0
  2  3  1  0
  3  4  1  0
  4  5  1  0
  5  6  1  0
  6  7  1  0
  7  8  1  0
  7  9  1  0
  2 10  1  0
 10 11  1  0
 11 12  1  0
 12 13  1  0
 13 14  1  1
 13 15  1  0
 15 16  1  0
 16 17  1  0
 17 18  2  0
 18 19  1  0
 19 20  1  0
 20 21  1  0
 21 22  1  0
 22 23  1  0
 22 24  1  0
 24 25  1  0
 24 26  1  0
 19 27  1  0
 27 28  1  6
 27 29  1  0
 29 30  1  0
 30 31  1  0
 31 32  1  6
  7  5  1  0
 31 10  1  0
 31 13  1  0
 27 15  1  0
 24 18  1  0
  1 33  1  0
  1 34  1  0
  1 35  1  0
  2 36  1  1
  3 37  1  0
  3 38  1  0
  4 39  1  0
  4 40  1  0
  5 41  1  6
  8 42  1  0
  8 43  1  0
  8 44  1  0
  9 45  1  0
  9 46  1  0
  9 47  1  0
 10 48  1  6
 11 49  1  0
 11 50  1  0
 12 51  1  0
 12 52  1  0
 14 53  1  0
 14 54  1  0
 14 55  1  0
 15 56  1  1
 16 57  1  0
 16 58  1  0
 17 59  1  0
 19 60  1  1
 20 61  1  0
 20 62  1  0
 21 63  1  0
 21 64  1  0
 22 65  1  6
 23 66  1  0
 25 67  1  0
 25 68  1  0
 25 69  1  0
 26 70  1  0
 26 71  1  0
 26 72  1  0
 28 73  1  0
 28 74  1  0
 28 75  1  0
 29 76  1  0
 29 77  1  0
 30 78  1  0
 30 79  1  0
 32 80  1  0
 32 81  1  0
 32 82  1  0
M  END
>  <meeko>  (19) 
{"is_sidechain": [false], "intermolecular_energy": 2.731, "internal_energy": -0.839}

$$$$
EPH_relaxed_0001_pdb2pqr_Repair_300_r2_0001_out
     RDKit          3D

 82 86  0  0  0  0  0  0  0  0999 V2000
    3.6030   17.7980    1.0050 C   0  0  0  0  0  0  0  0  0  0  0  0
    2.5760   17.9940   -0.1130 C   0  0  2  0  0  0  0  0  0  0  0  0
    1.8400   19.3440    0.0040 C   0  0  0  0  0  0  0  0  0  0  0  0
    1.8930   20.1870   -1.2720 C   0  0  0  0  0  0  0  0  0  0  0  0
    1.4650   19.4000   -2.4740 C   0  0  2  0  0  0  0  0  0  0  0  0
    1.0820   20.1950   -3.6050 O   0  0  0  0  0  0  0  0  0  0  0  0
    0.0460   19.3960   -3.0100 C   0  0  0  0  0  0  0  0  0  0  0  0
   -1.0380   20.1940   -2.3560 C   0  0  0  0  0  0  0  0  0  0  0  0
   -0.3940   18.2470   -3.8630 C   0  0  0  0  0  0  0  0  0  0  0  0
    1.5700   16.8490   -0.1010 C   0  0  1  0  0  0  0  0  0  0  0  0
    0.1200   17.3250   -0.3790 C   0  0  0  0  0  0  0  0  0  0  0  0
   -0.5740   16.1990   -1.1870 C   0  0  0  0  0  0  0  0  0  0  0  0
    0.3780   14.9860   -1.0620 C   0  0  1  0  0  0  0  0  0  0  0  0
    0.0510   14.3610    0.3300 C   0  0  0  0  0  0  0  0  0  0  0  0
    0.2970   13.9230   -2.2060 C   0  0  2  0  0  0  0  0  0  0  0  0
   -1.0600   13.2110   -2.3390 C   0  0  0  0  0  0  0  0  0  0  0  0
   -1.2020   11.9550   -1.5430 C   0  0  0  0  0  0  0  0  0  0  0  0
   -0.1920   11.2680   -0.9800 C   0  0  0  0  0  0  0  0  0  0  0  0
    1.2670   11.6890   -1.2010 C   0  0  1  0  0  0  0  0  0  0  0  0
    2.1190   10.4420   -1.5510 C   0  0  0  0  0  0  0  0  0  0  0  0
    1.9830    9.3300   -0.5150 C   0  0  0  0  0  0  0  0  0  0  0  0
    0.5270    8.8980   -0.3670 C   0  0  2  0  0  0  0  0  0  0  0  0
    0.1050    8.2750   -1.5840 O   0  0  0  0  0  0  0  0  0  0  0  0
   -0.4290   10.0740   -0.0230 C   0  0  0  0  0  0  0  0  0  0  0  0
   -0.1650   10.5530    1.4260 C   0  0  0  0  0  0  0  0  0  0  0  0
   -1.8830    9.5290   -0.0410 C   0  0  0  0  0  0  0  0  0  0  0  0
    1.4950   12.8900   -2.2160 C   0  0  1  0  0  0  0  0  0  0  0  0
    1.5980   12.3420   -3.6730 C   0  0  0  0  0  0  0  0  0  0  0  0
    2.8780   13.5740   -1.9010 C   0  0  0  0  0  0  0  0  0  0  0  0
    2.8720   14.6990   -0.8490 C   0  0  0  0  0  0  0  0  0  0  0  0
    1.7670   15.7180   -1.1420 C   0  0  2  0  0  0  0  0  0  0  0  0
    2.0810   16.3800   -2.5270 C   0  0  0  0  0  0  0  0  0  0  0  0
    3.1050   17.8930    1.9812 H   0  0  0  0  0  0  0  0  0  0  0  0
    4.0527   16.7978    0.9186 H   0  0  0  0  0  0  0  0  0  0  0  0
    4.3894   18.5623    0.9186 H   0  0  0  0  0  0  0  0  0  0  0  0
    3.1228   17.9984   -1.0675 H   0  0  0  0  0  0  0  0  0  0  0  0
    0.7854   19.1447    0.2448 H   0  0  0  0  0  0  0  0  0  0  0  0
    2.3489   19.9201    0.7908 H   0  0  0  0  0  0  0  0  0  0  0  0
    1.2240   21.0524   -1.1557 H   0  0  0  0  0  0  0  0  0  0  0  0
    2.9328   20.5109   -1.4264 H   0  0  0  0  0  0  0  0  0  0  0  0
    2.1585   18.5858   -2.2169 H   0  0  0  0  0  0  0  0  0  0  0  0
   -0.9386   20.1208   -1.2629 H   0  0  0  0  0  0  0  0  0  0  0  0
   -0.9536   21.2472   -2.6622 H   0  0  0  0  0  0  0  0  0  0  0  0
   -2.0185   19.8006   -2.6622 H   0  0  0  0  0  0  0  0  0  0  0  0
   -0.7131   17.4138   -3.2196 H   0  0  0  0  0  0  0  0  0  0  0  0
   -1.2349   18.5627   -4.4981 H   0  0  0  0  0  0  0  0  0  0  0  0
    0.4426   17.9203   -4.4981 H   0  0  0  0  0  0  0  0  0  0  0  0
    1.7444   16.4612    0.9135 H   0  0  0  0  0  0  0  0  0  0  0  0
   -0.4116   17.4935    0.5692 H   0  0  0  0  0  0  0  0  0  0  0  0
    0.1160   18.2721   -0.9384 H   0  0  0  0  0  0  0  0  0  0  0  0
   -1.5598   15.9648   -0.7589 H   0  0  0  0  0  0  0  0  0  0  0  0
   -0.7504   16.4849   -2.2345 H   0  0  0  0  0  0  0  0  0  0  0  0
    0.4030   15.0338    1.1258 H   0  0  0  0  0  0  0  0  0  0  0  0
   -1.0361   14.2207    0.4227 H   0  0  0  0  0  0  0  0  0  0  0  0
    0.5555   13.3879    0.4227 H   0  0  0  0  0  0  0  0  0  0  0  0
    0.4005   14.5405   -3.1104 H   0  0  0  0  0  0  0  0  0  0  0  0
   -1.8442   13.9103   -2.0134 H   0  0  0  0  0  0  0  0  0  0  0  0
   -1.1456   12.9137   -3.3946 H   0  0  0  0  0  0  0  0  0  0  0  0
   -2.2187   11.5583   -1.4056 H   0  0  0  0  0  0  0  0  0  0  0  0
    1.6083   12.1166   -0.2467 H   0  0  0  0  0  0  0  0  0  0  0  0
    1.7932   10.0554   -2.5279 H   0  0  0  0  0  0  0  0  0  0  0  0
    3.1739   10.7533   -1.5697 H   0  0  0  0  0  0  0  0  0  0  0  0
    2.5844    8.4657   -0.8334 H   0  0  0  0  0  0  0  0  0  0  0  0
    2.3374    9.7085    0.4551 H   0  0  0  0  0  0  0  0  0  0  0  0
    0.4757    8.1951    0.4776 H   0  0  0  0  0  0  0  0  0  0  0  0
   -0.8520    8.1150   -1.5160 H   0  0  0  0  0  0  0  0  0  0  0  0
   -0.5708    9.8166    2.1353 H   0  0  0  0  0  0  0  0  0  0  0  0
    0.9183   10.6578    1.5859 H   0  0  0  0  0  0  0  0  0  0  0  0
   -0.6549   11.5248    1.5859 H   0  0  0  0  0  0  0  0  0  0  0  0
   -2.2376    9.3961    0.9918 H   0  0  0  0  0  0  0  0  0  0  0  0
   -2.5359   10.2434   -0.5638 H   0  0  0  0  0  0  0  0  0  0  0  0
   -1.9055    8.5614   -0.5638 H   0  0  0  0  0  0  0  0  0  0  0  0
    1.8011   11.2613   -3.6448 H   0  0  0  0  0  0  0  0  0  0  0  0
    0.6501   12.5233   -4.2008 H   0  0  0  0  0  0  0  0  0  0  0  0
    2.4154   12.8551   -4.2008 H   0  0  0  0  0  0  0  0  0  0  0  0
    3.5639   12.7904   -1.5466 H   0  0  0  0  0  0  0  0  0  0  0  0
    3.1798   14.0598   -2.8406 H   0  0  0  0  0  0  0  0  0  0  0  0
    2.7027   14.2606    0.1456 H   0  0  0  0  0  0  0  0  0  0  0  0
    3.8428   15.2152   -0.8822 H   0  0  0  0  0  0  0  0  0  0  0  0
    2.5473   17.3632   -2.3661 H   0  0  0  0  0  0  0  0  0  0  0  0
    2.7695   15.7359   -3.0936 H   0  0  0  0  0  0  0  0  0  0  0  0
    1.1466   16.5057   -3.0936 H   0  0  0  0  0  0  0  0  0  0  0  0
  1  2  1  0
  2  3  1  0
  3  4  1  0
  4  5  1  0
  5  6  1  0
  6  7  1  0
  7  8  1  0
  7  9  1  0
  2 10  1  0
 10 11  1  0
 11 12  1  0
 12 13  1  0
 13 14  1  1
 13 15  1  0
 15 16  1  0
 16 17  1  0
 17 18  2  0
 18 19  1  0
 19 20  1  0
 20 21  1  0
 21 22  1  0
 22 23  1  0
 22 24  1  0
 24 25  1  0
 24 26  1  0
 19 27  1  0
 27 28  1  6
 27 29  1  0
 29 30  1  0
 30 31  1  0
 31 32  1  6
  7  5  1  0
 31 10  1  0
 31 13  1  0
 27 15  1  0
 24 18  1  0
  1 33  1  0
  1 34  1  0
  1 35  1  0
  2 36  1  6
  3 37  1  0
  3 38  1  0
  4 39  1  0
  4 40  1  0
  5 41  1  6
  8 42  1  0
  8 43  1  0
  8 44  1  0
  9 45  1  0
  9 46  1  0
  9 47  1  0
 10 48  1  1
 11 49  1  0
 11 50  1  0
 12 51  1  0
 12 52  1  0
 14 53  1  0
 14 54  1  0
 14 55  1  0
 15 56  1  6
 16 57  1  0
 16 58  1  0
 17 59  1  0
 19 60  1  1
 20 61  1  0
 20 62  1  0
 21 63  1  0
 21 64  1  0
 22 65  1  1
 23 66  1  0
 25 67  1  0
 25 68  1  0
 25 69  1  0
 26 70  1  0
 26 71  1  0
 26 72  1  0
 28 73  1  0
 28 74  1  0
 28 75  1  0
 29 76  1  0
 29 77  1  0
 30 78  1  0
 30 79  1  0
 32 80  1  0
 32 81  1  0
 32 82  1  0
M  END
>  <meeko>  (20) 
{"is_sidechain": [false], "intermolecular_energy": 2.731, "internal_energy": -0.839}

$$$$
