EPH_relaxed_0001_pdb2pqr_Repair_87_r2_0001_out
     RDKit          3D

 82 86  0  0  0  0  0  0  0  0999 V2000
   -1.4190    8.4950   -1.8130 C   0  0  0  0  0  0  0  0  0  0  0  0
   -1.8560    9.0800   -0.4670 C   0  0  2  0  0  0  0  0  0  0  0  0
   -3.3520    9.4510   -0.4530 C   0  0  0  0  0  0  0  0  0  0  0  0
   -4.2870    8.2410   -0.5330 C   0  0  0  0  0  0  0  0  0  0  0  0
   -4.6910    7.9460   -1.9460 C   0  0  2  0  0  0  0  0  0  0  0  0
   -6.0850    7.6630   -2.1240 O   0  0  0  0  0  0  0  0  0  0  0  0
   -5.1790    6.5860   -2.4100 C   0  0  0  0  0  0  0  0  0  0  0  0
   -5.2870    5.4310   -1.4640 C   0  0  0  0  0  0  0  0  0  0  0  0
   -5.0830    6.2500   -3.8660 C   0  0  0  0  0  0  0  0  0  0  0  0
   -1.0120   10.3060   -0.1350 C   0  0  1  0  0  0  0  0  0  0  0  0
    0.0690   10.0130    0.9390 C   0  0  0  0  0  0  0  0  0  0  0  0
    1.3050   10.8750    0.5750 C   0  0  0  0  0  0  0  0  0  0  0  0
    0.7860   11.8730   -0.4870 C   0  0  1  0  0  0  0  0  0  0  0  0
    0.0840   13.0010    0.3320 C   0  0  0  0  0  0  0  0  0  0  0  0
    1.8550   12.4530   -1.4700 C   0  0  2  0  0  0  0  0  0  0  0  0
    2.9650   13.2880   -0.8090 C   0  0  0  0  0  0  0  0  0  0  0  0
    2.6820   14.7500   -0.6980 C   0  0  0  0  0  0  0  0  0  0  0  0
    1.7170   15.4130   -1.3610 C   0  0  0  0  0  0  0  0  0  0  0  0
    0.8470   14.7000   -2.4050 C   0  0  1  0  0  0  0  0  0  0  0  0
    0.7490   15.5770   -3.6810 C   0  0  0  0  0  0  0  0  0  0  0  0
    0.2620   16.9910   -3.3840 C   0  0  0  0  0  0  0  0  0  0  0  0
    1.1840   17.6870   -2.3860 C   0  0  2  0  0  0  0  0  0  0  0  0
    2.4590   17.8940   -3.0040 O   0  0  0  0  0  0  0  0  0  0  0  0
    1.3680   16.8920   -1.0630 C   0  0  0  0  0  0  0  0  0  0  0  0
    0.0510   16.9270   -0.2480 C   0  0  0  0  0  0  0  0  0  0  0  0
    2.4290   17.6310   -0.2050 C   0  0  0  0  0  0  0  0  0  0  0  0
    1.2430   13.1950   -2.7270 C   0  0  1  0  0  0  0  0  0  0  0  0
    2.3350   13.1590   -3.8400 C   0  0  0  0  0  0  0  0  0  0  0  0
   -0.0120   12.4470   -3.3120 C   0  0  0  0  0  0  0  0  0  0  0  0
   -0.9670   11.7920   -2.2950 C   0  0  0  0  0  0  0  0  0  0  0  0
   -0.1920   10.9380   -1.2870 C   0  0  2  0  0  0  0  0  0  0  0  0
    0.5080    9.7810   -2.0790 C   0  0  0  0  0  0  0  0  0  0  0  0
   -0.7688    7.6246   -1.6408 H   0  0  0  0  0  0  0  0  0  0  0  0
   -2.3067    8.1826   -2.3826 H   0  0  0  0  0  0  0  0  0  0  0  0
   -0.8676    9.2576   -2.3826 H   0  0  0  0  0  0  0  0  0  0  0  0
   -1.7017    8.3038    0.2970 H   0  0  0  0  0  0  0  0  0  0  0  0
   -3.5663    9.9945    0.4790 H   0  0  0  0  0  0  0  0  0  0  0  0
   -3.5400   10.0623   -1.3480 H   0  0  0  0  0  0  0  0  0  0  0  0
   -3.7699    7.3627   -0.1192 H   0  0  0  0  0  0  0  0  0  0  0  0
   -5.1956    8.4706    0.0430 H   0  0  0  0  0  0  0  0  0  0  0  0
   -3.9164    8.6240   -2.3337 H   0  0  0  0  0  0  0  0  0  0  0  0
   -5.2524    5.8007   -0.4286 H   0  0  0  0  0  0  0  0  0  0  0  0
   -6.2382    4.9054   -1.6341 H   0  0  0  0  0  0  0  0  0  0  0  0
   -4.4497    4.7382   -1.6341 H   0  0  0  0  0  0  0  0  0  0  0  0
   -4.7824    5.1981   -3.9805 H   0  0  0  0  0  0  0  0  0  0  0  0
   -6.0616    6.4058   -4.3436 H   0  0  0  0  0  0  0  0  0  0  0  0
   -4.3344    6.8993   -4.3436 H   0  0  0  0  0  0  0  0  0  0  0  0
   -1.8067   10.9968    0.1832 H   0  0  0  0  0  0  0  0  0  0  0  0
   -0.3039   10.2875    1.9368 H   0  0  0  0  0  0  0  0  0  0  0  0
    0.3254    8.9435    0.9604 H   0  0  0  0  0  0  0  0  0  0  0  0
    1.6796   11.4099    1.4602 H   0  0  0  0  0  0  0  0  0  0  0  0
    2.1423   10.2669    0.2019 H   0  0  0  0  0  0  0  0  0  0  0  0
    0.2066   12.8040    1.4072 H   0  0  0  0  0  0  0  0  0  0  0  0
    0.5378   13.9716    0.0830 H   0  0  0  0  0  0  0  0  0  0  0  0
   -0.9872   13.0225    0.0830 H   0  0  0  0  0  0  0  0  0  0  0  0
    2.3494   11.5445   -1.8445 H   0  0  0  0  0  0  0  0  0  0  0  0
    3.1276   12.8951    0.2055 H   0  0  0  0  0  0  0  0  0  0  0  0
    3.8450   13.1968   -1.4626 H   0  0  0  0  0  0  0  0  0  0  0  0
    3.3166   15.3349   -0.0160 H   0  0  0  0  0  0  0  0  0  0  0  0
   -0.1481   14.5905   -1.9493 H   0  0  0  0  0  0  0  0  0  0  0  0
    1.7448   15.6373   -4.1445 H   0  0  0  0  0  0  0  0  0  0  0  0
    0.0166   15.1065   -4.3535 H   0  0  0  0  0  0  0  0  0  0  0  0
    0.2424   17.5690   -4.3197 H   0  0  0  0  0  0  0  0  0  0  0  0
   -0.7461   16.9309   -2.9480 H   0  0  0  0  0  0  0  0  0  0  0  0
    0.7135   18.6433   -2.1138 H   0  0  0  0  0  0  0  0  0  0  0  0
    3.0320   17.1500   -2.7530 H   0  0  0  0  0  0  0  0  0  0  0  0
    0.2847   16.9208    0.8269 H   0  0  0  0  0  0  0  0  0  0  0  0
   -0.5096   17.8404   -0.4961 H   0  0  0  0  0  0  0  0  0  0  0  0
   -0.5573   16.0447   -0.4961 H   0  0  0  0  0  0  0  0  0  0  0  0
    2.2092   17.4779    0.8619 H   0  0  0  0  0  0  0  0  0  0  0  0
    3.4283   17.2325   -0.4343 H   0  0  0  0  0  0  0  0  0  0  0  0
    2.4016   18.7065   -0.4343 H   0  0  0  0  0  0  0  0  0  0  0  0
    3.3314   13.1262   -3.3751 H   0  0  0  0  0  0  0  0  0  0  0  0
    2.1923   12.2651   -4.4649 H   0  0  0  0  0  0  0  0  0  0  0  0
    2.2515   14.0604   -4.4649 H   0  0  0  0  0  0  0  0  0  0  0  0
   -0.5943   13.1778   -3.8925 H   0  0  0  0  0  0  0  0  0  0  0  0
    0.3983   11.6129   -3.9001 H   0  0  0  0  0  0  0  0  0  0  0  0
   -1.5129   12.5796   -1.7549 H   0  0  0  0  0  0  0  0  0  0  0  0
   -1.6678   11.1423   -2.8398 H   0  0  0  0  0  0  0  0  0  0  0  0
    0.9431    9.0619   -1.3694 H   0  0  0  0  0  0  0  0  0  0  0  0
   -0.2323    9.2696   -2.7118 H   0  0  0  0  0  0  0  0  0  0  0  0
    1.3046   10.1994   -2.7118 H   0  0  0  0  0  0  0  0  0  0  0  0
  1  2  1  0
  2  3  1  0
  3  4  1  0
  4  5  1  0
  5  6  1  0
  6  7  1  0
  7  8  1  0
  7  9  1  0
  2 10  1  0
 10 11  1  0
 11 12  1  0
 12 13  1  0
 13 14  1  1
 13 15  1  0
 15 16  1  0
 16 17  1  0
 17 18  2  0
 18 19  1  0
 19 20  1  0
 20 21  1  0
 21 22  1  0
 22 23  1  0
 22 24  1  0
 24 25  1  0
 24 26  1  0
 19 27  1  0
 27 28  1  6
 27 29  1  0
 29 30  1  0
 30 31  1  0
 31 32  1  6
  7  5  1  0
 31 10  1  0
 31 13  1  0
 27 15  1  0
 24 18  1  0
  1 33  1  0
  1 34  1  0
  1 35  1  0
  2 36  1  1
  3 37  1  0
  3 38  1  0
  4 39  1  0
  4 40  1  0
  5 41  1  6
  8 42  1  0
  8 43  1  0
  8 44  1  0
  9 45  1  0
  9 46  1  0
  9 47  1  0
 10 48  1  1
 11 49  1  0
 11 50  1  0
 12 51  1  0
 12 52  1  0
 14 53  1  0
 14 54  1  0
 14 55  1  0
 15 56  1  6
 16 57  1  0
 16 58  1  0
 17 59  1  0
 19 60  1  1
 20 61  1  0
 20 62  1  0
 21 63  1  0
 21 64  1  0
 22 65  1  1
 23 66  1  0
 25 67  1  0
 25 68  1  0
 25 69  1  0
 26 70  1  0
 26 71  1  0
 26 72  1  0
 28 73  1  0
 28 74  1  0
 28 75  1  0
 29 76  1  0
 29 77  1  0
 30 78  1  0
 30 79  1  0
 32 80  1  0
 32 81  1  0
 32 82  1  0
M  END
>  <meeko>  (1) 
{"is_sidechain": [false], "intermolecular_energy": 2.731, "internal_energy": -0.839}

$$$$
EPH_relaxed_0001_pdb2pqr_Repair_87_r2_0001_out
     RDKit          3D

 82 86  0  0  0  0  0  0  0  0999 V2000
    2.0040   19.6500   -0.6280 C   0  0  0  0  0  0  0  0  0  0  0  0
    2.3750   18.4400    0.2340 C   0  0  2  0  0  0  0  0  0  0  0  0
    3.8310   17.9870    0.0040 C   0  0  0  0  0  0  0  0  0  0  0  0
    4.7400   18.1970    1.2180 C   0  0  0  0  0  0  0  0  0  0  0  0
    4.0630   19.0030    2.2850 C   0  0  2  0  0  0  0  0  0  0  0  0
    4.7620   20.1940    2.6700 O   0  0  0  0  0  0  0  0  0  0  0  0
    4.6270   19.1830    3.6820 C   0  0  0  0  0  0  0  0  0  0  0  0
    5.9210   18.5520    4.0890 C   0  0  0  0  0  0  0  0  0  0  0  0
    3.6910   19.5590    4.7890 C   0  0  0  0  0  0  0  0  0  0  0  0
    1.4200   17.2870   -0.0500 C   0  0  1  0  0  0  0  0  0  0  0  0
    0.1460   17.7400   -0.8120 C   0  0  0  0  0  0  0  0  0  0  0  0
   -0.2410   16.5810   -1.7650 C   0  0  0  0  0  0  0  0  0  0  0  0
    0.6120   15.3820   -1.2880 C   0  0  1  0  0  0  0  0  0  0  0  0
   -0.1620   14.8010   -0.0640 C   0  0  0  0  0  0  0  0  0  0  0  0
    0.9140   14.2800   -2.3560 C   0  0  2  0  0  0  0  0  0  0  0  0
   -0.3230   13.5510   -2.9090 C   0  0  0  0  0  0  0  0  0  0  0  0
   -0.7250   12.3220   -2.1630 C   0  0  0  0  0  0  0  0  0  0  0  0
    0.0380   11.6630   -1.2720 C   0  0  0  0  0  0  0  0  0  0  0  0
    1.4880   12.0900   -1.0080 C   0  0  1  0  0  0  0  0  0  0  0  0
    2.4050   10.8390   -1.0100 C   0  0  0  0  0  0  0  0  0  0  0  0
    1.9290    9.7620   -0.0410 C   0  0  0  0  0  0  0  0  0  0  0  0
    0.5050    9.3220   -0.3720 C   0  0  2  0  0  0  0  0  0  0  0  0
    0.5120    8.6540   -1.6370 O   0  0  0  0  0  0  0  0  0  0  0  0
   -0.5080   10.5000   -0.4070 C   0  0  0  0  0  0  0  0  0  0  0  0
   -0.7410   11.0300    1.0290 C   0  0  0  0  0  0  0  0  0  0  0  0
   -1.8740    9.9410   -0.8900 C   0  0  0  0  0  0  0  0  0  0  0  0
    2.0450   13.2580   -1.9300 C   0  0  1  0  0  0  0  0  0  0  0  0
    2.6260   12.6630   -3.2490 C   0  0  0  0  0  0  0  0  0  0  0  0
    3.2450   13.9650   -1.1960 C   0  0  0  0  0  0  0  0  0  0  0  0
    2.8920   15.1250   -0.2450 C   0  0  0  0  0  0  0  0  0  0  0  0
    1.9500   16.1240   -0.9250 C   0  0  2  0  0  0  0  0  0  0  0  0
    2.7100   16.7410   -2.1480 C   0  0  0  0  0  0  0  0  0  0  0  0
    1.7440   20.4979    0.0228 H   0  0  0  0  0  0  0  0  0  0  0  0
    2.8594   19.9239   -1.2630 H   0  0  0  0  0  0  0  0  0  0  0  0
    1.1420   19.3974   -1.2630 H   0  0  0  0  0  0  0  0  0  0  0  0
    2.2869   18.7450    1.2872 H   0  0  0  0  0  0  0  0  0  0  0  0
    3.8261   16.9156   -0.2450 H   0  0  0  0  0  0  0  0  0  0  0  0
    4.2351   18.6054   -0.8110 H   0  0  0  0  0  0  0  0  0  0  0  0
    5.0137   17.2155    1.6324 H   0  0  0  0  0  0  0  0  0  0  0  0
    5.6326   18.7479    0.8867 H   0  0  0  0  0  0  0  0  0  0  0  0
    3.0716   18.6917    1.9240 H   0  0  0  0  0  0  0  0  0  0  0  0
    5.9845   18.5210    5.1867 H   0  0  0  0  0  0  0  0  0  0  0  0
    5.9713   17.5282    3.6898 H   0  0  0  0  0  0  0  0  0  0  0  0
    6.7586   19.1428    3.6898 H   0  0  0  0  0  0  0  0  0  0  0  0
    4.1732   19.3653    5.7585 H   0  0  0  0  0  0  0  0  0  0  0  0
    3.4410   20.6273    4.7108 H   0  0  0  0  0  0  0  0  0  0  0  0
    2.7714   18.9605    4.7108 H   0  0  0  0  0  0  0  0  0  0  0  0
    1.2451   16.9353    0.9775 H   0  0  0  0  0  0  0  0  0  0  0  0
   -0.6709   17.9351   -0.1017 H   0  0  0  0  0  0  0  0  0  0  0  0
    0.3306   18.6678   -1.3733 H   0  0  0  0  0  0  0  0  0  0  0  0
   -1.3137   16.3518   -1.6821 H   0  0  0  0  0  0  0  0  0  0  0  0
   -0.0571   16.8299   -2.8206 H   0  0  0  0  0  0  0  0  0  0  0  0
    0.3067   15.1529    0.8669 H   0  0  0  0  0  0  0  0  0  0  0  0
   -1.2084   15.1386   -0.0980 H   0  0  0  0  0  0  0  0  0  0  0  0
   -0.1300   13.7020   -0.0980 H   0  0  0  0  0  0  0  0  0  0  0  0
    1.3141   14.8677   -3.1954 H   0  0  0  0  0  0  0  0  0  0  0  0
   -1.1692   14.2535   -2.8880 H   0  0  0  0  0  0  0  0  0  0  0  0
   -0.0524   13.2176   -3.9217 H   0  0  0  0  0  0  0  0  0  0  0  0
   -1.7305   11.9211   -2.3584 H   0  0  0  0  0  0  0  0  0  0  0  0
    1.4923   12.5530   -0.0102 H   0  0  0  0  0  0  0  0  0  0  0  0
    2.4225   10.4165   -2.0255 H   0  0  0  0  0  0  0  0  0  0  0  0
    3.4065   11.1592   -0.6867 H   0  0  0  0  0  0  0  0  0  0  0  0
    2.5998    8.8930   -0.1106 H   0  0  0  0  0  0  0  0  0  0  0  0
    1.9410   10.1760    0.9780 H   0  0  0  0  0  0  0  0  0  0  0  0
    0.1724    8.6478    0.4310 H   0  0  0  0  0  0  0  0  0  0  0  0
    1.4190    8.3470   -1.8030 H   0  0  0  0  0  0  0  0  0  0  0  0
   -0.4091   10.2750    1.7569 H   0  0  0  0  0  0  0  0  0  0  0  0
   -0.1675   11.9572    1.1752 H   0  0  0  0  0  0  0  0  0  0  0  0
   -1.8119   11.2343    1.1752 H   0  0  0  0  0  0  0  0  0  0  0  0
   -2.4950    9.6869   -0.0184 H   0  0  0  0  0  0  0  0  0  0  0  0
   -2.3874   10.7013   -1.4969 H   0  0  0  0  0  0  0  0  0  0  0  0
   -1.7071    9.0389   -1.4969 H   0  0  0  0  0  0  0  0  0  0  0  0
    3.3755   11.8954   -3.0060 H   0  0  0  0  0  0  0  0  0  0  0  0
    1.8136   12.2094   -3.8357 H   0  0  0  0  0  0  0  0  0  0  0  0
    3.0988   13.4644   -3.8357 H   0  0  0  0  0  0  0  0  0  0  0  0
    3.7716   13.2000   -0.6065 H   0  0  0  0  0  0  0  0  0  0  0  0
    3.8434   14.4223   -1.9978 H   0  0  0  0  0  0  0  0  0  0  0  0
    2.3998   14.7188    0.6510 H   0  0  0  0  0  0  0  0  0  0  0  0
    3.8197   15.6484    0.0294 H   0  0  0  0  0  0  0  0  0  0  0  0
    3.5165   17.3957   -1.7862 H   0  0  0  0  0  0  0  0  0  0  0  0
    3.1397   15.9330   -2.7583 H   0  0  0  0  0  0  0  0  0  0  0  0
    2.0075   17.3275   -2.7583 H   0  0  0  0  0  0  0  0  0  0  0  0
  1  2  1  0
  2  3  1  0
  3  4  1  0
  4  5  1  0
  5  6  1  0
  6  7  1  0
  7  8  1  0
  7  9  1  0
  2 10  1  0
 10 11  1  0
 11 12  1  0
 12 13  1  0
 13 14  1  1
 13 15  1  0
 15 16  1  0
 16 17  1  0
 17 18  2  0
 18 19  1  0
 19 20  1  0
 20 21  1  0
 21 22  1  0
 22 23  1  0
 22 24  1  0
 24 25  1  0
 24 26  1  0
 19 27  1  0
 27 28  1  6
 27 29  1  0
 29 30  1  0
 30 31  1  0
 31 32  1  6
  7  5  1  0
 31 10  1  0
 31 13  1  0
 27 15  1  0
 24 18  1  0
  1 33  1  0
  1 34  1  0
  1 35  1  0
  2 36  1  1
  3 37  1  0
  3 38  1  0
  4 39  1  0
  4 40  1  0
  5 41  1  1
  8 42  1  0
  8 43  1  0
  8 44  1  0
  9 45  1  0
  9 46  1  0
  9 47  1  0
 10 48  1  1
 11 49  1  0
 11 50  1  0
 12 51  1  0
 12 52  1  0
 14 53  1  0
 14 54  1  0
 14 55  1  0
 15 56  1  6
 16 57  1  0
 16 58  1  0
 17 59  1  0
 19 60  1  1
 20 61  1  0
 20 62  1  0
 21 63  1  0
 21 64  1  0
 22 65  1  1
 23 66  1  0
 25 67  1  0
 25 68  1  0
 25 69  1  0
 26 70  1  0
 26 71  1  0
 26 72  1  0
 28 73  1  0
 28 74  1  0
 28 75  1  0
 29 76  1  0
 29 77  1  0
 30 78  1  0
 30 79  1  0
 32 80  1  0
 32 81  1  0
 32 82  1  0
M  END
>  <meeko>  (2) 
{"is_sidechain": [false], "intermolecular_energy": 2.731, "internal_energy": -0.839}

$$$$
EPH_relaxed_0001_pdb2pqr_Repair_87_r2_0001_out
     RDKit          3D

 82 86  0  0  0  0  0  0  0  0999 V2000
    0.4790   18.4210    0.0350 C   0  0  0  0  0  0  0  0  0  0  0  0
    1.5550   17.3560   -0.1950 C   0  0  2  0  0  0  0  0  0  0  0  0
    2.7720   17.9170   -0.9590 C   0  0  0  0  0  0  0  0  0  0  0  0
    4.0050   18.1350   -0.0770 C   0  0  0  0  0  0  0  0  0  0  0  0
    3.6290   18.6090    1.2940 C   0  0  2  0  0  0  0  0  0  0  0  0
    3.8620   20.0040    1.5290 O   0  0  0  0  0  0  0  0  0  0  0  0
    4.6400   19.0900    2.3180 C   0  0  0  0  0  0  0  0  0  0  0  0
    6.1050   19.1190    2.0150 C   0  0  0  0  0  0  0  0  0  0  0  0
    4.2580   19.0670    3.7650 C   0  0  0  0  0  0  0  0  0  0  0  0
    0.9630   16.1740   -0.9530 C   0  0  1  0  0  0  0  0  0  0  0  0
    0.8110   16.4540   -2.4720 C   0  0  0  0  0  0  0  0  0  0  0  0
    1.0820   15.1140   -3.2030 C   0  0  0  0  0  0  0  0  0  0  0  0
    1.0530   14.0460   -2.0840 C   0  0  1  0  0  0  0  0  0  0  0  0
   -0.4620   13.7550   -1.8470 C   0  0  0  0  0  0  0  0  0  0  0  0
    1.8570   12.7340   -2.3610 C   0  0  2  0  0  0  0  0  0  0  0  0
    1.3640   11.9070   -3.5610 C   0  0  0  0  0  0  0  0  0  0  0  0
    0.3320   10.8760   -3.2440 C   0  0  0  0  0  0  0  0  0  0  0  0
    0.0280   10.4260   -2.0120 C   0  0  0  0  0  0  0  0  0  0  0  0
    0.8210   10.8940   -0.7850 C   0  0  1  0  0  0  0  0  0  0  0  0
    1.1860    9.6690    0.0940 C   0  0  0  0  0  0  0  0  0  0  0  0
   -0.0350    8.8360    0.4710 C   0  0  0  0  0  0  0  0  0  0  0  0
   -0.7640    8.3400   -0.7750 C   0  0  2  0  0  0  0  0  0  0  0  0
    0.0780    7.4090   -1.4620 O   0  0  0  0  0  0  0  0  0  0  0  0
   -1.1730    9.4870   -1.7420 C   0  0  0  0  0  0  0  0  0  0  0  0
   -2.3110   10.3230   -1.1060 C   0  0  0  0  0  0  0  0  0  0  0  0
   -1.7710    8.8420   -3.0210 C   0  0  0  0  0  0  0  0  0  0  0  0
    2.0740   11.8260   -1.0830 C   0  0  1  0  0  0  0  0  0  0  0  0
    3.3320   10.9500   -1.3680 C   0  0  0  0  0  0  0  0  0  0  0  0
    2.4030   12.6720    0.2040 C   0  0  0  0  0  0  0  0  0  0  0  0
    1.6650   14.0150    0.3600 C   0  0  0  0  0  0  0  0  0  0  0  0
    1.7560   14.8430   -0.9260 C   0  0  2  0  0  0  0  0  0  0  0  0
    3.2670   15.1700   -1.1780 C   0  0  0  0  0  0  0  0  0  0  0  0
    0.3321   18.5664    1.1154 H   0  0  0  0  0  0  0  0  0  0  0  0
    0.7978   19.3691   -0.4226 H   0  0  0  0  0  0  0  0  0  0  0  0
   -0.4658   18.0925   -0.4226 H   0  0  0  0  0  0  0  0  0  0  0  0
    1.9091   17.0239    0.7921 H   0  0  0  0  0  0  0  0  0  0  0  0
    3.0372   17.2089   -1.7579 H   0  0  0  0  0  0  0  0  0  0  0  0
    2.4792   18.9019   -1.3517 H   0  0  0  0  0  0  0  0  0  0  0  0
    4.5522   17.1849    0.0119 H   0  0  0  0  0  0  0  0  0  0  0  0
    4.6307   18.9078   -0.5474 H   0  0  0  0  0  0  0  0  0  0  0  0
    2.8132   17.8733    1.3515 H   0  0  0  0  0  0  0  0  0  0  0  0
    6.6740   19.1303    2.9564 H   0  0  0  0  0  0  0  0  0  0  0  0
    6.3768   18.2261    1.4329 H   0  0  0  0  0  0  0  0  0  0  0  0
    6.3412   20.0220    1.4329 H   0  0  0  0  0  0  0  0  0  0  0  0
    5.1652   19.1216    4.3846 H   0  0  0  0  0  0  0  0  0  0  0  0
    3.6100   19.9278    3.9869 H   0  0  0  0  0  0  0  0  0  0  0  0
    3.7180   18.1347    3.9869 H   0  0  0  0  0  0  0  0  0  0  0  0
    0.0159   16.0594   -0.4054 H   0  0  0  0  0  0  0  0  0  0  0  0
   -0.2075   16.8064   -2.6922 H   0  0  0  0  0  0  0  0  0  0  0  0
    1.5136   17.2333   -2.8023 H   0  0  0  0  0  0  0  0  0  0  0  0
    0.3001   14.9145   -3.9506 H   0  0  0  0  0  0  0  0  0  0  0  0
    2.0378   15.1218   -3.7475 H   0  0  0  0  0  0  0  0  0  0  0  0
   -0.6633   13.7163   -0.7663 H   0  0  0  0  0  0  0  0  0  0  0  0
   -1.0647   14.5538   -2.3039 H   0  0  0  0  0  0  0  0  0  0  0  0
   -0.7258   12.7898   -2.3039 H   0  0  0  0  0  0  0  0  0  0  0  0
    2.8455   13.1196   -2.6511 H   0  0  0  0  0  0  0  0  0  0  0  0
    0.9356   12.6010   -4.2991 H   0  0  0  0  0  0  0  0  0  0  0  0
    2.2409   11.3559   -3.9316 H   0  0  0  0  0  0  0  0  0  0  0  0
   -0.2275   10.4476   -4.0886 H   0  0  0  0  0  0  0  0  0  0  0  0
    0.1512   11.5664   -0.2288 H   0  0  0  0  0  0  0  0  0  0  0  0
    1.8892    9.0322   -0.4628 H   0  0  0  0  0  0  0  0  0  0  0  0
    1.6331   10.0471    1.0252 H   0  0  0  0  0  0  0  0  0  0  0  0
    0.2901    7.9700    1.0663 H   0  0  0  0  0  0  0  0  0  0  0  0
   -0.7237    9.4665    1.0526 H   0  0  0  0  0  0  0  0  0  0  0  0
   -1.6971    7.8613   -0.4430 H   0  0  0  0  0  0  0  0  0  0  0  0
   -0.2680    7.3100   -2.3650 H   0  0  0  0  0  0  0  0  0  0  0  0
   -2.2372   10.2688   -0.0098 H   0  0  0  0  0  0  0  0  0  0  0  0
   -2.2203   11.3708   -1.4282 H   0  0  0  0  0  0  0  0  0  0  0  0
   -3.2838    9.9232   -1.4282 H   0  0  0  0  0  0  0  0  0  0  0  0
   -2.4932    8.0630   -2.7355 H   0  0  0  0  0  0  0  0  0  0  0  0
   -2.2804    9.6136   -3.6170 H   0  0  0  0  0  0  0  0  0  0  0  0
   -0.9631    8.3923   -3.6170 H   0  0  0  0  0  0  0  0  0  0  0  0
    3.7834   10.6357   -0.4154 H   0  0  0  0  0  0  0  0  0  0  0  0
    3.0368   10.0611   -1.9448 H   0  0  0  0  0  0  0  0  0  0  0  0
    4.0633   11.5352   -1.9448 H   0  0  0  0  0  0  0  0  0  0  0  0
    2.1578   12.0538    1.0802 H   0  0  0  0  0  0  0  0  0  0  0  0
    3.4664   12.9373    0.1099 H   0  0  0  0  0  0  0  0  0  0  0  0
    0.6068   13.8198    0.5882 H   0  0  0  0  0  0  0  0  0  0  0  0
    2.1366   14.5818    1.1763 H   0  0  0  0  0  0  0  0  0  0  0  0
    3.7838   15.2818   -0.2134 H   0  0  0  0  0  0  0  0  0  0  0  0
    3.7291   14.3511   -1.7488 H   0  0  0  0  0  0  0  0  0  0  0  0
    3.3492   16.1067   -1.7488 H   0  0  0  0  0  0  0  0  0  0  0  0
  1  2  1  0
  2  3  1  0
  3  4  1  0
  4  5  1  0
  5  6  1  0
  6  7  1  0
  7  8  1  0
  7  9  1  0
  2 10  1  0
 10 11  1  0
 11 12  1  0
 12 13  1  0
 13 14  1  1
 13 15  1  0
 15 16  1  0
 16 17  1  0
 17 18  2  0
 18 19  1  0
 19 20  1  0
 20 21  1  0
 21 22  1  0
 22 23  1  0
 22 24  1  0
 24 25  1  0
 24 26  1  0
 19 27  1  0
 27 28  1  6
 27 29  1  0
 29 30  1  0
 30 31  1  0
 31 32  1  6
  7  5  1  0
 31 10  1  0
 31 13  1  0
 27 15  1  0
 24 18  1  0
  1 33  1  0
  1 34  1  0
  1 35  1  0
  2 36  1  1
  3 37  1  0
  3 38  1  0
  4 39  1  0
  4 40  1  0
  5 41  1  1
  8 42  1  0
  8 43  1  0
  8 44  1  0
  9 45  1  0
  9 46  1  0
  9 47  1  0
 10 48  1  1
 11 49  1  0
 11 50  1  0
 12 51  1  0
 12 52  1  0
 14 53  1  0
 14 54  1  0
 14 55  1  0
 15 56  1  6
 16 57  1  0
 16 58  1  0
 17 59  1  0
 19 60  1  1
 20 61  1  0
 20 62  1  0
 21 63  1  0
 21 64  1  0
 22 65  1  1
 23 66  1  0
 25 67  1  0
 25 68  1  0
 25 69  1  0
 26 70  1  0
 26 71  1  0
 26 72  1  0
 28 73  1  0
 28 74  1  0
 28 75  1  0
 29 76  1  0
 29 77  1  0
 30 78  1  0
 30 79  1  0
 32 80  1  0
 32 81  1  0
 32 82  1  0
M  END
>  <meeko>  (3) 
{"is_sidechain": [false], "intermolecular_energy": 2.731, "internal_energy": -0.839}

$$$$
EPH_relaxed_0001_pdb2pqr_Repair_87_r2_0001_out
     RDKit          3D

 82 86  0  0  0  0  0  0  0  0999 V2000
    2.1480   18.1010   -2.6610 C   0  0  0  0  0  0  0  0  0  0  0  0
    0.6270   17.9210   -2.6590 C   0  0  2  0  0  0  0  0  0  0  0  0
   -0.0080   18.3660   -1.3270 C   0  0  0  0  0  0  0  0  0  0  0  0
    0.7850   17.9330   -0.0910 C   0  0  0  0  0  0  0  0  0  0  0  0
    1.3020   19.1120    0.6770 C   0  0  2  0  0  0  0  0  0  0  0  0
    2.1650   19.9800   -0.0690 O   0  0  0  0  0  0  0  0  0  0  0  0
    2.7630   19.2960    1.0440 C   0  0  0  0  0  0  0  0  0  0  0  0
    3.7980   18.2880    0.6540 C   0  0  0  0  0  0  0  0  0  0  0  0
    3.1040   20.1940    2.1910 C   0  0  0  0  0  0  0  0  0  0  0  0
    0.2760   16.4650   -2.9440 C   0  0  1  0  0  0  0  0  0  0  0  0
    0.3380   16.1200   -4.4550 C   0  0  0  0  0  0  0  0  0  0  0  0
    0.8460   14.6590   -4.5600 C   0  0  0  0  0  0  0  0  0  0  0  0
    0.7430   14.1060   -3.1200 C   0  0  1  0  0  0  0  0  0  0  0  0
   -0.7560   13.7050   -2.9500 C   0  0  0  0  0  0  0  0  0  0  0  0
    1.7000   12.9220   -2.7640 C   0  0  2  0  0  0  0  0  0  0  0  0
    1.4820   11.6380   -3.5820 C   0  0  0  0  0  0  0  0  0  0  0  0
    0.5160   10.6630   -2.9940 C   0  0  0  0  0  0  0  0  0  0  0  0
    0.0660   10.6770   -1.7250 C   0  0  0  0  0  0  0  0  0  0  0  0
    0.6090   11.6890   -0.7080 C   0  0  1  0  0  0  0  0  0  0  0  0
    0.9460   10.9590    0.6190 C   0  0  0  0  0  0  0  0  0  0  0  0
   -0.2350   10.1600    1.1630 C   0  0  0  0  0  0  0  0  0  0  0  0
   -0.7090    9.1260    0.1460 C   0  0  2  0  0  0  0  0  0  0  0  0
    0.3140    8.1400   -0.0200 O   0  0  0  0  0  0  0  0  0  0  0  0
   -1.0680    9.7440   -1.2340 C   0  0  0  0  0  0  0  0  0  0  0  0
   -2.3660   10.5800   -1.1090 C   0  0  0  0  0  0  0  0  0  0  0  0
   -1.3950    8.5790   -2.2080 C   0  0  0  0  0  0  0  0  0  0  0  0
    1.7990   12.6110   -1.2150 C   0  0  1  0  0  0  0  0  0  0  0  0
    3.1640   11.8910   -0.9920 C   0  0  0  0  0  0  0  0  0  0  0  0
    1.8410   13.9220   -0.3440 C   0  0  0  0  0  0  0  0  0  0  0  0
    0.9640   15.0980   -0.8140 C   0  0  0  0  0  0  0  0  0  0  0  0
    1.1770   15.3780   -2.3050 C   0  0  2  0  0  0  0  0  0  0  0  0
    2.6710   15.8050   -2.5030 C   0  0  0  0  0  0  0  0  0  0  0  0
    2.5135   18.1443   -1.6244 H   0  0  0  0  0  0  0  0  0  0  0  0
    2.6170   17.2521   -3.1800 H   0  0  0  0  0  0  0  0  0  0  0  0
    2.4059   19.0359   -3.1800 H   0  0  0  0  0  0  0  0  0  0  0  0
    0.2159   18.5640   -3.4511 H   0  0  0  0  0  0  0  0  0  0  0  0
   -0.0798   19.4637   -1.3263 H   0  0  0  0  0  0  0  0  0  0  0  0
   -0.9929   17.8804   -1.2629 H   0  0  0  0  0  0  0  0  0  0  0  0
    0.1291   17.3407    0.5639 H   0  0  0  0  0  0  0  0  0  0  0  0
    1.6470   17.3382   -0.4276 H   0  0  0  0  0  0  0  0  0  0  0  0
    0.3798   19.1571    1.2749 H   0  0  0  0  0  0  0  0  0  0  0  0
    4.2452   17.8524    1.5597 H   0  0  0  0  0  0  0  0  0  0  0  0
    3.3282   17.4919    0.0578 H   0  0  0  0  0  0  0  0  0  0  0  0
    4.5814   18.7787    0.0578 H   0  0  0  0  0  0  0  0  0  0  0  0
    2.9053   19.6708    3.1380 H   0  0  0  0  0  0  0  0  0  0  0  0
    4.1683   20.4669    2.1392 H   0  0  0  0  0  0  0  0  0  0  0  0
    2.4891   21.1046    2.1392 H   0  0  0  0  0  0  0  0  0  0  0  0
   -0.7302   16.4282   -2.5011 H   0  0  0  0  0  0  0  0  0  0  0  0
   -0.6622   16.2065   -4.9046 H   0  0  0  0  0  0  0  0  0  0  0  0
    1.0067   16.8100   -4.9904 H   0  0  0  0  0  0  0  0  0  0  0  0
    0.2136   14.0763   -5.2459 H   0  0  0  0  0  0  0  0  0  0  0  0
    1.8702   14.6009   -4.9569 H   0  0  0  0  0  0  0  0  0  0  0  0
   -0.9990   13.6400   -1.8791 H   0  0  0  0  0  0  0  0  0  0  0  0
   -1.3948   14.4638   -3.4255 H   0  0  0  0  0  0  0  0  0  0  0  0
   -0.9306   12.7286   -3.4255 H   0  0  0  0  0  0  0  0  0  0  0  0
    2.6810   13.3109   -3.0747 H   0  0  0  0  0  0  0  0  0  0  0  0
    1.1102   11.9273   -4.5760 H   0  0  0  0  0  0  0  0  0  0  0  0
    2.4546   11.1248   -3.6074 H   0  0  0  0  0  0  0  0  0  0  0  0
    0.1404    9.8663   -3.6529 H   0  0  0  0  0  0  0  0  0  0  0  0
   -0.2000   12.4153   -0.5404 H   0  0  0  0  0  0  0  0  0  0  0  0
    1.7849   10.2705    0.4396 H   0  0  0  0  0  0  0  0  0  0  0  0
    1.2036   11.7248    1.3655 H   0  0  0  0  0  0  0  0  0  0  0  0
    0.0734    9.6438    2.0841 H   0  0  0  0  0  0  0  0  0  0  0  0
   -1.0629   10.8541    1.3697 H   0  0  0  0  0  0  0  0  0  0  0  0
   -1.6333    8.6770    0.5385 H   0  0  0  0  0  0  0  0  0  0  0  0
    0.7600    8.0310    0.8380 H   0  0  0  0  0  0  0  0  0  0  0  0
   -2.6029   10.7326   -0.0457 H   0  0  0  0  0  0  0  0  0  0  0  0
   -2.2221   11.5556   -1.5963 H   0  0  0  0  0  0  0  0  0  0  0  0
   -3.1948   10.0455   -1.5963 H   0  0  0  0  0  0  0  0  0  0  0  0
   -1.6479    7.6779   -1.6300 H   0  0  0  0  0  0  0  0  0  0  0  0
   -2.2490    8.8598   -2.8419 H   0  0  0  0  0  0  0  0  0  0  0  0
   -0.5196    8.3743   -2.8419 H   0  0  0  0  0  0  0  0  0  0  0  0
    3.3538   11.7909    0.0869 H   0  0  0  0  0  0  0  0  0  0  0  0
    3.1315   10.8927   -1.4528 H   0  0  0  0  0  0  0  0  0  0  0  0
    3.9696   12.4815   -1.4528 H   0  0  0  0  0  0  0  0  0  0  0  0
    1.5216   13.6551    0.6742 H   0  0  0  0  0  0  0  0  0  0  0  0
    2.8760   14.2861   -0.4227 H   0  0  0  0  0  0  0  0  0  0  0  0
   -0.0937   14.8496   -0.6418 H   0  0  0  0  0  0  0  0  0  0  0  0
    1.2459   15.9958   -0.2444 H   0  0  0  0  0  0  0  0  0  0  0  0
    3.1468   15.9410   -1.5206 H   0  0  0  0  0  0  0  0  0  0  0  0
    3.2045   15.0234   -3.0637 H   0  0  0  0  0  0  0  0  0  0  0  0
    2.7109   16.7505   -3.0637 H   0  0  0  0  0  0  0  0  0  0  0  0
  1  2  1  0
  2  3  1  0
  3  4  1  0
  4  5  1  0
  5  6  1  0
  6  7  1  0
  7  8  1  0
  7  9  1  0
  2 10  1  0
 10 11  1  0
 11 12  1  0
 12 13  1  0
 13 14  1  1
 13 15  1  0
 15 16  1  0
 16 17  1  0
 17 18  2  0
 18 19  1  0
 19 20  1  0
 20 21  1  0
 21 22  1  0
 22 23  1  0
 22 24  1  0
 24 25  1  0
 24 26  1  0
 19 27  1  0
 27 28  1  6
 27 29  1  0
 29 30  1  0
 30 31  1  0
 31 32  1  1
  7  5  1  0
 31 10  1  0
 31 13  1  0
 27 15  1  0
 24 18  1  0
  1 33  1  0
  1 34  1  0
  1 35  1  0
  2 36  1  6
  3 37  1  0
  3 38  1  0
  4 39  1  0
  4 40  1  0
  5 41  1  1
  8 42  1  0
  8 43  1  0
  8 44  1  0
  9 45  1  0
  9 46  1  0
  9 47  1  0
 10 48  1  1
 11 49  1  0
 11 50  1  0
 12 51  1  0
 12 52  1  0
 14 53  1  0
 14 54  1  0
 14 55  1  0
 15 56  1  6
 16 57  1  0
 16 58  1  0
 17 59  1  0
 19 60  1  1
 20 61  1  0
 20 62  1  0
 21 63  1  0
 21 64  1  0
 22 65  1  1
 23 66  1  0
 25 67  1  0
 25 68  1  0
 25 69  1  0
 26 70  1  0
 26 71  1  0
 26 72  1  0
 28 73  1  0
 28 74  1  0
 28 75  1  0
 29 76  1  0
 29 77  1  0
 30 78  1  0
 30 79  1  0
 32 80  1  0
 32 81  1  0
 32 82  1  0
M  END
>  <meeko>  (4) 
{"is_sidechain": [false], "intermolecular_energy": 2.731, "internal_energy": -0.839}

$$$$
EPH_relaxed_0001_pdb2pqr_Repair_87_r2_0001_out
     RDKit          3D

 82 86  0  0  0  0  0  0  0  0999 V2000
    2.3290   18.0550   -2.8330 C   0  0  0  0  0  0  0  0  0  0  0  0
    1.1060   17.6260   -2.0190 C   0  0  2  0  0  0  0  0  0  0  0  0
    1.3790   17.6550   -0.5020 C   0  0  0  0  0  0  0  0  0  0  0  0
    1.0780   19.0070    0.1520 C   0  0  0  0  0  0  0  0  0  0  0  0
   -0.3570   19.1140    0.5690 C   0  0  2  0  0  0  0  0  0  0  0  0
   -1.2560   18.2610   -0.1530 O   0  0  0  0  0  0  0  0  0  0  0  0
   -1.4480   19.6740   -0.3250 C   0  0  0  0  0  0  0  0  0  0  0  0
   -1.1500   20.1650   -1.7070 C   0  0  0  0  0  0  0  0  0  0  0  0
   -2.6990   20.1950    0.3130 C   0  0  0  0  0  0  0  0  0  0  0  0
    0.6630   16.2300   -2.4420 C   0  0  1  0  0  0  0  0  0  0  0  0
    0.7700   16.0080   -3.9740 C   0  0  0  0  0  0  0  0  0  0  0  0
    1.1740   14.5270   -4.1850 C   0  0  0  0  0  0  0  0  0  0  0  0
    0.9650   13.8650   -2.8030 C   0  0  1  0  0  0  0  0  0  0  0  0
   -0.5660   13.5670   -2.7280 C   0  0  0  0  0  0  0  0  0  0  0  0
    1.8160   12.5860   -2.5130 C   0  0  2  0  0  0  0  0  0  0  0  0
    1.5430   11.3940   -3.4470 C   0  0  0  0  0  0  0  0  0  0  0  0
    0.4820   10.4510   -2.9840 C   0  0  0  0  0  0  0  0  0  0  0  0
   -0.0230   10.3940   -1.7380 C   0  0  0  0  0  0  0  0  0  0  0  0
    0.5440   11.2730   -0.6160 C   0  0  1  0  0  0  0  0  0  0  0  0
    0.7650   10.4110    0.6550 C   0  0  0  0  0  0  0  0  0  0  0  0
   -0.4940    9.6630    1.0810 C   0  0  0  0  0  0  0  0  0  0  0  0
   -0.9950    8.7560   -0.0400 C   0  0  2  0  0  0  0  0  0  0  0  0
   -0.0390    7.7110   -0.2500 O   0  0  0  0  0  0  0  0  0  0  0  0
   -1.2440    9.5120   -1.3750 C   0  0  0  0  0  0  0  0  0  0  0  0
   -2.4810   10.4310   -1.2300 C   0  0  0  0  0  0  0  0  0  0  0  0
   -1.6080    8.4610   -2.4580 C   0  0  0  0  0  0  0  0  0  0  0  0
    1.8210   12.1410   -0.9940 C   0  0  1  0  0  0  0  0  0  0  0  0
    3.1180   11.3020   -0.7800 C   0  0  0  0  0  0  0  0  0  0  0  0
    1.9180   13.3670   -0.0110 C   0  0  0  0  0  0  0  0  0  0  0  0
    1.1510   14.6420   -0.4130 C   0  0  0  0  0  0  0  0  0  0  0  0
    1.4520   15.0280   -1.8640 C   0  0  2  0  0  0  0  0  0  0  0  0
    2.9810   15.3550   -1.9650 C   0  0  0  0  0  0  0  0  0  0  0  0
    3.1425   18.3404   -2.1498 H   0  0  0  0  0  0  0  0  0  0  0  0
    2.6590   17.2190   -3.4671 H   0  0  0  0  0  0  0  0  0  0  0  0
    2.0645   18.9140   -3.4671 H   0  0  0  0  0  0  0  0  0  0  0  0
    0.3024   18.3487   -2.2237 H   0  0  0  0  0  0  0  0  0  0  0  0
    0.7519   16.8895   -0.0216 H   0  0  0  0  0  0  0  0  0  0  0  0
    2.4535   17.4637   -0.3650 H   0  0  0  0  0  0  0  0  0  0  0  0
    1.7168   19.1235    1.0399 H   0  0  0  0  0  0  0  0  0  0  0  0
    1.2803   19.7973   -0.5859 H   0  0  0  0  0  0  0  0  0  0  0  0
   -0.0638   19.3386    1.6051 H   0  0  0  0  0  0  0  0  0  0  0  0
   -0.5801   21.1040   -1.6476 H   0  0  0  0  0  0  0  0  0  0  0  0
   -0.5576   19.4100   -2.2446 H   0  0  0  0  0  0  0  0  0  0  0  0
   -2.0932   20.3419   -2.2446 H   0  0  0  0  0  0  0  0  0  0  0  0
   -2.5974   20.1527    1.4075 H   0  0  0  0  0  0  0  0  0  0  0  0
   -2.8638   21.2366    0.0000 H   0  0  0  0  0  0  0  0  0  0  0  0
   -3.5544   19.5783    0.0000 H   0  0  0  0  0  0  0  0  0  0  0  0
   -0.3626   16.2335   -2.0443 H   0  0  0  0  0  0  0  0  0  0  0  0
   -0.1992   16.2082   -4.4542 H   0  0  0  0  0  0  0  0  0  0  0  0
    1.5118   16.6867   -4.4202 H   0  0  0  0  0  0  0  0  0  0  0  0
    0.5328   14.0538   -4.9432 H   0  0  0  0  0  0  0  0  0  0  0  0
    2.2084   14.4239   -4.5448 H   0  0  0  0  0  0  0  0  0  0  0  0
   -0.8766   13.5065   -1.6745 H   0  0  0  0  0  0  0  0  0  0  0  0
   -1.1215   14.3739   -3.2283 H   0  0  0  0  0  0  0  0  0  0  0  0
   -0.7783   12.6107   -3.2283 H   0  0  0  0  0  0  0  0  0  0  0  0
    2.8358   12.9233   -2.7502 H   0  0  0  0  0  0  0  0  0  0  0  0
    1.2399   11.7922   -4.4266 H   0  0  0  0  0  0  0  0  0  0  0  0
    2.4756   10.8115   -3.4776 H   0  0  0  0  0  0  0  0  0  0  0  0
    0.0793    9.7434   -3.7236 H   0  0  0  0  0  0  0  0  0  0  0  0
   -0.2168   12.0423   -0.4178 H   0  0  0  0  0  0  0  0  0  0  0  0
    1.5585    9.6774    0.4498 H   0  0  0  0  0  0  0  0  0  0  0  0
    1.0432   11.0900    1.4745 H   0  0  0  0  0  0  0  0  0  0  0  0
   -0.2666    9.0500    1.9656 H   0  0  0  0  0  0  0  0  0  0  0  0
   -1.2777   10.3988    1.3142 H   0  0  0  0  0  0  0  0  0  0  0  0
   -1.9667    8.3482    0.2754 H   0  0  0  0  0  0  0  0  0  0  0  0
    0.1420    7.6650   -1.2040 H   0  0  0  0  0  0  0  0  0  0  0  0
   -2.6960   10.5908   -0.1631 H   0  0  0  0  0  0  0  0  0  0  0  0
   -2.2774   11.3986   -1.7119 H   0  0  0  0  0  0  0  0  0  0  0  0
   -3.3486    9.9567   -1.7119 H   0  0  0  0  0  0  0  0  0  0  0  0
   -1.9307    7.5291   -1.9708 H   0  0  0  0  0  0  0  0  0  0  0  0
   -2.4243    8.8485   -3.0853 H   0  0  0  0  0  0  0  0  0  0  0  0
   -0.7269    8.2607   -3.0853 H   0  0  0  0  0  0  0  0  0  0  0  0
    3.3035   11.1820    0.2976 H   0  0  0  0  0  0  0  0  0  0  0  0
    2.9949   10.3120   -1.2433 H   0  0  0  0  0  0  0  0  0  0  0  0
    3.9705   11.8202   -1.2433 H   0  0  0  0  0  0  0  0  0  0  0  0
    1.5329   13.0412    0.9665 H   0  0  0  0  0  0  0  0  0  0  0  0
    2.9793   13.6561   -0.0150 H   0  0  0  0  0  0  0  0  0  0  0  0
    0.0713   14.4615   -0.3052 H   0  0  0  0  0  0  0  0  0  0  0  0
    1.4710   15.4653    0.2426 H   0  0  0  0  0  0  0  0  0  0  0  0
    3.4042   15.4455   -0.9537 H   0  0  0  0  0  0  0  0  0  0  0  0
    3.4940   14.5462   -2.5061 H   0  0  0  0  0  0  0  0  0  0  0  0
    3.1183   16.3028   -2.5061 H   0  0  0  0  0  0  0  0  0  0  0  0
  1  2  1  0
  2  3  1  0
  3  4  1  0
  4  5  1  0
  5  6  1  0
  6  7  1  0
  7  8  1  0
  7  9  1  0
  2 10  1  0
 10 11  1  0
 11 12  1  0
 12 13  1  0
 13 14  1  1
 13 15  1  0
 15 16  1  0
 16 17  1  0
 17 18  2  0
 18 19  1  0
 19 20  1  0
 20 21  1  0
 21 22  1  0
 22 23  1  0
 22 24  1  0
 24 25  1  0
 24 26  1  0
 19 27  1  0
 27 28  1  6
 27 29  1  0
 29 30  1  0
 30 31  1  0
 31 32  1  1
  7  5  1  0
 31 10  1  0
 31 13  1  0
 27 15  1  0
 24 18  1  0
  1 33  1  0
  1 34  1  0
  1 35  1  0
  2 36  1  1
  3 37  1  0
  3 38  1  0
  4 39  1  0
  4 40  1  0
  5 41  1  1
  8 42  1  0
  8 43  1  0
  8 44  1  0
  9 45  1  0
  9 46  1  0
  9 47  1  0
 10 48  1  1
 11 49  1  0
 11 50  1  0
 12 51  1  0
 12 52  1  0
 14 53  1  0
 14 54  1  0
 14 55  1  0
 15 56  1  6
 16 57  1  0
 16 58  1  0
 17 59  1  0
 19 60  1  1
 20 61  1  0
 20 62  1  0
 21 63  1  0
 21 64  1  0
 22 65  1  1
 23 66  1  0
 25 67  1  0
 25 68  1  0
 25 69  1  0
 26 70  1  0
 26 71  1  0
 26 72  1  0
 28 73  1  0
 28 74  1  0
 28 75  1  0
 29 76  1  0
 29 77  1  0
 30 78  1  0
 30 79  1  0
 32 80  1  0
 32 81  1  0
 32 82  1  0
M  END
>  <meeko>  (5) 
{"is_sidechain": [false], "intermolecular_energy": 2.731, "internal_energy": -0.839}

$$$$
EPH_relaxed_0001_pdb2pqr_Repair_87_r2_0001_out
     RDKit          3D

 82 86  0  0  0  0  0  0  0  0999 V2000
    3.5020   18.0820    0.8160 C   0  0  0  0  0  0  0  0  0  0  0  0
    2.5800   18.4300   -0.3560 C   0  0  2  0  0  0  0  0  0  0  0  0
    1.8180   19.7500   -0.1220 C   0  0  0  0  0  0  0  0  0  0  0  0
    0.7540   19.6610    0.9750 C   0  0  0  0  0  0  0  0  0  0  0  0
   -0.5670   20.1940    0.5100 C   0  0  2  0  0  0  0  0  0  0  0  0
   -1.5970   20.1940    1.5070 O   0  0  0  0  0  0  0  0  0  0  0  0
   -1.8130   19.3380    0.3730 C   0  0  0  0  0  0  0  0  0  0  0  0
   -1.7970   17.8780    0.7010 C   0  0  0  0  0  0  0  0  0  0  0  0
   -2.9070   19.8060   -0.5360 C   0  0  0  0  0  0  0  0  0  0  0  0
    1.5930   17.2940   -0.5950 C   0  0  1  0  0  0  0  0  0  0  0  0
    0.4050   17.7160   -1.5010 C   0  0  0  0  0  0  0  0  0  0  0  0
    0.0340   16.4780   -2.3570 C   0  0  0  0  0  0  0  0  0  0  0  0
    0.7870   15.3030   -1.6910 C   0  0  1  0  0  0  0  0  0  0  0  0
   -0.1060   14.8890   -0.4790 C   0  0  0  0  0  0  0  0  0  0  0  0
    1.1140   14.0810   -2.6100 C   0  0  2  0  0  0  0  0  0  0  0  0
   -0.1130   13.3500   -3.1830 C   0  0  0  0  0  0  0  0  0  0  0  0
   -0.6320   12.2250   -2.3500 C   0  0  0  0  0  0  0  0  0  0  0  0
    0.0280   11.6340   -1.3360 C   0  0  0  0  0  0  0  0  0  0  0  0
    1.4730   12.0270   -1.0010 C   0  0  1  0  0  0  0  0  0  0  0  0
    2.3240   10.7450   -0.8000 C   0  0  0  0  0  0  0  0  0  0  0  0
    1.7220    9.7990    0.2340 C   0  0  0  0  0  0  0  0  0  0  0  0
    0.3070    9.3860   -0.1630 C   0  0  2  0  0  0  0  0  0  0  0  0
    0.3760    8.5870   -1.3490 O   0  0  0  0  0  0  0  0  0  0  0  0
   -0.6400   10.5950   -0.4030 C   0  0  0  0  0  0  0  0  0  0  0  0
   -0.9540   11.2850    0.9480 C   0  0  0  0  0  0  0  0  0  0  0  0
   -1.9910   10.0450   -0.9340 C   0  0  0  0  0  0  0  0  0  0  0  0
    2.1560   13.0650   -1.9920 C   0  0  1  0  0  0  0  0  0  0  0  0
    2.8050   12.3080   -3.1910 C   0  0  0  0  0  0  0  0  0  0  0  0
    3.3310   13.7960   -1.2400 C   0  0  0  0  0  0  0  0  0  0  0  0
    2.9650   15.0640   -0.4460 C   0  0  0  0  0  0  0  0  0  0  0  0
    2.1290   16.0230   -1.3000 C   0  0  2  0  0  0  0  0  0  0  0  0
    3.0090   16.4730   -2.5150 C   0  0  0  0  0  0  0  0  0  0  0  0
    2.9801   18.2790    1.7641 H   0  0  0  0  0  0  0  0  0  0  0  0
    3.7769   17.0182    0.7629 H   0  0  0  0  0  0  0  0  0  0  0  0
    4.4112   18.6988    0.7629 H   0  0  0  0  0  0  0  0  0  0  0  0
    3.2119   18.5667   -1.2460 H   0  0  0  0  0  0  0  0  0  0  0  0
    2.5452   20.5250    0.1618 H   0  0  0  0  0  0  0  0  0  0  0  0
    1.2939   19.9887   -1.0592 H   0  0  0  0  0  0  0  0  0  0  0  0
    0.6306   18.6078    1.2673 H   0  0  0  0  0  0  0  0  0  0  0  0
    1.0887   20.2700    1.8277 H   0  0  0  0  0  0  0  0  0  0  0  0
   -0.0696   20.8893   -0.1822 H   0  0  0  0  0  0  0  0  0  0  0  0
   -1.7956   17.7476    1.7932 H   0  0  0  0  0  0  0  0  0  0  0  0
   -2.6899   17.3968    0.2754 H   0  0  0  0  0  0  0  0  0  0  0  0
   -0.8937   17.4165    0.2754 H   0  0  0  0  0  0  0  0  0  0  0  0
   -3.7537   20.1682    0.0655 H   0  0  0  0  0  0  0  0  0  0  0  0
   -2.5322   20.6226   -1.1707 H   0  0  0  0  0  0  0  0  0  0  0  0
   -3.2387   18.9710   -1.1707 H   0  0  0  0  0  0  0  0  0  0  0  0
    1.3233   17.0616    0.4458 H   0  0  0  0  0  0  0  0  0  0  0  0
   -0.4529   18.0205   -0.8835 H   0  0  0  0  0  0  0  0  0  0  0  0
    0.6782   18.5697   -2.1386 H   0  0  0  0  0  0  0  0  0  0  0  0
   -1.0520   16.3039   -2.3377 H   0  0  0  0  0  0  0  0  0  0  0  0
    0.3098   16.6043   -3.4143 H   0  0  0  0  0  0  0  0  0  0  0  0
    0.4147   15.1304    0.4594 H   0  0  0  0  0  0  0  0  0  0  0  0
   -1.0587   15.4373   -0.5213 H   0  0  0  0  0  0  0  0  0  0  0  0
   -0.3031   13.8076   -0.5213 H   0  0  0  0  0  0  0  0  0  0  0  0
    1.6069   14.5578   -3.4701 H   0  0  0  0  0  0  0  0  0  0  0  0
   -0.9219   14.0858   -3.3023 H   0  0  0  0  0  0  0  0  0  0  0  0
    0.2165   12.8997   -4.1310 H   0  0  0  0  0  0  0  0  0  0  0  0
   -1.6381   11.8471   -2.5843 H   0  0  0  0  0  0  0  0  0  0  0  0
    1.4248   12.5941   -0.0597 H   0  0  0  0  0  0  0  0  0  0  0  0
    2.3969   10.2159   -1.7616 H   0  0  0  0  0  0  0  0  0  0  0  0
    3.3132   11.0554   -0.4324 H   0  0  0  0  0  0  0  0  0  0  0  0
    2.3516    8.9002    0.3093 H   0  0  0  0  0  0  0  0  0  0  0  0
    1.6773   10.3194    1.2021 H   0  0  0  0  0  0  0  0  0  0  0  0
   -0.1180    8.8164    0.6766 H   0  0  0  0  0  0  0  0  0  0  0  0
    0.0230    7.7070   -1.1310 H   0  0  0  0  0  0  0  0  0  0  0  0
   -0.6537   10.6251    1.7753 H   0  0  0  0  0  0  0  0  0  0  0  0
   -0.3981   12.2319    1.0140 H   0  0  0  0  0  0  0  0  0  0  0  0
   -2.0331   11.4879    1.0140 H   0  0  0  0  0  0  0  0  0  0  0  0
   -2.6387    9.7813   -0.0849 H   0  0  0  0  0  0  0  0  0  0  0  0
   -2.4845   10.8138   -1.5467 H   0  0  0  0  0  0  0  0  0  0  0  0
   -1.8072    9.1501   -1.5467 H   0  0  0  0  0  0  0  0  0  0  0  0
    3.4766   11.5246   -2.8098 H   0  0  0  0  0  0  0  0  0  0  0  0
    2.0162   11.8481   -3.8045 H   0  0  0  0  0  0  0  0  0  0  0  0
    3.3800   13.0173   -3.8045 H   0  0  0  0  0  0  0  0  0  0  0  0
    3.7724   13.0771   -0.5340 H   0  0  0  0  0  0  0  0  0  0  0  0
    4.0108   14.1396   -2.0336 H   0  0  0  0  0  0  0  0  0  0  0  0
    2.3860   14.7767    0.4441 H   0  0  0  0  0  0  0  0  0  0  0  0
    3.8940   15.5746   -0.1524 H   0  0  0  0  0  0  0  0  0  0  0  0
    3.9313   16.9446   -2.1450 H   0  0  0  0  0  0  0  0  0  0  0  0
    3.2658   15.5955   -3.1267 H   0  0  0  0  0  0  0  0  0  0  0  0
    2.4480   17.1949   -3.1267 H   0  0  0  0  0  0  0  0  0  0  0  0
  1  2  1  0
  2  3  1  0
  3  4  1  0
  4  5  1  0
  5  6  1  0
  6  7  1  0
  7  8  1  0
  7  9  1  0
  2 10  1  0
 10 11  1  0
 11 12  1  0
 12 13  1  0
 13 14  1  1
 13 15  1  0
 15 16  1  0
 16 17  1  0
 17 18  2  0
 18 19  1  0
 19 20  1  0
 20 21  1  0
 21 22  1  0
 22 23  1  0
 22 24  1  0
 24 25  1  0
 24 26  1  0
 19 27  1  0
 27 28  1  6
 27 29  1  0
 29 30  1  0
 30 31  1  0
 31 32  1  6
  7  5  1  0
 31 10  1  0
 31 13  1  0
 27 15  1  0
 24 18  1  0
  1 33  1  0
  1 34  1  0
  1 35  1  0
  2 36  1  6
  3 37  1  0
  3 38  1  0
  4 39  1  0
  4 40  1  0
  5 41  1  6
  8 42  1  0
  8 43  1  0
  8 44  1  0
  9 45  1  0
  9 46  1  0
  9 47  1  0
 10 48  1  1
 11 49  1  0
 11 50  1  0
 12 51  1  0
 12 52  1  0
 14 53  1  0
 14 54  1  0
 14 55  1  0
 15 56  1  6
 16 57  1  0
 16 58  1  0
 17 59  1  0
 19 60  1  1
 20 61  1  0
 20 62  1  0
 21 63  1  0
 21 64  1  0
 22 65  1  1
 23 66  1  0
 25 67  1  0
 25 68  1  0
 25 69  1  0
 26 70  1  0
 26 71  1  0
 26 72  1  0
 28 73  1  0
 28 74  1  0
 28 75  1  0
 29 76  1  0
 29 77  1  0
 30 78  1  0
 30 79  1  0
 32 80  1  0
 32 81  1  0
 32 82  1  0
M  END
>  <meeko>  (6) 
{"is_sidechain": [false], "intermolecular_energy": 2.731, "internal_energy": -0.839}

$$$$
EPH_relaxed_0001_pdb2pqr_Repair_87_r2_0001_out
     RDKit          3D

 82 86  0  0  0  0  0  0  0  0999 V2000
    0.3990    8.8610   -2.5440 C   0  0  0  0  0  0  0  0  0  0  0  0
    1.1650   10.0220   -3.1850 C   0  0  2  0  0  0  0  0  0  0  0  0
    2.6570   10.0190   -2.7960 C   0  0  0  0  0  0  0  0  0  0  0  0
    3.5720   10.6310   -3.8600 C   0  0  0  0  0  0  0  0  0  0  0  0
    4.9660   10.8260   -3.3470 C   0  0  2  0  0  0  0  0  0  0  0  0
    5.6000   12.0370   -3.7790 O   0  0  0  0  0  0  0  0  0  0  0  0
    6.1950   10.8120   -4.2370 C   0  0  0  0  0  0  0  0  0  0  0  0
    6.0860   10.5970   -5.7140 C   0  0  0  0  0  0  0  0  0  0  0  0
    7.5250   10.5200   -3.6160 C   0  0  0  0  0  0  0  0  0  0  0  0
    0.5260   11.3480   -2.7880 C   0  0  1  0  0  0  0  0  0  0  0  0
   -0.8460   11.1630   -2.0860 C   0  0  0  0  0  0  0  0  0  0  0  0
   -0.9560   12.2830   -1.0190 C   0  0  0  0  0  0  0  0  0  0  0  0
    0.1890   13.2640   -1.3640 C   0  0  1  0  0  0  0  0  0  0  0  0
   -0.3710   14.1420   -2.5260 C   0  0  0  0  0  0  0  0  0  0  0  0
    0.7260   14.1400   -0.1860 C   0  0  2  0  0  0  0  0  0  0  0  0
   -0.3020   15.1040    0.4330 C   0  0  0  0  0  0  0  0  0  0  0  0
   -0.3540   16.4630   -0.1830 C   0  0  0  0  0  0  0  0  0  0  0  0
    0.5810   16.9890   -0.9970 C   0  0  0  0  0  0  0  0  0  0  0  0
    1.8820   16.2320   -1.2950 C   0  0  1  0  0  0  0  0  0  0  0  0
    3.0870   17.1990   -1.1560 C   0  0  0  0  0  0  0  0  0  0  0  0
    2.9320   18.4530   -2.0110 C   0  0  0  0  0  0  0  0  0  0  0  0
    1.6570   19.2090   -1.6450 C   0  0  2  0  0  0  0  0  0  0  0  0
    1.7920   19.7240   -0.3170 O   0  0  0  0  0  0  0  0  0  0  0  0
    0.3770   18.3320   -1.7390 C   0  0  0  0  0  0  0  0  0  0  0  0
    0.0650   18.0250   -3.2240 C   0  0  0  0  0  0  0  0  0  0  0  0
   -0.8160   19.1720   -1.2090 C   0  0  0  0  0  0  0  0  0  0  0  0
    2.0930   14.8750   -0.4950 C   0  0  1  0  0  0  0  0  0  0  0  0
    2.7630   15.1680    0.8820 C   0  0  0  0  0  0  0  0  0  0  0  0
    3.0970   13.9600   -1.2910 C   0  0  0  0  0  0  0  0  0  0  0  0
    2.4920   13.0300   -2.3600 C   0  0  0  0  0  0  0  0  0  0  0  0
    1.3050   12.2440   -1.7930 C   0  0  2  0  0  0  0  0  0  0  0  0
    1.8420   11.3340   -0.6360 C   0  0  0  0  0  0  0  0  0  0  0  0
    0.4547    8.9454   -1.4487 H   0  0  0  0  0  0  0  0  0  0  0  0
   -0.6536    8.8965   -2.8615 H   0  0  0  0  0  0  0  0  0  0  0  0
    0.8458    7.9073   -2.8615 H   0  0  0  0  0  0  0  0  0  0  0  0
    1.1084    9.8934   -4.2760 H   0  0  0  0  0  0  0  0  0  0  0  0
    2.7743   10.5933   -1.8652 H   0  0  0  0  0  0  0  0  0  0  0  0
    2.9569    8.9670   -2.6809 H   0  0  0  0  0  0  0  0  0  0  0  0
    3.6035    9.9605   -4.7314 H   0  0  0  0  0  0  0  0  0  0  0  0
    3.1670   11.6161   -4.1348 H   0  0  0  0  0  0  0  0  0  0  0  0
    4.7227   10.2924   -2.4164 H   0  0  0  0  0  0  0  0  0  0  0  0
    5.5965    9.6314   -5.9088 H   0  0  0  0  0  0  0  0  0  0  0  0
    5.4896   11.4069   -6.1594 H   0  0  0  0  0  0  0  0  0  0  0  0
    7.0918   10.5947   -6.1594 H   0  0  0  0  0  0  0  0  0  0  0  0
    7.4305   10.5407   -2.5203 H   0  0  0  0  0  0  0  0  0  0  0  0
    7.8684    9.5251   -3.9357 H   0  0  0  0  0  0  0  0  0  0  0  0
    8.2536   11.2796   -3.9357 H   0  0  0  0  0  0  0  0  0  0  0  0
    0.4809   11.8333   -3.7741 H   0  0  0  0  0  0  0  0  0  0  0  0
   -1.6618   11.2555   -2.8180 H   0  0  0  0  0  0  0  0  0  0  0  0
   -0.9227   10.1677   -1.6239 H   0  0  0  0  0  0  0  0  0  0  0  0
   -1.9317   12.7867   -1.0839 H   0  0  0  0  0  0  0  0  0  0  0  0
   -0.8759   11.8921    0.0061 H   0  0  0  0  0  0  0  0  0  0  0  0
   -0.9179   14.9995   -2.1069 H   0  0  0  0  0  0  0  0  0  0  0  0
    0.4623   14.5057   -3.1451 H   0  0  0  0  0  0  0  0  0  0  0  0
   -1.0522   13.5398   -3.1451 H   0  0  0  0  0  0  0  0  0  0  0  0
    0.9353   13.3881    0.5891 H   0  0  0  0  0  0  0  0  0  0  0  0
   -1.2981   14.6478    0.3342 H   0  0  0  0  0  0  0  0  0  0  0  0
    0.0123   15.2548    1.4763 H   0  0  0  0  0  0  0  0  0  0  0  0
   -1.2299   17.0872    0.0475 H   0  0  0  0  0  0  0  0  0  0  0  0
    1.8005   15.8845   -2.3355 H   0  0  0  0  0  0  0  0  0  0  0  0
    3.1780   17.4999   -0.1019 H   0  0  0  0  0  0  0  0  0  0  0  0
    3.9845   16.6665   -1.5037 H   0  0  0  0  0  0  0  0  0  0  0  0
    3.7993   19.1096   -1.8475 H   0  0  0  0  0  0  0  0  0  0  0  0
    2.8708   18.1523   -3.0673 H   0  0  0  0  0  0  0  0  0  0  0  0
    1.5337   20.0223   -2.3753 H   0  0  0  0  0  0  0  0  0  0  0  0
    0.8970   19.8740    0.0320 H   0  0  0  0  0  0  0  0  0  0  0  0
   -0.7180   17.2546   -3.2825 H   0  0  0  0  0  0  0  0  0  0  0  0
   -0.2843   18.9413   -3.7223 H   0  0  0  0  0  0  0  0  0  0  0  0
    0.9756   17.6610   -3.7223 H   0  0  0  0  0  0  0  0  0  0  0  0
   -0.8083   19.1666   -0.1090 H   0  0  0  0  0  0  0  0  0  0  0  0
   -0.7255   20.2067   -1.5712 H   0  0  0  0  0  0  0  0  0  0  0  0
   -1.7596   18.7380   -1.5712 H   0  0  0  0  0  0  0  0  0  0  0  0
    2.0814   14.8699    1.6923 H   0  0  0  0  0  0  0  0  0  0  0  0
    3.7000   14.5975    0.9626 H   0  0  0  0  0  0  0  0  0  0  0  0
    2.9803   16.2433    0.9626 H   0  0  0  0  0  0  0  0  0  0  0  0
    3.8203   14.6187   -1.7939 H   0  0  0  0  0  0  0  0  0  0  0  0
    3.5323   13.2872   -0.5375 H   0  0  0  0  0  0  0  0  0  0  0  0
    2.1489   13.6357   -3.2117 H   0  0  0  0  0  0  0  0  0  0  0  0
    3.2643   12.3161   -2.6823 H   0  0  0  0  0  0  0  0  0  0  0  0
    1.5785   11.7806    0.3341 H   0  0  0  0  0  0  0  0  0  0  0  0
    1.3888   10.3348   -0.7149 H   0  0  0  0  0  0  0  0  0  0  0  0
    2.9358   11.2477   -0.7149 H   0  0  0  0  0  0  0  0  0  0  0  0
  1  2  1  0
  2  3  1  0
  3  4  1  0
  4  5  1  0
  5  6  1  0
  6  7  1  0
  7  8  1  0
  7  9  1  0
  2 10  1  0
 10 11  1  0
 11 12  1  0
 12 13  1  0
 13 14  1  6
 13 15  1  0
 15 16  1  0
 16 17  1  0
 17 18  2  0
 18 19  1  0
 19 20  1  0
 20 21  1  0
 21 22  1  0
 22 23  1  0
 22 24  1  0
 24 25  1  0
 24 26  1  0
 19 27  1  0
 27 28  1  1
 27 29  1  0
 29 30  1  0
 30 31  1  0
 31 32  1  1
  7  5  1  0
 31 10  1  0
 31 13  1  0
 27 15  1  0
 24 18  1  0
  1 33  1  0
  1 34  1  0
  1 35  1  0
  2 36  1  6
  3 37  1  0
  3 38  1  0
  4 39  1  0
  4 40  1  0
  5 41  1  1
  8 42  1  0
  8 43  1  0
  8 44  1  0
  9 45  1  0
  9 46  1  0
  9 47  1  0
 10 48  1  6
 11 49  1  0
 11 50  1  0
 12 51  1  0
 12 52  1  0
 14 53  1  0
 14 54  1  0
 14 55  1  0
 15 56  1  1
 16 57  1  0
 16 58  1  0
 17 59  1  0
 19 60  1  6
 20 61  1  0
 20 62  1  0
 21 63  1  0
 21 64  1  0
 22 65  1  6
 23 66  1  0
 25 67  1  0
 25 68  1  0
 25 69  1  0
 26 70  1  0
 26 71  1  0
 26 72  1  0
 28 73  1  0
 28 74  1  0
 28 75  1  0
 29 76  1  0
 29 77  1  0
 30 78  1  0
 30 79  1  0
 32 80  1  0
 32 81  1  0
 32 82  1  0
M  END
>  <meeko>  (7) 
{"is_sidechain": [false], "intermolecular_energy": 2.731, "internal_energy": -0.839}

$$$$
EPH_relaxed_0001_pdb2pqr_Repair_87_r2_0001_out
     RDKit          3D

 82 86  0  0  0  0  0  0  0  0999 V2000
    2.7490   18.8450   -1.2700 C   0  0  0  0  0  0  0  0  0  0  0  0
    2.3720   17.7810   -2.3050 C   0  0  2  0  0  0  0  0  0  0  0  0
    0.9130   17.9280   -2.7830 C   0  0  0  0  0  0  0  0  0  0  0  0
    0.2510   19.2380   -2.3460 C   0  0  0  0  0  0  0  0  0  0  0  0
   -1.0450   18.9930   -1.6340 C   0  0  2  0  0  0  0  0  0  0  0  0
   -1.7940   20.1770   -1.3310 O   0  0  0  0  0  0  0  0  0  0  0  0
   -1.3090   19.4280   -0.2050 C   0  0  0  0  0  0  0  0  0  0  0  0
   -0.2680   20.1430    0.5980 C   0  0  0  0  0  0  0  0  0  0  0  0
   -2.3880   18.7340    0.5670 C   0  0  0  0  0  0  0  0  0  0  0  0
    2.5920   16.3890   -1.7250 C   0  0  1  0  0  0  0  0  0  0  0  0
    3.4230   16.4130   -0.4140 C   0  0  0  0  0  0  0  0  0  0  0  0
    2.8690   15.2810    0.4870 C   0  0  0  0  0  0  0  0  0  0  0  0
    1.9750   14.4370   -0.4510 C   0  0  1  0  0  0  0  0  0  0  0  0
    2.9660   13.5100   -1.2230 C   0  0  0  0  0  0  0  0  0  0  0  0
    0.8330   13.6180    0.2340 C   0  0  2  0  0  0  0  0  0  0  0  0
    1.3070   12.5410    1.2250 C   0  0  0  0  0  0  0  0  0  0  0  0
    1.5390   11.1890    0.6350 C   0  0  0  0  0  0  0  0  0  0  0  0
    1.1060   10.7780   -0.5710 C   0  0  0  0  0  0  0  0  0  0  0  0
    0.2170   11.6780   -1.4380 C   0  0  1  0  0  0  0  0  0  0  0  0
   -0.9740   10.8510   -1.9910 C   0  0  0  0  0  0  0  0  0  0  0  0
   -0.5220    9.5940   -2.7270 C   0  0  0  0  0  0  0  0  0  0  0  0
    0.3110    8.6970   -1.8150 C   0  0  2  0  0  0  0  0  0  0  0  0
   -0.5300    8.1910   -0.7740 O   0  0  0  0  0  0  0  0  0  0  0  0
    1.5350    9.4250   -1.1920 C   0  0  0  0  0  0  0  0  0  0  0  0
    2.5880    9.7060   -2.2910 C   0  0  0  0  0  0  0  0  0  0  0  0
    2.2060    8.4520   -0.1850 C   0  0  0  0  0  0  0  0  0  0  0  0
   -0.2460   13.0440   -0.7710 C   0  0  1  0  0  0  0  0  0  0  0  0
   -1.5490   12.8180    0.0550 C   0  0  0  0  0  0  0  0  0  0  0  0
   -0.6130   14.0720   -1.9060 C   0  0  0  0  0  0  0  0  0  0  0  0
    0.5370   14.9360   -2.4590 C   0  0  0  0  0  0  0  0  0  0  0  0
    1.3350   15.5800   -1.3210 C   0  0  2  0  0  0  0  0  0  0  0  0
    0.3700   16.5350   -0.5400 C   0  0  0  0  0  0  0  0  0  0  0  0
    2.6052   18.4391   -0.2578 H   0  0  0  0  0  0  0  0  0  0  0  0
    3.8029   19.1301   -1.4044 H   0  0  0  0  0  0  0  0  0  0  0  0
    2.1097   19.7300   -1.4044 H   0  0  0  0  0  0  0  0  0  0  0  0
    3.0230   17.9256   -3.1798 H   0  0  0  0  0  0  0  0  0  0  0  0
    0.9014   17.8828   -3.8820 H   0  0  0  0  0  0  0  0  0  0  0  0
    0.3401   17.1093   -2.3232 H   0  0  0  0  0  0  0  0  0  0  0  0
    0.9334   19.7742   -1.6701 H   0  0  0  0  0  0  0  0  0  0  0  0
    0.0405   19.8332   -3.2468 H   0  0  0  0  0  0  0  0  0  0  0  0
   -1.1721   18.0282   -2.1469 H   0  0  0  0  0  0  0  0  0  0  0  0
   -0.4716   20.0031    1.6699 H   0  0  0  0  0  0  0  0  0  0  0  0
    0.7249   19.7354    0.3572 H   0  0  0  0  0  0  0  0  0  0  0  0
   -0.2921   21.2160    0.3572 H   0  0  0  0  0  0  0  0  0  0  0  0
   -2.2025   18.8533    1.6447 H   0  0  0  0  0  0  0  0  0  0  0  0
   -3.3630   19.1748    0.3117 H   0  0  0  0  0  0  0  0  0  0  0  0
   -2.3912   17.6640    0.3117 H   0  0  0  0  0  0  0  0  0  0  0  0
    3.0890   15.9091   -2.5810 H   0  0  0  0  0  0  0  0  0  0  0  0
    4.4856   16.2349   -0.6357 H   0  0  0  0  0  0  0  0  0  0  0  0
    3.3444   17.3898    0.0857 H   0  0  0  0  0  0  0  0  0  0  0  0
    3.6896   14.6715    0.8933 H   0  0  0  0  0  0  0  0  0  0  0  0
    2.3135   15.6713    1.3525 H   0  0  0  0  0  0  0  0  0  0  0  0
    3.5733   12.9420   -0.5029 H   0  0  0  0  0  0  0  0  0  0  0  0
    2.3979   12.8115   -1.8550 H   0  0  0  0  0  0  0  0  0  0  0  0
    3.6250   14.1234   -1.8550 H   0  0  0  0  0  0  0  0  0  0  0  0
    0.3273   14.3822    0.8425 H   0  0  0  0  0  0  0  0  0  0  0  0
    2.2518   12.8832    1.6726 H   0  0  0  0  0  0  0  0  0  0  0  0
    0.4926   12.4190    1.9543 H   0  0  0  0  0  0  0  0  0  0  0  0
    2.1121   10.4684    1.2369 H   0  0  0  0  0  0  0  0  0  0  0  0
    0.8504   12.0219   -2.2690 H   0  0  0  0  0  0  0  0  0  0  0  0
   -1.6181   10.5547   -1.1500 H   0  0  0  0  0  0  0  0  0  0  0  0
   -1.5136   11.4835   -2.7112 H   0  0  0  0  0  0  0  0  0  0  0  0
   -1.4080    9.0379   -3.0671 H   0  0  0  0  0  0  0  0  0  0  0  0
    0.0973    9.8935   -3.5853 H   0  0  0  0  0  0  0  0  0  0  0  0
    0.7134    7.8804   -2.4324 H   0  0  0  0  0  0  0  0  0  0  0  0
   -1.3050    8.7750   -0.7110 H   0  0  0  0  0  0  0  0  0  0  0  0
    3.5489    9.9624   -1.8211 H   0  0  0  0  0  0  0  0  0  0  0  0
    2.7133    8.8099   -2.9165 H   0  0  0  0  0  0  0  0  0  0  0  0
    2.2501   10.5454   -2.9165 H   0  0  0  0  0  0  0  0  0  0  0  0
    1.9826    8.7759    0.8422 H   0  0  0  0  0  0  0  0  0  0  0  0
    1.8160    7.4355   -0.3419 H   0  0  0  0  0  0  0  0  0  0  0  0
    3.2947    8.4553   -0.3419 H   0  0  0  0  0  0  0  0  0  0  0  0
   -1.3141   12.8587    1.1289 H   0  0  0  0  0  0  0  0  0  0  0  0
   -2.2796   13.6028   -0.1906 H   0  0  0  0  0  0  0  0  0  0  0  0
   -1.9726   11.8330   -0.1906 H   0  0  0  0  0  0  0  0  0  0  0  0
   -1.0355   13.5025   -2.7469 H   0  0  0  0  0  0  0  0  0  0  0  0
   -1.3077   14.7838   -1.4362 H   0  0  0  0  0  0  0  0  0  0  0  0
    1.2090   14.3016   -3.0556 H   0  0  0  0  0  0  0  0  0  0  0  0
    0.1076   15.7345   -3.0819 H   0  0  0  0  0  0  0  0  0  0  0  0
    0.5117   16.3948    0.5418 H   0  0  0  0  0  0  0  0  0  0  0  0
    0.5921   17.5788   -0.8066 H   0  0  0  0  0  0  0  0  0  0  0  0
   -0.6715   16.3021   -0.8066 H   0  0  0  0  0  0  0  0  0  0  0  0
  1  2  1  0
  2  3  1  0
  3  4  1  0
  4  5  1  0
  5  6  1  0
  6  7  1  0
  7  8  1  0
  7  9  1  0
  2 10  1  0
 10 11  1  0
 11 12  1  0
 12 13  1  0
 13 14  1  6
 13 15  1  0
 15 16  1  0
 16 17  1  0
 17 18  2  0
 18 19  1  0
 19 20  1  0
 20 21  1  0
 21 22  1  0
 22 23  1  0
 22 24  1  0
 24 25  1  0
 24 26  1  0
 19 27  1  0
 27 28  1  1
 27 29  1  0
 29 30  1  0
 30 31  1  0
 31 32  1  1
  7  5  1  0
 31 10  1  0
 31 13  1  0
 27 15  1  0
 24 18  1  0
  1 33  1  0
  1 34  1  0
  1 35  1  0
  2 36  1  6
  3 37  1  0
  3 38  1  0
  4 39  1  0
  4 40  1  0
  5 41  1  1
  8 42  1  0
  8 43  1  0
  8 44  1  0
  9 45  1  0
  9 46  1  0
  9 47  1  0
 10 48  1  6
 11 49  1  0
 11 50  1  0
 12 51  1  0
 12 52  1  0
 14 53  1  0
 14 54  1  0
 14 55  1  0
 15 56  1  1
 16 57  1  0
 16 58  1  0
 17 59  1  0
 19 60  1  6
 20 61  1  0
 20 62  1  0
 21 63  1  0
 21 64  1  0
 22 65  1  6
 23 66  1  0
 25 67  1  0
 25 68  1  0
 25 69  1  0
 26 70  1  0
 26 71  1  0
 26 72  1  0
 28 73  1  0
 28 74  1  0
 28 75  1  0
 29 76  1  0
 29 77  1  0
 30 78  1  0
 30 79  1  0
 32 80  1  0
 32 81  1  0
 32 82  1  0
M  END
>  <meeko>  (8) 
{"is_sidechain": [false], "intermolecular_energy": 2.731, "internal_energy": -0.839}

$$$$
EPH_relaxed_0001_pdb2pqr_Repair_87_r2_0001_out
     RDKit          3D

 82 86  0  0  0  0  0  0  0  0999 V2000
   -0.9200   16.3880   -5.8960 C   0  0  0  0  0  0  0  0  0  0  0  0
    0.1850   15.6910   -6.6940 C   0  0  2  0  0  0  0  0  0  0  0  0
   -0.2030   15.4920   -8.1730 C   0  0  0  0  0  0  0  0  0  0  0  0
    0.4490   16.5020   -9.1220 C   0  0  0  0  0  0  0  0  0  0  0  0
    1.8530   16.1090   -9.4690 C   0  0  2  0  0  0  0  0  0  0  0  0
    2.3470   16.6730  -10.6910 O   0  0  0  0  0  0  0  0  0  0  0  0
    2.2090   15.2430  -10.6630 C   0  0  0  0  0  0  0  0  0  0  0  0
    1.1550   14.7160  -11.5860 C   0  0  0  0  0  0  0  0  0  0  0  0
    3.5150   14.5110  -10.6520 C   0  0  0  0  0  0  0  0  0  0  0  0
    0.5170   14.3470   -6.0570 C   0  0  1  0  0  0  0  0  0  0  0  0
    1.7440   13.6610   -6.7150 C   0  0  0  0  0  0  0  0  0  0  0  0
    2.4960   12.9100   -5.5860 C   0  0  0  0  0  0  0  0  0  0  0  0
    1.5100   12.9100   -4.3940 C   0  0  1  0  0  0  0  0  0  0  0  0
    0.5230   11.7370   -4.6900 C   0  0  0  0  0  0  0  0  0  0  0  0
    2.1460   12.7850   -2.9710 C   0  0  2  0  0  0  0  0  0  0  0  0
    2.9110   11.4760   -2.7110 C   0  0  0  0  0  0  0  0  0  0  0  0
    2.0970   10.3640   -2.1380 C   0  0  0  0  0  0  0  0  0  0  0  0
    0.8790   10.4940   -1.5790 C   0  0  0  0  0  0  0  0  0  0  0  0
    0.2410   11.8760   -1.3940 C   0  0  1  0  0  0  0  0  0  0  0  0
   -0.3380   11.9910    0.0400 C   0  0  0  0  0  0  0  0  0  0  0  0
   -1.3000   10.8550    0.3760 C   0  0  0  0  0  0  0  0  0  0  0  0
   -0.6120    9.4990    0.2360 C   0  0  2  0  0  0  0  0  0  0  0  0
    0.4000    9.3900    1.2420 O   0  0  0  0  0  0  0  0  0  0  0  0
    0.0190    9.2740   -1.1660 C   0  0  0  0  0  0  0  0  0  0  0  0
   -1.1020    9.0910   -2.2180 C   0  0  0  0  0  0  0  0  0  0  0  0
    0.8010    7.9330   -1.1280 C   0  0  0  0  0  0  0  0  0  0  0  0
    1.1520   13.1180   -1.7860 C   0  0  1  0  0  0  0  0  0  0  0  0
    2.0340   13.5360   -0.5690 C   0  0  0  0  0  0  0  0  0  0  0  0
    0.2280   14.3520   -2.1080 C   0  0  0  0  0  0  0  0  0  0  0  0
   -0.2710   14.4860   -3.5600 C   0  0  0  0  0  0  0  0  0  0  0  0
    0.8870   14.3450   -4.5530 C   0  0  2  0  0  0  0  0  0  0  0  0
    1.8850   15.5250   -4.2940 C   0  0  0  0  0  0  0  0  0  0  0  0
   -0.7274   16.2665   -4.8198 H   0  0  0  0  0  0  0  0  0  0  0  0
   -0.9341   17.4588   -6.1474 H   0  0  0  0  0  0  0  0  0  0  0  0
   -1.8924   15.9395   -6.1474 H   0  0  0  0  0  0  0  0  0  0  0  0
    1.0709   16.3426   -6.6706 H   0  0  0  0  0  0  0  0  0  0  0  0
    0.1025   14.4806   -8.4791 H   0  0  0  0  0  0  0  0  0  0  0  0
   -1.2906   15.6411   -8.2428 H   0  0  0  0  0  0  0  0  0  0  0  0
   -0.1446   16.5574  -10.0464 H   0  0  0  0  0  0  0  0  0  0  0  0
    0.4810   17.4779   -8.6154 H   0  0  0  0  0  0  0  0  0  0  0  0
    2.1234   16.0448   -8.4047 H   0  0  0  0  0  0  0  0  0  0  0  0
    0.3248   14.3009  -10.9956 H   0  0  0  0  0  0  0  0  0  0  0  0
    0.7811   15.5332  -12.2203 H   0  0  0  0  0  0  0  0  0  0  0  0
    1.5845   13.9266  -12.2203 H   0  0  0  0  0  0  0  0  0  0  0  0
    3.8282   14.3355   -9.6122 H   0  0  0  0  0  0  0  0  0  0  0  0
    3.3990   13.5464  -11.1678 H   0  0  0  0  0  0  0  0  0  0  0  0
    4.2773   15.1133  -11.1678 H   0  0  0  0  0  0  0  0  0  0  0  0
   -0.4413   13.8290   -6.2095 H   0  0  0  0  0  0  0  0  0  0  0  0
    1.4122   12.9507   -7.4866 H   0  0  0  0  0  0  0  0  0  0  0  0
    2.3973   14.4014   -7.1998 H   0  0  0  0  0  0  0  0  0  0  0  0
    2.7324   11.8810   -5.8945 H   0  0  0  0  0  0  0  0  0  0  0  0
    3.4549   13.3867   -5.3344 H   0  0  0  0  0  0  0  0  0  0  0  0
    0.1646   11.3111   -3.7412 H   0  0  0  0  0  0  0  0  0  0  0  0
   -0.3327   12.1150   -5.2687 H   0  0  0  0  0  0  0  0  0  0  0  0
    1.0417   10.9585   -5.2687 H   0  0  0  0  0  0  0  0  0  0  0  0
    2.9074   13.5788   -2.9823 H   0  0  0  0  0  0  0  0  0  0  0  0
    3.3305   11.1318   -3.6679 H   0  0  0  0  0  0  0  0  0  0  0  0
    3.6740   11.7148   -1.9554 H   0  0  0  0  0  0  0  0  0  0  0  0
    2.5285    9.3529   -2.1755 H   0  0  0  0  0  0  0  0  0  0  0  0
   -0.5733   11.9364   -2.1310 H   0  0  0  0  0  0  0  0  0  0  0  0
    0.4944   11.9723    0.7588 H   0  0  0  0  0  0  0  0  0  0  0  0
   -0.9018   12.9338    0.0976 H   0  0  0  0  0  0  0  0  0  0  0  0
   -1.6517   10.9752    1.4113 H   0  0  0  0  0  0  0  0  0  0  0  0
   -2.1473   10.8932   -0.3245 H   0  0  0  0  0  0  0  0  0  0  0  0
   -1.3822    8.7237    0.3611 H   0  0  0  0  0  0  0  0  0  0  0  0
    1.2030    9.8190    0.9000 H   0  0  0  0  0  0  0  0  0  0  0  0
   -2.0630    8.9341   -1.7063 H   0  0  0  0  0  0  0  0  0  0  0  0
   -1.1644    9.9908   -2.8476 H   0  0  0  0  0  0  0  0  0  0  0  0
   -0.8750    8.2180   -2.8476 H   0  0  0  0  0  0  0  0  0  0  0  0
    0.9729    7.6383   -0.0822 H   0  0  0  0  0  0  0  0  0  0  0  0
    0.2162    7.1529   -1.6374 H   0  0  0  0  0  0  0  0  0  0  0  0
    1.7679    8.0578   -1.6374 H   0  0  0  0  0  0  0  0  0  0  0  0
    1.5102   13.2878    0.3659 H   0  0  0  0  0  0  0  0  0  0  0  0
    2.9915   12.9959   -0.6074 H   0  0  0  0  0  0  0  0  0  0  0  0
    2.2222   14.6191   -0.6074 H   0  0  0  0  0  0  0  0  0  0  0  0
   -0.6562   14.2845   -1.4571 H   0  0  0  0  0  0  0  0  0  0  0  0
    0.8593   15.2366   -1.9377 H   0  0  0  0  0  0  0  0  0  0  0  0
   -1.0137   13.6994   -3.7593 H   0  0  0  0  0  0  0  0  0  0  0  0
   -0.7215   15.4816   -3.6856 H   0  0  0  0  0  0  0  0  0  0  0  0
    2.0078   15.6702   -3.2106 H   0  0  0  0  0  0  0  0  0  0  0  0
    2.8596   15.2866   -4.7448 H   0  0  0  0  0  0  0  0  0  0  0  0
    1.4881   16.4465   -4.7448 H   0  0  0  0  0  0  0  0  0  0  0  0
  1  2  1  0
  2  3  1  0
  3  4  1  0
  4  5  1  0
  5  6  1  0
  6  7  1  0
  7  8  1  0
  7  9  1  0
  2 10  1  0
 10 11  1  0
 11 12  1  0
 12 13  1  0
 13 14  1  6
 13 15  1  0
 15 16  1  0
 16 17  1  0
 17 18  2  0
 18 19  1  0
 19 20  1  0
 20 21  1  0
 21 22  1  0
 22 23  1  0
 22 24  1  0
 24 25  1  0
 24 26  1  0
 19 27  1  0
 27 28  1  1
 27 29  1  0
 29 30  1  0
 30 31  1  0
 31 32  1  6
  7  5  1  0
 31 10  1  0
 31 13  1  0
 27 15  1  0
 24 18  1  0
  1 33  1  0
  1 34  1  0
  1 35  1  0
  2 36  1  6
  3 37  1  0
  3 38  1  0
  4 39  1  0
  4 40  1  0
  5 41  1  1
  8 42  1  0
  8 43  1  0
  8 44  1  0
  9 45  1  0
  9 46  1  0
  9 47  1  0
 10 48  1  1
 11 49  1  0
 11 50  1  0
 12 51  1  0
 12 52  1  0
 14 53  1  0
 14 54  1  0
 14 55  1  0
 15 56  1  6
 16 57  1  0
 16 58  1  0
 17 59  1  0
 19 60  1  6
 20 61  1  0
 20 62  1  0
 21 63  1  0
 21 64  1  0
 22 65  1  1
 23 66  1  0
 25 67  1  0
 25 68  1  0
 25 69  1  0
 26 70  1  0
 26 71  1  0
 26 72  1  0
 28 73  1  0
 28 74  1  0
 28 75  1  0
 29 76  1  0
 29 77  1  0
 30 78  1  0
 30 79  1  0
 32 80  1  0
 32 81  1  0
 32 82  1  0
M  END
>  <meeko>  (9) 
{"is_sidechain": [false], "intermolecular_energy": 2.731, "internal_energy": -0.839}

$$$$
EPH_relaxed_0001_pdb2pqr_Repair_87_r2_0001_out
     RDKit          3D

 82 86  0  0  0  0  0  0  0  0999 V2000
    0.1000    9.3460   -2.2660 C   0  0  0  0  0  0  0  0  0  0  0  0
    1.1770   10.3390   -2.7110 C   0  0  2  0  0  0  0  0  0  0  0  0
    2.5760    9.6940   -2.7640 C   0  0  0  0  0  0  0  0  0  0  0  0
    3.4940   10.3000   -3.8300 C   0  0  0  0  0  0  0  0  0  0  0  0
    4.8790   10.5270   -3.3040 C   0  0  2  0  0  0  0  0  0  0  0  0
    5.4010   11.8410   -3.5420 O   0  0  0  0  0  0  0  0  0  0  0  0
    6.0840   10.7600   -4.1960 C   0  0  0  0  0  0  0  0  0  0  0  0
    5.9590   10.7760   -5.6880 C   0  0  0  0  0  0  0  0  0  0  0  0
    7.4470   10.4860   -3.6430 C   0  0  0  0  0  0  0  0  0  0  0  0
    1.1930   11.5420   -1.7760 C   0  0  1  0  0  0  0  0  0  0  0  0
    2.2750   11.4250   -0.6690 C   0  0  0  0  0  0  0  0  0  0  0  0
    2.8040   12.8580   -0.4070 C   0  0  0  0  0  0  0  0  0  0  0  0
    1.7920   13.7840   -1.1200 C   0  0  1  0  0  0  0  0  0  0  0  0
    0.5940   13.9100   -0.1260 C   0  0  0  0  0  0  0  0  0  0  0  0
    2.3270   15.1860   -1.5580 C   0  0  2  0  0  0  0  0  0  0  0  0
    2.7900   16.0970   -0.4070 C   0  0  0  0  0  0  0  0  0  0  0  0
    1.7370   16.9890    0.1630 C   0  0  0  0  0  0  0  0  0  0  0  0
    0.5520   17.2660   -0.4110 C   0  0  0  0  0  0  0  0  0  0  0  0
    0.2100   16.7350   -1.8090 C   0  0  1  0  0  0  0  0  0  0  0  0
   -0.3910   17.8800   -2.6660 C   0  0  0  0  0  0  0  0  0  0  0  0
   -1.5830   18.5520   -1.9900 C   0  0  0  0  0  0  0  0  0  0  0  0
   -1.1890   19.1180   -0.6280 C   0  0  2  0  0  0  0  0  0  0  0  0
   -0.2650   20.1930   -0.8260 O   0  0  0  0  0  0  0  0  0  0  0  0
   -0.5610   18.0570    0.3180 C   0  0  0  0  0  0  0  0  0  0  0  0
   -1.6520   17.0560    0.7730 C   0  0  0  0  0  0  0  0  0  0  0  0
   -0.0810   18.7870    1.6020 C   0  0  0  0  0  0  0  0  0  0  0  0
    1.3770   15.9590   -2.5600 C   0  0  1  0  0  0  0  0  0  0  0  0
    2.2760   16.9710   -3.3350 C   0  0  0  0  0  0  0  0  0  0  0  0
    0.7470   15.0050   -3.6430 C   0  0  0  0  0  0  0  0  0  0  0  0
    0.3480   13.5920   -3.1760 C   0  0  0  0  0  0  0  0  0  0  0  0
    1.4910   12.9270   -2.4030 C   0  0  2  0  0  0  0  0  0  0  0  0
    2.7020   12.7680   -3.3840 C   0  0  0  0  0  0  0  0  0  0  0  0
    0.0637    9.3125   -1.1671 H   0  0  0  0  0  0  0  0  0  0  0  0
   -0.8776    9.6663   -2.6556 H   0  0  0  0  0  0  0  0  0  0  0  0
    0.3401    8.3457   -2.6556 H   0  0  0  0  0  0  0  0  0  0  0  0
    0.9253   10.6644   -3.7312 H   0  0  0  0  0  0  0  0  0  0  0  0
    3.0541    9.8206   -1.7815 H   0  0  0  0  0  0  0  0  0  0  0  0
    2.4321    8.6359   -3.0279 H   0  0  0  0  0  0  0  0  0  0  0  0
    3.5464    9.6132   -4.6877 H   0  0  0  0  0  0  0  0  0  0  0  0
    3.0769   11.2728   -4.1293 H   0  0  0  0  0  0  0  0  0  0  0  0
    4.7020    9.8329   -2.4692 H   0  0  0  0  0  0  0  0  0  0  0  0
    4.9033   10.9111   -5.9661 H   0  0  0  0  0  0  0  0  0  0  0  0
    6.5549   11.6052   -6.0970 H   0  0  0  0  0  0  0  0  0  0  0  0
    6.3269    9.8234   -6.0970 H   0  0  0  0  0  0  0  0  0  0  0  0
    7.4052   10.4944   -2.5438 H   0  0  0  0  0  0  0  0  0  0  0  0
    7.7919    9.5006   -3.9893 H   0  0  0  0  0  0  0  0  0  0  0  0
    8.1459   11.2616   -3.9893 H   0  0  0  0  0  0  0  0  0  0  0  0
    0.1544   11.5076   -1.4153 H   0  0  0  0  0  0  0  0  0  0  0  0
    1.8339   11.0103    0.2494 H   0  0  0  0  0  0  0  0  0  0  0  0
    3.0891   10.7547   -0.9819 H   0  0  0  0  0  0  0  0  0  0  0  0
    2.8315   13.0705    0.6719 H   0  0  0  0  0  0  0  0  0  0  0  0
    3.8302   12.9980   -0.7775 H   0  0  0  0  0  0  0  0  0  0  0  0
    0.9692   13.8705    0.9073 H   0  0  0  0  0  0  0  0  0  0  0  0
    0.0785   14.8673   -0.2926 H   0  0  0  0  0  0  0  0  0  0  0  0
   -0.1094   13.0809   -0.2926 H   0  0  0  0  0  0  0  0  0  0  0  0
    3.2373   14.9257   -2.1180 H   0  0  0  0  0  0  0  0  0  0  0  0
    3.1675   15.4559    0.4032 H   0  0  0  0  0  0  0  0  0  0  0  0
    3.5544   16.7627   -0.8342 H   0  0  0  0  0  0  0  0  0  0  0  0
    1.9479   17.4596    1.1346 H   0  0  0  0  0  0  0  0  0  0  0  0
   -0.5427   15.9470   -1.6591 H   0  0  0  0  0  0  0  0  0  0  0  0
    0.3883   18.6365   -2.8404 H   0  0  0  0  0  0  0  0  0  0  0  0
   -0.7461   17.4402   -3.6097 H   0  0  0  0  0  0  0  0  0  0  0  0
   -1.9451   19.3707   -2.6292 H   0  0  0  0  0  0  0  0  0  0  0  0
   -2.3732   17.8010   -1.8432 H   0  0  0  0  0  0  0  0  0  0  0  0
   -2.1089   19.4694   -0.1379 H   0  0  0  0  0  0  0  0  0  0  0  0
    0.2860   19.9700   -1.5950 H   0  0  0  0  0  0  0  0  0  0  0  0
   -1.6858   17.0250    1.8720 H   0  0  0  0  0  0  0  0  0  0  0  0
   -2.6297   17.3779    0.3850 H   0  0  0  0  0  0  0  0  0  0  0  0
   -1.4153   16.0543    0.3850 H   0  0  0  0  0  0  0  0  0  0  0  0
   -0.4388   18.2429    2.4886 H   0  0  0  0  0  0  0  0  0  0  0  0
    1.0183   18.8241    1.6134 H   0  0  0  0  0  0  0  0  0  0  0  0
   -0.4826   19.8110    1.6134 H   0  0  0  0  0  0  0  0  0  0  0  0
    2.8295   17.5941   -2.6172 H   0  0  0  0  0  0  0  0  0  0  0  0
    2.9877   16.4198   -3.9672 H   0  0  0  0  0  0  0  0  0  0  0  0
    1.6448   17.6128   -3.9672 H   0  0  0  0  0  0  0  0  0  0  0  0
   -0.1578   15.4948   -4.0321 H   0  0  0  0  0  0  0  0  0  0  0  0
    1.5424   14.8486   -4.3866 H   0  0  0  0  0  0  0  0  0  0  0  0
   -0.5339   13.6646   -2.5226 H   0  0  0  0  0  0  0  0  0  0  0  0
    0.1214   12.9807   -4.0620 H   0  0  0  0  0  0  0  0  0  0  0  0
    3.6293   12.6462   -2.8050 H   0  0  0  0  0  0  0  0  0  0  0  0
    2.5466   11.8826   -4.0179 H   0  0  0  0  0  0  0  0  0  0  0  0
    2.7804   13.6636   -4.0179 H   0  0  0  0  0  0  0  0  0  0  0  0
  1  2  1  0
  2  3  1  0
  3  4  1  0
  4  5  1  0
  5  6  1  0
  6  7  1  0
  7  8  1  0
  7  9  1  0
  2 10  1  0
 10 11  1  0
 11 12  1  0
 12 13  1  0
 13 14  1  1
 13 15  1  0
 15 16  1  0
 16 17  1  0
 17 18  2  0
 18 19  1  0
 19 20  1  0
 20 21  1  0
 21 22  1  0
 22 23  1  0
 22 24  1  0
 24 25  1  0
 24 26  1  0
 19 27  1  0
 27 28  1  6
 27 29  1  0
 29 30  1  0
 30 31  1  0
 31 32  1  6
  7  5  1  0
 31 10  1  0
 31 13  1  0
 27 15  1  0
 24 18  1  0
  1 33  1  0
  1 34  1  0
  1 35  1  0
  2 36  1  6
  3 37  1  0
  3 38  1  0
  4 39  1  0
  4 40  1  0
  5 41  1  1
  8 42  1  0
  8 43  1  0
  8 44  1  0
  9 45  1  0
  9 46  1  0
  9 47  1  0
 10 48  1  1
 11 49  1  0
 11 50  1  0
 12 51  1  0
 12 52  1  0
 14 53  1  0
 14 54  1  0
 14 55  1  0
 15 56  1  6
 16 57  1  0
 16 58  1  0
 17 59  1  0
 19 60  1  1
 20 61  1  0
 20 62  1  0
 21 63  1  0
 21 64  1  0
 22 65  1  1
 23 66  1  0
 25 67  1  0
 25 68  1  0
 25 69  1  0
 26 70  1  0
 26 71  1  0
 26 72  1  0
 28 73  1  0
 28 74  1  0
 28 75  1  0
 29 76  1  0
 29 77  1  0
 30 78  1  0
 30 79  1  0
 32 80  1  0
 32 81  1  0
 32 82  1  0
M  END
>  <meeko>  (10) 
{"is_sidechain": [false], "intermolecular_energy": 2.731, "internal_energy": -0.839}

$$$$
EPH_relaxed_0001_pdb2pqr_Repair_87_r2_0001_out
     RDKit          3D

 82 86  0  0  0  0  0  0  0  0999 V2000
    2.8200   11.3380   -5.2610 C   0  0  0  0  0  0  0  0  0  0  0  0
    1.7670   11.0420   -4.1890 C   0  0  2  0  0  0  0  0  0  0  0  0
    0.6470   10.1230   -4.7130 C   0  0  0  0  0  0  0  0  0  0  0  0
   -0.4160    9.7870   -3.6630 C   0  0  0  0  0  0  0  0  0  0  0  0
    0.1650    9.0250   -2.5100 C   0  0  2  0  0  0  0  0  0  0  0  0
   -0.6410    7.9330   -2.0480 O   0  0  0  0  0  0  0  0  0  0  0  0
   -0.4470    9.0140   -1.1220 C   0  0  0  0  0  0  0  0  0  0  0  0
   -1.6940    9.7810   -0.8120 C   0  0  0  0  0  0  0  0  0  0  0  0
    0.4260    8.6620    0.0420 C   0  0  0  0  0  0  0  0  0  0  0  0
    1.1720   12.3470   -3.6720 C   0  0  1  0  0  0  0  0  0  0  0  0
   -0.3630   12.2600   -3.4610 C   0  0  0  0  0  0  0  0  0  0  0  0
   -0.6950   13.1360   -2.2260 C   0  0  0  0  0  0  0  0  0  0  0  0
    0.5920   13.9540   -1.9700 C   0  0  1  0  0  0  0  0  0  0  0  0
    0.5230   15.1380   -2.9850 C   0  0  0  0  0  0  0  0  0  0  0  0
    0.8110   14.4600   -0.5070 C   0  0  2  0  0  0  0  0  0  0  0  0
   -0.2590   15.4370    0.0120 C   0  0  0  0  0  0  0  0  0  0  0  0
    0.0260   16.8820   -0.2320 C   0  0  0  0  0  0  0  0  0  0  0  0
    1.2190   17.3960   -0.5840 C   0  0  0  0  0  0  0  0  0  0  0  0
    2.4640   16.5050   -0.6770 C   0  0  1  0  0  0  0  0  0  0  0  0
    3.6520   17.1990    0.0390 C   0  0  0  0  0  0  0  0  0  0  0  0
    3.9050   18.6100   -0.4820 C   0  0  0  0  0  0  0  0  0  0  0  0
    2.6630   19.4820   -0.3190 C   0  0  2  0  0  0  0  0  0  0  0  0
    2.4180   19.6790    1.0770 O   0  0  0  0  0  0  0  0  0  0  0  0
    1.3980   18.8790   -0.9920 C   0  0  0  0  0  0  0  0  0  0  0  0
    1.5470   18.9460   -2.5320 C   0  0  0  0  0  0  0  0  0  0  0  0
    0.1890   19.7840   -0.6330 C   0  0  0  0  0  0  0  0  0  0  0  0
    2.2720   14.9950   -0.2180 C   0  0  1  0  0  0  0  0  0  0  0  0
    2.4930   14.8750    1.3210 C   0  0  0  0  0  0  0  0  0  0  0  0
    3.3800   14.1060   -0.8960 C   0  0  0  0  0  0  0  0  0  0  0  0
    3.0560   13.5370   -2.2910 C   0  0  0  0  0  0  0  0  0  0  0  0
    1.6790   12.8680   -2.3040 C   0  0  2  0  0  0  0  0  0  0  0  0
    1.7250   11.6590   -1.3090 C   0  0  0  0  0  0  0  0  0  0  0  0
    3.7709   11.6053   -4.7770 H   0  0  0  0  0  0  0  0  0  0  0  0
    2.9657   10.4460   -5.8880 H   0  0  0  0  0  0  0  0  0  0  0  0
    2.4796   12.1753   -5.8880 H   0  0  0  0  0  0  0  0  0  0  0  0
    2.2706   10.5114   -3.3675 H   0  0  0  0  0  0  0  0  0  0  0  0
    0.1535   10.6245   -5.5585 H   0  0  0  0  0  0  0  0  0  0  0  0
    1.1205    9.1743   -5.0058 H   0  0  0  0  0  0  0  0  0  0  0  0
   -0.8541   10.7233   -3.2870 H   0  0  0  0  0  0  0  0  0  0  0  0
   -1.1816    9.1570   -4.1395 H   0  0  0  0  0  0  0  0  0  0  0  0
    1.1877    9.2220   -2.8638 H   0  0  0  0  0  0  0  0  0  0  0  0
   -1.8165    9.8564    0.2786 H   0  0  0  0  0  0  0  0  0  0  0  0
   -1.6205   10.7902   -1.2433 H   0  0  0  0  0  0  0  0  0  0  0  0
   -2.5616    9.2602   -1.2433 H   0  0  0  0  0  0  0  0  0  0  0  0
   -0.1081    8.8773    0.9792 H   0  0  0  0  0  0  0  0  0  0  0  0
    0.6779    7.5920    0.0010 H   0  0  0  0  0  0  0  0  0  0  0  0
    1.3496    9.2580    0.0010 H   0  0  0  0  0  0  0  0  0  0  0  0
    1.4927   13.0269   -4.4750 H   0  0  0  0  0  0  0  0  0  0  0  0
   -0.8895   12.6412   -4.3484 H   0  0  0  0  0  0  0  0  0  0  0  0
   -0.6817   11.2190   -3.3040 H   0  0  0  0  0  0  0  0  0  0  0  0
   -1.5430   13.8032   -2.4399 H   0  0  0  0  0  0  0  0  0  0  0  0
   -0.9863   12.5331   -1.3533 H   0  0  0  0  0  0  0  0  0  0  0  0
    0.4676   16.0893   -2.4355 H   0  0  0  0  0  0  0  0  0  0  0  0
    1.4230   15.1318   -3.6174 H   0  0  0  0  0  0  0  0  0  0  0  0
   -0.3702   15.0273   -3.6174 H   0  0  0  0  0  0  0  0  0  0  0  0
    0.6863   13.5397    0.0826 H   0  0  0  0  0  0  0  0  0  0  0  0
   -1.2116   15.1905   -0.4796 H   0  0  0  0  0  0  0  0  0  0  0  0
   -0.2821   15.3113    1.1045 H   0  0  0  0  0  0  0  0  0  0  0  0
   -0.8104   17.5867   -0.1140 H   0  0  0  0  0  0  0  0  0  0  0  0
    2.6843   16.4010   -1.7497 H   0  0  0  0  0  0  0  0  0  0  0  0
    3.4313   17.2547    1.1152 H   0  0  0  0  0  0  0  0  0  0  0  0
    4.5552   16.6031   -0.1585 H   0  0  0  0  0  0  0  0  0  0  0  0
    4.7363   19.0584    0.0818 H   0  0  0  0  0  0  0  0  0  0  0  0
    4.1542   18.5501   -1.5517 H   0  0  0  0  0  0  0  0  0  0  0  0
    2.8621   20.4377   -0.8260 H   0  0  0  0  0  0  0  0  0  0  0  0
    1.7400   20.3710    1.1620 H   0  0  0  0  0  0  0  0  0  0  0  0
    2.5229   19.3848   -2.7872 H   0  0  0  0  0  0  0  0  0  0  0  0
    1.4803   17.9312   -2.9513 H   0  0  0  0  0  0  0  0  0  0  0  0
    0.7436   19.5695   -2.9513 H   0  0  0  0  0  0  0  0  0  0  0  0
    0.0954   19.8540    0.4608 H   0  0  0  0  0  0  0  0  0  0  0  0
    0.3456   20.7887   -1.0527 H   0  0  0  0  0  0  0  0  0  0  0  0
   -0.7308   19.3506   -1.0527 H   0  0  0  0  0  0  0  0  0  0  0  0
    1.6455   15.3352    1.8501 H   0  0  0  0  0  0  0  0  0  0  0  0
    2.5661   13.8133    1.5992 H   0  0  0  0  0  0  0  0  0  0  0  0
    3.4233   15.3919    1.5992 H   0  0  0  0  0  0  0  0  0  0  0  0
    4.2881   14.7197   -0.9895 H   0  0  0  0  0  0  0  0  0  0  0  0
    3.4834   13.2268   -0.2431 H   0  0  0  0  0  0  0  0  0  0  0  0
    3.0648   14.3565   -3.0247 H   0  0  0  0  0  0  0  0  0  0  0  0
    3.8147   12.7827   -2.5468 H   0  0  0  0  0  0  0  0  0  0  0  0
    1.7107   12.0343   -0.2751 H   0  0  0  0  0  0  0  0  0  0  0  0
    0.8508   11.0127   -1.4766 H   0  0  0  0  0  0  0  0  0  0  0  0
    2.6458   11.0810   -1.4766 H   0  0  0  0  0  0  0  0  0  0  0  0
  1  2  1  0
  2  3  1  0
  3  4  1  0
  4  5  1  0
  5  6  1  0
  6  7  1  0
  7  8  1  0
  7  9  1  0
  2 10  1  0
 10 11  1  0
 11 12  1  0
 12 13  1  0
 13 14  1  6
 13 15  1  0
 15 16  1  0
 16 17  1  0
 17 18  2  0
 18 19  1  0
 19 20  1  0
 20 21  1  0
 21 22  1  0
 22 23  1  0
 22 24  1  0
 24 25  1  0
 24 26  1  0
 19 27  1  0
 27 28  1  1
 27 29  1  0
 29 30  1  0
 30 31  1  0
 31 32  1  1
  7  5  1  0
 31 10  1  0
 31 13  1  0
 27 15  1  0
 24 18  1  0
  1 33  1  0
  1 34  1  0
  1 35  1  0
  2 36  1  1
  3 37  1  0
  3 38  1  0
  4 39  1  0
  4 40  1  0
  5 41  1  1
  8 42  1  0
  8 43  1  0
  8 44  1  0
  9 45  1  0
  9 46  1  0
  9 47  1  0
 10 48  1  6
 11 49  1  0
 11 50  1  0
 12 51  1  0
 12 52  1  0
 14 53  1  0
 14 54  1  0
 14 55  1  0
 15 56  1  1
 16 57  1  0
 16 58  1  0
 17 59  1  0
 19 60  1  6
 20 61  1  0
 20 62  1  0
 21 63  1  0
 21 64  1  0
 22 65  1  6
 23 66  1  0
 25 67  1  0
 25 68  1  0
 25 69  1  0
 26 70  1  0
 26 71  1  0
 26 72  1  0
 28 73  1  0
 28 74  1  0
 28 75  1  0
 29 76  1  0
 29 77  1  0
 30 78  1  0
 30 79  1  0
 32 80  1  0
 32 81  1  0
 32 82  1  0
M  END
>  <meeko>  (11) 
{"is_sidechain": [false], "intermolecular_energy": 2.731, "internal_energy": -0.839}

$$$$
EPH_relaxed_0001_pdb2pqr_Repair_87_r2_0001_out
     RDKit          3D

 82 86  0  0  0  0  0  0  0  0999 V2000
   -1.7040   14.8490    0.5320 C   0  0  0  0  0  0  0  0  0  0  0  0
   -0.3660   15.5460    0.2690 C   0  0  2  0  0  0  0  0  0  0  0  0
   -0.4480   16.5330   -0.9130 C   0  0  0  0  0  0  0  0  0  0  0  0
   -0.0370   17.9620   -0.5520 C   0  0  0  0  0  0  0  0  0  0  0  0
    1.3810   18.0260   -0.0680 C   0  0  2  0  0  0  0  0  0  0  0  0
    2.0620   19.2510   -0.3710 O   0  0  0  0  0  0  0  0  0  0  0  0
    2.5800   18.0660   -0.9960 C   0  0  0  0  0  0  0  0  0  0  0  0
    2.4170   18.0420   -2.4840 C   0  0  0  0  0  0  0  0  0  0  0  0
    3.9110   17.6360   -0.4640 C   0  0  0  0  0  0  0  0  0  0  0  0
    0.7180   14.5080    0.0070 C   0  0  1  0  0  0  0  0  0  0  0  0
    0.8410   13.4700    1.1550 C   0  0  0  0  0  0  0  0  0  0  0  0
    1.2090   12.1160    0.4960 C   0  0  0  0  0  0  0  0  0  0  0  0
    1.6090   12.4830   -0.9520 C   0  0  1  0  0  0  0  0  0  0  0  0
    3.0860   12.9770   -0.8480 C   0  0  0  0  0  0  0  0  0  0  0  0
    1.4530   11.3510   -2.0200 C   0  0  2  0  0  0  0  0  0  0  0  0
    2.3290   10.1080   -1.7850 C   0  0  0  0  0  0  0  0  0  0  0  0
    3.6740   10.1440   -2.4300 C   0  0  0  0  0  0  0  0  0  0  0  0
    4.0550   11.0000   -3.3980 C   0  0  0  0  0  0  0  0  0  0  0  0
    3.0570   11.9920   -4.0090 C   0  0  1  0  0  0  0  0  0  0  0  0
    3.1830   11.9680   -5.5550 C   0  0  0  0  0  0  0  0  0  0  0  0
    4.6130   12.2110   -6.0290 C   0  0  0  0  0  0  0  0  0  0  0  0
    5.5650   11.1690   -5.4470 C   0  0  2  0  0  0  0  0  0  0  0  0
    5.2420    9.8890   -5.9990 O   0  0  0  0  0  0  0  0  0  0  0  0
    5.5180   11.0960   -3.8950 C   0  0  0  0  0  0  0  0  0  0  0  0
    6.1530   12.3750   -3.2940 C   0  0  0  0  0  0  0  0  0  0  0  0
    6.4180    9.9130   -3.4450 C   0  0  0  0  0  0  0  0  0  0  0  0
    1.5520   11.8540   -3.5170 C   0  0  1  0  0  0  0  0  0  0  0  0
    0.8020   10.8030   -4.3900 C   0  0  0  0  0  0  0  0  0  0  0  0
    0.8110   13.2250   -3.7380 C   0  0  0  0  0  0  0  0  0  0  0  0
    0.9030   14.2560   -2.5970 C   0  0  0  0  0  0  0  0  0  0  0  0
    0.5590   13.6150   -1.2490 C   0  0  2  0  0  0  0  0  0  0  0  0
   -0.9280   13.1280   -1.3160 C   0  0  0  0  0  0  0  0  0  0  0  0
   -1.8664   14.7644    1.6167 H   0  0  0  0  0  0  0  0  0  0  0  0
   -2.5183   15.4375    0.0841 H   0  0  0  0  0  0  0  0  0  0  0  0
   -1.6884   13.8444    0.0841 H   0  0  0  0  0  0  0  0  0  0  0  0
   -0.1135   16.1279    1.1677 H   0  0  0  0  0  0  0  0  0  0  0  0
    0.2156   16.1726   -1.7128 H   0  0  0  0  0  0  0  0  0  0  0  0
   -1.5017   16.5715   -1.2266 H   0  0  0  0  0  0  0  0  0  0  0  0
   -0.1383   18.5981   -1.4437 H   0  0  0  0  0  0  0  0  0  0  0  0
   -0.6922   18.3127    0.2590 H   0  0  0  0  0  0  0  0  0  0  0  0
    1.1392   17.3926    0.7982 H   0  0  0  0  0  0  0  0  0  0  0  0
    1.3573   17.8860   -2.7343 H   0  0  0  0  0  0  0  0  0  0  0  0
    2.7561   18.9998   -2.9055 H   0  0  0  0  0  0  0  0  0  0  0  0
    3.0178   17.2226   -2.9055 H   0  0  0  0  0  0  0  0  0  0  0  0
    3.8863   17.6440    0.6357 H   0  0  0  0  0  0  0  0  0  0  0  0
    4.1364   16.6193   -0.8183 H   0  0  0  0  0  0  0  0  0  0  0  0
    4.6886   18.3286   -0.8183 H   0  0  0  0  0  0  0  0  0  0  0  0
    1.5857   15.1735   -0.1119 H   0  0  0  0  0  0  0  0  0  0  0  0
    1.6292   13.7753    1.8589 H   0  0  0  0  0  0  0  0  0  0  0  0
   -0.1000   13.3918    1.7193 H   0  0  0  0  0  0  0  0  0  0  0  0
    2.0507   11.6434    1.0235 H   0  0  0  0  0  0  0  0  0  0  0  0
    0.3779   11.3962    0.5295 H   0  0  0  0  0  0  0  0  0  0  0  0
    3.3674   13.0711    0.2112 H   0  0  0  0  0  0  0  0  0  0  0  0
    3.7506   12.2522   -1.3410 H   0  0  0  0  0  0  0  0  0  0  0  0
    3.1808   13.9558   -1.3410 H   0  0  0  0  0  0  0  0  0  0  0  0
    0.4159   11.0196   -1.8633 H   0  0  0  0  0  0  0  0  0  0  0  0
    2.4752    9.9955   -0.7006 H   0  0  0  0  0  0  0  0  0  0  0  0
    1.7926    9.2663   -2.2474 H   0  0  0  0  0  0  0  0  0  0  0  0
    4.4172    9.4096   -2.0861 H   0  0  0  0  0  0  0  0  0  0  0  0
    3.3418   12.9834   -3.6268 H   0  0  0  0  0  0  0  0  0  0  0  0
    2.8526   10.9845   -5.9206 H   0  0  0  0  0  0  0  0  0  0  0  0
    2.5564   12.7794   -5.9539 H   0  0  0  0  0  0  0  0  0  0  0  0
    4.6431   12.1527   -7.1270 H   0  0  0  0  0  0  0  0  0  0  0  0
    4.9315   13.2071   -5.6879 H   0  0  0  0  0  0  0  0  0  0  0  0
    6.5881   11.4703   -5.7162 H   0  0  0  0  0  0  0  0  0  0  0  0
    6.0400    9.5480   -6.4360 H   0  0  0  0  0  0  0  0  0  0  0  0
    6.1244   12.3174   -2.1959 H   0  0  0  0  0  0  0  0  0  0  0  0
    7.1972   12.4585   -3.6297 H   0  0  0  0  0  0  0  0  0  0  0  0
    5.5883   13.2573   -3.6297 H   0  0  0  0  0  0  0  0  0  0  0  0
    6.4485    9.8729   -2.3462 H   0  0  0  0  0  0  0  0  0  0  0  0
    6.0067    8.9703   -3.8351 H   0  0  0  0  0  0  0  0  0  0  0  0
    7.4363   10.0579   -3.8351 H   0  0  0  0  0  0  0  0  0  0  0  0
    0.2881   10.0829   -3.7362 H   0  0  0  0  0  0  0  0  0  0  0  0
    0.0632   11.3139   -5.0249 H   0  0  0  0  0  0  0  0  0  0  0  0
    1.5254   10.2705   -5.0249 H   0  0  0  0  0  0  0  0  0  0  0  0
    1.2332   13.6897   -4.6412 H   0  0  0  0  0  0  0  0  0  0  0  0
   -0.2561   12.9675   -3.8079 H   0  0  0  0  0  0  0  0  0  0  0  0
    1.9271   14.6552   -2.5546 H   0  0  0  0  0  0  0  0  0  0  0  0
    0.1826   15.0633   -2.7952 H   0  0  0  0  0  0  0  0  0  0  0  0
   -1.3183   13.0002   -0.2955 H   0  0  0  0  0  0  0  0  0  0  0  0
   -1.5346   13.8744   -1.8498 H   0  0  0  0  0  0  0  0  0  0  0  0
   -0.9755   12.1674   -1.8498 H   0  0  0  0  0  0  0  0  0  0  0  0
  1  2  1  0
  2  3  1  0
  3  4  1  0
  4  5  1  0
  5  6  1  0
  6  7  1  0
  7  8  1  0
  7  9  1  0
  2 10  1  0
 10 11  1  0
 11 12  1  0
 12 13  1  0
 13 14  1  1
 13 15  1  0
 15 16  1  0
 16 17  1  0
 17 18  2  0
 18 19  1  0
 19 20  1  0
 20 21  1  0
 21 22  1  0
 22 23  1  0
 22 24  1  0
 24 25  1  0
 24 26  1  0
 19 27  1  0
 27 28  1  6
 27 29  1  0
 29 30  1  0
 30 31  1  0
 31 32  1  6
  7  5  1  0
 31 10  1  0
 31 13  1  0
 27 15  1  0
 24 18  1  0
  1 33  1  0
  1 34  1  0
  1 35  1  0
  2 36  1  1
  3 37  1  0
  3 38  1  0
  4 39  1  0
  4 40  1  0
  5 41  1  1
  8 42  1  0
  8 43  1  0
  8 44  1  0
  9 45  1  0
  9 46  1  0
  9 47  1  0
 10 48  1  6
 11 49  1  0
 11 50  1  0
 12 51  1  0
 12 52  1  0
 14 53  1  0
 14 54  1  0
 14 55  1  0
 15 56  1  6
 16 57  1  0
 16 58  1  0
 17 59  1  0
 19 60  1  1
 20 61  1  0
 20 62  1  0
 21 63  1  0
 21 64  1  0
 22 65  1  1
 23 66  1  0
 25 67  1  0
 25 68  1  0
 25 69  1  0
 26 70  1  0
 26 71  1  0
 26 72  1  0
 28 73  1  0
 28 74  1  0
 28 75  1  0
 29 76  1  0
 29 77  1  0
 30 78  1  0
 30 79  1  0
 32 80  1  0
 32 81  1  0
 32 82  1  0
M  END
>  <meeko>  (12) 
{"is_sidechain": [false], "intermolecular_energy": 2.731, "internal_energy": -0.839}

$$$$
EPH_relaxed_0001_pdb2pqr_Repair_87_r2_0001_out
     RDKit          3D

 82 86  0  0  0  0  0  0  0  0999 V2000
    0.9650   14.9810   -2.6810 C   0  0  0  0  0  0  0  0  0  0  0  0
    1.2050   14.3090   -4.0360 C   0  0  2  0  0  0  0  0  0  0  0  0
    0.4730   15.0340   -5.1820 C   0  0  0  0  0  0  0  0  0  0  0  0
    0.9660   14.6360   -6.5760 C   0  0  0  0  0  0  0  0  0  0  0  0
    0.7750   15.7430   -7.5680 C   0  0  2  0  0  0  0  0  0  0  0  0
    0.4030   15.3110   -8.8840 O   0  0  0  0  0  0  0  0  0  0  0  0
    1.6810   15.9570   -8.7670 C   0  0  0  0  0  0  0  0  0  0  0  0
    2.8450   15.0570   -9.0360 C   0  0  0  0  0  0  0  0  0  0  0  0
    1.7290   17.3160   -9.3940 C   0  0  0  0  0  0  0  0  0  0  0  0
    0.7660   12.8500   -3.9770 C   0  0  1  0  0  0  0  0  0  0  0  0
    1.8980   11.8690   -4.3820 C   0  0  0  0  0  0  0  0  0  0  0  0
    1.7230   10.6000   -3.5080 C   0  0  0  0  0  0  0  0  0  0  0  0
    0.3200   10.7520   -2.8750 C   0  0  1  0  0  0  0  0  0  0  0  0
   -0.6730   10.2790   -3.9830 C   0  0  0  0  0  0  0  0  0  0  0  0
    0.0850    9.9960   -1.5270 C   0  0  2  0  0  0  0  0  0  0  0  0
    0.1990    8.4630   -1.6100 C   0  0  0  0  0  0  0  0  0  0  0  0
   -1.0740    7.7450   -1.9120 C   0  0  0  0  0  0  0  0  0  0  0  0
   -2.3100    8.2730   -1.8270 C   0  0  0  0  0  0  0  0  0  0  0  0
   -2.5230    9.6980   -1.2990 C   0  0  1  0  0  0  0  0  0  0  0  0
   -3.6840    9.7000   -0.2700 C   0  0  0  0  0  0  0  0  0  0  0  0
   -4.9640    9.0880   -0.8310 C   0  0  0  0  0  0  0  0  0  0  0  0
   -4.7250    7.6530   -1.2920 C   0  0  2  0  0  0  0  0  0  0  0  0
   -4.4400    6.8420   -0.1480 O   0  0  0  0  0  0  0  0  0  0  0  0
   -3.5710    7.5240   -2.3240 C   0  0  0  0  0  0  0  0  0  0  0  0
   -4.0060    8.1480   -3.6730 C   0  0  0  0  0  0  0  0  0  0  0  0
   -3.3410    6.0130   -2.5990 C   0  0  0  0  0  0  0  0  0  0  0  0
   -1.2250   10.4370   -0.7570 C   0  0  1  0  0  0  0  0  0  0  0  0
   -0.9990   10.0820    0.7450 C   0  0  0  0  0  0  0  0  0  0  0  0
   -1.4570   11.9930   -0.8150 C   0  0  0  0  0  0  0  0  0  0  0  0
   -1.0940   12.7010   -2.1340 C   0  0  0  0  0  0  0  0  0  0  0  0
    0.3080   12.3000   -2.6030 C   0  0  2  0  0  0  0  0  0  0  0  0
    1.3320   12.7830   -1.5190 C   0  0  0  0  0  0  0  0  0  0  0  0
    1.2162   14.2777   -1.8733 H   0  0  0  0  0  0  0  0  0  0  0  0
    1.5990   15.8761   -2.5982 H   0  0  0  0  0  0  0  0  0  0  0  0
   -0.0926   15.2719   -2.5982 H   0  0  0  0  0  0  0  0  0  0  0  0
    2.2832   14.3648   -4.2468 H   0  0  0  0  0  0  0  0  0  0  0  0
   -0.5994   14.7991   -5.1127 H   0  0  0  0  0  0  0  0  0  0  0  0
    0.6756   16.1087   -5.0639 H   0  0  0  0  0  0  0  0  0  0  0  0
    2.0365   14.3894   -6.5187 H   0  0  0  0  0  0  0  0  0  0  0  0
    0.3793   13.7686   -6.9127 H   0  0  0  0  0  0  0  0  0  0  0  0
    0.4235   16.4225   -6.7776 H   0  0  0  0  0  0  0  0  0  0  0  0
    3.2779   14.7223   -8.0818 H   0  0  0  0  0  0  0  0  0  0  0  0
    2.5072   14.1829   -9.6120 H   0  0  0  0  0  0  0  0  0  0  0  0
    3.6059   15.6039   -9.6120 H   0  0  0  0  0  0  0  0  0  0  0  0
    1.7561   18.0827   -8.6057 H   0  0  0  0  0  0  0  0  0  0  0  0
    2.6307   17.4001  -10.0184 H   0  0  0  0  0  0  0  0  0  0  0  0
    0.8355   17.4635  -10.0184 H   0  0  0  0  0  0  0  0  0  0  0  0
   -0.0869   12.8859   -4.6708 H   0  0  0  0  0  0  0  0  0  0  0  0
    1.8118   11.6101   -5.4476 H   0  0  0  0  0  0  0  0  0  0  0  0
    2.8882   12.3223   -4.2270 H   0  0  0  0  0  0  0  0  0  0  0  0
    1.7733    9.6922   -4.1272 H   0  0  0  0  0  0  0  0  0  0  0  0
    2.5142   10.5035   -2.7499 H   0  0  0  0  0  0  0  0  0  0  0  0
   -1.5707    9.8514   -3.5126 H   0  0  0  0  0  0  0  0  0  0  0  0
   -0.9602   11.1370   -4.6085 H   0  0  0  0  0  0  0  0  0  0  0  0
   -0.1877    9.5153   -4.6085 H   0  0  0  0  0  0  0  0  0  0  0  0
    0.9398   10.3267   -0.9187 H   0  0  0  0  0  0  0  0  0  0  0  0
    0.9233    8.2183   -2.4009 H   0  0  0  0  0  0  0  0  0  0  0  0
    0.5088    8.1261   -0.6097 H   0  0  0  0  0  0  0  0  0  0  0  0
   -0.9961    6.6952   -2.2312 H   0  0  0  0  0  0  0  0  0  0  0  0
   -2.7970   10.3089   -2.1717 H   0  0  0  0  0  0  0  0  0  0  0  0
   -3.3739    9.1214    0.6126 H   0  0  0  0  0  0  0  0  0  0  0  0
   -3.8998   10.7473   -0.0121 H   0  0  0  0  0  0  0  0  0  0  0  0
   -5.7374    9.0909   -0.0488 H   0  0  0  0  0  0  0  0  0  0  0  0
   -5.2895    9.6852   -1.6955 H   0  0  0  0  0  0  0  0  0  0  0  0
   -5.6395    7.3147   -1.8011 H   0  0  0  0  0  0  0  0  0  0  0  0
   -4.6350    5.9200   -0.3840 H   0  0  0  0  0  0  0  0  0  0  0  0
   -4.6256    9.0368   -3.4830 H   0  0  0  0  0  0  0  0  0  0  0  0
   -3.1139    8.4388   -4.2471 H   0  0  0  0  0  0  0  0  0  0  0  0
   -4.5875    7.4116   -4.2471 H   0  0  0  0  0  0  0  0  0  0  0  0
   -3.2591    5.4747   -1.6432 H   0  0  0  0  0  0  0  0  0  0  0  0
   -4.1884    5.6119   -3.1743 H   0  0  0  0  0  0  0  0  0  0  0  0
   -2.4126    5.8822   -3.1743 H   0  0  0  0  0  0  0  0  0  0  0  0
   -1.4822   10.8410    1.3779 H   0  0  0  0  0  0  0  0  0  0  0  0
   -1.4354    9.0950    0.9582 H   0  0  0  0  0  0  0  0  0  0  0  0
    0.0799   10.0597    0.9582 H   0  0  0  0  0  0  0  0  0  0  0  0
   -2.5239   12.1778   -0.6209 H   0  0  0  0  0  0  0  0  0  0  0  0
   -0.7720   12.4142   -0.0644 H   0  0  0  0  0  0  0  0  0  0  0  0
   -1.8257   12.4208   -2.9061 H   0  0  0  0  0  0  0  0  0  0  0  0
   -1.1101   13.7878   -1.9650 H   0  0  0  0  0  0  0  0  0  0  0  0
    0.9229   12.5900   -0.5163 H   0  0  0  0  0  0  0  0  0  0  0  0
    2.2790   12.2367   -1.6400 H   0  0  0  0  0  0  0  0  0  0  0  0
    1.5127   13.8613   -1.6400 H   0  0  0  0  0  0  0  0  0  0  0  0
  1  2  1  0
  2  3  1  0
  3  4  1  0
  4  5  1  0
  5  6  1  0
  6  7  1  0
  7  8  1  0
  7  9  1  0
  2 10  1  0
 10 11  1  0
 11 12  1  0
 12 13  1  0
 13 14  1  6
 13 15  1  0
 15 16  1  0
 16 17  1  0
 17 18  2  0
 18 19  1  0
 19 20  1  0
 20 21  1  0
 21 22  1  0
 22 23  1  0
 22 24  1  0
 24 25  1  0
 24 26  1  0
 19 27  1  0
 27 28  1  1
 27 29  1  0
 29 30  1  0
 30 31  1  0
 31 32  1  1
  7  5  1  0
 31 10  1  0
 31 13  1  0
 27 15  1  0
 24 18  1  0
  1 33  1  0
  1 34  1  0
  1 35  1  0
  2 36  1  6
  3 37  1  0
  3 38  1  0
  4 39  1  0
  4 40  1  0
  5 41  1  1
  8 42  1  0
  8 43  1  0
  8 44  1  0
  9 45  1  0
  9 46  1  0
  9 47  1  0
 10 48  1  6
 11 49  1  0
 11 50  1  0
 12 51  1  0
 12 52  1  0
 14 53  1  0
 14 54  1  0
 14 55  1  0
 15 56  1  1
 16 57  1  0
 16 58  1  0
 17 59  1  0
 19 60  1  6
 20 61  1  0
 20 62  1  0
 21 63  1  0
 21 64  1  0
 22 65  1  6
 23 66  1  0
 25 67  1  0
 25 68  1  0
 25 69  1  0
 26 70  1  0
 26 71  1  0
 26 72  1  0
 28 73  1  0
 28 74  1  0
 28 75  1  0
 29 76  1  0
 29 77  1  0
 30 78  1  0
 30 79  1  0
 32 80  1  0
 32 81  1  0
 32 82  1  0
M  END
>  <meeko>  (13) 
{"is_sidechain": [false], "intermolecular_energy": 2.731, "internal_energy": -0.839}

$$$$
EPH_relaxed_0001_pdb2pqr_Repair_87_r2_0001_out
     RDKit          3D

 82 86  0  0  0  0  0  0  0  0999 V2000
   -0.0770    9.3190   -4.2110 C   0  0  0  0  0  0  0  0  0  0  0  0
    0.1120    9.5340   -2.7070 C   0  0  2  0  0  0  0  0  0  0  0  0
   -0.6630    8.4950   -1.8710 C   0  0  0  0  0  0  0  0  0  0  0  0
   -2.1810    8.5700   -2.0490 C   0  0  0  0  0  0  0  0  0  0  0  0
   -2.7300    7.3160   -2.6580 C   0  0  2  0  0  0  0  0  0  0  0  0
   -3.7320    7.5260   -3.6620 O   0  0  0  0  0  0  0  0  0  0  0  0
   -4.1620    6.8510   -2.4690 C   0  0  0  0  0  0  0  0  0  0  0  0
   -5.1340    7.6340   -1.6420 C   0  0  0  0  0  0  0  0  0  0  0  0
   -4.4770    5.4020   -2.6760 C   0  0  0  0  0  0  0  0  0  0  0  0
   -0.3260   10.9420   -2.3240 C   0  0  1  0  0  0  0  0  0  0  0  0
   -1.5400   10.9480   -1.3570 C   0  0  0  0  0  0  0  0  0  0  0  0
   -1.3450   12.1530   -0.4010 C   0  0  0  0  0  0  0  0  0  0  0  0
   -0.2160   12.9870   -1.0500 C   0  0  1  0  0  0  0  0  0  0  0  0
   -0.9240   13.8230   -2.1630 C   0  0  0  0  0  0  0  0  0  0  0  0
    0.6140   13.8960   -0.0860 C   0  0  2  0  0  0  0  0  0  0  0  0
   -0.1890   15.0010    0.6230 C   0  0  0  0  0  0  0  0  0  0  0  0
   -0.2520   16.3060   -0.0990 C   0  0  0  0  0  0  0  0  0  0  0  0
    0.5410   16.6730   -1.1230 C   0  0  0  0  0  0  0  0  0  0  0  0
    1.6910   15.7710   -1.5900 C   0  0  1  0  0  0  0  0  0  0  0  0
    2.9740   16.6240   -1.7780 C   0  0  0  0  0  0  0  0  0  0  0  0
    2.7540   17.8160   -2.7030 C   0  0  0  0  0  0  0  0  0  0  0  0
    1.6430   18.7200   -2.1740 C   0  0  2  0  0  0  0  0  0  0  0  0
    2.0810   19.3210   -0.9520 O   0  0  0  0  0  0  0  0  0  0  0  0
    0.3030   17.9680   -1.9370 C   0  0  0  0  0  0  0  0  0  0  0  0
   -0.3230   17.5780   -3.2990 C   0  0  0  0  0  0  0  0  0  0  0  0
   -0.6890   18.9600   -1.2710 C   0  0  0  0  0  0  0  0  0  0  0  0
    1.9470   14.4660   -0.7200 C   0  0  1  0  0  0  0  0  0  0  0  0
    2.8990   14.7980    0.4690 C   0  0  0  0  0  0  0  0  0  0  0  0
    2.6950   13.3980   -1.6030 C   0  0  0  0  0  0  0  0  0  0  0  0
    1.8150   12.4520   -2.4420 C   0  0  0  0  0  0  0  0  0  0  0  0
    0.7060   11.8320   -1.5860 C   0  0  2  0  0  0  0  0  0  0  0  0
    1.3880   10.9670   -0.4720 C   0  0  0  0  0  0  0  0  0  0  0  0
   -0.7949    8.5023   -4.3773 H   0  0  0  0  0  0  0  0  0  0  0  0
   -0.4605   10.2431   -4.6682 H   0  0  0  0  0  0  0  0  0  0  0  0
    0.8886    9.0571   -4.6682 H   0  0  0  0  0  0  0  0  0  0  0  0
    1.1818    9.4050   -2.4857 H   0  0  0  0  0  0  0  0  0  0  0  0
   -0.3278    7.4904   -2.1683 H   0  0  0  0  0  0  0  0  0  0  0  0
   -0.4525    8.7121   -0.8134 H   0  0  0  0  0  0  0  0  0  0  0  0
   -2.6482    8.7226   -1.0649 H   0  0  0  0  0  0  0  0  0  0  0  0
   -2.4060    9.4071   -2.7262 H   0  0  0  0  0  0  0  0  0  0  0  0
   -1.7649    6.8040   -2.5301 H   0  0  0  0  0  0  0  0  0  0  0  0
   -4.9259    7.4664   -0.5749 H   0  0  0  0  0  0  0  0  0  0  0  0
   -5.0316    8.7049   -1.8717 H   0  0  0  0  0  0  0  0  0  0  0  0
   -6.1585    7.3060   -1.8717 H   0  0  0  0  0  0  0  0  0  0  0  0
   -4.5846    4.9070   -1.6996 H   0  0  0  0  0  0  0  0  0  0  0  0
   -5.4166    5.3080   -3.2403 H   0  0  0  0  0  0  0  0  0  0  0  0
   -3.6613    4.9264   -3.2403 H   0  0  0  0  0  0  0  0  0  0  0  0
   -0.5282   11.3506   -3.3251 H   0  0  0  0  0  0  0  0  0  0  0  0
   -2.4755   11.0622   -1.9243 H   0  0  0  0  0  0  0  0  0  0  0  0
   -1.6019   10.0043   -0.7952 H   0  0  0  0  0  0  0  0  0  0  0  0
   -2.2702   12.7433   -0.3265 H   0  0  0  0  0  0  0  0  0  0  0  0
   -1.0948   11.8372    0.6226 H   0  0  0  0  0  0  0  0  0  0  0  0
   -1.5679   14.5833   -1.6968 H   0  0  0  0  0  0  0  0  0  0  0  0
   -0.1660   14.3177   -2.7881 H   0  0  0  0  0  0  0  0  0  0  0  0
   -1.5368   13.1568   -2.7881 H   0  0  0  0  0  0  0  0  0  0  0  0
    0.9123   13.1909    0.7038 H   0  0  0  0  0  0  0  0  0  0  0  0
   -1.2184   14.6384    0.7603 H   0  0  0  0  0  0  0  0  0  0  0  0
    0.3371   15.2010    1.5681 H   0  0  0  0  0  0  0  0  0  0  0  0
   -1.0109   17.0292    0.2340 H   0  0  0  0  0  0  0  0  0  0  0  0
    1.3757   15.3524   -2.5571 H   0  0  0  0  0  0  0  0  0  0  0  0
    3.2973   16.9959   -0.7946 H   0  0  0  0  0  0  0  0  0  0  0  0
    3.7379   15.9805   -2.2389 H   0  0  0  0  0  0  0  0  0  0  0  0
    3.6868   18.3949   -2.7721 H   0  0  0  0  0  0  0  0  0  0  0  0
    2.4593   17.4412   -3.6943 H   0  0  0  0  0  0  0  0  0  0  0  0
    1.4431   19.4822   -2.9416 H   0  0  0  0  0  0  0  0  0  0  0  0
    1.7810   20.2460   -0.9550 H   0  0  0  0  0  0  0  0  0  0  0  0
   -1.2452   17.0034   -3.1276 H   0  0  0  0  0  0  0  0  0  0  0  0
   -0.5591   18.4891   -3.8684 H   0  0  0  0  0  0  0  0  0  0  0  0
    0.3907   16.9645   -3.8684 H   0  0  0  0  0  0  0  0  0  0  0  0
   -0.6087   18.8797   -0.1769 H   0  0  0  0  0  0  0  0  0  0  0  0
   -0.4454   19.9866   -1.5822 H   0  0  0  0  0  0  0  0  0  0  0  0
   -1.7156   18.7164   -1.5822 H   0  0  0  0  0  0  0  0  0  0  0  0
    2.3760   14.6156    1.4194 H   0  0  0  0  0  0  0  0  0  0  0  0
    3.7921   14.1583    0.4133 H   0  0  0  0  0  0  0  0  0  0  0  0
    3.2006   15.8544    0.4133 H   0  0  0  0  0  0  0  0  0  0  0  0
    3.3540   13.9416   -2.2959 H   0  0  0  0  0  0  0  0  0  0  0  0
    3.2168   12.7464   -0.8866 H   0  0  0  0  0  0  0  0  0  0  0  0
    1.3586   13.0208   -3.2655 H   0  0  0  0  0  0  0  0  0  0  0  0
    2.4471   11.6430   -2.8370 H   0  0  0  0  0  0  0  0  0  0  0  0
    1.0910   11.3437    0.5179 H   0  0  0  0  0  0  0  0  0  0  0  0
    1.0706    9.9189   -0.5759 H   0  0  0  0  0  0  0  0  0  0  0  0
    2.4812   11.0311   -0.5759 H   0  0  0  0  0  0  0  0  0  0  0  0
  1  2  1  0
  2  3  1  0
  3  4  1  0
  4  5  1  0
  5  6  1  0
  6  7  1  0
  7  8  1  0
  7  9  1  0
  2 10  1  0
 10 11  1  0
 11 12  1  0
 12 13  1  0
 13 14  1  6
 13 15  1  0
 15 16  1  0
 16 17  1  0
 17 18  2  0
 18 19  1  0
 19 20  1  0
 20 21  1  0
 21 22  1  0
 22 23  1  0
 22 24  1  0
 24 25  1  0
 24 26  1  0
 19 27  1  0
 27 28  1  1
 27 29  1  0
 29 30  1  0
 30 31  1  0
 31 32  1  1
  7  5  1  0
 31 10  1  0
 31 13  1  0
 27 15  1  0
 24 18  1  0
  1 33  1  0
  1 34  1  0
  1 35  1  0
  2 36  1  6
  3 37  1  0
  3 38  1  0
  4 39  1  0
  4 40  1  0
  5 41  1  6
  8 42  1  0
  8 43  1  0
  8 44  1  0
  9 45  1  0
  9 46  1  0
  9 47  1  0
 10 48  1  6
 11 49  1  0
 11 50  1  0
 12 51  1  0
 12 52  1  0
 14 53  1  0
 14 54  1  0
 14 55  1  0
 15 56  1  1
 16 57  1  0
 16 58  1  0
 17 59  1  0
 19 60  1  6
 20 61  1  0
 20 62  1  0
 21 63  1  0
 21 64  1  0
 22 65  1  6
 23 66  1  0
 25 67  1  0
 25 68  1  0
 25 69  1  0
 26 70  1  0
 26 71  1  0
 26 72  1  0
 28 73  1  0
 28 74  1  0
 28 75  1  0
 29 76  1  0
 29 77  1  0
 30 78  1  0
 30 79  1  0
 32 80  1  0
 32 81  1  0
 32 82  1  0
M  END
>  <meeko>  (14) 
{"is_sidechain": [false], "intermolecular_energy": 2.731, "internal_energy": -0.839}

$$$$
EPH_relaxed_0001_pdb2pqr_Repair_87_r2_0001_out
     RDKit          3D

 82 86  0  0  0  0  0  0  0  0999 V2000
   -1.1100    7.5600   -2.1740 C   0  0  0  0  0  0  0  0  0  0  0  0
   -1.7630    8.3210   -1.0180 C   0  0  2  0  0  0  0  0  0  0  0  0
   -3.3010    8.2140   -1.0470 C   0  0  0  0  0  0  0  0  0  0  0  0
   -3.8440    7.4850   -2.2790 C   0  0  0  0  0  0  0  0  0  0  0  0
   -5.2930    7.1350   -2.1230 C   0  0  2  0  0  0  0  0  0  0  0  0
   -5.5580    5.7350   -1.9690 O   0  0  0  0  0  0  0  0  0  0  0  0
   -6.0810    6.3520   -3.1570 C   0  0  0  0  0  0  0  0  0  0  0  0
   -5.4440    5.8720   -4.4230 C   0  0  0  0  0  0  0  0  0  0  0  0
   -7.5720    6.4770   -3.1640 C   0  0  0  0  0  0  0  0  0  0  0  0
   -1.3420    9.7860   -1.0560 C   0  0  1  0  0  0  0  0  0  0  0  0
   -0.9580   10.3330    0.3440 C   0  0  0  0  0  0  0  0  0  0  0  0
    0.1950   11.3470    0.1270 C   0  0  0  0  0  0  0  0  0  0  0  0
    0.2120   11.5970   -1.3990 C   0  0  1  0  0  0  0  0  0  0  0  0
   -0.9220   12.6410   -1.6470 C   0  0  0  0  0  0  0  0  0  0  0  0
    1.5730   12.0680   -2.0070 C   0  0  2  0  0  0  0  0  0  0  0  0
    2.0870   13.4220   -1.4870 C   0  0  0  0  0  0  0  0  0  0  0  0
    1.6460   14.6140   -2.2710 C   0  0  0  0  0  0  0  0  0  0  0  0
    1.1090   14.5840   -3.5040 C   0  0  0  0  0  0  0  0  0  0  0  0
    0.9870   13.2660   -4.2790 C   0  0  1  0  0  0  0  0  0  0  0  0
    1.4840   13.4720   -5.7340 C   0  0  0  0  0  0  0  0  0  0  0  0
    0.7770   14.6280   -6.4350 C   0  0  0  0  0  0  0  0  0  0  0  0
    0.9700   15.9320   -5.6660 C   0  0  2  0  0  0  0  0  0  0  0  0
    2.3520   16.3010   -5.7220 O   0  0  0  0  0  0  0  0  0  0  0  0
    0.5130   15.8420   -4.1830 C   0  0  0  0  0  0  0  0  0  0  0  0
   -1.0310   15.7440   -4.1200 C   0  0  0  0  0  0  0  0  0  0  0  0
    0.8920   17.1760   -3.4850 C   0  0  0  0  0  0  0  0  0  0  0  0
    1.6390   11.9920   -3.5860 C   0  0  1  0  0  0  0  0  0  0  0  0
    3.1480   11.8940   -3.9650 C   0  0  0  0  0  0  0  0  0  0  0  0
    0.9530   10.6920   -4.1520 C   0  0  0  0  0  0  0  0  0  0  0  0
   -0.3220   10.2110   -3.4340 C   0  0  0  0  0  0  0  0  0  0  0  0
   -0.1070   10.1480   -1.9180 C   0  0  2  0  0  0  0  0  0  0  0  0
    1.0120    9.0890   -1.6370 C   0  0  0  0  0  0  0  0  0  0  0  0
   -0.4434    6.7831   -1.7714 H   0  0  0  0  0  0  0  0  0  0  0  0
   -1.8902    7.0901   -2.7908 H   0  0  0  0  0  0  0  0  0  0  0  0
   -0.5270    8.2598   -2.7908 H   0  0  0  0  0  0  0  0  0  0  0  0
   -1.4177    7.8590   -0.0813 H   0  0  0  0  0  0  0  0  0  0  0  0
   -3.6282    7.6695   -0.1490 H   0  0  0  0  0  0  0  0  0  0  0  0
   -3.6941    9.2408   -1.0817 H   0  0  0  0  0  0  0  0  0  0  0  0
   -3.7272    8.1356   -3.1583 H   0  0  0  0  0  0  0  0  0  0  0  0
   -3.2771    6.5504   -2.4016 H   0  0  0  0  0  0  0  0  0  0  0  0
   -5.4917    8.0876   -1.6101 H   0  0  0  0  0  0  0  0  0  0  0  0
   -4.5871    5.2263   -4.1804 H   0  0  0  0  0  0  0  0  0  0  0  0
   -6.1788    5.3011   -5.0096 H   0  0  0  0  0  0  0  0  0  0  0  0
   -5.0978    6.7357   -5.0096 H   0  0  0  0  0  0  0  0  0  0  0  0
   -7.9422    6.5080   -2.1286 H   0  0  0  0  0  0  0  0  0  0  0  0
   -7.8599    7.4024   -3.6843 H   0  0  0  0  0  0  0  0  0  0  0  0
   -8.0100    5.6124   -3.6843 H   0  0  0  0  0  0  0  0  0  0  0  0
   -2.2492   10.2280   -1.4937 H   0  0  0  0  0  0  0  0  0  0  0  0
   -1.8218   10.8345    0.8048 H   0  0  0  0  0  0  0  0  0  0  0  0
   -0.6468    9.5185    1.0147 H   0  0  0  0  0  0  0  0  0  0  0  0
   -0.0025   12.2821    0.6716 H   0  0  0  0  0  0  0  0  0  0  0  0
    1.1588   10.9689    0.4987 H   0  0  0  0  0  0  0  0  0  0  0  0
   -1.3095   12.9978   -0.6813 H   0  0  0  0  0  0  0  0  0  0  0  0
   -0.5194   13.4912   -2.2172 H   0  0  0  0  0  0  0  0  0  0  0  0
   -1.7361   12.1696   -2.2172 H   0  0  0  0  0  0  0  0  0  0  0  0
    2.2758   11.3145   -1.6220 H   0  0  0  0  0  0  0  0  0  0  0  0
    1.7336   13.5455   -0.4526 H   0  0  0  0  0  0  0  0  0  0  0  0
    3.1828   13.3868   -1.5762 H   0  0  0  0  0  0  0  0  0  0  0  0
    1.7709   15.6003   -1.8003 H   0  0  0  0  0  0  0  0  0  0  0  0
   -0.0837   13.0137   -4.2832 H   0  0  0  0  0  0  0  0  0  0  0  0
    2.5638   13.6805   -5.7117 H   0  0  0  0  0  0  0  0  0  0  0  0
    1.2608   12.5534   -6.2965 H   0  0  0  0  0  0  0  0  0  0  0  0
    1.1913   14.7425   -7.4476 H   0  0  0  0  0  0  0  0  0  0  0  0
   -0.2990   14.4044   -6.4827 H   0  0  0  0  0  0  0  0  0  0  0  0
    0.3362   16.6934   -6.1441 H   0  0  0  0  0  0  0  0  0  0  0  0
    2.4060   17.1730   -6.1480 H   0  0  0  0  0  0  0  0  0  0  0  0
   -1.3545   15.7235   -3.0688 H   0  0  0  0  0  0  0  0  0  0  0  0
   -1.4746   16.6158   -4.6232 H   0  0  0  0  0  0  0  0  0  0  0  0
   -1.3608   14.8231   -4.6232 H   0  0  0  0  0  0  0  0  0  0  0  0
    0.8541   17.0425   -2.3938 H   0  0  0  0  0  0  0  0  0  0  0  0
    1.9092   17.4699   -3.7833 H   0  0  0  0  0  0  0  0  0  0  0  0
    0.1813   17.9608   -3.7833 H   0  0  0  0  0  0  0  0  0  0  0  0
    3.7545   11.8546   -3.0482 H   0  0  0  0  0  0  0  0  0  0  0  0
    3.3189   10.9829   -4.5571 H   0  0  0  0  0  0  0  0  0  0  0  0
    3.4353   12.7754   -4.5571 H   0  0  0  0  0  0  0  0  0  0  0  0
    0.6907   10.8847   -5.2027 H   0  0  0  0  0  0  0  0  0  0  0  0
    1.6891    9.8888   -4.0006 H   0  0  0  0  0  0  0  0  0  0  0  0
   -1.1432   10.9096   -3.6523 H   0  0  0  0  0  0  0  0  0  0  0  0
   -0.5687    9.2018   -3.7956 H   0  0  0  0  0  0  0  0  0  0  0  0
    1.1388    8.9690   -0.5509 H   0  0  0  0  0  0  0  0  0  0  0  0
    0.7242    8.1248   -2.0813 H   0  0  0  0  0  0  0  0  0  0  0  0
    1.9589    9.4294   -2.0813 H   0  0  0  0  0  0  0  0  0  0  0  0
  1  2  1  0
  2  3  1  0
  3  4  1  0
  4  5  1  0
  5  6  1  0
  6  7  1  0
  7  8  1  0
  7  9  1  0
  2 10  1  0
 10 11  1  0
 11 12  1  0
 12 13  1  0
 13 14  1  1
 13 15  1  0
 15 16  1  0
 16 17  1  0
 17 18  2  0
 18 19  1  0
 19 20  1  0
 20 21  1  0
 21 22  1  0
 22 23  1  0
 22 24  1  0
 24 25  1  0
 24 26  1  0
 19 27  1  0
 27 28  1  1
 27 29  1  0
 29 30  1  0
 30 31  1  0
 31 32  1  6
  7  5  1  0
 31 10  1  0
 31 13  1  0
 27 15  1  0
 24 18  1  0
  1 33  1  0
  1 34  1  0
  1 35  1  0
  2 36  1  1
  3 37  1  0
  3 38  1  0
  4 39  1  0
  4 40  1  0
  5 41  1  1
  8 42  1  0
  8 43  1  0
  8 44  1  0
  9 45  1  0
  9 46  1  0
  9 47  1  0
 10 48  1  6
 11 49  1  0
 11 50  1  0
 12 51  1  0
 12 52  1  0
 14 53  1  0
 14 54  1  0
 14 55  1  0
 15 56  1  1
 16 57  1  0
 16 58  1  0
 17 59  1  0
 19 60  1  6
 20 61  1  0
 20 62  1  0
 21 63  1  0
 21 64  1  0
 22 65  1  6
 23 66  1  0
 25 67  1  0
 25 68  1  0
 25 69  1  0
 26 70  1  0
 26 71  1  0
 26 72  1  0
 28 73  1  0
 28 74  1  0
 28 75  1  0
 29 76  1  0
 29 77  1  0
 30 78  1  0
 30 79  1  0
 32 80  1  0
 32 81  1  0
 32 82  1  0
M  END
>  <meeko>  (15) 
{"is_sidechain": [false], "intermolecular_energy": 2.731, "internal_energy": -0.839}

$$$$
EPH_relaxed_0001_pdb2pqr_Repair_87_r2_0001_out
     RDKit          3D

 82 86  0  0  0  0  0  0  0  0999 V2000
    3.1030   14.8370   -7.5630 C   0  0  0  0  0  0  0  0  0  0  0  0
    1.5790   14.8590   -7.4110 C   0  0  2  0  0  0  0  0  0  0  0  0
    0.9460   16.0910   -8.0870 C   0  0  0  0  0  0  0  0  0  0  0  0
    1.8670   16.7820   -9.0950 C   0  0  0  0  0  0  0  0  0  0  0  0
    1.5510   16.3780  -10.5030 C   0  0  2  0  0  0  0  0  0  0  0  0
    0.9800   15.0700  -10.6370 O   0  0  0  0  0  0  0  0  0  0  0  0
    2.2720   15.2620  -11.2360 C   0  0  0  0  0  0  0  0  0  0  0  0
    3.3680   14.4800  -10.5820 C   0  0  0  0  0  0  0  0  0  0  0  0
    2.2490   15.2560  -12.7320 C   0  0  0  0  0  0  0  0  0  0  0  0
    1.2040   14.8240   -5.9340 C   0  0  1  0  0  0  0  0  0  0  0  0
   -0.0450   15.6880   -5.6140 C   0  0  0  0  0  0  0  0  0  0  0  0
   -0.8190   14.9560   -4.4890 C   0  0  0  0  0  0  0  0  0  0  0  0
    0.1670   13.8830   -3.9710 C   0  0  1  0  0  0  0  0  0  0  0  0
    1.1140   14.6480   -2.9940 C   0  0  0  0  0  0  0  0  0  0  0  0
   -0.4710   12.6280   -3.2910 C   0  0  2  0  0  0  0  0  0  0  0  0
   -1.2790   12.9170   -2.0140 C   0  0  0  0  0  0  0  0  0  0  0  0
   -0.5010   12.8620   -0.7410 C   0  0  0  0  0  0  0  0  0  0  0  0
    0.7210   12.3160   -0.5940 C   0  0  0  0  0  0  0  0  0  0  0  0
    1.4040   11.5890   -1.7600 C   0  0  1  0  0  0  0  0  0  0  0  0
    1.9880   10.2420   -1.2590 C   0  0  0  0  0  0  0  0  0  0  0  0
    2.9120   10.4160   -0.0580 C   0  0  0  0  0  0  0  0  0  0  0  0
    2.1800   11.0900    1.1010 C   0  0  2  0  0  0  0  0  0  0  0  0
    1.1670   10.2030    1.5830 O   0  0  0  0  0  0  0  0  0  0  0  0
    1.5410   12.4520    0.7120 C   0  0  0  0  0  0  0  0  0  0  0  0
    2.6550   13.5020    0.4800 C   0  0  0  0  0  0  0  0  0  0  0  0
    0.7160   12.9560    1.9270 C   0  0  0  0  0  0  0  0  0  0  0  0
    0.5340   11.4240   -3.0790 C   0  0  1  0  0  0  0  0  0  0  0  0
   -0.3330   10.1310   -2.9870 C   0  0  0  0  0  0  0  0  0  0  0  0
    1.4970   11.2260   -4.3090 C   0  0  0  0  0  0  0  0  0  0  0  0
    1.9990   12.5010   -5.0120 C   0  0  0  0  0  0  0  0  0  0  0  0
    0.8360   13.4480   -5.3250 C   0  0  2  0  0  0  0  0  0  0  0  0
   -0.1230   12.7140   -6.3240 C   0  0  0  0  0  0  0  0  0  0  0  0
    3.5707   14.8302   -6.5674 H   0  0  0  0  0  0  0  0  0  0  0  0
    3.4034   13.9344   -8.1154 H   0  0  0  0  0  0  0  0  0  0  0  0
    3.4293   15.7305   -8.1154 H   0  0  0  0  0  0  0  0  0  0  0  0
    1.1826   13.9659   -7.9163 H   0  0  0  0  0  0  0  0  0  0  0  0
    0.0354   15.7686   -8.6131 H   0  0  0  0  0  0  0  0  0  0  0  0
    0.7356   16.8210   -7.2915 H   0  0  0  0  0  0  0  0  0  0  0  0
    1.7450   17.8712   -9.0009 H   0  0  0  0  0  0  0  0  0  0  0  0
    2.9020   16.4806   -8.8761 H   0  0  0  0  0  0  0  0  0  0  0  0
    1.3334   17.4207  -10.7777 H   0  0  0  0  0  0  0  0  0  0  0  0
    3.2676   14.5516   -9.4889 H   0  0  0  0  0  0  0  0  0  0  0  0
    3.2993   13.4257  -10.8882 H   0  0  0  0  0  0  0  0  0  0  0  0
    4.3426   14.8880  -10.8882 H   0  0  0  0  0  0  0  0  0  0  0  0
    1.2400   14.9928  -13.0821 H   0  0  0  0  0  0  0  0  0  0  0  0
    2.5183   16.2545  -13.1069 H   0  0  0  0  0  0  0  0  0  0  0  0
    2.9718   14.5164  -13.1069 H   0  0  0  0  0  0  0  0  0  0  0  0
    2.1453   15.1888   -5.4970 H   0  0  0  0  0  0  0  0  0  0  0  0
    0.2631   16.6875   -5.2733 H   0  0  0  0  0  0  0  0  0  0  0  0
   -0.6746   15.8176   -6.5066 H   0  0  0  0  0  0  0  0  0  0  0  0
   -1.0889   15.6560   -3.6845 H   0  0  0  0  0  0  0  0  0  0  0  0
   -1.7615   14.5174   -4.8485 H   0  0  0  0  0  0  0  0  0  0  0  0
    0.8315   14.4198   -1.9557 H   0  0  0  0  0  0  0  0  0  0  0  0
    2.1533   14.3330   -3.1689 H   0  0  0  0  0  0  0  0  0  0  0  0
    1.0245   15.7303   -3.1689 H   0  0  0  0  0  0  0  0  0  0  0  0
   -1.2059   12.3020   -4.0417 H   0  0  0  0  0  0  0  0  0  0  0  0
   -1.7103   13.9248   -2.1055 H   0  0  0  0  0  0  0  0  0  0  0  0
   -2.0335   12.1195   -1.9443 H   0  0  0  0  0  0  0  0  0  0  0  0
   -0.9653   13.3050    0.1524 H   0  0  0  0  0  0  0  0  0  0  0  0
    2.2189   12.2480   -2.0940 H   0  0  0  0  0  0  0  0  0  0  0  0
    1.1562    9.5822   -0.9713 H   0  0  0  0  0  0  0  0  0  0  0  0
    2.5823    9.8104   -2.0779 H   0  0  0  0  0  0  0  0  0  0  0  0
    3.2690    9.4278    0.2677 H   0  0  0  0  0  0  0  0  0  0  0  0
    3.7587   11.0520   -0.3557 H   0  0  0  0  0  0  0  0  0  0  0  0
    2.9242   11.3050    1.8820 H   0  0  0  0  0  0  0  0  0  0  0  0
    1.4520    9.8750    2.4530 H   0  0  0  0  0  0  0  0  0  0  0  0
    3.0319   13.8572    1.4504 H   0  0  0  0  0  0  0  0  0  0  0  0
    3.4783   13.0438   -0.0876 H   0  0  0  0  0  0  0  0  0  0  0  0
    2.2462   14.3509   -0.0876 H   0  0  0  0  0  0  0  0  0  0  0  0
    1.2137   12.6519    2.8597 H   0  0  0  0  0  0  0  0  0  0  0  0
    0.6431   14.0530    1.8911 H   0  0  0  0  0  0  0  0  0  0  0  0
   -0.2933   12.5201    1.8911 H   0  0  0  0  0  0  0  0  0  0  0  0
   -0.5028    9.8778   -1.9301 H   0  0  0  0  0  0  0  0  0  0  0  0
   -1.2999   10.3018   -3.4830 H   0  0  0  0  0  0  0  0  0  0  0  0
    0.1921    9.3014   -3.4830 H   0  0  0  0  0  0  0  0  0  0  0  0
    2.3791   10.6723   -3.9549 H   0  0  0  0  0  0  0  0  0  0  0  0
    0.8941   10.7002   -5.0640 H   0  0  0  0  0  0  0  0  0  0  0  0
    2.7156   13.0158   -4.3551 H   0  0  0  0  0  0  0  0  0  0  0  0
    2.4818   12.2135   -5.9577 H   0  0  0  0  0  0  0  0  0  0  0  0
   -0.8723   12.1405   -5.7586 H   0  0  0  0  0  0  0  0  0  0  0  0
   -0.6308   13.4564   -6.9573 H   0  0  0  0  0  0  0  0  0  0  0  0
    0.4610   12.0300   -6.9573 H   0  0  0  0  0  0  0  0  0  0  0  0
  1  2  1  0
  2  3  1  0
  3  4  1  0
  4  5  1  0
  5  6  1  0
  6  7  1  0
  7  8  1  0
  7  9  1  0
  2 10  1  0
 10 11  1  0
 11 12  1  0
 12 13  1  0
 13 14  1  1
 13 15  1  0
 15 16  1  0
 16 17  1  0
 17 18  2  0
 18 19  1  0
 19 20  1  0
 20 21  1  0
 21 22  1  0
 22 23  1  0
 22 24  1  0
 24 25  1  0
 24 26  1  0
 19 27  1  0
 27 28  1  1
 27 29  1  0
 29 30  1  0
 30 31  1  0
 31 32  1  6
  7  5  1  0
 31 10  1  0
 31 13  1  0
 27 15  1  0
 24 18  1  0
  1 33  1  0
  1 34  1  0
  1 35  1  0
  2 36  1  6
  3 37  1  0
  3 38  1  0
  4 39  1  0
  4 40  1  0
  5 41  1  6
  8 42  1  0
  8 43  1  0
  8 44  1  0
  9 45  1  0
  9 46  1  0
  9 47  1  0
 10 48  1  1
 11 49  1  0
 11 50  1  0
 12 51  1  0
 12 52  1  0
 14 53  1  0
 14 54  1  0
 14 55  1  0
 15 56  1  6
 16 57  1  0
 16 58  1  0
 17 59  1  0
 19 60  1  6
 20 61  1  0
 20 62  1  0
 21 63  1  0
 21 64  1  0
 22 65  1  1
 23 66  1  0
 25 67  1  0
 25 68  1  0
 25 69  1  0
 26 70  1  0
 26 71  1  0
 26 72  1  0
 28 73  1  0
 28 74  1  0
 28 75  1  0
 29 76  1  0
 29 77  1  0
 30 78  1  0
 30 79  1  0
 32 80  1  0
 32 81  1  0
 32 82  1  0
M  END
>  <meeko>  (16) 
{"is_sidechain": [false], "intermolecular_energy": 2.731, "internal_energy": -0.839}

$$$$
EPH_relaxed_0001_pdb2pqr_Repair_87_r2_0001_out
     RDKit          3D

 82 86  0  0  0  0  0  0  0  0999 V2000
   -3.5370    7.0410   -3.4630 C   0  0  0  0  0  0  0  0  0  0  0  0
   -3.8920    7.2670   -1.9910 C   0  0  2  0  0  0  0  0  0  0  0  0
   -5.4130    7.2130   -1.7460 C   0  0  0  0  0  0  0  0  0  0  0  0
   -6.2310    6.9290   -3.0090 C   0  0  0  0  0  0  0  0  0  0  0  0
   -7.6670    6.6460   -2.6870 C   0  0  2  0  0  0  0  0  0  0  0  0
   -8.5470    6.6560   -3.8190 O   0  0  0  0  0  0  0  0  0  0  0  0
   -8.7750    7.6720   -2.8290 C   0  0  0  0  0  0  0  0  0  0  0  0
   -8.4940    9.0620   -3.3090 C   0  0  0  0  0  0  0  0  0  0  0  0
  -10.0350    7.4790   -2.0450 C   0  0  0  0  0  0  0  0  0  0  0  0
   -3.3360    8.6070   -1.5230 C   0  0  1  0  0  0  0  0  0  0  0  0
   -3.9680    9.0820   -0.1870 C   0  0  0  0  0  0  0  0  0  0  0  0
   -2.8530    9.8220    0.5970 C   0  0  0  0  0  0  0  0  0  0  0  0
   -1.7260   10.0380   -0.4390 C   0  0  1  0  0  0  0  0  0  0  0  0
   -2.1640   11.2970   -1.2520 C   0  0  0  0  0  0  0  0  0  0  0  0
   -0.2800   10.1970    0.1350 C   0  0  2  0  0  0  0  0  0  0  0  0
   -0.0710   11.4180    1.0480 C   0  0  0  0  0  0  0  0  0  0  0  0
    0.3700   12.6640    0.3540 C   0  0  0  0  0  0  0  0  0  0  0  0
    0.8630   12.7310   -0.8960 C   0  0  0  0  0  0  0  0  0  0  0  0
    1.1100   11.4560   -1.7140 C   0  0  1  0  0  0  0  0  0  0  0  0
    2.5120   11.5290   -2.3750 C   0  0  0  0  0  0  0  0  0  0  0  0
    2.7060   12.7980   -3.1990 C   0  0  0  0  0  0  0  0  0  0  0  0
    2.5090   14.0430   -2.3370 C   0  0  2  0  0  0  0  0  0  0  0  0
    3.5630   14.1060   -1.3720 O   0  0  0  0  0  0  0  0  0  0  0  0
    1.1340   14.0760   -1.6130 C   0  0  0  0  0  0  0  0  0  0  0  0
    0.0070   14.3110   -2.6480 C   0  0  0  0  0  0  0  0  0  0  0  0
    1.1220   15.3090   -0.6700 C   0  0  0  0  0  0  0  0  0  0  0  0
    0.8650   10.0840   -0.9510 C   0  0  1  0  0  0  0  0  0  0  0  0
    2.1590    9.6590   -0.1910 C   0  0  0  0  0  0  0  0  0  0  0  0
    0.5780    8.9520   -2.0070 C   0  0  0  0  0  0  0  0  0  0  0  0
   -0.8870    8.7660   -2.4460 C   0  0  0  0  0  0  0  0  0  0  0  0
   -1.8160    8.6830   -1.2310 C   0  0  2  0  0  0  0  0  0  0  0  0
   -1.4130    7.4140   -0.4060 C   0  0  0  0  0  0  0  0  0  0  0  0
   -2.6108    6.4514   -3.5305 H   0  0  0  0  0  0  0  0  0  0  0  0
   -4.3549    6.4970   -3.9581 H   0  0  0  0  0  0  0  0  0  0  0  0
   -3.3902    8.0123   -3.9581 H   0  0  0  0  0  0  0  0  0  0  0  0
   -3.4353    6.4516   -1.4108 H   0  0  0  0  0  0  0  0  0  0  0  0
   -5.6186    6.4187   -1.0133 H   0  0  0  0  0  0  0  0  0  0  0  0
   -5.7155    8.2068   -1.3842 H   0  0  0  0  0  0  0  0  0  0  0  0
   -6.1802    7.8058   -3.6713 H   0  0  0  0  0  0  0  0  0  0  0  0
   -5.8077    6.0399   -3.4991 H   0  0  0  0  0  0  0  0  0  0  0  0
   -7.3750    5.9863   -1.8566 H   0  0  0  0  0  0  0  0  0  0  0  0
   -8.3593    9.7283   -2.4442 H   0  0  0  0  0  0  0  0  0  0  0  0
   -7.5778    9.0615   -3.9177 H   0  0  0  0  0  0  0  0  0  0  0  0
   -9.3385    9.4174   -3.9177 H   0  0  0  0  0  0  0  0  0  0  0  0
   -9.8067    7.5140   -0.9695 H   0  0  0  0  0  0  0  0  0  0  0  0
  -10.7482    8.2784   -2.2946 H   0  0  0  0  0  0  0  0  0  0  0  0
  -10.4763    6.5028   -2.2946 H   0  0  0  0  0  0  0  0  0  0  0  0
   -3.5827    9.2254   -2.3986 H   0  0  0  0  0  0  0  0  0  0  0  0
   -4.8075    9.7642   -0.3865 H   0  0  0  0  0  0  0  0  0  0  0  0
   -4.3583    8.2307    0.3901 H   0  0  0  0  0  0  0  0  0  0  0  0
   -3.2205   10.7863    0.9778 H   0  0  0  0  0  0  0  0  0  0  0  0
   -2.5106    9.2522    1.4734 H   0  0  0  0  0  0  0  0  0  0  0  0
   -2.4443   12.1027   -0.5575 H   0  0  0  0  0  0  0  0  0  0  0  0
   -1.3299   11.6328   -1.8856 H   0  0  0  0  0  0  0  0  0  0  0  0
   -3.0264   11.0425   -1.8856 H   0  0  0  0  0  0  0  0  0  0  0  0
   -0.1876    9.3166    0.7880 H   0  0  0  0  0  0  0  0  0  0  0  0
   -1.0236   11.6303    1.5553 H   0  0  0  0  0  0  0  0  0  0  0  0
    0.7435   11.1480    1.7363 H   0  0  0  0  0  0  0  0  0  0  0  0
    0.2846   13.6079    0.9123 H   0  0  0  0  0  0  0  0  0  0  0  0
    0.3315   11.4371   -2.4909 H   0  0  0  0  0  0  0  0  0  0  0  0
    3.2762   11.5019   -1.5843 H   0  0  0  0  0  0  0  0  0  0  0  0
    2.6040   10.6711   -3.0573 H   0  0  0  0  0  0  0  0  0  0  0  0
    3.7244   12.8053   -3.6147 H   0  0  0  0  0  0  0  0  0  0  0  0
    1.9607   12.8091   -4.0079 H   0  0  0  0  0  0  0  0  0  0  0  0
    2.5308   14.9153   -3.0068 H   0  0  0  0  0  0  0  0  0  0  0  0
    4.2320   14.7270   -1.7060 H   0  0  0  0  0  0  0  0  0  0  0  0
   -0.9387   14.5082   -2.1219 H   0  0  0  0  0  0  0  0  0  0  0  0
    0.2628   15.1751   -3.2788 H   0  0  0  0  0  0  0  0  0  0  0  0
   -0.1039   13.4167   -3.2788 H   0  0  0  0  0  0  0  0  0  0  0  0
    1.1253   14.9703    0.3765 H   0  0  0  0  0  0  0  0  0  0  0  0
    2.0142   15.9240   -0.8592 H   0  0  0  0  0  0  0  0  0  0  0  0
    0.2180   15.9065   -0.8592 H   0  0  0  0  0  0  0  0  0  0  0  0
    1.9831    9.7168    0.8933 H   0  0  0  0  0  0  0  0  0  0  0  0
    2.4230    8.6269   -0.4652 H   0  0  0  0  0  0  0  0  0  0  0  0
    2.9835   10.3335   -0.4652 H   0  0  0  0  0  0  0  0  0  0  0  0
    1.1687    9.1789   -2.9068 H   0  0  0  0  0  0  0  0  0  0  0  0
    0.8485    8.0127   -1.5024 H   0  0  0  0  0  0  0  0  0  0  0  0
   -1.1868    9.6202   -3.0708 H   0  0  0  0  0  0  0  0  0  0  0  0
   -0.9669    7.8274   -3.0140 H   0  0  0  0  0  0  0  0  0  0  0  0
   -1.4840    7.6376    0.6687 H   0  0  0  0  0  0  0  0  0  0  0  0
   -2.0920    6.5848   -0.6537 H   0  0  0  0  0  0  0  0  0  0  0  0
   -0.3800    7.1285   -0.6537 H   0  0  0  0  0  0  0  0  0  0  0  0
  1  2  1  0
  2  3  1  0
  3  4  1  0
  4  5  1  0
  5  6  1  0
  6  7  1  0
  7  8  1  0
  7  9  1  0
  2 10  1  0
 10 11  1  0
 11 12  1  0
 12 13  1  0
 13 14  1  6
 13 15  1  0
 15 16  1  0
 16 17  1  0
 17 18  2  0
 18 19  1  0
 19 20  1  0
 20 21  1  0
 21 22  1  0
 22 23  1  0
 22 24  1  0
 24 25  1  0
 24 26  1  0
 19 27  1  0
 27 28  1  1
 27 29  1  0
 29 30  1  0
 30 31  1  0
 31 32  1  1
  7  5  1  0
 31 10  1  0
 31 13  1  0
 27 15  1  0
 24 18  1  0
  1 33  1  0
  1 34  1  0
  1 35  1  0
  2 36  1  1
  3 37  1  0
  3 38  1  0
  4 39  1  0
  4 40  1  0
  5 41  1  1
  8 42  1  0
  8 43  1  0
  8 44  1  0
  9 45  1  0
  9 46  1  0
  9 47  1  0
 10 48  1  6
 11 49  1  0
 11 50  1  0
 12 51  1  0
 12 52  1  0
 14 53  1  0
 14 54  1  0
 14 55  1  0
 15 56  1  1
 16 57  1  0
 16 58  1  0
 17 59  1  0
 19 60  1  6
 20 61  1  0
 20 62  1  0
 21 63  1  0
 21 64  1  0
 22 65  1  6
 23 66  1  0
 25 67  1  0
 25 68  1  0
 25 69  1  0
 26 70  1  0
 26 71  1  0
 26 72  1  0
 28 73  1  0
 28 74  1  0
 28 75  1  0
 29 76  1  0
 29 77  1  0
 30 78  1  0
 30 79  1  0
 32 80  1  0
 32 81  1  0
 32 82  1  0
M  END
>  <meeko>  (17) 
{"is_sidechain": [false], "intermolecular_energy": 2.731, "internal_energy": -0.839}

$$$$
EPH_relaxed_0001_pdb2pqr_Repair_87_r2_0001_out
     RDKit          3D

 82 86  0  0  0  0  0  0  0  0999 V2000
    1.7160   10.6780   -4.2420 C   0  0  0  0  0  0  0  0  0  0  0  0
    0.9960   10.3290   -2.9370 C   0  0  2  0  0  0  0  0  0  0  0  0
   -0.4740    9.9290   -3.1730 C   0  0  0  0  0  0  0  0  0  0  0  0
   -0.9380    8.7530   -2.3080 C   0  0  0  0  0  0  0  0  0  0  0  0
   -0.6850    9.0020   -0.8520 C   0  0  2  0  0  0  0  0  0  0  0  0
   -1.8390    8.8700   -0.0130 O   0  0  0  0  0  0  0  0  0  0  0  0
   -1.2610   10.1830   -0.0930 C   0  0  0  0  0  0  0  0  0  0  0  0
   -2.1350   11.1930   -0.7670 C   0  0  0  0  0  0  0  0  0  0  0  0
   -0.5830   10.6210    1.1680 C   0  0  0  0  0  0  0  0  0  0  0  0
    1.0670   11.5080   -1.9730 C   0  0  1  0  0  0  0  0  0  0  0  0
    2.1380   11.3130   -0.8670 C   0  0  0  0  0  0  0  0  0  0  0  0
    2.7350   12.7120   -0.5700 C   0  0  0  0  0  0  0  0  0  0  0  0
    1.7700   13.7030   -1.2640 C   0  0  1  0  0  0  0  0  0  0  0  0
    0.5770   13.8620   -0.2700 C   0  0  0  0  0  0  0  0  0  0  0  0
    2.3740   15.0870   -1.6680 C   0  0  2  0  0  0  0  0  0  0  0  0
    2.8760   15.9470   -0.4950 C   0  0  0  0  0  0  0  0  0  0  0  0
    1.8650   16.8760    0.0940 C   0  0  0  0  0  0  0  0  0  0  0  0
    0.6960   17.2220   -0.4770 C   0  0  0  0  0  0  0  0  0  0  0  0
    0.3350   16.7410   -1.8880 C   0  0  1  0  0  0  0  0  0  0  0  0
   -0.2080   17.9330   -2.7190 C   0  0  0  0  0  0  0  0  0  0  0  0
   -1.3680   18.6460   -2.0300 C   0  0  0  0  0  0  0  0  0  0  0  0
   -0.9530   19.1610   -0.6550 C   0  0  2  0  0  0  0  0  0  0  0  0
    0.0220   20.1950   -0.8250 O   0  0  0  0  0  0  0  0  0  0  0  0
   -0.3800   18.0490    0.2690 C   0  0  0  0  0  0  0  0  0  0  0  0
   -1.5190   17.0910    0.6970 C   0  0  0  0  0  0  0  0  0  0  0  0
    0.1310   18.7250    1.5700 C   0  0  0  0  0  0  0  0  0  0  0  0
    1.4650   15.9280   -2.6540 C   0  0  1  0  0  0  0  0  0  0  0  0
    2.4140   16.9130   -3.4030 C   0  0  0  0  0  0  0  0  0  0  0  0
    0.7940   15.0310   -3.7600 C   0  0  0  0  0  0  0  0  0  0  0  0
    0.3260   13.6280   -3.3270 C   0  0  0  0  0  0  0  0  0  0  0  0
    1.4330   12.8910   -2.5670 C   0  0  2  0  0  0  0  0  0  0  0  0
    2.6390   12.6960   -3.5490 C   0  0  0  0  0  0  0  0  0  0  0  0
    2.6841   11.1472   -4.0125 H   0  0  0  0  0  0  0  0  0  0  0  0
    1.8824    9.7606   -4.8256 H   0  0  0  0  0  0  0  0  0  0  0  0
    1.0989   11.3770   -4.8256 H   0  0  0  0  0  0  0  0  0  0  0  0
    1.5079    9.4593   -2.4993 H   0  0  0  0  0  0  0  0  0  0  0  0
   -1.1107   10.7976   -2.9488 H   0  0  0  0  0  0  0  0  0  0  0  0
   -0.5558    9.6087   -4.2221 H   0  0  0  0  0  0  0  0  0  0  0  0
   -2.0166    8.6013   -2.4615 H   0  0  0  0  0  0  0  0  0  0  0  0
   -0.3679    7.8612   -2.6075 H   0  0  0  0  0  0  0  0  0  0  0  0
    0.3387    8.6088   -0.9383 H   0  0  0  0  0  0  0  0  0  0  0  0
   -2.6549   11.7938   -0.0063 H   0  0  0  0  0  0  0  0  0  0  0  0
   -1.5172   11.8516   -1.3951 H   0  0  0  0  0  0  0  0  0  0  0  0
   -2.8755   10.6762   -1.3951 H   0  0  0  0  0  0  0  0  0  0  0  0
   -1.1506   10.2543    2.0359 H   0  0  0  0  0  0  0  0  0  0  0  0
    0.4373   10.2108    1.1973 H   0  0  0  0  0  0  0  0  0  0  0  0
   -0.5375   11.7197    1.1973 H   0  0  0  0  0  0  0  0  0  0  0  0
    0.0270   11.5153   -1.6148 H   0  0  0  0  0  0  0  0  0  0  0  0
    1.6742   10.8988    0.0404 H   0  0  0  0  0  0  0  0  0  0  0  0
    2.9198   10.6116   -1.1940 H   0  0  0  0  0  0  0  0  0  0  0  0
    2.7692   12.8976    0.5137 H   0  0  0  0  0  0  0  0  0  0  0  0
    3.7681   12.8109   -0.9346 H   0  0  0  0  0  0  0  0  0  0  0  0
    0.9514   13.8121    0.7631 H   0  0  0  0  0  0  0  0  0  0  0  0
    0.0881   14.8332   -0.4363 H   0  0  0  0  0  0  0  0  0  0  0  0
   -0.1492   13.0527   -0.4363 H   0  0  0  0  0  0  0  0  0  0  0  0
    3.2728   14.7968   -2.2318 H   0  0  0  0  0  0  0  0  0  0  0  0
    3.2192   15.2694    0.3007 H   0  0  0  0  0  0  0  0  0  0  0  0
    3.6730   16.5849   -0.9047 H   0  0  0  0  0  0  0  0  0  0  0  0
    2.0951   17.3139    1.0765 H   0  0  0  0  0  0  0  0  0  0  0  0
   -0.4545   15.9861   -1.7585 H   0  0  0  0  0  0  0  0  0  0  0  0
    0.6073   18.6549   -2.8746 H   0  0  0  0  0  0  0  0  0  0  0  0
   -0.5814   17.5325   -3.6730 H   0  0  0  0  0  0  0  0  0  0  0  0
   -1.6880   19.4957   -2.6510 H   0  0  0  0  0  0  0  0  0  0  0  0
   -2.1934   17.9303   -1.9021 H   0  0  0  0  0  0  0  0  0  0  0  0
   -1.8572   19.5449   -0.1599 H   0  0  0  0  0  0  0  0  0  0  0  0
    0.3980   20.3910    0.0500 H   0  0  0  0  0  0  0  0  0  0  0  0
   -1.5693   17.0487    1.7950 H   0  0  0  0  0  0  0  0  0  0  0  0
   -2.4765   17.4593    0.3000 H   0  0  0  0  0  0  0  0  0  0  0  0
   -1.3202   16.0846    0.3000 H   0  0  0  0  0  0  0  0  0  0  0  0
   -0.2724   18.1914    2.4433 H   0  0  0  0  0  0  0  0  0  0  0  0
    1.2302   18.6897    1.5942 H   0  0  0  0  0  0  0  0  0  0  0  0
   -0.2028   19.7729    1.5942 H   0  0  0  0  0  0  0  0  0  0  0  0
    2.9827   17.5033   -2.6695 H   0  0  0  0  0  0  0  0  0  0  0  0
    3.1111   16.3421   -4.0339 H   0  0  0  0  0  0  0  0  0  0  0  0
    1.8175   17.5884   -4.0339 H   0  0  0  0  0  0  0  0  0  0  0  0
   -0.0850   15.5726   -4.1397 H   0  0  0  0  0  0  0  0  0  0  0  0
    1.5836   14.8539   -4.5051 H   0  0  0  0  0  0  0  0  0  0  0  0
   -0.5537   13.7277   -2.6742 H   0  0  0  0  0  0  0  0  0  0  0  0
    0.0736   13.0490   -4.2276 H   0  0  0  0  0  0  0  0  0  0  0  0
    3.5625   12.5467   -2.9704 H   0  0  0  0  0  0  0  0  0  0  0  0
    2.4571   11.8156   -4.1829 H   0  0  0  0  0  0  0  0  0  0  0  0
    2.7438   13.5889   -4.1829 H   0  0  0  0  0  0  0  0  0  0  0  0
  1  2  1  0
  2  3  1  0
  3  4  1  0
  4  5  1  0
  5  6  1  0
  6  7  1  0
  7  8  1  0
  7  9  1  0
  2 10  1  0
 10 11  1  0
 11 12  1  0
 12 13  1  0
 13 14  1  1
 13 15  1  0
 15 16  1  0
 16 17  1  0
 17 18  2  0
 18 19  1  0
 19 20  1  0
 20 21  1  0
 21 22  1  0
 22 23  1  0
 22 24  1  0
 24 25  1  0
 24 26  1  0
 19 27  1  0
 27 28  1  6
 27 29  1  0
 29 30  1  0
 30 31  1  0
 31 32  1  6
  7  5  1  0
 31 10  1  0
 31 13  1  0
 27 15  1  0
 24 18  1  0
  1 33  1  0
  1 34  1  0
  1 35  1  0
  2 36  1  1
  3 37  1  0
  3 38  1  0
  4 39  1  0
  4 40  1  0
  5 41  1  1
  8 42  1  0
  8 43  1  0
  8 44  1  0
  9 45  1  0
  9 46  1  0
  9 47  1  0
 10 48  1  1
 11 49  1  0
 11 50  1  0
 12 51  1  0
 12 52  1  0
 14 53  1  0
 14 54  1  0
 14 55  1  0
 15 56  1  6
 16 57  1  0
 16 58  1  0
 17 59  1  0
 19 60  1  1
 20 61  1  0
 20 62  1  0
 21 63  1  0
 21 64  1  0
 22 65  1  1
 23 66  1  0
 25 67  1  0
 25 68  1  0
 25 69  1  0
 26 70  1  0
 26 71  1  0
 26 72  1  0
 28 73  1  0
 28 74  1  0
 28 75  1  0
 29 76  1  0
 29 77  1  0
 30 78  1  0
 30 79  1  0
 32 80  1  0
 32 81  1  0
 32 82  1  0
M  END
>  <meeko>  (18) 
{"is_sidechain": [false], "intermolecular_energy": 2.731, "internal_energy": -0.839}

$$$$
EPH_relaxed_0001_pdb2pqr_Repair_87_r2_0001_out
     RDKit          3D

 82 86  0  0  0  0  0  0  0  0999 V2000
    2.5280   18.0630   -3.4210 C   0  0  0  0  0  0  0  0  0  0  0  0
    2.2940   17.9780   -1.9100 C   0  0  2  0  0  0  0  0  0  0  0  0
    3.2030   18.9450   -1.1260 C   0  0  0  0  0  0  0  0  0  0  0  0
    2.9010   18.9930    0.3740 C   0  0  0  0  0  0  0  0  0  0  0  0
    4.1550   19.0960    1.1890 C   0  0  2  0  0  0  0  0  0  0  0  0
    4.1840   18.2600    2.3530 O   0  0  0  0  0  0  0  0  0  0  0  0
    4.1970   19.6770    2.5900 C   0  0  0  0  0  0  0  0  0  0  0  0
    2.9620   20.1950    3.2570 C   0  0  0  0  0  0  0  0  0  0  0  0
    5.5030   20.1880    3.1140 C   0  0  0  0  0  0  0  0  0  0  0  0
    2.5160   16.5480   -1.4300 C   0  0  1  0  0  0  0  0  0  0  0  0
    3.2380   16.4850   -0.0570 C   0  0  0  0  0  0  0  0  0  0  0  0
    2.6540   15.2650    0.6990 C   0  0  0  0  0  0  0  0  0  0  0  0
    1.8680   14.4790   -0.3760 C   0  0  1  0  0  0  0  0  0  0  0  0
    2.9500   13.6490   -1.1360 C   0  0  0  0  0  0  0  0  0  0  0  0
    0.7050   13.5720    0.1430 C   0  0  2  0  0  0  0  0  0  0  0  0
    1.1350   12.4290    1.0780 C   0  0  0  0  0  0  0  0  0  0  0  0
    1.4620   11.1390    0.4000 C   0  0  0  0  0  0  0  0  0  0  0  0
    1.1420   10.8190   -0.8670 C   0  0  0  0  0  0  0  0  0  0  0  0
    0.2930   11.7640   -1.7280 C   0  0  1  0  0  0  0  0  0  0  0  0
   -0.8200   10.9530   -2.4430 C   0  0  0  0  0  0  0  0  0  0  0  0
   -0.2660    9.7770   -3.2400 C   0  0  0  0  0  0  0  0  0  0  0  0
    0.5220    8.8300   -2.3390 C   0  0  2  0  0  0  0  0  0  0  0  0
   -0.3810    8.2130   -1.4160 O   0  0  0  0  0  0  0  0  0  0  0  0
    1.6650    9.5370   -1.5590 C   0  0  0  0  0  0  0  0  0  0  0  0
    2.7930    9.9400   -2.5410 C   0  0  0  0  0  0  0  0  0  0  0  0
    2.2880    8.5020   -0.5840 C   0  0  0  0  0  0  0  0  0  0  0  0
   -0.2700   13.0550   -0.9920 C   0  0  1  0  0  0  0  0  0  0  0  0
   -1.6260   12.7230   -0.2970 C   0  0  0  0  0  0  0  0  0  0  0  0
   -0.5800   14.1640   -2.0650 C   0  0  0  0  0  0  0  0  0  0  0  0
    0.5780   15.1050   -2.4480 C   0  0  0  0  0  0  0  0  0  0  0  0
    1.2600   15.6720   -1.1990 C   0  0  2  0  0  0  0  0  0  0  0  0
    0.2020   16.5300   -0.4250 C   0  0  0  0  0  0  0  0  0  0  0  0
    3.5458   18.4327   -3.6142 H   0  0  0  0  0  0  0  0  0  0  0  0
    2.4098   17.0645   -3.8671 H   0  0  0  0  0  0  0  0  0  0  0  0
    1.7965   18.7528   -3.8671 H   0  0  0  0  0  0  0  0  0  0  0  0
    1.2529   18.2770   -1.7186 H   0  0  0  0  0  0  0  0  0  0  0  0
    4.2471   18.6259   -1.2601 H   0  0  0  0  0  0  0  0  0  0  0  0
    3.0183   19.9538   -1.5237 H   0  0  0  0  0  0  0  0  0  0  0  0
    2.2676   19.8679    0.5823 H   0  0  0  0  0  0  0  0  0  0  0  0
    2.3879   18.0601    0.6505 H   0  0  0  0  0  0  0  0  0  0  0  0
    4.7515   19.2995    0.2875 H   0  0  0  0  0  0  0  0  0  0  0  0
    3.0857   20.1431    4.3488 H   0  0  0  0  0  0  0  0  0  0  0  0
    2.7935   21.2396    2.9563 H   0  0  0  0  0  0  0  0  0  0  0  0
    2.0988   19.5831    2.9563 H   0  0  0  0  0  0  0  0  0  0  0  0
    5.4848   20.1809    4.2138 H   0  0  0  0  0  0  0  0  0  0  0  0
    6.3191   19.5429    2.7566 H   0  0  0  0  0  0  0  0  0  0  0  0
    5.6646   21.2157    2.7566 H   0  0  0  0  0  0  0  0  0  0  0  0
    3.0964   16.1564   -2.2785 H   0  0  0  0  0  0  0  0  0  0  0  0
    4.3206   16.3570   -0.2037 H   0  0  0  0  0  0  0  0  0  0  0  0
    3.0850   17.4133    0.5129 H   0  0  0  0  0  0  0  0  0  0  0  0
    3.4605   14.6466    1.1199 H   0  0  0  0  0  0  0  0  0  0  0  0
    2.0179   15.5642    1.5451 H   0  0  0  0  0  0  0  0  0  0  0  0
    3.6047   13.1468   -0.4086 H   0  0  0  0  0  0  0  0  0  0  0  0
    2.4572   12.8951   -1.7675 H   0  0  0  0  0  0  0  0  0  0  0  0
    3.5505   14.3203   -1.7675 H   0  0  0  0  0  0  0  0  0  0  0  0
    0.1264   14.2672    0.7691 H   0  0  0  0  0  0  0  0  0  0  0  0
    2.0276   12.7588    1.6298 H   0  0  0  0  0  0  0  0  0  0  0  0
    0.2691   12.2223    1.7241 H   0  0  0  0  0  0  0  0  0  0  0  0
    2.0108   10.3871    0.9860 H   0  0  0  0  0  0  0  0  0  0  0  0
    0.9782   12.1950   -2.4728 H   0  0  0  0  0  0  0  0  0  0  0  0
   -1.5179   10.5678   -1.6850 H   0  0  0  0  0  0  0  0  0  0  0  0
   -1.3233   11.6284   -3.1505 H   0  0  0  0  0  0  0  0  0  0  0  0
   -1.1014    9.2267   -3.6974 H   0  0  0  0  0  0  0  0  0  0  0  0
    0.4093   10.1661   -4.0162 H   0  0  0  0  0  0  0  0  0  0  0  0
    1.0009    8.0806   -2.9864 H   0  0  0  0  0  0  0  0  0  0  0  0
   -0.9290    8.9160   -1.0270 H   0  0  0  0  0  0  0  0  0  0  0  0
    3.6792   10.2566   -1.9714 H   0  0  0  0  0  0  0  0  0  0  0  0
    3.0526    9.0790   -3.1745 H   0  0  0  0  0  0  0  0  0  0  0  0
    2.4483   10.7706   -3.1745 H   0  0  0  0  0  0  0  0  0  0  0  0
    2.0992    8.8156    0.4533 H   0  0  0  0  0  0  0  0  0  0  0  0
    1.8336    7.5153   -0.7572 H   0  0  0  0  0  0  0  0  0  0  0  0
    3.3726    8.4417   -0.7572 H   0  0  0  0  0  0  0  0  0  0  0  0
   -1.4959   12.7549    0.7948 H   0  0  0  0  0  0  0  0  0  0  0  0
   -2.3829   13.4624   -0.5978 H   0  0  0  0  0  0  0  0  0  0  0  0
   -1.9557   11.7176   -0.5978 H   0  0  0  0  0  0  0  0  0  0  0  0
   -0.9125   13.6556   -2.9821 H   0  0  0  0  0  0  0  0  0  0  0  0
   -1.3348   14.8132   -1.5972 H   0  0  0  0  0  0  0  0  0  0  0  0
    1.3174   14.5439   -3.0383 H   0  0  0  0  0  0  0  0  0  0  0  0
    0.1707   15.9412   -3.0353 H   0  0  0  0  0  0  0  0  0  0  0  0
    0.3523   16.4081    0.6578 H   0  0  0  0  0  0  0  0  0  0  0  0
    0.3211   17.5897   -0.6947 H   0  0  0  0  0  0  0  0  0  0  0  0
   -0.8103   16.1946   -0.6947 H   0  0  0  0  0  0  0  0  0  0  0  0
  1  2  1  0
  2  3  1  0
  3  4  1  0
  4  5  1  0
  5  6  1  0
  6  7  1  0
  7  8  1  0
  7  9  1  0
  2 10  1  0
 10 11  1  0
 11 12  1  0
 12 13  1  0
 13 14  1  6
 13 15  1  0
 15 16  1  0
 16 17  1  0
 17 18  2  0
 18 19  1  0
 19 20  1  0
 20 21  1  0
 21 22  1  0
 22 23  1  0
 22 24  1  0
 24 25  1  0
 24 26  1  0
 19 27  1  0
 27 28  1  1
 27 29  1  0
 29 30  1  0
 30 31  1  0
 31 32  1  1
  7  5  1  0
 31 10  1  0
 31 13  1  0
 27 15  1  0
 24 18  1  0
  1 33  1  0
  1 34  1  0
  1 35  1  0
  2 36  1  6
  3 37  1  0
  3 38  1  0
  4 39  1  0
  4 40  1  0
  5 41  1  6
  8 42  1  0
  8 43  1  0
  8 44  1  0
  9 45  1  0
  9 46  1  0
  9 47  1  0
 10 48  1  6
 11 49  1  0
 11 50  1  0
 12 51  1  0
 12 52  1  0
 14 53  1  0
 14 54  1  0
 14 55  1  0
 15 56  1  1
 16 57  1  0
 16 58  1  0
 17 59  1  0
 19 60  1  6
 20 61  1  0
 20 62  1  0
 21 63  1  0
 21 64  1  0
 22 65  1  6
 23 66  1  0
 25 67  1  0
 25 68  1  0
 25 69  1  0
 26 70  1  0
 26 71  1  0
 26 72  1  0
 28 73  1  0
 28 74  1  0
 28 75  1  0
 29 76  1  0
 29 77  1  0
 30 78  1  0
 30 79  1  0
 32 80  1  0
 32 81  1  0
 32 82  1  0
M  END
>  <meeko>  (19) 
{"is_sidechain": [false], "intermolecular_energy": 2.731, "internal_energy": -0.839}

$$$$
