EPH_relaxed_0001_pdb2pqr_Repair_105_r2_0001_out
     RDKit          3D

 82 86  0  0  0  0  0  0  0  0999 V2000
   -1.6090    8.5980   -1.8630 C   0  0  0  0  0  0  0  0  0  0  0  0
   -1.9360    9.1050   -0.4550 C   0  0  2  0  0  0  0  0  0  0  0  0
   -3.4260    9.4660   -0.2990 C   0  0  0  0  0  0  0  0  0  0  0  0
   -4.3600    8.2530   -0.3290 C   0  0  0  0  0  0  0  0  0  0  0  0
   -5.0320    8.1030   -1.6600 C   0  0  2  0  0  0  0  0  0  0  0  0
   -6.3630    8.6320   -1.7210 O   0  0  0  0  0  0  0  0  0  0  0  0
   -6.2370    7.2110   -1.8930 C   0  0  0  0  0  0  0  0  0  0  0  0
   -6.8400    6.4080   -0.7830 C   0  0  0  0  0  0  0  0  0  0  0  0
   -6.5240    6.7440   -3.2860 C   0  0  0  0  0  0  0  0  0  0  0  0
   -1.0690   10.3150   -0.1250 C   0  0  1  0  0  0  0  0  0  0  0  0
    0.0140   10.0010    0.9410 C   0  0  0  0  0  0  0  0  0  0  0  0
    1.2620   10.8430    0.5720 C   0  0  0  0  0  0  0  0  0  0  0  0
    0.7530   11.8530   -0.4840 C   0  0  1  0  0  0  0  0  0  0  0  0
    0.0750   12.9900    0.3430 C   0  0  0  0  0  0  0  0  0  0  0  0
    1.8240   12.4180   -1.4720 C   0  0  2  0  0  0  0  0  0  0  0  0
    2.9530   13.2330   -0.8150 C   0  0  0  0  0  0  0  0  0  0  0  0
    2.6960   14.6990   -0.6980 C   0  0  0  0  0  0  0  0  0  0  0  0
    1.7370   15.3800   -1.3520 C   0  0  0  0  0  0  0  0  0  0  0  0
    0.8490   14.6860   -2.3930 C   0  0  1  0  0  0  0  0  0  0  0  0
    0.7570   15.5680   -3.6650 C   0  0  0  0  0  0  0  0  0  0  0  0
    0.2960   16.9900   -3.3600 C   0  0  0  0  0  0  0  0  0  0  0  0
    1.2360   17.6660   -2.3660 C   0  0  2  0  0  0  0  0  0  0  0  0
    2.5100   17.8540   -2.9920 O   0  0  0  0  0  0  0  0  0  0  0  0
    1.4150   16.8640   -1.0470 C   0  0  0  0  0  0  0  0  0  0  0  0
    0.1050   16.9180   -0.2230 C   0  0  0  0  0  0  0  0  0  0  0  0
    2.4950   17.5820   -0.1940 C   0  0  0  0  0  0  0  0  0  0  0  0
    1.2170   13.1750   -2.7220 C   0  0  1  0  0  0  0  0  0  0  0  0
    2.3010   13.1240   -3.8430 C   0  0  0  0  0  0  0  0  0  0  0  0
   -0.0550   12.4500   -3.3010 C   0  0  0  0  0  0  0  0  0  0  0  0
   -1.0130   11.8080   -2.2800 C   0  0  0  0  0  0  0  0  0  0  0  0
   -0.2460   10.9370   -1.2800 C   0  0  2  0  0  0  0  0  0  0  0  0
    0.4290    9.7720   -2.0810 C   0  0  0  0  0  0  0  0  0  0  0  0
   -1.0140    7.6755   -1.7916 H   0  0  0  0  0  0  0  0  0  0  0  0
   -2.5438    8.3904   -2.4043 H   0  0  0  0  0  0  0  0  0  0  0  0
   -1.0343    9.3640   -2.4043 H   0  0  0  0  0  0  0  0  0  0  0  0
   -1.7195    8.2886    0.2497 H   0  0  0  0  0  0  0  0  0  0  0  0
   -3.5591    9.9830    0.6627 H   0  0  0  0  0  0  0  0  0  0  0  0
   -3.6946   10.0997   -1.1571 H   0  0  0  0  0  0  0  0  0  0  0  0
   -3.7730    7.3460   -0.1219 H   0  0  0  0  0  0  0  0  0  0  0  0
   -5.1390    8.4014    0.4334 H   0  0  0  0  0  0  0  0  0  0  0  0
   -4.0686    8.1928   -2.1833 H   0  0  0  0  0  0  0  0  0  0  0  0
   -6.5259    6.8263    0.1847 H   0  0  0  0  0  0  0  0  0  0  0  0
   -7.9368    6.4431   -0.8590 H   0  0  0  0  0  0  0  0  0  0  0  0
   -6.5004    5.3645   -0.8590 H   0  0  0  0  0  0  0  0  0  0  0  0
   -7.0996    5.8074   -3.2474 H   0  0  0  0  0  0  0  0  0  0  0  0
   -7.1068    7.5110   -3.8171 H   0  0  0  0  0  0  0  0  0  0  0  0
   -5.5765    6.5705   -3.8171 H   0  0  0  0  0  0  0  0  0  0  0  0
   -1.8502   11.0177    0.2005 H   0  0  0  0  0  0  0  0  0  0  0  0
   -0.3479   10.2788    1.9419 H   0  0  0  0  0  0  0  0  0  0  0  0
    0.2526    8.9273    0.9572 H   0  0  0  0  0  0  0  0  0  0  0  0
    1.6511   11.3688    1.4564 H   0  0  0  0  0  0  0  0  0  0  0  0
    2.0867   10.2221    0.1920 H   0  0  0  0  0  0  0  0  0  0  0  0
    0.1972   12.7851    1.4168 H   0  0  0  0  0  0  0  0  0  0  0  0
    0.5464   13.9531    0.0975 H   0  0  0  0  0  0  0  0  0  0  0  0
   -0.9964   13.0331    0.0975 H   0  0  0  0  0  0  0  0  0  0  0  0
    2.2996   11.5023   -1.8532 H   0  0  0  0  0  0  0  0  0  0  0  0
    3.1152   12.8344    0.1974 H   0  0  0  0  0  0  0  0  0  0  0  0
    3.8271   13.1289   -1.4746 H   0  0  0  0  0  0  0  0  0  0  0  0
    3.3458   15.2712   -0.0195 H   0  0  0  0  0  0  0  0  0  0  0  0
   -0.1450   14.5926   -1.9313 H   0  0  0  0  0  0  0  0  0  0  0  0
    1.7503   15.6128   -4.1354 H   0  0  0  0  0  0  0  0  0  0  0  0
    0.0120   15.1121   -4.3337 H   0  0  0  0  0  0  0  0  0  0  0  0
    0.2804   17.5715   -4.2936 H   0  0  0  0  0  0  0  0  0  0  0  0
   -0.7102   16.9459   -2.9178 H   0  0  0  0  0  0  0  0  0  0  0  0
    0.7835   18.6290   -2.0870 H   0  0  0  0  0  0  0  0  0  0  0  0
    2.4190   18.5800   -3.6320 H   0  0  0  0  0  0  0  0  0  0  0  0
    0.3462   16.9081    0.8502 H   0  0  0  0  0  0  0  0  0  0  0  0
   -0.4439   17.8395   -0.4669 H   0  0  0  0  0  0  0  0  0  0  0  0
   -0.5179   16.0448   -0.4669 H   0  0  0  0  0  0  0  0  0  0  0  0
    2.2755   17.4361    0.8740 H   0  0  0  0  0  0  0  0  0  0  0  0
    3.4846   17.1614   -0.4257 H   0  0  0  0  0  0  0  0  0  0  0  0
    2.4902   18.6573   -0.4257 H   0  0  0  0  0  0  0  0  0  0  0  0
    3.3001   13.0770   -3.3851 H   0  0  0  0  0  0  0  0  0  0  0  0
    2.1414   12.2324   -4.4671 H   0  0  0  0  0  0  0  0  0  0  0  0
    2.2258   14.0267   -4.4671 H   0  0  0  0  0  0  0  0  0  0  0  0
   -0.6290   13.1925   -3.8748 H   0  0  0  0  0  0  0  0  0  0  0  0
    0.3370   11.6113   -3.8950 H   0  0  0  0  0  0  0  0  0  0  0  0
   -1.5415   12.6029   -1.7334 H   0  0  0  0  0  0  0  0  0  0  0  0
   -1.7283   11.1721   -2.8222 H   0  0  0  0  0  0  0  0  0  0  0  0
    0.8528    9.0406   -1.3772 H   0  0  0  0  0  0  0  0  0  0  0  0
   -0.3231    9.2785   -2.7141 H   0  0  0  0  0  0  0  0  0  0  0  0
    1.2312   10.1790   -2.7141 H   0  0  0  0  0  0  0  0  0  0  0  0
  1  2  1  0
  2  3  1  0
  3  4  1  0
  4  5  1  0
  5  6  1  0
  6  7  1  0
  7  8  1  0
  7  9  1  0
  2 10  1  0
 10 11  1  0
 11 12  1  0
 12 13  1  0
 13 14  1  1
 13 15  1  0
 15 16  1  0
 16 17  1  0
 17 18  2  0
 18 19  1  0
 19 20  1  0
 20 21  1  0
 21 22  1  0
 22 23  1  0
 22 24  1  0
 24 25  1  0
 24 26  1  0
 19 27  1  0
 27 28  1  6
 27 29  1  0
 29 30  1  0
 30 31  1  0
 31 32  1  6
  7  5  1  0
 31 10  1  0
 31 13  1  0
 27 15  1  0
 24 18  1  0
  1 33  1  0
  1 34  1  0
  1 35  1  0
  2 36  1  1
  3 37  1  0
  3 38  1  0
  4 39  1  0
  4 40  1  0
  5 41  1  6
  8 42  1  0
  8 43  1  0
  8 44  1  0
  9 45  1  0
  9 46  1  0
  9 47  1  0
 10 48  1  1
 11 49  1  0
 11 50  1  0
 12 51  1  0
 12 52  1  0
 14 53  1  0
 14 54  1  0
 14 55  1  0
 15 56  1  6
 16 57  1  0
 16 58  1  0
 17 59  1  0
 19 60  1  1
 20 61  1  0
 20 62  1  0
 21 63  1  0
 21 64  1  0
 22 65  1  1
 23 66  1  0
 25 67  1  0
 25 68  1  0
 25 69  1  0
 26 70  1  0
 26 71  1  0
 26 72  1  0
 28 73  1  0
 28 74  1  0
 28 75  1  0
 29 76  1  0
 29 77  1  0
 30 78  1  0
 30 79  1  0
 32 80  1  0
 32 81  1  0
 32 82  1  0
M  END
>  <meeko>  (1) 
{"is_sidechain": [false], "intermolecular_energy": 2.731, "internal_energy": -0.839}

$$$$
EPH_relaxed_0001_pdb2pqr_Repair_105_r2_0001_out
     RDKit          3D

 82 86  0  0  0  0  0  0  0  0999 V2000
    2.4910   17.9900   -2.6020 C   0  0  0  0  0  0  0  0  0  0  0  0
    1.1480   17.6540   -1.9470 C   0  0  2  0  0  0  0  0  0  0  0  0
    1.2180   17.7270   -0.4080 C   0  0  0  0  0  0  0  0  0  0  0  0
    0.8680   19.1060    0.1580 C   0  0  0  0  0  0  0  0  0  0  0  0
   -0.5810   19.2020    0.5290 C   0  0  2  0  0  0  0  0  0  0  0  0
   -1.4360   18.2740   -0.1510 O   0  0  0  0  0  0  0  0  0  0  0  0
   -1.6610   19.6650   -0.4300 C   0  0  0  0  0  0  0  0  0  0  0  0
   -1.3380   20.0640   -1.8360 C   0  0  0  0  0  0  0  0  0  0  0  0
   -2.9420   20.1930    0.1360 C   0  0  0  0  0  0  0  0  0  0  0  0
    0.6910   16.2660   -2.3820 C   0  0  1  0  0  0  0  0  0  0  0  0
    0.8130   16.0500   -3.9140 C   0  0  0  0  0  0  0  0  0  0  0  0
    1.1990   14.5640   -4.1260 C   0  0  0  0  0  0  0  0  0  0  0  0
    0.9630   13.8990   -2.7500 C   0  0  1  0  0  0  0  0  0  0  0  0
   -0.5720   13.6230   -2.6960 C   0  0  0  0  0  0  0  0  0  0  0  0
    1.7920   12.6060   -2.4560 C   0  0  2  0  0  0  0  0  0  0  0  0
    1.5140   11.4230   -3.3990 C   0  0  0  0  0  0  0  0  0  0  0  0
    0.4340   10.4930   -2.9540 C   0  0  0  0  0  0  0  0  0  0  0  0
   -0.0880   10.4370   -1.7140 C   0  0  0  0  0  0  0  0  0  0  0  0
    0.4780   11.3030   -0.5810 C   0  0  1  0  0  0  0  0  0  0  0  0
    0.6710   10.4320    0.6890 C   0  0  0  0  0  0  0  0  0  0  0  0
   -0.6050    9.7000    1.0950 C   0  0  0  0  0  0  0  0  0  0  0  0
   -1.1040    8.8060   -0.0360 C   0  0  2  0  0  0  0  0  0  0  0  0
   -0.1610    7.7490   -0.2390 O   0  0  0  0  0  0  0  0  0  0  0  0
   -1.3250    9.5720   -1.3710 C   0  0  0  0  0  0  0  0  0  0  0  0
   -2.5520   10.5080   -1.2360 C   0  0  0  0  0  0  0  0  0  0  0  0
   -1.6920    8.5310   -2.4630 C   0  0  0  0  0  0  0  0  0  0  0  0
    1.7710   12.1540   -0.9390 C   0  0  1  0  0  0  0  0  0  0  0  0
    3.0530   11.2960   -0.7130 C   0  0  0  0  0  0  0  0  0  0  0  0
    1.8740   13.3750    0.0500 C   0  0  0  0  0  0  0  0  0  0  0  0
    1.1300   14.6620   -0.3550 C   0  0  0  0  0  0  0  0  0  0  0  0
    1.4550   15.0510   -1.8000 C   0  0  2  0  0  0  0  0  0  0  0  0
    2.9900   15.3560   -1.8800 C   0  0  0  0  0  0  0  0  0  0  0  0
    3.2428   18.1781   -1.8214 H   0  0  0  0  0  0  0  0  0  0  0  0
    2.8154   17.1453   -3.2275 H   0  0  0  0  0  0  0  0  0  0  0  0
    2.3794   18.8879   -3.2275 H   0  0  0  0  0  0  0  0  0  0  0  0
    0.4192   18.4075   -2.2805 H   0  0  0  0  0  0  0  0  0  0  0  0
    0.5130   16.9918    0.0072 H   0  0  0  0  0  0  0  0  0  0  0  0
    2.2593   17.5166   -0.1226 H   0  0  0  0  0  0  0  0  0  0  0  0
    1.4783   19.2886    1.0547 H   0  0  0  0  0  0  0  0  0  0  0  0
    1.0734   19.8574   -0.6186 H   0  0  0  0  0  0  0  0  0  0  0  0
   -0.3225   19.5092    1.5531 H   0  0  0  0  0  0  0  0  0  0  0  0
   -0.6459   20.9189   -1.8247 H   0  0  0  0  0  0  0  0  0  0  0  0
   -0.8673   19.2180   -2.3583 H   0  0  0  0  0  0  0  0  0  0  0  0
   -2.2634   20.3483   -2.3583 H   0  0  0  0  0  0  0  0  0  0  0  0
   -2.8932   20.1729    1.2347 H   0  0  0  0  0  0  0  0  0  0  0  0
   -3.0949   21.2275   -0.2054 H   0  0  0  0  0  0  0  0  0  0  0  0
   -3.7794   19.5667   -0.2054 H   0  0  0  0  0  0  0  0  0  0  0  0
   -0.3392   16.2817   -1.9967 H   0  0  0  0  0  0  0  0  0  0  0  0
   -0.1475   16.2657   -4.4048 H   0  0  0  0  0  0  0  0  0  0  0  0
    1.5688   16.7206   -4.3487 H   0  0  0  0  0  0  0  0  0  0  0  0
    0.5611   14.1030   -4.8945 H   0  0  0  0  0  0  0  0  0  0  0  0
    2.2365   14.4481   -4.4727 H   0  0  0  0  0  0  0  0  0  0  0  0
   -0.8973   13.5645   -1.6468 H   0  0  0  0  0  0  0  0  0  0  0  0
   -1.1093   14.4389   -3.2015 H   0  0  0  0  0  0  0  0  0  0  0  0
   -0.7914   12.6710   -3.2015 H   0  0  0  0  0  0  0  0  0  0  0  0
    2.8195   12.9292   -2.6791 H   0  0  0  0  0  0  0  0  0  0  0  0
    1.2290   11.8302   -4.3803 H   0  0  0  0  0  0  0  0  0  0  0  0
    2.4386   10.8275   -3.4209 H   0  0  0  0  0  0  0  0  0  0  0  0
    0.0308    9.7947   -3.7022 H   0  0  0  0  0  0  0  0  0  0  0  0
   -0.2740   12.0824   -0.3888 H   0  0  0  0  0  0  0  0  0  0  0  0
    1.4565    9.6880    0.4905 H   0  0  0  0  0  0  0  0  0  0  0  0
    0.9488   11.1028    1.5153 H   0  0  0  0  0  0  0  0  0  0  0  0
   -0.3983    9.0798    1.9796 H   0  0  0  0  0  0  0  0  0  0  0  0
   -1.3810   10.4461    1.3212 H   0  0  0  0  0  0  0  0  0  0  0  0
   -2.0853    8.4107    0.2652 H   0  0  0  0  0  0  0  0  0  0  0  0
    0.3870    7.6860    0.5620 H   0  0  0  0  0  0  0  0  0  0  0  0
   -2.7706   10.6747   -0.1709 H   0  0  0  0  0  0  0  0  0  0  0  0
   -2.3336   11.4710   -1.7206 H   0  0  0  0  0  0  0  0  0  0  0  0
   -3.4231   10.0429   -1.7206 H   0  0  0  0  0  0  0  0  0  0  0  0
   -2.0212    7.5973   -1.9836 H   0  0  0  0  0  0  0  0  0  0  0  0
   -2.5045    8.9277   -3.0895 H   0  0  0  0  0  0  0  0  0  0  0  0
   -0.8104    8.3305   -3.0895 H   0  0  0  0  0  0  0  0  0  0  0  0
    3.2296   11.1778    0.3663 H   0  0  0  0  0  0  0  0  0  0  0  0
    2.9174   10.3060   -1.1729 H   0  0  0  0  0  0  0  0  0  0  0  0
    3.9165   11.7988   -1.1729 H   0  0  0  0  0  0  0  0  0  0  0  0
    1.4733   13.0508    1.0218 H   0  0  0  0  0  0  0  0  0  0  0  0
    2.9393   13.6491    0.0588 H   0  0  0  0  0  0  0  0  0  0  0  0
    0.0466   14.4958   -0.2620 H   0  0  0  0  0  0  0  0  0  0  0  0
    1.4527   15.4775    0.3089 H   0  0  0  0  0  0  0  0  0  0  0  0
    3.4011   15.4377   -0.8630 H   0  0  0  0  0  0  0  0  0  0  0  0
    3.4982   14.5413   -2.4166 H   0  0  0  0  0  0  0  0  0  0  0  0
    3.1482   16.3031   -2.4166 H   0  0  0  0  0  0  0  0  0  0  0  0
  1  2  1  0
  2  3  1  0
  3  4  1  0
  4  5  1  0
  5  6  1  0
  6  7  1  0
  7  8  1  0
  7  9  1  0
  2 10  1  0
 10 11  1  0
 11 12  1  0
 12 13  1  0
 13 14  1  1
 13 15  1  0
 15 16  1  0
 16 17  1  0
 17 18  2  0
 18 19  1  0
 19 20  1  0
 20 21  1  0
 21 22  1  0
 22 23  1  0
 22 24  1  0
 24 25  1  0
 24 26  1  0
 19 27  1  0
 27 28  1  6
 27 29  1  0
 29 30  1  0
 30 31  1  0
 31 32  1  1
  7  5  1  0
 31 10  1  0
 31 13  1  0
 27 15  1  0
 24 18  1  0
  1 33  1  0
  1 34  1  0
  1 35  1  0
  2 36  1  6
  3 37  1  0
  3 38  1  0
  4 39  1  0
  4 40  1  0
  5 41  1  1
  8 42  1  0
  8 43  1  0
  8 44  1  0
  9 45  1  0
  9 46  1  0
  9 47  1  0
 10 48  1  1
 11 49  1  0
 11 50  1  0
 12 51  1  0
 12 52  1  0
 14 53  1  0
 14 54  1  0
 14 55  1  0
 15 56  1  6
 16 57  1  0
 16 58  1  0
 17 59  1  0
 19 60  1  1
 20 61  1  0
 20 62  1  0
 21 63  1  0
 21 64  1  0
 22 65  1  1
 23 66  1  0
 25 67  1  0
 25 68  1  0
 25 69  1  0
 26 70  1  0
 26 71  1  0
 26 72  1  0
 28 73  1  0
 28 74  1  0
 28 75  1  0
 29 76  1  0
 29 77  1  0
 30 78  1  0
 30 79  1  0
 32 80  1  0
 32 81  1  0
 32 82  1  0
M  END
>  <meeko>  (2) 
{"is_sidechain": [false], "intermolecular_energy": 2.731, "internal_energy": -0.839}

$$$$
EPH_relaxed_0001_pdb2pqr_Repair_105_r2_0001_out
     RDKit          3D

 82 86  0  0  0  0  0  0  0  0999 V2000
    1.9290   18.4170   -2.0270 C   0  0  0  0  0  0  0  0  0  0  0  0
    1.5290   17.4330   -0.9240 C   0  0  2  0  0  0  0  0  0  0  0  0
    2.7230   17.0480   -0.0280 C   0  0  0  0  0  0  0  0  0  0  0  0
    3.6850   18.2070    0.2480 C   0  0  0  0  0  0  0  0  0  0  0  0
    3.4280   18.8340    1.5840 C   0  0  2  0  0  0  0  0  0  0  0  0
    3.8680   20.1930    1.7020 O   0  0  0  0  0  0  0  0  0  0  0  0
    4.5310   19.2370    2.5450 C   0  0  0  0  0  0  0  0  0  0  0  0
    5.9740   19.0270    2.2090 C   0  0  0  0  0  0  0  0  0  0  0  0
    4.1980   19.3800    3.9970 C   0  0  0  0  0  0  0  0  0  0  0  0
    0.9150   16.1820   -1.5410 C   0  0  1  0  0  0  0  0  0  0  0  0
    0.7260   16.3040   -3.0760 C   0  0  0  0  0  0  0  0  0  0  0  0
    0.9750   14.8940   -3.6710 C   0  0  0  0  0  0  0  0  0  0  0  0
    0.9700   13.9480   -2.4480 C   0  0  1  0  0  0  0  0  0  0  0  0
   -0.5400   13.6920   -2.1450 C   0  0  0  0  0  0  0  0  0  0  0  0
    1.7630   12.6100   -2.6060 C   0  0  2  0  0  0  0  0  0  0  0  0
    1.2380   11.6660   -3.7020 C   0  0  0  0  0  0  0  0  0  0  0  0
    0.2110   10.6790   -3.2550 C   0  0  0  0  0  0  0  0  0  0  0  0
   -0.0640   10.3610   -1.9760 C   0  0  0  0  0  0  0  0  0  0  0  0
    0.7600   10.9490   -0.8230 C   0  0  1  0  0  0  0  0  0  0  0  0
    1.1420    9.8190    0.1690 C   0  0  0  0  0  0  0  0  0  0  0  0
   -0.0720    9.0360    0.6590 C   0  0  0  0  0  0  0  0  0  0  0  0
   -0.8320    8.4190   -0.5110 C   0  0  2  0  0  0  0  0  0  0  0  0
   -0.0100    7.4170   -1.1180 O   0  0  0  0  0  0  0  0  0  0  0  0
   -1.2610    9.4610   -1.5810 C   0  0  0  0  0  0  0  0  0  0  0  0
   -2.3810   10.3650   -1.0080 C   0  0  0  0  0  0  0  0  0  0  0  0
   -1.8920    8.6910   -2.7720 C   0  0  0  0  0  0  0  0  0  0  0  0
    2.0080   11.8380   -1.2460 C   0  0  1  0  0  0  0  0  0  0  0  0
    3.2570   10.9300   -1.4690 C   0  0  0  0  0  0  0  0  0  0  0  0
    2.3710   12.8100   -0.0630 C   0  0  0  0  0  0  0  0  0  0  0  0
    1.6410   14.1660   -0.0290 C   0  0  0  0  0  0  0  0  0  0  0  0
    1.7040   14.8570   -1.3950 C   0  0  2  0  0  0  0  0  0  0  0  0
    3.2090   15.1480   -1.7160 C   0  0  0  0  0  0  0  0  0  0  0  0
    2.3061   19.3446   -1.5717 H   0  0  0  0  0  0  0  0  0  0  0  0
    2.7162   17.9684   -2.6508 H   0  0  0  0  0  0  0  0  0  0  0  0
    1.0521   18.6448   -2.6508 H   0  0  0  0  0  0  0  0  0  0  0  0
    0.7867   17.9350   -0.2860 H   0  0  0  0  0  0  0  0  0  0  0  0
    2.3323   16.6845    0.9339 H   0  0  0  0  0  0  0  0  0  0  0  0
    3.2941   16.2779   -0.5672 H   0  0  0  0  0  0  0  0  0  0  0  0
    4.7170   17.8269    0.2252 H   0  0  0  0  0  0  0  0  0  0  0  0
    3.5300   18.9731   -0.5259 H   0  0  0  0  0  0  0  0  0  0  0  0
    2.5165   18.2327    1.7172 H   0  0  0  0  0  0  0  0  0  0  0  0
    6.5580   18.9420    3.1373 H   0  0  0  0  0  0  0  0  0  0  0  0
    6.0830   18.1035    1.6214 H   0  0  0  0  0  0  0  0  0  0  0  0
    6.3417   19.8811    1.6214 H   0  0  0  0  0  0  0  0  0  0  0  0
    5.0410   19.0180    4.6039 H   0  0  0  0  0  0  0  0  0  0  0  0
    4.0085   20.4388    4.2272 H   0  0  0  0  0  0  0  0  0  0  0  0
    3.2997   18.7883    4.2272 H   0  0  0  0  0  0  0  0  0  0  0  0
   -0.0187   16.1299   -0.9618 H   0  0  0  0  0  0  0  0  0  0  0  0
   -0.2967   16.6371   -3.3064 H   0  0  0  0  0  0  0  0  0  0  0  0
    1.4224   17.0411   -3.5023 H   0  0  0  0  0  0  0  0  0  0  0  0
    0.1745   14.6227   -4.3750 H   0  0  0  0  0  0  0  0  0  0  0  0
    1.9172   14.8402   -4.2361 H   0  0  0  0  0  0  0  0  0  0  0  0
   -0.6962   13.6655   -1.0565 H   0  0  0  0  0  0  0  0  0  0  0  0
   -1.1440   14.5006   -2.5825 H   0  0  0  0  0  0  0  0  0  0  0  0
   -0.8437   12.7295   -2.5825 H   0  0  0  0  0  0  0  0  0  0  0  0
    2.7457   12.9575   -2.9574 H   0  0  0  0  0  0  0  0  0  0  0  0
    0.7936   12.2824   -4.4973 H   0  0  0  0  0  0  0  0  0  0  0  0
    2.1038   11.0748   -4.0349 H   0  0  0  0  0  0  0  0  0  0  0  0
   -0.3703   10.1683   -4.0369 H   0  0  0  0  0  0  0  0  0  0  0  0
    0.1066   11.6791   -0.3231 H   0  0  0  0  0  0  0  0  0  0  0  0
    1.8295    9.1243   -0.3356 H   0  0  0  0  0  0  0  0  0  0  0  0
    1.6124   10.2888    1.0454 H   0  0  0  0  0  0  0  0  0  0  0  0
    0.2648    8.2341    1.3324 H   0  0  0  0  0  0  0  0  0  0  0  0
   -0.7444    9.7266    1.1890 H   0  0  0  0  0  0  0  0  0  0  0  0
   -1.7584    7.9830   -0.1089 H   0  0  0  0  0  0  0  0  0  0  0  0
   -0.0890    6.6080   -0.5840 H   0  0  0  0  0  0  0  0  0  0  0  0
   -2.3476   10.3380    0.0912 H   0  0  0  0  0  0  0  0  0  0  0  0
   -2.2312   11.3983   -1.3542 H   0  0  0  0  0  0  0  0  0  0  0  0
   -3.3594   10.0005   -1.3542 H   0  0  0  0  0  0  0  0  0  0  0  0
   -2.5454    7.8937   -2.3882 H   0  0  0  0  0  0  0  0  0  0  0  0
   -2.4836    9.3861   -3.3859 H   0  0  0  0  0  0  0  0  0  0  0  0
   -1.0942    8.2476   -3.3859 H   0  0  0  0  0  0  0  0  0  0  0  0
    3.6704   10.6294   -0.4950 H   0  0  0  0  0  0  0  0  0  0  0  0
    2.9625   10.0337   -2.0346 H   0  0  0  0  0  0  0  0  0  0  0  0
    4.0187   11.4867   -2.0346 H   0  0  0  0  0  0  0  0  0  0  0  0
    2.1458   12.2872    0.8782 H   0  0  0  0  0  0  0  0  0  0  0  0
    3.4325   13.0583   -0.2100 H   0  0  0  0  0  0  0  0  0  0  0  0
    0.5879   14.0011    0.2426 H   0  0  0  0  0  0  0  0  0  0  0  0
    2.1336   14.8111    0.7135 H   0  0  0  0  0  0  0  0  0  0  0  0
    3.7701   15.2565   -0.7761 H   0  0  0  0  0  0  0  0  0  0  0  0
    3.6275   14.3141   -2.2987 H   0  0  0  0  0  0  0  0  0  0  0  0
    3.2865   16.0778   -2.2987 H   0  0  0  0  0  0  0  0  0  0  0  0
  1  2  1  0
  2  3  1  0
  3  4  1  0
  4  5  1  0
  5  6  1  0
  6  7  1  0
  7  8  1  0
  7  9  1  0
  2 10  1  0
 10 11  1  0
 11 12  1  0
 12 13  1  0
 13 14  1  1
 13 15  1  0
 15 16  1  0
 16 17  1  0
 17 18  2  0
 18 19  1  0
 19 20  1  0
 20 21  1  0
 21 22  1  0
 22 23  1  0
 22 24  1  0
 24 25  1  0
 24 26  1  0
 19 27  1  0
 27 28  1  6
 27 29  1  0
 29 30  1  0
 30 31  1  0
 31 32  1  6
  7  5  1  0
 31 10  1  0
 31 13  1  0
 27 15  1  0
 24 18  1  0
  1 33  1  0
  1 34  1  0
  1 35  1  0
  2 36  1  1
  3 37  1  0
  3 38  1  0
  4 39  1  0
  4 40  1  0
  5 41  1  1
  8 42  1  0
  8 43  1  0
  8 44  1  0
  9 45  1  0
  9 46  1  0
  9 47  1  0
 10 48  1  1
 11 49  1  0
 11 50  1  0
 12 51  1  0
 12 52  1  0
 14 53  1  0
 14 54  1  0
 14 55  1  0
 15 56  1  6
 16 57  1  0
 16 58  1  0
 17 59  1  0
 19 60  1  1
 20 61  1  0
 20 62  1  0
 21 63  1  0
 21 64  1  0
 22 65  1  1
 23 66  1  0
 25 67  1  0
 25 68  1  0
 25 69  1  0
 26 70  1  0
 26 71  1  0
 26 72  1  0
 28 73  1  0
 28 74  1  0
 28 75  1  0
 29 76  1  0
 29 77  1  0
 30 78  1  0
 30 79  1  0
 32 80  1  0
 32 81  1  0
 32 82  1  0
M  END
>  <meeko>  (3) 
{"is_sidechain": [false], "intermolecular_energy": 2.731, "internal_energy": -0.839}

$$$$
EPH_relaxed_0001_pdb2pqr_Repair_105_r2_0001_out
     RDKit          3D

 82 86  0  0  0  0  0  0  0  0999 V2000
   -3.4520    9.3320    0.4190 C   0  0  0  0  0  0  0  0  0  0  0  0
   -2.5830    9.6960   -0.7880 C   0  0  2  0  0  0  0  0  0  0  0  0
   -1.8830    8.4620   -1.3920 C   0  0  0  0  0  0  0  0  0  0  0  0
   -2.7330    7.7140   -2.4220 C   0  0  0  0  0  0  0  0  0  0  0  0
   -4.1980    7.8680   -2.1490 C   0  0  2  0  0  0  0  0  0  0  0  0
   -4.7820    6.8000   -1.3920 O   0  0  0  0  0  0  0  0  0  0  0  0
   -5.2600    6.9580   -2.7380 C   0  0  0  0  0  0  0  0  0  0  0  0
   -4.8990    5.8270   -3.6490 C   0  0  0  0  0  0  0  0  0  0  0  0
   -6.6670    7.4610   -2.8220 C   0  0  0  0  0  0  0  0  0  0  0  0
   -1.5470   10.7390   -0.3870 C   0  0  1  0  0  0  0  0  0  0  0  0
   -0.4790   10.1760    0.5890 C   0  0  0  0  0  0  0  0  0  0  0  0
    0.8590   10.8770    0.2400 C   0  0  0  0  0  0  0  0  0  0  0  0
    0.4560   12.0470   -0.6870 C   0  0  1  0  0  0  0  0  0  0  0  0
   -0.0280   13.1750    0.2770 C   0  0  0  0  0  0  0  0  0  0  0  0
    1.5590   12.5620   -1.6690 C   0  0  2  0  0  0  0  0  0  0  0  0
    2.8120   13.1470   -0.9940 C   0  0  0  0  0  0  0  0  0  0  0  0
    2.7640   14.6140   -0.7250 C   0  0  0  0  0  0  0  0  0  0  0  0
    1.8860   15.4800   -1.2630 C   0  0  0  0  0  0  0  0  0  0  0  0
    0.8730   15.0210   -2.3200 C   0  0  1  0  0  0  0  0  0  0  0  0
    0.8580   16.0310   -3.4960 C   0  0  0  0  0  0  0  0  0  0  0  0
    0.6090   17.4640   -3.0340 C   0  0  0  0  0  0  0  0  0  0  0  0
    1.6700   17.9040   -2.0280 C   0  0  2  0  0  0  0  0  0  0  0  0
    2.9330   17.9830   -2.6950 O   0  0  0  0  0  0  0  0  0  0  0  0
    1.7830   16.9550   -0.8020 C   0  0  0  0  0  0  0  0  0  0  0  0
    0.5240   17.1010    0.0870 C   0  0  0  0  0  0  0  0  0  0  0  0
    2.9820   17.4330    0.0610 C   0  0  0  0  0  0  0  0  0  0  0  0
    1.0180   13.5160   -2.8100 C   0  0  1  0  0  0  0  0  0  0  0  0
    2.0430   13.4340   -3.9820 C   0  0  0  0  0  0  0  0  0  0  0  0
   -0.3620   13.0300   -3.3910 C   0  0  0  0  0  0  0  0  0  0  0  0
   -1.3630   12.4210   -2.3900 C   0  0  0  0  0  0  0  0  0  0  0  0
   -0.6880   11.3590   -1.5170 C   0  0  2  0  0  0  0  0  0  0  0  0
   -0.2100   10.2010   -2.4580 C   0  0  0  0  0  0  0  0  0  0  0  0
   -2.9061    9.5607    1.3462 H   0  0  0  0  0  0  0  0  0  0  0  0
   -4.3841    9.9153    0.3890 H   0  0  0  0  0  0  0  0  0  0  0  0
   -3.6901    8.2585    0.3890 H   0  0  0  0  0  0  0  0  0  0  0  0
   -3.2467   10.1103   -1.5612 H   0  0  0  0  0  0  0  0  0  0  0  0
   -0.9560    8.7941   -1.8823 H   0  0  0  0  0  0  0  0  0  0  0  0
   -1.6932    7.7632   -0.5640 H   0  0  0  0  0  0  0  0  0  0  0  0
   -2.5131    8.1133   -3.4231 H   0  0  0  0  0  0  0  0  0  0  0  0
   -2.4835    6.6444   -2.3604 H   0  0  0  0  0  0  0  0  0  0  0  0
   -4.1001    8.9632   -2.1170 H   0  0  0  0  0  0  0  0  0  0  0  0
   -4.6186    4.9484   -3.0494 H   0  0  0  0  0  0  0  0  0  0  0  0
   -5.7622    5.5775   -4.2836 H   0  0  0  0  0  0  0  0  0  0  0  0
   -4.0509    6.1237   -4.2836 H   0  0  0  0  0  0  0  0  0  0  0  0
   -7.0665    7.6038   -1.8071 H   0  0  0  0  0  0  0  0  0  0  0  0
   -6.6820    8.4202   -3.3603 H   0  0  0  0  0  0  0  0  0  0  0  0
   -7.2867    6.7287   -3.3603 H   0  0  0  0  0  0  0  0  0  0  0  0
   -2.2115   11.5030    0.0429 H   0  0  0  0  0  0  0  0  0  0  0  0
   -0.7623   10.3965    1.6288 H   0  0  0  0  0  0  0  0  0  0  0  0
   -0.3904    9.0840    0.4906 H   0  0  0  0  0  0  0  0  0  0  0  0
    1.3490   11.2536    1.1500 H   0  0  0  0  0  0  0  0  0  0  0  0
    1.5757   10.1934   -0.2385 H   0  0  0  0  0  0  0  0  0  0  0  0
    0.1109   12.8513    1.3191 H   0  0  0  0  0  0  0  0  0  0  0  0
    0.5574   14.0885    0.0957 H   0  0  0  0  0  0  0  0  0  0  0  0
   -1.0934   13.3802    0.0957 H   0  0  0  0  0  0  0  0  0  0  0  0
    1.8893   11.6344   -2.1594 H   0  0  0  0  0  0  0  0  0  0  0  0
    2.9538   12.6297   -0.0337 H   0  0  0  0  0  0  0  0  0  0  0  0
    3.6393   12.9941   -1.7027 H   0  0  0  0  0  0  0  0  0  0  0  0
    3.5101   15.0222   -0.0273 H   0  0  0  0  0  0  0  0  0  0  0  0
   -0.1071   15.0160   -1.8206 H   0  0  0  0  0  0  0  0  0  0  0  0
    1.8304   15.9898   -4.0086 H   0  0  0  0  0  0  0  0  0  0  0  0
    0.0338   15.7489   -4.1677 H   0  0  0  0  0  0  0  0  0  0  0  0
    0.6395   18.1340   -3.9059 H   0  0  0  0  0  0  0  0  0  0  0  0
   -0.3768   17.5105   -2.5482 H   0  0  0  0  0  0  0  0  0  0  0  0
    1.3664   18.8860   -1.6363 H   0  0  0  0  0  0  0  0  0  0  0  0
    2.8890   18.7220   -3.3240 H   0  0  0  0  0  0  0  0  0  0  0  0
    0.8174   17.0670    1.1466 H   0  0  0  0  0  0  0  0  0  0  0  0
    0.0335   18.0620   -0.1270 H   0  0  0  0  0  0  0  0  0  0  0  0
   -0.1734   16.2777   -0.1270 H   0  0  0  0  0  0  0  0  0  0  0  0
    2.7297   17.3324    1.1269 H   0  0  0  0  0  0  0  0  0  0  0  0
    3.8655   16.8183   -0.1663 H   0  0  0  0  0  0  0  0  0  0  0  0
    3.2003   18.4869   -0.1663 H   0  0  0  0  0  0  0  0  0  0  0  0
    3.0611   13.3525   -3.5736 H   0  0  0  0  0  0  0  0  0  0  0  0
    1.8239   12.5505   -4.5996 H   0  0  0  0  0  0  0  0  0  0  0  0
    1.9671   14.3411   -4.5996 H   0  0  0  0  0  0  0  0  0  0  0  0
   -0.8484   13.8970   -3.8619 H   0  0  0  0  0  0  0  0  0  0  0  0
   -0.1108   12.2106   -4.0806 H   0  0  0  0  0  0  0  0  0  0  0  0
   -1.7575   13.2197   -1.7446 H   0  0  0  0  0  0  0  0  0  0  0  0
   -2.1778   11.9445   -2.9548 H   0  0  0  0  0  0  0  0  0  0  0  0
    0.1395    9.3543   -1.8490 H   0  0  0  0  0  0  0  0  0  0  0  0
   -1.0472    9.8752   -3.0928 H   0  0  0  0  0  0  0  0  0  0  0  0
    0.6132   10.5606   -3.0928 H   0  0  0  0  0  0  0  0  0  0  0  0
  1  2  1  0
  2  3  1  0
  3  4  1  0
  4  5  1  0
  5  6  1  0
  6  7  1  0
  7  8  1  0
  7  9  1  0
  2 10  1  0
 10 11  1  0
 11 12  1  0
 12 13  1  0
 13 14  1  1
 13 15  1  0
 15 16  1  0
 16 17  1  0
 17 18  2  0
 18 19  1  0
 19 20  1  0
 20 21  1  0
 21 22  1  0
 22 23  1  0
 22 24  1  0
 24 25  1  0
 24 26  1  0
 19 27  1  0
 27 28  1  6
 27 29  1  0
 29 30  1  0
 30 31  1  0
 31 32  1  6
  7  5  1  0
 31 10  1  0
 31 13  1  0
 27 15  1  0
 24 18  1  0
  1 33  1  0
  1 34  1  0
  1 35  1  0
  2 36  1  6
  3 37  1  0
  3 38  1  0
  4 39  1  0
  4 40  1  0
  5 41  1  1
  8 42  1  0
  8 43  1  0
  8 44  1  0
  9 45  1  0
  9 46  1  0
  9 47  1  0
 10 48  1  1
 11 49  1  0
 11 50  1  0
 12 51  1  0
 12 52  1  0
 14 53  1  0
 14 54  1  0
 14 55  1  0
 15 56  1  6
 16 57  1  0
 16 58  1  0
 17 59  1  0
 19 60  1  1
 20 61  1  0
 20 62  1  0
 21 63  1  0
 21 64  1  0
 22 65  1  1
 23 66  1  0
 25 67  1  0
 25 68  1  0
 25 69  1  0
 26 70  1  0
 26 71  1  0
 26 72  1  0
 28 73  1  0
 28 74  1  0
 28 75  1  0
 29 76  1  0
 29 77  1  0
 30 78  1  0
 30 79  1  0
 32 80  1  0
 32 81  1  0
 32 82  1  0
M  END
>  <meeko>  (4) 
{"is_sidechain": [false], "intermolecular_energy": 2.731, "internal_energy": -0.839}

$$$$
EPH_relaxed_0001_pdb2pqr_Repair_105_r2_0001_out
     RDKit          3D

 82 86  0  0  0  0  0  0  0  0999 V2000
    2.0540   19.6380   -0.5310 C   0  0  0  0  0  0  0  0  0  0  0  0
    2.4300   18.4080    0.3010 C   0  0  2  0  0  0  0  0  0  0  0  0
    3.8780   17.9490    0.0380 C   0  0  0  0  0  0  0  0  0  0  0  0
    4.8430   18.2680    1.1830 C   0  0  0  0  0  0  0  0  0  0  0  0
    4.1670   19.0320    2.2810 C   0  0  2  0  0  0  0  0  0  0  0  0
    4.8780   20.1940    2.7270 O   0  0  0  0  0  0  0  0  0  0  0  0
    4.7210   19.1380    3.6890 C   0  0  0  0  0  0  0  0  0  0  0  0
    6.0040   18.4720    4.0760 C   0  0  0  0  0  0  0  0  0  0  0  0
    3.7810   19.4740    4.8050 C   0  0  0  0  0  0  0  0  0  0  0  0
    1.4610   17.2680    0.0110 C   0  0  1  0  0  0  0  0  0  0  0  0
    0.1840   17.7440   -0.7310 C   0  0  0  0  0  0  0  0  0  0  0  0
   -0.2250   16.6020   -1.6960 C   0  0  0  0  0  0  0  0  0  0  0  0
    0.6220   15.3890   -1.2450 C   0  0  1  0  0  0  0  0  0  0  0  0
   -0.1450   14.7980   -0.0210 C   0  0  0  0  0  0  0  0  0  0  0  0
    0.9020   14.3000   -2.3320 C   0  0  2  0  0  0  0  0  0  0  0  0
   -0.3480   13.5900   -2.8820 C   0  0  0  0  0  0  0  0  0  0  0  0
   -0.7540   12.3540   -2.1500 C   0  0  0  0  0  0  0  0  0  0  0  0
    0.0130   11.6760   -1.2760 C   0  0  0  0  0  0  0  0  0  0  0  0
    1.4690   12.0860   -1.0210 C   0  0  1  0  0  0  0  0  0  0  0  0
    2.3740   10.8260   -1.0520 C   0  0  0  0  0  0  0  0  0  0  0  0
    1.8980    9.7400   -0.0930 C   0  0  0  0  0  0  0  0  0  0  0  0
    0.4670    9.3180   -0.4140 C   0  0  2  0  0  0  0  0  0  0  0  0
    0.4530    8.6680   -1.6890 O   0  0  0  0  0  0  0  0  0  0  0  0
   -0.5360   10.5060   -0.4220 C   0  0  0  0  0  0  0  0  0  0  0  0
   -0.7480   11.0170    1.0240 C   0  0  0  0  0  0  0  0  0  0  0  0
   -1.9110    9.9660   -0.8980 C   0  0  0  0  0  0  0  0  0  0  0  0
    2.0280   13.2610   -1.9330 C   0  0  1  0  0  0  0  0  0  0  0  0
    2.5890   12.6800   -3.2670 C   0  0  0  0  0  0  0  0  0  0  0  0
    3.2420   13.9470   -1.2020 C   0  0  0  0  0  0  0  0  0  0  0  0
    2.9100   15.0960   -0.2310 C   0  0  0  0  0  0  0  0  0  0  0  0
    1.9700   16.1130   -0.8870 C   0  0  2  0  0  0  0  0  0  0  0  0
    2.7230   16.7410   -2.1090 C   0  0  0  0  0  0  0  0  0  0  0  0
    1.7993   20.4711    0.1406 H   0  0  0  0  0  0  0  0  0  0  0  0
    2.9052   19.9256   -1.1655 H   0  0  0  0  0  0  0  0  0  0  0  0
    1.1874   19.4005   -1.1655 H   0  0  0  0  0  0  0  0  0  0  0  0
    2.3620   18.6928    1.3613 H   0  0  0  0  0  0  0  0  0  0  0  0
    3.8739   16.8603   -0.1194 H   0  0  0  0  0  0  0  0  0  0  0  0
    4.2341   18.4998   -0.8451 H   0  0  0  0  0  0  0  0  0  0  0  0
    5.2337   17.3250    1.5931 H   0  0  0  0  0  0  0  0  0  0  0  0
    5.6565   18.8907    0.7824 H   0  0  0  0  0  0  0  0  0  0  0  0
    3.1748   18.7516    1.8978 H   0  0  0  0  0  0  0  0  0  0  0  0
    6.0803   18.4324    5.1726 H   0  0  0  0  0  0  0  0  0  0  0  0
    6.0236   17.4499    3.6699 H   0  0  0  0  0  0  0  0  0  0  0  0
    6.8512   19.0442    3.6699 H   0  0  0  0  0  0  0  0  0  0  0  0
    4.2787   19.2961    5.7697 H   0  0  0  0  0  0  0  0  0  0  0  0
    3.4892   20.5321    4.7326 H   0  0  0  0  0  0  0  0  0  0  0  0
    2.8846   18.8406    4.7326 H   0  0  0  0  0  0  0  0  0  0  0  0
    1.2940   16.9031    1.0352 H   0  0  0  0  0  0  0  0  0  0  0  0
   -0.6234   17.9374   -0.0094 H   0  0  0  0  0  0  0  0  0  0  0  0
    0.3722   18.6776   -1.2815 H   0  0  0  0  0  0  0  0  0  0  0  0
   -1.2988   16.3817   -1.6041 H   0  0  0  0  0  0  0  0  0  0  0  0
   -0.0510   16.8638   -2.7501 H   0  0  0  0  0  0  0  0  0  0  0  0
    0.3191   15.1556    0.9100 H   0  0  0  0  0  0  0  0  0  0  0  0
   -1.1955   15.1224   -0.0551 H   0  0  0  0  0  0  0  0  0  0  0  0
   -0.0991   13.6995   -0.0551 H   0  0  0  0  0  0  0  0  0  0  0  0
    1.2984   14.8964   -3.1670 H   0  0  0  0  0  0  0  0  0  0  0  0
   -1.1873   14.2999   -2.8417 H   0  0  0  0  0  0  0  0  0  0  0  0
   -0.0909   13.2686   -3.9021 H   0  0  0  0  0  0  0  0  0  0  0  0
   -1.7649   11.9646   -2.3409 H   0  0  0  0  0  0  0  0  0  0  0  0
    1.4876   12.5349   -0.0169 H   0  0  0  0  0  0  0  0  0  0  0  0
    2.3757   10.4182   -2.0736 H   0  0  0  0  0  0  0  0  0  0  0  0
    3.3824   11.1315   -0.7362 H   0  0  0  0  0  0  0  0  0  0  0  0
    2.5597    8.8658   -0.1820 H   0  0  0  0  0  0  0  0  0  0  0  0
    1.9248   10.1398    0.9314 H   0  0  0  0  0  0  0  0  0  0  0  0
    0.1380    8.6358    0.3837 H   0  0  0  0  0  0  0  0  0  0  0  0
    0.5740    7.7160   -1.5360 H   0  0  0  0  0  0  0  0  0  0  0  0
   -0.4270   10.2433    1.7370 H   0  0  0  0  0  0  0  0  0  0  0  0
   -0.1542   11.9295    1.1812 H   0  0  0  0  0  0  0  0  0  0  0  0
   -1.8134   11.2412    1.1812 H   0  0  0  0  0  0  0  0  0  0  0  0
   -2.5319    9.7222   -0.0233 H   0  0  0  0  0  0  0  0  0  0  0  0
   -2.4161   10.7325   -1.5040 H   0  0  0  0  0  0  0  0  0  0  0  0
   -1.7595    9.0606   -1.5040 H   0  0  0  0  0  0  0  0  0  0  0  0
    3.3371   11.9052   -3.0435 H   0  0  0  0  0  0  0  0  0  0  0  0
    1.7667   12.2386   -3.8492 H   0  0  0  0  0  0  0  0  0  0  0  0
    3.0589   13.4864   -3.8492 H   0  0  0  0  0  0  0  0  0  0  0  0
    3.7681   13.1690   -0.6293 H   0  0  0  0  0  0  0  0  0  0  0  0
    3.8355   14.4106   -2.0037 H   0  0  0  0  0  0  0  0  0  0  0  0
    2.4236   14.6815    0.6643 H   0  0  0  0  0  0  0  0  0  0  0  0
    3.8453   15.6070    0.0412 H   0  0  0  0  0  0  0  0  0  0  0  0
    3.5204   17.4061   -1.7459 H   0  0  0  0  0  0  0  0  0  0  0  0
    3.1639   15.9392   -2.7195 H   0  0  0  0  0  0  0  0  0  0  0  0
    2.0134   17.3187   -2.7195 H   0  0  0  0  0  0  0  0  0  0  0  0
  1  2  1  0
  2  3  1  0
  3  4  1  0
  4  5  1  0
  5  6  1  0
  6  7  1  0
  7  8  1  0
  7  9  1  0
  2 10  1  0
 10 11  1  0
 11 12  1  0
 12 13  1  0
 13 14  1  1
 13 15  1  0
 15 16  1  0
 16 17  1  0
 17 18  2  0
 18 19  1  0
 19 20  1  0
 20 21  1  0
 21 22  1  0
 22 23  1  0
 22 24  1  0
 24 25  1  0
 24 26  1  0
 19 27  1  0
 27 28  1  6
 27 29  1  0
 29 30  1  0
 30 31  1  0
 31 32  1  6
  7  5  1  0
 31 10  1  0
 31 13  1  0
 27 15  1  0
 24 18  1  0
  1 33  1  0
  1 34  1  0
  1 35  1  0
  2 36  1  1
  3 37  1  0
  3 38  1  0
  4 39  1  0
  4 40  1  0
  5 41  1  1
  8 42  1  0
  8 43  1  0
  8 44  1  0
  9 45  1  0
  9 46  1  0
  9 47  1  0
 10 48  1  1
 11 49  1  0
 11 50  1  0
 12 51  1  0
 12 52  1  0
 14 53  1  0
 14 54  1  0
 14 55  1  0
 15 56  1  6
 16 57  1  0
 16 58  1  0
 17 59  1  0
 19 60  1  1
 20 61  1  0
 20 62  1  0
 21 63  1  0
 21 64  1  0
 22 65  1  1
 23 66  1  0
 25 67  1  0
 25 68  1  0
 25 69  1  0
 26 70  1  0
 26 71  1  0
 26 72  1  0
 28 73  1  0
 28 74  1  0
 28 75  1  0
 29 76  1  0
 29 77  1  0
 30 78  1  0
 30 79  1  0
 32 80  1  0
 32 81  1  0
 32 82  1  0
M  END
>  <meeko>  (5) 
{"is_sidechain": [false], "intermolecular_energy": 2.731, "internal_energy": -0.839}

$$$$
EPH_relaxed_0001_pdb2pqr_Repair_105_r2_0001_out
     RDKit          3D

 82 86  0  0  0  0  0  0  0  0999 V2000
   -0.5490   18.9520   -1.4050 C   0  0  0  0  0  0  0  0  0  0  0  0
    0.5510   17.9480   -1.0490 C   0  0  2  0  0  0  0  0  0  0  0  0
    1.9480   18.4400   -1.4800 C   0  0  0  0  0  0  0  0  0  0  0  0
    2.5520   19.4810   -0.5340 C   0  0  0  0  0  0  0  0  0  0  0  0
    3.6790   18.9110    0.2720 C   0  0  2  0  0  0  0  0  0  0  0  0
    3.2740   18.0280    1.3260 O   0  0  0  0  0  0  0  0  0  0  0  0
    3.9180   19.2470    1.7320 C   0  0  0  0  0  0  0  0  0  0  0  0
    3.0220   20.1910    2.4720 C   0  0  0  0  0  0  0  0  0  0  0  0
    5.2890   19.0450    2.2980 C   0  0  0  0  0  0  0  0  0  0  0  0
    0.2520   16.5990   -1.6920 C   0  0  1  0  0  0  0  0  0  0  0  0
    0.3760   16.6340   -3.2390 C   0  0  0  0  0  0  0  0  0  0  0  0
    0.9300   15.2530   -3.6740 C   0  0  0  0  0  0  0  0  0  0  0  0
    0.7930   14.3640   -2.4170 C   0  0  1  0  0  0  0  0  0  0  0  0
   -0.6990   13.9050   -2.4110 C   0  0  0  0  0  0  0  0  0  0  0  0
    1.7710   13.1480   -2.3200 C   0  0  2  0  0  0  0  0  0  0  0  0
    1.6180   12.0970   -3.4340 C   0  0  0  0  0  0  0  0  0  0  0  0
    0.6610   10.9900   -3.1390 C   0  0  0  0  0  0  0  0  0  0  0  0
    0.1670   10.6860   -1.9250 C   0  0  0  0  0  0  0  0  0  0  0  0
    0.6450   11.4290   -0.6710 C   0  0  1  0  0  0  0  0  0  0  0  0
    0.9560   10.4050    0.4510 C   0  0  0  0  0  0  0  0  0  0  0  0
   -0.2190    9.4750    0.7370 C   0  0  0  0  0  0  0  0  0  0  0  0
   -0.6280    8.7100   -0.5190 C   0  0  2  0  0  0  0  0  0  0  0  0
    0.4290    7.8140   -0.8780 O   0  0  0  0  0  0  0  0  0  0  0  0
   -0.9560    9.6390   -1.7220 C   0  0  0  0  0  0  0  0  0  0  0  0
   -2.2810   10.3940   -1.4500 C   0  0  0  0  0  0  0  0  0  0  0  0
   -1.2150    8.7410   -2.9620 C   0  0  0  0  0  0  0  0  0  0  0  0
    1.8250   12.4710   -0.8910 C   0  0  1  0  0  0  0  0  0  0  0  0
    3.2010   11.7450   -0.7940 C   0  0  0  0  0  0  0  0  0  0  0  0
    1.7990   13.5300    0.2740 C   0  0  0  0  0  0  0  0  0  0  0  0
    0.9050   14.7680    0.0680 C   0  0  0  0  0  0  0  0  0  0  0  0
    1.1610   15.4070   -1.3000 C   0  0  2  0  0  0  0  0  0  0  0  0
    2.6490   15.8990   -1.3280 C   0  0  0  0  0  0  0  0  0  0  0  0
   -0.9905   19.3550   -0.4816 H   0  0  0  0  0  0  0  0  0  0  0  0
   -0.1179   19.7745   -1.9946 H   0  0  0  0  0  0  0  0  0  0  0  0
   -1.3288   18.4478   -1.9946 H   0  0  0  0  0  0  0  0  0  0  0  0
    0.5614   17.8431    0.0459 H   0  0  0  0  0  0  0  0  0  0  0  0
    2.6243   17.5734   -1.5204 H   0  0  0  0  0  0  0  0  0  0  0  0
    1.8299   18.9258   -2.4598 H   0  0  0  0  0  0  0  0  0  0  0  0
    2.9307   20.3255   -1.1285 H   0  0  0  0  0  0  0  0  0  0  0  0
    1.7654   19.8091    0.1614 H   0  0  0  0  0  0  0  0  0  0  0  0
    4.3426   18.9217   -0.6052 H   0  0  0  0  0  0  0  0  0  0  0  0
    3.1555   20.0504    3.5548 H   0  0  0  0  0  0  0  0  0  0  0  0
    3.2776   21.2264    2.2025 H   0  0  0  0  0  0  0  0  0  0  0  0
    1.9747   19.9898    2.2025 H   0  0  0  0  0  0  0  0  0  0  0  0
    5.2369   19.0527    3.3967 H   0  0  0  0  0  0  0  0  0  0  0  0
    5.6879   18.0784    1.9566 H   0  0  0  0  0  0  0  0  0  0  0  0
    5.9497   19.8555    1.9566 H   0  0  0  0  0  0  0  0  0  0  0  0
   -0.7672   16.4355   -1.3120 H   0  0  0  0  0  0  0  0  0  0  0  0
   -0.6102   16.8071   -3.6944 H   0  0  0  0  0  0  0  0  0  0  0  0
    1.0419   17.4471   -3.5638 H   0  0  0  0  0  0  0  0  0  0  0  0
    0.3394   14.8424   -4.5062 H   0  0  0  0  0  0  0  0  0  0  0  0
    1.9689   15.3139   -4.0305 H   0  0  0  0  0  0  0  0  0  0  0  0
   -1.0456   13.7984   -1.3725 H   0  0  0  0  0  0  0  0  0  0  0  0
   -1.3155   14.6550   -2.9281 H   0  0  0  0  0  0  0  0  0  0  0  0
   -0.7873   12.9382   -2.9281 H   0  0  0  0  0  0  0  0  0  0  0  0
    2.7505   13.6202   -2.4864 H   0  0  0  0  0  0  0  0  0  0  0  0
    1.2722   12.6123   -4.3423 H   0  0  0  0  0  0  0  0  0  0  0  0
    2.6052   11.6245   -3.5444 H   0  0  0  0  0  0  0  0  0  0  0  0
    0.3317   10.3702   -3.9860 H   0  0  0  0  0  0  0  0  0  0  0  0
   -0.1899   12.0760   -0.3638 H   0  0  0  0  0  0  0  0  0  0  0  0
    1.8200    9.7973    0.1441 H   0  0  0  0  0  0  0  0  0  0  0  0
    1.1651   10.9710    1.3707 H   0  0  0  0  0  0  0  0  0  0  0  0
    0.0724    8.7564    1.5172 H   0  0  0  0  0  0  0  0  0  0  0  0
   -1.0732   10.0816    1.0722 H   0  0  0  0  0  0  0  0  0  0  0  0
   -1.5520    8.1610   -0.2848 H   0  0  0  0  0  0  0  0  0  0  0  0
    0.0240    7.0300   -1.2850 H   0  0  0  0  0  0  0  0  0  0  0  0
   -2.4364   10.4826   -0.3646 H   0  0  0  0  0  0  0  0  0  0  0  0
   -2.2291   11.3981   -1.8961 H   0  0  0  0  0  0  0  0  0  0  0  0
   -3.1184    9.8374   -1.8961 H   0  0  0  0  0  0  0  0  0  0  0  0
   -1.5057    7.7332   -2.6306 H   0  0  0  0  0  0  0  0  0  0  0  0
   -2.0244    9.1757   -3.5669 H   0  0  0  0  0  0  0  0  0  0  0  0
   -0.2984    8.6779   -3.5669 H   0  0  0  0  0  0  0  0  0  0  0  0
    3.4676   11.6043    0.2639 H   0  0  0  0  0  0  0  0  0  0  0  0
    3.1341   10.7648   -1.2887 H   0  0  0  0  0  0  0  0  0  0  0  0
    3.9723   12.3535   -1.2887 H   0  0  0  0  0  0  0  0  0  0  0  0
    1.4520   13.0165    1.1828 H   0  0  0  0  0  0  0  0  0  0  0  0
    2.8252   13.9222    0.3293 H   0  0  0  0  0  0  0  0  0  0  0  0
   -0.1504   14.4644    0.1316 H   0  0  0  0  0  0  0  0  0  0  0  0
    1.1411   15.5053    0.8494 H   0  0  0  0  0  0  0  0  0  0  0  0
    3.0147   16.0199   -0.2976 H   0  0  0  0  0  0  0  0  0  0  0  0
    3.2702   15.1584   -1.8530 H   0  0  0  0  0  0  0  0  0  0  0  0
    2.7063   16.8639   -1.8530 H   0  0  0  0  0  0  0  0  0  0  0  0
  1  2  1  0
  2  3  1  0
  3  4  1  0
  4  5  1  0
  5  6  1  0
  6  7  1  0
  7  8  1  0
  7  9  1  0
  2 10  1  0
 10 11  1  0
 11 12  1  0
 12 13  1  0
 13 14  1  1
 13 15  1  0
 15 16  1  0
 16 17  1  0
 17 18  2  0
 18 19  1  0
 19 20  1  0
 20 21  1  0
 21 22  1  0
 22 23  1  0
 22 24  1  0
 24 25  1  0
 24 26  1  0
 19 27  1  0
 27 28  1  6
 27 29  1  0
 29 30  1  0
 30 31  1  0
 31 32  1  1
  7  5  1  0
 31 10  1  0
 31 13  1  0
 27 15  1  0
 24 18  1  0
  1 33  1  0
  1 34  1  0
  1 35  1  0
  2 36  1  1
  3 37  1  0
  3 38  1  0
  4 39  1  0
  4 40  1  0
  5 41  1  6
  8 42  1  0
  8 43  1  0
  8 44  1  0
  9 45  1  0
  9 46  1  0
  9 47  1  0
 10 48  1  6
 11 49  1  0
 11 50  1  0
 12 51  1  0
 12 52  1  0
 14 53  1  0
 14 54  1  0
 14 55  1  0
 15 56  1  6
 16 57  1  0
 16 58  1  0
 17 59  1  0
 19 60  1  1
 20 61  1  0
 20 62  1  0
 21 63  1  0
 21 64  1  0
 22 65  1  1
 23 66  1  0
 25 67  1  0
 25 68  1  0
 25 69  1  0
 26 70  1  0
 26 71  1  0
 26 72  1  0
 28 73  1  0
 28 74  1  0
 28 75  1  0
 29 76  1  0
 29 77  1  0
 30 78  1  0
 30 79  1  0
 32 80  1  0
 32 81  1  0
 32 82  1  0
M  END
>  <meeko>  (6) 
{"is_sidechain": [false], "intermolecular_energy": 2.731, "internal_energy": -0.839}

$$$$
EPH_relaxed_0001_pdb2pqr_Repair_105_r2_0001_out
     RDKit          3D

 82 86  0  0  0  0  0  0  0  0999 V2000
   -4.5870    6.3900   -2.8370 C   0  0  0  0  0  0  0  0  0  0  0  0
   -5.1560    7.7150   -2.3240 C   0  0  2  0  0  0  0  0  0  0  0  0
   -4.9650    7.8800   -0.8030 C   0  0  0  0  0  0  0  0  0  0  0  0
   -3.9350    8.9490   -0.4250 C   0  0  0  0  0  0  0  0  0  0  0  0
   -2.5680    8.6070   -0.9360 C   0  0  2  0  0  0  0  0  0  0  0  0
   -1.4950    8.9490   -0.0500 O   0  0  0  0  0  0  0  0  0  0  0  0
   -1.5280    9.6490   -1.3040 C   0  0  0  0  0  0  0  0  0  0  0  0
   -1.8110   11.1130   -1.1760 C   0  0  0  0  0  0  0  0  0  0  0  0
   -0.4270    9.2610   -2.2410 C   0  0  0  0  0  0  0  0  0  0  0  0
   -6.6360    7.8160   -2.6770 C   0  0  1  0  0  0  0  0  0  0  0  0
   -6.9850    7.0890   -4.0020 C   0  0  0  0  0  0  0  0  0  0  0  0
   -8.4050    6.4920   -3.8250 C   0  0  0  0  0  0  0  0  0  0  0  0
   -8.9550    7.1690   -2.5470 C   0  0  1  0  0  0  0  0  0  0  0  0
   -9.4650    8.5660   -3.0210 C   0  0  0  0  0  0  0  0  0  0  0  0
  -10.0630    6.3830   -1.7720 C   0  0  2  0  0  0  0  0  0  0  0  0
  -11.3650    6.1460   -2.5560 C   0  0  0  0  0  0  0  0  0  0  0  0
  -12.4040    7.2070   -2.4020 C   0  0  0  0  0  0  0  0  0  0  0  0
  -12.4160    8.1580   -1.4490 C   0  0  0  0  0  0  0  0  0  0  0  0
  -11.3600    8.1710   -0.3360 C   0  0  1  0  0  0  0  0  0  0  0  0
  -12.0550    8.3910    1.0340 C   0  0  0  0  0  0  0  0  0  0  0  0
  -12.9350    9.6370    1.0500 C   0  0  0  0  0  0  0  0  0  0  0  0
  -14.0080    9.5610   -0.0330 C   0  0  2  0  0  0  0  0  0  0  0  0
  -14.9170    8.5040    0.2920 O   0  0  0  0  0  0  0  0  0  0  0  0
  -13.4270    9.3300   -1.4560 C   0  0  0  0  0  0  0  0  0  0  0  0
  -12.6890   10.6070   -1.9300 C   0  0  0  0  0  0  0  0  0  0  0  0
  -14.6190    9.1320   -2.4320 C   0  0  0  0  0  0  0  0  0  0  0  0
  -10.3550    6.9400   -0.3200 C   0  0  1  0  0  0  0  0  0  0  0  0
  -10.9710    5.7600    0.4930 C   0  0  0  0  0  0  0  0  0  0  0  0
   -9.0400    7.3600    0.4360 C   0  0  0  0  0  0  0  0  0  0  0  0
   -7.9350    8.0230   -0.4080 C   0  0  0  0  0  0  0  0  0  0  0  0
   -7.6490    7.2090   -1.6740 C   0  0  2  0  0  0  0  0  0  0  0  0
   -7.1140    5.8060   -1.2290 C   0  0  0  0  0  0  0  0  0  0  0  0
   -4.3135    5.7532   -1.9828 H   0  0  0  0  0  0  0  0  0  0  0  0
   -5.3445    5.8779   -3.4484 H   0  0  0  0  0  0  0  0  0  0  0  0
   -3.6940    6.5867   -3.4484 H   0  0  0  0  0  0  0  0  0  0  0  0
   -4.5995    8.5264   -2.8159 H   0  0  0  0  0  0  0  0  0  0  0  0
   -5.9326    8.1575   -0.3594 H   0  0  0  0  0  0  0  0  0  0  0  0
   -4.5881    6.9202   -0.4200 H   0  0  0  0  0  0  0  0  0  0  0  0
   -4.2461    9.9120   -0.8561 H   0  0  0  0  0  0  0  0  0  0  0  0
   -3.8866    9.0056    0.6725 H   0  0  0  0  0  0  0  0  0  0  0  0
   -2.9628    7.7349   -1.4779 H   0  0  0  0  0  0  0  0  0  0  0  0
   -1.8635   11.3846   -0.1113 H   0  0  0  0  0  0  0  0  0  0  0  0
   -1.0069   11.6857   -1.6613 H   0  0  0  0  0  0  0  0  0  0  0  0
   -2.7706   11.3448   -1.6613 H   0  0  0  0  0  0  0  0  0  0  0  0
    0.4550    8.9502   -1.6617 H   0  0  0  0  0  0  0  0  0  0  0  0
   -0.7620    8.4268   -2.8749 H   0  0  0  0  0  0  0  0  0  0  0  0
   -0.1649   10.1209   -2.8749 H   0  0  0  0  0  0  0  0  0  0  0  0
   -6.7444    8.9103   -2.7061 H   0  0  0  0  0  0  0  0  0  0  0  0
   -6.9758    7.8025   -4.8392 H   0  0  0  0  0  0  0  0  0  0  0  0
   -6.2506    6.3010   -4.2251 H   0  0  0  0  0  0  0  0  0  0  0  0
   -9.0373    6.7293   -4.6933 H   0  0  0  0  0  0  0  0  0  0  0  0
   -8.3897    5.3952   -3.7431 H   0  0  0  0  0  0  0  0  0  0  0  0
   -9.6928    9.1900   -2.1442 H   0  0  0  0  0  0  0  0  0  0  0  0
   -8.6871    9.0543   -3.6264 H   0  0  0  0  0  0  0  0  0  0  0  0
  -10.3745    8.4382   -3.6264 H   0  0  0  0  0  0  0  0  0  0  0  0
   -9.6059    5.3902   -1.6479 H   0  0  0  0  0  0  0  0  0  0  0  0
  -11.1103    6.0720   -3.6235 H   0  0  0  0  0  0  0  0  0  0  0  0
  -11.8056    5.2263   -2.1436 H   0  0  0  0  0  0  0  0  0  0  0  0
  -13.2297    7.2122   -3.1287 H   0  0  0  0  0  0  0  0  0  0  0  0
  -10.6944    9.0184   -0.5573 H   0  0  0  0  0  0  0  0  0  0  0  0
  -12.6810    7.5143    1.2567 H   0  0  0  0  0  0  0  0  0  0  0  0
  -11.2676    8.5286    1.7896 H   0  0  0  0  0  0  0  0  0  0  0  0
  -13.4211    9.7218    2.0331 H   0  0  0  0  0  0  0  0  0  0  0  0
  -12.3026   10.5160    0.8566 H   0  0  0  0  0  0  0  0  0  0  0  0
  -14.5212   10.5336   -0.0574 H   0  0  0  0  0  0  0  0  0  0  0  0
  -15.8130    8.8060    0.0640 H   0  0  0  0  0  0  0  0  0  0  0  0
  -12.3556   11.1840   -1.0548 H   0  0  0  0  0  0  0  0  0  0  0  0
  -11.8161   10.3225   -2.5359 H   0  0  0  0  0  0  0  0  0  0  0  0
  -13.3713   11.2213   -2.5359 H   0  0  0  0  0  0  0  0  0  0  0  0
  -15.5432    8.9785   -1.8556 H   0  0  0  0  0  0  0  0  0  0  0  0
  -14.7261   10.0247   -3.0658 H   0  0  0  0  0  0  0  0  0  0  0  0
  -14.4318    8.2526   -3.0658 H   0  0  0  0  0  0  0  0  0  0  0  0
  -10.8656    5.9618    1.5692 H   0  0  0  0  0  0  0  0  0  0  0  0
  -12.0371    5.6586    0.2416 H   0  0  0  0  0  0  0  0  0  0  0  0
  -10.4447    4.8274    0.2416 H   0  0  0  0  0  0  0  0  0  0  0  0
   -9.3235    8.0683    1.2284 H   0  0  0  0  0  0  0  0  0  0  0  0
   -8.6012    6.4175    0.7953 H   0  0  0  0  0  0  0  0  0  0  0  0
   -8.2597    9.0338   -0.6958 H   0  0  0  0  0  0  0  0  0  0  0  0
   -7.0153    8.0707    0.1935 H   0  0  0  0  0  0  0  0  0  0  0  0
   -7.0937    5.7529   -0.1305 H   0  0  0  0  0  0  0  0  0  0  0  0
   -7.7754    5.0198   -1.6220 H   0  0  0  0  0  0  0  0  0  0  0  0
   -6.0970    5.6599   -1.6220 H   0  0  0  0  0  0  0  0  0  0  0  0
  1  2  1  0
  2  3  1  0
  3  4  1  0
  4  5  1  0
  5  6  1  0
  6  7  1  0
  7  8  1  0
  7  9  1  0
  2 10  1  0
 10 11  1  0
 11 12  1  0
 12 13  1  0
 13 14  1  6
 13 15  1  0
 15 16  1  0
 16 17  1  0
 17 18  2  0
 18 19  1  0
 19 20  1  0
 20 21  1  0
 21 22  1  0
 22 23  1  0
 22 24  1  0
 24 25  1  0
 24 26  1  0
 19 27  1  0
 27 28  1  1
 27 29  1  0
 29 30  1  0
 30 31  1  0
 31 32  1  1
  7  5  1  0
 31 10  1  0
 31 13  1  0
 27 15  1  0
 24 18  1  0
  1 33  1  0
  1 34  1  0
  1 35  1  0
  2 36  1  6
  3 37  1  0
  3 38  1  0
  4 39  1  0
  4 40  1  0
  5 41  1  6
  8 42  1  0
  8 43  1  0
  8 44  1  0
  9 45  1  0
  9 46  1  0
  9 47  1  0
 10 48  1  6
 11 49  1  0
 11 50  1  0
 12 51  1  0
 12 52  1  0
 14 53  1  0
 14 54  1  0
 14 55  1  0
 15 56  1  1
 16 57  1  0
 16 58  1  0
 17 59  1  0
 19 60  1  6
 20 61  1  0
 20 62  1  0
 21 63  1  0
 21 64  1  0
 22 65  1  6
 23 66  1  0
 25 67  1  0
 25 68  1  0
 25 69  1  0
 26 70  1  0
 26 71  1  0
 26 72  1  0
 28 73  1  0
 28 74  1  0
 28 75  1  0
 29 76  1  0
 29 77  1  0
 30 78  1  0
 30 79  1  0
 32 80  1  0
 32 81  1  0
 32 82  1  0
M  END
>  <meeko>  (7) 
{"is_sidechain": [false], "intermolecular_energy": 2.731, "internal_energy": -0.839}

$$$$
EPH_relaxed_0001_pdb2pqr_Repair_105_r2_0001_out
     RDKit          3D

 82 86  0  0  0  0  0  0  0  0999 V2000
    3.8710   17.3440    0.3720 C   0  0  0  0  0  0  0  0  0  0  0  0
    2.8520   17.6800   -0.7200 C   0  0  2  0  0  0  0  0  0  0  0  0
    2.2390   19.0810   -0.5310 C   0  0  0  0  0  0  0  0  0  0  0  0
    1.3350   19.1970    0.7000 C   0  0  0  0  0  0  0  0  0  0  0  0
    0.0820   19.9610    0.3980 C   0  0  2  0  0  0  0  0  0  0  0  0
   -0.7700   20.1850    1.5290 O   0  0  0  0  0  0  0  0  0  0  0  0
   -1.3070   19.3570    0.4840 C   0  0  0  0  0  0  0  0  0  0  0  0
   -1.5140   17.9300    0.8840 C   0  0  0  0  0  0  0  0  0  0  0  0
   -2.4170   20.0030   -0.2860 C   0  0  0  0  0  0  0  0  0  0  0  0
    1.7500   16.6270   -0.7440 C   0  0  1  0  0  0  0  0  0  0  0  0
    0.4310   17.1580   -1.3670 C   0  0  0  0  0  0  0  0  0  0  0  0
   -0.2140   15.9710   -2.1280 C   0  0  0  0  0  0  0  0  0  0  0  0
    0.5710   14.7270   -1.6470 C   0  0  1  0  0  0  0  0  0  0  0  0
   -0.0680   14.3570   -0.2720 C   0  0  0  0  0  0  0  0  0  0  0  0
    0.5930   13.5050   -2.6210 C   0  0  2  0  0  0  0  0  0  0  0  0
   -0.7830   12.8810   -2.9170 C   0  0  0  0  0  0  0  0  0  0  0  0
   -1.1950   11.7820   -1.9950 C   0  0  0  0  0  0  0  0  0  0  0  0
   -0.3810   11.1200   -1.1520 C   0  0  0  0  0  0  0  0  0  0  0  0
    1.1290   11.3940   -1.1380 C   0  0  1  0  0  0  0  0  0  0  0  0
    1.8990   10.0480   -1.1340 C   0  0  0  0  0  0  0  0  0  0  0  0
    1.4630    9.1280    0.0020 C   0  0  0  0  0  0  0  0  0  0  0  0
   -0.0320    8.8320   -0.0790 C   0  0  2  0  0  0  0  0  0  0  0  0
   -0.2850    8.0560   -1.2540 O   0  0  0  0  0  0  0  0  0  0  0  0
   -0.9100   10.1150   -0.1000 C   0  0  0  0  0  0  0  0  0  0  0  0
   -0.8690   10.7970    1.2890 C   0  0  0  0  0  0  0  0  0  0  0  0
   -2.3840    9.6810   -0.3270 C   0  0  0  0  0  0  0  0  0  0  0  0
    1.6610   12.3980   -2.2490 C   0  0  1  0  0  0  0  0  0  0  0  0
    1.9730   11.6210   -3.5640 C   0  0  0  0  0  0  0  0  0  0  0  0
    3.0250   13.0210   -1.7680 C   0  0  0  0  0  0  0  0  0  0  0  0
    2.9410   14.2970   -0.9080 C   0  0  0  0  0  0  0  0  0  0  0  0
    2.0180   15.3340   -1.5550 C   0  0  2  0  0  0  0  0  0  0  0  0
    2.6470   15.7430   -2.9300 C   0  0  0  0  0  0  0  0  0  0  0  0
    3.4125   17.4952    1.3604 H   0  0  0  0  0  0  0  0  0  0  0  0
    4.1851   16.2947    0.2701 H   0  0  0  0  0  0  0  0  0  0  0  0
    4.7476   18.0007    0.2701 H   0  0  0  0  0  0  0  0  0  0  0  0
    3.3857   17.6812   -1.6818 H   0  0  0  0  0  0  0  0  0  0  0  0
    3.0585   19.8078   -0.4297 H   0  0  0  0  0  0  0  0  0  0  0  0
    1.6097   19.2778   -1.4115 H   0  0  0  0  0  0  0  0  0  0  0  0
    1.0633   18.1865    1.0391 H   0  0  0  0  0  0  0  0  0  0  0  0
    1.8876   19.7399    1.4810 H   0  0  0  0  0  0  0  0  0  0  0  0
    0.5914   20.5296   -0.3940 H   0  0  0  0  0  0  0  0  0  0  0  0
   -1.5249   17.8547    1.9814 H   0  0  0  0  0  0  0  0  0  0  0  0
   -2.4735   17.5721    0.4823 H   0  0  0  0  0  0  0  0  0  0  0  0
   -0.6958   17.3142    0.4823 H   0  0  0  0  0  0  0  0  0  0  0  0
   -3.1497   20.4294    0.4149 H   0  0  0  0  0  0  0  0  0  0  0  0
   -2.0066   20.8033   -0.9193 H   0  0  0  0  0  0  0  0  0  0  0  0
   -2.9101   19.2508   -0.9193 H   0  0  0  0  0  0  0  0  0  0  0  0
    1.6955   16.3927    0.3294 H   0  0  0  0  0  0  0  0  0  0  0  0
   -0.2456   17.5131   -0.5757 H   0  0  0  0  0  0  0  0  0  0  0  0
    0.6261   18.0023   -2.0446 H   0  0  0  0  0  0  0  0  0  0  0  0
   -1.2803   15.8798   -1.8735 H   0  0  0  0  0  0  0  0  0  0  0  0
   -0.1653   16.0990   -3.2194 H   0  0  0  0  0  0  0  0  0  0  0  0
    0.5726   14.7279    0.5417 H   0  0  0  0  0  0  0  0  0  0  0  0
   -1.0635   14.8184   -0.1943 H   0  0  0  0  0  0  0  0  0  0  0  0
   -0.1634   13.2639   -0.1943 H   0  0  0  0  0  0  0  0  0  0  0  0
    0.9232   13.9627   -3.5652 H   0  0  0  0  0  0  0  0  0  0  0  0
   -1.5384   13.6782   -2.8549 H   0  0  0  0  0  0  0  0  0  0  0  0
   -0.7034   12.4272   -3.9158 H   0  0  0  0  0  0  0  0  0  0  0  0
   -2.2549   11.4878   -2.0053 H   0  0  0  0  0  0  0  0  0  0  0  0
    1.3306   11.9419   -0.2057 H   0  0  0  0  0  0  0  0  0  0  0  0
    1.7194    9.5362   -2.0909 H   0  0  0  0  0  0  0  0  0  0  0  0
    2.9658   10.2741   -0.9898 H   0  0  0  0  0  0  0  0  0  0  0  0
    2.0213    8.1827   -0.0659 H   0  0  0  0  0  0  0  0  0  0  0  0
    1.6703    9.6293    0.9589 H   0  0  0  0  0  0  0  0  0  0  0  0
   -0.3088    8.2777    0.8299 H   0  0  0  0  0  0  0  0  0  0  0  0
   -1.0020    8.4910   -1.7460 H   0  0  0  0  0  0  0  0  0  0  0  0
   -0.9151   10.0296    2.0758 H   0  0  0  0  0  0  0  0  0  0  0  0
    0.0652   11.3691    1.3891 H   0  0  0  0  0  0  0  0  0  0  0  0
   -1.7279   11.4769    1.3891 H   0  0  0  0  0  0  0  0  0  0  0  0
   -2.8774    9.5357    0.6454 H   0  0  0  0  0  0  0  0  0  0  0  0
   -2.9129   10.4615   -0.8936 H   0  0  0  0  0  0  0  0  0  0  0  0
   -2.4056    8.7384   -0.8936 H   0  0  0  0  0  0  0  0  0  0  0  0
    2.3724   10.6264   -3.3163 H   0  0  0  0  0  0  0  0  0  0  0  0
    1.0499   11.5095   -4.1518 H   0  0  0  0  0  0  0  0  0  0  0  0
    2.7169   12.1788   -4.1518 H   0  0  0  0  0  0  0  0  0  0  0  0
    3.5506   12.2559   -1.1778 H   0  0  0  0  0  0  0  0  0  0  0  0
    3.5419   13.3282   -2.6891 H   0  0  0  0  0  0  0  0  0  0  0  0
    2.5483   14.0360    0.0858 H   0  0  0  0  0  0  0  0  0  0  0  0
    3.9488   14.7293   -0.8222 H   0  0  0  0  0  0  0  0  0  0  0  0
    3.5575   16.3350   -2.7551 H   0  0  0  0  0  0  0  0  0  0  0  0
    2.9022   14.8376   -3.5002 H   0  0  0  0  0  0  0  0  0  0  0  0
    1.9230   16.3436   -3.5002 H   0  0  0  0  0  0  0  0  0  0  0  0
  1  2  1  0
  2  3  1  0
  3  4  1  0
  4  5  1  0
  5  6  1  0
  6  7  1  0
  7  8  1  0
  7  9  1  0
  2 10  1  0
 10 11  1  0
 11 12  1  0
 12 13  1  0
 13 14  1  1
 13 15  1  0
 15 16  1  0
 16 17  1  0
 17 18  2  0
 18 19  1  0
 19 20  1  0
 20 21  1  0
 21 22  1  0
 22 23  1  0
 22 24  1  0
 24 25  1  0
 24 26  1  0
 19 27  1  0
 27 28  1  6
 27 29  1  0
 29 30  1  0
 30 31  1  0
 31 32  1  6
  7  5  1  0
 31 10  1  0
 31 13  1  0
 27 15  1  0
 24 18  1  0
  1 33  1  0
  1 34  1  0
  1 35  1  0
  2 36  1  6
  3 37  1  0
  3 38  1  0
  4 39  1  0
  4 40  1  0
  5 41  1  6
  8 42  1  0
  8 43  1  0
  8 44  1  0
  9 45  1  0
  9 46  1  0
  9 47  1  0
 10 48  1  1
 11 49  1  0
 11 50  1  0
 12 51  1  0
 12 52  1  0
 14 53  1  0
 14 54  1  0
 14 55  1  0
 15 56  1  6
 16 57  1  0
 16 58  1  0
 17 59  1  0
 19 60  1  1
 20 61  1  0
 20 62  1  0
 21 63  1  0
 21 64  1  0
 22 65  1  1
 23 66  1  0
 25 67  1  0
 25 68  1  0
 25 69  1  0
 26 70  1  0
 26 71  1  0
 26 72  1  0
 28 73  1  0
 28 74  1  0
 28 75  1  0
 29 76  1  0
 29 77  1  0
 30 78  1  0
 30 79  1  0
 32 80  1  0
 32 81  1  0
 32 82  1  0
M  END
>  <meeko>  (8) 
{"is_sidechain": [false], "intermolecular_energy": 2.731, "internal_energy": -0.839}

$$$$
EPH_relaxed_0001_pdb2pqr_Repair_105_r2_0001_out
     RDKit          3D

 82 86  0  0  0  0  0  0  0  0999 V2000
    0.3540    8.9020   -2.6280 C   0  0  0  0  0  0  0  0  0  0  0  0
    1.1410   10.0620   -3.2450 C   0  0  2  0  0  0  0  0  0  0  0  0
    2.6280   10.0340   -2.8410 C   0  0  0  0  0  0  0  0  0  0  0  0
    3.5650   10.6170   -3.9030 C   0  0  0  0  0  0  0  0  0  0  0  0
    4.9520   10.8140   -3.3710 C   0  0  2  0  0  0  0  0  0  0  0  0
    5.5800   12.0380   -3.7760 O   0  0  0  0  0  0  0  0  0  0  0  0
    6.1910   10.8250   -4.2470 C   0  0  0  0  0  0  0  0  0  0  0  0
    6.1000   10.6340   -5.7280 C   0  0  0  0  0  0  0  0  0  0  0  0
    7.5160   10.5330   -3.6160 C   0  0  0  0  0  0  0  0  0  0  0  0
    0.5150   11.3900   -2.8360 C   0  0  1  0  0  0  0  0  0  0  0  0
   -0.8720   11.2150   -2.1610 C   0  0  0  0  0  0  0  0  0  0  0  0
   -0.9840   12.3170   -1.0760 C   0  0  0  0  0  0  0  0  0  0  0  0
    0.1820   13.2860   -1.3830 C   0  0  1  0  0  0  0  0  0  0  0  0
   -0.3440   14.1930   -2.5390 C   0  0  0  0  0  0  0  0  0  0  0  0
    0.7110   14.1320   -0.1790 C   0  0  2  0  0  0  0  0  0  0  0  0
   -0.3140   15.1000    0.4380 C   0  0  0  0  0  0  0  0  0  0  0  0
   -0.3330   16.4710   -0.1540 C   0  0  0  0  0  0  0  0  0  0  0  0
    0.6240   16.9960   -0.9410 C   0  0  0  0  0  0  0  0  0  0  0  0
    1.9180   16.2250   -1.2290 C   0  0  1  0  0  0  0  0  0  0  0  0
    3.1350   17.1710   -1.0510 C   0  0  0  0  0  0  0  0  0  0  0  0
    3.0150   18.4420   -1.8860 C   0  0  0  0  0  0  0  0  0  0  0  0
    1.7460   19.2110   -1.5300 C   0  0  2  0  0  0  0  0  0  0  0  0
    1.8640   19.7000   -0.1900 O   0  0  0  0  0  0  0  0  0  0  0  0
    0.4540   18.3560   -1.6620 C   0  0  0  0  0  0  0  0  0  0  0  0
    0.1640   18.0800   -3.1580 C   0  0  0  0  0  0  0  0  0  0  0  0
   -0.7360   19.2050   -1.1390 C   0  0  0  0  0  0  0  0  0  0  0  0
    2.0940   14.8510   -0.4510 C   0  0  1  0  0  0  0  0  0  0  0  0
    2.7430   15.1080    0.9440 C   0  0  0  0  0  0  0  0  0  0  0  0
    3.0980   13.9350   -1.2450 C   0  0  0  0  0  0  0  0  0  0  0  0
    2.4980   13.0330   -2.3410 C   0  0  0  0  0  0  0  0  0  0  0  0
    1.2900   12.2560   -1.8110 C   0  0  2  0  0  0  0  0  0  0  0  0
    1.7920   11.3170   -0.6610 C   0  0  0  0  0  0  0  0  0  0  0  0
    0.4002    8.9700   -1.5311 H   0  0  0  0  0  0  0  0  0  0  0  0
   -0.6949    8.9557   -2.9549 H   0  0  0  0  0  0  0  0  0  0  0  0
    0.7915    7.9472   -2.9549 H   0  0  0  0  0  0  0  0  0  0  0  0
    1.0938    9.9498   -4.3382 H   0  0  0  0  0  0  0  0  0  0  0  0
    2.7475   10.6159   -1.9152 H   0  0  0  0  0  0  0  0  0  0  0  0
    2.9063    8.9777   -2.7113 H   0  0  0  0  0  0  0  0  0  0  0  0
    3.6062    9.9275   -4.7591 H   0  0  0  0  0  0  0  0  0  0  0  0
    3.1714   11.5986   -4.2057 H   0  0  0  0  0  0  0  0  0  0  0  0
    4.7033   10.2624   -2.4523 H   0  0  0  0  0  0  0  0  0  0  0  0
    5.6361    9.6603   -5.9443 H   0  0  0  0  0  0  0  0  0  0  0  0
    5.4877   11.4369   -6.1643 H   0  0  0  0  0  0  0  0  0  0  0  0
    7.1093   10.6643   -6.1643 H   0  0  0  0  0  0  0  0  0  0  0  0
    7.4136   10.5556   -2.5210 H   0  0  0  0  0  0  0  0  0  0  0  0
    7.8609    9.5373   -3.9316 H   0  0  0  0  0  0  0  0  0  0  0  0
    8.2475   11.2915   -3.9316 H   0  0  0  0  0  0  0  0  0  0  0  0
    0.4944   11.8925   -3.8143 H   0  0  0  0  0  0  0  0  0  0  0  0
   -1.6731   11.3336   -2.9054 H   0  0  0  0  0  0  0  0  0  0  0  0
   -0.9719   10.2131   -1.7180 H   0  0  0  0  0  0  0  0  0  0  0  0
   -1.9506   12.8370   -1.1488 H   0  0  0  0  0  0  0  0  0  0  0  0
   -0.9283   11.9066   -0.0570 H   0  0  0  0  0  0  0  0  0  0  0  0
   -0.8530   15.0706   -2.1139 H   0  0  0  0  0  0  0  0  0  0  0  0
    0.5021   14.5244   -3.1590 H   0  0  0  0  0  0  0  0  0  0  0  0
   -1.0518   13.6233   -3.1590 H   0  0  0  0  0  0  0  0  0  0  0  0
    0.8954   13.3642    0.5868 H   0  0  0  0  0  0  0  0  0  0  0  0
   -1.3148   14.6613    0.3117 H   0  0  0  0  0  0  0  0  0  0  0  0
   -0.0182   15.2267    1.4899 H   0  0  0  0  0  0  0  0  0  0  0  0
   -1.2028   17.1052    0.0724 H   0  0  0  0  0  0  0  0  0  0  0  0
    1.8501   15.8975   -2.2769 H   0  0  0  0  0  0  0  0  0  0  0  0
    3.2111   17.4519    0.0098 H   0  0  0  0  0  0  0  0  0  0  0  0
    4.0305   16.6308   -1.3920 H   0  0  0  0  0  0  0  0  0  0  0  0
    3.8891   19.0819   -1.6951 H   0  0  0  0  0  0  0  0  0  0  0  0
    2.9686   18.1608   -2.9484 H   0  0  0  0  0  0  0  0  0  0  0  0
    1.6494   20.0386   -2.2482 H   0  0  0  0  0  0  0  0  0  0  0  0
    1.2890   19.1550    0.3740 H   0  0  0  0  0  0  0  0  0  0  0  0
   -0.6304   17.3240   -3.2441 H   0  0  0  0  0  0  0  0  0  0  0  0
   -0.1610   19.0106   -3.6463 H   0  0  0  0  0  0  0  0  0  0  0  0
    1.0774   17.7094   -3.6463 H   0  0  0  0  0  0  0  0  0  0  0  0
   -0.7326   19.2026   -0.0390 H   0  0  0  0  0  0  0  0  0  0  0  0
   -0.6376   20.2381   -1.5037 H   0  0  0  0  0  0  0  0  0  0  0  0
   -1.6809   18.7758   -1.5037 H   0  0  0  0  0  0  0  0  0  0  0  0
    2.0332   14.8269    1.7360 H   0  0  0  0  0  0  0  0  0  0  0  0
    3.6574   14.5041    1.0399 H   0  0  0  0  0  0  0  0  0  0  0  0
    2.9960   16.1742    1.0399 H   0  0  0  0  0  0  0  0  0  0  0  0
    3.8400   14.5912   -1.7234 H   0  0  0  0  0  0  0  0  0  0  0  0
    3.5097   13.2426   -0.4960 H   0  0  0  0  0  0  0  0  0  0  0  0
    2.1799   13.6588   -3.1878 H   0  0  0  0  0  0  0  0  0  0  0  0
    3.2652   12.3127   -2.6612 H   0  0  0  0  0  0  0  0  0  0  0  0
    1.5507   11.7684    0.3126 H   0  0  0  0  0  0  0  0  0  0  0  0
    1.2968   10.3383   -0.7442 H   0  0  0  0  0  0  0  0  0  0  0  0
    2.8809   11.1852   -0.7442 H   0  0  0  0  0  0  0  0  0  0  0  0
  1  2  1  0
  2  3  1  0
  3  4  1  0
  4  5  1  0
  5  6  1  0
  6  7  1  0
  7  8  1  0
  7  9  1  0
  2 10  1  0
 10 11  1  0
 11 12  1  0
 12 13  1  0
 13 14  1  6
 13 15  1  0
 15 16  1  0
 16 17  1  0
 17 18  2  0
 18 19  1  0
 19 20  1  0
 20 21  1  0
 21 22  1  0
 22 23  1  0
 22 24  1  0
 24 25  1  0
 24 26  1  0
 19 27  1  0
 27 28  1  1
 27 29  1  0
 29 30  1  0
 30 31  1  0
 31 32  1  1
  7  5  1  0
 31 10  1  0
 31 13  1  0
 27 15  1  0
 24 18  1  0
  1 33  1  0
  1 34  1  0
  1 35  1  0
  2 36  1  6
  3 37  1  0
  3 38  1  0
  4 39  1  0
  4 40  1  0
  5 41  1  1
  8 42  1  0
  8 43  1  0
  8 44  1  0
  9 45  1  0
  9 46  1  0
  9 47  1  0
 10 48  1  6
 11 49  1  0
 11 50  1  0
 12 51  1  0
 12 52  1  0
 14 53  1  0
 14 54  1  0
 14 55  1  0
 15 56  1  1
 16 57  1  0
 16 58  1  0
 17 59  1  0
 19 60  1  6
 20 61  1  0
 20 62  1  0
 21 63  1  0
 21 64  1  0
 22 65  1  6
 23 66  1  0
 25 67  1  0
 25 68  1  0
 25 69  1  0
 26 70  1  0
 26 71  1  0
 26 72  1  0
 28 73  1  0
 28 74  1  0
 28 75  1  0
 29 76  1  0
 29 77  1  0
 30 78  1  0
 30 79  1  0
 32 80  1  0
 32 81  1  0
 32 82  1  0
M  END
>  <meeko>  (9) 
{"is_sidechain": [false], "intermolecular_energy": 2.731, "internal_energy": -0.839}

$$$$
EPH_relaxed_0001_pdb2pqr_Repair_105_r2_0001_out
     RDKit          3D

 82 86  0  0  0  0  0  0  0  0999 V2000
   -0.5080   10.4760   -3.9740 C   0  0  0  0  0  0  0  0  0  0  0  0
    0.7530   10.3140   -3.1210 C   0  0  2  0  0  0  0  0  0  0  0  0
    0.7640    8.9810   -2.3470 C   0  0  0  0  0  0  0  0  0  0  0  0
   -0.6120    8.5650   -1.8190 C   0  0  0  0  0  0  0  0  0  0  0  0
   -0.7980    8.9570   -0.3850 C   0  0  2  0  0  0  0  0  0  0  0  0
   -2.1640    9.0220    0.0460 O   0  0  0  0  0  0  0  0  0  0  0  0
   -1.4390   10.2630    0.0490 C   0  0  0  0  0  0  0  0  0  0  0  0
   -1.9350   11.2590   -0.9520 C   0  0  0  0  0  0  0  0  0  0  0  0
   -1.1430   10.7840    1.4200 C   0  0  0  0  0  0  0  0  0  0  0  0
    0.8770   11.4820   -2.1490 C   0  0  1  0  0  0  0  0  0  0  0  0
    1.9450   11.2340   -1.0500 C   0  0  0  0  0  0  0  0  0  0  0  0
    2.6000   12.6060   -0.7460 C   0  0  0  0  0  0  0  0  0  0  0  0
    1.6730   13.6400   -1.4270 C   0  0  1  0  0  0  0  0  0  0  0  0
    0.4920   13.8410   -0.4260 C   0  0  0  0  0  0  0  0  0  0  0  0
    2.3310   15.0020   -1.8230 C   0  0  2  0  0  0  0  0  0  0  0  0
    2.8730   15.8320   -0.6470 C   0  0  0  0  0  0  0  0  0  0  0  0
    1.9050   16.7960   -0.0460 C   0  0  0  0  0  0  0  0  0  0  0  0
    0.7480   17.1950   -0.6070 C   0  0  0  0  0  0  0  0  0  0  0  0
    0.3600   16.7390   -2.0200 C   0  0  1  0  0  0  0  0  0  0  0  0
   -0.1380   17.9590   -2.8390 C   0  0  0  0  0  0  0  0  0  0  0  0
   -1.2650   18.7130   -2.1390 C   0  0  0  0  0  0  0  0  0  0  0  0
   -0.8220   19.2000   -0.7620 C   0  0  2  0  0  0  0  0  0  0  0  0
    0.1940   20.1940   -0.9290 O   0  0  0  0  0  0  0  0  0  0  0  0
   -0.2900   18.0590    0.1500 C   0  0  0  0  0  0  0  0  0  0  0  0
   -1.4650   17.1450    0.5770 C   0  0  0  0  0  0  0  0  0  0  0  0
    0.2550   18.7040    1.4530 C   0  0  0  0  0  0  0  0  0  0  0  0
    1.4520   15.8870   -2.7980 C   0  0  1  0  0  0  0  0  0  0  0  0
    2.4370   16.8380   -3.5450 C   0  0  0  0  0  0  0  0  0  0  0  0
    0.7390   15.0260   -3.9070 C   0  0  0  0  0  0  0  0  0  0  0  0
    0.2160   13.6410   -3.4830 C   0  0  0  0  0  0  0  0  0  0  0  0
    1.2960   12.8530   -2.7340 C   0  0  2  0  0  0  0  0  0  0  0  0
    2.4880   12.6170   -3.7240 C   0  0  0  0  0  0  0  0  0  0  0  0
   -1.3831   10.5884   -3.3171 H   0  0  0  0  0  0  0  0  0  0  0  0
   -0.4090   11.3688   -4.6089 H   0  0  0  0  0  0  0  0  0  0  0  0
   -0.6379    9.5872   -4.6089 H   0  0  0  0  0  0  0  0  0  0  0  0
    1.6151   10.3056   -3.8041 H   0  0  0  0  0  0  0  0  0  0  0  0
    1.1311    8.1918   -3.0196 H   0  0  0  0  0  0  0  0  0  0  0  0
    1.4151    9.1226   -1.4718 H   0  0  0  0  0  0  0  0  0  0  0  0
   -1.3889    9.0534   -2.4255 H   0  0  0  0  0  0  0  0  0  0  0  0
   -0.6883    7.4698   -1.8873 H   0  0  0  0  0  0  0  0  0  0  0  0
    0.1477    8.4701   -0.1047 H   0  0  0  0  0  0  0  0  0  0  0  0
   -2.3657   12.1239   -0.4262 H   0  0  0  0  0  0  0  0  0  0  0  0
   -1.0979   11.5929   -1.5827 H   0  0  0  0  0  0  0  0  0  0  0  0
   -2.7059   10.7922   -1.5827 H   0  0  0  0  0  0  0  0  0  0  0  0
   -1.5399   10.0854    2.1713 H   0  0  0  0  0  0  0  0  0  0  0  0
   -0.0548   10.8811    1.5483 H   0  0  0  0  0  0  0  0  0  0  0  0
   -1.6167   11.7685    1.5483 H   0  0  0  0  0  0  0  0  0  0  0  0
   -0.1601   11.5298   -1.7855 H   0  0  0  0  0  0  0  0  0  0  0  0
    1.4694   10.8320   -0.1433 H   0  0  0  0  0  0  0  0  0  0  0  0
    2.6956   10.5035   -1.3860 H   0  0  0  0  0  0  0  0  0  0  0  0
    2.6473   12.7819    0.3388 H   0  0  0  0  0  0  0  0  0  0  0  0
    3.6343   12.6657   -1.1157 H   0  0  0  0  0  0  0  0  0  0  0  0
    0.8702   13.7766    0.6049 H   0  0  0  0  0  0  0  0  0  0  0  0
    0.0375   14.8294   -0.5888 H   0  0  0  0  0  0  0  0  0  0  0  0
   -0.2639   13.0586   -0.5888 H   0  0  0  0  0  0  0  0  0  0  0  0
    3.2149   14.6795   -2.3928 H   0  0  0  0  0  0  0  0  0  0  0  0
    3.1925   15.1351    0.1419 H   0  0  0  0  0  0  0  0  0  0  0  0
    3.6928   16.4403   -1.0568 H   0  0  0  0  0  0  0  0  0  0  0  0
    2.1583   17.2160    0.9386 H   0  0  0  0  0  0  0  0  0  0  0  0
   -0.4587   16.0156   -1.8919 H   0  0  0  0  0  0  0  0  0  0  0  0
    0.7052   18.6484   -2.9927 H   0  0  0  0  0  0  0  0  0  0  0  0
   -0.5317   17.5816   -3.7943 H   0  0  0  0  0  0  0  0  0  0  0  0
   -1.5533   19.5797   -2.7519 H   0  0  0  0  0  0  0  0  0  0  0  0
   -2.1185   18.0307   -2.0124 H   0  0  0  0  0  0  0  0  0  0  0  0
   -1.7075   19.6167   -0.2597 H   0  0  0  0  0  0  0  0  0  0  0  0
    1.0040   19.7420   -1.2200 H   0  0  0  0  0  0  0  0  0  0  0  0
   -1.5175   17.1042    1.6750 H   0  0  0  0  0  0  0  0  0  0  0  0
   -2.4075   17.5497    0.1797 H   0  0  0  0  0  0  0  0  0  0  0  0
   -1.3046   16.1319    0.1797 H   0  0  0  0  0  0  0  0  0  0  0  0
   -0.1780   18.1915    2.3247 H   0  0  0  0  0  0  0  0  0  0  0  0
    1.3506   18.6090    1.4787 H   0  0  0  0  0  0  0  0  0  0  0  0
   -0.0215   19.7684    1.4787 H   0  0  0  0  0  0  0  0  0  0  0  0
    3.0259   17.4066   -2.8102 H   0  0  0  0  0  0  0  0  0  0  0  0
    3.1137   16.2429   -4.1758 H   0  0  0  0  0  0  0  0  0  0  0  0
    1.8661   17.5352   -4.1758 H   0  0  0  0  0  0  0  0  0  0  0  0
   -0.1188   15.6061   -4.2781 H   0  0  0  0  0  0  0  0  0  0  0  0
    1.5174   14.8219   -4.6570 H   0  0  0  0  0  0  0  0  0  0  0  0
   -0.6558   13.7715   -2.8250 H   0  0  0  0  0  0  0  0  0  0  0  0
   -0.0644   13.0801   -4.3867 H   0  0  0  0  0  0  0  0  0  0  0  0
    3.4094   12.4346   -3.1516 H   0  0  0  0  0  0  0  0  0  0  0  0
    2.2711   11.7444   -4.3576 H   0  0  0  0  0  0  0  0  0  0  0  0
    2.6200   13.5064   -4.3576 H   0  0  0  0  0  0  0  0  0  0  0  0
  1  2  1  0
  2  3  1  0
  3  4  1  0
  4  5  1  0
  5  6  1  0
  6  7  1  0
  7  8  1  0
  7  9  1  0
  2 10  1  0
 10 11  1  0
 11 12  1  0
 12 13  1  0
 13 14  1  1
 13 15  1  0
 15 16  1  0
 16 17  1  0
 17 18  2  0
 18 19  1  0
 19 20  1  0
 20 21  1  0
 21 22  1  0
 22 23  1  0
 22 24  1  0
 24 25  1  0
 24 26  1  0
 19 27  1  0
 27 28  1  6
 27 29  1  0
 29 30  1  0
 30 31  1  0
 31 32  1  6
  7  5  1  0
 31 10  1  0
 31 13  1  0
 27 15  1  0
 24 18  1  0
  1 33  1  0
  1 34  1  0
  1 35  1  0
  2 36  1  6
  3 37  1  0
  3 38  1  0
  4 39  1  0
  4 40  1  0
  5 41  1  1
  8 42  1  0
  8 43  1  0
  8 44  1  0
  9 45  1  0
  9 46  1  0
  9 47  1  0
 10 48  1  1
 11 49  1  0
 11 50  1  0
 12 51  1  0
 12 52  1  0
 14 53  1  0
 14 54  1  0
 14 55  1  0
 15 56  1  6
 16 57  1  0
 16 58  1  0
 17 59  1  0
 19 60  1  1
 20 61  1  0
 20 62  1  0
 21 63  1  0
 21 64  1  0
 22 65  1  1
 23 66  1  0
 25 67  1  0
 25 68  1  0
 25 69  1  0
 26 70  1  0
 26 71  1  0
 26 72  1  0
 28 73  1  0
 28 74  1  0
 28 75  1  0
 29 76  1  0
 29 77  1  0
 30 78  1  0
 30 79  1  0
 32 80  1  0
 32 81  1  0
 32 82  1  0
M  END
>  <meeko>  (10) 
{"is_sidechain": [false], "intermolecular_energy": 2.731, "internal_energy": -0.839}

$$$$
EPH_relaxed_0001_pdb2pqr_Repair_105_r2_0001_out
     RDKit          3D

 82 86  0  0  0  0  0  0  0  0999 V2000
   -4.2790    7.5290   -3.4220 C   0  0  0  0  0  0  0  0  0  0  0  0
   -3.8540    7.4100   -1.9560 C   0  0  2  0  0  0  0  0  0  0  0  0
   -5.0250    6.9890   -1.0450 C   0  0  0  0  0  0  0  0  0  0  0  0
   -6.0090    6.0260   -1.7130 C   0  0  0  0  0  0  0  0  0  0  0  0
   -7.4310    6.3720   -1.3880 C   0  0  2  0  0  0  0  0  0  0  0  0
   -8.3910    5.3740   -1.7600 O   0  0  0  0  0  0  0  0  0  0  0  0
   -8.4900    6.6350   -2.4420 C   0  0  0  0  0  0  0  0  0  0  0  0
   -8.1720    6.5630   -3.9030 C   0  0  0  0  0  0  0  0  0  0  0  0
   -9.6970    7.4330   -2.0600 C   0  0  0  0  0  0  0  0  0  0  0  0
   -3.2690    8.7320   -1.4760 C   0  0  1  0  0  0  0  0  0  0  0  0
   -3.8540    9.1830   -0.1100 C   0  0  0  0  0  0  0  0  0  0  0  0
   -2.7070    9.8940    0.6540 C   0  0  0  0  0  0  0  0  0  0  0  0
   -1.6100   10.1230   -0.4120 C   0  0  1  0  0  0  0  0  0  0  0  0
   -2.0600   11.4040   -1.1820 C   0  0  0  0  0  0  0  0  0  0  0  0
   -0.1460   10.2530    0.1200 C   0  0  2  0  0  0  0  0  0  0  0  0
    0.1050   11.4510    1.0530 C   0  0  0  0  0  0  0  0  0  0  0  0
    0.5380   12.7080    0.3740 C   0  0  0  0  0  0  0  0  0  0  0  0
    0.9920   12.7980   -0.8900 C   0  0  0  0  0  0  0  0  0  0  0  0
    1.1990   11.5410   -1.7440 C   0  0  1  0  0  0  0  0  0  0  0  0
    2.5810   11.6130   -2.4460 C   0  0  0  0  0  0  0  0  0  0  0  0
    2.7620   12.8990   -3.2470 C   0  0  0  0  0  0  0  0  0  0  0  0
    2.6060   14.1260   -2.3530 C   0  0  2  0  0  0  0  0  0  0  0  0
    3.6910   14.1570   -1.4200 O   0  0  0  0  0  0  0  0  0  0  0  0
    1.2550   14.1570   -1.5850 C   0  0  0  0  0  0  0  0  0  0  0  0
    0.0980   14.4270   -2.5780 C   0  0  0  0  0  0  0  0  0  0  0  0
    1.2850   15.3680   -0.6140 C   0  0  0  0  0  0  0  0  0  0  0  0
    0.9630   10.1540   -1.0040 C   0  0  1  0  0  0  0  0  0  0  0  0
    2.2760    9.6990   -0.2950 C   0  0  0  0  0  0  0  0  0  0  0  0
    0.6320    9.0490   -2.0760 C   0  0  0  0  0  0  0  0  0  0  0  0
   -0.8480    8.8880   -2.4720 C   0  0  0  0  0  0  0  0  0  0  0  0
   -1.7400    8.7870   -1.2310 C   0  0  2  0  0  0  0  0  0  0  0  0
   -1.3260    7.4950   -0.4480 C   0  0  0  0  0  0  0  0  0  0  0  0
   -5.3371    7.8253   -3.4741 H   0  0  0  0  0  0  0  0  0  0  0  0
   -3.6605    8.2885   -3.9226 H   0  0  0  0  0  0  0  0  0  0  0  0
   -4.1448    6.5587   -3.9226 H   0  0  0  0  0  0  0  0  0  0  0  0
   -3.0890    6.6219   -1.8954 H   0  0  0  0  0  0  0  0  0  0  0  0
   -4.6110    6.4982   -0.1519 H   0  0  0  0  0  0  0  0  0  0  0  0
   -5.5860    7.9029   -0.7999 H   0  0  0  0  0  0  0  0  0  0  0  0
   -5.8706    6.0744   -2.8032 H   0  0  0  0  0  0  0  0  0  0  0  0
   -5.8076    5.0130   -1.3345 H   0  0  0  0  0  0  0  0  0  0  0  0
   -7.1140    6.9420   -0.5022 H   0  0  0  0  0  0  0  0  0  0  0  0
   -7.1069    6.3218   -4.0350 H   0  0  0  0  0  0  0  0  0  0  0  0
   -8.7860    5.7812   -4.3738 H   0  0  0  0  0  0  0  0  0  0  0  0
   -8.3894    7.5331   -4.3738 H   0  0  0  0  0  0  0  0  0  0  0  0
   -9.7719    7.4825   -0.9637 H   0  0  0  0  0  0  0  0  0  0  0  0
   -9.6078    8.4507   -2.4678 H   0  0  0  0  0  0  0  0  0  0  0  0
  -10.5985    6.9523   -2.4678 H   0  0  0  0  0  0  0  0  0  0  0  0
   -3.5360    9.3723   -2.3297 H   0  0  0  0  0  0  0  0  0  0  0  0
   -4.6921    9.8778   -0.2675 H   0  0  0  0  0  0  0  0  0  0  0  0
   -4.2352    8.3230    0.4602 H   0  0  0  0  0  0  0  0  0  0  0  0
   -3.0523   10.8529    1.0678 H   0  0  0  0  0  0  0  0  0  0  0  0
   -2.3430    9.3006    1.5057 H   0  0  0  0  0  0  0  0  0  0  0  0
   -2.3353   12.1876   -0.4608 H   0  0  0  0  0  0  0  0  0  0  0  0
   -1.2335   11.7613   -1.8139 H   0  0  0  0  0  0  0  0  0  0  0  0
   -2.9283   11.1659   -1.8139 H   0  0  0  0  0  0  0  0  0  0  0  0
   -0.0432    9.3569    0.7497 H   0  0  0  0  0  0  0  0  0  0  0  0
   -0.8290   11.6616    1.5946 H   0  0  0  0  0  0  0  0  0  0  0  0
    0.9377   11.1569    1.7088 H   0  0  0  0  0  0  0  0  0  0  0  0
    0.4812   13.6397    0.9560 H   0  0  0  0  0  0  0  0  0  0  0  0
    0.3970   11.5496   -2.4968 H   0  0  0  0  0  0  0  0  0  0  0  0
    3.3690   11.5602   -1.6803 H   0  0  0  0  0  0  0  0  0  0  0  0
    2.6437   10.7692   -3.1489 H   0  0  0  0  0  0  0  0  0  0  0  0
    3.7667   12.9055   -3.6949 H   0  0  0  0  0  0  0  0  0  0  0  0
    1.9908   12.9356   -4.0305 H   0  0  0  0  0  0  0  0  0  0  0  0
    2.6164   15.0124   -3.0043 H   0  0  0  0  0  0  0  0  0  0  0  0
    3.9190   15.0890   -1.2640 H   0  0  0  0  0  0  0  0  0  0  0  0
   -0.8237   14.6421   -2.0174 H   0  0  0  0  0  0  0  0  0  0  0  0
    0.3520   15.2900   -3.2110 H   0  0  0  0  0  0  0  0  0  0  0  0
   -0.0562   13.5407   -3.2110 H   0  0  0  0  0  0  0  0  0  0  0  0
    1.2760   15.0056    0.4245 H   0  0  0  0  0  0  0  0  0  0  0  0
    2.1980   15.9560   -0.7893 H   0  0  0  0  0  0  0  0  0  0  0  0
    0.4022   16.0005   -0.7893 H   0  0  0  0  0  0  0  0  0  0  0  0
    2.1392    9.7464    0.7954 H   0  0  0  0  0  0  0  0  0  0  0  0
    2.5132    8.6663   -0.5903 H   0  0  0  0  0  0  0  0  0  0  0  0
    3.1014   10.3635   -0.5903 H   0  0  0  0  0  0  0  0  0  0  0  0
    1.1965    9.2908   -2.9886 H   0  0  0  0  0  0  0  0  0  0  0  0
    0.9090    8.0957   -1.6023 H   0  0  0  0  0  0  0  0  0  0  0  0
   -1.1578    9.7592   -3.0678 H   0  0  0  0  0  0  0  0  0  0  0  0
   -0.9557    7.9630   -3.0574 H   0  0  0  0  0  0  0  0  0  0  0  0
   -1.3873    7.6863    0.6335 H   0  0  0  0  0  0  0  0  0  0  0  0
   -2.0053    6.6717   -0.7138 H   0  0  0  0  0  0  0  0  0  0  0  0
   -0.2947    7.2198   -0.7138 H   0  0  0  0  0  0  0  0  0  0  0  0
  1  2  1  0
  2  3  1  0
  3  4  1  0
  4  5  1  0
  5  6  1  0
  6  7  1  0
  7  8  1  0
  7  9  1  0
  2 10  1  0
 10 11  1  0
 11 12  1  0
 12 13  1  0
 13 14  1  6
 13 15  1  0
 15 16  1  0
 16 17  1  0
 17 18  2  0
 18 19  1  0
 19 20  1  0
 20 21  1  0
 21 22  1  0
 22 23  1  0
 22 24  1  0
 24 25  1  0
 24 26  1  0
 19 27  1  0
 27 28  1  1
 27 29  1  0
 29 30  1  0
 30 31  1  0
 31 32  1  1
  7  5  1  0
 31 10  1  0
 31 13  1  0
 27 15  1  0
 24 18  1  0
  1 33  1  0
  1 34  1  0
  1 35  1  0
  2 36  1  6
  3 37  1  0
  3 38  1  0
  4 39  1  0
  4 40  1  0
  5 41  1  1
  8 42  1  0
  8 43  1  0
  8 44  1  0
  9 45  1  0
  9 46  1  0
  9 47  1  0
 10 48  1  6
 11 49  1  0
 11 50  1  0
 12 51  1  0
 12 52  1  0
 14 53  1  0
 14 54  1  0
 14 55  1  0
 15 56  1  1
 16 57  1  0
 16 58  1  0
 17 59  1  0
 19 60  1  6
 20 61  1  0
 20 62  1  0
 21 63  1  0
 21 64  1  0
 22 65  1  6
 23 66  1  0
 25 67  1  0
 25 68  1  0
 25 69  1  0
 26 70  1  0
 26 71  1  0
 26 72  1  0
 28 73  1  0
 28 74  1  0
 28 75  1  0
 29 76  1  0
 29 77  1  0
 30 78  1  0
 30 79  1  0
 32 80  1  0
 32 81  1  0
 32 82  1  0
M  END
>  <meeko>  (11) 
{"is_sidechain": [false], "intermolecular_energy": 2.731, "internal_energy": -0.839}

$$$$
EPH_relaxed_0001_pdb2pqr_Repair_105_r2_0001_out
     RDKit          3D

 82 86  0  0  0  0  0  0  0  0999 V2000
   -2.4330    7.8470   -2.3110 C   0  0  0  0  0  0  0  0  0  0  0  0
   -2.3020    8.3930   -0.8860 C   0  0  2  0  0  0  0  0  0  0  0  0
   -3.6440    8.3620   -0.1270 C   0  0  0  0  0  0  0  0  0  0  0  0
   -4.8680    8.5010   -1.0360 C   0  0  0  0  0  0  0  0  0  0  0  0
   -5.6880    7.2460   -1.0570 C   0  0  2  0  0  0  0  0  0  0  0  0
   -5.6980    6.5580   -2.3140 O   0  0  0  0  0  0  0  0  0  0  0  0
   -6.9570    7.0900   -1.8730 C   0  0  0  0  0  0  0  0  0  0  0  0
   -7.4800    8.2040   -2.7240 C   0  0  0  0  0  0  0  0  0  0  0  0
   -7.9450    6.0410   -1.4660 C   0  0  0  0  0  0  0  0  0  0  0  0
   -1.7570    9.8160   -0.9230 C   0  0  1  0  0  0  0  0  0  0  0  0
   -1.3110   10.3210    0.4750 C   0  0  0  0  0  0  0  0  0  0  0  0
   -0.0780   11.2330    0.2490 C   0  0  0  0  0  0  0  0  0  0  0  0
   -0.0560   11.4890   -1.2760 C   0  0  1  0  0  0  0  0  0  0  0  0
   -1.0990   12.6280   -1.5060 C   0  0  0  0  0  0  0  0  0  0  0  0
    1.3340   11.8440   -1.8970 C   0  0  2  0  0  0  0  0  0  0  0  0
    1.9670   13.1470   -1.3780 C   0  0  0  0  0  0  0  0  0  0  0  0
    1.6220   14.3760   -2.1510 C   0  0  0  0  0  0  0  0  0  0  0  0
    1.0710   14.4000   -3.3780 C   0  0  0  0  0  0  0  0  0  0  0  0
    0.8280   13.1000   -4.1570 C   0  0  1  0  0  0  0  0  0  0  0  0
    1.3240   13.2710   -5.6170 C   0  0  0  0  0  0  0  0  0  0  0  0
    0.7120   14.4870   -6.3050 C   0  0  0  0  0  0  0  0  0  0  0  0
    1.0250   15.7660   -5.5320 C   0  0  2  0  0  0  0  0  0  0  0  0
    2.4320   16.0150   -5.6020 O   0  0  0  0  0  0  0  0  0  0  0  0
    0.5780   15.7080   -4.0440 C   0  0  0  0  0  0  0  0  0  0  0  0
   -0.9680   15.7420   -3.9640 C   0  0  0  0  0  0  0  0  0  0  0  0
    1.0780   17.0010   -3.3450 C   0  0  0  0  0  0  0  0  0  0  0  0
    1.3750   11.7720   -3.4780 C   0  0  1  0  0  0  0  0  0  0  0  0
    2.8660   11.5460   -3.8740 C   0  0  0  0  0  0  0  0  0  0  0  0
    0.5740   10.5390   -4.0410 C   0  0  0  0  0  0  0  0  0  0  0  0
   -0.7300   10.1650   -3.3110 C   0  0  0  0  0  0  0  0  0  0  0  0
   -0.5050   10.0760   -1.7980 C   0  0  2  0  0  0  0  0  0  0  0  0
    0.5220    8.9230   -1.5340 C   0  0  0  0  0  0  0  0  0  0  0  0
   -2.6895    6.7780   -2.2719 H   0  0  0  0  0  0  0  0  0  0  0  0
   -3.2252    8.3950   -2.8422 H   0  0  0  0  0  0  0  0  0  0  0  0
   -1.4784    7.9759   -2.8422 H   0  0  0  0  0  0  0  0  0  0  0  0
   -1.6013    7.7406   -0.3443 H   0  0  0  0  0  0  0  0  0  0  0  0
   -3.7172    7.4049    0.4102 H   0  0  0  0  0  0  0  0  0  0  0  0
   -3.6488    9.2264    0.5533 H   0  0  0  0  0  0  0  0  0  0  0  0
   -5.4925    9.3289   -0.6690 H   0  0  0  0  0  0  0  0  0  0  0  0
   -4.5150    8.6973   -2.0591 H   0  0  0  0  0  0  0  0  0  0  0  0
   -5.4636    7.0538    0.0026 H   0  0  0  0  0  0  0  0  0  0  0  0
   -7.8588    9.0109   -2.0795 H   0  0  0  0  0  0  0  0  0  0  0  0
   -6.6698    8.5917   -3.3591 H   0  0  0  0  0  0  0  0  0  0  0  0
   -8.2958    7.8283   -3.3591 H   0  0  0  0  0  0  0  0  0  0  0  0
   -7.9937    5.9893   -0.3683 H   0  0  0  0  0  0  0  0  0  0  0  0
   -8.9374    6.2973   -1.8654 H   0  0  0  0  0  0  0  0  0  0  0  0
   -7.6298    5.0657   -1.8654 H   0  0  0  0  0  0  0  0  0  0  0  0
   -2.6281   10.3358   -1.3484 H   0  0  0  0  0  0  0  0  0  0  0  0
   -2.1232   10.8925    0.9481 H   0  0  0  0  0  0  0  0  0  0  0  0
   -1.0632    9.4792    1.1383 H   0  0  0  0  0  0  0  0  0  0  0  0
   -0.1884   12.1787    0.7999 H   0  0  0  0  0  0  0  0  0  0  0  0
    0.8537   10.7712    0.6078 H   0  0  0  0  0  0  0  0  0  0  0  0
   -1.4471   13.0081   -0.5342 H   0  0  0  0  0  0  0  0  0  0  0  0
   -0.6300   13.4457   -2.0729 H   0  0  0  0  0  0  0  0  0  0  0  0
   -1.9547   12.2326   -2.0729 H   0  0  0  0  0  0  0  0  0  0  0  0
    1.9738   11.0311   -1.5231 H   0  0  0  0  0  0  0  0  0  0  0  0
    1.6366   13.2950   -0.3393 H   0  0  0  0  0  0  0  0  0  0  0  0
    3.0546   13.0186   -1.4807 H   0  0  0  0  0  0  0  0  0  0  0  0
    1.8366   15.3451   -1.6770 H   0  0  0  0  0  0  0  0  0  0  0  0
   -0.2602   12.9395   -4.1489 H   0  0  0  0  0  0  0  0  0  0  0  0
    2.4180   13.3855   -5.6064 H   0  0  0  0  0  0  0  0  0  0  0  0
    1.0153   12.3783   -6.1808 H   0  0  0  0  0  0  0  0  0  0  0  0
    1.1239   14.5708   -7.3215 H   0  0  0  0  0  0  0  0  0  0  0  0
   -0.3797   14.3572   -6.3420 H   0  0  0  0  0  0  0  0  0  0  0  0
    0.4537   16.5815   -5.9996 H   0  0  0  0  0  0  0  0  0  0  0  0
    2.6110   16.8340   -5.1110 H   0  0  0  0  0  0  0  0  0  0  0  0
   -1.2805   15.7489   -2.9094 H   0  0  0  0  0  0  0  0  0  0  0  0
   -1.3411   16.6486   -4.4629 H   0  0  0  0  0  0  0  0  0  0  0  0
   -1.3806   14.8527   -4.4629 H   0  0  0  0  0  0  0  0  0  0  0  0
    1.0277   16.8709   -2.2539 H   0  0  0  0  0  0  0  0  0  0  0  0
    2.1180   17.2002   -3.6429 H   0  0  0  0  0  0  0  0  0  0  0  0
    0.4426   17.8480   -3.6429 H   0  0  0  0  0  0  0  0  0  0  0  0
    3.4771   11.4534   -2.9640 H   0  0  0  0  0  0  0  0  0  0  0  0
    2.9518   10.6246   -4.4687 H   0  0  0  0  0  0  0  0  0  0  0  0
    3.2210   12.4006   -4.4687 H   0  0  0  0  0  0  0  0  0  0  0  0
    0.3179   10.7587   -5.0880 H   0  0  0  0  0  0  0  0  0  0  0  0
    1.2401    9.6750   -3.9005 H   0  0  0  0  0  0  0  0  0  0  0  0
   -1.4907   10.9323   -3.5172 H   0  0  0  0  0  0  0  0  0  0  0  0
   -1.0660    9.1826   -3.6741 H   0  0  0  0  0  0  0  0  0  0  0  0
    0.6461    8.7836   -0.4499 H   0  0  0  0  0  0  0  0  0  0  0  0
    0.1498    7.9905   -1.9833 H   0  0  0  0  0  0  0  0  0  0  0  0
    1.4912    9.1852   -1.9833 H   0  0  0  0  0  0  0  0  0  0  0  0
  1  2  1  0
  2  3  1  0
  3  4  1  0
  4  5  1  0
  5  6  1  0
  6  7  1  0
  7  8  1  0
  7  9  1  0
  2 10  1  0
 10 11  1  0
 11 12  1  0
 12 13  1  0
 13 14  1  1
 13 15  1  0
 15 16  1  0
 16 17  1  0
 17 18  2  0
 18 19  1  0
 19 20  1  0
 20 21  1  0
 21 22  1  0
 22 23  1  0
 22 24  1  0
 24 25  1  0
 24 26  1  0
 19 27  1  0
 27 28  1  1
 27 29  1  0
 29 30  1  0
 30 31  1  0
 31 32  1  6
  7  5  1  0
 31 10  1  0
 31 13  1  0
 27 15  1  0
 24 18  1  0
  1 33  1  0
  1 34  1  0
  1 35  1  0
  2 36  1  1
  3 37  1  0
  3 38  1  0
  4 39  1  0
  4 40  1  0
  5 41  1  1
  8 42  1  0
  8 43  1  0
  8 44  1  0
  9 45  1  0
  9 46  1  0
  9 47  1  0
 10 48  1  6
 11 49  1  0
 11 50  1  0
 12 51  1  0
 12 52  1  0
 14 53  1  0
 14 54  1  0
 14 55  1  0
 15 56  1  1
 16 57  1  0
 16 58  1  0
 17 59  1  0
 19 60  1  6
 20 61  1  0
 20 62  1  0
 21 63  1  0
 21 64  1  0
 22 65  1  6
 23 66  1  0
 25 67  1  0
 25 68  1  0
 25 69  1  0
 26 70  1  0
 26 71  1  0
 26 72  1  0
 28 73  1  0
 28 74  1  0
 28 75  1  0
 29 76  1  0
 29 77  1  0
 30 78  1  0
 30 79  1  0
 32 80  1  0
 32 81  1  0
 32 82  1  0
M  END
>  <meeko>  (12) 
{"is_sidechain": [false], "intermolecular_energy": 2.731, "internal_energy": -0.839}

$$$$
EPH_relaxed_0001_pdb2pqr_Repair_105_r2_0001_out
     RDKit          3D

 82 86  0  0  0  0  0  0  0  0999 V2000
  -14.1800    5.4940    0.5020 C   0  0  0  0  0  0  0  0  0  0  0  0
  -13.6720    6.9260    0.3080 C   0  0  2  0  0  0  0  0  0  0  0  0
  -14.8190    7.9150    0.0210 C   0  0  0  0  0  0  0  0  0  0  0  0
  -14.4210    9.3840    0.1910 C   0  0  0  0  0  0  0  0  0  0  0  0
  -15.1820   10.2760   -0.7430 C   0  0  2  0  0  0  0  0  0  0  0  0
  -15.0740    9.9230   -2.1290 O   0  0  0  0  0  0  0  0  0  0  0  0
  -14.5160   11.1920   -1.7530 C   0  0  0  0  0  0  0  0  0  0  0  0
  -13.0270   11.2640   -1.8780 C   0  0  0  0  0  0  0  0  0  0  0  0
  -15.2870   12.3660   -2.2700 C   0  0  0  0  0  0  0  0  0  0  0  0
  -12.6530    6.9660   -0.8250 C   0  0  1  0  0  0  0  0  0  0  0  0
  -13.0640    7.9380   -1.9630 C   0  0  0  0  0  0  0  0  0  0  0  0
  -11.7560    8.5650   -2.5110 C   0  0  0  0  0  0  0  0  0  0  0  0
  -10.6260    7.6980   -1.9070 C   0  0  1  0  0  0  0  0  0  0  0  0
  -10.5540    6.4370   -2.8240 C   0  0  0  0  0  0  0  0  0  0  0  0
   -9.2300    8.3870   -1.7620 C   0  0  2  0  0  0  0  0  0  0  0  0
   -8.5790    8.8280   -3.0840 C   0  0  0  0  0  0  0  0  0  0  0  0
   -7.6970    7.8120   -3.7310 C   0  0  0  0  0  0  0  0  0  0  0  0
   -7.2100    6.7070   -3.1370 C   0  0  0  0  0  0  0  0  0  0  0  0
   -7.4590    6.4400   -1.6470 C   0  0  1  0  0  0  0  0  0  0  0  0
   -6.1310    6.0120   -0.9680 C   0  0  0  0  0  0  0  0  0  0  0  0
   -5.4690    4.8310   -1.6700 C   0  0  0  0  0  0  0  0  0  0  0  0
   -5.1850    5.1560   -3.1350 C   0  0  2  0  0  0  0  0  0  0  0  0
   -4.1890    6.1820   -3.1940 O   0  0  0  0  0  0  0  0  0  0  0  0
   -6.4480    5.6090   -3.9180 C   0  0  0  0  0  0  0  0  0  0  0  0
   -7.4000    4.4020   -4.1130 C   0  0  0  0  0  0  0  0  0  0  0  0
   -5.9990    6.0410   -5.3400 C   0  0  0  0  0  0  0  0  0  0  0  0
   -8.2070    7.5940   -0.8510 C   0  0  1  0  0  0  0  0  0  0  0  0
   -7.1730    8.6380   -0.3300 C   0  0  0  0  0  0  0  0  0  0  0  0
   -8.8960    6.9770    0.4240 C   0  0  0  0  0  0  0  0  0  0  0  0
  -10.3210    6.4210    0.2430 C   0  0  0  0  0  0  0  0  0  0  0  0
  -11.2180    7.4340   -0.4750 C   0  0  2  0  0  0  0  0  0  0  0  0
  -11.3270    8.7050    0.4350 C   0  0  0  0  0  0  0  0  0  0  0  0
  -14.2577    5.2750    1.5772 H   0  0  0  0  0  0  0  0  0  0  0  0
  -15.1700    5.3896    0.0341 H   0  0  0  0  0  0  0  0  0  0  0  0
  -13.4771    4.7890    0.0341 H   0  0  0  0  0  0  0  0  0  0  0  0
  -13.1949    7.2388    1.2485 H   0  0  0  0  0  0  0  0  0  0  0  0
  -15.1568    7.7642   -1.0149 H   0  0  0  0  0  0  0  0  0  0  0  0
  -15.6123    7.7095    0.7547 H   0  0  0  0  0  0  0  0  0  0  0  0
  -14.6284    9.6921    1.2264 H   0  0  0  0  0  0  0  0  0  0  0  0
  -13.3499    9.4783   -0.0411 H   0  0  0  0  0  0  0  0  0  0  0  0
  -15.9543   10.4555    0.0195 H   0  0  0  0  0  0  0  0  0  0  0  0
  -12.5755   11.2858   -0.8752 H   0  0  0  0  0  0  0  0  0  0  0  0
  -12.6619   10.3825   -2.4254 H   0  0  0  0  0  0  0  0  0  0  0  0
  -12.7487   12.1767   -2.4254 H   0  0  0  0  0  0  0  0  0  0  0  0
  -15.6725   12.9531   -1.4234 H   0  0  0  0  0  0  0  0  0  0  0  0
  -14.6268   12.9969   -2.8833 H   0  0  0  0  0  0  0  0  0  0  0  0
  -16.1283   12.0109   -2.8833 H   0  0  0  0  0  0  0  0  0  0  0  0
  -12.6446    5.9018   -1.1033 H   0  0  0  0  0  0  0  0  0  0  0  0
  -13.5838    7.3881   -2.7614 H   0  0  0  0  0  0  0  0  0  0  0  0
  -13.7482    8.7147   -1.5907 H   0  0  0  0  0  0  0  0  0  0  0  0
  -11.7346    8.5206   -3.6099 H   0  0  0  0  0  0  0  0  0  0  0  0
  -11.6571    9.6269   -2.2414 H   0  0  0  0  0  0  0  0  0  0  0  0
  -10.5024    5.5325   -2.2002 H   0  0  0  0  0  0  0  0  0  0  0  0
  -11.4511    6.3937   -3.4590 H   0  0  0  0  0  0  0  0  0  0  0  0
   -9.6578    6.4961   -3.4590 H   0  0  0  0  0  0  0  0  0  0  0  0
   -9.4805    9.3155   -1.2280 H   0  0  0  0  0  0  0  0  0  0  0  0
   -9.3830    9.0798   -3.7913 H   0  0  0  0  0  0  0  0  0  0  0  0
   -7.9293    9.6796   -2.8338 H   0  0  0  0  0  0  0  0  0  0  0  0
   -7.4218    7.9810   -4.7825 H   0  0  0  0  0  0  0  0  0  0  0  0
   -8.1835    5.6135   -1.6037 H   0  0  0  0  0  0  0  0  0  0  0  0
   -5.4367    6.8651   -0.9825 H   0  0  0  0  0  0  0  0  0  0  0  0
   -6.3673    5.6995    0.0599 H   0  0  0  0  0  0  0  0  0  0  0  0
   -4.5214    4.5961   -1.1632 H   0  0  0  0  0  0  0  0  0  0  0  0
   -6.1519    3.9697   -1.6275 H   0  0  0  0  0  0  0  0  0  0  0  0
   -4.8330    4.2315   -3.6160 H   0  0  0  0  0  0  0  0  0  0  0  0
   -4.6290    7.0040   -3.4690 H   0  0  0  0  0  0  0  0  0  0  0  0
   -7.7061    4.0139   -3.1303 H   0  0  0  0  0  0  0  0  0  0  0  0
   -8.2900    4.7238   -4.6736 H   0  0  0  0  0  0  0  0  0  0  0  0
   -6.8797    3.6114   -4.6736 H   0  0  0  0  0  0  0  0  0  0  0  0
   -5.2084    6.8016   -5.2596 H   0  0  0  0  0  0  0  0  0  0  0  0
   -5.6125    5.1665   -5.8840 H   0  0  0  0  0  0  0  0  0  0  0  0
   -6.8579    6.4609   -5.8840 H   0  0  0  0  0  0  0  0  0  0  0  0
   -7.1737    8.6373    0.7700 H   0  0  0  0  0  0  0  0  0  0  0  0
   -6.1697    8.3746   -0.6962 H   0  0  0  0  0  0  0  0  0  0  0  0
   -7.4460    9.6387   -0.6962 H   0  0  0  0  0  0  0  0  0  0  0  0
   -8.2601    6.1531    0.7800 H   0  0  0  0  0  0  0  0  0  0  0  0
   -9.0015    7.8154    1.1282 H   0  0  0  0  0  0  0  0  0  0  0  0
  -10.2738    5.4970   -0.3520 H   0  0  0  0  0  0  0  0  0  0  0  0
  -10.7470    6.2179    1.2366 H   0  0  0  0  0  0  0  0  0  0  0  0
  -11.3010    8.4023    1.4922 H   0  0  0  0  0  0  0  0  0  0  0  0
  -10.4834    9.3792    0.2258 H   0  0  0  0  0  0  0  0  0  0  0  0
  -12.2731    9.2257    0.2258 H   0  0  0  0  0  0  0  0  0  0  0  0
  1  2  1  0
  2  3  1  0
  3  4  1  0
  4  5  1  0
  5  6  1  0
  6  7  1  0
  7  8  1  0
  7  9  1  0
  2 10  1  0
 10 11  1  0
 11 12  1  0
 12 13  1  0
 13 14  1  6
 13 15  1  0
 15 16  1  0
 16 17  1  0
 17 18  2  0
 18 19  1  0
 19 20  1  0
 20 21  1  0
 21 22  1  0
 22 23  1  0
 22 24  1  0
 24 25  1  0
 24 26  1  0
 19 27  1  0
 27 28  1  1
 27 29  1  0
 29 30  1  0
 30 31  1  0
 31 32  1  1
  7  5  1  0
 31 10  1  0
 31 13  1  0
 27 15  1  0
 24 18  1  0
  1 33  1  0
  1 34  1  0
  1 35  1  0
  2 36  1  1
  3 37  1  0
  3 38  1  0
  4 39  1  0
  4 40  1  0
  5 41  1  1
  8 42  1  0
  8 43  1  0
  8 44  1  0
  9 45  1  0
  9 46  1  0
  9 47  1  0
 10 48  1  6
 11 49  1  0
 11 50  1  0
 12 51  1  0
 12 52  1  0
 14 53  1  0
 14 54  1  0
 14 55  1  0
 15 56  1  1
 16 57  1  0
 16 58  1  0
 17 59  1  0
 19 60  1  6
 20 61  1  0
 20 62  1  0
 21 63  1  0
 21 64  1  0
 22 65  1  6
 23 66  1  0
 25 67  1  0
 25 68  1  0
 25 69  1  0
 26 70  1  0
 26 71  1  0
 26 72  1  0
 28 73  1  0
 28 74  1  0
 28 75  1  0
 29 76  1  0
 29 77  1  0
 30 78  1  0
 30 79  1  0
 32 80  1  0
 32 81  1  0
 32 82  1  0
M  END
>  <meeko>  (13) 
{"is_sidechain": [false], "intermolecular_energy": 2.731, "internal_energy": -0.839}

$$$$
EPH_relaxed_0001_pdb2pqr_Repair_105_r2_0001_out
     RDKit          3D

 82 86  0  0  0  0  0  0  0  0999 V2000
   -0.2620   15.1420   -7.6490 C   0  0  0  0  0  0  0  0  0  0  0  0
    1.1090   15.0940   -6.9700 C   0  0  2  0  0  0  0  0  0  0  0  0
    2.2640   15.1740   -7.9880 C   0  0  0  0  0  0  0  0  0  0  0  0
    2.3060   16.4890   -8.7700 C   0  0  0  0  0  0  0  0  0  0  0  0
    1.8940   16.2970  -10.1980 C   0  0  2  0  0  0  0  0  0  0  0  0
    1.2220   15.0600  -10.4670 O   0  0  0  0  0  0  0  0  0  0  0  0
    2.4950   15.2420  -11.1080 C   0  0  0  0  0  0  0  0  0  0  0  0
    3.5600   14.3090  -10.6230 C   0  0  0  0  0  0  0  0  0  0  0  0
    2.4020   15.4370  -12.5890 C   0  0  0  0  0  0  0  0  0  0  0  0
    1.2330   13.8230   -6.1390 C   0  0  1  0  0  0  0  0  0  0  0  0
    2.6520   13.1990   -6.2100 C   0  0  0  0  0  0  0  0  0  0  0  0
    2.9400   12.5810   -4.8170 C   0  0  0  0  0  0  0  0  0  0  0  0
    1.5680   12.5750   -4.1030 C   0  0  1  0  0  0  0  0  0  0  0  0
    0.8360   11.3100   -4.6520 C   0  0  0  0  0  0  0  0  0  0  0  0
    1.6020   12.5880   -2.5400 C   0  0  2  0  0  0  0  0  0  0  0  0
    2.2710   11.3640   -1.8910 C   0  0  0  0  0  0  0  0  0  0  0  0
    1.3540   10.2260   -1.5810 C   0  0  0  0  0  0  0  0  0  0  0  0
    0.0100   10.2910   -1.5490 C   0  0  0  0  0  0  0  0  0  0  0  0
   -0.7190   11.6270   -1.7460 C   0  0  1  0  0  0  0  0  0  0  0  0
   -1.8180   11.7820   -0.6620 C   0  0  0  0  0  0  0  0  0  0  0  0
   -2.7750   10.5950   -0.6260 C   0  0  0  0  0  0  0  0  0  0  0  0
   -2.0200    9.2930   -0.3700 C   0  0  2  0  0  0  0  0  0  0  0  0
   -1.4780    9.3270    0.9540 O   0  0  0  0  0  0  0  0  0  0  0  0
   -0.8800    9.0340   -1.3940 C   0  0  0  0  0  0  0  0  0  0  0  0
   -1.4900    8.6980   -2.7770 C   0  0  0  0  0  0  0  0  0  0  0  0
   -0.1090    7.7650   -0.9400 C   0  0  0  0  0  0  0  0  0  0  0  0
    0.2090   12.9120   -1.8630 C   0  0  1  0  0  0  0  0  0  0  0  0
    0.5230   13.4730   -0.4430 C   0  0  0  0  0  0  0  0  0  0  0  0
   -0.5770   14.0450   -2.6240 C   0  0  0  0  0  0  0  0  0  0  0  0
   -0.4740   14.0490   -4.1610 C   0  0  0  0  0  0  0  0  0  0  0  0
    0.9850   13.9420   -4.6140 C   0  0  2  0  0  0  0  0  0  0  0  0
    1.7410   15.2120   -4.0950 C   0  0  0  0  0  0  0  0  0  0  0  0
   -1.0502   15.1696   -6.8822 H   0  0  0  0  0  0  0  0  0  0  0  0
   -0.3291   16.0430   -8.2764 H   0  0  0  0  0  0  0  0  0  0  0  0
   -0.3920   14.2479   -8.2764 H   0  0  0  0  0  0  0  0  0  0  0  0
    1.1853   15.9745   -6.3151 H   0  0  0  0  0  0  0  0  0  0  0  0
    3.2139   15.0628   -7.4446 H   0  0  0  0  0  0  0  0  0  0  0  0
    2.1024   14.3697   -8.7208 H   0  0  0  0  0  0  0  0  0  0  0  0
    1.6225   17.2083   -8.2952 H   0  0  0  0  0  0  0  0  0  0  0  0
    3.3406   16.8624   -8.7584 H   0  0  0  0  0  0  0  0  0  0  0  0
    1.7411   17.3791  -10.3232 H   0  0  0  0  0  0  0  0  0  0  0  0
    3.5681   14.3019   -9.5231 H   0  0  0  0  0  0  0  0  0  0  0  0
    3.3555   13.2941  -10.9947 H   0  0  0  0  0  0  0  0  0  0  0  0
    4.5392   14.6453  -10.9947 H   0  0  0  0  0  0  0  0  0  0  0  0
    1.9375   16.4111  -12.8021 H   0  0  0  0  0  0  0  0  0  0  0  0
    3.4108   15.4083  -13.0267 H   0  0  0  0  0  0  0  0  0  0  0  0
    1.7894   14.6350  -13.0267 H   0  0  0  0  0  0  0  0  0  0  0  0
    0.4376   13.2216   -6.6034 H   0  0  0  0  0  0  0  0  0  0  0  0
    2.6841   12.4185   -6.9845 H   0  0  0  0  0  0  0  0  0  0  0  0
    3.4047   13.9585   -6.4681 H   0  0  0  0  0  0  0  0  0  0  0  0
    3.3294   11.5573   -4.9191 H   0  0  0  0  0  0  0  0  0  0  0  0
    3.6993   13.1473   -4.2578 H   0  0  0  0  0  0  0  0  0  0  0  0
    0.4814   10.6973   -3.8101 H   0  0  0  0  0  0  0  0  0  0  0  0
   -0.0220   11.6206   -5.2664 H   0  0  0  0  0  0  0  0  0  0  0  0
    1.5328   10.7209   -5.2664 H   0  0  0  0  0  0  0  0  0  0  0  0
    2.2657   13.4390   -2.3269 H   0  0  0  0  0  0  0  0  0  0  0  0
    3.0481   10.9972   -2.5777 H   0  0  0  0  0  0  0  0  0  0  0  0
    2.6656   11.7094   -0.9240 H   0  0  0  0  0  0  0  0  0  0  0  0
    1.8164    9.2526   -1.3602 H   0  0  0  0  0  0  0  0  0  0  0  0
   -1.1825   11.5770   -2.7423 H   0  0  0  0  0  0  0  0  0  0  0  0
   -1.3332   11.8741    0.3211 H   0  0  0  0  0  0  0  0  0  0  0  0
   -2.4064   12.6781   -0.9086 H   0  0  0  0  0  0  0  0  0  0  0  0
   -3.5097   10.7492    0.1780 H   0  0  0  0  0  0  0  0  0  0  0  0
   -3.2806   10.5220   -1.6002 H   0  0  0  0  0  0  0  0  0  0  0  0
   -2.7381    8.4677   -0.4846 H   0  0  0  0  0  0  0  0  0  0  0  0
   -0.9020   10.1090    1.0170 H   0  0  0  0  0  0  0  0  0  0  0  0
   -2.4458    8.1715   -2.6381 H   0  0  0  0  0  0  0  0  0  0  0  0
   -1.6621    9.6286   -3.3377 H   0  0  0  0  0  0  0  0  0  0  0  0
   -0.7954    8.0552   -3.3377 H   0  0  0  0  0  0  0  0  0  0  0  0
   -0.0844    7.7245    0.1590 H   0  0  0  0  0  0  0  0  0  0  0  0
   -0.6158    6.8694   -1.3287 H   0  0  0  0  0  0  0  0  0  0  0  0
    0.9194    7.8021   -1.3287 H   0  0  0  0  0  0  0  0  0  0  0  0
    0.1354   12.7805    0.3188 H   0  0  0  0  0  0  0  0  0  0  0  0
    1.6113   13.5785   -0.3228 H   0  0  0  0  0  0  0  0  0  0  0  0
    0.0439   14.4558   -0.3228 H   0  0  0  0  0  0  0  0  0  0  0  0
   -1.6407   13.9458   -2.3619 H   0  0  0  0  0  0  0  0  0  0  0  0
   -0.1089   14.9867   -2.3015 H   0  0  0  0  0  0  0  0  0  0  0  0
   -1.0385   13.1941   -4.5615 H   0  0  0  0  0  0  0  0  0  0  0  0
   -0.8891   14.9956   -4.5374 H   0  0  0  0  0  0  0  0  0  0  0  0
    1.7422   15.2140   -2.9950 H   0  0  0  0  0  0  0  0  0  0  0  0
    2.7776   15.1975   -4.4628 H   0  0  0  0  0  0  0  0  0  0  0  0
    1.2341   16.1163   -4.4628 H   0  0  0  0  0  0  0  0  0  0  0  0
  1  2  1  0
  2  3  1  0
  3  4  1  0
  4  5  1  0
  5  6  1  0
  6  7  1  0
  7  8  1  0
  7  9  1  0
  2 10  1  0
 10 11  1  0
 11 12  1  0
 12 13  1  0
 13 14  1  1
 13 15  1  0
 15 16  1  0
 16 17  1  0
 17 18  2  0
 18 19  1  0
 19 20  1  0
 20 21  1  0
 21 22  1  0
 22 23  1  0
 22 24  1  0
 24 25  1  0
 24 26  1  0
 19 27  1  0
 27 28  1  1
 27 29  1  0
 29 30  1  0
 30 31  1  0
 31 32  1  1
  7  5  1  0
 31 10  1  0
 31 13  1  0
 27 15  1  0
 24 18  1  0
  1 33  1  0
  1 34  1  0
  1 35  1  0
  2 36  1  1
  3 37  1  0
  3 38  1  0
  4 39  1  0
  4 40  1  0
  5 41  1  6
  8 42  1  0
  8 43  1  0
  8 44  1  0
  9 45  1  0
  9 46  1  0
  9 47  1  0
 10 48  1  6
 11 49  1  0
 11 50  1  0
 12 51  1  0
 12 52  1  0
 14 53  1  0
 14 54  1  0
 14 55  1  0
 15 56  1  6
 16 57  1  0
 16 58  1  0
 17 59  1  0
 19 60  1  6
 20 61  1  0
 20 62  1  0
 21 63  1  0
 21 64  1  0
 22 65  1  1
 23 66  1  0
 25 67  1  0
 25 68  1  0
 25 69  1  0
 26 70  1  0
 26 71  1  0
 26 72  1  0
 28 73  1  0
 28 74  1  0
 28 75  1  0
 29 76  1  0
 29 77  1  0
 30 78  1  0
 30 79  1  0
 32 80  1  0
 32 81  1  0
 32 82  1  0
M  END
>  <meeko>  (14) 
{"is_sidechain": [false], "intermolecular_energy": 2.731, "internal_energy": -0.839}

$$$$
EPH_relaxed_0001_pdb2pqr_Repair_105_r2_0001_out
     RDKit          3D

 82 86  0  0  0  0  0  0  0  0999 V2000
    0.8830   14.8400   -2.6460 C   0  0  0  0  0  0  0  0  0  0  0  0
    1.1770   14.1650   -3.9890 C   0  0  2  0  0  0  0  0  0  0  0  0
    0.5210   14.9110   -5.1690 C   0  0  0  0  0  0  0  0  0  0  0  0
    1.1790   14.6220   -6.5210 C   0  0  0  0  0  0  0  0  0  0  0  0
    0.9150   15.7160   -7.5110 C   0  0  2  0  0  0  0  0  0  0  0  0
    0.4300   15.2680   -8.7830 O   0  0  0  0  0  0  0  0  0  0  0  0
    1.7190   15.9040   -8.7840 C   0  0  0  0  0  0  0  0  0  0  0  0
    2.8490   14.9890   -9.1350 C   0  0  0  0  0  0  0  0  0  0  0  0
    1.7240   17.2530   -9.4330 C   0  0  0  0  0  0  0  0  0  0  0  0
    0.7010   12.7180   -3.9590 C   0  0  1  0  0  0  0  0  0  0  0  0
    1.8100   11.7150   -4.3720 C   0  0  0  0  0  0  0  0  0  0  0  0
    1.5980   10.4360   -3.5220 C   0  0  0  0  0  0  0  0  0  0  0  0
    0.1940   10.6130   -2.8970 C   0  0  1  0  0  0  0  0  0  0  0  0
   -0.8020   10.1840   -4.0200 C   0  0  0  0  0  0  0  0  0  0  0  0
   -0.0710    9.8390   -1.5640 C   0  0  2  0  0  0  0  0  0  0  0  0
    0.0050    8.3070   -1.6730 C   0  0  0  0  0  0  0  0  0  0  0  0
   -1.2830    7.6250   -1.9960 C   0  0  0  0  0  0  0  0  0  0  0  0
   -2.5050    8.1830   -1.9120 C   0  0  0  0  0  0  0  0  0  0  0  0
   -2.6870    9.6030   -1.3610 C   0  0  1  0  0  0  0  0  0  0  0  0
   -3.8560    9.6170   -0.3410 C   0  0  0  0  0  0  0  0  0  0  0  0
   -5.1460    9.0470   -0.9230 C   0  0  0  0  0  0  0  0  0  0  0  0
   -4.9400    7.6140   -1.4060 C   0  0  2  0  0  0  0  0  0  0  0  0
   -4.6850    6.7770   -0.2740 O   0  0  0  0  0  0  0  0  0  0  0  0
   -3.7800    7.4740   -2.4320 C   0  0  0  0  0  0  0  0  0  0  0  0
   -4.1900    8.1310   -3.7730 C   0  0  0  0  0  0  0  0  0  0  0  0
   -3.5870    5.9630   -2.7300 C   0  0  0  0  0  0  0  0  0  0  0  0
   -1.3760   10.3000   -0.7960 C   0  0  1  0  0  0  0  0  0  0  0  0
   -1.1700    9.9140    0.7010 C   0  0  0  0  0  0  0  0  0  0  0  0
   -1.5690   11.8620   -0.8290 C   0  0  0  0  0  0  0  0  0  0  0  0
   -1.1770   12.5840   -2.1330 C   0  0  0  0  0  0  0  0  0  0  0  0
    0.2180   12.1560   -2.5980 C   0  0  2  0  0  0  0  0  0  0  0  0
    1.2440   12.5940   -1.4980 C   0  0  0  0  0  0  0  0  0  0  0  0
    1.1758   14.1678   -1.8259 H   0  0  0  0  0  0  0  0  0  0  0  0
    1.4545   15.7771   -2.5737 H   0  0  0  0  0  0  0  0  0  0  0  0
   -0.1924   15.0598   -2.5737 H   0  0  0  0  0  0  0  0  0  0  0  0
    2.2657   14.1947   -4.1431 H   0  0  0  0  0  0  0  0  0  0  0  0
   -0.5357   14.6106   -5.2256 H   0  0  0  0  0  0  0  0  0  0  0  0
    0.6412   15.9873   -4.9761 H   0  0  0  0  0  0  0  0  0  0  0  0
    2.2652   14.5271   -6.3758 H   0  0  0  0  0  0  0  0  0  0  0  0
    0.7515   13.6895   -6.9182 H   0  0  0  0  0  0  0  0  0  0  0  0
    0.6370   16.4107   -6.7047 H   0  0  0  0  0  0  0  0  0  0  0  0
    3.3151   14.6116   -8.2129 H   0  0  0  0  0  0  0  0  0  0  0  0
    2.4662   14.1433   -9.7251 H   0  0  0  0  0  0  0  0  0  0  0  0
    3.5966   15.5393   -9.7251 H   0  0  0  0  0  0  0  0  0  0  0  0
    1.7269   18.0330   -8.6574 H   0  0  0  0  0  0  0  0  0  0  0  0
    2.6225   17.3553  -10.0592 H   0  0  0  0  0  0  0  0  0  0  0  0
    0.8263   17.3619  -10.0592 H   0  0  0  0  0  0  0  0  0  0  0  0
   -0.1447   12.7883   -4.6589 H   0  0  0  0  0  0  0  0  0  0  0  0
    1.7250   11.4764   -5.4424 H   0  0  0  0  0  0  0  0  0  0  0  0
    2.8099   12.1405   -4.2013 H   0  0  0  0  0  0  0  0  0  0  0  0
    1.6305    9.5380   -4.1564 H   0  0  0  0  0  0  0  0  0  0  0  0
    2.3810   10.3060   -2.7604 H   0  0  0  0  0  0  0  0  0  0  0  0
   -1.7211    9.7881   -3.5633 H   0  0  0  0  0  0  0  0  0  0  0  0
   -1.0486   11.0557   -4.6440 H   0  0  0  0  0  0  0  0  0  0  0  0
   -0.3381    9.4059   -4.6440 H   0  0  0  0  0  0  0  0  0  0  0  0
    0.7871   10.1367   -0.9435 H   0  0  0  0  0  0  0  0  0  0  0  0
    0.7286    8.0582   -2.4632 H   0  0  0  0  0  0  0  0  0  0  0  0
    0.2985    7.9457   -0.6764 H   0  0  0  0  0  0  0  0  0  0  0  0
   -1.2289    6.5786   -2.3308 H   0  0  0  0  0  0  0  0  0  0  0  0
   -2.9388   10.2349   -2.2255 H   0  0  0  0  0  0  0  0  0  0  0  0
   -3.5679    9.0159    0.5340 H   0  0  0  0  0  0  0  0  0  0  0  0
   -4.0475   10.6648   -0.0665 H   0  0  0  0  0  0  0  0  0  0  0  0
   -5.9260    9.0569   -0.1475 H   0  0  0  0  0  0  0  0  0  0  0  0
   -5.4482    9.6664   -1.7803 H   0  0  0  0  0  0  0  0  0  0  0  0
   -5.8587    7.3068   -1.9273 H   0  0  0  0  0  0  0  0  0  0  0  0
   -3.7680    6.9370    0.0090 H   0  0  0  0  0  0  0  0  0  0  0  0
   -4.7625    9.0485   -3.5719 H   0  0  0  0  0  0  0  0  0  0  0  0
   -3.2874    8.3811   -4.3498 H   0  0  0  0  0  0  0  0  0  0  0  0
   -4.8113    7.4301   -4.3498 H   0  0  0  0  0  0  0  0  0  0  0  0
   -3.5162    5.4086   -1.7826 H   0  0  0  0  0  0  0  0  0  0  0  0
   -4.4449    5.5910   -3.3093 H   0  0  0  0  0  0  0  0  0  0  0  0
   -2.6631    5.8186   -3.3093 H   0  0  0  0  0  0  0  0  0  0  0  0
   -1.5903   10.7015    1.3439 H   0  0  0  0  0  0  0  0  0  0  0  0
   -1.6796    8.9613    0.9075 H   0  0  0  0  0  0  0  0  0  0  0  0
   -0.0949    9.8070    0.9075 H   0  0  0  0  0  0  0  0  0  0  0  0
   -2.6326   12.0698   -0.6406 H   0  0  0  0  0  0  0  0  0  0  0  0
   -0.8802   12.2530   -0.0657 H   0  0  0  0  0  0  0  0  0  0  0  0
   -1.9091   12.3361   -2.9157 H   0  0  0  0  0  0  0  0  0  0  0  0
   -1.1670   13.6677   -1.9447 H   0  0  0  0  0  0  0  0  0  0  0  0
    0.8144   12.4106   -0.5021 H   0  0  0  0  0  0  0  0  0  0  0  0
    2.1716   12.0134   -1.6098 H   0  0  0  0  0  0  0  0  0  0  0  0
    1.4663   13.6655   -1.6098 H   0  0  0  0  0  0  0  0  0  0  0  0
  1  2  1  0
  2  3  1  0
  3  4  1  0
  4  5  1  0
  5  6  1  0
  6  7  1  0
  7  8  1  0
  7  9  1  0
  2 10  1  0
 10 11  1  0
 11 12  1  0
 12 13  1  0
 13 14  1  6
 13 15  1  0
 15 16  1  0
 16 17  1  0
 17 18  2  0
 18 19  1  0
 19 20  1  0
 20 21  1  0
 21 22  1  0
 22 23  1  0
 22 24  1  0
 24 25  1  0
 24 26  1  0
 19 27  1  0
 27 28  1  1
 27 29  1  0
 29 30  1  0
 30 31  1  0
 31 32  1  1
  7  5  1  0
 31 10  1  0
 31 13  1  0
 27 15  1  0
 24 18  1  0
  1 33  1  0
  1 34  1  0
  1 35  1  0
  2 36  1  6
  3 37  1  0
  3 38  1  0
  4 39  1  0
  4 40  1  0
  5 41  1  1
  8 42  1  0
  8 43  1  0
  8 44  1  0
  9 45  1  0
  9 46  1  0
  9 47  1  0
 10 48  1  6
 11 49  1  0
 11 50  1  0
 12 51  1  0
 12 52  1  0
 14 53  1  0
 14 54  1  0
 14 55  1  0
 15 56  1  1
 16 57  1  0
 16 58  1  0
 17 59  1  0
 19 60  1  6
 20 61  1  0
 20 62  1  0
 21 63  1  0
 21 64  1  0
 22 65  1  6
 23 66  1  0
 25 67  1  0
 25 68  1  0
 25 69  1  0
 26 70  1  0
 26 71  1  0
 26 72  1  0
 28 73  1  0
 28 74  1  0
 28 75  1  0
 29 76  1  0
 29 77  1  0
 30 78  1  0
 30 79  1  0
 32 80  1  0
 32 81  1  0
 32 82  1  0
M  END
>  <meeko>  (15) 
{"is_sidechain": [false], "intermolecular_energy": 2.731, "internal_energy": -0.839}

$$$$
EPH_relaxed_0001_pdb2pqr_Repair_105_r2_0001_out
     RDKit          3D

 82 86  0  0  0  0  0  0  0  0999 V2000
    1.8810   10.7630   -5.1290 C   0  0  0  0  0  0  0  0  0  0  0  0
    1.2310   10.6750   -3.7450 C   0  0  2  0  0  0  0  0  0  0  0  0
    0.0560    9.6770   -3.7180 C   0  0  0  0  0  0  0  0  0  0  0  0
   -0.0730    8.9130   -2.3970 C   0  0  0  0  0  0  0  0  0  0  0  0
   -1.4970    8.8380   -1.9370 C   0  0  2  0  0  0  0  0  0  0  0  0
   -2.1480   10.1080   -1.7950 O   0  0  0  0  0  0  0  0  0  0  0  0
   -1.9690    9.3490   -0.5890 C   0  0  0  0  0  0  0  0  0  0  0  0
   -1.0190    9.9710    0.3860 C   0  0  0  0  0  0  0  0  0  0  0  0
   -3.2440    8.8050   -0.0240 C   0  0  0  0  0  0  0  0  0  0  0  0
    0.7530   12.0540   -3.3070 C   0  0  1  0  0  0  0  0  0  0  0  0
   -0.7620   12.0830   -2.9720 C   0  0  0  0  0  0  0  0  0  0  0  0
   -0.9420   13.0820   -1.8000 C   0  0  0  0  0  0  0  0  0  0  0  0
    0.4060   13.8370   -1.7210 C   0  0  1  0  0  0  0  0  0  0  0  0
    0.3200   14.9300   -2.8320 C   0  0  0  0  0  0  0  0  0  0  0  0
    0.7710   14.4540   -0.3310 C   0  0  2  0  0  0  0  0  0  0  0  0
   -0.1960   15.5380    0.1760 C   0  0  0  0  0  0  0  0  0  0  0  0
    0.1470   16.9350   -0.2200 C   0  0  0  0  0  0  0  0  0  0  0  0
    1.3340   17.3400   -0.7090 C   0  0  0  0  0  0  0  0  0  0  0  0
    2.5160   16.3680   -0.8150 C   0  0  1  0  0  0  0  0  0  0  0  0
    3.7960   17.0450   -0.2590 C   0  0  0  0  0  0  0  0  0  0  0  0
    4.0840   18.3870   -0.9250 C   0  0  0  0  0  0  0  0  0  0  0  0
    2.9090   19.3470   -0.7480 C   0  0  2  0  0  0  0  0  0  0  0  0
    2.7910   19.6790    0.6390 O   0  0  0  0  0  0  0  0  0  0  0  0
    1.5620   18.7680   -1.2640 C   0  0  0  0  0  0  0  0  0  0  0  0
    1.5870   18.6900   -2.8100 C   0  0  0  0  0  0  0  0  0  0  0  0
    0.4390   19.7750   -0.8980 C   0  0  0  0  0  0  0  0  0  0  0  0
    2.2780   14.9190   -0.2050 C   0  0  1  0  0  0  0  0  0  0  0  0
    2.6180   14.9200    1.3170 C   0  0  0  0  0  0  0  0  0  0  0  0
    3.2760   13.9070   -0.8820 C   0  0  0  0  0  0  0  0  0  0  0  0
    2.8080   13.2390   -2.1890 C   0  0  0  0  0  0  0  0  0  0  0  0
    1.3990   12.6590   -2.0350 C   0  0  2  0  0  0  0  0  0  0  0  0
    1.4590   11.5420   -0.9390 C   0  0  0  0  0  0  0  0  0  0  0  0
    2.9653   10.9098   -5.0162 H   0  0  0  0  0  0  0  0  0  0  0  0
    1.6928    9.8312   -5.6824 H   0  0  0  0  0  0  0  0  0  0  0  0
    1.4518   11.6112   -5.6824 H   0  0  0  0  0  0  0  0  0  0  0  0
    1.9939   10.3059   -3.0438 H   0  0  0  0  0  0  0  0  0  0  0  0
   -0.8768   10.2342   -3.8894 H   0  0  0  0  0  0  0  0  0  0  0  0
    0.2498    8.9311   -4.5029 H   0  0  0  0  0  0  0  0  0  0  0  0
    0.3107    7.8916   -2.5370 H   0  0  0  0  0  0  0  0  0  0  0  0
    0.5066    9.4504   -1.6320 H   0  0  0  0  0  0  0  0  0  0  0  0
   -1.6371    7.8760   -2.4516 H   0  0  0  0  0  0  0  0  0  0  0  0
   -1.3515    9.7533    1.4117 H   0  0  0  0  0  0  0  0  0  0  0  0
   -0.0117    9.5570    0.2314 H   0  0  0  0  0  0  0  0  0  0  0  0
   -0.9956   11.0598    0.2314 H   0  0  0  0  0  0  0  0  0  0  0  0
   -3.1963    8.8254    1.0748 H   0  0  0  0  0  0  0  0  0  0  0  0
   -4.0888    9.4210   -0.3658 H   0  0  0  0  0  0  0  0  0  0  0  0
   -3.3839    7.7688   -0.3658 H   0  0  0  0  0  0  0  0  0  0  0  0
    1.0431   12.6396   -4.1918 H   0  0  0  0  0  0  0  0  0  0  0  0
   -1.3372   12.4186   -3.8475 H   0  0  0  0  0  0  0  0  0  0  0  0
   -1.1248   11.0817   -2.6967 H   0  0  0  0  0  0  0  0  0  0  0  0
   -1.7665   13.7799   -2.0077 H   0  0  0  0  0  0  0  0  0  0  0  0
   -1.1934   12.5768   -0.8558 H   0  0  0  0  0  0  0  0  0  0  0  0
    0.2419   15.9227   -2.3645 H   0  0  0  0  0  0  0  0  0  0  0  0
    1.2241   14.8893   -3.4572 H   0  0  0  0  0  0  0  0  0  0  0  0
   -0.5666   14.7484   -3.4572 H   0  0  0  0  0  0  0  0  0  0  0  0
    0.6426   13.5985    0.3484 H   0  0  0  0  0  0  0  0  0  0  0  0
   -1.1980   15.3099   -0.2165 H   0  0  0  0  0  0  0  0  0  0  0  0
   -0.1355   15.5098    1.2740 H   0  0  0  0  0  0  0  0  0  0  0  0
   -0.6362   17.6984   -0.1025 H   0  0  0  0  0  0  0  0  0  0  0  0
    2.6416   16.1580   -1.8874 H   0  0  0  0  0  0  0  0  0  0  0  0
    3.6680   17.2077    0.8214 H   0  0  0  0  0  0  0  0  0  0  0  0
    4.6451   16.3783   -0.4701 H   0  0  0  0  0  0  0  0  0  0  0  0
    4.9823   18.8295   -0.4697 H   0  0  0  0  0  0  0  0  0  0  0  0
    4.2413   18.2188   -2.0006 H   0  0  0  0  0  0  0  0  0  0  0  0
    3.1181   20.2409   -1.3541 H   0  0  0  0  0  0  0  0  0  0  0  0
    2.7630   20.6490    0.7070 H   0  0  0  0  0  0  0  0  0  0  0  0
    1.9090   17.6853   -3.1213 H   0  0  0  0  0  0  0  0  0  0  0  0
    0.5796   18.8905   -3.2036 H   0  0  0  0  0  0  0  0  0  0  0  0
    2.2902   19.4388   -3.2036 H   0  0  0  0  0  0  0  0  0  0  0  0
    0.3558   19.8496    0.1963 H   0  0  0  0  0  0  0  0  0  0  0  0
    0.6823   20.7632   -1.3155 H   0  0  0  0  0  0  0  0  0  0  0  0
   -0.5169   19.4258   -1.3155 H   0  0  0  0  0  0  0  0  0  0  0  0
    1.6858   14.9173    1.9009 H   0  0  0  0  0  0  0  0  0  0  0  0
    3.2067   14.0236    1.5618 H   0  0  0  0  0  0  0  0  0  0  0  0
    3.2014   15.8199    1.5618 H   0  0  0  0  0  0  0  0  0  0  0  0
    4.2054   14.4528   -1.1016 H   0  0  0  0  0  0  0  0  0  0  0  0
    3.3843   13.0836   -0.1607 H   0  0  0  0  0  0  0  0  0  0  0  0
    2.8024   13.9885   -2.9941 H   0  0  0  0  0  0  0  0  0  0  0  0
    3.5001   12.4189   -2.4307 H   0  0  0  0  0  0  0  0  0  0  0  0
    1.4341   12.0052    0.0584 H   0  0  0  0  0  0  0  0  0  0  0  0
    0.5957   10.8699   -1.0528 H   0  0  0  0  0  0  0  0  0  0  0  0
    2.3894   10.9663   -1.0528 H   0  0  0  0  0  0  0  0  0  0  0  0
  1  2  1  0
  2  3  1  0
  3  4  1  0
  4  5  1  0
  5  6  1  0
  6  7  1  0
  7  8  1  0
  7  9  1  0
  2 10  1  0
 10 11  1  0
 11 12  1  0
 12 13  1  0
 13 14  1  6
 13 15  1  0
 15 16  1  0
 16 17  1  0
 17 18  2  0
 18 19  1  0
 19 20  1  0
 20 21  1  0
 21 22  1  0
 22 23  1  0
 22 24  1  0
 24 25  1  0
 24 26  1  0
 19 27  1  0
 27 28  1  1
 27 29  1  0
 29 30  1  0
 30 31  1  0
 31 32  1  1
  7  5  1  0
 31 10  1  0
 31 13  1  0
 27 15  1  0
 24 18  1  0
  1 33  1  0
  1 34  1  0
  1 35  1  0
  2 36  1  1
  3 37  1  0
  3 38  1  0
  4 39  1  0
  4 40  1  0
  5 41  1  6
  8 42  1  0
  8 43  1  0
  8 44  1  0
  9 45  1  0
  9 46  1  0
  9 47  1  0
 10 48  1  6
 11 49  1  0
 11 50  1  0
 12 51  1  0
 12 52  1  0
 14 53  1  0
 14 54  1  0
 14 55  1  0
 15 56  1  1
 16 57  1  0
 16 58  1  0
 17 59  1  0
 19 60  1  6
 20 61  1  0
 20 62  1  0
 21 63  1  0
 21 64  1  0
 22 65  1  6
 23 66  1  0
 25 67  1  0
 25 68  1  0
 25 69  1  0
 26 70  1  0
 26 71  1  0
 26 72  1  0
 28 73  1  0
 28 74  1  0
 28 75  1  0
 29 76  1  0
 29 77  1  0
 30 78  1  0
 30 79  1  0
 32 80  1  0
 32 81  1  0
 32 82  1  0
M  END
>  <meeko>  (16) 
{"is_sidechain": [false], "intermolecular_energy": 2.731, "internal_energy": -0.839}

$$$$
EPH_relaxed_0001_pdb2pqr_Repair_105_r2_0001_out
     RDKit          3D

 82 86  0  0  0  0  0  0  0  0999 V2000
   -1.9030    9.5750   -0.1550 C   0  0  0  0  0  0  0  0  0  0  0  0
   -1.5670   10.5790   -1.2620 C   0  0  2  0  0  0  0  0  0  0  0  0
   -0.7010    9.9500   -2.3720 C   0  0  0  0  0  0  0  0  0  0  0  0
    0.6550    9.4400   -1.8800 C   0  0  0  0  0  0  0  0  0  0  0  0
    1.7770    9.9140   -2.7530 C   0  0  2  0  0  0  0  0  0  0  0  0
    2.9590    9.1050   -2.7030 O   0  0  0  0  0  0  0  0  0  0  0  0
    3.0900   10.4500   -2.2120 C   0  0  0  0  0  0  0  0  0  0  0  0
    3.3490   10.5380   -0.7410 C   0  0  0  0  0  0  0  0  0  0  0  0
    3.9180   11.3340   -3.0910 C   0  0  0  0  0  0  0  0  0  0  0  0
   -0.8560   11.7890   -0.6690 C   0  0  1  0  0  0  0  0  0  0  0  0
    0.2970   11.3920    0.2920 C   0  0  0  0  0  0  0  0  0  0  0  0
    1.4100   12.4570    0.1190 C   0  0  0  0  0  0  0  0  0  0  0  0
    0.7360   13.6000   -0.6760 C   0  0  1  0  0  0  0  0  0  0  0  0
   -0.0560   14.4190    0.3920 C   0  0  0  0  0  0  0  0  0  0  0  0
    1.6880   14.5140   -1.5140 C   0  0  2  0  0  0  0  0  0  0  0  0
    2.7220   15.3050   -0.6940 C   0  0  0  0  0  0  0  0  0  0  0  0
    2.2800   16.6580   -0.2440 C   0  0  0  0  0  0  0  0  0  0  0  0
    1.2180   17.3320   -0.7210 C   0  0  0  0  0  0  0  0  0  0  0  0
    0.3910   16.7770   -1.8880 C   0  0  1  0  0  0  0  0  0  0  0  0
    0.1390   17.9030   -2.9250 C   0  0  0  0  0  0  0  0  0  0  0  0
   -0.4930   19.1430   -2.3010 C   0  0  0  0  0  0  0  0  0  0  0  0
    0.3860   19.6990   -1.1830 C   0  0  2  0  0  0  0  0  0  0  0  0
    1.6000   20.1940   -1.7560 O   0  0  0  0  0  0  0  0  0  0  0  0
    0.7150   18.6510   -0.0840 C   0  0  0  0  0  0  0  0  0  0  0  0
   -0.5600   18.3400    0.7370 C   0  0  0  0  0  0  0  0  0  0  0  0
    1.7210   19.2990    0.9060 C   0  0  0  0  0  0  0  0  0  0  0  0
    0.9430   15.4440   -2.5550 C   0  0  1  0  0  0  0  0  0  0  0  0
    1.9820   15.7950   -3.6630 C   0  0  0  0  0  0  0  0  0  0  0  0
   -0.2440   14.7030   -3.2780 C   0  0  0  0  0  0  0  0  0  0  0  0
   -1.0730   13.7230   -2.4260 C   0  0  0  0  0  0  0  0  0  0  0  0
   -0.1630   12.7610   -1.6560 C   0  0  2  0  0  0  0  0  0  0  0  0
    0.6300   11.9090   -2.7040 C   0  0  0  0  0  0  0  0  0  0  0  0
   -1.7456   10.0454    0.8268 H   0  0  0  0  0  0  0  0  0  0  0  0
   -2.9541    9.2643   -0.2484 H   0  0  0  0  0  0  0  0  0  0  0  0
   -1.2506    8.6943   -0.2484 H   0  0  0  0  0  0  0  0  0  0  0  0
   -2.5153   10.8945   -1.7216 H   0  0  0  0  0  0  0  0  0  0  0  0
   -1.2536    9.1036   -2.8059 H   0  0  0  0  0  0  0  0  0  0  0  0
   -0.4986   10.7413   -3.1088 H   0  0  0  0  0  0  0  0  0  0  0  0
    0.8223    9.8044   -0.8557 H   0  0  0  0  0  0  0  0  0  0  0  0
    0.6387    8.3405   -1.9104 H   0  0  0  0  0  0  0  0  0  0  0  0
    1.0648   10.3133   -3.4901 H   0  0  0  0  0  0  0  0  0  0  0  0
    2.4471   10.2315   -0.1909 H   0  0  0  0  0  0  0  0  0  0  0  0
    4.1841    9.8732   -0.4753 H   0  0  0  0  0  0  0  0  0  0  0  0
    3.6062   11.5740   -0.4753 H   0  0  0  0  0  0  0  0  0  0  0  0
    4.5373   11.9952   -2.4670 H   0  0  0  0  0  0  0  0  0  0  0  0
    4.5682   10.7143   -3.7260 H   0  0  0  0  0  0  0  0  0  0  0  0
    3.2572   11.9423   -3.7260 H   0  0  0  0  0  0  0  0  0  0  0  0
   -1.7102   12.2878   -0.1878 H   0  0  0  0  0  0  0  0  0  0  0  0
   -0.0620   11.3847    1.3317 H   0  0  0  0  0  0  0  0  0  0  0  0
    0.6746   10.3850    0.0611 H   0  0  0  0  0  0  0  0  0  0  0  0
    1.7579   12.8177    1.0982 H   0  0  0  0  0  0  0  0  0  0  0  0
    2.2950   12.0557   -0.3965 H   0  0  0  0  0  0  0  0  0  0  0  0
    0.2511   14.1014    1.3994 H   0  0  0  0  0  0  0  0  0  0  0  0
    0.1571   15.4906    0.2645 H   0  0  0  0  0  0  0  0  0  0  0  0
   -1.1341   14.2419    0.2645 H   0  0  0  0  0  0  0  0  0  0  0  0
    2.2657   13.7812   -2.0964 H   0  0  0  0  0  0  0  0  0  0  0  0
    2.9707   14.7141    0.1999 H   0  0  0  0  0  0  0  0  0  0  0  0
    3.5780   15.4722   -1.3643 H   0  0  0  0  0  0  0  0  0  0  0  0
    2.8728   17.1450    0.5443 H   0  0  0  0  0  0  0  0  0  0  0  0
   -0.5654   16.4481   -1.4554 H   0  0  0  0  0  0  0  0  0  0  0  0
    1.1005   18.1872   -3.3774 H   0  0  0  0  0  0  0  0  0  0  0  0
   -0.5631   17.5132   -3.6768 H   0  0  0  0  0  0  0  0  0  0  0  0
   -0.6184   19.9125   -3.0770 H   0  0  0  0  0  0  0  0  0  0  0  0
   -1.4682   18.8639   -1.8754 H   0  0  0  0  0  0  0  0  0  0  0  0
   -0.1773   20.5041   -0.6886 H   0  0  0  0  0  0  0  0  0  0  0  0
    1.9480   20.8800   -1.1610 H   0  0  0  0  0  0  0  0  0  0  0  0
   -0.3276   18.3967    1.8107 H   0  0  0  0  0  0  0  0  0  0  0  0
   -1.3420   19.0737    0.4919 H   0  0  0  0  0  0  0  0  0  0  0  0
   -0.9163   17.3286    0.4919 H   0  0  0  0  0  0  0  0  0  0  0  0
    1.4027   19.0940    1.9388 H   0  0  0  0  0  0  0  0  0  0  0  0
    2.7228   18.8759    0.7402 H   0  0  0  0  0  0  0  0  0  0  0  0
    1.7500   20.3860    0.7402 H   0  0  0  0  0  0  0  0  0  0  0  0
    2.9247   16.1135   -3.1940 H   0  0  0  0  0  0  0  0  0  0  0  0
    2.1647   14.9087   -4.2884 H   0  0  0  0  0  0  0  0  0  0  0  0
    1.5898   16.6105   -4.2884 H   0  0  0  0  0  0  0  0  0  0  0  0
   -0.9302   15.4713   -3.6637 H   0  0  0  0  0  0  0  0  0  0  0  0
    0.2326   14.0811   -4.0500 H   0  0  0  0  0  0  0  0  0  0  0  0
   -1.6809   14.2946   -1.7093 H   0  0  0  0  0  0  0  0  0  0  0  0
   -1.7183   13.1353   -3.0955 H   0  0  0  0  0  0  0  0  0  0  0  0
    1.2884   11.2016   -2.1786 H   0  0  0  0  0  0  0  0  0  0  0  0
   -0.0782   11.3516   -3.3347 H   0  0  0  0  0  0  0  0  0  0  0  0
    1.2367   12.5754   -3.3347 H   0  0  0  0  0  0  0  0  0  0  0  0
  1  2  1  0
  2  3  1  0
  3  4  1  0
  4  5  1  0
  5  6  1  0
  6  7  1  0
  7  8  1  0
  7  9  1  0
  2 10  1  0
 10 11  1  0
 11 12  1  0
 12 13  1  0
 13 14  1  1
 13 15  1  0
 15 16  1  0
 16 17  1  0
 17 18  2  0
 18 19  1  0
 19 20  1  0
 20 21  1  0
 21 22  1  0
 22 23  1  0
 22 24  1  0
 24 25  1  0
 24 26  1  0
 19 27  1  0
 27 28  1  6
 27 29  1  0
 29 30  1  0
 30 31  1  0
 31 32  1  6
  7  5  1  0
 31 10  1  0
 31 13  1  0
 27 15  1  0
 24 18  1  0
  1 33  1  0
  1 34  1  0
  1 35  1  0
  2 36  1  6
  3 37  1  0
  3 38  1  0
  4 39  1  0
  4 40  1  0
  5 41  1  6
  8 42  1  0
  8 43  1  0
  8 44  1  0
  9 45  1  0
  9 46  1  0
  9 47  1  0
 10 48  1  1
 11 49  1  0
 11 50  1  0
 12 51  1  0
 12 52  1  0
 14 53  1  0
 14 54  1  0
 14 55  1  0
 15 56  1  6
 16 57  1  0
 16 58  1  0
 17 59  1  0
 19 60  1  1
 20 61  1  0
 20 62  1  0
 21 63  1  0
 21 64  1  0
 22 65  1  1
 23 66  1  0
 25 67  1  0
 25 68  1  0
 25 69  1  0
 26 70  1  0
 26 71  1  0
 26 72  1  0
 28 73  1  0
 28 74  1  0
 28 75  1  0
 29 76  1  0
 29 77  1  0
 30 78  1  0
 30 79  1  0
 32 80  1  0
 32 81  1  0
 32 82  1  0
M  END
>  <meeko>  (17) 
{"is_sidechain": [false], "intermolecular_energy": 2.731, "internal_energy": -0.839}

$$$$
EPH_relaxed_0001_pdb2pqr_Repair_105_r2_0001_out
     RDKit          3D

 82 86  0  0  0  0  0  0  0  0999 V2000
    0.8220   14.7740   -4.7450 C   0  0  0  0  0  0  0  0  0  0  0  0
    0.5940   14.1830   -3.3510 C   0  0  2  0  0  0  0  0  0  0  0  0
    1.8350   14.3310   -2.4480 C   0  0  0  0  0  0  0  0  0  0  0  0
    1.6520   15.3390   -1.3110 C   0  0  0  0  0  0  0  0  0  0  0  0
    1.2520   16.6890   -1.8250 C   0  0  2  0  0  0  0  0  0  0  0  0
    2.1700   17.2680   -2.7620 O   0  0  0  0  0  0  0  0  0  0  0  0
    2.0160   17.9630   -1.5140 C   0  0  0  0  0  0  0  0  0  0  0  0
    3.2400   17.9480   -0.6540 C   0  0  0  0  0  0  0  0  0  0  0  0
    1.3020   19.2730   -1.6370 C   0  0  0  0  0  0  0  0  0  0  0  0
    0.2050   12.7140   -3.4660 C   0  0  1  0  0  0  0  0  0  0  0  0
    1.4060   11.8060   -3.8460 C   0  0  0  0  0  0  0  0  0  0  0  0
    1.1970   10.4580   -3.1100 C   0  0  0  0  0  0  0  0  0  0  0  0
   -0.2640   10.5110   -2.6060 C   0  0  1  0  0  0  0  0  0  0  0  0
   -1.1300   10.1140   -3.8430 C   0  0  0  0  0  0  0  0  0  0  0  0
   -0.5980    9.6260   -1.3610 C   0  0  2  0  0  0  0  0  0  0  0  0
   -0.4200    8.1120   -1.5690 C   0  0  0  0  0  0  0  0  0  0  0  0
   -1.6310    7.3890   -2.0560 C   0  0  0  0  0  0  0  0  0  0  0  0
   -2.8880    7.8710   -2.0460 C   0  0  0  0  0  0  0  0  0  0  0  0
   -3.2030    9.2340   -1.4160 C   0  0  1  0  0  0  0  0  0  0  0  0
   -4.4550    9.1080   -0.5100 C   0  0  0  0  0  0  0  0  0  0  0  0
   -5.6530    8.5150   -1.2450 C   0  0  0  0  0  0  0  0  0  0  0  0
   -5.3190    7.1360   -1.8080 C   0  0  2  0  0  0  0  0  0  0  0  0
   -5.1130    6.2310   -0.7180 O   0  0  0  0  0  0  0  0  0  0  0  0
   -4.0670    7.1360   -2.7290 C   0  0  0  0  0  0  0  0  0  0  0  0
   -4.3960    7.8700   -4.0530 C   0  0  0  0  0  0  0  0  0  0  0  0
   -3.7570    5.6640   -3.1140 C   0  0  0  0  0  0  0  0  0  0  0  0
   -1.9900    9.9570   -0.6850 C   0  0  1  0  0  0  0  0  0  0  0  0
   -1.8940    9.4710    0.7930 C   0  0  0  0  0  0  0  0  0  0  0  0
   -2.2740   11.5040   -0.6260 C   0  0  0  0  0  0  0  0  0  0  0  0
   -1.8140   12.3420   -1.8350 C   0  0  0  0  0  0  0  0  0  0  0  0
   -0.3600   12.0260   -2.1980 C   0  0  2  0  0  0  0  0  0  0  0  0
    0.5380   12.4350   -0.9810 C   0  0  0  0  0  0  0  0  0  0  0  0
    1.2164   15.7964   -4.6498 H   0  0  0  0  0  0  0  0  0  0  0  0
    1.5446   14.1518   -5.2933 H   0  0  0  0  0  0  0  0  0  0  0  0
   -0.1313   14.7983   -5.2933 H   0  0  0  0  0  0  0  0  0  0  0  0
   -0.2249   14.7480   -2.8818 H   0  0  0  0  0  0  0  0  0  0  0  0
    2.0635   13.3490   -2.0081 H   0  0  0  0  0  0  0  0  0  0  0  0
    2.6512   14.7069   -3.0825 H   0  0  0  0  0  0  0  0  0  0  0  0
    0.8700   14.9707   -0.6307 H   0  0  0  0  0  0  0  0  0  0  0  0
    2.6137   15.4430   -0.7873 H   0  0  0  0  0  0  0  0  0  0  0  0
    0.1859   16.4301   -1.7451 H   0  0  0  0  0  0  0  0  0  0  0  0
    2.9439   17.9516    0.4054 H   0  0  0  0  0  0  0  0  0  0  0  0
    3.8271   17.0426   -0.8675 H   0  0  0  0  0  0  0  0  0  0  0  0
    3.8491   18.8387   -0.8675 H   0  0  0  0  0  0  0  0  0  0  0  0
    1.0863   19.6687   -0.6335 H   0  0  0  0  0  0  0  0  0  0  0  0
    1.9361   19.9863   -2.1839 H   0  0  0  0  0  0  0  0  0  0  0  0
    0.3589   19.1266   -2.1839 H   0  0  0  0  0  0  0  0  0  0  0  0
   -0.5796   12.7907   -4.2331 H   0  0  0  0  0  0  0  0  0  0  0  0
    1.4294   11.6442   -4.9338 H   0  0  0  0  0  0  0  0  0  0  0  0
    2.3600   12.2707   -3.5563 H   0  0  0  0  0  0  0  0  0  0  0  0
    1.3395    9.6129   -3.7996 H   0  0  0  0  0  0  0  0  0  0  0  0
    1.9161   10.3146   -2.2901 H   0  0  0  0  0  0  0  0  0  0  0  0
   -2.0803    9.6784   -3.5007 H   0  0  0  0  0  0  0  0  0  0  0  0
   -1.3342   11.0084   -4.4499 H   0  0  0  0  0  0  0  0  0  0  0  0
   -0.5856    9.3755   -4.4499 H   0  0  0  0  0  0  0  0  0  0  0  0
    0.1830    9.9224   -0.6454 H   0  0  0  0  0  0  0  0  0  0  0  0
    0.3841    7.9622   -2.3045 H   0  0  0  0  0  0  0  0  0  0  0  0
   -0.1936    7.6931   -0.5774 H   0  0  0  0  0  0  0  0  0  0  0  0
   -1.4841    6.3755   -2.4575 H   0  0  0  0  0  0  0  0  0  0  0  0
   -3.4155    9.9149   -2.2534 H   0  0  0  0  0  0  0  0  0  0  0  0
   -4.2086    8.4591    0.3434 H   0  0  0  0  0  0  0  0  0  0  0  0
   -4.7327   10.1207   -0.1824 H   0  0  0  0  0  0  0  0  0  0  0  0
   -6.4960    8.4234   -0.5443 H   0  0  0  0  0  0  0  0  0  0  0  0
   -5.9176    9.1806   -2.0798 H   0  0  0  0  0  0  0  0  0  0  0  0
   -6.1678    6.8209   -2.4326 H   0  0  0  0  0  0  0  0  0  0  0  0
   -5.1840    6.7420    0.1060 H   0  0  0  0  0  0  0  0  0  0  0  0
   -4.8364    8.8525   -3.8279 H   0  0  0  0  0  0  0  0  0  0  0  0
   -3.4730    8.0067   -4.6356 H   0  0  0  0  0  0  0  0  0  0  0  0
   -5.1122    7.2720   -4.6356 H   0  0  0  0  0  0  0  0  0  0  0  0
   -3.6308    5.0648   -2.2002 H   0  0  0  0  0  0  0  0  0  0  0  0
   -4.5892    5.2571   -3.7073 H   0  0  0  0  0  0  0  0  0  0  0  0
   -2.8314    5.6273   -3.7073 H   0  0  0  0  0  0  0  0  0  0  0  0
   -2.0620   10.3214    1.4702 H   0  0  0  0  0  0  0  0  0  0  0  0
   -2.6573    8.7003    0.9759 H   0  0  0  0  0  0  0  0  0  0  0  0
   -0.8950    9.0484    0.9759 H   0  0  0  0  0  0  0  0  0  0  0  0
   -3.3607   11.6390   -0.5217 H   0  0  0  0  0  0  0  0  0  0  0  0
   -1.6798   11.8734    0.2228 H   0  0  0  0  0  0  0  0  0  0  0  0
   -2.4581   12.1140   -2.6971 H   0  0  0  0  0  0  0  0  0  0  0  0
   -1.8868   13.4076   -1.5719 H   0  0  0  0  0  0  0  0  0  0  0  0
    0.0150   12.1968   -0.0430 H   0  0  0  0  0  0  0  0  0  0  0  0
    1.4870   11.8803   -1.0228 H   0  0  0  0  0  0  0  0  0  0  0  0
    0.7424   13.5150   -1.0228 H   0  0  0  0  0  0  0  0  0  0  0  0
  1  2  1  0
  2  3  1  0
  3  4  1  0
  4  5  1  0
  5  6  1  0
  6  7  1  0
  7  8  1  0
  7  9  1  0
  2 10  1  0
 10 11  1  0
 11 12  1  0
 12 13  1  0
 13 14  1  6
 13 15  1  0
 15 16  1  0
 16 17  1  0
 17 18  2  0
 18 19  1  0
 19 20  1  0
 20 21  1  0
 21 22  1  0
 22 23  1  0
 22 24  1  0
 24 25  1  0
 24 26  1  0
 19 27  1  0
 27 28  1  1
 27 29  1  0
 29 30  1  0
 30 31  1  0
 31 32  1  1
  7  5  1  0
 31 10  1  0
 31 13  1  0
 27 15  1  0
 24 18  1  0
  1 33  1  0
  1 34  1  0
  1 35  1  0
  2 36  1  1
  3 37  1  0
  3 38  1  0
  4 39  1  0
  4 40  1  0
  5 41  1  6
  8 42  1  0
  8 43  1  0
  8 44  1  0
  9 45  1  0
  9 46  1  0
  9 47  1  0
 10 48  1  6
 11 49  1  0
 11 50  1  0
 12 51  1  0
 12 52  1  0
 14 53  1  0
 14 54  1  0
 14 55  1  0
 15 56  1  1
 16 57  1  0
 16 58  1  0
 17 59  1  0
 19 60  1  6
 20 61  1  0
 20 62  1  0
 21 63  1  0
 21 64  1  0
 22 65  1  6
 23 66  1  0
 25 67  1  0
 25 68  1  0
 25 69  1  0
 26 70  1  0
 26 71  1  0
 26 72  1  0
 28 73  1  0
 28 74  1  0
 28 75  1  0
 29 76  1  0
 29 77  1  0
 30 78  1  0
 30 79  1  0
 32 80  1  0
 32 81  1  0
 32 82  1  0
M  END
>  <meeko>  (18) 
{"is_sidechain": [false], "intermolecular_energy": 2.731, "internal_energy": -0.839}

$$$$
