EPH_relaxed_0001_pdb2pqr_Repair_58_r2_0001_out
     RDKit          3D

 82 86  0  0  0  0  0  0  0  0999 V2000
   -1.7080    8.5990   -1.8920 C   0  0  0  0  0  0  0  0  0  0  0  0
   -2.0820    9.1150   -0.5000 C   0  0  2  0  0  0  0  0  0  0  0  0
   -3.5760    9.4820   -0.3980 C   0  0  0  0  0  0  0  0  0  0  0  0
   -4.4980    8.2710   -0.2400 C   0  0  0  0  0  0  0  0  0  0  0  0
   -5.2000    7.9370   -1.5220 C   0  0  2  0  0  0  0  0  0  0  0  0
   -6.3510    8.7440   -1.8020 O   0  0  0  0  0  0  0  0  0  0  0  0
   -6.5950    7.3450   -1.5830 C   0  0  0  0  0  0  0  0  0  0  0  0
   -7.3730    7.0510   -0.3380 C   0  0  0  0  0  0  0  0  0  0  0  0
   -7.0050    6.6030   -2.8170 C   0  0  0  0  0  0  0  0  0  0  0  0
   -1.2230   10.3230   -0.1450 C   0  0  1  0  0  0  0  0  0  0  0  0
   -0.1920   10.0150    0.9740 C   0  0  0  0  0  0  0  0  0  0  0  0
    1.0780   10.8430    0.6530 C   0  0  0  0  0  0  0  0  0  0  0  0
    0.6260   11.8430   -0.4380 C   0  0  1  0  0  0  0  0  0  0  0  0
   -0.0810   12.9950    0.3420 C   0  0  0  0  0  0  0  0  0  0  0  0
    1.7470   12.3880   -1.3820 C   0  0  2  0  0  0  0  0  0  0  0  0
    2.8500   13.2020   -0.6840 C   0  0  0  0  0  0  0  0  0  0  0  0
    2.5990   14.6710   -0.5970 C   0  0  0  0  0  0  0  0  0  0  0  0
    1.6770   15.3510   -1.3040 C   0  0  0  0  0  0  0  0  0  0  0  0
    0.8320   14.6500   -2.3760 C   0  0  1  0  0  0  0  0  0  0  0  0
    0.8060   15.5160   -3.6630 C   0  0  0  0  0  0  0  0  0  0  0  0
    0.3420   16.9450   -3.3970 C   0  0  0  0  0  0  0  0  0  0  0  0
    1.2410   17.6280   -2.3690 C   0  0  2  0  0  0  0  0  0  0  0  0
    2.5430   17.7980   -2.9370 O   0  0  0  0  0  0  0  0  0  0  0  0
    1.3520   16.8410   -1.0330 C   0  0  0  0  0  0  0  0  0  0  0  0
    0.0060   16.9150   -0.2720 C   0  0  0  0  0  0  0  0  0  0  0  0
    2.3970   17.5630   -0.1400 C   0  0  0  0  0  0  0  0  0  0  0  0
    1.2040   13.1330   -2.6690 C   0  0  1  0  0  0  0  0  0  0  0  0
    2.3380   13.0590   -3.7370 C   0  0  0  0  0  0  0  0  0  0  0  0
   -0.0450   12.4090   -3.2970 C   0  0  0  0  0  0  0  0  0  0  0  0
   -1.0550   11.7870   -2.3140 C   0  0  0  0  0  0  0  0  0  0  0  0
   -0.3420   10.9240   -1.2680 C   0  0  2  0  0  0  0  0  0  0  0  0
    0.3610    9.7430   -2.0220 C   0  0  0  0  0  0  0  0  0  0  0  0
   -1.0650    7.7119   -1.7937 H   0  0  0  0  0  0  0  0  0  0  0  0
   -2.6223    8.3301   -2.4412 H   0  0  0  0  0  0  0  0  0  0  0  0
   -1.1679    9.3843   -2.4412 H   0  0  0  0  0  0  0  0  0  0  0  0
   -1.8930    8.3014    0.2158 H   0  0  0  0  0  0  0  0  0  0  0  0
   -3.7134   10.1390    0.4735 H   0  0  0  0  0  0  0  0  0  0  0  0
   -3.8511    9.9742   -1.3425 H   0  0  0  0  0  0  0  0  0  0  0  0
   -3.8975    7.4044    0.0738 H   0  0  0  0  0  0  0  0  0  0  0  0
   -5.2602    8.5166    0.5142 H   0  0  0  0  0  0  0  0  0  0  0  0
   -4.2509    7.6378   -1.9907 H   0  0  0  0  0  0  0  0  0  0  0  0
   -6.7568    7.2838    0.5430 H   0  0  0  0  0  0  0  0  0  0  0  0
   -8.2844    7.6667   -0.3211 H   0  0  0  0  0  0  0  0  0  0  0  0
   -7.6494    5.9864   -0.3211 H   0  0  0  0  0  0  0  0  0  0  0  0
   -7.5188    5.6731   -2.5320 H   0  0  0  0  0  0  0  0  0  0  0  0
   -7.6848    7.2297   -3.4128 H   0  0  0  0  0  0  0  0  0  0  0  0
   -6.1126    6.3610   -3.4128 H   0  0  0  0  0  0  0  0  0  0  0  0
   -2.0134   11.0349    0.1351 H   0  0  0  0  0  0  0  0  0  0  0  0
   -0.5975   10.3080    1.9536 H   0  0  0  0  0  0  0  0  0  0  0  0
    0.0375    8.9400    1.0142 H   0  0  0  0  0  0  0  0  0  0  0  0
    1.4298   11.3773    1.5479 H   0  0  0  0  0  0  0  0  0  0  0  0
    1.9147   10.2115    0.3195 H   0  0  0  0  0  0  0  0  0  0  0  0
    0.0240   12.8239    1.4235 H   0  0  0  0  0  0  0  0  0  0  0  0
    0.3828   13.9564    0.0761 H   0  0  0  0  0  0  0  0  0  0  0  0
   -1.1482   13.0168    0.0761 H   0  0  0  0  0  0  0  0  0  0  0  0
    2.2334   11.4644   -1.7288 H   0  0  0  0  0  0  0  0  0  0  0  0
    2.9622   12.8150    0.3395 H   0  0  0  0  0  0  0  0  0  0  0  0
    3.7530   13.0832   -1.3009 H   0  0  0  0  0  0  0  0  0  0  0  0
    3.2204   15.2469    0.1046 H   0  0  0  0  0  0  0  0  0  0  0  0
   -0.1829   14.5701   -1.9593 H   0  0  0  0  0  0  0  0  0  0  0  0
    1.8204   15.5478   -4.0872 H   0  0  0  0  0  0  0  0  0  0  0  0
    0.0899   15.0566   -4.3603 H   0  0  0  0  0  0  0  0  0  0  0  0
    0.3732   17.5146   -4.3375 H   0  0  0  0  0  0  0  0  0  0  0  0
   -0.6836   16.9132   -3.0006 H   0  0  0  0  0  0  0  0  0  0  0  0
    0.7845   18.5983   -2.1239 H   0  0  0  0  0  0  0  0  0  0  0  0
    2.4970   18.5420   -3.5610 H   0  0  0  0  0  0  0  0  0  0  0  0
    0.1963   16.9045    0.8114 H   0  0  0  0  0  0  0  0  0  0  0  0
   -0.5180   17.8433   -0.5433 H   0  0  0  0  0  0  0  0  0  0  0  0
   -0.6167   16.0497   -0.5433 H   0  0  0  0  0  0  0  0  0  0  0  0
    2.1530   17.3944    0.9193 H   0  0  0  0  0  0  0  0  0  0  0  0
    3.3997   17.1641   -0.3533 H   0  0  0  0  0  0  0  0  0  0  0  0
    2.3786   18.6420   -0.3533 H   0  0  0  0  0  0  0  0  0  0  0  0
    3.3133   12.9954   -3.2324 H   0  0  0  0  0  0  0  0  0  0  0  0
    2.1918   12.1685   -4.3660 H   0  0  0  0  0  0  0  0  0  0  0  0
    2.3087   13.9610   -4.3660 H   0  0  0  0  0  0  0  0  0  0  0  0
   -0.5859   13.1477   -3.9067 H   0  0  0  0  0  0  0  0  0  0  0  0
    0.3683   11.5595   -3.8605 H   0  0  0  0  0  0  0  0  0  0  0  0
   -1.6027   12.5926   -1.8031 H   0  0  0  0  0  0  0  0  0  0  0  0
   -1.7489   11.1491   -2.8810 H   0  0  0  0  0  0  0  0  0  0  0  0
    0.7806    9.0381   -1.2891 H   0  0  0  0  0  0  0  0  0  0  0  0
   -0.3739    9.2217   -2.6530 H   0  0  0  0  0  0  0  0  0  0  0  0
    1.1696   10.1405   -2.6530 H   0  0  0  0  0  0  0  0  0  0  0  0
  1  2  1  0
  2  3  1  0
  3  4  1  0
  4  5  1  0
  5  6  1  0
  6  7  1  0
  7  8  1  0
  7  9  1  0
  2 10  1  0
 10 11  1  0
 11 12  1  0
 12 13  1  0
 13 14  1  1
 13 15  1  0
 15 16  1  0
 16 17  1  0
 17 18  2  0
 18 19  1  0
 19 20  1  0
 20 21  1  0
 21 22  1  0
 22 23  1  0
 22 24  1  0
 24 25  1  0
 24 26  1  0
 19 27  1  0
 27 28  1  6
 27 29  1  0
 29 30  1  0
 30 31  1  0
 31 32  1  6
  7  5  1  0
 31 10  1  0
 31 13  1  0
 27 15  1  0
 24 18  1  0
  1 33  1  0
  1 34  1  0
  1 35  1  0
  2 36  1  1
  3 37  1  0
  3 38  1  0
  4 39  1  0
  4 40  1  0
  5 41  1  6
  8 42  1  0
  8 43  1  0
  8 44  1  0
  9 45  1  0
  9 46  1  0
  9 47  1  0
 10 48  1  1
 11 49  1  0
 11 50  1  0
 12 51  1  0
 12 52  1  0
 14 53  1  0
 14 54  1  0
 14 55  1  0
 15 56  1  6
 16 57  1  0
 16 58  1  0
 17 59  1  0
 19 60  1  1
 20 61  1  0
 20 62  1  0
 21 63  1  0
 21 64  1  0
 22 65  1  1
 23 66  1  0
 25 67  1  0
 25 68  1  0
 25 69  1  0
 26 70  1  0
 26 71  1  0
 26 72  1  0
 28 73  1  0
 28 74  1  0
 28 75  1  0
 29 76  1  0
 29 77  1  0
 30 78  1  0
 30 79  1  0
 32 80  1  0
 32 81  1  0
 32 82  1  0
M  END
>  <meeko>  (1) 
{"is_sidechain": [false], "intermolecular_energy": 2.731, "internal_energy": -0.839}

$$$$
EPH_relaxed_0001_pdb2pqr_Repair_58_r2_0001_out
     RDKit          3D

 82 86  0  0  0  0  0  0  0  0999 V2000
    1.9740   19.6490   -0.5400 C   0  0  0  0  0  0  0  0  0  0  0  0
    2.3750   18.4150    0.2730 C   0  0  2  0  0  0  0  0  0  0  0  0
    3.8260   17.9770   -0.0130 C   0  0  0  0  0  0  0  0  0  0  0  0
    4.8000   18.2960    1.1240 C   0  0  0  0  0  0  0  0  0  0  0  0
    4.1340   19.0600    2.2280 C   0  0  2  0  0  0  0  0  0  0  0  0
    4.8720   20.1940    2.7010 O   0  0  0  0  0  0  0  0  0  0  0  0
    4.6750   19.1280    3.6440 C   0  0  0  0  0  0  0  0  0  0  0  0
    5.9340   18.4190    4.0320 C   0  0  0  0  0  0  0  0  0  0  0  0
    3.7320   19.4720    4.7540 C   0  0  0  0  0  0  0  0  0  0  0  0
    1.4170   17.2670   -0.0190 C   0  0  1  0  0  0  0  0  0  0  0  0
    0.1460   17.7280   -0.7810 C   0  0  0  0  0  0  0  0  0  0  0  0
   -0.2430   16.5740   -1.7410 C   0  0  0  0  0  0  0  0  0  0  0  0
    0.6050   15.3710   -1.2680 C   0  0  1  0  0  0  0  0  0  0  0  0
   -0.1730   14.7860   -0.0480 C   0  0  0  0  0  0  0  0  0  0  0  0
    0.9060   14.2730   -2.3400 C   0  0  2  0  0  0  0  0  0  0  0  0
   -0.3320   13.5510   -2.9000 C   0  0  0  0  0  0  0  0  0  0  0  0
   -0.7400   12.3190   -2.1610 C   0  0  0  0  0  0  0  0  0  0  0  0
    0.0190   11.6540   -1.2710 C   0  0  0  0  0  0  0  0  0  0  0  0
    1.4690   12.0750   -1.0020 C   0  0  1  0  0  0  0  0  0  0  0  0
    2.3830   10.8210   -1.0090 C   0  0  0  0  0  0  0  0  0  0  0  0
    1.9010    9.7410   -0.0460 C   0  0  0  0  0  0  0  0  0  0  0  0
    0.4760    9.3070   -0.3820 C   0  0  2  0  0  0  0  0  0  0  0  0
    0.4830    8.6450   -1.6510 O   0  0  0  0  0  0  0  0  0  0  0  0
   -0.5330   10.4880   -0.4140 C   0  0  0  0  0  0  0  0  0  0  0  0
   -0.7670   11.0120    1.0250 C   0  0  0  0  0  0  0  0  0  0  0  0
   -1.8990    9.9360   -0.9020 C   0  0  0  0  0  0  0  0  0  0  0  0
    2.0330   13.2450   -1.9180 C   0  0  1  0  0  0  0  0  0  0  0  0
    2.6140   12.6550   -3.2390 C   0  0  0  0  0  0  0  0  0  0  0  0
    3.2330   13.9450   -1.1780 C   0  0  0  0  0  0  0  0  0  0  0  0
    2.8820   15.1010   -0.2220 C   0  0  0  0  0  0  0  0  0  0  0  0
    1.9450   16.1060   -0.8990 C   0  0  2  0  0  0  0  0  0  0  0  0
    2.7090   16.7270   -2.1170 C   0  0  0  0  0  0  0  0  0  0  0  0
    1.7078   20.4682    0.1441 H   0  0  0  0  0  0  0  0  0  0  0  0
    2.8172   19.9602   -1.1741 H   0  0  0  0  0  0  0  0  0  0  0  0
    1.1089   19.4051   -1.1741 H   0  0  0  0  0  0  0  0  0  0  0  0
    2.3164   18.6865    1.3374 H   0  0  0  0  0  0  0  0  0  0  0  0
    3.8338   16.8901   -0.1824 H   0  0  0  0  0  0  0  0  0  0  0  0
    4.1646   18.5413   -0.8944 H   0  0  0  0  0  0  0  0  0  0  0  0
    5.1940   17.3529    1.5307 H   0  0  0  0  0  0  0  0  0  0  0  0
    5.6097   18.9191    0.7165 H   0  0  0  0  0  0  0  0  0  0  0  0
    3.1388   18.8133    1.8297 H   0  0  0  0  0  0  0  0  0  0  0  0
    6.0082   18.3772    5.1287 H   0  0  0  0  0  0  0  0  0  0  0  0
    5.9190   17.3967    3.6263 H   0  0  0  0  0  0  0  0  0  0  0  0
    6.8004   18.9618    3.6263 H   0  0  0  0  0  0  0  0  0  0  0  0
    4.2236   19.2927    5.7216 H   0  0  0  0  0  0  0  0  0  0  0  0
    3.4474   20.5318    4.6782 H   0  0  0  0  0  0  0  0  0  0  0  0
    2.8318   18.8443    4.6782 H   0  0  0  0  0  0  0  0  0  0  0  0
    1.2389   16.9107    1.0064 H   0  0  0  0  0  0  0  0  0  0  0  0
   -0.6716   17.9223   -0.0713 H   0  0  0  0  0  0  0  0  0  0  0  0
    0.3345   18.6581   -1.3373 H   0  0  0  0  0  0  0  0  0  0  0  0
   -1.3165   16.3477   -1.6613 H   0  0  0  0  0  0  0  0  0  0  0  0
   -0.0564   16.8273   -2.7951 H   0  0  0  0  0  0  0  0  0  0  0  0
    0.2922   15.1358    0.8854 H   0  0  0  0  0  0  0  0  0  0  0  0
   -1.2195   15.1228   -0.0848 H   0  0  0  0  0  0  0  0  0  0  0  0
   -0.1400   13.6871   -0.0848 H   0  0  0  0  0  0  0  0  0  0  0  0
    1.3105   14.8642   -3.1748 H   0  0  0  0  0  0  0  0  0  0  0  0
   -1.1760   14.2561   -2.8775 H   0  0  0  0  0  0  0  0  0  0  0  0
   -0.0600   13.2220   -3.9138 H   0  0  0  0  0  0  0  0  0  0  0  0
   -1.7460   11.9217   -2.3612 H   0  0  0  0  0  0  0  0  0  0  0  0
    1.4711   12.5332   -0.0020 H   0  0  0  0  0  0  0  0  0  0  0  0
    2.4013   10.4036   -2.0266 H   0  0  0  0  0  0  0  0  0  0  0  0
    3.3851   11.1363   -0.6829 H   0  0  0  0  0  0  0  0  0  0  0  0
    2.5691    8.8701   -0.1181 H   0  0  0  0  0  0  0  0  0  0  0  0
    1.9119   10.1505    0.9749 H   0  0  0  0  0  0  0  0  0  0  0  0
    0.1402    8.6301    0.4174 H   0  0  0  0  0  0  0  0  0  0  0  0
    0.7630    7.7260   -1.5020 H   0  0  0  0  0  0  0  0  0  0  0  0
   -0.4296   10.2564    1.7497 H   0  0  0  0  0  0  0  0  0  0  0  0
   -0.1987   11.9420    1.1735 H   0  0  0  0  0  0  0  0  0  0  0  0
   -1.8389   11.2096    1.1735 H   0  0  0  0  0  0  0  0  0  0  0  0
   -2.5240    9.6834   -0.0328 H   0  0  0  0  0  0  0  0  0  0  0  0
   -2.4071   10.6994   -1.5095 H   0  0  0  0  0  0  0  0  0  0  0  0
   -1.7340    9.0340   -1.5095 H   0  0  0  0  0  0  0  0  0  0  0  0
    3.3672   11.8901   -2.9989 H   0  0  0  0  0  0  0  0  0  0  0  0
    1.8024   12.1991   -3.8251 H   0  0  0  0  0  0  0  0  0  0  0  0
    3.0823   13.4595   -3.8251 H   0  0  0  0  0  0  0  0  0  0  0  0
    3.7562   13.1756   -0.5913 H   0  0  0  0  0  0  0  0  0  0  0  0
    3.8338   14.4049   -1.9764 H   0  0  0  0  0  0  0  0  0  0  0  0
    2.3866   14.6919    0.6709 H   0  0  0  0  0  0  0  0  0  0  0  0
    3.8108   15.6200    0.0572 H   0  0  0  0  0  0  0  0  0  0  0  0
    3.5137   17.3811   -1.7502 H   0  0  0  0  0  0  0  0  0  0  0  0
    3.1414   15.9211   -2.7281 H   0  0  0  0  0  0  0  0  0  0  0  0
    2.0084   17.3150   -2.7281 H   0  0  0  0  0  0  0  0  0  0  0  0
  1  2  1  0
  2  3  1  0
  3  4  1  0
  4  5  1  0
  5  6  1  0
  6  7  1  0
  7  8  1  0
  7  9  1  0
  2 10  1  0
 10 11  1  0
 11 12  1  0
 12 13  1  0
 13 14  1  1
 13 15  1  0
 15 16  1  0
 16 17  1  0
 17 18  2  0
 18 19  1  0
 19 20  1  0
 20 21  1  0
 21 22  1  0
 22 23  1  0
 22 24  1  0
 24 25  1  0
 24 26  1  0
 19 27  1  0
 27 28  1  6
 27 29  1  0
 29 30  1  0
 30 31  1  0
 31 32  1  6
  7  5  1  0
 31 10  1  0
 31 13  1  0
 27 15  1  0
 24 18  1  0
  1 33  1  0
  1 34  1  0
  1 35  1  0
  2 36  1  1
  3 37  1  0
  3 38  1  0
  4 39  1  0
  4 40  1  0
  5 41  1  1
  8 42  1  0
  8 43  1  0
  8 44  1  0
  9 45  1  0
  9 46  1  0
  9 47  1  0
 10 48  1  1
 11 49  1  0
 11 50  1  0
 12 51  1  0
 12 52  1  0
 14 53  1  0
 14 54  1  0
 14 55  1  0
 15 56  1  6
 16 57  1  0
 16 58  1  0
 17 59  1  0
 19 60  1  1
 20 61  1  0
 20 62  1  0
 21 63  1  0
 21 64  1  0
 22 65  1  1
 23 66  1  0
 25 67  1  0
 25 68  1  0
 25 69  1  0
 26 70  1  0
 26 71  1  0
 26 72  1  0
 28 73  1  0
 28 74  1  0
 28 75  1  0
 29 76  1  0
 29 77  1  0
 30 78  1  0
 30 79  1  0
 32 80  1  0
 32 81  1  0
 32 82  1  0
M  END
>  <meeko>  (2) 
{"is_sidechain": [false], "intermolecular_energy": 2.731, "internal_energy": -0.839}

$$$$
EPH_relaxed_0001_pdb2pqr_Repair_58_r2_0001_out
     RDKit          3D

 82 86  0  0  0  0  0  0  0  0999 V2000
    0.4250   18.4400   -0.0390 C   0  0  0  0  0  0  0  0  0  0  0  0
    1.5040   17.3730   -0.2420 C   0  0  2  0  0  0  0  0  0  0  0  0
    2.7300   17.9220   -0.9990 C   0  0  0  0  0  0  0  0  0  0  0  0
    3.9620   18.1190   -0.1120 C   0  0  0  0  0  0  0  0  0  0  0  0
    3.5890   18.5960    1.2590 C   0  0  2  0  0  0  0  0  0  0  0  0
    3.8100   19.9940    1.4870 O   0  0  0  0  0  0  0  0  0  0  0  0
    4.6000   19.0900    2.2770 C   0  0  0  0  0  0  0  0  0  0  0  0
    6.0630   19.1300    1.9670 C   0  0  0  0  0  0  0  0  0  0  0  0
    4.2240   19.0700    3.7260 C   0  0  0  0  0  0  0  0  0  0  0  0
    0.9210   16.1800   -0.9910 C   0  0  1  0  0  0  0  0  0  0  0  0
    0.7700   16.4460   -2.5130 C   0  0  0  0  0  0  0  0  0  0  0  0
    1.0510   15.1020   -3.2320 C   0  0  0  0  0  0  0  0  0  0  0  0
    1.0250   14.0440   -2.1040 C   0  0  1  0  0  0  0  0  0  0  0  0
   -0.4890   13.7460   -1.8680 C   0  0  0  0  0  0  0  0  0  0  0  0
    1.8370   12.7340   -2.3670 C   0  0  2  0  0  0  0  0  0  0  0  0
    1.3510   11.8940   -3.5610 C   0  0  0  0  0  0  0  0  0  0  0  0
    0.3250   10.8590   -3.2380 C   0  0  0  0  0  0  0  0  0  0  0  0
    0.0200   10.4190   -2.0030 C   0  0  0  0  0  0  0  0  0  0  0  0
    0.8080   10.9010   -0.7780 C   0  0  1  0  0  0  0  0  0  0  0  0
    1.1770    9.6860    0.1120 C   0  0  0  0  0  0  0  0  0  0  0  0
   -0.0400    8.8490    0.4940 C   0  0  0  0  0  0  0  0  0  0  0  0
   -0.7630    8.3390   -0.7500 C   0  0  2  0  0  0  0  0  0  0  0  0
    0.0860    7.4060   -1.4270 O   0  0  0  0  0  0  0  0  0  0  0  0
   -1.1760    9.4740   -1.7280 C   0  0  0  0  0  0  0  0  0  0  0  0
   -2.3200   10.3090   -1.1020 C   0  0  0  0  0  0  0  0  0  0  0  0
   -1.7670    8.8150   -3.0030 C   0  0  0  0  0  0  0  0  0  0  0  0
    2.0560   11.8380   -1.0810 C   0  0  1  0  0  0  0  0  0  0  0  0
    3.3200   10.9670   -1.3550 C   0  0  0  0  0  0  0  0  0  0  0  0
    2.3770   12.6960    0.1990 C   0  0  0  0  0  0  0  0  0  0  0  0
    1.6310   14.0370    0.3420 C   0  0  0  0  0  0  0  0  0  0  0  0
    1.7210   14.8540   -0.9510 C   0  0  2  0  0  0  0  0  0  0  0  0
    3.2310   15.1880   -1.2020 C   0  0  0  0  0  0  0  0  0  0  0  0
    0.2644   18.5988    1.0376 H   0  0  0  0  0  0  0  0  0  0  0  0
    0.7492   19.3825   -0.5043 H   0  0  0  0  0  0  0  0  0  0  0  0
   -0.5138   18.1053   -0.5043 H   0  0  0  0  0  0  0  0  0  0  0  0
    1.8464   17.0559    0.7541 H   0  0  0  0  0  0  0  0  0  0  0  0
    2.9886   17.2148   -1.8008 H   0  0  0  0  0  0  0  0  0  0  0  0
    2.4514   18.9126   -1.3876 H   0  0  0  0  0  0  0  0  0  0  0  0
    4.4940   17.1603   -0.0232 H   0  0  0  0  0  0  0  0  0  0  0  0
    4.6009   18.8834   -0.5784 H   0  0  0  0  0  0  0  0  0  0  0  0
    2.7804   17.8530    1.3231 H   0  0  0  0  0  0  0  0  0  0  0  0
    6.6364   19.1457    2.9056 H   0  0  0  0  0  0  0  0  0  0  0  0
    6.3387   18.2391    1.3837 H   0  0  0  0  0  0  0  0  0  0  0  0
    6.2896   20.0347    1.3837 H   0  0  0  0  0  0  0  0  0  0  0  0
    5.1343   19.1184    4.3417 H   0  0  0  0  0  0  0  0  0  0  0  0
    3.5830   19.9353    3.9505 H   0  0  0  0  0  0  0  0  0  0  0  0
    3.6784   18.1416    3.9505 H   0  0  0  0  0  0  0  0  0  0  0  0
   -0.0261   16.0643   -0.4436 H   0  0  0  0  0  0  0  0  0  0  0  0
   -0.2504   16.7899   -2.7380 H   0  0  0  0  0  0  0  0  0  0  0  0
    1.4682   17.2269   -2.8486 H   0  0  0  0  0  0  0  0  0  0  0  0
    0.2725   14.8915   -3.9801 H   0  0  0  0  0  0  0  0  0  0  0  0
    2.0081   15.1107   -3.7741 H   0  0  0  0  0  0  0  0  0  0  0  0
   -0.6908   13.7063   -0.7874 H   0  0  0  0  0  0  0  0  0  0  0  0
   -1.0950   14.5421   -2.3252 H   0  0  0  0  0  0  0  0  0  0  0  0
   -0.7481   12.7796   -2.3252 H   0  0  0  0  0  0  0  0  0  0  0  0
    2.8243   13.1226   -2.6572 H   0  0  0  0  0  0  0  0  0  0  0  0
    0.9195   12.5794   -4.3053 H   0  0  0  0  0  0  0  0  0  0  0  0
    2.2320   11.3453   -3.9252 H   0  0  0  0  0  0  0  0  0  0  0  0
   -0.2286   10.4187   -4.0804 H   0  0  0  0  0  0  0  0  0  0  0  0
    0.1335   11.5741   -0.2284 H   0  0  0  0  0  0  0  0  0  0  0  0
    1.8849    9.0484   -0.4378 H   0  0  0  0  0  0  0  0  0  0  0  0
    1.6194   10.0750    1.0410 H   0  0  0  0  0  0  0  0  0  0  0  0
    0.2888    7.9898    1.0970 H   0  0  0  0  0  0  0  0  0  0  0  0
   -0.7335    9.4797    1.0696 H   0  0  0  0  0  0  0  0  0  0  0  0
   -1.6946    7.8589   -0.4158 H   0  0  0  0  0  0  0  0  0  0  0  0
   -0.3750    6.5510   -1.4480 H   0  0  0  0  0  0  0  0  0  0  0  0
   -2.2522   10.2595   -0.0052 H   0  0  0  0  0  0  0  0  0  0  0  0
   -2.2307   11.3558   -1.4281 H   0  0  0  0  0  0  0  0  0  0  0  0
   -3.2897    9.9049   -1.4281 H   0  0  0  0  0  0  0  0  0  0  0  0
   -2.4754    8.0251   -2.7127 H   0  0  0  0  0  0  0  0  0  0  0  0
   -2.2909    9.5761   -3.5999 H   0  0  0  0  0  0  0  0  0  0  0  0
   -0.9536    8.3768   -3.5999 H   0  0  0  0  0  0  0  0  0  0  0  0
    3.7673   10.6588   -0.3985 H   0  0  0  0  0  0  0  0  0  0  0  0
    3.0326   10.0743   -1.9299 H   0  0  0  0  0  0  0  0  0  0  0  0
    4.0518   11.5534   -1.9299 H   0  0  0  0  0  0  0  0  0  0  0  0
    2.1328   12.0839    1.0797 H   0  0  0  0  0  0  0  0  0  0  0  0
    3.4392   12.9662    0.1053 H   0  0  0  0  0  0  0  0  0  0  0  0
    0.5733   13.8381    0.5693 H   0  0  0  0  0  0  0  0  0  0  0  0
    2.0972   14.6133    1.1547 H   0  0  0  0  0  0  0  0  0  0  0  0
    3.7466   15.3020   -0.2370 H   0  0  0  0  0  0  0  0  0  0  0  0
    3.6973   14.3713   -1.7726 H   0  0  0  0  0  0  0  0  0  0  0  0
    3.3093   16.1252   -1.7726 H   0  0  0  0  0  0  0  0  0  0  0  0
  1  2  1  0
  2  3  1  0
  3  4  1  0
  4  5  1  0
  5  6  1  0
  6  7  1  0
  7  8  1  0
  7  9  1  0
  2 10  1  0
 10 11  1  0
 11 12  1  0
 12 13  1  0
 13 14  1  1
 13 15  1  0
 15 16  1  0
 16 17  1  0
 17 18  2  0
 18 19  1  0
 19 20  1  0
 20 21  1  0
 21 22  1  0
 22 23  1  0
 22 24  1  0
 24 25  1  0
 24 26  1  0
 19 27  1  0
 27 28  1  6
 27 29  1  0
 29 30  1  0
 30 31  1  0
 31 32  1  6
  7  5  1  0
 31 10  1  0
 31 13  1  0
 27 15  1  0
 24 18  1  0
  1 33  1  0
  1 34  1  0
  1 35  1  0
  2 36  1  1
  3 37  1  0
  3 38  1  0
  4 39  1  0
  4 40  1  0
  5 41  1  1
  8 42  1  0
  8 43  1  0
  8 44  1  0
  9 45  1  0
  9 46  1  0
  9 47  1  0
 10 48  1  1
 11 49  1  0
 11 50  1  0
 12 51  1  0
 12 52  1  0
 14 53  1  0
 14 54  1  0
 14 55  1  0
 15 56  1  6
 16 57  1  0
 16 58  1  0
 17 59  1  0
 19 60  1  1
 20 61  1  0
 20 62  1  0
 21 63  1  0
 21 64  1  0
 22 65  1  1
 23 66  1  0
 25 67  1  0
 25 68  1  0
 25 69  1  0
 26 70  1  0
 26 71  1  0
 26 72  1  0
 28 73  1  0
 28 74  1  0
 28 75  1  0
 29 76  1  0
 29 77  1  0
 30 78  1  0
 30 79  1  0
 32 80  1  0
 32 81  1  0
 32 82  1  0
M  END
>  <meeko>  (3) 
{"is_sidechain": [false], "intermolecular_energy": 2.731, "internal_energy": -0.839}

$$$$
EPH_relaxed_0001_pdb2pqr_Repair_58_r2_0001_out
     RDKit          3D

 82 86  0  0  0  0  0  0  0  0999 V2000
    2.1610   18.0420   -2.6010 C   0  0  0  0  0  0  0  0  0  0  0  0
    0.6390   17.8840   -2.6690 C   0  0  2  0  0  0  0  0  0  0  0  0
   -0.0520   18.3580   -1.3750 C   0  0  0  0  0  0  0  0  0  0  0  0
    0.6850   17.9470   -0.0970 C   0  0  0  0  0  0  0  0  0  0  0  0
    1.2410   19.1350    0.6280 C   0  0  2  0  0  0  0  0  0  0  0  0
    2.1810   19.9110   -0.1270 O   0  0  0  0  0  0  0  0  0  0  0  0
    2.6960   19.2560    1.0430 C   0  0  0  0  0  0  0  0  0  0  0  0
    3.6840   18.1710    0.7470 C   0  0  0  0  0  0  0  0  0  0  0  0
    3.0470   20.1940    2.1550 C   0  0  0  0  0  0  0  0  0  0  0  0
    0.2800   16.4300   -2.9490 C   0  0  1  0  0  0  0  0  0  0  0  0
    0.3420   16.0790   -4.4600 C   0  0  0  0  0  0  0  0  0  0  0  0
    0.8420   14.6150   -4.5590 C   0  0  0  0  0  0  0  0  0  0  0  0
    0.7330   14.0670   -3.1160 C   0  0  1  0  0  0  0  0  0  0  0  0
   -0.7690   13.6760   -2.9480 C   0  0  0  0  0  0  0  0  0  0  0  0
    1.6830   12.8790   -2.7550 C   0  0  2  0  0  0  0  0  0  0  0  0
    1.4580   11.5930   -3.5690 C   0  0  0  0  0  0  0  0  0  0  0  0
    0.4850   10.6270   -2.9790 C   0  0  0  0  0  0  0  0  0  0  0  0
    0.0330   10.6470   -1.7110 C   0  0  0  0  0  0  0  0  0  0  0  0
    0.5800   11.6590   -0.6960 C   0  0  1  0  0  0  0  0  0  0  0  0
    0.9100   10.9320    0.6340 C   0  0  0  0  0  0  0  0  0  0  0  0
   -0.2760   10.1430    1.1790 C   0  0  0  0  0  0  0  0  0  0  0  0
   -0.7550    9.1070    0.1640 C   0  0  2  0  0  0  0  0  0  0  0  0
    0.2630    8.1140    0.0040 O   0  0  0  0  0  0  0  0  0  0  0  0
   -1.1080    9.7230   -1.2190 C   0  0  0  0  0  0  0  0  0  0  0  0
   -2.4000   10.5670   -1.0980 C   0  0  0  0  0  0  0  0  0  0  0  0
   -1.4400    8.5570   -2.1890 C   0  0  0  0  0  0  0  0  0  0  0  0
    1.7770   12.5730   -1.2050 C   0  0  1  0  0  0  0  0  0  0  0  0
    3.1370   11.8450   -0.9770 C   0  0  0  0  0  0  0  0  0  0  0  0
    1.8250   13.8860   -0.3380 C   0  0  0  0  0  0  0  0  0  0  0  0
    0.9560   15.0660   -0.8140 C   0  0  0  0  0  0  0  0  0  0  0  0
    1.1730   15.3400   -2.3050 C   0  0  2  0  0  0  0  0  0  0  0  0
    2.6700   15.7570   -2.5020 C   0  0  0  0  0  0  0  0  0  0  0  0
    2.4795   18.0751   -1.5487 H   0  0  0  0  0  0  0  0  0  0  0  0
    2.6410   17.1889   -3.1028 H   0  0  0  0  0  0  0  0  0  0  0  0
    2.4555   18.9755   -3.1028 H   0  0  0  0  0  0  0  0  0  0  0  0
    0.2760   18.5210   -3.4891 H   0  0  0  0  0  0  0  0  0  0  0  0
   -0.1192   19.4557   -1.3993 H   0  0  0  0  0  0  0  0  0  0  0  0
   -1.0410   17.8774   -1.3443 H   0  0  0  0  0  0  0  0  0  0  0  0
   -0.0175   17.4211    0.5663 H   0  0  0  0  0  0  0  0  0  0  0  0
    1.5239   17.2940   -0.3796 H   0  0  0  0  0  0  0  0  0  0  0  0
    0.3014   19.2648    1.1850 H   0  0  0  0  0  0  0  0  0  0  0  0
    4.0641   17.7536    1.6911 H   0  0  0  0  0  0  0  0  0  0  0  0
    3.1929   17.3763    0.1662 H   0  0  0  0  0  0  0  0  0  0  0  0
    4.5210   18.5858    0.1662 H   0  0  0  0  0  0  0  0  0  0  0  0
    2.8629   19.7021    3.1215 H   0  0  0  0  0  0  0  0  0  0  0  0
    4.1092   20.4699    2.0804 H   0  0  0  0  0  0  0  0  0  0  0  0
    2.4269   21.0995    2.0804 H   0  0  0  0  0  0  0  0  0  0  0  0
   -0.7269   16.4008   -2.5072 H   0  0  0  0  0  0  0  0  0  0  0  0
   -0.6571   16.1694   -4.9112 H   0  0  0  0  0  0  0  0  0  0  0  0
    1.0151   16.7634   -4.9971 H   0  0  0  0  0  0  0  0  0  0  0  0
    0.2077   14.0335   -5.2442 H   0  0  0  0  0  0  0  0  0  0  0  0
    1.8667   14.5499   -4.9537 H   0  0  0  0  0  0  0  0  0  0  0  0
   -1.0138   13.6123   -1.8775 H   0  0  0  0  0  0  0  0  0  0  0  0
   -1.4020   14.4393   -3.4241 H   0  0  0  0  0  0  0  0  0  0  0  0
   -0.9495   12.7009   -3.4241 H   0  0  0  0  0  0  0  0  0  0  0  0
    2.6668   13.2605   -3.0657 H   0  0  0  0  0  0  0  0  0  0  0  0
    1.0897   11.8810   -4.5647 H   0  0  0  0  0  0  0  0  0  0  0  0
    2.4273   11.0734   -3.5911 H   0  0  0  0  0  0  0  0  0  0  0  0
    0.1049    9.8310   -3.6362 H   0  0  0  0  0  0  0  0  0  0  0  0
   -0.2250   12.3904   -0.5316 H   0  0  0  0  0  0  0  0  0  0  0  0
    1.7448   10.2376    0.4586 H   0  0  0  0  0  0  0  0  0  0  0  0
    1.1710   11.6990    1.3780 H   0  0  0  0  0  0  0  0  0  0  0  0
    0.0277    9.6285    2.1026 H   0  0  0  0  0  0  0  0  0  0  0  0
   -1.1000   10.8429    1.3819 H   0  0  0  0  0  0  0  0  0  0  0  0
   -1.6827    8.6644    0.5557 H   0  0  0  0  0  0  0  0  0  0  0  0
    0.3940    7.9790   -0.9500 H   0  0  0  0  0  0  0  0  0  0  0  0
   -2.6382   10.7226   -0.0354 H   0  0  0  0  0  0  0  0  0  0  0  0
   -2.2488   11.5410   -1.5863 H   0  0  0  0  0  0  0  0  0  0  0  0
   -3.2312   10.0372   -1.5863 H   0  0  0  0  0  0  0  0  0  0  0  0
   -1.6958    7.6585   -1.6083 H   0  0  0  0  0  0  0  0  0  0  0  0
   -2.2935    8.8392   -2.8230 H   0  0  0  0  0  0  0  0  0  0  0  0
   -0.5659    8.3473   -2.8230 H   0  0  0  0  0  0  0  0  0  0  0  0
    3.3231   11.7454    0.1026 H   0  0  0  0  0  0  0  0  0  0  0  0
    3.0998   10.8462   -1.4364 H   0  0  0  0  0  0  0  0  0  0  0  0
    3.9475   12.4299   -1.4364 H   0  0  0  0  0  0  0  0  0  0  0  0
    1.5015   13.6242    0.6803 H   0  0  0  0  0  0  0  0  0  0  0  0
    2.8624   14.2436   -0.4150 H   0  0  0  0  0  0  0  0  0  0  0  0
   -0.1035   14.8247   -0.6429 H   0  0  0  0  0  0  0  0  0  0  0  0
    1.2427   15.9639   -0.2470 H   0  0  0  0  0  0  0  0  0  0  0  0
    3.1461   15.8896   -1.5193 H   0  0  0  0  0  0  0  0  0  0  0  0
    3.1986   14.9719   -3.0625 H   0  0  0  0  0  0  0  0  0  0  0  0
    2.7166   16.7023   -3.0625 H   0  0  0  0  0  0  0  0  0  0  0  0
  1  2  1  0
  2  3  1  0
  3  4  1  0
  4  5  1  0
  5  6  1  0
  6  7  1  0
  7  8  1  0
  7  9  1  0
  2 10  1  0
 10 11  1  0
 11 12  1  0
 12 13  1  0
 13 14  1  1
 13 15  1  0
 15 16  1  0
 16 17  1  0
 17 18  2  0
 18 19  1  0
 19 20  1  0
 20 21  1  0
 21 22  1  0
 22 23  1  0
 22 24  1  0
 24 25  1  0
 24 26  1  0
 19 27  1  0
 27 28  1  6
 27 29  1  0
 29 30  1  0
 30 31  1  0
 31 32  1  1
  7  5  1  0
 31 10  1  0
 31 13  1  0
 27 15  1  0
 24 18  1  0
  1 33  1  0
  1 34  1  0
  1 35  1  0
  2 36  1  6
  3 37  1  0
  3 38  1  0
  4 39  1  0
  4 40  1  0
  5 41  1  1
  8 42  1  0
  8 43  1  0
  8 44  1  0
  9 45  1  0
  9 46  1  0
  9 47  1  0
 10 48  1  1
 11 49  1  0
 11 50  1  0
 12 51  1  0
 12 52  1  0
 14 53  1  0
 14 54  1  0
 14 55  1  0
 15 56  1  6
 16 57  1  0
 16 58  1  0
 17 59  1  0
 19 60  1  1
 20 61  1  0
 20 62  1  0
 21 63  1  0
 21 64  1  0
 22 65  1  1
 23 66  1  0
 25 67  1  0
 25 68  1  0
 25 69  1  0
 26 70  1  0
 26 71  1  0
 26 72  1  0
 28 73  1  0
 28 74  1  0
 28 75  1  0
 29 76  1  0
 29 77  1  0
 30 78  1  0
 30 79  1  0
 32 80  1  0
 32 81  1  0
 32 82  1  0
M  END
>  <meeko>  (4) 
{"is_sidechain": [false], "intermolecular_energy": 2.731, "internal_energy": -0.839}

$$$$
EPH_relaxed_0001_pdb2pqr_Repair_58_r2_0001_out
     RDKit          3D

 82 86  0  0  0  0  0  0  0  0999 V2000
   -3.4570    9.3130    0.4050 C   0  0  0  0  0  0  0  0  0  0  0  0
   -2.5860    9.6680   -0.8030 C   0  0  2  0  0  0  0  0  0  0  0  0
   -1.8930    8.4290   -1.4030 C   0  0  0  0  0  0  0  0  0  0  0  0
   -2.7970    7.6030   -2.3230 C   0  0  0  0  0  0  0  0  0  0  0  0
   -4.2320    7.6690   -1.8940 C   0  0  2  0  0  0  0  0  0  0  0  0
   -4.7740    6.4280   -1.4240 O   0  0  0  0  0  0  0  0  0  0  0  0
   -5.3560    6.9600   -2.6250 C   0  0  0  0  0  0  0  0  0  0  0  0
   -5.0960    6.1340   -3.8450 C   0  0  0  0  0  0  0  0  0  0  0  0
   -6.7550    7.4620   -2.4450 C   0  0  0  0  0  0  0  0  0  0  0  0
   -1.5430   10.7060   -0.4050 C   0  0  1  0  0  0  0  0  0  0  0  0
   -0.4690   10.1340    0.5580 C   0  0  0  0  0  0  0  0  0  0  0  0
    0.8690   10.8330    0.2020 C   0  0  0  0  0  0  0  0  0  0  0  0
    0.4610   12.0110   -0.7140 C   0  0  1  0  0  0  0  0  0  0  0  0
   -0.0110   13.1340    0.2610 C   0  0  0  0  0  0  0  0  0  0  0  0
    1.5570   12.5280   -1.7030 C   0  0  2  0  0  0  0  0  0  0  0  0
    2.8170   13.1050   -1.0350 C   0  0  0  0  0  0  0  0  0  0  0  0
    2.7760   14.5710   -0.7560 C   0  0  0  0  0  0  0  0  0  0  0  0
    1.8950   15.4430   -1.2810 C   0  0  0  0  0  0  0  0  0  0  0  0
    0.8720   14.9930   -2.3320 C   0  0  1  0  0  0  0  0  0  0  0  0
    0.8500   16.0110   -3.5020 C   0  0  0  0  0  0  0  0  0  0  0  0
    0.6090   17.4410   -3.0290 C   0  0  0  0  0  0  0  0  0  0  0  0
    1.6790   17.8720   -2.0290 C   0  0  2  0  0  0  0  0  0  0  0  0
    2.9370   17.9510   -2.7070 O   0  0  0  0  0  0  0  0  0  0  0  0
    1.8010   16.9160   -0.8110 C   0  0  0  0  0  0  0  0  0  0  0  0
    0.5500   17.0590    0.0910 C   0  0  0  0  0  0  0  0  0  0  0  0
    3.0080   17.3840    0.0450 C   0  0  0  0  0  0  0  0  0  0  0  0
    1.0080   13.4910   -2.8320 C   0  0  1  0  0  0  0  0  0  0  0  0
    2.0220   13.4130   -4.0140 C   0  0  0  0  0  0  0  0  0  0  0  0
   -0.3780   13.0120   -3.4050 C   0  0  0  0  0  0  0  0  0  0  0  0
   -1.3720   12.4000   -2.3990 C   0  0  0  0  0  0  0  0  0  0  0  0
   -0.6920   11.3310   -1.5390 C   0  0  2  0  0  0  0  0  0  0  0  0
   -0.2250   10.1770   -2.4900 C   0  0  0  0  0  0  0  0  0  0  0  0
   -2.9078    9.5368    1.3314 H   0  0  0  0  0  0  0  0  0  0  0  0
   -4.3835    9.9053    0.3757 H   0  0  0  0  0  0  0  0  0  0  0  0
   -3.7055    8.2418    0.3757 H   0  0  0  0  0  0  0  0  0  0  0  0
   -3.2478   10.0837   -1.5771 H   0  0  0  0  0  0  0  0  0  0  0  0
   -1.0214    8.7656   -1.9835 H   0  0  0  0  0  0  0  0  0  0  0  0
   -1.6112    7.7792   -0.5614 H   0  0  0  0  0  0  0  0  0  0  0  0
   -2.7131    7.9920   -3.3485 H   0  0  0  0  0  0  0  0  0  0  0  0
   -2.4714    6.5535   -2.2721 H   0  0  0  0  0  0  0  0  0  0  0  0
   -4.1095    8.7103   -1.5612 H   0  0  0  0  0  0  0  0  0  0  0  0
   -4.7784    5.1249   -3.5437 H   0  0  0  0  0  0  0  0  0  0  0  0
   -6.0159    6.0652   -4.4441 H   0  0  0  0  0  0  0  0  0  0  0  0
   -4.3025    6.6046   -4.4441 H   0  0  0  0  0  0  0  0  0  0  0  0
   -6.9803    7.5428   -1.3713 H   0  0  0  0  0  0  0  0  0  0  0  0
   -6.8530    8.4514   -2.9157 H   0  0  0  0  0  0  0  0  0  0  0  0
   -7.4596    6.7606   -2.9157 H   0  0  0  0  0  0  0  0  0  0  0  0
   -2.2013   11.4695    0.0350 H   0  0  0  0  0  0  0  0  0  0  0  0
   -0.7428   10.3490    1.6015 H   0  0  0  0  0  0  0  0  0  0  0  0
   -0.3847    9.0424    0.4520 H   0  0  0  0  0  0  0  0  0  0  0  0
    1.3683   11.2019    1.1101 H   0  0  0  0  0  0  0  0  0  0  0  0
    1.5795   10.1504   -0.2871 H   0  0  0  0  0  0  0  0  0  0  0  0
    0.1292   12.8005    1.2998 H   0  0  0  0  0  0  0  0  0  0  0  0
    0.5805   14.0446    0.0853 H   0  0  0  0  0  0  0  0  0  0  0  0
   -1.0755   13.3486    0.0853 H   0  0  0  0  0  0  0  0  0  0  0  0
    1.8808   11.6031   -2.2028 H   0  0  0  0  0  0  0  0  0  0  0  0
    2.9653   12.5811   -0.0792 H   0  0  0  0  0  0  0  0  0  0  0  0
    3.6377   12.9543   -1.7518 H   0  0  0  0  0  0  0  0  0  0  0  0
    3.5296   14.9727   -0.0626 H   0  0  0  0  0  0  0  0  0  0  0  0
   -0.1039   14.9873   -1.8244 H   0  0  0  0  0  0  0  0  0  0  0  0
    1.8180   15.9704   -4.0229 H   0  0  0  0  0  0  0  0  0  0  0  0
    0.0195   15.7355   -4.1686 H   0  0  0  0  0  0  0  0  0  0  0  0
    0.6343   18.1164   -3.8969 H   0  0  0  0  0  0  0  0  0  0  0  0
   -0.3726   17.4868   -2.5347 H   0  0  0  0  0  0  0  0  0  0  0  0
    1.3806   18.8520   -1.6283 H   0  0  0  0  0  0  0  0  0  0  0  0
    3.1880   18.8890   -2.7540 H   0  0  0  0  0  0  0  0  0  0  0  0
    0.8539   17.0243    1.1476 H   0  0  0  0  0  0  0  0  0  0  0  0
    0.0558   18.0195   -0.1170 H   0  0  0  0  0  0  0  0  0  0  0  0
   -0.1482   16.2348   -0.1170 H   0  0  0  0  0  0  0  0  0  0  0  0
    2.7598   17.2878    1.1123 H   0  0  0  0  0  0  0  0  0  0  0  0
    3.8845   16.7606   -0.1853 H   0  0  0  0  0  0  0  0  0  0  0  0
    3.2351   18.4354   -0.1853 H   0  0  0  0  0  0  0  0  0  0  0  0
    3.0443   13.3344   -3.6155 H   0  0  0  0  0  0  0  0  0  0  0  0
    1.7996   12.5293   -4.6302 H   0  0  0  0  0  0  0  0  0  0  0  0
    1.9374   14.3203   -4.6302 H   0  0  0  0  0  0  0  0  0  0  0  0
   -0.8660   13.8829   -3.8670 H   0  0  0  0  0  0  0  0  0  0  0  0
   -0.1348   12.1962   -4.1017 H   0  0  0  0  0  0  0  0  0  0  0  0
   -1.7584   13.1958   -1.7452 H   0  0  0  0  0  0  0  0  0  0  0  0
   -2.1935   11.9296   -2.9592 H   0  0  0  0  0  0  0  0  0  0  0  0
    0.1205    9.3233   -1.8884 H   0  0  0  0  0  0  0  0  0  0  0  0
   -1.0663    9.8618   -3.1247 H   0  0  0  0  0  0  0  0  0  0  0  0
    0.5988   10.5356   -3.1247 H   0  0  0  0  0  0  0  0  0  0  0  0
  1  2  1  0
  2  3  1  0
  3  4  1  0
  4  5  1  0
  5  6  1  0
  6  7  1  0
  7  8  1  0
  7  9  1  0
  2 10  1  0
 10 11  1  0
 11 12  1  0
 12 13  1  0
 13 14  1  1
 13 15  1  0
 15 16  1  0
 16 17  1  0
 17 18  2  0
 18 19  1  0
 19 20  1  0
 20 21  1  0
 21 22  1  0
 22 23  1  0
 22 24  1  0
 24 25  1  0
 24 26  1  0
 19 27  1  0
 27 28  1  6
 27 29  1  0
 29 30  1  0
 30 31  1  0
 31 32  1  6
  7  5  1  0
 31 10  1  0
 31 13  1  0
 27 15  1  0
 24 18  1  0
  1 33  1  0
  1 34  1  0
  1 35  1  0
  2 36  1  6
  3 37  1  0
  3 38  1  0
  4 39  1  0
  4 40  1  0
  5 41  1  1
  8 42  1  0
  8 43  1  0
  8 44  1  0
  9 45  1  0
  9 46  1  0
  9 47  1  0
 10 48  1  1
 11 49  1  0
 11 50  1  0
 12 51  1  0
 12 52  1  0
 14 53  1  0
 14 54  1  0
 14 55  1  0
 15 56  1  6
 16 57  1  0
 16 58  1  0
 17 59  1  0
 19 60  1  1
 20 61  1  0
 20 62  1  0
 21 63  1  0
 21 64  1  0
 22 65  1  1
 23 66  1  0
 25 67  1  0
 25 68  1  0
 25 69  1  0
 26 70  1  0
 26 71  1  0
 26 72  1  0
 28 73  1  0
 28 74  1  0
 28 75  1  0
 29 76  1  0
 29 77  1  0
 30 78  1  0
 30 79  1  0
 32 80  1  0
 32 81  1  0
 32 82  1  0
M  END
>  <meeko>  (5) 
{"is_sidechain": [false], "intermolecular_energy": 2.731, "internal_energy": -0.839}

$$$$
EPH_relaxed_0001_pdb2pqr_Repair_58_r2_0001_out
     RDKit          3D

 82 86  0  0  0  0  0  0  0  0999 V2000
    2.0220   18.2000   -2.8370 C   0  0  0  0  0  0  0  0  0  0  0  0
    0.8770   17.6870   -1.9600 C   0  0  2  0  0  0  0  0  0  0  0  0
    1.2460   17.6880   -0.4630 C   0  0  0  0  0  0  0  0  0  0  0  0
    1.2520   19.0830    0.1690 C   0  0  0  0  0  0  0  0  0  0  0  0
   -0.0230   19.8210   -0.1050 C   0  0  2  0  0  0  0  0  0  0  0  0
   -0.7630   20.1920    1.0650 O   0  0  0  0  0  0  0  0  0  0  0  0
   -1.3990   19.2510    0.1860 C   0  0  0  0  0  0  0  0  0  0  0  0
   -1.5690   17.8860    0.7750 C   0  0  0  0  0  0  0  0  0  0  0  0
   -2.5760   19.8120   -0.5490 C   0  0  0  0  0  0  0  0  0  0  0  0
    0.4760   16.2830   -2.3960 C   0  0  1  0  0  0  0  0  0  0  0  0
    0.5760   16.0830   -3.9320 C   0  0  0  0  0  0  0  0  0  0  0  0
    1.0260   14.6180   -4.1650 C   0  0  0  0  0  0  0  0  0  0  0  0
    0.8510   13.9330   -2.7890 C   0  0  1  0  0  0  0  0  0  0  0  0
   -0.6680   13.5850   -2.7050 C   0  0  0  0  0  0  0  0  0  0  0  0
    1.7460   12.6800   -2.5220 C   0  0  2  0  0  0  0  0  0  0  0  0
    1.5030   11.4910   -3.4690 C   0  0  0  0  0  0  0  0  0  0  0  0
    0.4780   10.5080   -3.0090 C   0  0  0  0  0  0  0  0  0  0  0  0
   -0.0140   10.4190   -1.7590 C   0  0  0  0  0  0  0  0  0  0  0  0
    0.5340   11.3020   -0.6310 C   0  0  1  0  0  0  0  0  0  0  0  0
    0.7940   10.4330    0.6270 C   0  0  0  0  0  0  0  0  0  0  0  0
   -0.4360    9.6390    1.0540 C   0  0  0  0  0  0  0  0  0  0  0  0
   -0.9170    8.7300   -0.0740 C   0  0  2  0  0  0  0  0  0  0  0  0
    0.0700    7.7200   -0.3040 O   0  0  0  0  0  0  0  0  0  0  0  0
   -1.2020    9.4940   -1.3970 C   0  0  0  0  0  0  0  0  0  0  0  0
   -2.4680   10.3710   -1.2300 C   0  0  0  0  0  0  0  0  0  0  0  0
   -1.5430    8.4450   -2.4900 C   0  0  0  0  0  0  0  0  0  0  0  0
    1.7780   12.2160   -1.0090 C   0  0  1  0  0  0  0  0  0  0  0  0
    3.1040   11.4180   -0.8170 C   0  0  0  0  0  0  0  0  0  0  0  0
    1.8440   13.4330   -0.0120 C   0  0  0  0  0  0  0  0  0  0  0  0
    1.0330   14.6870   -0.3920 C   0  0  0  0  0  0  0  0  0  0  0  0
    1.3080   15.1010   -1.8400 C   0  0  2  0  0  0  0  0  0  0  0  0
    2.8250   15.4780   -1.9500 C   0  0  0  0  0  0  0  0  0  0  0  0
    2.8385   18.5658   -2.1970 H   0  0  0  0  0  0  0  0  0  0  0  0
    2.3924   17.3818   -3.4721 H   0  0  0  0  0  0  0  0  0  0  0  0
    1.6579   19.0211   -3.4721 H   0  0  0  0  0  0  0  0  0  0  0  0
    0.0278   18.3737   -2.0912 H   0  0  0  0  0  0  0  0  0  0  0  0
    0.5154   17.0662    0.0751 H   0  0  0  0  0  0  0  0  0  0  0  0
    2.2705   17.2952   -0.3843 H   0  0  0  0  0  0  0  0  0  0  0  0
    1.3781   18.9809    1.2570 H   0  0  0  0  0  0  0  0  0  0  0  0
    2.0813   19.6557   -0.2719 H   0  0  0  0  0  0  0  0  0  0  0  0
    0.4096   20.2816   -1.0054 H   0  0  0  0  0  0  0  0  0  0  0  0
   -1.5602   17.9566    1.8727 H   0  0  0  0  0  0  0  0  0  0  0  0
   -2.5271   17.4600    0.4426 H   0  0  0  0  0  0  0  0  0  0  0  0
   -0.7446   17.2380    0.4426 H   0  0  0  0  0  0  0  0  0  0  0  0
   -3.3241   20.1686    0.1744 H   0  0  0  0  0  0  0  0  0  0  0  0
   -2.2480   20.6506   -1.1808 H   0  0  0  0  0  0  0  0  0  0  0  0
   -3.0209   19.0291   -1.1808 H   0  0  0  0  0  0  0  0  0  0  0  0
   -0.5454   16.2484   -1.9892 H   0  0  0  0  0  0  0  0  0  0  0  0
   -0.4036   16.2573   -4.4011 H   0  0  0  0  0  0  0  0  0  0  0  0
    1.2913   16.7908   -4.3763 H   0  0  0  0  0  0  0  0  0  0  0  0
    0.3936   14.1334   -4.9234 H   0  0  0  0  0  0  0  0  0  0  0  0
    2.0598   14.5528   -4.5352 H   0  0  0  0  0  0  0  0  0  0  0  0
   -0.9705   13.5157   -1.6497 H   0  0  0  0  0  0  0  0  0  0  0  0
   -1.2527   14.3725   -3.2031 H   0  0  0  0  0  0  0  0  0  0  0  0
   -0.8515   12.6215   -3.2031 H   0  0  0  0  0  0  0  0  0  0  0  0
    2.7522   13.0537   -2.7625 H   0  0  0  0  0  0  0  0  0  0  0  0
    1.1779   11.8914   -4.4406 H   0  0  0  0  0  0  0  0  0  0  0  0
    2.4538   10.9398   -3.5152 H   0  0  0  0  0  0  0  0  0  0  0  0
    0.0923    9.7966   -3.7540 H   0  0  0  0  0  0  0  0  0  0  0  0
   -0.2499   12.0434   -0.4167 H   0  0  0  0  0  0  0  0  0  0  0  0
    1.6094    9.7284    0.4064 H   0  0  0  0  0  0  0  0  0  0  0  0
    1.0568   11.1109    1.4525 H   0  0  0  0  0  0  0  0  0  0  0  0
   -0.1810    9.0229    1.9289 H   0  0  0  0  0  0  0  0  0  0  0  0
   -1.2412   10.3458    1.3030 H   0  0  0  0  0  0  0  0  0  0  0  0
   -1.8723    8.2867    0.2435 H   0  0  0  0  0  0  0  0  0  0  0  0
    0.2590    7.7060   -1.2580 H   0  0  0  0  0  0  0  0  0  0  0  0
   -2.6757   10.5149   -0.1594 H   0  0  0  0  0  0  0  0  0  0  0  0
   -2.3022   11.3487   -1.7060 H   0  0  0  0  0  0  0  0  0  0  0  0
   -3.3251    9.8721   -1.7060 H   0  0  0  0  0  0  0  0  0  0  0  0
   -1.8492    7.5031   -2.0114 H   0  0  0  0  0  0  0  0  0  0  0  0
   -2.3648    8.8221   -3.1164 H   0  0  0  0  0  0  0  0  0  0  0  0
   -0.6565    8.2668   -3.1164 H   0  0  0  0  0  0  0  0  0  0  0  0
    3.3064   11.2962    0.2573 H   0  0  0  0  0  0  0  0  0  0  0  0
    3.0074   10.4279   -1.2865 H   0  0  0  0  0  0  0  0  0  0  0  0
    3.9336   11.9670   -1.2865 H   0  0  0  0  0  0  0  0  0  0  0  0
    1.4781   13.0833    0.9647 H   0  0  0  0  0  0  0  0  0  0  0  0
    2.8954   13.7563   -0.0215 H   0  0  0  0  0  0  0  0  0  0  0  0
   -0.0393   14.4701   -0.2775 H   0  0  0  0  0  0  0  0  0  0  0  0
    1.3326   15.5120    0.2710 H   0  0  0  0  0  0  0  0  0  0  0  0
    3.2506   15.5838   -0.9412 H   0  0  0  0  0  0  0  0  0  0  0  0
    3.3613   14.6858   -2.4930 H   0  0  0  0  0  0  0  0  0  0  0  0
    2.9280   16.4291   -2.4930 H   0  0  0  0  0  0  0  0  0  0  0  0
  1  2  1  0
  2  3  1  0
  3  4  1  0
  4  5  1  0
  5  6  1  0
  6  7  1  0
  7  8  1  0
  7  9  1  0
  2 10  1  0
 10 11  1  0
 11 12  1  0
 12 13  1  0
 13 14  1  1
 13 15  1  0
 15 16  1  0
 16 17  1  0
 17 18  2  0
 18 19  1  0
 19 20  1  0
 20 21  1  0
 21 22  1  0
 22 23  1  0
 22 24  1  0
 24 25  1  0
 24 26  1  0
 19 27  1  0
 27 28  1  6
 27 29  1  0
 29 30  1  0
 30 31  1  0
 31 32  1  1
  7  5  1  0
 31 10  1  0
 31 13  1  0
 27 15  1  0
 24 18  1  0
  1 33  1  0
  1 34  1  0
  1 35  1  0
  2 36  1  1
  3 37  1  0
  3 38  1  0
  4 39  1  0
  4 40  1  0
  5 41  1  6
  8 42  1  0
  8 43  1  0
  8 44  1  0
  9 45  1  0
  9 46  1  0
  9 47  1  0
 10 48  1  1
 11 49  1  0
 11 50  1  0
 12 51  1  0
 12 52  1  0
 14 53  1  0
 14 54  1  0
 14 55  1  0
 15 56  1  6
 16 57  1  0
 16 58  1  0
 17 59  1  0
 19 60  1  1
 20 61  1  0
 20 62  1  0
 21 63  1  0
 21 64  1  0
 22 65  1  1
 23 66  1  0
 25 67  1  0
 25 68  1  0
 25 69  1  0
 26 70  1  0
 26 71  1  0
 26 72  1  0
 28 73  1  0
 28 74  1  0
 28 75  1  0
 29 76  1  0
 29 77  1  0
 30 78  1  0
 30 79  1  0
 32 80  1  0
 32 81  1  0
 32 82  1  0
M  END
>  <meeko>  (6) 
{"is_sidechain": [false], "intermolecular_energy": 2.731, "internal_energy": -0.839}

$$$$
EPH_relaxed_0001_pdb2pqr_Repair_58_r2_0001_out
     RDKit          3D

 82 86  0  0  0  0  0  0  0  0999 V2000
    3.6620   17.9380    0.6650 C   0  0  0  0  0  0  0  0  0  0  0  0
    2.6770   18.2930   -0.4530 C   0  0  2  0  0  0  0  0  0  0  0  0
    1.9470   19.6240   -0.1830 C   0  0  0  0  0  0  0  0  0  0  0  0
    0.8960   19.5360    0.9260 C   0  0  0  0  0  0  0  0  0  0  0  0
   -0.4110   20.1340    0.4990 C   0  0  2  0  0  0  0  0  0  0  0  0
   -1.4070   20.1930    1.5290 O   0  0  0  0  0  0  0  0  0  0  0  0
   -1.7030   19.3430    0.4090 C   0  0  0  0  0  0  0  0  0  0  0  0
   -1.7510   17.8860    0.7470 C   0  0  0  0  0  0  0  0  0  0  0  0
   -2.8000   19.8620   -0.4680 C   0  0  0  0  0  0  0  0  0  0  0  0
    1.6630   17.1690   -0.6270 C   0  0  1  0  0  0  0  0  0  0  0  0
    0.4080   17.6150   -1.4240 C   0  0  0  0  0  0  0  0  0  0  0  0
   -0.0440   16.3940   -2.2660 C   0  0  0  0  0  0  0  0  0  0  0  0
    0.7500   15.2020   -1.6840 C   0  0  1  0  0  0  0  0  0  0  0  0
   -0.0430   14.7760   -0.4090 C   0  0  0  0  0  0  0  0  0  0  0  0
    0.9880   13.9940   -2.6470 C   0  0  2  0  0  0  0  0  0  0  0  0
   -0.2880   13.2810   -3.1270 C   0  0  0  0  0  0  0  0  0  0  0  0
   -0.7460   12.1470   -2.2710 C   0  0  0  0  0  0  0  0  0  0  0  0
   -0.0100   11.5340   -1.3250 C   0  0  0  0  0  0  0  0  0  0  0  0
    1.4610   11.9100   -1.1060 C   0  0  1  0  0  0  0  0  0  0  0  0
    2.3140   10.6190   -0.9970 C   0  0  0  0  0  0  0  0  0  0  0  0
    1.7910    9.6600    0.0690 C   0  0  0  0  0  0  0  0  0  0  0  0
    0.3440    9.2640   -0.2160 C   0  0  2  0  0  0  0  0  0  0  0  0
    0.3070    8.4850   -1.4160 O   0  0  0  0  0  0  0  0  0  0  0  0
   -0.6080   10.4850   -0.3570 C   0  0  0  0  0  0  0  0  0  0  0  0
   -0.8030   11.1550    1.0260 C   0  0  0  0  0  0  0  0  0  0  0  0
   -2.0040    9.9540   -0.7820 C   0  0  0  0  0  0  0  0  0  0  0  0
    2.0690   12.9590   -2.1330 C   0  0  1  0  0  0  0  0  0  0  0  0
    2.6100   12.2170   -3.3940 C   0  0  0  0  0  0  0  0  0  0  0  0
    3.3090   13.6680   -1.4700 C   0  0  0  0  0  0  0  0  0  0  0  0
    3.0220   14.9260   -0.6290 C   0  0  0  0  0  0  0  0  0  0  0  0
    2.1270   15.9050   -1.3940 C   0  0  2  0  0  0  0  0  0  0  0  0
    2.9080   16.3690   -2.6710 C   0  0  0  0  0  0  0  0  0  0  0  0
    3.1857   18.1097    1.6415 H   0  0  0  0  0  0  0  0  0  0  0  0
    3.9493   16.8797    0.5782 H   0  0  0  0  0  0  0  0  0  0  0  0
    4.5584   18.5696    0.5782 H   0  0  0  0  0  0  0  0  0  0  0  0
    3.2576   18.4173   -1.3790 H   0  0  0  0  0  0  0  0  0  0  0  0
    2.6945   20.3775    0.1061 H   0  0  0  0  0  0  0  0  0  0  0  0
    1.4160   19.8925   -1.1082 H   0  0  0  0  0  0  0  0  0  0  0  0
    0.7371   18.4785    1.1837 H   0  0  0  0  0  0  0  0  0  0  0  0
    1.2650   20.1017    1.7943 H   0  0  0  0  0  0  0  0  0  0  0  0
    0.0986   20.7984   -0.2144 H   0  0  0  0  0  0  0  0  0  0  0  0
   -1.7550   17.7631    1.8401 H   0  0  0  0  0  0  0  0  0  0  0  0
   -2.6643   17.4415    0.3247 H   0  0  0  0  0  0  0  0  0  0  0  0
   -0.8690   17.3824    0.3247 H   0  0  0  0  0  0  0  0  0  0  0  0
   -3.6177   20.2489    0.1578 H   0  0  0  0  0  0  0  0  0  0  0  0
   -2.4100   20.6711   -1.1031 H   0  0  0  0  0  0  0  0  0  0  0  0
   -3.1782   19.0473   -1.1031 H   0  0  0  0  0  0  0  0  0  0  0  0
    1.4784   16.9219    0.4289 H   0  0  0  0  0  0  0  0  0  0  0  0
   -0.3929   17.9157   -0.7325 H   0  0  0  0  0  0  0  0  0  0  0  0
    0.6350   18.4771   -2.0684 H   0  0  0  0  0  0  0  0  0  0  0  0
   -1.1263   16.2284   -2.1596 H   0  0  0  0  0  0  0  0  0  0  0  0
    0.1450   16.5358   -3.3403 H   0  0  0  0  0  0  0  0  0  0  0  0
    0.5170   15.0769    0.4887 H   0  0  0  0  0  0  0  0  0  0  0  0
   -1.0275   15.2667   -0.4085 H   0  0  0  0  0  0  0  0  0  0  0  0
   -0.1774   13.6842   -0.4085 H   0  0  0  0  0  0  0  0  0  0  0  0
    1.4107   14.4821   -3.5376 H   0  0  0  0  0  0  0  0  0  0  0  0
   -1.0977   14.0244   -3.1678 H   0  0  0  0  0  0  0  0  0  0  0  0
   -0.0417   12.8430   -4.1055 H   0  0  0  0  0  0  0  0  0  0  0  0
   -1.7717   11.7813   -2.4264 H   0  0  0  0  0  0  0  0  0  0  0  0
    1.4959   12.4619   -0.1551 H   0  0  0  0  0  0  0  0  0  0  0  0
    2.3022   10.1054   -1.9697 H   0  0  0  0  0  0  0  0  0  0  0  0
    3.3331   10.9156   -0.7081 H   0  0  0  0  0  0  0  0  0  0  0  0
    2.4168    8.7554    0.0777 H   0  0  0  0  0  0  0  0  0  0  0  0
    1.8311   10.1647    1.0455 H   0  0  0  0  0  0  0  0  0  0  0  0
   -0.0152    8.6830    0.6462 H   0  0  0  0  0  0  0  0  0  0  0  0
    1.1800    8.0710   -1.5240 H   0  0  0  0  0  0  0  0  0  0  0  0
   -0.5904   10.4246    1.8205 H   0  0  0  0  0  0  0  0  0  0  0  0
   -0.1162   12.0091    1.1198 H   0  0  0  0  0  0  0  0  0  0  0  0
   -1.8409   11.5071    1.1198 H   0  0  0  0  0  0  0  0  0  0  0  0
   -2.5989    9.7277    0.1151 H   0  0  0  0  0  0  0  0  0  0  0  0
   -2.5203   10.7185   -1.3811 H   0  0  0  0  0  0  0  0  0  0  0  0
   -1.8817    9.0396   -1.3811 H   0  0  0  0  0  0  0  0  0  0  0  0
    3.2311   11.3652   -3.0799 H   0  0  0  0  0  0  0  0  0  0  0  0
    1.7645   11.8522   -3.9957 H   0  0  0  0  0  0  0  0  0  0  0  0
    3.2159   12.9104   -3.9957 H   0  0  0  0  0  0  0  0  0  0  0  0
    3.8005   12.9343   -0.8142 H   0  0  0  0  0  0  0  0  0  0  0  0
    3.9241   14.0187   -2.3118 H   0  0  0  0  0  0  0  0  0  0  0  0
    2.5168   14.6289    0.3019 H   0  0  0  0  0  0  0  0  0  0  0  0
    3.9771   15.4245   -0.4069 H   0  0  0  0  0  0  0  0  0  0  0  0
    3.8173   16.9092   -2.3686 H   0  0  0  0  0  0  0  0  0  0  0  0
    3.1862   15.4896   -3.2704 H   0  0  0  0  0  0  0  0  0  0  0  0
    2.2687   17.0339   -3.2704 H   0  0  0  0  0  0  0  0  0  0  0  0
  1  2  1  0
  2  3  1  0
  3  4  1  0
  4  5  1  0
  5  6  1  0
  6  7  1  0
  7  8  1  0
  7  9  1  0
  2 10  1  0
 10 11  1  0
 11 12  1  0
 12 13  1  0
 13 14  1  1
 13 15  1  0
 15 16  1  0
 16 17  1  0
 17 18  2  0
 18 19  1  0
 19 20  1  0
 20 21  1  0
 21 22  1  0
 22 23  1  0
 22 24  1  0
 24 25  1  0
 24 26  1  0
 19 27  1  0
 27 28  1  6
 27 29  1  0
 29 30  1  0
 30 31  1  0
 31 32  1  6
  7  5  1  0
 31 10  1  0
 31 13  1  0
 27 15  1  0
 24 18  1  0
  1 33  1  0
  1 34  1  0
  1 35  1  0
  2 36  1  6
  3 37  1  0
  3 38  1  0
  4 39  1  0
  4 40  1  0
  5 41  1  6
  8 42  1  0
  8 43  1  0
  8 44  1  0
  9 45  1  0
  9 46  1  0
  9 47  1  0
 10 48  1  1
 11 49  1  0
 11 50  1  0
 12 51  1  0
 12 52  1  0
 14 53  1  0
 14 54  1  0
 14 55  1  0
 15 56  1  6
 16 57  1  0
 16 58  1  0
 17 59  1  0
 19 60  1  1
 20 61  1  0
 20 62  1  0
 21 63  1  0
 21 64  1  0
 22 65  1  1
 23 66  1  0
 25 67  1  0
 25 68  1  0
 25 69  1  0
 26 70  1  0
 26 71  1  0
 26 72  1  0
 28 73  1  0
 28 74  1  0
 28 75  1  0
 29 76  1  0
 29 77  1  0
 30 78  1  0
 30 79  1  0
 32 80  1  0
 32 81  1  0
 32 82  1  0
M  END
>  <meeko>  (7) 
{"is_sidechain": [false], "intermolecular_energy": 2.731, "internal_energy": -0.839}

$$$$
EPH_relaxed_0001_pdb2pqr_Repair_58_r2_0001_out
     RDKit          3D

 82 86  0  0  0  0  0  0  0  0999 V2000
   -5.1280    5.8990   -1.7820 C   0  0  0  0  0  0  0  0  0  0  0  0
   -5.4500    7.3960   -1.8050 C   0  0  2  0  0  0  0  0  0  0  0  0
   -5.2360    8.0580   -0.4280 C   0  0  0  0  0  0  0  0  0  0  0  0
   -4.1800    9.1660   -0.4360 C   0  0  0  0  0  0  0  0  0  0  0  0
   -2.8250    8.6380   -0.8010 C   0  0  2  0  0  0  0  0  0  0  0  0
   -1.7890    8.9440    0.1420 O   0  0  0  0  0  0  0  0  0  0  0  0
   -1.6510    9.5280   -1.1640 C   0  0  0  0  0  0  0  0  0  0  0  0
   -1.7770   11.0190   -1.1800 C   0  0  0  0  0  0  0  0  0  0  0  0
   -0.5330    8.9440   -1.9700 C   0  0  0  0  0  0  0  0  0  0  0  0
   -6.8860    7.6120   -2.2680 C   0  0  1  0  0  0  0  0  0  0  0  0
   -7.1900    6.9070   -3.6170 C   0  0  0  0  0  0  0  0  0  0  0  0
   -8.6630    6.4260   -3.5480 C   0  0  0  0  0  0  0  0  0  0  0  0
   -9.2520    7.1510   -2.3160 C   0  0  1  0  0  0  0  0  0  0  0  0
   -9.6120    8.5810   -2.8260 C   0  0  0  0  0  0  0  0  0  0  0  0
  -10.4740    6.4600   -1.6270 C   0  0  2  0  0  0  0  0  0  0  0  0
  -11.7280    6.3220   -2.5070 C   0  0  0  0  0  0  0  0  0  0  0  0
  -12.6890    7.4630   -2.4320 C   0  0  0  0  0  0  0  0  0  0  0  0
  -12.6970    8.4170   -1.4830 C   0  0  0  0  0  0  0  0  0  0  0  0
  -11.7310    8.3520   -0.2920 C   0  0  1  0  0  0  0  0  0  0  0  0
  -12.5070    8.6340    1.0210 C   0  0  0  0  0  0  0  0  0  0  0  0
  -13.2840    9.9460    0.9700 C   0  0  0  0  0  0  0  0  0  0  0  0
  -14.2750    9.9490   -0.1910 C   0  0  2  0  0  0  0  0  0  0  0  0
  -15.2870    8.9700    0.0640 O   0  0  0  0  0  0  0  0  0  0  0  0
  -13.6090    9.6660   -1.5660 C   0  0  0  0  0  0  0  0  0  0  0  0
  -12.7370   10.8770   -1.9820 C   0  0  0  0  0  0  0  0  0  0  0  0
  -14.7350    9.5560   -2.6290 C   0  0  0  0  0  0  0  0  0  0  0  0
  -10.8310    7.0460   -0.2000 C   0  0  1  0  0  0  0  0  0  0  0  0
  -11.5980    5.9230    0.5630 C   0  0  0  0  0  0  0  0  0  0  0  0
   -9.5470    7.3650    0.6530 C   0  0  0  0  0  0  0  0  0  0  0  0
   -8.3320    7.9340   -0.1050 C   0  0  0  0  0  0  0  0  0  0  0  0
   -8.0170    7.0930   -1.3450 C   0  0  2  0  0  0  0  0  0  0  0  0
   -7.6300    5.6540   -0.8620 C   0  0  0  0  0  0  0  0  0  0  0  0
   -5.0542    5.5558   -0.7395 H   0  0  0  0  0  0  0  0  0  0  0  0
   -5.9273    5.3441   -2.2950 H   0  0  0  0  0  0  0  0  0  0  0  0
   -4.1712    5.7218   -2.2950 H   0  0  0  0  0  0  0  0  0  0  0  0
   -4.7552    7.8724   -2.5123 H   0  0  0  0  0  0  0  0  0  0  0  0
   -6.1918    8.4915   -0.0987 H   0  0  0  0  0  0  0  0  0  0  0  0
   -4.8742    7.2737    0.2532 H   0  0  0  0  0  0  0  0  0  0  0  0
   -4.4731    9.9325   -1.1685 H   0  0  0  0  0  0  0  0  0  0  0  0
   -4.1210    9.5908    0.5769 H   0  0  0  0  0  0  0  0  0  0  0  0
   -3.2730    7.7669   -1.3014 H   0  0  0  0  0  0  0  0  0  0  0  0
   -1.8088   11.3954   -0.1469 H   0  0  0  0  0  0  0  0  0  0  0  0
   -0.9125   11.4545   -1.7024 H   0  0  0  0  0  0  0  0  0  0  0  0
   -2.7024   11.3032   -1.7024 H   0  0  0  0  0  0  0  0  0  0  0  0
    0.2358    8.5424   -1.2935 H   0  0  0  0  0  0  0  0  0  0  0  0
   -0.9225    8.1341   -2.6044 H   0  0  0  0  0  0  0  0  0  0  0  0
   -0.0908    9.7263   -2.6044 H   0  0  0  0  0  0  0  0  0  0  0  0
   -6.9053    8.7112   -2.3039 H   0  0  0  0  0  0  0  0  0  0  0  0
   -7.0605    7.6126   -4.4509 H   0  0  0  0  0  0  0  0  0  0  0  0
   -6.5058    6.0621   -3.7843 H   0  0  0  0  0  0  0  0  0  0  0  0
   -9.2069    6.7081   -4.4615 H   0  0  0  0  0  0  0  0  0  0  0  0
   -8.7414    5.3319   -3.4655 H   0  0  0  0  0  0  0  0  0  0  0  0
   -9.7794    9.2458   -1.9657 H   0  0  0  0  0  0  0  0  0  0  0  0
   -8.7843    8.9719   -3.4359 H   0  0  0  0  0  0  0  0  0  0  0  0
  -10.5262    8.5334   -3.4359 H   0  0  0  0  0  0  0  0  0  0  0  0
  -10.1062    5.4355   -1.4689 H   0  0  0  0  0  0  0  0  0  0  0  0
  -11.4003    6.2218   -3.5523 H   0  0  0  0  0  0  0  0  0  0  0  0
  -12.2698    5.4426   -2.1288 H   0  0  0  0  0  0  0  0  0  0  0  0
  -13.4548    7.5290   -3.2189 H   0  0  0  0  0  0  0  0  0  0  0  0
  -10.9858    9.1431   -0.4620 H   0  0  0  0  0  0  0  0  0  0  0  0
  -13.2155    7.8109    1.1958 H   0  0  0  0  0  0  0  0  0  0  0  0
  -11.7705    8.7131    1.8342 H   0  0  0  0  0  0  0  0  0  0  0  0
  -13.8346   10.0751    1.9135 H   0  0  0  0  0  0  0  0  0  0  0  0
  -12.5708   10.7707    0.8246 H   0  0  0  0  0  0  0  0  0  0  0  0
  -14.7061   10.9590   -0.2537 H   0  0  0  0  0  0  0  0  0  0  0  0
  -14.9180    8.1000   -0.1630 H   0  0  0  0  0  0  0  0  0  0  0  0
  -12.3679   11.3896   -1.0815 H   0  0  0  0  0  0  0  0  0  0  0  0
  -11.8831   10.5258   -2.5800 H   0  0  0  0  0  0  0  0  0  0  0  0
  -13.3408   11.5754   -2.5800 H   0  0  0  0  0  0  0  0  0  0  0  0
  -15.7077    9.4610   -2.1243 H   0  0  0  0  0  0  0  0  0  0  0  0
  -14.7349   10.4584   -3.2580 H   0  0  0  0  0  0  0  0  0  0  0  0
  -14.5602    8.6707   -3.2580 H   0  0  0  0  0  0  0  0  0  0  0  0
  -11.4921    6.0780    1.6469 H   0  0  0  0  0  0  0  0  0  0  0  0
  -12.6631    5.9560    0.2902 H   0  0  0  0  0  0  0  0  0  0  0  0
  -11.1798    4.9429    0.2902 H   0  0  0  0  0  0  0  0  0  0  0  0
   -9.8322    8.0979    1.4221 H   0  0  0  0  0  0  0  0  0  0  0  0
   -9.2125    6.3926    1.0436 H   0  0  0  0  0  0  0  0  0  0  0  0
   -8.5530    8.9656   -0.4164 H   0  0  0  0  0  0  0  0  0  0  0  0
   -7.4594    7.9126    0.5644 H   0  0  0  0  0  0  0  0  0  0  0  0
   -7.6225    5.6260    0.2376 H   0  0  0  0  0  0  0  0  0  0  0  0
   -8.3652    4.9295   -1.2422 H   0  0  0  0  0  0  0  0  0  0  0  0
   -6.6306    5.3960   -1.2422 H   0  0  0  0  0  0  0  0  0  0  0  0
  1  2  1  0
  2  3  1  0
  3  4  1  0
  4  5  1  0
  5  6  1  0
  6  7  1  0
  7  8  1  0
  7  9  1  0
  2 10  1  0
 10 11  1  0
 11 12  1  0
 12 13  1  0
 13 14  1  6
 13 15  1  0
 15 16  1  0
 16 17  1  0
 17 18  2  0
 18 19  1  0
 19 20  1  0
 20 21  1  0
 21 22  1  0
 22 23  1  0
 22 24  1  0
 24 25  1  0
 24 26  1  0
 19 27  1  0
 27 28  1  1
 27 29  1  0
 29 30  1  0
 30 31  1  0
 31 32  1  1
  7  5  1  0
 31 10  1  0
 31 13  1  0
 27 15  1  0
 24 18  1  0
  1 33  1  0
  1 34  1  0
  1 35  1  0
  2 36  1  6
  3 37  1  0
  3 38  1  0
  4 39  1  0
  4 40  1  0
  5 41  1  6
  8 42  1  0
  8 43  1  0
  8 44  1  0
  9 45  1  0
  9 46  1  0
  9 47  1  0
 10 48  1  6
 11 49  1  0
 11 50  1  0
 12 51  1  0
 12 52  1  0
 14 53  1  0
 14 54  1  0
 14 55  1  0
 15 56  1  1
 16 57  1  0
 16 58  1  0
 17 59  1  0
 19 60  1  6
 20 61  1  0
 20 62  1  0
 21 63  1  0
 21 64  1  0
 22 65  1  6
 23 66  1  0
 25 67  1  0
 25 68  1  0
 25 69  1  0
 26 70  1  0
 26 71  1  0
 26 72  1  0
 28 73  1  0
 28 74  1  0
 28 75  1  0
 29 76  1  0
 29 77  1  0
 30 78  1  0
 30 79  1  0
 32 80  1  0
 32 81  1  0
 32 82  1  0
M  END
>  <meeko>  (8) 
{"is_sidechain": [false], "intermolecular_energy": 2.731, "internal_energy": -0.839}

$$$$
EPH_relaxed_0001_pdb2pqr_Repair_58_r2_0001_out
     RDKit          3D

 82 86  0  0  0  0  0  0  0  0999 V2000
    0.4060    8.8770   -2.5550 C   0  0  0  0  0  0  0  0  0  0  0  0
    1.1690   10.0400   -3.1960 C   0  0  2  0  0  0  0  0  0  0  0  0
    2.6630   10.0360   -2.8120 C   0  0  0  0  0  0  0  0  0  0  0  0
    3.5750   10.6370   -3.8850 C   0  0  0  0  0  0  0  0  0  0  0  0
    4.9610   10.8720   -3.3650 C   0  0  2  0  0  0  0  0  0  0  0  0
    5.5800   12.0770   -3.8340 O   0  0  0  0  0  0  0  0  0  0  0  0
    6.1990   10.8460   -4.2430 C   0  0  0  0  0  0  0  0  0  0  0  0
    6.1090   10.5780   -5.7120 C   0  0  0  0  0  0  0  0  0  0  0  0
    7.5270   10.5970   -3.5990 C   0  0  0  0  0  0  0  0  0  0  0  0
    0.5310   11.3650   -2.7940 C   0  0  1  0  0  0  0  0  0  0  0  0
   -0.8430   11.1790   -2.0980 C   0  0  0  0  0  0  0  0  0  0  0  0
   -0.9560   12.2920   -1.0250 C   0  0  0  0  0  0  0  0  0  0  0  0
    0.1930   13.2730   -1.3590 C   0  0  1  0  0  0  0  0  0  0  0  0
   -0.3600   14.1590   -2.5180 C   0  0  0  0  0  0  0  0  0  0  0  0
    0.7270   14.1410   -0.1730 C   0  0  2  0  0  0  0  0  0  0  0  0
   -0.3010   15.1020    0.4470 C   0  0  0  0  0  0  0  0  0  0  0  0
   -0.3470   16.4650   -0.1610 C   0  0  0  0  0  0  0  0  0  0  0  0
    0.5920   16.9940   -0.9670 C   0  0  0  0  0  0  0  0  0  0  0  0
    1.8930   16.2360   -1.2640 C   0  0  1  0  0  0  0  0  0  0  0  0
    3.0990   17.2000   -1.1150 C   0  0  0  0  0  0  0  0  0  0  0  0
    2.9510   18.4590   -1.9630 C   0  0  0  0  0  0  0  0  0  0  0  0
    1.6760   19.2160   -1.5980 C   0  0  2  0  0  0  0  0  0  0  0  0
    1.8060   19.7220   -0.2660 O   0  0  0  0  0  0  0  0  0  0  0  0
    0.3940   18.3430   -1.7020 C   0  0  0  0  0  0  0  0  0  0  0  0
    0.0870   18.0450   -3.1900 C   0  0  0  0  0  0  0  0  0  0  0  0
   -0.7990   19.1820   -1.1720 C   0  0  0  0  0  0  0  0  0  0  0  0
    2.0970   14.8740   -0.4720 C   0  0  1  0  0  0  0  0  0  0  0  0
    2.7620   15.1560    0.9100 C   0  0  0  0  0  0  0  0  0  0  0  0
    3.1030   13.9610   -1.2700 C   0  0  0  0  0  0  0  0  0  0  0  0
    2.4990   13.0390   -2.3470 C   0  0  0  0  0  0  0  0  0  0  0  0
    1.3090   12.2520   -1.7900 C   0  0  2  0  0  0  0  0  0  0  0  0
    1.8390   11.3350   -0.6360 C   0  0  0  0  0  0  0  0  0  0  0  0
    0.4614    8.9615   -1.4597 H   0  0  0  0  0  0  0  0  0  0  0  0
   -0.6467    8.9098   -2.8725 H   0  0  0  0  0  0  0  0  0  0  0  0
    0.8552    7.9244   -2.8725 H   0  0  0  0  0  0  0  0  0  0  0  0
    1.1083    9.9144   -4.2871 H   0  0  0  0  0  0  0  0  0  0  0  0
    2.7854   10.6176   -1.8864 H   0  0  0  0  0  0  0  0  0  0  0  0
    2.9608    8.9843   -2.6887 H   0  0  0  0  0  0  0  0  0  0  0  0
    3.6267    9.9443   -4.7379 H   0  0  0  0  0  0  0  0  0  0  0  0
    3.1538   11.6063   -4.1900 H   0  0  0  0  0  0  0  0  0  0  0  0
    4.7171   10.3680   -2.4182 H   0  0  0  0  0  0  0  0  0  0  0  0
    5.7627    9.5469   -5.8761 H   0  0  0  0  0  0  0  0  0  0  0  0
    5.3976   11.2809   -6.1701 H   0  0  0  0  0  0  0  0  0  0  0  0
    7.1005   10.7091   -6.1701 H   0  0  0  0  0  0  0  0  0  0  0  0
    7.4137   10.6182   -2.5051 H   0  0  0  0  0  0  0  0  0  0  0  0
    7.9061    9.6121   -3.9093 H   0  0  0  0  0  0  0  0  0  0  0  0
    8.2371   11.3776   -3.9093 H   0  0  0  0  0  0  0  0  0  0  0  0
    0.4897   11.8565   -3.7772 H   0  0  0  0  0  0  0  0  0  0  0  0
   -1.6559   11.2772   -2.8325 H   0  0  0  0  0  0  0  0  0  0  0  0
   -0.9223   10.1813   -1.6416 H   0  0  0  0  0  0  0  0  0  0  0  0
   -1.9304   12.7980   -1.0913 H   0  0  0  0  0  0  0  0  0  0  0  0
   -0.8816   11.8947   -0.0019 H   0  0  0  0  0  0  0  0  0  0  0  0
   -0.8979   15.0208   -2.0961 H   0  0  0  0  0  0  0  0  0  0  0  0
    0.4759   14.5160   -3.1375 H   0  0  0  0  0  0  0  0  0  0  0  0
   -1.0479   13.5649   -3.1375 H   0  0  0  0  0  0  0  0  0  0  0  0
    0.9315   13.3847    0.5991 H   0  0  0  0  0  0  0  0  0  0  0  0
   -1.2975   14.6485    0.3408 H   0  0  0  0  0  0  0  0  0  0  0  0
    0.0083   15.2454    1.4928 H   0  0  0  0  0  0  0  0  0  0  0  0
   -1.2226   17.0897    0.0694 H   0  0  0  0  0  0  0  0  0  0  0  0
    1.8160   15.8945   -2.3068 H   0  0  0  0  0  0  0  0  0  0  0  0
    3.1862   17.4947   -0.0588 H   0  0  0  0  0  0  0  0  0  0  0  0
    3.9965   16.6674   -1.4627 H   0  0  0  0  0  0  0  0  0  0  0  0
    3.8192   19.1125   -1.7918 H   0  0  0  0  0  0  0  0  0  0  0  0
    2.8939   18.1648   -3.0214 H   0  0  0  0  0  0  0  0  0  0  0  0
    1.5585   20.0337   -2.3243 H   0  0  0  0  0  0  0  0  0  0  0  0
    2.1060   18.9900    0.3000 H   0  0  0  0  0  0  0  0  0  0  0  0
   -0.7009   17.2802   -3.2558 H   0  0  0  0  0  0  0  0  0  0  0  0
   -0.2537   18.9660   -3.6857 H   0  0  0  0  0  0  0  0  0  0  0  0
    0.9975   17.6771   -3.6857 H   0  0  0  0  0  0  0  0  0  0  0  0
   -0.7912   19.1765   -0.0720 H   0  0  0  0  0  0  0  0  0  0  0  0
   -0.7091   20.2168   -1.5341 H   0  0  0  0  0  0  0  0  0  0  0  0
   -1.7424   18.7475   -1.5341 H   0  0  0  0  0  0  0  0  0  0  0  0
    2.0722   14.8635    1.7153 H   0  0  0  0  0  0  0  0  0  0  0  0
    3.6921   14.5749    0.9948 H   0  0  0  0  0  0  0  0  0  0  0  0
    2.9908   16.2286    0.9948 H   0  0  0  0  0  0  0  0  0  0  0  0
    3.8298   14.6210   -1.7662 H   0  0  0  0  0  0  0  0  0  0  0  0
    3.5345   13.2828   -0.5191 H   0  0  0  0  0  0  0  0  0  0  0  0
    2.1601   13.6511   -3.1958 H   0  0  0  0  0  0  0  0  0  0  0  0
    3.2709   12.3254   -2.6709 H   0  0  0  0  0  0  0  0  0  0  0  0
    1.5807   11.7819    0.3354 H   0  0  0  0  0  0  0  0  0  0  0  0
    1.3766   10.3401   -0.7165 H   0  0  0  0  0  0  0  0  0  0  0  0
    2.9318   11.2390   -0.7165 H   0  0  0  0  0  0  0  0  0  0  0  0
  1  2  1  0
  2  3  1  0
  3  4  1  0
  4  5  1  0
  5  6  1  0
  6  7  1  0
  7  8  1  0
  7  9  1  0
  2 10  1  0
 10 11  1  0
 11 12  1  0
 12 13  1  0
 13 14  1  6
 13 15  1  0
 15 16  1  0
 16 17  1  0
 17 18  2  0
 18 19  1  0
 19 20  1  0
 20 21  1  0
 21 22  1  0
 22 23  1  0
 22 24  1  0
 24 25  1  0
 24 26  1  0
 19 27  1  0
 27 28  1  1
 27 29  1  0
 29 30  1  0
 30 31  1  0
 31 32  1  1
  7  5  1  0
 31 10  1  0
 31 13  1  0
 27 15  1  0
 24 18  1  0
  1 33  1  0
  1 34  1  0
  1 35  1  0
  2 36  1  6
  3 37  1  0
  3 38  1  0
  4 39  1  0
  4 40  1  0
  5 41  1  1
  8 42  1  0
  8 43  1  0
  8 44  1  0
  9 45  1  0
  9 46  1  0
  9 47  1  0
 10 48  1  6
 11 49  1  0
 11 50  1  0
 12 51  1  0
 12 52  1  0
 14 53  1  0
 14 54  1  0
 14 55  1  0
 15 56  1  1
 16 57  1  0
 16 58  1  0
 17 59  1  0
 19 60  1  6
 20 61  1  0
 20 62  1  0
 21 63  1  0
 21 64  1  0
 22 65  1  6
 23 66  1  0
 25 67  1  0
 25 68  1  0
 25 69  1  0
 26 70  1  0
 26 71  1  0
 26 72  1  0
 28 73  1  0
 28 74  1  0
 28 75  1  0
 29 76  1  0
 29 77  1  0
 30 78  1  0
 30 79  1  0
 32 80  1  0
 32 81  1  0
 32 82  1  0
M  END
>  <meeko>  (9) 
{"is_sidechain": [false], "intermolecular_energy": 2.731, "internal_energy": -0.839}

$$$$
EPH_relaxed_0001_pdb2pqr_Repair_58_r2_0001_out
     RDKit          3D

 82 86  0  0  0  0  0  0  0  0999 V2000
   -0.1880   10.5290   -4.0180 C   0  0  0  0  0  0  0  0  0  0  0  0
    1.0100   10.3650   -3.0790 C   0  0  2  0  0  0  0  0  0  0  0  0
    0.9690    9.0270   -2.3130 C   0  0  0  0  0  0  0  0  0  0  0  0
   -0.4350    8.6250   -1.8520 C   0  0  0  0  0  0  0  0  0  0  0  0
   -0.6770    8.9980   -0.4210 C   0  0  2  0  0  0  0  0  0  0  0  0
   -2.0570    9.0120   -0.0320 O   0  0  0  0  0  0  0  0  0  0  0  0
   -1.3760   10.2760    0.0030 C   0  0  0  0  0  0  0  0  0  0  0  0
   -1.8750   11.2640   -1.0040 C   0  0  0  0  0  0  0  0  0  0  0  0
   -1.1390   10.7960    1.3870 C   0  0  0  0  0  0  0  0  0  0  0  0
    1.0610   11.5280   -2.0950 C   0  0  1  0  0  0  0  0  0  0  0  0
    2.1100   11.3130   -0.9710 C   0  0  0  0  0  0  0  0  0  0  0  0
    2.7010   12.7080   -0.6390 C   0  0  0  0  0  0  0  0  0  0  0  0
    1.7510   13.7100   -1.3350 C   0  0  1  0  0  0  0  0  0  0  0  0
    0.5380   13.8530   -0.3630 C   0  0  0  0  0  0  0  0  0  0  0  0
    2.3630   15.1010   -1.7030 C   0  0  2  0  0  0  0  0  0  0  0  0
    2.8410   15.9410   -0.5060 C   0  0  0  0  0  0  0  0  0  0  0  0
    1.8190   16.8600    0.0770 C   0  0  0  0  0  0  0  0  0  0  0  0
    0.6620   17.2170   -0.5110 C   0  0  0  0  0  0  0  0  0  0  0  0
    0.3290   16.7590   -1.9370 C   0  0  1  0  0  0  0  0  0  0  0  0
   -0.1970   17.9650   -2.7580 C   0  0  0  0  0  0  0  0  0  0  0  0
   -1.3710   18.6670   -2.0810 C   0  0  0  0  0  0  0  0  0  0  0  0
   -0.9830   19.1580   -0.6890 C   0  0  2  0  0  0  0  0  0  0  0  0
   -0.0050   20.1940   -0.8220 O   0  0  0  0  0  0  0  0  0  0  0  0
   -0.4290   18.0310    0.2270 C   0  0  0  0  0  0  0  0  0  0  0  0
   -1.5760   17.0660    0.6160 C   0  0  0  0  0  0  0  0  0  0  0  0
    0.0560   18.6850    1.5490 C   0  0  0  0  0  0  0  0  0  0  0  0
    1.4740   15.9580   -2.6930 C   0  0  1  0  0  0  0  0  0  0  0  0
    2.4380   16.9550   -3.4070 C   0  0  0  0  0  0  0  0  0  0  0  0
    0.8250   15.0800   -3.8270 C   0  0  0  0  0  0  0  0  0  0  0  0
    0.3480   13.6700   -3.4280 C   0  0  0  0  0  0  0  0  0  0  0  0
    1.4400   12.9200   -2.6580 C   0  0  2  0  0  0  0  0  0  0  0  0
    2.6650   12.7410   -3.6180 C   0  0  0  0  0  0  0  0  0  0  0  0
   -1.1051   10.6546   -3.4238 H   0  0  0  0  0  0  0  0  0  0  0  0
   -0.0380   11.4150   -4.6524 H   0  0  0  0  0  0  0  0  0  0  0  0
   -0.2816    9.6353   -4.6524 H   0  0  0  0  0  0  0  0  0  0  0  0
    1.9188   10.3620   -3.6987 H   0  0  0  0  0  0  0  0  0  0  0  0
    1.3575    8.2371   -2.9726 H   0  0  0  0  0  0  0  0  0  0  0  0
    1.5803    9.1557   -1.4076 H   0  0  0  0  0  0  0  0  0  0  0  0
   -1.1772    9.1351   -2.4837 H   0  0  0  0  0  0  0  0  0  0  0  0
   -0.5253    7.5324   -1.9413 H   0  0  0  0  0  0  0  0  0  0  0  0
    0.2764    8.5422   -0.1156 H   0  0  0  0  0  0  0  0  0  0  0  0
   -2.3119   12.1291   -0.4836 H   0  0  0  0  0  0  0  0  0  0  0  0
   -1.0383   11.5995   -1.6343 H   0  0  0  0  0  0  0  0  0  0  0  0
   -2.6417   10.7897   -1.6343 H   0  0  0  0  0  0  0  0  0  0  0  0
   -1.4785   10.0511    2.1217 H   0  0  0  0  0  0  0  0  0  0  0  0
   -0.0649   10.9870    1.5280 H   0  0  0  0  0  0  0  0  0  0  0  0
   -1.6995   11.7320    1.5280 H   0  0  0  0  0  0  0  0  0  0  0  0
    0.0138   11.5311   -1.7584 H   0  0  0  0  0  0  0  0  0  0  0  0
    1.6283   10.8837   -0.0801 H   0  0  0  0  0  0  0  0  0  0  0  0
    2.8979   10.6164   -1.2935 H   0  0  0  0  0  0  0  0  0  0  0  0
    2.7135   12.8757    0.4481 H   0  0  0  0  0  0  0  0  0  0  0  0
    3.7411   12.8126   -0.9815 H   0  0  0  0  0  0  0  0  0  0  0  0
    0.8944   13.8110    0.6768 H   0  0  0  0  0  0  0  0  0  0  0  0
    0.0375   14.8164   -0.5404 H   0  0  0  0  0  0  0  0  0  0  0  0
   -0.1728   13.0324   -0.5404 H   0  0  0  0  0  0  0  0  0  0  0  0
    3.2735   14.8205   -2.2528 H   0  0  0  0  0  0  0  0  0  0  0  0
    3.1676   15.2501    0.2852 H   0  0  0  0  0  0  0  0  0  0  0  0
    3.6464   16.5851   -0.8886 H   0  0  0  0  0  0  0  0  0  0  0  0
    2.0293   17.2810    1.0712 H   0  0  0  0  0  0  0  0  0  0  0  0
   -0.4630   16.0022   -1.8367 H   0  0  0  0  0  0  0  0  0  0  0  0
    0.6213   18.6891   -2.8845 H   0  0  0  0  0  0  0  0  0  0  0  0
   -0.5511   17.5807   -3.7259 H   0  0  0  0  0  0  0  0  0  0  0  0
   -1.6780   19.5274   -2.6937 H   0  0  0  0  0  0  0  0  0  0  0  0
   -2.1995   17.9502   -1.9824 H   0  0  0  0  0  0  0  0  0  0  0  0
   -1.8969   19.5334   -0.2054 H   0  0  0  0  0  0  0  0  0  0  0  0
   -0.4690   21.0050   -1.0900 H   0  0  0  0  0  0  0  0  0  0  0  0
   -1.6482   17.0052    1.7119 H   0  0  0  0  0  0  0  0  0  0  0  0
   -2.5255   17.4409    0.2062 H   0  0  0  0  0  0  0  0  0  0  0  0
   -1.3690   16.0664    0.2062 H   0  0  0  0  0  0  0  0  0  0  0  0
   -0.3555   18.1302    2.4051 H   0  0  0  0  0  0  0  0  0  0  0  0
    1.1550   18.6591    1.5893 H   0  0  0  0  0  0  0  0  0  0  0  0
   -0.2879   19.7291    1.5893 H   0  0  0  0  0  0  0  0  0  0  0  0
    2.9946   17.5306   -2.6528 H   0  0  0  0  0  0  0  0  0  0  0  0
    3.1453   16.3944   -4.0359 H   0  0  0  0  0  0  0  0  0  0  0  0
    1.8539   17.6430   -4.0359 H   0  0  0  0  0  0  0  0  0  0  0  0
   -0.0461   15.6285   -4.2148 H   0  0  0  0  0  0  0  0  0  0  0  0
    1.6296   14.9149   -4.5587 H   0  0  0  0  0  0  0  0  0  0  0  0
   -0.5449   13.7587   -2.7917 H   0  0  0  0  0  0  0  0  0  0  0  0
    0.1137   13.1065   -4.3432 H   0  0  0  0  0  0  0  0  0  0  0  0
    3.5805   12.6072   -3.0231 H   0  0  0  0  0  0  0  0  0  0  0  0
    2.5074   11.8563   -4.2525 H   0  0  0  0  0  0  0  0  0  0  0  0
    2.7672   13.6338   -4.2525 H   0  0  0  0  0  0  0  0  0  0  0  0
  1  2  1  0
  2  3  1  0
  3  4  1  0
  4  5  1  0
  5  6  1  0
  6  7  1  0
  7  8  1  0
  7  9  1  0
  2 10  1  0
 10 11  1  0
 11 12  1  0
 12 13  1  0
 13 14  1  1
 13 15  1  0
 15 16  1  0
 16 17  1  0
 17 18  2  0
 18 19  1  0
 19 20  1  0
 20 21  1  0
 21 22  1  0
 22 23  1  0
 22 24  1  0
 24 25  1  0
 24 26  1  0
 19 27  1  0
 27 28  1  6
 27 29  1  0
 29 30  1  0
 30 31  1  0
 31 32  1  6
  7  5  1  0
 31 10  1  0
 31 13  1  0
 27 15  1  0
 24 18  1  0
  1 33  1  0
  1 34  1  0
  1 35  1  0
  2 36  1  6
  3 37  1  0
  3 38  1  0
  4 39  1  0
  4 40  1  0
  5 41  1  1
  8 42  1  0
  8 43  1  0
  8 44  1  0
  9 45  1  0
  9 46  1  0
  9 47  1  0
 10 48  1  1
 11 49  1  0
 11 50  1  0
 12 51  1  0
 12 52  1  0
 14 53  1  0
 14 54  1  0
 14 55  1  0
 15 56  1  6
 16 57  1  0
 16 58  1  0
 17 59  1  0
 19 60  1  1
 20 61  1  0
 20 62  1  0
 21 63  1  0
 21 64  1  0
 22 65  1  1
 23 66  1  0
 25 67  1  0
 25 68  1  0
 25 69  1  0
 26 70  1  0
 26 71  1  0
 26 72  1  0
 28 73  1  0
 28 74  1  0
 28 75  1  0
 29 76  1  0
 29 77  1  0
 30 78  1  0
 30 79  1  0
 32 80  1  0
 32 81  1  0
 32 82  1  0
M  END
>  <meeko>  (10) 
{"is_sidechain": [false], "intermolecular_energy": 2.731, "internal_energy": -0.839}

$$$$
EPH_relaxed_0001_pdb2pqr_Repair_58_r2_0001_out
     RDKit          3D

 82 86  0  0  0  0  0  0  0  0999 V2000
    2.3890   19.4480   -0.7820 C   0  0  0  0  0  0  0  0  0  0  0  0
    2.3230   18.4790   -1.9660 C   0  0  2  0  0  0  0  0  0  0  0  0
    0.9440   18.4980   -2.6560 C   0  0  0  0  0  0  0  0  0  0  0  0
    0.0460   19.6540   -2.2050 C   0  0  0  0  0  0  0  0  0  0  0  0
   -1.1570   19.1620   -1.4580 C   0  0  2  0  0  0  0  0  0  0  0  0
   -2.0380   20.1940   -0.9960 O   0  0  0  0  0  0  0  0  0  0  0  0
   -1.3860   19.4150    0.0200 C   0  0  0  0  0  0  0  0  0  0  0  0
   -0.4010   20.1870    0.8410 C   0  0  0  0  0  0  0  0  0  0  0  0
   -2.3100   18.5050    0.7670 C   0  0  0  0  0  0  0  0  0  0  0  0
    2.6520   17.0660   -1.5010 C   0  0  1  0  0  0  0  0  0  0  0  0
    3.4440   17.0460   -0.1660 C   0  0  0  0  0  0  0  0  0  0  0  0
    2.9710   15.7940    0.6160 C   0  0  0  0  0  0  0  0  0  0  0  0
    2.1800   14.9620   -0.4210 C   0  0  1  0  0  0  0  0  0  0  0  0
    3.2690   14.1960   -1.2360 C   0  0  0  0  0  0  0  0  0  0  0  0
    1.0990   13.9890    0.1540 C   0  0  2  0  0  0  0  0  0  0  0  0
    1.6420   12.8740    1.0640 C   0  0  0  0  0  0  0  0  0  0  0  0
    2.0090   11.6050    0.3680 C   0  0  0  0  0  0  0  0  0  0  0  0
    1.6460   11.2660   -0.8830 C   0  0  0  0  0  0  0  0  0  0  0  0
    0.7020   12.1580   -1.6990 C   0  0  1  0  0  0  0  0  0  0  0  0
   -0.3960   11.2840   -2.3590 C   0  0  0  0  0  0  0  0  0  0  0  0
    0.1860   10.1410   -3.1860 C   0  0  0  0  0  0  0  0  0  0  0  0
    1.0720    9.2420   -2.3270 C   0  0  2  0  0  0  0  0  0  0  0  0
    0.2540    8.5750   -1.3620 O   0  0  0  0  0  0  0  0  0  0  0  0
    2.2090   10.0160   -1.6030 C   0  0  0  0  0  0  0  0  0  0  0  0
    3.2610   10.4840   -2.6390 C   0  0  0  0  0  0  0  0  0  0  0  0
    2.9400    9.0200   -0.6620 C   0  0  0  0  0  0  0  0  0  0  0  0
    0.1020   13.4150   -0.9330 C   0  0  1  0  0  0  0  0  0  0  0  0
   -1.1960   13.0040   -0.1720 C   0  0  0  0  0  0  0  0  0  0  0  0
   -0.3270   14.5030   -1.9870 C   0  0  0  0  0  0  0  0  0  0  0  0
    0.7540   15.5100   -2.4250 C   0  0  0  0  0  0  0  0  0  0  0  0
    1.4630   16.1170   -1.2100 C   0  0  2  0  0  0  0  0  0  0  0  0
    0.3960   16.9120   -0.3820 C   0  0  0  0  0  0  0  0  0  0  0  0
    2.3503   18.8800    0.1592 H   0  0  0  0  0  0  0  0  0  0  0  0
    3.3281   20.0190   -0.8274 H   0  0  0  0  0  0  0  0  0  0  0  0
    1.5360   20.1410   -0.8274 H   0  0  0  0  0  0  0  0  0  0  0  0
    3.0673   18.8099   -2.7053 H   0  0  0  0  0  0  0  0  0  0  0  0
    1.1000   18.5825   -3.7416 H   0  0  0  0  0  0  0  0  0  0  0  0
    0.4319   17.5653   -2.3770 H   0  0  0  0  0  0  0  0  0  0  0  0
    0.6252   20.3204   -1.5489 H   0  0  0  0  0  0  0  0  0  0  0  0
   -0.3016   20.1884   -3.1014 H   0  0  0  0  0  0  0  0  0  0  0  0
   -1.1849   18.2430   -2.0619 H   0  0  0  0  0  0  0  0  0  0  0  0
   -0.6074   20.0252    1.9093 H   0  0  0  0  0  0  0  0  0  0  0  0
    0.6182   19.8447    0.6086 H   0  0  0  0  0  0  0  0  0  0  0  0
   -0.4899   21.2585    0.6086 H   0  0  0  0  0  0  0  0  0  0  0  0
   -2.1676   18.6453    1.8487 H   0  0  0  0  0  0  0  0  0  0  0  0
   -3.3510   18.7404    0.5007 H   0  0  0  0  0  0  0  0  0  0  0  0
   -2.0906   17.4605    0.5007 H   0  0  0  0  0  0  0  0  0  0  0  0
    3.2114   16.7093   -2.3784 H   0  0  0  0  0  0  0  0  0  0  0  0
    4.5236   16.9816   -0.3670 H   0  0  0  0  0  0  0  0  0  0  0  0
    3.2653   17.9641    0.4130 H   0  0  0  0  0  0  0  0  0  0  0  0
    3.8324   15.2246    0.9951 H   0  0  0  0  0  0  0  0  0  0  0  0
    2.3613   16.0558    1.4933 H   0  0  0  0  0  0  0  0  0  0  0  0
    3.9676   13.7046   -0.5429 H   0  0  0  0  0  0  0  0  0  0  0  0
    2.7866   13.4372   -1.8697 H   0  0  0  0  0  0  0  0  0  0  0  0
    3.8201   14.9064   -1.8697 H   0  0  0  0  0  0  0  0  0  0  0  0
    0.5119   14.6485    0.8100 H   0  0  0  0  0  0  0  0  0  0  0  0
    2.5406   13.2560    1.5705 H   0  0  0  0  0  0  0  0  0  0  0  0
    0.8235   12.6177    1.7528 H   0  0  0  0  0  0  0  0  0  0  0  0
    2.6284   10.8864    0.9247 H   0  0  0  0  0  0  0  0  0  0  0  0
    1.3233   12.6264   -2.4766 H   0  0  0  0  0  0  0  0  0  0  0  0
   -1.0316   10.8592   -1.5681 H   0  0  0  0  0  0  0  0  0  0  0  0
   -0.9728   11.9285   -3.0386 H   0  0  0  0  0  0  0  0  0  0  0  0
   -0.6375    9.5426   -3.6027 H   0  0  0  0  0  0  0  0  0  0  0  0
    0.7980   10.5684   -3.9939 H   0  0  0  0  0  0  0  0  0  0  0  0
    1.5610    8.5210   -2.9986 H   0  0  0  0  0  0  0  0  0  0  0  0
    0.6710    7.7200   -1.1630 H   0  0  0  0  0  0  0  0  0  0  0  0
    4.1438   10.8767   -2.1133 H   0  0  0  0  0  0  0  0  0  0  0  0
    3.5582    9.6332   -3.2697 H   0  0  0  0  0  0  0  0  0  0  0  0
    2.8281   11.2744   -3.2697 H   0  0  0  0  0  0  0  0  0  0  0  0
    2.7408    9.2914    0.3852 H   0  0  0  0  0  0  0  0  0  0  0  0
    2.5744    8.0001   -0.8523 H   0  0  0  0  0  0  0  0  0  0  0  0
    4.0226    9.0630   -0.8523 H   0  0  0  0  0  0  0  0  0  0  0  0
   -1.0187   13.0601    0.9122 H   0  0  0  0  0  0  0  0  0  0  0  0
   -2.0135   13.6873   -0.4457 H   0  0  0  0  0  0  0  0  0  0  0  0
   -1.4712   11.9748   -0.4457 H   0  0  0  0  0  0  0  0  0  0  0  0
   -0.6746   13.9753   -2.8874 H   0  0  0  0  0  0  0  0  0  0  0  0
   -1.0949   15.1068   -1.4813 H   0  0  0  0  0  0  0  0  0  0  0  0
    1.4947   14.9925   -3.0524 H   0  0  0  0  0  0  0  0  0  0  0  0
    0.2700   16.3205   -2.9896 H   0  0  0  0  0  0  0  0  0  0  0  0
    0.5857   16.7706    0.6922 H   0  0  0  0  0  0  0  0  0  0  0  0
    0.4633   17.9819   -0.6285 H   0  0  0  0  0  0  0  0  0  0  0  0
   -0.6099   16.5415   -0.6285 H   0  0  0  0  0  0  0  0  0  0  0  0
  1  2  1  0
  2  3  1  0
  3  4  1  0
  4  5  1  0
  5  6  1  0
  6  7  1  0
  7  8  1  0
  7  9  1  0
  2 10  1  0
 10 11  1  0
 11 12  1  0
 12 13  1  0
 13 14  1  6
 13 15  1  0
 15 16  1  0
 16 17  1  0
 17 18  2  0
 18 19  1  0
 19 20  1  0
 20 21  1  0
 21 22  1  0
 22 23  1  0
 22 24  1  0
 24 25  1  0
 24 26  1  0
 19 27  1  0
 27 28  1  1
 27 29  1  0
 29 30  1  0
 30 31  1  0
 31 32  1  1
  7  5  1  0
 31 10  1  0
 31 13  1  0
 27 15  1  0
 24 18  1  0
  1 33  1  0
  1 34  1  0
  1 35  1  0
  2 36  1  6
  3 37  1  0
  3 38  1  0
  4 39  1  0
  4 40  1  0
  5 41  1  6
  8 42  1  0
  8 43  1  0
  8 44  1  0
  9 45  1  0
  9 46  1  0
  9 47  1  0
 10 48  1  6
 11 49  1  0
 11 50  1  0
 12 51  1  0
 12 52  1  0
 14 53  1  0
 14 54  1  0
 14 55  1  0
 15 56  1  1
 16 57  1  0
 16 58  1  0
 17 59  1  0
 19 60  1  6
 20 61  1  0
 20 62  1  0
 21 63  1  0
 21 64  1  0
 22 65  1  6
 23 66  1  0
 25 67  1  0
 25 68  1  0
 25 69  1  0
 26 70  1  0
 26 71  1  0
 26 72  1  0
 28 73  1  0
 28 74  1  0
 28 75  1  0
 29 76  1  0
 29 77  1  0
 30 78  1  0
 30 79  1  0
 32 80  1  0
 32 81  1  0
 32 82  1  0
M  END
>  <meeko>  (11) 
{"is_sidechain": [false], "intermolecular_energy": 2.731, "internal_energy": -0.839}

$$$$
EPH_relaxed_0001_pdb2pqr_Repair_58_r2_0001_out
     RDKit          3D

 82 86  0  0  0  0  0  0  0  0999 V2000
    0.1650   17.8140   -2.5410 C   0  0  0  0  0  0  0  0  0  0  0  0
   -0.0900   16.9170   -1.3260 C   0  0  2  0  0  0  0  0  0  0  0  0
   -0.1460   17.7220   -0.0120 C   0  0  0  0  0  0  0  0  0  0  0  0
    0.4990   19.1070   -0.1100 C   0  0  0  0  0  0  0  0  0  0  0  0
    1.6710   19.2390    0.8140 C   0  0  2  0  0  0  0  0  0  0  0  0
    2.6750   20.1650    0.3790 O   0  0  0  0  0  0  0  0  0  0  0  0
    3.0750   18.7870    0.4560 C   0  0  0  0  0  0  0  0  0  0  0  0
    3.3790   18.1680   -0.8720 C   0  0  0  0  0  0  0  0  0  0  0  0
    4.0390   18.5000    1.5640 C   0  0  0  0  0  0  0  0  0  0  0  0
    0.9910   15.8460   -1.2350 C   0  0  1  0  0  0  0  0  0  0  0  0
    1.1940   15.3240    0.2120 C   0  0  0  0  0  0  0  0  0  0  0  0
    1.5400   13.8170    0.1000 C   0  0  0  0  0  0  0  0  0  0  0  0
    1.8500   13.5990   -1.4000 C   0  0  1  0  0  0  0  0  0  0  0  0
    3.3240   14.0800   -1.5790 C   0  0  0  0  0  0  0  0  0  0  0  0
    1.6460   12.1470   -1.9440 C   0  0  2  0  0  0  0  0  0  0  0  0
    2.5500   11.0780   -1.3050 C   0  0  0  0  0  0  0  0  0  0  0  0
    3.8550   10.8520   -1.9930 C   0  0  0  0  0  0  0  0  0  0  0  0
    4.1670   11.2690   -3.2340 C   0  0  0  0  0  0  0  0  0  0  0  0
    3.1230   11.9640   -4.1180 C   0  0  1  0  0  0  0  0  0  0  0  0
    3.1590   11.3500   -5.5420 C   0  0  0  0  0  0  0  0  0  0  0  0
    4.5550   11.3790   -6.1560 C   0  0  0  0  0  0  0  0  0  0  0  0
    5.5530   10.6280   -5.2780 C   0  0  2  0  0  0  0  0  0  0  0  0
    5.2150    9.2380   -5.2800 O   0  0  0  0  0  0  0  0  0  0  0  0
    5.5980   11.1530   -3.8160 C   0  0  0  0  0  0  0  0  0  0  0  0
    6.2500   12.5580   -3.7860 C   0  0  0  0  0  0  0  0  0  0  0  0
    6.5370   10.2220   -3.0030 C   0  0  0  0  0  0  0  0  0  0  0  0
    1.6510   12.0400   -3.5220 C   0  0  1  0  0  0  0  0  0  0  0  0
    0.8640   10.7420   -3.8830 C   0  0  0  0  0  0  0  0  0  0  0  0
    0.8810   13.2310   -4.2060 C   0  0  0  0  0  0  0  0  0  0  0  0
    1.0260   14.6180   -3.5520 C   0  0  0  0  0  0  0  0  0  0  0  0
    0.7700   14.5430   -2.0440 C   0  0  2  0  0  0  0  0  0  0  0  0
   -0.7130   14.0830   -1.8320 C   0  0  0  0  0  0  0  0  0  0  0  0
    0.4510   18.8201   -2.2004 H   0  0  0  0  0  0  0  0  0  0  0  0
    0.9775   17.3875   -3.1476 H   0  0  0  0  0  0  0  0  0  0  0  0
   -0.7503   17.8787   -3.1476 H   0  0  0  0  0  0  0  0  0  0  0  0
   -1.0727   16.4426   -1.4648 H   0  0  0  0  0  0  0  0  0  0  0  0
   -1.2010   17.8497    0.2722 H   0  0  0  0  0  0  0  0  0  0  0  0
    0.4251   17.1540    0.7372 H   0  0  0  0  0  0  0  0  0  0  0  0
    0.8396   19.2693   -1.1433 H   0  0  0  0  0  0  0  0  0  0  0  0
   -0.2522   19.8565    0.1797 H   0  0  0  0  0  0  0  0  0  0  0  0
    1.0332   19.0423    1.6884 H   0  0  0  0  0  0  0  0  0  0  0  0
    3.8592   17.1902   -0.7195 H   0  0  0  0  0  0  0  0  0  0  0  0
    2.4445   18.0335   -1.4364 H   0  0  0  0  0  0  0  0  0  0  0  0
    4.0568   18.8253   -1.4364 H   0  0  0  0  0  0  0  0  0  0  0  0
    3.5392   18.6488    2.5326 H   0  0  0  0  0  0  0  0  0  0  0  0
    4.3869   17.4593    1.4870 H   0  0  0  0  0  0  0  0  0  0  0  0
    4.8995   19.1809    1.4870 H   0  0  0  0  0  0  0  0  0  0  0  0
    1.8421   16.4065   -1.6491 H   0  0  0  0  0  0  0  0  0  0  0  0
    2.0181   15.8666    0.6982 H   0  0  0  0  0  0  0  0  0  0  0  0
    0.2885   15.4772    0.8176 H   0  0  0  0  0  0  0  0  0  0  0  0
    2.4170   13.5729    0.7174 H   0  0  0  0  0  0  0  0  0  0  0  0
    0.7217   13.1733    0.4550 H   0  0  0  0  0  0  0  0  0  0  0  0
    3.7833   14.2299   -0.5908 H   0  0  0  0  0  0  0  0  0  0  0  0
    3.8924   13.3207   -2.1362 H   0  0  0  0  0  0  0  0  0  0  0  0
    3.3351   15.0284   -2.1362 H   0  0  0  0  0  0  0  0  0  0  0  0
    0.6242   11.9116   -1.6115 H   0  0  0  0  0  0  0  0  0  0  0  0
    2.7603   11.3853   -0.2700 H   0  0  0  0  0  0  0  0  0  0  0  0
    1.9985   10.1292   -1.3797 H   0  0  0  0  0  0  0  0  0  0  0  0
    4.6270   10.2978   -1.4390 H   0  0  0  0  0  0  0  0  0  0  0  0
    3.4169   13.0231   -4.1616 H   0  0  0  0  0  0  0  0  0  0  0  0
    2.8208   10.3049   -5.4841 H   0  0  0  0  0  0  0  0  0  0  0  0
    2.4996   11.9538   -6.1829 H   0  0  0  0  0  0  0  0  0  0  0  0
    4.5216   10.9060   -7.1486 H   0  0  0  0  0  0  0  0  0  0  0  0
    4.8800   12.4266   -6.2398 H   0  0  0  0  0  0  0  0  0  0  0  0
    6.5546   10.7931   -5.7018 H   0  0  0  0  0  0  0  0  0  0  0  0
    5.0000    8.9890   -6.1950 H   0  0  0  0  0  0  0  0  0  0  0  0
    6.3959   12.8723   -2.7420 H   0  0  0  0  0  0  0  0  0  0  0  0
    7.2232   12.5216   -4.2973 H   0  0  0  0  0  0  0  0  0  0  0  0
    5.5938   13.2777   -4.2973 H   0  0  0  0  0  0  0  0  0  0  0  0
    6.3731   10.3845   -1.9275 H   0  0  0  0  0  0  0  0  0  0  0  0
    6.3193    9.1731   -3.2527 H   0  0  0  0  0  0  0  0  0  0  0  0
    7.5840   10.4487   -3.2527 H   0  0  0  0  0  0  0  0  0  0  0  0
    0.5547   10.2318   -2.9589 H   0  0  0  0  0  0  0  0  0  0  0  0
   -0.0267   11.0052   -4.4723 H   0  0  0  0  0  0  0  0  0  0  0  0
    1.5093   10.0739   -4.4723 H   0  0  0  0  0  0  0  0  0  0  0  0
    1.2443   13.3115   -5.2411 H   0  0  0  0  0  0  0  0  0  0  0  0
   -0.1851   12.9775   -4.1103 H   0  0  0  0  0  0  0  0  0  0  0  0
    2.0455   14.9928   -3.7256 H   0  0  0  0  0  0  0  0  0  0  0  0
    0.2847   15.2960   -4.0001 H   0  0  0  0  0  0  0  0  0  0  0  0
   -0.9260   14.0169   -0.7548 H   0  0  0  0  0  0  0  0  0  0  0  0
   -1.3931   14.8124   -2.2962 H   0  0  0  0  0  0  0  0  0  0  0  0
   -0.8609   13.0968   -2.2962 H   0  0  0  0  0  0  0  0  0  0  0  0
  1  2  1  0
  2  3  1  0
  3  4  1  0
  4  5  1  0
  5  6  1  0
  6  7  1  0
  7  8  1  0
  7  9  1  0
  2 10  1  0
 10 11  1  0
 11 12  1  0
 12 13  1  0
 13 14  1  1
 13 15  1  0
 15 16  1  0
 16 17  1  0
 17 18  2  0
 18 19  1  0
 19 20  1  0
 20 21  1  0
 21 22  1  0
 22 23  1  0
 22 24  1  0
 24 25  1  0
 24 26  1  0
 19 27  1  0
 27 28  1  1
 27 29  1  0
 29 30  1  0
 30 31  1  0
 31 32  1  6
  7  5  1  0
 31 10  1  0
 31 13  1  0
 27 15  1  0
 24 18  1  0
  1 33  1  0
  1 34  1  0
  1 35  1  0
  2 36  1  6
  3 37  1  0
  3 38  1  0
  4 39  1  0
  4 40  1  0
  5 41  1  1
  8 42  1  0
  8 43  1  0
  8 44  1  0
  9 45  1  0
  9 46  1  0
  9 47  1  0
 10 48  1  6
 11 49  1  0
 11 50  1  0
 12 51  1  0
 12 52  1  0
 14 53  1  0
 14 54  1  0
 14 55  1  0
 15 56  1  1
 16 57  1  0
 16 58  1  0
 17 59  1  0
 19 60  1  6
 20 61  1  0
 20 62  1  0
 21 63  1  0
 21 64  1  0
 22 65  1  6
 23 66  1  0
 25 67  1  0
 25 68  1  0
 25 69  1  0
 26 70  1  0
 26 71  1  0
 26 72  1  0
 28 73  1  0
 28 74  1  0
 28 75  1  0
 29 76  1  0
 29 77  1  0
 30 78  1  0
 30 79  1  0
 32 80  1  0
 32 81  1  0
 32 82  1  0
M  END
>  <meeko>  (12) 
{"is_sidechain": [false], "intermolecular_energy": 2.731, "internal_energy": -0.839}

$$$$
EPH_relaxed_0001_pdb2pqr_Repair_58_r2_0001_out
     RDKit          3D

 82 86  0  0  0  0  0  0  0  0999 V2000
   -0.9100   16.3840   -5.8810 C   0  0  0  0  0  0  0  0  0  0  0  0
    0.1860   15.6820   -6.6860 C   0  0  2  0  0  0  0  0  0  0  0  0
   -0.2150   15.4820   -8.1620 C   0  0  0  0  0  0  0  0  0  0  0  0
    0.4240   16.4940   -9.1160 C   0  0  0  0  0  0  0  0  0  0  0  0
    1.8330   16.1170   -9.4610 C   0  0  2  0  0  0  0  0  0  0  0  0
    2.3210   16.6800  -10.6860 O   0  0  0  0  0  0  0  0  0  0  0  0
    2.2000   15.2490  -10.6510 C   0  0  0  0  0  0  0  0  0  0  0  0
    1.1530   14.7040  -11.5710 C   0  0  0  0  0  0  0  0  0  0  0  0
    3.5140   14.5320  -10.6360 C   0  0  0  0  0  0  0  0  0  0  0  0
    0.5190   14.3380   -6.0500 C   0  0  1  0  0  0  0  0  0  0  0  0
    1.7530   13.6580   -6.7000 C   0  0  0  0  0  0  0  0  0  0  0  0
    2.4990   12.9080   -5.5680 C   0  0  0  0  0  0  0  0  0  0  0  0
    1.5050   12.9010   -4.3830 C   0  0  1  0  0  0  0  0  0  0  0  0
    0.5250   11.7250   -4.6880 C   0  0  0  0  0  0  0  0  0  0  0  0
    2.1310   12.7750   -2.9560 C   0  0  2  0  0  0  0  0  0  0  0  0
    2.9000   11.4690   -2.6930 C   0  0  0  0  0  0  0  0  0  0  0  0
    2.0860   10.3520   -2.1280 C   0  0  0  0  0  0  0  0  0  0  0  0
    0.8640   10.4760   -1.5780 C   0  0  0  0  0  0  0  0  0  0  0  0
    0.2190   11.8560   -1.3940 C   0  0  1  0  0  0  0  0  0  0  0  0
   -0.3710   11.9660    0.0360 C   0  0  0  0  0  0  0  0  0  0  0  0
   -1.3310   10.8250    0.3630 C   0  0  0  0  0  0  0  0  0  0  0  0
   -0.6360    9.4730    0.2250 C   0  0  2  0  0  0  0  0  0  0  0  0
    0.3680    9.3650    1.2380 O   0  0  0  0  0  0  0  0  0  0  0  0
    0.0050    9.2520   -1.1730 C   0  0  0  0  0  0  0  0  0  0  0  0
   -1.1080    9.0680   -2.2340 C   0  0  0  0  0  0  0  0  0  0  0  0
    0.7920    7.9140   -1.1320 C   0  0  0  0  0  0  0  0  0  0  0  0
    1.1280   13.1030   -1.7770 C   0  0  1  0  0  0  0  0  0  0  0  0
    1.9990   13.5210   -0.5530 C   0  0  0  0  0  0  0  0  0  0  0  0
    0.2010   14.3330   -2.1030 C   0  0  0  0  0  0  0  0  0  0  0  0
   -0.2880   14.4680   -3.5580 C   0  0  0  0  0  0  0  0  0  0  0  0
    0.8780   14.3340   -4.5430 C   0  0  2  0  0  0  0  0  0  0  0  0
    1.8690   15.5170   -4.2750 C   0  0  0  0  0  0  0  0  0  0  0  0
   -0.7132   16.2580   -4.8061 H   0  0  0  0  0  0  0  0  0  0  0  0
   -0.9179   17.4556   -6.1291 H   0  0  0  0  0  0  0  0  0  0  0  0
   -1.8867   15.9430   -6.1291 H   0  0  0  0  0  0  0  0  0  0  0  0
    1.0744   16.3305   -6.6702 H   0  0  0  0  0  0  0  0  0  0  0  0
    0.0915   14.4718   -8.4713 H   0  0  0  0  0  0  0  0  0  0  0  0
   -1.3037   15.6272   -8.2217 H   0  0  0  0  0  0  0  0  0  0  0  0
   -0.1702   16.5368  -10.0407 H   0  0  0  0  0  0  0  0  0  0  0  0
    0.4438   17.4729   -8.6147 H   0  0  0  0  0  0  0  0  0  0  0  0
    2.1037   16.0623   -8.3962 H   0  0  0  0  0  0  0  0  0  0  0  0
    0.3310   14.2761  -10.9784 H   0  0  0  0  0  0  0  0  0  0  0  0
    0.7645   15.5143  -12.2054 H   0  0  0  0  0  0  0  0  0  0  0  0
    1.5939   13.9210  -12.2054 H   0  0  0  0  0  0  0  0  0  0  0  0
    3.8267   14.3614   -9.5953 H   0  0  0  0  0  0  0  0  0  0  0  0
    3.4102   13.5655  -11.1508 H   0  0  0  0  0  0  0  0  0  0  0  0
    4.2706   15.1423  -11.1508 H   0  0  0  0  0  0  0  0  0  0  0  0
   -0.4361   13.8167   -6.2112 H   0  0  0  0  0  0  0  0  0  0  0  0
    1.4295   12.9480   -7.4754 H   0  0  0  0  0  0  0  0  0  0  0  0
    2.4071   14.4018   -7.1784 H   0  0  0  0  0  0  0  0  0  0  0  0
    2.7417   11.8806   -5.8772 H   0  0  0  0  0  0  0  0  0  0  0  0
    3.4540   13.3883   -5.3084 H   0  0  0  0  0  0  0  0  0  0  0  0
    0.1651   11.2931   -3.7425 H   0  0  0  0  0  0  0  0  0  0  0  0
   -0.3303   12.1016   -5.2682 H   0  0  0  0  0  0  0  0  0  0  0  0
    1.0496   10.9516   -5.2682 H   0  0  0  0  0  0  0  0  0  0  0  0
    2.8896   13.5716   -2.9607 H   0  0  0  0  0  0  0  0  0  0  0  0
    3.3281   11.1286   -3.6474 H   0  0  0  0  0  0  0  0  0  0  0  0
    3.6565   11.7095   -1.9315 H   0  0  0  0  0  0  0  0  0  0  0  0
    2.5219    9.3427   -2.1644 H   0  0  0  0  0  0  0  0  0  0  0  0
   -0.5903   11.9144   -2.1367 H   0  0  0  0  0  0  0  0  0  0  0  0
    0.4562   11.9494    0.7609 H   0  0  0  0  0  0  0  0  0  0  0  0
   -0.9392   12.9063    0.0912 H   0  0  0  0  0  0  0  0  0  0  0  0
   -1.6905   10.9415    1.3960 H   0  0  0  0  0  0  0  0  0  0  0  0
   -2.1737   10.8610   -0.3431 H   0  0  0  0  0  0  0  0  0  0  0  0
   -1.4042    8.6945    0.3429 H   0  0  0  0  0  0  0  0  0  0  0  0
    0.0260    8.7750    1.9310 H   0  0  0  0  0  0  0  0  0  0  0  0
   -2.0725    8.9085   -1.7297 H   0  0  0  0  0  0  0  0  0  0  0  0
   -1.1675    9.9685   -2.8629 H   0  0  0  0  0  0  0  0  0  0  0  0
   -0.8745    8.1963   -2.8629 H   0  0  0  0  0  0  0  0  0  0  0  0
    0.9639    7.6217   -0.0856 H   0  0  0  0  0  0  0  0  0  0  0  0
    0.2106    7.1309   -1.6407 H   0  0  0  0  0  0  0  0  0  0  0  0
    1.7589    8.0416   -1.6407 H   0  0  0  0  0  0  0  0  0  0  0  0
    1.4699   13.2671    0.3774 H   0  0  0  0  0  0  0  0  0  0  0  0
    2.9594   12.9857   -0.5865 H   0  0  0  0  0  0  0  0  0  0  0  0
    2.1822   14.6051   -0.5865 H   0  0  0  0  0  0  0  0  0  0  0  0
   -0.6876   14.2600   -1.4587 H   0  0  0  0  0  0  0  0  0  0  0  0
    0.8270   15.2201   -1.9262 H   0  0  0  0  0  0  0  0  0  0  0  0
   -1.0259   13.6787   -3.7643 H   0  0  0  0  0  0  0  0  0  0  0  0
   -0.7418   15.4620   -3.6848 H   0  0  0  0  0  0  0  0  0  0  0  0
    1.9870   15.6579   -3.1905 H   0  0  0  0  0  0  0  0  0  0  0  0
    2.8465   15.2852   -4.7232 H   0  0  0  0  0  0  0  0  0  0  0  0
    1.4695   16.4387   -4.7232 H   0  0  0  0  0  0  0  0  0  0  0  0
  1  2  1  0
  2  3  1  0
  3  4  1  0
  4  5  1  0
  5  6  1  0
  6  7  1  0
  7  8  1  0
  7  9  1  0
  2 10  1  0
 10 11  1  0
 11 12  1  0
 12 13  1  0
 13 14  1  6
 13 15  1  0
 15 16  1  0
 16 17  1  0
 17 18  2  0
 18 19  1  0
 19 20  1  0
 20 21  1  0
 21 22  1  0
 22 23  1  0
 22 24  1  0
 24 25  1  0
 24 26  1  0
 19 27  1  0
 27 28  1  1
 27 29  1  0
 29 30  1  0
 30 31  1  0
 31 32  1  6
  7  5  1  0
 31 10  1  0
 31 13  1  0
 27 15  1  0
 24 18  1  0
  1 33  1  0
  1 34  1  0
  1 35  1  0
  2 36  1  6
  3 37  1  0
  3 38  1  0
  4 39  1  0
  4 40  1  0
  5 41  1  1
  8 42  1  0
  8 43  1  0
  8 44  1  0
  9 45  1  0
  9 46  1  0
  9 47  1  0
 10 48  1  1
 11 49  1  0
 11 50  1  0
 12 51  1  0
 12 52  1  0
 14 53  1  0
 14 54  1  0
 14 55  1  0
 15 56  1  6
 16 57  1  0
 16 58  1  0
 17 59  1  0
 19 60  1  6
 20 61  1  0
 20 62  1  0
 21 63  1  0
 21 64  1  0
 22 65  1  1
 23 66  1  0
 25 67  1  0
 25 68  1  0
 25 69  1  0
 26 70  1  0
 26 71  1  0
 26 72  1  0
 28 73  1  0
 28 74  1  0
 28 75  1  0
 29 76  1  0
 29 77  1  0
 30 78  1  0
 30 79  1  0
 32 80  1  0
 32 81  1  0
 32 82  1  0
M  END
>  <meeko>  (13) 
{"is_sidechain": [false], "intermolecular_energy": 2.731, "internal_energy": -0.839}

$$$$
EPH_relaxed_0001_pdb2pqr_Repair_58_r2_0001_out
     RDKit          3D

 82 86  0  0  0  0  0  0  0  0999 V2000
   -3.7550    7.2140   -3.4280 C   0  0  0  0  0  0  0  0  0  0  0  0
   -3.7650    7.2900   -1.8990 C   0  0  2  0  0  0  0  0  0  0  0  0
   -5.1750    7.0690   -1.3160 C   0  0  0  0  0  0  0  0  0  0  0  0
   -6.2990    7.2500   -2.3390 C   0  0  0  0  0  0  0  0  0  0  0  0
   -7.6250    7.4640   -1.6740 C   0  0  2  0  0  0  0  0  0  0  0  0
   -8.2250    6.2780   -1.1380 O   0  0  0  0  0  0  0  0  0  0  0  0
   -8.9320    6.9140   -2.2150 C   0  0  0  0  0  0  0  0  0  0  0  0
   -8.9760    6.1070   -3.4750 C   0  0  0  0  0  0  0  0  0  0  0  0
  -10.2120    7.5660   -1.7950 C   0  0  0  0  0  0  0  0  0  0  0  0
   -3.2170    8.6370   -1.4420 C   0  0  1  0  0  0  0  0  0  0  0  0
   -3.8370    9.1100   -0.1000 C   0  0  0  0  0  0  0  0  0  0  0  0
   -2.7210    9.8640    0.6670 C   0  0  0  0  0  0  0  0  0  0  0  0
   -1.6080   10.0880   -0.3830 C   0  0  1  0  0  0  0  0  0  0  0  0
   -2.0700   11.3390   -1.1950 C   0  0  0  0  0  0  0  0  0  0  0  0
   -0.1580   10.2640    0.1730 C   0  0  2  0  0  0  0  0  0  0  0  0
    0.0500   11.4900    1.0790 C   0  0  0  0  0  0  0  0  0  0  0  0
    0.4700   12.7380    0.3760 C   0  0  0  0  0  0  0  0  0  0  0  0
    0.9470   12.8050   -0.8810 C   0  0  0  0  0  0  0  0  0  0  0  0
    1.1970   11.5310   -1.6980 C   0  0  1  0  0  0  0  0  0  0  0  0
    2.5900   11.6150   -2.3760 C   0  0  0  0  0  0  0  0  0  0  0  0
    2.7610   12.8840   -3.2060 C   0  0  0  0  0  0  0  0  0  0  0  0
    2.5620   14.1290   -2.3470 C   0  0  2  0  0  0  0  0  0  0  0  0
    3.6270   14.2070   -1.3940 O   0  0  0  0  0  0  0  0  0  0  0  0
    1.1960   14.1510   -1.6060 C   0  0  0  0  0  0  0  0  0  0  0  0
    0.0530   14.3710   -2.6280 C   0  0  0  0  0  0  0  0  0  0  0  0
    1.1820   15.3870   -0.6660 C   0  0  0  0  0  0  0  0  0  0  0  0
    0.9750   10.1590   -0.9270 C   0  0  1  0  0  0  0  0  0  0  0  0
    2.2830    9.7500   -0.1820 C   0  0  0  0  0  0  0  0  0  0  0  0
    0.6880    9.0210   -1.9760 C   0  0  0  0  0  0  0  0  0  0  0  0
   -0.7810    8.8180   -2.3960 C   0  0  0  0  0  0  0  0  0  0  0  0
   -1.6940    8.7300   -1.1700 C   0  0  2  0  0  0  0  0  0  0  0  0
   -1.2690    7.4670   -0.3460 C   0  0  0  0  0  0  0  0  0  0  0  0
   -3.6175    6.1689   -3.7423 H   0  0  0  0  0  0  0  0  0  0  0  0
   -4.7106    7.5921   -3.8202 H   0  0  0  0  0  0  0  0  0  0  0  0
   -2.9297    7.8264   -3.8202 H   0  0  0  0  0  0  0  0  0  0  0  0
   -3.1221    6.4805   -1.5230 H   0  0  0  0  0  0  0  0  0  0  0  0
   -5.2295    6.0451   -0.9176 H   0  0  0  0  0  0  0  0  0  0  0  0
   -5.3238    7.8310   -0.5367 H   0  0  0  0  0  0  0  0  0  0  0  0
   -6.0709    8.1228   -2.9684 H   0  0  0  0  0  0  0  0  0  0  0  0
   -6.3628    6.3335   -2.9439 H   0  0  0  0  0  0  0  0  0  0  0  0
   -7.3261    8.4723   -1.3516 H   0  0  0  0  0  0  0  0  0  0  0  0
   -9.0343    5.0377   -3.2237 H   0  0  0  0  0  0  0  0  0  0  0  0
   -9.8598    6.3940   -4.0636 H   0  0  0  0  0  0  0  0  0  0  0  0
   -8.0662    6.2963   -4.0636 H   0  0  0  0  0  0  0  0  0  0  0  0
  -10.2663    7.5936   -0.6967 H   0  0  0  0  0  0  0  0  0  0  0  0
  -10.2476    8.5921   -2.1898 H   0  0  0  0  0  0  0  0  0  0  0  0
  -11.0629    6.9915   -2.1898 H   0  0  0  0  0  0  0  0  0  0  0  0
   -3.4812    9.2499   -2.3164 H   0  0  0  0  0  0  0  0  0  0  0  0
   -4.6861    9.7826   -0.2913 H   0  0  0  0  0  0  0  0  0  0  0  0
   -4.2109    8.2567    0.4848 H   0  0  0  0  0  0  0  0  0  0  0  0
   -3.0940   10.8259    1.0486 H   0  0  0  0  0  0  0  0  0  0  0  0
   -2.3622    9.3008    1.5411 H   0  0  0  0  0  0  0  0  0  0  0  0
   -2.3653   12.1387   -0.4999 H   0  0  0  0  0  0  0  0  0  0  0  0
   -1.2425   11.6910   -1.8286 H   0  0  0  0  0  0  0  0  0  0  0  0
   -2.9276   11.0687   -1.8286 H   0  0  0  0  0  0  0  0  0  0  0  0
   -0.0492    9.3873    0.8284 H   0  0  0  0  0  0  0  0  0  0  0  0
   -0.8984   11.6945    1.5973 H   0  0  0  0  0  0  0  0  0  0  0  0
    0.8757   11.2303    1.7578 H   0  0  0  0  0  0  0  0  0  0  0  0
    0.3823   13.6830    0.9322 H   0  0  0  0  0  0  0  0  0  0  0  0
    0.4099   11.5027   -2.4659 H   0  0  0  0  0  0  0  0  0  0  0  0
    3.3641   11.5977   -1.5947 H   0  0  0  0  0  0  0  0  0  0  0  0
    2.6825   10.7558   -3.0566 H   0  0  0  0  0  0  0  0  0  0  0  0
    3.7742   12.9003   -3.6340 H   0  0  0  0  0  0  0  0  0  0  0  0
    2.0054   12.8849   -4.0054 H   0  0  0  0  0  0  0  0  0  0  0  0
    2.5671   14.9983   -3.0211 H   0  0  0  0  0  0  0  0  0  0  0  0
    3.2600   14.5710   -0.5710 H   0  0  0  0  0  0  0  0  0  0  0  0
   -0.8895   14.5524   -2.0906 H   0  0  0  0  0  0  0  0  0  0  0  0
    0.2882   15.2404   -3.2596 H   0  0  0  0  0  0  0  0  0  0  0  0
   -0.0514   13.4765   -3.2596 H   0  0  0  0  0  0  0  0  0  0  0  0
    1.1858   15.0511    0.3815 H   0  0  0  0  0  0  0  0  0  0  0  0
    2.0732   16.0029   -0.8568 H   0  0  0  0  0  0  0  0  0  0  0  0
    0.2771   15.9825   -0.8568 H   0  0  0  0  0  0  0  0  0  0  0  0
    2.1177    9.8017    0.9043 H   0  0  0  0  0  0  0  0  0  0  0  0
    2.5588    8.7227   -0.4625 H   0  0  0  0  0  0  0  0  0  0  0  0
    3.0949   10.4372   -0.4625 H   0  0  0  0  0  0  0  0  0  0  0  0
    1.2649    9.2518   -2.8837 H   0  0  0  0  0  0  0  0  0  0  0  0
    0.9755    8.0861   -1.4727 H   0  0  0  0  0  0  0  0  0  0  0  0
   -1.0974    9.6667   -3.0202 H   0  0  0  0  0  0  0  0  0  0  0  0
   -0.8580    7.8762   -2.9592 H   0  0  0  0  0  0  0  0  0  0  0  0
   -1.3435    7.6884    0.7289 H   0  0  0  0  0  0  0  0  0  0  0  0
   -1.9338    6.6265   -0.5942 H   0  0  0  0  0  0  0  0  0  0  0  0
   -0.2313    7.1994   -0.5942 H   0  0  0  0  0  0  0  0  0  0  0  0
  1  2  1  0
  2  3  1  0
  3  4  1  0
  4  5  1  0
  5  6  1  0
  6  7  1  0
  7  8  1  0
  7  9  1  0
  2 10  1  0
 10 11  1  0
 11 12  1  0
 12 13  1  0
 13 14  1  6
 13 15  1  0
 15 16  1  0
 16 17  1  0
 17 18  2  0
 18 19  1  0
 19 20  1  0
 20 21  1  0
 21 22  1  0
 22 23  1  0
 22 24  1  0
 24 25  1  0
 24 26  1  0
 19 27  1  0
 27 28  1  1
 27 29  1  0
 29 30  1  0
 30 31  1  0
 31 32  1  1
  7  5  1  0
 31 10  1  0
 31 13  1  0
 27 15  1  0
 24 18  1  0
  1 33  1  0
  1 34  1  0
  1 35  1  0
  2 36  1  1
  3 37  1  0
  3 38  1  0
  4 39  1  0
  4 40  1  0
  5 41  1  1
  8 42  1  0
  8 43  1  0
  8 44  1  0
  9 45  1  0
  9 46  1  0
  9 47  1  0
 10 48  1  6
 11 49  1  0
 11 50  1  0
 12 51  1  0
 12 52  1  0
 14 53  1  0
 14 54  1  0
 14 55  1  0
 15 56  1  1
 16 57  1  0
 16 58  1  0
 17 59  1  0
 19 60  1  6
 20 61  1  0
 20 62  1  0
 21 63  1  0
 21 64  1  0
 22 65  1  6
 23 66  1  0
 25 67  1  0
 25 68  1  0
 25 69  1  0
 26 70  1  0
 26 71  1  0
 26 72  1  0
 28 73  1  0
 28 74  1  0
 28 75  1  0
 29 76  1  0
 29 77  1  0
 30 78  1  0
 30 79  1  0
 32 80  1  0
 32 81  1  0
 32 82  1  0
M  END
>  <meeko>  (14) 
{"is_sidechain": [false], "intermolecular_energy": 2.731, "internal_energy": -0.839}

$$$$
EPH_relaxed_0001_pdb2pqr_Repair_58_r2_0001_out
     RDKit          3D

 82 86  0  0  0  0  0  0  0  0999 V2000
   -0.1800    9.3450   -2.2420 C   0  0  0  0  0  0  0  0  0  0  0  0
    0.9270   10.2940   -2.7110 C   0  0  2  0  0  0  0  0  0  0  0  0
    2.2970    9.5920   -2.7920 C   0  0  0  0  0  0  0  0  0  0  0  0
    3.2240   10.1740   -3.8630 C   0  0  0  0  0  0  0  0  0  0  0  0
    4.5870   10.4720   -3.3140 C   0  0  2  0  0  0  0  0  0  0  0  0
    5.0780   11.7860   -3.6110 O   0  0  0  0  0  0  0  0  0  0  0  0
    5.8100   10.6900   -4.1840 C   0  0  0  0  0  0  0  0  0  0  0  0
    5.7290   10.6190   -5.6770 C   0  0  0  0  0  0  0  0  0  0  0  0
    7.1640   10.4880   -3.5790 C   0  0  0  0  0  0  0  0  0  0  0  0
    1.0120   11.4950   -1.7770 C   0  0  1  0  0  0  0  0  0  0  0  0
    2.1260   11.3430   -0.7080 C   0  0  0  0  0  0  0  0  0  0  0  0
    2.7090   12.7590   -0.4640 C   0  0  0  0  0  0  0  0  0  0  0  0
    1.7020   13.7170   -1.1430 C   0  0  1  0  0  0  0  0  0  0  0  0
    0.5430   13.8790   -0.1100 C   0  0  0  0  0  0  0  0  0  0  0  0
    2.2660   15.1020   -1.6000 C   0  0  2  0  0  0  0  0  0  0  0  0
    2.7950   15.9970   -0.4650 C   0  0  0  0  0  0  0  0  0  0  0  0
    1.7910   16.9210    0.1390 C   0  0  0  0  0  0  0  0  0  0  0  0
    0.5960   17.2350   -0.3950 C   0  0  0  0  0  0  0  0  0  0  0  0
    0.1910   16.7160   -1.7800 C   0  0  1  0  0  0  0  0  0  0  0  0
   -0.4030   17.8790   -2.6170 C   0  0  0  0  0  0  0  0  0  0  0  0
   -1.5490   18.5880   -1.9010 C   0  0  0  0  0  0  0  0  0  0  0  0
   -1.0930   19.1410   -0.5540 C   0  0  2  0  0  0  0  0  0  0  0  0
   -0.1430   20.1870   -0.7830 O   0  0  0  0  0  0  0  0  0  0  0  0
   -0.4670   18.0600    0.3720 C   0  0  0  0  0  0  0  0  0  0  0  0
   -1.5720   17.0930    0.8630 C   0  0  0  0  0  0  0  0  0  0  0  0
    0.0790   18.7750    1.6380 C   0  0  0  0  0  0  0  0  0  0  0  0
    1.3070   15.9040   -2.5700 C   0  0  1  0  0  0  0  0  0  0  0  0
    2.2100   16.8880   -3.3750 C   0  0  0  0  0  0  0  0  0  0  0  0
    0.6110   14.9710   -3.6300 C   0  0  0  0  0  0  0  0  0  0  0  0
    0.1840   13.5710   -3.1490 C   0  0  0  0  0  0  0  0  0  0  0  0
    1.3320   12.8700   -2.4150 C   0  0  2  0  0  0  0  0  0  0  0  0
    2.5040   12.6740   -3.4360 C   0  0  0  0  0  0  0  0  0  0  0  0
   -0.2039    9.3245   -1.1425 H   0  0  0  0  0  0  0  0  0  0  0  0
   -1.1501    9.6964   -2.6234 H   0  0  0  0  0  0  0  0  0  0  0  0
    0.0190    8.3326   -2.6234 H   0  0  0  0  0  0  0  0  0  0  0  0
    0.6673   10.6299   -3.7258 H   0  0  0  0  0  0  0  0  0  0  0  0
    2.7935    9.6854   -1.8149 H   0  0  0  0  0  0  0  0  0  0  0  0
    2.1058    8.5442   -3.0669 H   0  0  0  0  0  0  0  0  0  0  0  0
    3.3211    9.4477   -4.6834 H   0  0  0  0  0  0  0  0  0  0  0  0
    2.7849   11.1168   -4.2212 H   0  0  0  0  0  0  0  0  0  0  0  0
    4.4057    9.8205   -2.4465 H   0  0  0  0  0  0  0  0  0  0  0  0
    4.9313    9.9198   -5.9681 H   0  0  0  0  0  0  0  0  0  0  0  0
    5.5061   11.6179   -6.0800 H   0  0  0  0  0  0  0  0  0  0  0  0
    6.6901   10.2671   -6.0800 H   0  0  0  0  0  0  0  0  0  0  0  0
    7.0811   10.5004   -2.4822 H   0  0  0  0  0  0  0  0  0  0  0  0
    7.5705    9.5193   -3.9051 H   0  0  0  0  0  0  0  0  0  0  0  0
    7.8355   11.2959   -3.9051 H   0  0  0  0  0  0  0  0  0  0  0  0
   -0.0141   11.4933   -1.3805 H   0  0  0  0  0  0  0  0  0  0  0  0
    1.7034   10.9416    0.2249 H   0  0  0  0  0  0  0  0  0  0  0  0
    2.9075   10.6477   -1.0484 H   0  0  0  0  0  0  0  0  0  0  0  0
    2.7797   12.9696    0.6133 H   0  0  0  0  0  0  0  0  0  0  0  0
    3.7261   12.8672   -0.8687 H   0  0  0  0  0  0  0  0  0  0  0  0
    0.9505   13.8220    0.9102 H   0  0  0  0  0  0  0  0  0  0  0  0
    0.0552   14.8541   -0.2561 H   0  0  0  0  0  0  0  0  0  0  0  0
   -0.1934   13.0751   -0.2561 H   0  0  0  0  0  0  0  0  0  0  0  0
    3.1487   14.8150   -2.1903 H   0  0  0  0  0  0  0  0  0  0  0  0
    3.1784   15.3435    0.3325 H   0  0  0  0  0  0  0  0  0  0  0  0
    3.5654   16.6386   -0.9175 H   0  0  0  0  0  0  0  0  0  0  0  0
    2.0494   17.3849    1.1024 H   0  0  0  0  0  0  0  0  0  0  0  0
   -0.5803   15.9518   -1.6037 H   0  0  0  0  0  0  0  0  0  0  0  0
    0.3931   18.6106   -2.8192 H   0  0  0  0  0  0  0  0  0  0  0  0
   -0.8041   17.4505   -3.5473 H   0  0  0  0  0  0  0  0  0  0  0  0
   -1.9065   19.4179   -2.5282 H   0  0  0  0  0  0  0  0  0  0  0  0
   -2.3563   17.8615   -1.7266 H   0  0  0  0  0  0  0  0  0  0  0  0
   -1.9849   19.5209   -0.0342 H   0  0  0  0  0  0  0  0  0  0  0  0
    0.5700   19.8220   -1.3340 H   0  0  0  0  0  0  0  0  0  0  0  0
   -1.5862   17.0806    1.9628 H   0  0  0  0  0  0  0  0  0  0  0  0
   -2.5489   17.4316    0.4875 H   0  0  0  0  0  0  0  0  0  0  0  0
   -1.3660   16.0798    0.4875 H   0  0  0  0  0  0  0  0  0  0  0  0
   -0.3052   18.2719    2.5376 H   0  0  0  0  0  0  0  0  0  0  0  0
    1.1783   18.7346    1.6365 H   0  0  0  0  0  0  0  0  0  0  0  0
   -0.2494   19.8248    1.6365 H   0  0  0  0  0  0  0  0  0  0  0  0
    2.7843   17.5138   -2.6761 H   0  0  0  0  0  0  0  0  0  0  0  0
    2.9031   16.3149   -4.0084 H   0  0  0  0  0  0  0  0  0  0  0  0
    1.5796   17.5294   -4.0084 H   0  0  0  0  0  0  0  0  0  0  0  0
   -0.2907   15.4892   -3.9883 H   0  0  0  0  0  0  0  0  0  0  0  0
    1.3753   14.7901   -4.4001 H   0  0  0  0  0  0  0  0  0  0  0  0
   -0.6723   13.6708   -2.4658 H   0  0  0  0  0  0  0  0  0  0  0  0
   -0.0920   12.9675   -4.0263 H   0  0  0  0  0  0  0  0  0  0  0  0
    3.4449   12.5166   -2.8883 H   0  0  0  0  0  0  0  0  0  0  0  0
    2.2968   11.7980   -4.0683 H   0  0  0  0  0  0  0  0  0  0  0  0
    2.5931   13.5697   -4.0683 H   0  0  0  0  0  0  0  0  0  0  0  0
  1  2  1  0
  2  3  1  0
  3  4  1  0
  4  5  1  0
  5  6  1  0
  6  7  1  0
  7  8  1  0
  7  9  1  0
  2 10  1  0
 10 11  1  0
 11 12  1  0
 12 13  1  0
 13 14  1  1
 13 15  1  0
 15 16  1  0
 16 17  1  0
 17 18  2  0
 18 19  1  0
 19 20  1  0
 20 21  1  0
 21 22  1  0
 22 23  1  0
 22 24  1  0
 24 25  1  0
 24 26  1  0
 19 27  1  0
 27 28  1  6
 27 29  1  0
 29 30  1  0
 30 31  1  0
 31 32  1  6
  7  5  1  0
 31 10  1  0
 31 13  1  0
 27 15  1  0
 24 18  1  0
  1 33  1  0
  1 34  1  0
  1 35  1  0
  2 36  1  6
  3 37  1  0
  3 38  1  0
  4 39  1  0
  4 40  1  0
  5 41  1  1
  8 42  1  0
  8 43  1  0
  8 44  1  0
  9 45  1  0
  9 46  1  0
  9 47  1  0
 10 48  1  1
 11 49  1  0
 11 50  1  0
 12 51  1  0
 12 52  1  0
 14 53  1  0
 14 54  1  0
 14 55  1  0
 15 56  1  6
 16 57  1  0
 16 58  1  0
 17 59  1  0
 19 60  1  1
 20 61  1  0
 20 62  1  0
 21 63  1  0
 21 64  1  0
 22 65  1  1
 23 66  1  0
 25 67  1  0
 25 68  1  0
 25 69  1  0
 26 70  1  0
 26 71  1  0
 26 72  1  0
 28 73  1  0
 28 74  1  0
 28 75  1  0
 29 76  1  0
 29 77  1  0
 30 78  1  0
 30 79  1  0
 32 80  1  0
 32 81  1  0
 32 82  1  0
M  END
>  <meeko>  (15) 
{"is_sidechain": [false], "intermolecular_energy": 2.731, "internal_energy": -0.839}

$$$$
EPH_relaxed_0001_pdb2pqr_Repair_58_r2_0001_out
     RDKit          3D

 82 86  0  0  0  0  0  0  0  0999 V2000
   -0.2850   15.1240   -7.7000 C   0  0  0  0  0  0  0  0  0  0  0  0
    1.0770   15.1160   -6.9990 C   0  0  2  0  0  0  0  0  0  0  0  0
    2.2450   15.2240   -8.0000 C   0  0  0  0  0  0  0  0  0  0  0  0
    2.2470   16.5260   -8.8060 C   0  0  0  0  0  0  0  0  0  0  0  0
    1.8450   16.2960  -10.2310 C   0  0  2  0  0  0  0  0  0  0  0  0
    1.1970   15.0410  -10.4750 O   0  0  0  0  0  0  0  0  0  0  0  0
    2.4690   15.2330  -11.1150 C   0  0  0  0  0  0  0  0  0  0  0  0
    3.5480   14.3300  -10.6060 C   0  0  0  0  0  0  0  0  0  0  0  0
    2.3780   15.3940  -12.6010 C   0  0  0  0  0  0  0  0  0  0  0  0
    1.2230   13.8510   -6.1620 C   0  0  1  0  0  0  0  0  0  0  0  0
    2.6520   13.2500   -6.2330 C   0  0  0  0  0  0  0  0  0  0  0  0
    2.9530   12.6450   -4.8380 C   0  0  0  0  0  0  0  0  0  0  0  0
    1.5840   12.6200   -4.1200 C   0  0  1  0  0  0  0  0  0  0  0  0
    0.8700   11.3410   -4.6590 C   0  0  0  0  0  0  0  0  0  0  0  0
    1.6230   12.6440   -2.5570 C   0  0  2  0  0  0  0  0  0  0  0  0
    2.3120   11.4330   -1.9030 C   0  0  0  0  0  0  0  0  0  0  0  0
    1.4150   10.2840   -1.5840 C   0  0  0  0  0  0  0  0  0  0  0  0
    0.0700   10.3280   -1.5480 C   0  0  0  0  0  0  0  0  0  0  0  0
   -0.6800   11.6500   -1.7510 C   0  0  1  0  0  0  0  0  0  0  0  0
   -1.7790   11.7940   -0.6650 C   0  0  0  0  0  0  0  0  0  0  0  0
   -2.7170   10.5920   -0.6180 C   0  0  0  0  0  0  0  0  0  0  0  0
   -1.9400    9.3040   -0.3570 C   0  0  2  0  0  0  0  0  0  0  0  0
   -1.3950    9.3540    0.9650 O   0  0  0  0  0  0  0  0  0  0  0  0
   -0.8000    9.0570   -1.3840 C   0  0  0  0  0  0  0  0  0  0  0  0
   -1.4090    8.7030   -2.7630 C   0  0  0  0  0  0  0  0  0  0  0  0
   -0.0070    7.8030   -0.9250 C   0  0  0  0  0  0  0  0  0  0  0  0
    0.2260   12.9490   -1.8780 C   0  0  1  0  0  0  0  0  0  0  0  0
    0.5360   13.5230   -0.4620 C   0  0  0  0  0  0  0  0  0  0  0  0
   -0.5790   14.0650   -2.6430 C   0  0  0  0  0  0  0  0  0  0  0  0
   -0.4820   14.0620   -4.1800 C   0  0  0  0  0  0  0  0  0  0  0  0
    0.9780   13.9760   -4.6370 C   0  0  2  0  0  0  0  0  0  0  0  0
    1.7150   15.2610   -4.1270 C   0  0  0  0  0  0  0  0  0  0  0  0
   -1.0856   15.1287   -6.9457 H   0  0  0  0  0  0  0  0  0  0  0  0
   -0.3684   16.0227   -8.3289 H   0  0  0  0  0  0  0  0  0  0  0  0
   -0.3790   14.2264   -8.3289 H   0  0  0  0  0  0  0  0  0  0  0  0
    1.1190   16.0002   -6.3460 H   0  0  0  0  0  0  0  0  0  0  0  0
    3.1895   15.1611   -7.4396 H   0  0  0  0  0  0  0  0  0  0  0  0
    2.1283   14.4006   -8.7200 H   0  0  0  0  0  0  0  0  0  0  0  0
    1.5398   17.2315   -8.3455 H   0  0  0  0  0  0  0  0  0  0  0  0
    3.2693   16.9320   -8.7993 H   0  0  0  0  0  0  0  0  0  0  0  0
    1.6729   17.3721  -10.3807 H   0  0  0  0  0  0  0  0  0  0  0  0
    3.5419   14.3351   -9.5060 H   0  0  0  0  0  0  0  0  0  0  0  0
    3.3713   13.3067  -10.9689 H   0  0  0  0  0  0  0  0  0  0  0  0
    4.5241   14.6843  -10.9689 H   0  0  0  0  0  0  0  0  0  0  0  0
    1.8493   16.3294  -12.8368 H   0  0  0  0  0  0  0  0  0  0  0  0
    3.3908   15.4274  -13.0289 H   0  0  0  0  0  0  0  0  0  0  0  0
    1.8270   14.5435  -13.0289 H   0  0  0  0  0  0  0  0  0  0  0  0
    0.4366   13.2337   -6.6208 H   0  0  0  0  0  0  0  0  0  0  0  0
    2.6952   12.4658   -7.0032 H   0  0  0  0  0  0  0  0  0  0  0  0
    3.3915   14.0203   -6.4972 H   0  0  0  0  0  0  0  0  0  0  0  0
    3.3590   11.6273   -4.9355 H   0  0  0  0  0  0  0  0  0  0  0  0
    3.7040   13.2273   -4.2840 H   0  0  0  0  0  0  0  0  0  0  0  0
    0.5277   10.7278   -3.8123 H   0  0  0  0  0  0  0  0  0  0  0  0
    0.0053   11.6347   -5.2723 H   0  0  0  0  0  0  0  0  0  0  0  0
    1.5738   10.7591   -5.2723 H   0  0  0  0  0  0  0  0  0  0  0  0
    2.2738   13.5065   -2.3508 H   0  0  0  0  0  0  0  0  0  0  0  0
    3.0925   11.0742   -2.5901 H   0  0  0  0  0  0  0  0  0  0  0  0
    2.7034   11.7899   -0.9389 H   0  0  0  0  0  0  0  0  0  0  0  0
    1.8933    9.3193   -1.3592 H   0  0  0  0  0  0  0  0  0  0  0  0
   -1.1444   11.5862   -2.7461 H   0  0  0  0  0  0  0  0  0  0  0  0
   -1.2932   11.9006    0.3161 H   0  0  0  0  0  0  0  0  0  0  0  0
   -2.3826   12.6785   -0.9165 H   0  0  0  0  0  0  0  0  0  0  0  0
   -3.4510   10.7393    0.1880 H   0  0  0  0  0  0  0  0  0  0  0  0
   -3.2253   10.5049   -1.5896 H   0  0  0  0  0  0  0  0  0  0  0  0
   -2.6448    8.4663   -0.4643 H   0  0  0  0  0  0  0  0  0  0  0  0
   -0.4270    9.3880    0.8830 H   0  0  0  0  0  0  0  0  0  0  0  0
   -2.3517    8.1550   -2.6178 H   0  0  0  0  0  0  0  0  0  0  0  0
   -1.6053    9.6277   -3.3254 H   0  0  0  0  0  0  0  0  0  0  0  0
   -0.7026    8.0748   -3.3254 H   0  0  0  0  0  0  0  0  0  0  0  0
    0.0164    7.7660    0.1741 H   0  0  0  0  0  0  0  0  0  0  0  0
   -0.4970    6.8974   -1.3120 H   0  0  0  0  0  0  0  0  0  0  0  0
    1.0212    7.8575   -1.3120 H   0  0  0  0  0  0  0  0  0  0  0  0
    0.1613   12.8292    0.3050 H   0  0  0  0  0  0  0  0  0  0  0  0
    1.6230   13.6456   -0.3460 H   0  0  0  0  0  0  0  0  0  0  0  0
    0.0425   14.4992   -0.3460 H   0  0  0  0  0  0  0  0  0  0  0  0
   -1.6402   13.9515   -2.3765 H   0  0  0  0  0  0  0  0  0  0  0  0
   -0.1232   15.0153   -2.3280 H   0  0  0  0  0  0  0  0  0  0  0  0
   -1.0340   13.1958   -4.5737 H   0  0  0  0  0  0  0  0  0  0  0  0
   -0.9141   14.9992   -4.5606 H   0  0  0  0  0  0  0  0  0  0  0  0
    1.7195   15.2689   -3.0270 H   0  0  0  0  0  0  0  0  0  0  0  0
    2.7506   15.2613   -4.4979 H   0  0  0  0  0  0  0  0  0  0  0  0
    1.1924   16.1550   -4.4979 H   0  0  0  0  0  0  0  0  0  0  0  0
  1  2  1  0
  2  3  1  0
  3  4  1  0
  4  5  1  0
  5  6  1  0
  6  7  1  0
  7  8  1  0
  7  9  1  0
  2 10  1  0
 10 11  1  0
 11 12  1  0
 12 13  1  0
 13 14  1  1
 13 15  1  0
 15 16  1  0
 16 17  1  0
 17 18  2  0
 18 19  1  0
 19 20  1  0
 20 21  1  0
 21 22  1  0
 22 23  1  0
 22 24  1  0
 24 25  1  0
 24 26  1  0
 19 27  1  0
 27 28  1  1
 27 29  1  0
 29 30  1  0
 30 31  1  0
 31 32  1  1
  7  5  1  0
 31 10  1  0
 31 13  1  0
 27 15  1  0
 24 18  1  0
  1 33  1  0
  1 34  1  0
  1 35  1  0
  2 36  1  1
  3 37  1  0
  3 38  1  0
  4 39  1  0
  4 40  1  0
  5 41  1  6
  8 42  1  0
  8 43  1  0
  8 44  1  0
  9 45  1  0
  9 46  1  0
  9 47  1  0
 10 48  1  6
 11 49  1  0
 11 50  1  0
 12 51  1  0
 12 52  1  0
 14 53  1  0
 14 54  1  0
 14 55  1  0
 15 56  1  6
 16 57  1  0
 16 58  1  0
 17 59  1  0
 19 60  1  6
 20 61  1  0
 20 62  1  0
 21 63  1  0
 21 64  1  0
 22 65  1  1
 23 66  1  0
 25 67  1  0
 25 68  1  0
 25 69  1  0
 26 70  1  0
 26 71  1  0
 26 72  1  0
 28 73  1  0
 28 74  1  0
 28 75  1  0
 29 76  1  0
 29 77  1  0
 30 78  1  0
 30 79  1  0
 32 80  1  0
 32 81  1  0
 32 82  1  0
M  END
>  <meeko>  (16) 
{"is_sidechain": [false], "intermolecular_energy": 2.731, "internal_energy": -0.839}

$$$$
EPH_relaxed_0001_pdb2pqr_Repair_58_r2_0001_out
     RDKit          3D

 82 86  0  0  0  0  0  0  0  0999 V2000
   -2.3800    7.8000   -2.3520 C   0  0  0  0  0  0  0  0  0  0  0  0
   -2.2380    8.3520   -0.9310 C   0  0  2  0  0  0  0  0  0  0  0  0
   -3.5650    8.2880   -0.1480 C   0  0  0  0  0  0  0  0  0  0  0  0
   -4.8090    8.3930   -1.0350 C   0  0  0  0  0  0  0  0  0  0  0  0
   -5.6100    7.1270   -1.0180 C   0  0  2  0  0  0  0  0  0  0  0  0
   -5.7090    6.4650   -2.2860 O   0  0  0  0  0  0  0  0  0  0  0  0
   -6.9370    6.9670   -1.7350 C   0  0  0  0  0  0  0  0  0  0  0  0
   -7.5410    8.0900   -2.5180 C   0  0  0  0  0  0  0  0  0  0  0  0
   -7.8750    5.8950   -1.2750 C   0  0  0  0  0  0  0  0  0  0  0  0
   -1.7310    9.7890   -0.9790 C   0  0  1  0  0  0  0  0  0  0  0  0
   -1.3430   10.3330    0.4220 C   0  0  0  0  0  0  0  0  0  0  0  0
   -0.1280   11.2740    0.2150 C   0  0  0  0  0  0  0  0  0  0  0  0
   -0.0660   11.5010   -1.3130 C   0  0  1  0  0  0  0  0  0  0  0  0
   -1.1310   12.6060   -1.5980 C   0  0  0  0  0  0  0  0  0  0  0  0
    1.3330   11.8820   -1.8990 C   0  0  2  0  0  0  0  0  0  0  0  0
    1.9150   13.2110   -1.3860 C   0  0  0  0  0  0  0  0  0  0  0  0
    1.5610   14.4160   -2.1940 C   0  0  0  0  0  0  0  0  0  0  0  0
    1.0470   14.4000   -3.4380 C   0  0  0  0  0  0  0  0  0  0  0  0
    0.8640   13.0800   -4.1980 C   0  0  1  0  0  0  0  0  0  0  0  0
    1.4010   13.2360   -5.6450 C   0  0  0  0  0  0  0  0  0  0  0  0
    0.7780   14.4220   -6.3750 C   0  0  0  0  0  0  0  0  0  0  0  0
    1.0320   15.7230   -5.6190 C   0  0  2  0  0  0  0  0  0  0  0  0
    2.4330   16.0090   -5.6520 O   0  0  0  0  0  0  0  0  0  0  0  0
    0.5410   15.6810   -4.1450 C   0  0  0  0  0  0  0  0  0  0  0  0
   -1.0080   15.6740   -4.1120 C   0  0  0  0  0  0  0  0  0  0  0  0
    0.9830   17.0010   -3.4570 C   0  0  0  0  0  0  0  0  0  0  0  0
    1.4250   11.7800   -3.4750 C   0  0  1  0  0  0  0  0  0  0  0  0
    2.9330   11.5890   -3.8220 C   0  0  0  0  0  0  0  0  0  0  0  0
    0.6760   10.5150   -4.0380 C   0  0  0  0  0  0  0  0  0  0  0  0
   -0.6400   10.1190   -3.3410 C   0  0  0  0  0  0  0  0  0  0  0  0
   -0.4600   10.0660   -1.8200 C   0  0  2  0  0  0  0  0  0  0  0  0
    0.5900    8.9470   -1.5020 C   0  0  0  0  0  0  0  0  0  0  0  0
   -2.6538    6.7356   -2.3062 H   0  0  0  0  0  0  0  0  0  0  0  0
   -3.1639    8.3577   -2.8854 H   0  0  0  0  0  0  0  0  0  0  0  0
   -1.4243    7.9101   -2.8854 H   0  0  0  0  0  0  0  0  0  0  0  0
   -1.5108    7.7188   -0.4016 H   0  0  0  0  0  0  0  0  0  0  0  0
   -3.6036    7.3306    0.3923 H   0  0  0  0  0  0  0  0  0  0  0  0
   -3.5800    9.1538    0.5304 H   0  0  0  0  0  0  0  0  0  0  0  0
   -5.4384    9.2180   -0.6701 H   0  0  0  0  0  0  0  0  0  0  0  0
   -4.4790    8.5762   -2.0682 H   0  0  0  0  0  0  0  0  0  0  0  0
   -5.3006    6.9170    0.0165 H   0  0  0  0  0  0  0  0  0  0  0  0
   -7.9461    8.8431   -1.8261 H   0  0  0  0  0  0  0  0  0  0  0  0
   -6.7695    8.5516   -3.1518 H   0  0  0  0  0  0  0  0  0  0  0  0
   -8.3515    7.7008   -3.1518 H   0  0  0  0  0  0  0  0  0  0  0  0
   -7.8949    5.8723   -0.1754 H   0  0  0  0  0  0  0  0  0  0  0  0
   -8.8856    6.1039   -1.6558 H   0  0  0  0  0  0  0  0  0  0  0  0
   -7.5338    4.9210   -1.6558 H   0  0  0  0  0  0  0  0  0  0  0  0
   -2.6021   10.2768   -1.4407 H   0  0  0  0  0  0  0  0  0  0  0  0
   -2.1846   10.8912    0.8581 H   0  0  0  0  0  0  0  0  0  0  0  0
   -1.0940    9.5115    1.1099 H   0  0  0  0  0  0  0  0  0  0  0  0
   -0.2804   12.2268    0.7432 H   0  0  0  0  0  0  0  0  0  0  0  0
    0.8042   10.8447    0.6110 H   0  0  0  0  0  0  0  0  0  0  0  0
   -1.5126   13.0019   -0.6453 H   0  0  0  0  0  0  0  0  0  0  0  0
   -0.6688   13.4207   -2.1748 H   0  0  0  0  0  0  0  0  0  0  0  0
   -1.9622   12.1741   -2.1748 H   0  0  0  0  0  0  0  0  0  0  0  0
    1.9828   11.0942   -1.4903 H   0  0  0  0  0  0  0  0  0  0  0  0
    1.5487   13.3694   -0.3609 H   0  0  0  0  0  0  0  0  0  0  0  0
    3.0084   13.1104   -1.4523 H   0  0  0  0  0  0  0  0  0  0  0  0
    1.7350   15.3998   -1.7337 H   0  0  0  0  0  0  0  0  0  0  0  0
   -0.2193   12.8903   -4.2210 H   0  0  0  0  0  0  0  0  0  0  0  0
    2.4907   13.3804   -5.6032 H   0  0  0  0  0  0  0  0  0  0  0  0
    1.1347   12.3245   -6.2003 H   0  0  0  0  0  0  0  0  0  0  0  0
    1.2187   14.4978   -7.3800 H   0  0  0  0  0  0  0  0  0  0  0  0
   -0.3082   14.2615   -6.4421 H   0  0  0  0  0  0  0  0  0  0  0  0
    0.4536   16.5137   -6.1192 H   0  0  0  0  0  0  0  0  0  0  0  0
    2.8630   15.4540   -4.9790 H   0  0  0  0  0  0  0  0  0  0  0  0
   -1.3525   15.6724   -3.0673 H   0  0  0  0  0  0  0  0  0  0  0  0
   -1.3897   16.5704   -4.6226 H   0  0  0  0  0  0  0  0  0  0  0  0
   -1.3816   14.7742   -4.6226 H   0  0  0  0  0  0  0  0  0  0  0  0
    0.9415   16.8770   -2.3648 H   0  0  0  0  0  0  0  0  0  0  0  0
    2.0120   17.2454   -3.7594 H   0  0  0  0  0  0  0  0  0  0  0  0
    0.3087   17.8157   -3.7594 H   0  0  0  0  0  0  0  0  0  0  0  0
    3.5166   11.5151   -2.8925 H   0  0  0  0  0  0  0  0  0  0  0  0
    3.0603   10.6676   -4.4091 H   0  0  0  0  0  0  0  0  0  0  0  0
    3.2860   12.4496   -4.4091 H   0  0  0  0  0  0  0  0  0  0  0  0
    0.4470   10.7076   -5.0965 H   0  0  0  0  0  0  0  0  0  0  0  0
    1.3606    9.6725   -3.8602 H   0  0  0  0  0  0  0  0  0  0  0  0
   -1.4145   10.8606   -3.5862 H   0  0  0  0  0  0  0  0  0  0  0  0
   -0.9377    9.1207   -3.6942 H   0  0  0  0  0  0  0  0  0  0  0  0
    0.6917    8.8386   -0.4121 H   0  0  0  0  0  0  0  0  0  0  0  0
    0.2527    7.9939   -1.9354 H   0  0  0  0  0  0  0  0  0  0  0  0
    1.5626    9.2230   -1.9354 H   0  0  0  0  0  0  0  0  0  0  0  0
  1  2  1  0
  2  3  1  0
  3  4  1  0
  4  5  1  0
  5  6  1  0
  6  7  1  0
  7  8  1  0
  7  9  1  0
  2 10  1  0
 10 11  1  0
 11 12  1  0
 12 13  1  0
 13 14  1  1
 13 15  1  0
 15 16  1  0
 16 17  1  0
 17 18  2  0
 18 19  1  0
 19 20  1  0
 20 21  1  0
 21 22  1  0
 22 23  1  0
 22 24  1  0
 24 25  1  0
 24 26  1  0
 19 27  1  0
 27 28  1  1
 27 29  1  0
 29 30  1  0
 30 31  1  0
 31 32  1  6
  7  5  1  0
 31 10  1  0
 31 13  1  0
 27 15  1  0
 24 18  1  0
  1 33  1  0
  1 34  1  0
  1 35  1  0
  2 36  1  1
  3 37  1  0
  3 38  1  0
  4 39  1  0
  4 40  1  0
  5 41  1  1
  8 42  1  0
  8 43  1  0
  8 44  1  0
  9 45  1  0
  9 46  1  0
  9 47  1  0
 10 48  1  6
 11 49  1  0
 11 50  1  0
 12 51  1  0
 12 52  1  0
 14 53  1  0
 14 54  1  0
 14 55  1  0
 15 56  1  1
 16 57  1  0
 16 58  1  0
 17 59  1  0
 19 60  1  6
 20 61  1  0
 20 62  1  0
 21 63  1  0
 21 64  1  0
 22 65  1  6
 23 66  1  0
 25 67  1  0
 25 68  1  0
 25 69  1  0
 26 70  1  0
 26 71  1  0
 26 72  1  0
 28 73  1  0
 28 74  1  0
 28 75  1  0
 29 76  1  0
 29 77  1  0
 30 78  1  0
 30 79  1  0
 32 80  1  0
 32 81  1  0
 32 82  1  0
M  END
>  <meeko>  (17) 
{"is_sidechain": [false], "intermolecular_energy": 2.731, "internal_energy": -0.839}

$$$$
EPH_relaxed_0001_pdb2pqr_Repair_58_r2_0001_out
     RDKit          3D

 82 86  0  0  0  0  0  0  0  0999 V2000
   -0.4520   18.6020   -3.3410 C   0  0  0  0  0  0  0  0  0  0  0  0
    0.4050   18.3490   -2.0970 C   0  0  2  0  0  0  0  0  0  0  0  0
    1.5090   19.4110   -1.9270 C   0  0  0  0  0  0  0  0  0  0  0  0
    1.5770   20.0070   -0.5180 C   0  0  0  0  0  0  0  0  0  0  0  0
    2.9290   19.8170    0.1000 C   0  0  2  0  0  0  0  0  0  0  0  0
    3.0550   18.6450    0.9150 O   0  0  0  0  0  0  0  0  0  0  0  0
    3.1860   19.9050    1.5930 C   0  0  0  0  0  0  0  0  0  0  0  0
    2.0810   20.1940    2.5590 C   0  0  0  0  0  0  0  0  0  0  0  0
    4.5780   20.1940    2.0630 C   0  0  0  0  0  0  0  0  0  0  0  0
    1.0260   16.9590   -2.1690 C   0  0  1  0  0  0  0  0  0  0  0  0
    2.5770   16.9930   -2.1140 C   0  0  0  0  0  0  0  0  0  0  0  0
    3.0250   15.7300   -1.3350 C   0  0  0  0  0  0  0  0  0  0  0  0
    1.7560   14.8490   -1.2580 C   0  0  1  0  0  0  0  0  0  0  0  0
    1.6860   14.1250   -2.6390 C   0  0  0  0  0  0  0  0  0  0  0  0
    1.6910   13.8330   -0.0710 C   0  0  2  0  0  0  0  0  0  0  0  0
    2.7900   12.7570   -0.0720 C   0  0  0  0  0  0  0  0  0  0  0  0
    2.4490   11.4980   -0.7990 C   0  0  0  0  0  0  0  0  0  0  0  0
    1.2130   11.1260   -1.1810 C   0  0  0  0  0  0  0  0  0  0  0  0
   -0.0150   11.9620   -0.7990 C   0  0  1  0  0  0  0  0  0  0  0  0
   -1.1310   11.0280   -0.2620 C   0  0  0  0  0  0  0  0  0  0  0  0
   -1.4710    9.9040   -1.2360 C   0  0  0  0  0  0  0  0  0  0  0  0
   -0.2380    9.0590   -1.5460 C   0  0  2  0  0  0  0  0  0  0  0  0
    0.1570    8.3660   -0.3580 O   0  0  0  0  0  0  0  0  0  0  0  0
    0.9570    9.8950   -2.0850 C   0  0  0  0  0  0  0  0  0  0  0  0
    0.6370   10.3990   -3.5140 C   0  0  0  0  0  0  0  0  0  0  0  0
    2.1790    8.9470   -2.2230 C   0  0  0  0  0  0  0  0  0  0  0  0
    0.2600   13.1990    0.1620 C   0  0  1  0  0  0  0  0  0  0  0  0
    0.2140   12.7370    1.6500 C   0  0  0  0  0  0  0  0  0  0  0  0
   -0.8970   14.2520   -0.0120 C   0  0  0  0  0  0  0  0  0  0  0  0
   -0.7190   15.3030   -1.1250 C   0  0  0  0  0  0  0  0  0  0  0  0
    0.6630   15.9580   -1.0430 C   0  0  2  0  0  0  0  0  0  0  0  0
    0.7550   16.7120    0.3270 C   0  0  0  0  0  0  0  0  0  0  0  0
   -1.4650   18.9011   -3.0338 H   0  0  0  0  0  0  0  0  0  0  0  0
    0.0011   19.4047   -3.9413 H   0  0  0  0  0  0  0  0  0  0  0  0
   -0.5075   17.6819   -3.9413 H   0  0  0  0  0  0  0  0  0  0  0  0
   -0.2555   18.4167   -1.2200 H   0  0  0  0  0  0  0  0  0  0  0  0
    2.4786   18.9436   -2.1537 H   0  0  0  0  0  0  0  0  0  0  0  0
    1.2704   20.2361   -2.6143 H   0  0  0  0  0  0  0  0  0  0  0  0
    1.3596   21.0838   -0.5756 H   0  0  0  0  0  0  0  0  0  0  0  0
    0.8373   19.4883    0.1096 H   0  0  0  0  0  0  0  0  0  0  0  0
    3.4166   20.2956   -0.7621 H   0  0  0  0  0  0  0  0  0  0  0  0
    2.4581   20.0954    3.5876 H   0  0  0  0  0  0  0  0  0  0  0  0
    1.7134   21.2185    2.3999 H   0  0  0  0  0  0  0  0  0  0  0  0
    1.2589   19.4806    2.3999 H   0  0  0  0  0  0  0  0  0  0  0  0
    4.6001   20.1986    3.1628 H   0  0  0  0  0  0  0  0  0  0  0  0
    5.2608   19.4185    1.6858 H   0  0  0  0  0  0  0  0  0  0  0  0
    4.8957   21.1772    1.6858 H   0  0  0  0  0  0  0  0  0  0  0  0
    0.6034   16.6185   -3.1258 H   0  0  0  0  0  0  0  0  0  0  0  0
    2.9925   16.9771   -3.1324 H   0  0  0  0  0  0  0  0  0  0  0  0
    2.9346   17.9088   -1.6205 H   0  0  0  0  0  0  0  0  0  0  0  0
    3.8291   15.2067   -1.8731 H   0  0  0  0  0  0  0  0  0  0  0  0
    3.4249   15.9736   -0.3396 H   0  0  0  0  0  0  0  0  0  0  0  0
    1.5813   13.0416   -2.4801 H   0  0  0  0  0  0  0  0  0  0  0  0
    0.8197   14.4980   -3.2051 H   0  0  0  0  0  0  0  0  0  0  0  0
    2.6077   14.3252   -3.2051 H   0  0  0  0  0  0  0  0  0  0  0  0
    1.9015   14.4728    0.7987 H   0  0  0  0  0  0  0  0  0  0  0  0
    3.6871   13.1878   -0.5406 H   0  0  0  0  0  0  0  0  0  0  0  0
    2.9368   12.4709    0.9799 H   0  0  0  0  0  0  0  0  0  0  0  0
    3.2778   10.8171   -1.0430 H   0  0  0  0  0  0  0  0  0  0  0  0
   -0.3507   12.4501   -1.7259 H   0  0  0  0  0  0  0  0  0  0  0  0
   -0.7932   10.5834    0.6857 H   0  0  0  0  0  0  0  0  0  0  0  0
   -2.0374   11.6356   -0.1233 H   0  0  0  0  0  0  0  0  0  0  0  0
   -2.2443    9.2620   -0.7890 H   0  0  0  0  0  0  0  0  0  0  0  0
   -1.8357   10.3499   -2.1731 H   0  0  0  0  0  0  0  0  0  0  0  0
   -0.5133    8.3537   -2.3439 H   0  0  0  0  0  0  0  0  0  0  0  0
    1.1090    8.1800   -0.4280 H   0  0  0  0  0  0  0  0  0  0  0  0
    0.0483   11.3262   -3.4525 H   0  0  0  0  0  0  0  0  0  0  0  0
    1.5759   10.5958   -4.0522 H   0  0  0  0  0  0  0  0  0  0  0  0
    0.0595    9.6330   -4.0522 H   0  0  0  0  0  0  0  0  0  0  0  0
    2.5404    8.6666   -1.2226 H   0  0  0  0  0  0  0  0  0  0  0  0
    1.8806    8.0417   -2.7721 H   0  0  0  0  0  0  0  0  0  0  0  0
    2.9817    9.4610   -2.7721 H   0  0  0  0  0  0  0  0  0  0  0  0
    0.3013   13.6135    2.3089 H   0  0  0  0  0  0  0  0  0  0  0  0
   -0.7396   12.2247    1.8456 H   0  0  0  0  0  0  0  0  0  0  0  0
    1.0479   12.0468    1.8456 H   0  0  0  0  0  0  0  0  0  0  0  0
   -1.8229   13.6970   -0.2235 H   0  0  0  0  0  0  0  0  0  0  0  0
   -0.9073   14.8258    0.9264 H   0  0  0  0  0  0  0  0  0  0  0  0
   -0.8276   14.8129   -2.1038 H   0  0  0  0  0  0  0  0  0  0  0  0
   -1.4850   16.0822   -0.9981 H   0  0  0  0  0  0  0  0  0  0  0  0
    0.6667   15.9882    1.1506 H   0  0  0  0  0  0  0  0  0  0  0  0
    1.7230   17.2299    0.3962 H   0  0  0  0  0  0  0  0  0  0  0  0
   -0.0601   17.4474    0.3962 H   0  0  0  0  0  0  0  0  0  0  0  0
  1  2  1  0
  2  3  1  0
  3  4  1  0
  4  5  1  0
  5  6  1  0
  6  7  1  0
  7  8  1  0
  7  9  1  0
  2 10  1  0
 10 11  1  0
 11 12  1  0
 12 13  1  0
 13 14  1  6
 13 15  1  0
 15 16  1  0
 16 17  1  0
 17 18  2  0
 18 19  1  0
 19 20  1  0
 20 21  1  0
 21 22  1  0
 22 23  1  0
 22 24  1  0
 24 25  1  0
 24 26  1  0
 19 27  1  0
 27 28  1  1
 27 29  1  0
 29 30  1  0
 30 31  1  0
 31 32  1  1
  7  5  1  0
 31 10  1  0
 31 13  1  0
 27 15  1  0
 24 18  1  0
  1 33  1  0
  1 34  1  0
  1 35  1  0
  2 36  1  1
  3 37  1  0
  3 38  1  0
  4 39  1  0
  4 40  1  0
  5 41  1  6
  8 42  1  0
  8 43  1  0
  8 44  1  0
  9 45  1  0
  9 46  1  0
  9 47  1  0
 10 48  1  6
 11 49  1  0
 11 50  1  0
 12 51  1  0
 12 52  1  0
 14 53  1  0
 14 54  1  0
 14 55  1  0
 15 56  1  1
 16 57  1  0
 16 58  1  0
 17 59  1  0
 19 60  1  6
 20 61  1  0
 20 62  1  0
 21 63  1  0
 21 64  1  0
 22 65  1  6
 23 66  1  0
 25 67  1  0
 25 68  1  0
 25 69  1  0
 26 70  1  0
 26 71  1  0
 26 72  1  0
 28 73  1  0
 28 74  1  0
 28 75  1  0
 29 76  1  0
 29 77  1  0
 30 78  1  0
 30 79  1  0
 32 80  1  0
 32 81  1  0
 32 82  1  0
M  END
>  <meeko>  (18) 
{"is_sidechain": [false], "intermolecular_energy": 2.731, "internal_energy": -0.839}

$$$$
EPH_relaxed_0001_pdb2pqr_Repair_58_r2_0001_out
     RDKit          3D

 82 86  0  0  0  0  0  0  0  0999 V2000
    2.8640   11.4480   -5.4990 C   0  0  0  0  0  0  0  0  0  0  0  0
    1.9500   11.1330   -4.3110 C   0  0  2  0  0  0  0  0  0  0  0  0
    0.8460   10.1220   -4.6800 C   0  0  0  0  0  0  0  0  0  0  0  0
   -0.2370    9.9750   -3.6070 C   0  0  0  0  0  0  0  0  0  0  0  0
    0.2120    9.0870   -2.4860 C   0  0  2  0  0  0  0  0  0  0  0  0
   -0.7230    8.0620   -2.1230 O   0  0  0  0  0  0  0  0  0  0  0  0
   -0.4560    9.0590   -1.1230 C   0  0  0  0  0  0  0  0  0  0  0  0
   -1.6270    9.9360   -0.8100 C   0  0  0  0  0  0  0  0  0  0  0  0
    0.3260    8.5460    0.0460 C   0  0  0  0  0  0  0  0  0  0  0  0
    1.3250   12.4180   -3.7810 C   0  0  1  0  0  0  0  0  0  0  0  0
   -0.2170   12.3180   -3.6400 C   0  0  0  0  0  0  0  0  0  0  0  0
   -0.6080   13.1530   -2.3940 C   0  0  0  0  0  0  0  0  0  0  0  0
    0.6630   13.9690   -2.0580 C   0  0  1  0  0  0  0  0  0  0  0  0
    0.6310   15.1830   -3.0380 C   0  0  0  0  0  0  0  0  0  0  0  0
    0.8140   14.4310   -0.5720 C   0  0  2  0  0  0  0  0  0  0  0  0
   -0.2820   15.3860   -0.0700 C   0  0  0  0  0  0  0  0  0  0  0  0
    0.0040   16.8390   -0.2570 C   0  0  0  0  0  0  0  0  0  0  0  0
    1.2080   17.3690   -0.5410 C   0  0  0  0  0  0  0  0  0  0  0  0
    2.4610   16.4870   -0.6070 C   0  0  1  0  0  0  0  0  0  0  0  0
    3.6130   17.1640    0.1810 C   0  0  0  0  0  0  0  0  0  0  0  0
    3.8800   18.5920   -0.2840 C   0  0  0  0  0  0  0  0  0  0  0  0
    2.6270   19.4530   -0.1490 C   0  0  2  0  0  0  0  0  0  0  0  0
    2.3200   19.6050    1.2400 O   0  0  0  0  0  0  0  0  0  0  0  0
    1.3960   18.8650   -0.8950 C   0  0  0  0  0  0  0  0  0  0  0  0
    1.6110   18.9800   -2.4240 C   0  0  0  0  0  0  0  0  0  0  0  0
    0.1670   19.7530   -0.5610 C   0  0  0  0  0  0  0  0  0  0  0  0
    2.2580   14.9630   -0.2030 C   0  0  1  0  0  0  0  0  0  0  0  0
    2.4130   14.7970    1.3400 C   0  0  0  0  0  0  0  0  0  0  0  0
    3.4000   14.1010   -0.8600 C   0  0  0  0  0  0  0  0  0  0  0  0
    3.1410   13.5740   -2.2840 C   0  0  0  0  0  0  0  0  0  0  0  0
    1.7690   12.8990   -2.3770 C   0  0  2  0  0  0  0  0  0  0  0  0
    1.7790   11.6600   -1.4180 C   0  0  0  0  0  0  0  0  0  0  0  0
    3.8433   11.7855   -5.1288 H   0  0  0  0  0  0  0  0  0  0  0  0
    2.9952   10.5432   -6.1107 H   0  0  0  0  0  0  0  0  0  0  0  0
    2.4099   12.2415   -6.1107 H   0  0  0  0  0  0  0  0  0  0  0  0
    2.5708   10.6721   -3.5286 H   0  0  0  0  0  0  0  0  0  0  0  0
    0.3678   10.4550   -5.6130 H   0  0  0  0  0  0  0  0  0  0  0  0
    1.3308    9.1401   -4.7845 H   0  0  0  0  0  0  0  0  0  0  0  0
   -0.4744   10.9695   -3.2012 H   0  0  0  0  0  0  0  0  0  0  0  0
   -1.1226    9.5185   -4.0731 H   0  0  0  0  0  0  0  0  0  0  0  0
    1.2636    9.1934   -2.7906 H   0  0  0  0  0  0  0  0  0  0  0  0
   -1.7403   10.0209    0.2809 H   0  0  0  0  0  0  0  0  0  0  0  0
   -1.4624   10.9349   -1.2404 H   0  0  0  0  0  0  0  0  0  0  0  0
   -2.5392    9.4971   -1.2404 H   0  0  0  0  0  0  0  0  0  0  0  0
   -0.1596    8.8646    0.9802 H   0  0  0  0  0  0  0  0  0  0  0  0
    0.3634    7.4473    0.0084 H   0  0  0  0  0  0  0  0  0  0  0  0
    1.3487    8.9492    0.0084 H   0  0  0  0  0  0  0  0  0  0  0  0
    1.6760   13.1236   -4.5484 H   0  0  0  0  0  0  0  0  0  0  0  0
   -0.7065   12.7247   -4.5372 H   0  0  0  0  0  0  0  0  0  0  0  0
   -0.5361   11.2711   -3.5295 H   0  0  0  0  0  0  0  0  0  0  0  0
   -1.4501   13.8224   -2.6235 H   0  0  0  0  0  0  0  0  0  0  0  0
   -0.9335   12.5221   -1.5538 H   0  0  0  0  0  0  0  0  0  0  0  0
    0.6063   16.1193   -2.4612 H   0  0  0  0  0  0  0  0  0  0  0  0
    1.5299   15.1664   -3.6718 H   0  0  0  0  0  0  0  0  0  0  0  0
   -0.2658   15.1191   -3.6718 H   0  0  0  0  0  0  0  0  0  0  0  0
    0.6675   13.4923   -0.0175 H   0  0  0  0  0  0  0  0  0  0  0  0
   -1.2113   15.1503   -0.6092 H   0  0  0  0  0  0  0  0  0  0  0  0
   -0.3505   15.2266    1.0162 H   0  0  0  0  0  0  0  0  0  0  0  0
   -0.8410   17.5357   -0.1539 H   0  0  0  0  0  0  0  0  0  0  0  0
    2.7282   16.4172   -1.6718 H   0  0  0  0  0  0  0  0  0  0  0  0
    3.3458   17.1848    1.2478 H   0  0  0  0  0  0  0  0  0  0  0  0
    4.5274   16.5789    0.0038 H   0  0  0  0  0  0  0  0  0  0  0  0
    4.6830   19.0262    0.3297 H   0  0  0  0  0  0  0  0  0  0  0  0
    4.1762   18.5667   -1.3431 H   0  0  0  0  0  0  0  0  0  0  0  0
    2.8425   20.4248   -0.6171 H   0  0  0  0  0  0  0  0  0  0  0  0
    3.0550   20.0900    1.6520 H   0  0  0  0  0  0  0  0  0  0  0  0
    2.5650   19.4903   -2.6228 H   0  0  0  0  0  0  0  0  0  0  0  0
    1.6340   17.9737   -2.8678 H   0  0  0  0  0  0  0  0  0  0  0  0
    0.7868   19.5577   -2.8678 H   0  0  0  0  0  0  0  0  0  0  0  0
    0.0576   19.8320    0.5307 H   0  0  0  0  0  0  0  0  0  0  0  0
    0.3123   20.7560   -0.9885 H   0  0  0  0  0  0  0  0  0  0  0  0
   -0.7397   19.3000   -0.9885 H   0  0  0  0  0  0  0  0  0  0  0  0
    1.7492   15.5079    1.8538 H   0  0  0  0  0  0  0  0  0  0  0  0
    2.1431   13.7700    1.6272 H   0  0  0  0  0  0  0  0  0  0  0  0
    3.4560   14.9960    1.6272 H   0  0  0  0  0  0  0  0  0  0  0  0
    4.3073   14.7220   -0.8950 H   0  0  0  0  0  0  0  0  0  0  0  0
    3.4802   13.2023   -0.2308 H   0  0  0  0  0  0  0  0  0  0  0  0
    3.1768   14.4156   -2.9914 H   0  0  0  0  0  0  0  0  0  0  0  0
    3.9148   12.8318   -2.5298 H   0  0  0  0  0  0  0  0  0  0  0  0
    1.7762   12.0048   -0.3734 H   0  0  0  0  0  0  0  0  0  0  0  0
    0.8858   11.0454   -1.6036 H   0  0  0  0  0  0  0  0  0  0  0  0
    2.6820   11.0599   -1.6036 H   0  0  0  0  0  0  0  0  0  0  0  0
  1  2  1  0
  2  3  1  0
  3  4  1  0
  4  5  1  0
  5  6  1  0
  6  7  1  0
  7  8  1  0
  7  9  1  0
  2 10  1  0
 10 11  1  0
 11 12  1  0
 12 13  1  0
 13 14  1  6
 13 15  1  0
 15 16  1  0
 16 17  1  0
 17 18  2  0
 18 19  1  0
 19 20  1  0
 20 21  1  0
 21 22  1  0
 22 23  1  0
 22 24  1  0
 24 25  1  0
 24 26  1  0
 19 27  1  0
 27 28  1  1
 27 29  1  0
 29 30  1  0
 30 31  1  0
 31 32  1  1
  7  5  1  0
 31 10  1  0
 31 13  1  0
 27 15  1  0
 24 18  1  0
  1 33  1  0
  1 34  1  0
  1 35  1  0
  2 36  1  1
  3 37  1  0
  3 38  1  0
  4 39  1  0
  4 40  1  0
  5 41  1  1
  8 42  1  0
  8 43  1  0
  8 44  1  0
  9 45  1  0
  9 46  1  0
  9 47  1  0
 10 48  1  6
 11 49  1  0
 11 50  1  0
 12 51  1  0
 12 52  1  0
 14 53  1  0
 14 54  1  0
 14 55  1  0
 15 56  1  1
 16 57  1  0
 16 58  1  0
 17 59  1  0
 19 60  1  6
 20 61  1  0
 20 62  1  0
 21 63  1  0
 21 64  1  0
 22 65  1  6
 23 66  1  0
 25 67  1  0
 25 68  1  0
 25 69  1  0
 26 70  1  0
 26 71  1  0
 26 72  1  0
 28 73  1  0
 28 74  1  0
 28 75  1  0
 29 76  1  0
 29 77  1  0
 30 78  1  0
 30 79  1  0
 32 80  1  0
 32 81  1  0
 32 82  1  0
M  END
>  <meeko>  (19) 
{"is_sidechain": [false], "intermolecular_energy": 2.731, "internal_energy": -0.839}

$$$$
