EPH_relaxed_0001_pdb2pqr_Repair_153_r2_0001_out
     RDKit          3D

 82 86  0  0  0  0  0  0  0  0999 V2000
    4.5040   17.7290   -0.7180 C   0  0  0  0  0  0  0  0  0  0  0  0
    3.1260   18.3020   -0.3760 C   0  0  2  0  0  0  0  0  0  0  0  0
    3.0860   18.9150    1.0380 C   0  0  0  0  0  0  0  0  0  0  0  0
    4.3610   18.6700    1.8500 C   0  0  0  0  0  0  0  0  0  0  0  0
    4.2400   19.2040    3.2460 C   0  0  2  0  0  0  0  0  0  0  0  0
    5.2170   20.1930    3.5960 O   0  0  0  0  0  0  0  0  0  0  0  0
    5.2750   18.9580    4.3280 C   0  0  0  0  0  0  0  0  0  0  0  0
    6.5060   18.1490    4.0610 C   0  0  0  0  0  0  0  0  0  0  0  0
    4.8570   19.0860    5.7600 C   0  0  0  0  0  0  0  0  0  0  0  0
    2.0640   17.2160   -0.5030 C   0  0  1  0  0  0  0  0  0  0  0  0
    0.7270   17.7510   -1.0800 C   0  0  0  0  0  0  0  0  0  0  0  0
    0.1290   16.6160   -1.9500 C   0  0  0  0  0  0  0  0  0  0  0  0
    0.9600   15.3640   -1.5840 C   0  0  1  0  0  0  0  0  0  0  0  0
    0.3340   14.8440   -0.2520 C   0  0  0  0  0  0  0  0  0  0  0  0
    1.0300   14.2390   -2.6670 C   0  0  2  0  0  0  0  0  0  0  0  0
   -0.3200   13.5940   -3.0250 C   0  0  0  0  0  0  0  0  0  0  0  0
   -0.6920   12.3980   -2.2120 C   0  0  0  0  0  0  0  0  0  0  0  0
    0.1470   11.6930   -1.4300 C   0  0  0  0  0  0  0  0  0  0  0  0
    1.6450   12.0220   -1.3840 C   0  0  1  0  0  0  0  0  0  0  0  0
    2.4670   10.7110   -1.5010 C   0  0  0  0  0  0  0  0  0  0  0  0
    2.0650    9.6740   -0.4570 C   0  0  0  0  0  0  0  0  0  0  0  0
    0.5820    9.3300   -0.5720 C   0  0  2  0  0  0  0  0  0  0  0  0
    0.3600    8.6580   -1.8160 O   0  0  0  0  0  0  0  0  0  0  0  0
   -0.3450   10.5750   -0.4790 C   0  0  0  0  0  0  0  0  0  0  0  0
   -0.3310   11.1260    0.9690 C   0  0  0  0  0  0  0  0  0  0  0  0
   -1.8000   10.1080   -0.7510 C   0  0  0  0  0  0  0  0  0  0  0  0
    2.1400   13.1450   -2.3950 C   0  0  1  0  0  0  0  0  0  0  0  0
    2.4820   12.5050   -3.7750 C   0  0  0  0  0  0  0  0  0  0  0  0
    3.4780   13.7720   -1.8510 C   0  0  0  0  0  0  0  0  0  0  0  0
    3.3440   14.9570   -0.8770 C   0  0  0  0  0  0  0  0  0  0  0  0
    2.3830   16.0150   -1.4280 C   0  0  2  0  0  0  0  0  0  0  0  0
    2.9970   16.5730   -2.7570 C   0  0  0  0  0  0  0  0  0  0  0  0
    5.0479   17.5028    0.2110 H   0  0  0  0  0  0  0  0  0  0  0  0
    4.3822   16.8069   -1.3053 H   0  0  0  0  0  0  0  0  0  0  0  0
    5.0719   18.4656   -1.3053 H   0  0  0  0  0  0  0  0  0  0  0  0
    2.9179   19.1105   -1.0923 H   0  0  0  0  0  0  0  0  0  0  0  0
    2.9384   20.0008    0.9420 H   0  0  0  0  0  0  0  0  0  0  0  0
    2.2615   18.4262    1.5777 H   0  0  0  0  0  0  0  0  0  0  0  0
    4.5510   17.5876    1.8975 H   0  0  0  0  0  0  0  0  0  0  0  0
    5.1905   19.1941    1.3528 H   0  0  0  0  0  0  0  0  0  0  0  0
    3.1479   19.0742    3.2261 H   0  0  0  0  0  0  0  0  0  0  0  0
    6.9621   17.8493    5.0161 H   0  0  0  0  0  0  0  0  0  0  0  0
    6.2370   17.2511    3.4854 H   0  0  0  0  0  0  0  0  0  0  0  0
    7.2235   18.7522    3.4854 H   0  0  0  0  0  0  0  0  0  0  0  0
    5.7031   18.8269    6.4135 H   0  0  0  0  0  0  0  0  0  0  0  0
    4.5434   20.1213    5.9593 H   0  0  0  0  0  0  0  0  0  0  0  0
    4.0174   18.4038    5.9593 H   0  0  0  0  0  0  0  0  0  0  0  0
    2.0157   16.8825    0.5441 H   0  0  0  0  0  0  0  0  0  0  0  0
    0.0365   18.0054   -0.2624 H   0  0  0  0  0  0  0  0  0  0  0  0
    0.8902   18.6610   -1.6760 H   0  0  0  0  0  0  0  0  0  0  0  0
   -0.9331   16.4610   -1.7094 H   0  0  0  0  0  0  0  0  0  0  0  0
    0.1739   16.8467   -3.0246 H   0  0  0  0  0  0  0  0  0  0  0  0
    0.8677   15.2873    0.6016 H   0  0  0  0  0  0  0  0  0  0  0  0
   -0.7273   15.1300   -0.2095 H   0  0  0  0  0  0  0  0  0  0  0  0
    0.4205   13.7482   -0.2095 H   0  0  0  0  0  0  0  0  0  0  0  0
    1.3431   14.7938   -3.5637 H   0  0  0  0  0  0  0  0  0  0  0  0
   -1.1051   14.3529   -2.8918 H   0  0  0  0  0  0  0  0  0  0  0  0
   -0.2216   13.2384   -4.0613 H   0  0  0  0  0  0  0  0  0  0  0  0
   -1.7395   12.0650   -2.2557 H   0  0  0  0  0  0  0  0  0  0  0  0
    1.8238   12.4887   -0.4041 H   0  0  0  0  0  0  0  0  0  0  0  0
    2.3085   10.2835   -2.5020 H   0  0  0  0  0  0  0  0  0  0  0  0
    3.5242   10.9633   -1.3315 H   0  0  0  0  0  0  0  0  0  0  0  0
    2.6592    8.7609   -0.6093 H   0  0  0  0  0  0  0  0  0  0  0  0
    2.2517   10.0922    0.5431 H   0  0  0  0  0  0  0  0  0  0  0  0
    0.3263    8.6837    0.2806 H   0  0  0  0  0  0  0  0  0  0  0  0
   -0.5500    8.8510   -2.0960 H   0  0  0  0  0  0  0  0  0  0  0  0
   -0.3523   10.2875    1.6806 H   0  0  0  0  0  0  0  0  0  0  0  0
    0.5825   11.7181    1.1272 H   0  0  0  0  0  0  0  0  0  0  0  0
   -1.2132   11.7637    1.1272 H   0  0  0  0  0  0  0  0  0  0  0  0
   -2.3168    9.9421    0.2058 H   0  0  0  0  0  0  0  0  0  0  0  0
   -2.3317   10.8806   -1.3258 H   0  0  0  0  0  0  0  0  0  0  0  0
   -1.7827    9.1703   -1.3258 H   0  0  0  0  0  0  0  0  0  0  0  0
    2.9950   11.5449   -3.6169 H   0  0  0  0  0  0  0  0  0  0  0  0
    1.5540   12.3360   -4.3409 H   0  0  0  0  0  0  0  0  0  0  0  0
    3.1383   13.1826   -4.3409 H   0  0  0  0  0  0  0  0  0  0  0  0
    4.0317   12.9757   -1.3320 H   0  0  0  0  0  0  0  0  0  0  0  0
    3.9839   14.1835   -2.7368 H   0  0  0  0  0  0  0  0  0  0  0  0
    2.9603   14.5893    0.0861 H   0  0  0  0  0  0  0  0  0  0  0  0
    4.3346   15.4173   -0.7470 H   0  0  0  0  0  0  0  0  0  0  0  0
    3.7917   17.2953   -2.5188 H   0  0  0  0  0  0  0  0  0  0  0  0
    3.4192   15.7431   -3.3426 H   0  0  0  0  0  0  0  0  0  0  0  0
    2.2111   17.0724   -3.3426 H   0  0  0  0  0  0  0  0  0  0  0  0
  1  2  1  0
  2  3  1  0
  3  4  1  0
  4  5  1  0
  5  6  1  0
  6  7  1  0
  7  8  1  0
  7  9  1  0
  2 10  1  0
 10 11  1  0
 11 12  1  0
 12 13  1  0
 13 14  1  1
 13 15  1  0
 15 16  1  0
 16 17  1  0
 17 18  2  0
 18 19  1  0
 19 20  1  0
 20 21  1  0
 21 22  1  0
 22 23  1  0
 22 24  1  0
 24 25  1  0
 24 26  1  0
 19 27  1  0
 27 28  1  6
 27 29  1  0
 29 30  1  0
 30 31  1  0
 31 32  1  6
  7  5  1  0
 31 10  1  0
 31 13  1  0
 27 15  1  0
 24 18  1  0
  1 33  1  0
  1 34  1  0
  1 35  1  0
  2 36  1  6
  3 37  1  0
  3 38  1  0
  4 39  1  0
  4 40  1  0
  5 41  1  1
  8 42  1  0
  8 43  1  0
  8 44  1  0
  9 45  1  0
  9 46  1  0
  9 47  1  0
 10 48  1  1
 11 49  1  0
 11 50  1  0
 12 51  1  0
 12 52  1  0
 14 53  1  0
 14 54  1  0
 14 55  1  0
 15 56  1  6
 16 57  1  0
 16 58  1  0
 17 59  1  0
 19 60  1  1
 20 61  1  0
 20 62  1  0
 21 63  1  0
 21 64  1  0
 22 65  1  1
 23 66  1  0
 25 67  1  0
 25 68  1  0
 25 69  1  0
 26 70  1  0
 26 71  1  0
 26 72  1  0
 28 73  1  0
 28 74  1  0
 28 75  1  0
 29 76  1  0
 29 77  1  0
 30 78  1  0
 30 79  1  0
 32 80  1  0
 32 81  1  0
 32 82  1  0
M  END
>  <meeko>  (1) 
{"is_sidechain": [false], "intermolecular_energy": 2.731, "internal_energy": -0.839}

$$$$
EPH_relaxed_0001_pdb2pqr_Repair_153_r2_0001_out
     RDKit          3D

 82 86  0  0  0  0  0  0  0  0999 V2000
    3.8280   17.9530    0.6660 C   0  0  0  0  0  0  0  0  0  0  0  0
    2.9570   18.3410   -0.5320 C   0  0  2  0  0  0  0  0  0  0  0  0
    2.2150   19.6730   -0.3040 C   0  0  0  0  0  0  0  0  0  0  0  0
    1.1700   19.6110    0.8130 C   0  0  0  0  0  0  0  0  0  0  0  0
   -0.1490   20.1690    0.3690 C   0  0  2  0  0  0  0  0  0  0  0  0
   -1.1600   20.1940    1.3850 O   0  0  0  0  0  0  0  0  0  0  0  0
   -1.4140   19.3380    0.2600 C   0  0  0  0  0  0  0  0  0  0  0  0
   -1.4210   17.8790    0.5950 C   0  0  0  0  0  0  0  0  0  0  0  0
   -2.5140   19.8230   -0.6320 C   0  0  0  0  0  0  0  0  0  0  0  0
    1.9550   17.2310   -0.8280 C   0  0  1  0  0  0  0  0  0  0  0  0
    0.8300   17.6840   -1.7960 C   0  0  0  0  0  0  0  0  0  0  0  0
    0.4750   16.4570   -2.6750 C   0  0  0  0  0  0  0  0  0  0  0  0
    1.1600   15.2620   -1.9710 C   0  0  1  0  0  0  0  0  0  0  0  0
    0.1910   14.8710   -0.8110 C   0  0  0  0  0  0  0  0  0  0  0  0
    1.5050   14.0340   -2.8750 C   0  0  2  0  0  0  0  0  0  0  0  0
    0.2930   13.3340   -3.5160 C   0  0  0  0  0  0  0  0  0  0  0  0
   -0.2990   12.2230   -2.7140 C   0  0  0  0  0  0  0  0  0  0  0  0
    0.2880   11.6140   -1.6670 C   0  0  0  0  0  0  0  0  0  0  0  0
    1.7220   11.9690   -1.2530 C   0  0  1  0  0  0  0  0  0  0  0  0
    2.5280   10.6660   -1.0090 C   0  0  0  0  0  0  0  0  0  0  0  0
    1.8460    9.7340   -0.0120 C   0  0  0  0  0  0  0  0  0  0  0  0
    0.4450    9.3580   -0.4870 C   0  0  2  0  0  0  0  0  0  0  0  0
    0.5580    8.5590   -1.6680 O   0  0  0  0  0  0  0  0  0  0  0  0
   -0.4570   10.5910   -0.7750 C   0  0  0  0  0  0  0  0  0  0  0  0
   -0.8260   11.2880    0.5580 C   0  0  0  0  0  0  0  0  0  0  0  0
   -1.7900   10.0770   -1.3800 C   0  0  0  0  0  0  0  0  0  0  0  0
    2.4860   12.9900   -2.2020 C   0  0  1  0  0  0  0  0  0  0  0  0
    3.1800   12.2170   -3.3660 C   0  0  0  0  0  0  0  0  0  0  0  0
    3.6360   13.6890   -1.3860 C   0  0  0  0  0  0  0  0  0  0  0  0
    3.2590   14.9660   -0.6100 C   0  0  0  0  0  0  0  0  0  0  0  0
    2.4960   15.9470   -1.5060 C   0  0  2  0  0  0  0  0  0  0  0  0
    3.4530   16.3760   -2.6700 C   0  0  0  0  0  0  0  0  0  0  0  0
    3.2954   18.1903    1.5987 H   0  0  0  0  0  0  0  0  0  0  0  0
    4.0417   16.8746    0.6300 H   0  0  0  0  0  0  0  0  0  0  0  0
    4.7727   18.5154    0.6300 H   0  0  0  0  0  0  0  0  0  0  0  0
    3.6250   18.4788   -1.3950 H   0  0  0  0  0  0  0  0  0  0  0  0
    2.9559   20.4434   -0.0442 H   0  0  0  0  0  0  0  0  0  0  0  0
    1.6774   19.9054   -1.2351 H   0  0  0  0  0  0  0  0  0  0  0  0
    1.0306   18.5620    1.1131 H   0  0  0  0  0  0  0  0  0  0  0  0
    1.5327   20.2170    1.6563 H   0  0  0  0  0  0  0  0  0  0  0  0
    0.3491   20.8508   -0.3360 H   0  0  0  0  0  0  0  0  0  0  0  0
   -1.4216   17.7537    1.6878 H   0  0  0  0  0  0  0  0  0  0  0  0
   -2.3214   17.4099    0.1717 H   0  0  0  0  0  0  0  0  0  0  0  0
   -0.5251   17.4013    0.1717 H   0  0  0  0  0  0  0  0  0  0  0  0
   -3.3489   20.1911   -0.0176 H   0  0  0  0  0  0  0  0  0  0  0  0
   -2.1384   20.6390   -1.2669 H   0  0  0  0  0  0  0  0  0  0  0  0
   -2.8631   18.9953   -1.2669 H   0  0  0  0  0  0  0  0  0  0  0  0
    1.6227   17.0049    0.1959 H   0  0  0  0  0  0  0  0  0  0  0  0
   -0.0524   18.0092   -1.2254 H   0  0  0  0  0  0  0  0  0  0  0  0
    1.1594   18.5314   -2.4153 H   0  0  0  0  0  0  0  0  0  0  0  0
   -0.6145   16.3110   -2.7163 H   0  0  0  0  0  0  0  0  0  0  0  0
    0.8117   16.5774   -3.7153 H   0  0  0  0  0  0  0  0  0  0  0  0
    0.6780   15.0675    0.1555 H   0  0  0  0  0  0  0  0  0  0  0  0
   -0.7299   15.4679   -0.8856 H   0  0  0  0  0  0  0  0  0  0  0  0
   -0.0578   13.8021   -0.8856 H   0  0  0  0  0  0  0  0  0  0  0  0
    2.0547   14.4997   -3.7063 H   0  0  0  0  0  0  0  0  0  0  0  0
   -0.4893   14.0900   -3.6789 H   0  0  0  0  0  0  0  0  0  0  0  0
    0.6626   12.8754   -4.4451 H   0  0  0  0  0  0  0  0  0  0  0  0
   -1.3005   11.8720   -3.0033 H   0  0  0  0  0  0  0  0  0  0  0  0
    1.6354   12.5363   -0.3145 H   0  0  0  0  0  0  0  0  0  0  0  0
    2.6405   10.1365   -1.9666 H   0  0  0  0  0  0  0  0  0  0  0  0
    3.5030   10.9507   -0.5867 H   0  0  0  0  0  0  0  0  0  0  0  0
    2.4474    8.8192    0.0951 H   0  0  0  0  0  0  0  0  0  0  0  0
    1.7615   10.2541    0.9536 H   0  0  0  0  0  0  0  0  0  0  0  0
   -0.0396    8.7987    0.3268 H   0  0  0  0  0  0  0  0  0  0  0  0
    0.2260    9.0870   -2.4140 H   0  0  0  0  0  0  0  0  0  0  0  0
   -0.4957   10.6642    1.4016 H   0  0  0  0  0  0  0  0  0  0  0  0
   -0.3284   12.2677    0.6095 H   0  0  0  0  0  0  0  0  0  0  0  0
   -1.9159   11.4272    0.6095 H   0  0  0  0  0  0  0  0  0  0  0  0
   -2.4824    9.8100   -0.5680 H   0  0  0  0  0  0  0  0  0  0  0  0
   -2.2395   10.8663   -2.0005 H   0  0  0  0  0  0  0  0  0  0  0  0
   -1.5932    9.1903   -2.0005 H   0  0  0  0  0  0  0  0  0  0  0  0
    3.8600   11.4596   -2.9490 H   0  0  0  0  0  0  0  0  0  0  0  0
    2.4163   11.7232   -3.9848 H   0  0  0  0  0  0  0  0  0  0  0  0
    3.7530   12.9232   -3.9848 H   0  0  0  0  0  0  0  0  0  0  0  0
    4.0196   12.9584   -0.6586 H   0  0  0  0  0  0  0  0  0  0  0  0
    4.3672   14.0154   -2.1402 H   0  0  0  0  0  0  0  0  0  0  0  0
    2.6248   14.6927    0.2462 H   0  0  0  0  0  0  0  0  0  0  0  0
    4.1833   15.4524   -0.2648 H   0  0  0  0  0  0  0  0  0  0  0  0
    4.3800   16.7916   -2.2482 H   0  0  0  0  0  0  0  0  0  0  0  0
    3.6928   15.4992   -3.2895 H   0  0  0  0  0  0  0  0  0  0  0  0
    2.9580   17.1384   -3.2895 H   0  0  0  0  0  0  0  0  0  0  0  0
  1  2  1  0
  2  3  1  0
  3  4  1  0
  4  5  1  0
  5  6  1  0
  6  7  1  0
  7  8  1  0
  7  9  1  0
  2 10  1  0
 10 11  1  0
 11 12  1  0
 12 13  1  0
 13 14  1  1
 13 15  1  0
 15 16  1  0
 16 17  1  0
 17 18  2  0
 18 19  1  0
 19 20  1  0
 20 21  1  0
 21 22  1  0
 22 23  1  0
 22 24  1  0
 24 25  1  0
 24 26  1  0
 19 27  1  0
 27 28  1  6
 27 29  1  0
 29 30  1  0
 30 31  1  0
 31 32  1  6
  7  5  1  0
 31 10  1  0
 31 13  1  0
 27 15  1  0
 24 18  1  0
  1 33  1  0
  1 34  1  0
  1 35  1  0
  2 36  1  6
  3 37  1  0
  3 38  1  0
  4 39  1  0
  4 40  1  0
  5 41  1  6
  8 42  1  0
  8 43  1  0
  8 44  1  0
  9 45  1  0
  9 46  1  0
  9 47  1  0
 10 48  1  1
 11 49  1  0
 11 50  1  0
 12 51  1  0
 12 52  1  0
 14 53  1  0
 14 54  1  0
 14 55  1  0
 15 56  1  6
 16 57  1  0
 16 58  1  0
 17 59  1  0
 19 60  1  1
 20 61  1  0
 20 62  1  0
 21 63  1  0
 21 64  1  0
 22 65  1  1
 23 66  1  0
 25 67  1  0
 25 68  1  0
 25 69  1  0
 26 70  1  0
 26 71  1  0
 26 72  1  0
 28 73  1  0
 28 74  1  0
 28 75  1  0
 29 76  1  0
 29 77  1  0
 30 78  1  0
 30 79  1  0
 32 80  1  0
 32 81  1  0
 32 82  1  0
M  END
>  <meeko>  (2) 
{"is_sidechain": [false], "intermolecular_energy": 2.731, "internal_energy": -0.839}

$$$$
EPH_relaxed_0001_pdb2pqr_Repair_153_r2_0001_out
     RDKit          3D

 82 86  0  0  0  0  0  0  0  0999 V2000
    2.3500   18.1920   -2.2320 C   0  0  0  0  0  0  0  0  0  0  0  0
    1.7910   17.3880   -1.0550 C   0  0  2  0  0  0  0  0  0  0  0  0
    2.8960   16.9540   -0.0710 C   0  0  0  0  0  0  0  0  0  0  0  0
    3.8950   18.0660    0.2620 C   0  0  0  0  0  0  0  0  0  0  0  0
    3.5890   18.7090    1.5810 C   0  0  2  0  0  0  0  0  0  0  0  0
    3.9390   20.0970    1.6650 O   0  0  0  0  0  0  0  0  0  0  0  0
    4.6580   19.2080    2.5350 C   0  0  0  0  0  0  0  0  0  0  0  0
    6.1140   19.0850    2.2110 C   0  0  0  0  0  0  0  0  0  0  0  0
    4.3070   19.3670    3.9820 C   0  0  0  0  0  0  0  0  0  0  0  0
    1.0420   16.1640   -1.5690 C   0  0  1  0  0  0  0  0  0  0  0  0
    0.5360   16.3430   -3.0260 C   0  0  0  0  0  0  0  0  0  0  0  0
    0.6330   14.9530   -3.7060 C   0  0  0  0  0  0  0  0  0  0  0  0
    0.8710   13.9640   -2.5410 C   0  0  1  0  0  0  0  0  0  0  0  0
   -0.5440   13.7080   -1.9360 C   0  0  0  0  0  0  0  0  0  0  0  0
    1.5930   12.6260   -2.9080 C   0  0  2  0  0  0  0  0  0  0  0  0
    0.8340   11.7260   -3.8990 C   0  0  0  0  0  0  0  0  0  0  0  0
   -0.0900   10.7310   -3.2780 C   0  0  0  0  0  0  0  0  0  0  0  0
   -0.0940   10.3700   -1.9820 C   0  0  0  0  0  0  0  0  0  0  0  0
    0.9640   10.9100   -1.0100 C   0  0  1  0  0  0  0  0  0  0  0  0
    1.5290    9.7430   -0.1600 C   0  0  0  0  0  0  0  0  0  0  0  0
    0.4350    8.9520    0.5500 C   0  0  0  0  0  0  0  0  0  0  0  0
   -0.5650    8.3830   -0.4530 C   0  0  2  0  0  0  0  0  0  0  0  0
    0.0950    7.3970   -1.2530 O   0  0  0  0  0  0  0  0  0  0  0  0
   -1.1940    9.4660   -1.3730 C   0  0  0  0  0  0  0  0  0  0  0  0
   -2.1540   10.3570   -0.5470 C   0  0  0  0  0  0  0  0  0  0  0  0
   -2.0740    8.7430   -2.4290 C   0  0  0  0  0  0  0  0  0  0  0  0
    2.1070   11.8040   -1.6580 C   0  0  1  0  0  0  0  0  0  0  0  0
    3.2670   10.8950   -2.1690 C   0  0  0  0  0  0  0  0  0  0  0  0
    2.7270   12.7300   -0.5460 C   0  0  0  0  0  0  0  0  0  0  0  0
    2.0410   14.0900   -0.3130 C   0  0  0  0  0  0  0  0  0  0  0  0
    1.8240   14.8280   -1.6380 C   0  0  2  0  0  0  0  0  0  0  0  0
    3.2320   15.1190   -2.2600 C   0  0  0  0  0  0  0  0  0  0  0  0
    2.9390   19.0391   -1.8506 H   0  0  0  0  0  0  0  0  0  0  0  0
    2.9937   17.5445   -2.8455 H   0  0  0  0  0  0  0  0  0  0  0  0
    1.5189   18.5700   -2.8455 H   0  0  0  0  0  0  0  0  0  0  0  0
    1.0989   18.0438   -0.5065 H   0  0  0  0  0  0  0  0  0  0  0  0
    2.4188   16.6244    0.8637 H   0  0  0  0  0  0  0  0  0  0  0  0
    3.4631   16.1479   -0.5595 H   0  0  0  0  0  0  0  0  0  0  0  0
    4.9069   17.6363    0.3010 H   0  0  0  0  0  0  0  0  0  0  0  0
    3.8240   18.8364   -0.5199 H   0  0  0  0  0  0  0  0  0  0  0  0
    2.7179   18.0532    1.7265 H   0  0  0  0  0  0  0  0  0  0  0  0
    6.6944   19.0360    3.1441 H   0  0  0  0  0  0  0  0  0  0  0  0
    6.2832   18.1694    1.6254 H   0  0  0  0  0  0  0  0  0  0  0  0
    6.4345   19.9593    1.6254 H   0  0  0  0  0  0  0  0  0  0  0  0
    5.1339   18.9924    4.6032 H   0  0  0  0  0  0  0  0  0  0  0  0
    4.1352   20.4308    4.2029 H   0  0  0  0  0  0  0  0  0  0  0  0
    3.3940   18.7946    4.2029 H   0  0  0  0  0  0  0  0  0  0  0  0
    0.2513   16.0978   -0.8072 H   0  0  0  0  0  0  0  0  0  0  0  0
   -0.5071   16.6923   -3.0247 H   0  0  0  0  0  0  0  0  0  0  0  0
    1.1380   17.0896   -3.5647 H   0  0  0  0  0  0  0  0  0  0  0  0
   -0.3016   14.7131   -4.2342 H   0  0  0  0  0  0  0  0  0  0  0  0
    1.4345   14.9118   -4.4582 H   0  0  0  0  0  0  0  0  0  0  0  0
   -0.4808   13.7194   -0.8379 H   0  0  0  0  0  0  0  0  0  0  0  0
   -1.2344   14.4958   -2.2718 H   0  0  0  0  0  0  0  0  0  0  0  0
   -0.9146   12.7282   -2.2718 H   0  0  0  0  0  0  0  0  0  0  0  0
    2.4847   12.9785   -3.4471 H   0  0  0  0  0  0  0  0  0  0  0  0
    0.2407   12.3740   -4.5609 H   0  0  0  0  0  0  0  0  0  0  0  0
    1.6009   11.1407   -4.4274 H   0  0  0  0  0  0  0  0  0  0  0  0
   -0.8303   10.2525   -3.9360 H   0  0  0  0  0  0  0  0  0  0  0  0
    0.4426   11.6267   -0.3584 H   0  0  0  0  0  0  0  0  0  0  0  0
    2.0837    9.0615   -0.8217 H   0  0  0  0  0  0  0  0  0  0  0  0
    2.1805   10.1780    0.6122 H   0  0  0  0  0  0  0  0  0  0  0  0
    0.8948    8.1238    1.1092 H   0  0  0  0  0  0  0  0  0  0  0  0
   -0.0995    9.6279    1.2338 H   0  0  0  0  0  0  0  0  0  0  0  0
   -1.3923    7.9405    0.1212 H   0  0  0  0  0  0  0  0  0  0  0  0
    0.1770    6.5890   -0.7170 H   0  0  0  0  0  0  0  0  0  0  0  0
   -1.9758   10.1916    0.5258 H   0  0  0  0  0  0  0  0  0  0  0  0
   -1.9731   11.4145   -0.7900 H   0  0  0  0  0  0  0  0  0  0  0  0
   -3.1951   10.0979   -0.7900 H   0  0  0  0  0  0  0  0  0  0  0  0
   -2.8266    8.1247   -1.9178 H   0  0  0  0  0  0  0  0  0  0  0  0
   -2.5795    9.4901   -3.0585 H   0  0  0  0  0  0  0  0  0  0  0  0
   -1.4392    8.1022   -3.0585 H   0  0  0  0  0  0  0  0  0  0  0  0
    3.8071   10.4718   -1.3093 H   0  0  0  0  0  0  0  0  0  0  0  0
    2.8520   10.0792   -2.7791 H   0  0  0  0  0  0  0  0  0  0  0  0
    3.9599   11.4930   -2.7791 H   0  0  0  0  0  0  0  0  0  0  0  0
    2.6976   12.1754    0.4035 H   0  0  0  0  0  0  0  0  0  0  0  0
    3.7373   12.9749   -0.9055 H   0  0  0  0  0  0  0  0  0  0  0  0
    1.0669   13.9237    0.1702 H   0  0  0  0  0  0  0  0  0  0  0  0
    2.6890   14.7046    0.3292 H   0  0  0  0  0  0  0  0  0  0  0  0
    3.9648   15.2705   -1.4537 H   0  0  0  0  0  0  0  0  0  0  0  0
    3.5417   14.2659   -2.8815 H   0  0  0  0  0  0  0  0  0  0  0  0
    3.1781   16.0250   -2.8815 H   0  0  0  0  0  0  0  0  0  0  0  0
  1  2  1  0
  2  3  1  0
  3  4  1  0
  4  5  1  0
  5  6  1  0
  6  7  1  0
  7  8  1  0
  7  9  1  0
  2 10  1  0
 10 11  1  0
 11 12  1  0
 12 13  1  0
 13 14  1  1
 13 15  1  0
 15 16  1  0
 16 17  1  0
 17 18  2  0
 18 19  1  0
 19 20  1  0
 20 21  1  0
 21 22  1  0
 22 23  1  0
 22 24  1  0
 24 25  1  0
 24 26  1  0
 19 27  1  0
 27 28  1  6
 27 29  1  0
 29 30  1  0
 30 31  1  0
 31 32  1  6
  7  5  1  0
 31 10  1  0
 31 13  1  0
 27 15  1  0
 24 18  1  0
  1 33  1  0
  1 34  1  0
  1 35  1  0
  2 36  1  1
  3 37  1  0
  3 38  1  0
  4 39  1  0
  4 40  1  0
  5 41  1  1
  8 42  1  0
  8 43  1  0
  8 44  1  0
  9 45  1  0
  9 46  1  0
  9 47  1  0
 10 48  1  1
 11 49  1  0
 11 50  1  0
 12 51  1  0
 12 52  1  0
 14 53  1  0
 14 54  1  0
 14 55  1  0
 15 56  1  6
 16 57  1  0
 16 58  1  0
 17 59  1  0
 19 60  1  1
 20 61  1  0
 20 62  1  0
 21 63  1  0
 21 64  1  0
 22 65  1  1
 23 66  1  0
 25 67  1  0
 25 68  1  0
 25 69  1  0
 26 70  1  0
 26 71  1  0
 26 72  1  0
 28 73  1  0
 28 74  1  0
 28 75  1  0
 29 76  1  0
 29 77  1  0
 30 78  1  0
 30 79  1  0
 32 80  1  0
 32 81  1  0
 32 82  1  0
M  END
>  <meeko>  (3) 
{"is_sidechain": [false], "intermolecular_energy": 2.731, "internal_energy": -0.839}

$$$$
EPH_relaxed_0001_pdb2pqr_Repair_153_r2_0001_out
     RDKit          3D

 82 86  0  0  0  0  0  0  0  0999 V2000
   -1.5650    8.7180   -1.9120 C   0  0  0  0  0  0  0  0  0  0  0  0
   -1.9970    9.1890   -0.5200 C   0  0  2  0  0  0  0  0  0  0  0  0
   -3.5080    9.4920   -0.4520 C   0  0  0  0  0  0  0  0  0  0  0  0
   -4.3830    8.2400   -0.3470 C   0  0  0  0  0  0  0  0  0  0  0  0
   -5.0740    7.9360   -1.6420 C   0  0  2  0  0  0  0  0  0  0  0  0
   -6.2920    8.6610   -1.8550 O   0  0  0  0  0  0  0  0  0  0  0  0
   -6.4160    7.2350   -1.7290 C   0  0  0  0  0  0  0  0  0  0  0  0
   -7.1480    6.7940   -0.5000 C   0  0  0  0  0  0  0  0  0  0  0  0
   -6.7830    6.5470   -3.0070 C   0  0  0  0  0  0  0  0  0  0  0  0
   -1.2000   10.4240   -0.1180 C   0  0  1  0  0  0  0  0  0  0  0  0
   -0.2410   10.1550    1.0720 C   0  0  0  0  0  0  0  0  0  0  0  0
    1.0250   11.0180    0.8310 C   0  0  0  0  0  0  0  0  0  0  0  0
    0.6210   11.9950   -0.2980 C   0  0  1  0  0  0  0  0  0  0  0  0
   -0.1710   13.1320    0.4200 C   0  0  0  0  0  0  0  0  0  0  0  0
    1.7890   12.5650   -1.1680 C   0  0  2  0  0  0  0  0  0  0  0  0
    2.8170   13.4160   -0.4040 C   0  0  0  0  0  0  0  0  0  0  0  0
    2.5190   14.8780   -0.3480 C   0  0  0  0  0  0  0  0  0  0  0  0
    1.6290   15.5250   -1.1240 C   0  0  0  0  0  0  0  0  0  0  0  0
    0.8820   14.7910   -2.2450 C   0  0  1  0  0  0  0  0  0  0  0  0
    0.9210   15.6460   -3.5390 C   0  0  0  0  0  0  0  0  0  0  0  0
    0.3990   17.0630   -3.3200 C   0  0  0  0  0  0  0  0  0  0  0  0
    1.2050   17.7800   -2.2400 C   0  0  2  0  0  0  0  0  0  0  0  0
    2.5380   17.9830   -2.7180 O   0  0  0  0  0  0  0  0  0  0  0  0
    1.2450   17.0070   -0.8920 C   0  0  0  0  0  0  0  0  0  0  0  0
   -0.1530   17.0480   -0.2260 C   0  0  0  0  0  0  0  0  0  0  0  0
    2.2040   17.7660    0.0650 C   0  0  0  0  0  0  0  0  0  0  0  0
    1.3160   13.2830   -2.4960 C   0  0  1  0  0  0  0  0  0  0  0  0
    2.5230   13.2340   -3.4830 C   0  0  0  0  0  0  0  0  0  0  0  0
    0.1340   12.5190   -3.2020 C   0  0  0  0  0  0  0  0  0  0  0  0
   -0.9230   11.8750   -2.2850 C   0  0  0  0  0  0  0  0  0  0  0  0
   -0.2600   11.0420   -1.1850 C   0  0  2  0  0  0  0  0  0  0  0  0
    0.5260    9.8760   -1.8760 C   0  0  0  0  0  0  0  0  0  0  0  0
   -0.8245    7.9107   -1.8125 H   0  0  0  0  0  0  0  0  0  0  0  0
   -2.4420    8.3455   -2.4616 H   0  0  0  0  0  0  0  0  0  0  0  0
   -1.1182    9.5596   -2.4616 H   0  0  0  0  0  0  0  0  0  0  0  0
   -1.7925    8.3692    0.1844 H   0  0  0  0  0  0  0  0  0  0  0  0
   -3.6964   10.1222    0.4297 H   0  0  0  0  0  0  0  0  0  0  0  0
   -3.7776    9.9945   -1.3927 H   0  0  0  0  0  0  0  0  0  0  0  0
   -3.7491    7.3842   -0.0718 H   0  0  0  0  0  0  0  0  0  0  0  0
   -5.1525    8.4227    0.4175 H   0  0  0  0  0  0  0  0  0  0  0  0
   -4.1108    7.7497   -2.1396 H   0  0  0  0  0  0  0  0  0  0  0  0
   -6.5980    7.1254    0.3931 H   0  0  0  0  0  0  0  0  0  0  0  0
   -8.1555    7.2356   -0.4950 H   0  0  0  0  0  0  0  0  0  0  0  0
   -7.2285    5.6970   -0.4950 H   0  0  0  0  0  0  0  0  0  0  0  0
   -7.2896    5.5974   -2.7798 H   0  0  0  0  0  0  0  0  0  0  0  0
   -7.4570    7.1918   -3.5901 H   0  0  0  0  0  0  0  0  0  0  0  0
   -5.8721    6.3463   -3.5901 H   0  0  0  0  0  0  0  0  0  0  0  0
   -2.0277   11.1148    0.1005 H   0  0  0  0  0  0  0  0  0  0  0  0
   -0.7216   10.4437    2.0184 H   0  0  0  0  0  0  0  0  0  0  0  0
    0.0158    9.0875    1.1385 H   0  0  0  0  0  0  0  0  0  0  0  0
    1.2985   11.5695    1.7426 H   0  0  0  0  0  0  0  0  0  0  0  0
    1.9006   10.4088    0.5624 H   0  0  0  0  0  0  0  0  0  0  0  0
   -0.0844   13.0076    1.5095 H   0  0  0  0  0  0  0  0  0  0  0  0
    0.2435   14.1082    0.1283 H   0  0  0  0  0  0  0  0  0  0  0  0
   -1.2304   13.0815    0.1283 H   0  0  0  0  0  0  0  0  0  0  0  0
    2.3243   11.6531   -1.4711 H   0  0  0  0  0  0  0  0  0  0  0  0
    2.8694   13.0400    0.6284 H   0  0  0  0  0  0  0  0  0  0  0  0
    3.7631   13.3192   -0.9567 H   0  0  0  0  0  0  0  0  0  0  0  0
    3.0733   15.4770    0.3895 H   0  0  0  0  0  0  0  0  0  0  0  0
   -0.1568   14.6843   -1.8993 H   0  0  0  0  0  0  0  0  0  0  0  0
    1.9612   15.7040   -3.8921 H   0  0  0  0  0  0  0  0  0  0  0  0
    0.2685   15.1606   -4.2797 H   0  0  0  0  0  0  0  0  0  0  0  0
    0.4786   17.6256   -4.2619 H   0  0  0  0  0  0  0  0  0  0  0  0
   -0.6502   17.0045   -2.9947 H   0  0  0  0  0  0  0  0  0  0  0  0
    0.7058   18.7390   -2.0373 H   0  0  0  0  0  0  0  0  0  0  0  0
    2.6440   17.4560   -3.5270 H   0  0  0  0  0  0  0  0  0  0  0  0
   -0.0382   17.0446    0.8680 H   0  0  0  0  0  0  0  0  0  0  0  0
   -0.6804   17.9620   -0.5365 H   0  0  0  0  0  0  0  0  0  0  0  0
   -0.7331   16.1665   -0.5365 H   0  0  0  0  0  0  0  0  0  0  0  0
    1.9293   17.5486    1.1077 H   0  0  0  0  0  0  0  0  0  0  0  0
    3.2384   17.4393   -0.1174 H   0  0  0  0  0  0  0  0  0  0  0  0
    2.1236   18.8478   -0.1174 H   0  0  0  0  0  0  0  0  0  0  0  0
    3.4623   13.1959   -2.9119 H   0  0  0  0  0  0  0  0  0  0  0  0
    2.4425   12.3384   -4.1166 H   0  0  0  0  0  0  0  0  0  0  0  0
    2.5153   14.1332   -4.1166 H   0  0  0  0  0  0  0  0  0  0  0  0
   -0.3844   13.2376   -3.8538 H   0  0  0  0  0  0  0  0  0  0  0  0
    0.6088   11.6780   -3.7286 H   0  0  0  0  0  0  0  0  0  0  0  0
   -1.5277   12.6680   -1.8208 H   0  0  0  0  0  0  0  0  0  0  0  0
   -1.5573   11.2126   -2.8923 H   0  0  0  0  0  0  0  0  0  0  0  0
    0.9656    9.2239   -1.1069 H   0  0  0  0  0  0  0  0  0  0  0  0
   -0.1626    9.2907   -2.5031 H   0  0  0  0  0  0  0  0  0  0  0  0
    1.3269   10.2948   -2.5031 H   0  0  0  0  0  0  0  0  0  0  0  0
  1  2  1  0
  2  3  1  0
  3  4  1  0
  4  5  1  0
  5  6  1  0
  6  7  1  0
  7  8  1  0
  7  9  1  0
  2 10  1  0
 10 11  1  0
 11 12  1  0
 12 13  1  0
 13 14  1  1
 13 15  1  0
 15 16  1  0
 16 17  1  0
 17 18  2  0
 18 19  1  0
 19 20  1  0
 20 21  1  0
 21 22  1  0
 22 23  1  0
 22 24  1  0
 24 25  1  0
 24 26  1  0
 19 27  1  0
 27 28  1  6
 27 29  1  0
 29 30  1  0
 30 31  1  0
 31 32  1  6
  7  5  1  0
 31 10  1  0
 31 13  1  0
 27 15  1  0
 24 18  1  0
  1 33  1  0
  1 34  1  0
  1 35  1  0
  2 36  1  1
  3 37  1  0
  3 38  1  0
  4 39  1  0
  4 40  1  0
  5 41  1  6
  8 42  1  0
  8 43  1  0
  8 44  1  0
  9 45  1  0
  9 46  1  0
  9 47  1  0
 10 48  1  1
 11 49  1  0
 11 50  1  0
 12 51  1  0
 12 52  1  0
 14 53  1  0
 14 54  1  0
 14 55  1  0
 15 56  1  6
 16 57  1  0
 16 58  1  0
 17 59  1  0
 19 60  1  1
 20 61  1  0
 20 62  1  0
 21 63  1  0
 21 64  1  0
 22 65  1  1
 23 66  1  0
 25 67  1  0
 25 68  1  0
 25 69  1  0
 26 70  1  0
 26 71  1  0
 26 72  1  0
 28 73  1  0
 28 74  1  0
 28 75  1  0
 29 76  1  0
 29 77  1  0
 30 78  1  0
 30 79  1  0
 32 80  1  0
 32 81  1  0
 32 82  1  0
M  END
>  <meeko>  (4) 
{"is_sidechain": [false], "intermolecular_energy": 2.731, "internal_energy": -0.839}

$$$$
EPH_relaxed_0001_pdb2pqr_Repair_153_r2_0001_out
     RDKit          3D

 82 86  0  0  0  0  0  0  0  0999 V2000
    2.2620   19.3520   -0.2150 C   0  0  0  0  0  0  0  0  0  0  0  0
    2.9270   17.9820   -0.3700 C   0  0  2  0  0  0  0  0  0  0  0  0
    3.8120   17.9050   -1.6300 C   0  0  0  0  0  0  0  0  0  0  0  0
    5.2400   17.4300   -1.3520 C   0  0  0  0  0  0  0  0  0  0  0  0
    6.1610   17.7450   -2.4910 C   0  0  2  0  0  0  0  0  0  0  0  0
    5.6060   17.5130   -3.7920 O   0  0  0  0  0  0  0  0  0  0  0  0
    6.7270   16.6920   -3.4260 C   0  0  0  0  0  0  0  0  0  0  0  0
    6.3930   15.2430   -3.2620 C   0  0  0  0  0  0  0  0  0  0  0  0
    7.9780   17.0070   -4.1850 C   0  0  0  0  0  0  0  0  0  0  0  0
    1.8640   16.8900   -0.4120 C   0  0  1  0  0  0  0  0  0  0  0  0
    0.4700   17.4290   -0.8310 C   0  0  0  0  0  0  0  0  0  0  0  0
   -0.2100   16.3120   -1.6630 C   0  0  0  0  0  0  0  0  0  0  0  0
    0.6620   15.0580   -1.4190 C   0  0  1  0  0  0  0  0  0  0  0  0
    0.1830   14.4990   -0.0420 C   0  0  0  0  0  0  0  0  0  0  0  0
    0.6230   13.9620   -2.5330 C   0  0  2  0  0  0  0  0  0  0  0  0
   -0.7540   13.3150   -2.7630 C   0  0  0  0  0  0  0  0  0  0  0  0
   -1.0310   12.0960   -1.9470 C   0  0  0  0  0  0  0  0  0  0  0  0
   -0.1100   11.3780   -1.2760 C   0  0  0  0  0  0  0  0  0  0  0  0
    1.3820   11.7180   -1.3800 C   0  0  1  0  0  0  0  0  0  0  0  0
    2.1940   10.4170   -1.6170 C   0  0  0  0  0  0  0  0  0  0  0  0
    1.9100    9.3500   -0.5640 C   0  0  0  0  0  0  0  0  0  0  0  0
    0.4250    8.9970   -0.5320 C   0  0  2  0  0  0  0  0  0  0  0  0
    0.0770    8.3550   -1.7620 O   0  0  0  0  0  0  0  0  0  0  0  0
   -0.4930   10.2310   -0.3080 C   0  0  0  0  0  0  0  0  0  0  0  0
   -0.3290   10.7460    1.1430 C   0  0  0  0  0  0  0  0  0  0  0  0
   -1.9660    9.7600   -0.4380 C   0  0  0  0  0  0  0  0  0  0  0  0
    1.7610   12.8700   -2.4070 C   0  0  1  0  0  0  0  0  0  0  0  0
    1.9600   12.2680   -3.8320 C   0  0  0  0  0  0  0  0  0  0  0  0
    3.1460   13.4930   -1.9920 C   0  0  0  0  0  0  0  0  0  0  0  0
    3.1090   14.6530   -0.9780 C   0  0  0  0  0  0  0  0  0  0  0  0
    2.0900   15.7160   -1.3970 C   0  0  2  0  0  0  0  0  0  0  0  0
    2.5570   16.3130   -2.7690 C   0  0  0  0  0  0  0  0  0  0  0  0
    2.1486   19.5857    0.8539 H   0  0  0  0  0  0  0  0  0  0  0  0
    2.8878   20.1196   -0.6938 H   0  0  0  0  0  0  0  0  0  0  0  0
    1.2718   19.3352   -0.6938 H   0  0  0  0  0  0  0  0  0  0  0  0
    3.5807   17.8311    0.5017 H   0  0  0  0  0  0  0  0  0  0  0  0
    3.3456   17.2057   -2.3395 H   0  0  0  0  0  0  0  0  0  0  0  0
    3.8860   18.9258   -2.0331 H   0  0  0  0  0  0  0  0  0  0  0  0
    5.6114   17.9292   -0.4449 H   0  0  0  0  0  0  0  0  0  0  0  0
    5.2184   16.3381   -1.2207 H   0  0  0  0  0  0  0  0  0  0  0  0
    6.6368   18.5513   -1.9135 H   0  0  0  0  0  0  0  0  0  0  0  0
    6.3367   14.9986   -2.1910 H   0  0  0  0  0  0  0  0  0  0  0  0
    5.4232   15.0342   -3.7372 H   0  0  0  0  0  0  0  0  0  0  0  0
    7.1736   14.6307   -3.7372 H   0  0  0  0  0  0  0  0  0  0  0  0
    8.7944   17.2126   -3.4771 H   0  0  0  0  0  0  0  0  0  0  0  0
    8.2488   16.1490   -4.8179 H   0  0  0  0  0  0  0  0  0  0  0  0
    7.8102   17.8909   -4.8179 H   0  0  0  0  0  0  0  0  0  0  0  0
    1.9289   16.5291    0.6251 H   0  0  0  0  0  0  0  0  0  0  0  0
   -0.1319   17.6565    0.0611 H   0  0  0  0  0  0  0  0  0  0  0  0
    0.5645   18.3554   -1.4165 H   0  0  0  0  0  0  0  0  0  0  0  0
   -1.2401   16.1421   -1.3165 H   0  0  0  0  0  0  0  0  0  0  0  0
   -0.2798   16.5704   -2.7299 H   0  0  0  0  0  0  0  0  0  0  0  0
    0.6656   15.0622    0.7703 H   0  0  0  0  0  0  0  0  0  0  0  0
   -0.9090   14.6049    0.0369 H   0  0  0  0  0  0  0  0  0  0  0  0
    0.4550   13.4361    0.0369 H   0  0  0  0  0  0  0  0  0  0  0  0
    0.8364   14.5419   -3.4431 H   0  0  0  0  0  0  0  0  0  0  0  0
   -1.5247   14.0637   -2.5277 H   0  0  0  0  0  0  0  0  0  0  0  0
   -0.7640   12.9867   -3.8128 H   0  0  0  0  0  0  0  0  0  0  0  0
   -2.0753   11.7555   -1.8888 H   0  0  0  0  0  0  0  0  0  0  0  0
    1.6611   12.1613   -0.4128 H   0  0  0  0  0  0  0  0  0  0  0  0
    1.9332   10.0139   -2.6067 H   0  0  0  0  0  0  0  0  0  0  0  0
    3.2618   10.6735   -1.5529 H   0  0  0  0  0  0  0  0  0  0  0  0
    2.4899    8.4461   -0.8019 H   0  0  0  0  0  0  0  0  0  0  0  0
    2.1987    9.7437    0.4217 H   0  0  0  0  0  0  0  0  0  0  0  0
    0.2636    8.3265    0.3250 H   0  0  0  0  0  0  0  0  0  0  0  0
    0.6210    8.7500   -2.4640 H   0  0  0  0  0  0  0  0  0  0  0  0
   -0.5851    9.9419    1.8486 H   0  0  0  0  0  0  0  0  0  0  0  0
    0.7131   11.0584    1.3056 H   0  0  0  0  0  0  0  0  0  0  0  0
   -0.9985   11.6035    1.3056 H   0  0  0  0  0  0  0  0  0  0  0  0
   -2.3968    9.6223    0.5647 H   0  0  0  0  0  0  0  0  0  0  0  0
   -2.5462   10.5174   -0.9854 H   0  0  0  0  0  0  0  0  0  0  0  0
   -1.9991    8.8065   -0.9854 H   0  0  0  0  0  0  0  0  0  0  0  0
    2.3042   11.2268   -3.7454 H   0  0  0  0  0  0  0  0  0  0  0  0
    1.0053   12.2944   -4.3778 H   0  0  0  0  0  0  0  0  0  0  0  0
    2.7108   12.8582   -4.3778 H   0  0  0  0  0  0  0  0  0  0  0  0
    3.7556   12.6883   -1.5553 H   0  0  0  0  0  0  0  0  0  0  0  0
    3.5538   13.9301   -2.9154 H   0  0  0  0  0  0  0  0  0  0  0  0
    2.8310   14.2581    0.0103 H   0  0  0  0  0  0  0  0  0  0  0  0
    4.1052   15.1180   -0.9411 H   0  0  0  0  0  0  0  0  0  0  0  0
    3.2256   17.1677   -2.5884 H   0  0  0  0  0  0  0  0  0  0  0  0
    3.0940   15.5418   -3.3407 H   0  0  0  0  0  0  0  0  0  0  0  0
    1.6792   16.6485   -3.3407 H   0  0  0  0  0  0  0  0  0  0  0  0
  1  2  1  0
  2  3  1  0
  3  4  1  0
  4  5  1  0
  5  6  1  0
  6  7  1  0
  7  8  1  0
  7  9  1  0
  2 10  1  0
 10 11  1  0
 11 12  1  0
 12 13  1  0
 13 14  1  1
 13 15  1  0
 15 16  1  0
 16 17  1  0
 17 18  2  0
 18 19  1  0
 19 20  1  0
 20 21  1  0
 21 22  1  0
 22 23  1  0
 22 24  1  0
 24 25  1  0
 24 26  1  0
 19 27  1  0
 27 28  1  6
 27 29  1  0
 29 30  1  0
 30 31  1  0
 31 32  1  6
  7  5  1  0
 31 10  1  0
 31 13  1  0
 27 15  1  0
 24 18  1  0
  1 33  1  0
  1 34  1  0
  1 35  1  0
  2 36  1  1
  3 37  1  0
  3 38  1  0
  4 39  1  0
  4 40  1  0
  5 41  1  6
  8 42  1  0
  8 43  1  0
  8 44  1  0
  9 45  1  0
  9 46  1  0
  9 47  1  0
 10 48  1  1
 11 49  1  0
 11 50  1  0
 12 51  1  0
 12 52  1  0
 14 53  1  0
 14 54  1  0
 14 55  1  0
 15 56  1  6
 16 57  1  0
 16 58  1  0
 17 59  1  0
 19 60  1  1
 20 61  1  0
 20 62  1  0
 21 63  1  0
 21 64  1  0
 22 65  1  1
 23 66  1  0
 25 67  1  0
 25 68  1  0
 25 69  1  0
 26 70  1  0
 26 71  1  0
 26 72  1  0
 28 73  1  0
 28 74  1  0
 28 75  1  0
 29 76  1  0
 29 77  1  0
 30 78  1  0
 30 79  1  0
 32 80  1  0
 32 81  1  0
 32 82  1  0
M  END
>  <meeko>  (5) 
{"is_sidechain": [false], "intermolecular_energy": 2.731, "internal_energy": -0.839}

$$$$
EPH_relaxed_0001_pdb2pqr_Repair_153_r2_0001_out
     RDKit          3D

 82 86  0  0  0  0  0  0  0  0999 V2000
    3.6640   18.0500   -1.3170 C   0  0  0  0  0  0  0  0  0  0  0  0
    2.6100   17.5880   -2.3270 C   0  0  2  0  0  0  0  0  0  0  0  0
    1.1930   18.0630   -1.9450 C   0  0  0  0  0  0  0  0  0  0  0  0
    1.1660   19.0180   -0.7480 C   0  0  0  0  0  0  0  0  0  0  0  0
   -0.1230   19.7790   -0.6770 C   0  0  2  0  0  0  0  0  0  0  0  0
   -0.5040   20.1890    0.6430 O   0  0  0  0  0  0  0  0  0  0  0  0
   -1.3740   19.2460   -0.0040 C   0  0  0  0  0  0  0  0  0  0  0  0
   -1.3970   17.8960    0.6430 C   0  0  0  0  0  0  0  0  0  0  0  0
   -2.6990   19.8200   -0.3980 C   0  0  0  0  0  0  0  0  0  0  0  0
    2.6360   16.0690   -2.4470 C   0  0  1  0  0  0  0  0  0  0  0  0
    4.0700   15.5100   -2.6480 C   0  0  0  0  0  0  0  0  0  0  0  0
    4.1270   14.1500   -1.9050 C   0  0  0  0  0  0  0  0  0  0  0  0
    2.6510   13.8160   -1.5890 C   0  0  1  0  0  0  0  0  0  0  0  0
    2.0840   13.2120   -2.9120 C   0  0  0  0  0  0  0  0  0  0  0  0
    2.4020   12.8680   -0.3700 C   0  0  2  0  0  0  0  0  0  0  0  0
    2.9940   11.4550   -0.5110 C   0  0  0  0  0  0  0  0  0  0  0  0
    2.0860   10.4420   -1.1250 C   0  0  0  0  0  0  0  0  0  0  0  0
    0.7560   10.5780   -1.2850 C   0  0  0  0  0  0  0  0  0  0  0  0
    0.0190   11.8080   -0.7380 C   0  0  1  0  0  0  0  0  0  0  0  0
   -1.2620   11.3530    0.0080 C   0  0  0  0  0  0  0  0  0  0  0  0
   -2.1600   10.4710   -0.8540 C   0  0  0  0  0  0  0  0  0  0  0  0
   -1.4090    9.2300   -1.3300 C   0  0  2  0  0  0  0  0  0  0  0  0
   -1.1160    8.4060   -0.1980 O   0  0  0  0  0  0  0  0  0  0  0  0
   -0.0940    9.5630   -2.0880 C   0  0  0  0  0  0  0  0  0  0  0  0
   -0.4300   10.1910   -3.4630 C   0  0  0  0  0  0  0  0  0  0  0  0
    0.6360    8.2260   -2.3890 C   0  0  0  0  0  0  0  0  0  0  0  0
    0.8980   12.8190    0.1170 C   0  0  1  0  0  0  0  0  0  0  0  0
    0.9270   12.3680    1.6090 C   0  0  0  0  0  0  0  0  0  0  0  0
    0.2150   14.2380    0.0950 C   0  0  0  0  0  0  0  0  0  0  0  0
    0.5920   15.1730   -1.0700 C   0  0  0  0  0  0  0  0  0  0  0  0
    2.1120   15.2510   -1.2400 C   0  0  2  0  0  0  0  0  0  0  0  0
    2.7090   15.8750    0.0670 C   0  0  0  0  0  0  0  0  0  0  0  0
    3.2898   17.8860   -0.2957 H   0  0  0  0  0  0  0  0  0  0  0  0
    4.5902   17.4754   -1.4649 H   0  0  0  0  0  0  0  0  0  0  0  0
    3.8691   19.1205   -1.4649 H   0  0  0  0  0  0  0  0  0  0  0  0
    2.8597   18.0414   -3.2976 H   0  0  0  0  0  0  0  0  0  0  0  0
    0.7545   18.5796   -2.8115 H   0  0  0  0  0  0  0  0  0  0  0  0
    0.6211   17.1689   -1.6561 H   0  0  0  0  0  0  0  0  0  0  0  0
    1.2873   18.4346    0.1766 H   0  0  0  0  0  0  0  0  0  0  0  0
    1.9860   19.7415   -0.8671 H   0  0  0  0  0  0  0  0  0  0  0  0
    0.0510   20.2125   -1.6729 H   0  0  0  0  0  0  0  0  0  0  0  0
   -1.3950   18.0135    1.7367 H   0  0  0  0  0  0  0  0  0  0  0  0
   -2.3045   17.3566    0.3338 H   0  0  0  0  0  0  0  0  0  0  0  0
   -0.5084   17.3260    0.3338 H   0  0  0  0  0  0  0  0  0  0  0  0
   -3.2741   20.0691    0.5060 H   0  0  0  0  0  0  0  0  0  0  0  0
   -2.5413   20.7305   -0.9948 H   0  0  0  0  0  0  0  0  0  0  0  0
   -3.2554   19.0822   -0.9948 H   0  0  0  0  0  0  0  0  0  0  0  0
    1.9637   15.9405   -3.3081 H   0  0  0  0  0  0  0  0  0  0  0  0
    4.2737   15.3654   -3.7193 H   0  0  0  0  0  0  0  0  0  0  0  0
    4.8248   16.2071   -2.2552 H   0  0  0  0  0  0  0  0  0  0  0  0
    4.5716   13.3752   -2.5469 H   0  0  0  0  0  0  0  0  0  0  0  0
    4.7477   14.1959   -0.9980 H   0  0  0  0  0  0  0  0  0  0  0  0
    1.3492   12.4293   -2.6724 H   0  0  0  0  0  0  0  0  0  0  0  0
    1.5968   14.0053   -3.4980 H   0  0  0  0  0  0  0  0  0  0  0  0
    2.9064   12.7758   -3.4980 H   0  0  0  0  0  0  0  0  0  0  0  0
    2.9796   13.3554    0.4293 H   0  0  0  0  0  0  0  0  0  0  0  0
    3.8967   11.5254   -1.1357 H   0  0  0  0  0  0  0  0  0  0  0  0
    3.1930   11.1048    0.5126 H   0  0  0  0  0  0  0  0  0  0  0  0
    2.5420    9.5048   -1.4766 H   0  0  0  0  0  0  0  0  0  0  0  0
   -0.2549   12.4144   -1.6139 H   0  0  0  0  0  0  0  0  0  0  0  0
   -0.9660   10.7864    0.9032 H   0  0  0  0  0  0  0  0  0  0  0  0
   -1.8336   12.2555    0.2702 H   0  0  0  0  0  0  0  0  0  0  0  0
   -3.0332   10.1588   -0.2624 H   0  0  0  0  0  0  0  0  0  0  0  0
   -2.4791   11.0481   -1.7344 H   0  0  0  0  0  0  0  0  0  0  0  0
   -2.0592    8.7054   -2.0455 H   0  0  0  0  0  0  0  0  0  0  0  0
   -0.4770    7.7300   -0.4830 H   0  0  0  0  0  0  0  0  0  0  0  0
   -0.9440   11.1517   -3.3116 H   0  0  0  0  0  0  0  0  0  0  0  0
    0.4996   10.3574   -4.0271 H   0  0  0  0  0  0  0  0  0  0  0  0
   -1.0843    9.5100   -4.0271 H   0  0  0  0  0  0  0  0  0  0  0  0
    0.9047    7.7338   -1.4427 H   0  0  0  0  0  0  0  0  0  0  0  0
   -0.0281    7.5681   -2.9688 H   0  0  0  0  0  0  0  0  0  0  0  0
    1.5485    8.4289   -2.9688 H   0  0  0  0  0  0  0  0  0  0  0  0
    0.8701   13.2524    2.2606 H   0  0  0  0  0  0  0  0  0  0  0  0
    0.0694   11.7090    1.8096 H   0  0  0  0  0  0  0  0  0  0  0  0
    1.8620   11.8243    1.8096 H   0  0  0  0  0  0  0  0  0  0  0  0
   -0.8734   14.0828    0.0582 H   0  0  0  0  0  0  0  0  0  0  0  0
    0.5781   14.7460    1.0006 H   0  0  0  0  0  0  0  0  0  0  0  0
    0.1452   14.7888   -1.9989 H   0  0  0  0  0  0  0  0  0  0  0  0
    0.2116   16.1810   -0.8481 H   0  0  0  0  0  0  0  0  0  0  0  0
    2.2506   15.3958    0.9446 H   0  0  0  0  0  0  0  0  0  0  0  0
    3.7968   15.7128    0.0871 H   0  0  0  0  0  0  0  0  0  0  0  0
    2.4988   16.9546    0.0871 H   0  0  0  0  0  0  0  0  0  0  0  0
  1  2  1  0
  2  3  1  0
  3  4  1  0
  4  5  1  0
  5  6  1  0
  6  7  1  0
  7  8  1  0
  7  9  1  0
  2 10  1  0
 10 11  1  0
 11 12  1  0
 12 13  1  0
 13 14  1  6
 13 15  1  0
 15 16  1  0
 16 17  1  0
 17 18  2  0
 18 19  1  0
 19 20  1  0
 20 21  1  0
 21 22  1  0
 22 23  1  0
 22 24  1  0
 24 25  1  0
 24 26  1  0
 19 27  1  0
 27 28  1  1
 27 29  1  0
 29 30  1  0
 30 31  1  0
 31 32  1  1
  7  5  1  0
 31 10  1  0
 31 13  1  0
 27 15  1  0
 24 18  1  0
  1 33  1  0
  1 34  1  0
  1 35  1  0
  2 36  1  6
  3 37  1  0
  3 38  1  0
  4 39  1  0
  4 40  1  0
  5 41  1  6
  8 42  1  0
  8 43  1  0
  8 44  1  0
  9 45  1  0
  9 46  1  0
  9 47  1  0
 10 48  1  6
 11 49  1  0
 11 50  1  0
 12 51  1  0
 12 52  1  0
 14 53  1  0
 14 54  1  0
 14 55  1  0
 15 56  1  1
 16 57  1  0
 16 58  1  0
 17 59  1  0
 19 60  1  6
 20 61  1  0
 20 62  1  0
 21 63  1  0
 21 64  1  0
 22 65  1  6
 23 66  1  0
 25 67  1  0
 25 68  1  0
 25 69  1  0
 26 70  1  0
 26 71  1  0
 26 72  1  0
 28 73  1  0
 28 74  1  0
 28 75  1  0
 29 76  1  0
 29 77  1  0
 30 78  1  0
 30 79  1  0
 32 80  1  0
 32 81  1  0
 32 82  1  0
M  END
>  <meeko>  (6) 
{"is_sidechain": [false], "intermolecular_energy": 2.731, "internal_energy": -0.839}

$$$$
EPH_relaxed_0001_pdb2pqr_Repair_153_r2_0001_out
     RDKit          3D

 82 86  0  0  0  0  0  0  0  0999 V2000
    0.6860   17.7940   -0.1490 C   0  0  0  0  0  0  0  0  0  0  0  0
    1.5330   17.0960   -1.2170 C   0  0  2  0  0  0  0  0  0  0  0  0
    1.8550   18.0270   -2.4030 C   0  0  0  0  0  0  0  0  0  0  0  0
    3.3530   18.2870   -2.5920 C   0  0  0  0  0  0  0  0  0  0  0  0
    4.1750   17.0980   -2.1970 C   0  0  2  0  0  0  0  0  0  0  0  0
    5.3050   17.4010   -1.3670 O   0  0  0  0  0  0  0  0  0  0  0  0
    5.5990   16.8710   -2.6700 C   0  0  0  0  0  0  0  0  0  0  0  0
    6.2820   17.8410   -3.5820 C   0  0  0  0  0  0  0  0  0  0  0  0
    6.1480   15.4780   -2.6450 C   0  0  0  0  0  0  0  0  0  0  0  0
    0.8130   15.8480   -1.7160 C   0  0  1  0  0  0  0  0  0  0  0  0
    0.3310   15.9830   -3.1850 C   0  0  0  0  0  0  0  0  0  0  0  0
    0.4640   14.5800   -3.8300 C   0  0  0  0  0  0  0  0  0  0  0  0
    0.6970   13.6230   -2.6380 C   0  0  1  0  0  0  0  0  0  0  0  0
   -0.7250   13.3580   -2.0520 C   0  0  0  0  0  0  0  0  0  0  0  0
    1.4470   12.2890   -2.9590 C   0  0  2  0  0  0  0  0  0  0  0  0
    0.7210   11.3530   -3.9420 C   0  0  0  0  0  0  0  0  0  0  0  0
   -0.1980   10.3580   -3.3140 C   0  0  0  0  0  0  0  0  0  0  0  0
   -0.2200   10.0280   -2.0100 C   0  0  0  0  0  0  0  0  0  0  0  0
    0.8110   10.6080   -1.0330 C   0  0  1  0  0  0  0  0  0  0  0  0
    1.3800    9.4710   -0.1440 C   0  0  0  0  0  0  0  0  0  0  0  0
    0.2850    8.6790    0.5650 C   0  0  0  0  0  0  0  0  0  0  0  0
   -0.6860    8.0690   -0.4430 C   0  0  2  0  0  0  0  0  0  0  0  0
    0.0050    7.0760   -1.2060 O   0  0  0  0  0  0  0  0  0  0  0  0
   -1.3160    9.1200   -1.4000 C   0  0  0  0  0  0  0  0  0  0  0  0
   -2.3050   10.0140   -0.6120 C   0  0  0  0  0  0  0  0  0  0  0  0
   -2.1640    8.3570   -2.4540 C   0  0  0  0  0  0  0  0  0  0  0  0
    1.9520   11.5050   -1.6800 C   0  0  1  0  0  0  0  0  0  0  0  0
    3.1350   10.6050   -2.1490 C   0  0  0  0  0  0  0  0  0  0  0  0
    2.5350   12.4680   -0.5800 C   0  0  0  0  0  0  0  0  0  0  0  0
    1.8230   13.8220   -0.3930 C   0  0  0  0  0  0  0  0  0  0  0  0
    1.6180   14.5240   -1.7380 C   0  0  2  0  0  0  0  0  0  0  0  0
    3.0330   14.8240   -2.3410 C   0  0  0  0  0  0  0  0  0  0  0  0
    1.0414   17.5012    0.8500 H   0  0  0  0  0  0  0  0  0  0  0  0
    0.7753   18.8842   -0.2649 H   0  0  0  0  0  0  0  0  0  0  0  0
   -0.3671   17.4980   -0.2649 H   0  0  0  0  0  0  0  0  0  0  0  0
    2.4882   16.8139   -0.7501 H   0  0  0  0  0  0  0  0  0  0  0  0
    1.4636   17.5667   -3.3222 H   0  0  0  0  0  0  0  0  0  0  0  0
    1.3847   18.9977   -2.1870 H   0  0  0  0  0  0  0  0  0  0  0  0
    3.5443   18.5171   -3.6505 H   0  0  0  0  0  0  0  0  0  0  0  0
    3.6389   19.1314   -1.9477 H   0  0  0  0  0  0  0  0  0  0  0  0
    3.2849   16.4516   -2.1995 H   0  0  0  0  0  0  0  0  0  0  0  0
    6.8133   18.5955   -2.9833 H   0  0  0  0  0  0  0  0  0  0  0  0
    7.0018   17.3032   -4.2166 H   0  0  0  0  0  0  0  0  0  0  0  0
    5.5330   18.3374   -4.2166 H   0  0  0  0  0  0  0  0  0  0  0  0
    6.2761   15.1530   -1.6019 H   0  0  0  0  0  0  0  0  0  0  0  0
    5.4500   14.7995   -3.1574 H   0  0  0  0  0  0  0  0  0  0  0  0
    7.1212   15.4582   -3.1574 H   0  0  0  0  0  0  0  0  0  0  0  0
    0.0088   15.7877   -0.9680 H   0  0  0  0  0  0  0  0  0  0  0  0
   -0.7178   16.3138   -3.2107 H   0  0  0  0  0  0  0  0  0  0  0  0
    0.9302   16.7269   -3.7305 H   0  0  0  0  0  0  0  0  0  0  0  0
   -0.4565   14.3117   -4.3692 H   0  0  0  0  0  0  0  0  0  0  0  0
    1.2798   14.5352   -4.5665 H   0  0  0  0  0  0  0  0  0  0  0  0
   -0.6763   13.3671   -0.9531 H   0  0  0  0  0  0  0  0  0  0  0  0
   -1.4150   14.1430   -2.3949 H   0  0  0  0  0  0  0  0  0  0  0  0
   -1.0860   12.3771   -2.3949 H   0  0  0  0  0  0  0  0  0  0  0  0
    2.3428   12.6436   -3.4899 H   0  0  0  0  0  0  0  0  0  0  0  0
    0.1296   11.9751   -4.6299 H   0  0  0  0  0  0  0  0  0  0  0  0
    1.5069   10.7682   -4.4423 H   0  0  0  0  0  0  0  0  0  0  0  0
   -0.9182    9.8518   -3.9735 H   0  0  0  0  0  0  0  0  0  0  0  0
    0.2646   11.3312   -0.4097 H   0  0  0  0  0  0  0  0  0  0  0  0
    1.9582    8.7831   -0.7785 H   0  0  0  0  0  0  0  0  0  0  0  0
    2.0102    9.9351    0.6290 H   0  0  0  0  0  0  0  0  0  0  0  0
    0.7473    7.8726    1.1532 H   0  0  0  0  0  0  0  0  0  0  0  0
   -0.2735    9.3621    1.2218 H   0  0  0  0  0  0  0  0  0  0  0  0
   -1.5166    7.6254    0.1257 H   0  0  0  0  0  0  0  0  0  0  0  0
   -0.6000    6.7660   -1.9020 H   0  0  0  0  0  0  0  0  0  0  0  0
   -2.1477    9.8718    0.4674 H   0  0  0  0  0  0  0  0  0  0  0  0
   -2.1326   11.0689   -0.8718 H   0  0  0  0  0  0  0  0  0  0  0  0
   -3.3372    9.7363   -0.8718 H   0  0  0  0  0  0  0  0  0  0  0  0
   -2.8874    7.7061   -1.9411 H   0  0  0  0  0  0  0  0  0  0  0  0
   -2.7033    9.0799   -3.0837 H   0  0  0  0  0  0  0  0  0  0  0  0
   -1.5019    7.7446   -3.0837 H   0  0  0  0  0  0  0  0  0  0  0  0
    3.6616   10.2043   -1.2703 H   0  0  0  0  0  0  0  0  0  0  0  0
    2.7453    9.7730   -2.7538 H   0  0  0  0  0  0  0  0  0  0  0  0
    3.8329   11.2026   -2.7538 H   0  0  0  0  0  0  0  0  0  0  0  0
    2.4964   11.9361    0.3821 H   0  0  0  0  0  0  0  0  0  0  0  0
    3.5477   12.7211   -0.9268 H   0  0  0  0  0  0  0  0  0  0  0  0
    0.8431   13.6514    0.0768 H   0  0  0  0  0  0  0  0  0  0  0  0
    2.4497   14.4626    0.2449 H   0  0  0  0  0  0  0  0  0  0  0  0
    3.7545   14.9770   -1.5248 H   0  0  0  0  0  0  0  0  0  0  0  0
    3.3552   13.9742   -2.9607 H   0  0  0  0  0  0  0  0  0  0  0  0
    2.9826   15.7314   -2.9607 H   0  0  0  0  0  0  0  0  0  0  0  0
  1  2  1  0
  2  3  1  0
  3  4  1  0
  4  5  1  0
  5  6  1  0
  6  7  1  0
  7  8  1  0
  7  9  1  0
  2 10  1  0
 10 11  1  0
 11 12  1  0
 12 13  1  0
 13 14  1  1
 13 15  1  0
 15 16  1  0
 16 17  1  0
 17 18  2  0
 18 19  1  0
 19 20  1  0
 20 21  1  0
 21 22  1  0
 22 23  1  0
 22 24  1  0
 24 25  1  0
 24 26  1  0
 19 27  1  0
 27 28  1  6
 27 29  1  0
 29 30  1  0
 30 31  1  0
 31 32  1  6
  7  5  1  0
 31 10  1  0
 31 13  1  0
 27 15  1  0
 24 18  1  0
  1 33  1  0
  1 34  1  0
  1 35  1  0
  2 36  1  1
  3 37  1  0
  3 38  1  0
  4 39  1  0
  4 40  1  0
  5 41  1  1
  8 42  1  0
  8 43  1  0
  8 44  1  0
  9 45  1  0
  9 46  1  0
  9 47  1  0
 10 48  1  1
 11 49  1  0
 11 50  1  0
 12 51  1  0
 12 52  1  0
 14 53  1  0
 14 54  1  0
 14 55  1  0
 15 56  1  6
 16 57  1  0
 16 58  1  0
 17 59  1  0
 19 60  1  1
 20 61  1  0
 20 62  1  0
 21 63  1  0
 21 64  1  0
 22 65  1  1
 23 66  1  0
 25 67  1  0
 25 68  1  0
 25 69  1  0
 26 70  1  0
 26 71  1  0
 26 72  1  0
 28 73  1  0
 28 74  1  0
 28 75  1  0
 29 76  1  0
 29 77  1  0
 30 78  1  0
 30 79  1  0
 32 80  1  0
 32 81  1  0
 32 82  1  0
M  END
>  <meeko>  (7) 
{"is_sidechain": [false], "intermolecular_energy": 2.731, "internal_energy": -0.839}

$$$$
EPH_relaxed_0001_pdb2pqr_Repair_153_r2_0001_out
     RDKit          3D

 82 86  0  0  0  0  0  0  0  0999 V2000
   -2.2220    7.4820   -3.1160 C   0  0  0  0  0  0  0  0  0  0  0  0
   -2.7570    7.8270   -1.7240 C   0  0  2  0  0  0  0  0  0  0  0  0
   -4.2980    7.8180   -1.6760 C   0  0  0  0  0  0  0  0  0  0  0  0
   -4.9220    6.5090   -2.1670 C   0  0  0  0  0  0  0  0  0  0  0  0
   -6.1340    6.7560   -3.0140 C   0  0  2  0  0  0  0  0  0  0  0  0
   -6.8700    7.9390   -2.6760 O   0  0  0  0  0  0  0  0  0  0  0  0
   -7.5540    6.6900   -2.4820 C   0  0  0  0  0  0  0  0  0  0  0  0
   -7.8360    6.3670   -1.0490 C   0  0  0  0  0  0  0  0  0  0  0  0
   -8.6700    6.4580   -3.4520 C   0  0  0  0  0  0  0  0  0  0  0  0
   -2.2300    9.1890   -1.2870 C   0  0  1  0  0  0  0  0  0  0  0  0
   -2.8180    9.6480    0.0740 C   0  0  0  0  0  0  0  0  0  0  0  0
   -1.6970   10.4330    0.8030 C   0  0  0  0  0  0  0  0  0  0  0  0
   -0.6260   10.6840   -0.2840 C   0  0  1  0  0  0  0  0  0  0  0  0
   -1.1470   11.9210   -1.0820 C   0  0  0  0  0  0  0  0  0  0  0  0
    0.8370   10.8990    0.2230 C   0  0  2  0  0  0  0  0  0  0  0  0
    1.0420   12.1320    1.1200 C   0  0  0  0  0  0  0  0  0  0  0  0
    1.4060   13.3900    0.4020 C   0  0  0  0  0  0  0  0  0  0  0  0
    1.8390   13.4660   -0.8700 C   0  0  0  0  0  0  0  0  0  0  0  0
    2.0950   12.1970   -1.6930 C   0  0  1  0  0  0  0  0  0  0  0  0
    3.4620   12.3160   -2.4160 C   0  0  0  0  0  0  0  0  0  0  0  0
    3.5720   13.5870   -3.2540 C   0  0  0  0  0  0  0  0  0  0  0  0
    3.3690   14.8290   -2.3900 C   0  0  2  0  0  0  0  0  0  0  0  0
    4.4630   14.9370   -1.4730 O   0  0  0  0  0  0  0  0  0  0  0  0
    2.0280   14.8170   -1.6050 C   0  0  0  0  0  0  0  0  0  0  0  0
    0.8470   15.0040   -2.5880 C   0  0  0  0  0  0  0  0  0  0  0  0
    2.0120   16.0540   -0.6670 C   0  0  0  0  0  0  0  0  0  0  0  0
    1.9350   10.8220   -0.9130 C   0  0  1  0  0  0  0  0  0  0  0  0
    3.2770   10.4490   -0.2110 C   0  0  0  0  0  0  0  0  0  0  0  0
    1.6430    9.6740   -1.9500 C   0  0  0  0  0  0  0  0  0  0  0  0
    0.1670    9.4310   -2.3210 C   0  0  0  0  0  0  0  0  0  0  0  0
   -0.7030    9.3220   -1.0650 C   0  0  2  0  0  0  0  0  0  0  0  0
   -0.2170    8.0730   -0.2540 C   0  0  0  0  0  0  0  0  0  0  0  0
   -1.3012    6.8882   -3.0181 H   0  0  0  0  0  0  0  0  0  0  0  0
   -2.9769    6.9001   -3.6651 H   0  0  0  0  0  0  0  0  0  0  0  0
   -2.0034    8.4097   -3.6651 H   0  0  0  0  0  0  0  0  0  0  0  0
   -2.4005    7.0510   -1.0307 H   0  0  0  0  0  0  0  0  0  0  0  0
   -4.6139    7.9844   -0.6356 H   0  0  0  0  0  0  0  0  0  0  0  0
   -4.6451    8.6129   -2.3525 H   0  0  0  0  0  0  0  0  0  0  0  0
   -4.1771    5.9601   -2.7619 H   0  0  0  0  0  0  0  0  0  0  0  0
   -5.2315    5.9255   -1.2874 H   0  0  0  0  0  0  0  0  0  0  0  0
   -5.6497    6.2895   -3.8846 H   0  0  0  0  0  0  0  0  0  0  0  0
   -7.2517    7.0363   -0.4004 H   0  0  0  0  0  0  0  0  0  0  0  0
   -8.9084    6.5043   -0.8464 H   0  0  0  0  0  0  0  0  0  0  0  0
   -7.5553    5.3229   -0.8464 H   0  0  0  0  0  0  0  0  0  0  0  0
   -9.6014    6.2644   -2.8998 H   0  0  0  0  0  0  0  0  0  0  0  0
   -8.7972    7.3489   -4.0845 H   0  0  0  0  0  0  0  0  0  0  0  0
   -8.4316    5.5902   -4.0845 H   0  0  0  0  0  0  0  0  0  0  0  0
   -2.5385    9.7932   -2.1529 H   0  0  0  0  0  0  0  0  0  0  0  0
   -3.6904   10.2976   -0.0899 H   0  0  0  0  0  0  0  0  0  0  0  0
   -3.1500    8.7864    0.6718 H   0  0  0  0  0  0  0  0  0  0  0  0
   -2.0823   11.3855    1.1957 H   0  0  0  0  0  0  0  0  0  0  0  0
   -1.2946    9.8813    1.6654 H   0  0  0  0  0  0  0  0  0  0  0  0
   -1.4751   12.6999   -0.3779 H   0  0  0  0  0  0  0  0  0  0  0  0
   -0.3388   12.3159   -1.7151 H   0  0  0  0  0  0  0  0  0  0  0  0
   -1.9942   11.6186   -1.7151 H   0  0  0  0  0  0  0  0  0  0  0  0
    0.9909   10.0263    0.8747 H   0  0  0  0  0  0  0  0  0  0  0  0
    0.1059   12.3125    1.6687 H   0  0  0  0  0  0  0  0  0  0  0  0
    1.8961   11.8956    1.7716 H   0  0  0  0  0  0  0  0  0  0  0  0
    1.3123   14.3336    0.9596 H   0  0  0  0  0  0  0  0  0  0  0  0
    1.2841   12.1460   -2.4345 H   0  0  0  0  0  0  0  0  0  0  0  0
    4.2613   12.3216   -1.6603 H   0  0  0  0  0  0  0  0  0  0  0  0
    3.5552   11.4576   -3.0975 H   0  0  0  0  0  0  0  0  0  0  0  0
    4.5696   13.6287   -3.7157 H   0  0  0  0  0  0  0  0  0  0  0  0
    2.7907   13.5661   -4.0280 H   0  0  0  0  0  0  0  0  0  0  0  0
    3.3292   15.6969   -3.0646 H   0  0  0  0  0  0  0  0  0  0  0  0
    5.1480   15.4810   -1.8960 H   0  0  0  0  0  0  0  0  0  0  0  0
   -0.0833   15.1513   -2.0197 H   0  0  0  0  0  0  0  0  0  0  0  0
    1.0330   15.8839   -3.2214 H   0  0  0  0  0  0  0  0  0  0  0  0
    0.7520   14.1097   -3.2214 H   0  0  0  0  0  0  0  0  0  0  0  0
    2.0163   15.7196    0.3809 H   0  0  0  0  0  0  0  0  0  0  0  0
    2.9022   16.6710   -0.8587 H   0  0  0  0  0  0  0  0  0  0  0  0
    1.1061   16.6478   -0.8587 H   0  0  0  0  0  0  0  0  0  0  0  0
    3.1428   10.4863    0.8801 H   0  0  0  0  0  0  0  0  0  0  0  0
    3.5768    9.4335   -0.5090 H   0  0  0  0  0  0  0  0  0  0  0  0
    4.0578   11.1642   -0.5090 H   0  0  0  0  0  0  0  0  0  0  0  0
    2.1832    9.9175   -2.8767 H   0  0  0  0  0  0  0  0  0  0  0  0
    1.9712    8.7484   -1.4544 H   0  0  0  0  0  0  0  0  0  0  0  0
   -0.1922   10.2693   -2.9360 H   0  0  0  0  0  0  0  0  0  0  0  0
    0.0967    8.4860   -2.8796 H   0  0  0  0  0  0  0  0  0  0  0  0
   -0.2979    8.2810    0.8231 H   0  0  0  0  0  0  0  0  0  0  0  0
   -0.8429    7.2048   -0.5078 H   0  0  0  0  0  0  0  0  0  0  0  0
    0.8311    7.8562   -0.5078 H   0  0  0  0  0  0  0  0  0  0  0  0
  1  2  1  0
  2  3  1  0
  3  4  1  0
  4  5  1  0
  5  6  1  0
  6  7  1  0
  7  8  1  0
  7  9  1  0
  2 10  1  0
 10 11  1  0
 11 12  1  0
 12 13  1  0
 13 14  1  6
 13 15  1  0
 15 16  1  0
 16 17  1  0
 17 18  2  0
 18 19  1  0
 19 20  1  0
 20 21  1  0
 21 22  1  0
 22 23  1  0
 22 24  1  0
 24 25  1  0
 24 26  1  0
 19 27  1  0
 27 28  1  1
 27 29  1  0
 29 30  1  0
 30 31  1  0
 31 32  1  1
  7  5  1  0
 31 10  1  0
 31 13  1  0
 27 15  1  0
 24 18  1  0
  1 33  1  0
  1 34  1  0
  1 35  1  0
  2 36  1  1
  3 37  1  0
  3 38  1  0
  4 39  1  0
  4 40  1  0
  5 41  1  6
  8 42  1  0
  8 43  1  0
  8 44  1  0
  9 45  1  0
  9 46  1  0
  9 47  1  0
 10 48  1  6
 11 49  1  0
 11 50  1  0
 12 51  1  0
 12 52  1  0
 14 53  1  0
 14 54  1  0
 14 55  1  0
 15 56  1  1
 16 57  1  0
 16 58  1  0
 17 59  1  0
 19 60  1  6
 20 61  1  0
 20 62  1  0
 21 63  1  0
 21 64  1  0
 22 65  1  6
 23 66  1  0
 25 67  1  0
 25 68  1  0
 25 69  1  0
 26 70  1  0
 26 71  1  0
 26 72  1  0
 28 73  1  0
 28 74  1  0
 28 75  1  0
 29 76  1  0
 29 77  1  0
 30 78  1  0
 30 79  1  0
 32 80  1  0
 32 81  1  0
 32 82  1  0
M  END
>  <meeko>  (8) 
{"is_sidechain": [false], "intermolecular_energy": 2.731, "internal_energy": -0.839}

$$$$
EPH_relaxed_0001_pdb2pqr_Repair_153_r2_0001_out
     RDKit          3D

 82 86  0  0  0  0  0  0  0  0999 V2000
    2.6650   18.2330   -3.2210 C   0  0  0  0  0  0  0  0  0  0  0  0
    2.4960   17.5060   -1.8840 C   0  0  2  0  0  0  0  0  0  0  0  0
    3.5770   17.9120   -0.8620 C   0  0  0  0  0  0  0  0  0  0  0  0
    3.2170   19.1560   -0.0460 C   0  0  0  0  0  0  0  0  0  0  0  0
    3.2710   18.8870    1.4280 C   0  0  2  0  0  0  0  0  0  0  0  0
    3.1120   20.0480    2.2540 O   0  0  0  0  0  0  0  0  0  0  0  0
    4.3860   19.3870    2.3280 C   0  0  0  0  0  0  0  0  0  0  0  0
    5.5230   20.1940    1.7880 C   0  0  0  0  0  0  0  0  0  0  0  0
    4.6240   18.6830    3.6280 C   0  0  0  0  0  0  0  0  0  0  0  0
    2.5270   15.9980   -2.1050 C   0  0  1  0  0  0  0  0  0  0  0  0
    3.9580   15.4640   -2.3800 C   0  0  0  0  0  0  0  0  0  0  0  0
    4.0440   14.0590   -1.7300 C   0  0  0  0  0  0  0  0  0  0  0  0
    2.5780   13.6940   -1.3970 C   0  0  1  0  0  0  0  0  0  0  0  0
    1.9780   13.1740   -2.7410 C   0  0  0  0  0  0  0  0  0  0  0  0
    2.3690   12.6670   -0.2360 C   0  0  2  0  0  0  0  0  0  0  0  0
    2.9640   11.2700   -0.4860 C   0  0  0  0  0  0  0  0  0  0  0  0
    2.0450   10.2930   -1.1400 C   0  0  0  0  0  0  0  0  0  0  0  0
    0.7110   10.4300   -1.2550 C   0  0  0  0  0  0  0  0  0  0  0  0
   -0.0180   11.6150   -0.6090 C   0  0  1  0  0  0  0  0  0  0  0  0
   -1.2760   11.1040    0.1410 C   0  0  0  0  0  0  0  0  0  0  0  0
   -2.1920   10.2730   -0.7530 C   0  0  0  0  0  0  0  0  0  0  0  0
   -1.4470    9.0710   -1.3290 C   0  0  2  0  0  0  0  0  0  0  0  0
   -1.1190    8.1770   -0.2620 O   0  0  0  0  0  0  0  0  0  0  0  0
   -0.1550    9.4630   -2.0990 C   0  0  0  0  0  0  0  0  0  0  0  0
   -0.5330   10.1770   -3.4210 C   0  0  0  0  0  0  0  0  0  0  0  0
    0.5730    8.1540   -2.5070 C   0  0  0  0  0  0  0  0  0  0  0  0
    0.8780   12.5750    0.2870 C   0  0  1  0  0  0  0  0  0  0  0  0
    0.9510   12.0270    1.7450 C   0  0  0  0  0  0  0  0  0  0  0  0
    0.1880   13.9870    0.3770 C   0  0  0  0  0  0  0  0  0  0  0  0
    0.5270   14.9990   -0.7340 C   0  0  0  0  0  0  0  0  0  0  0  0
    2.0420   15.0990   -0.9400 C   0  0  2  0  0  0  0  0  0  0  0  0
    2.6700   15.6410    0.3890 C   0  0  0  0  0  0  0  0  0  0  0  0
    2.9105   19.2891   -3.0356 H   0  0  0  0  0  0  0  0  0  0  0  0
    3.4778   17.7627   -3.7939 H   0  0  0  0  0  0  0  0  0  0  0  0
    1.7281   18.1694   -3.7939 H   0  0  0  0  0  0  0  0  0  0  0  0
    1.5213   17.8003   -1.4676 H   0  0  0  0  0  0  0  0  0  0  0  0
    3.7301   17.0733   -0.1670 H   0  0  0  0  0  0  0  0  0  0  0  0
    4.4847   18.1547   -1.4339 H   0  0  0  0  0  0  0  0  0  0  0  0
    3.9284   19.9593   -0.2881 H   0  0  0  0  0  0  0  0  0  0  0  0
    2.1886   19.4493   -0.3036 H   0  0  0  0  0  0  0  0  0  0  0  0
    2.8268   17.8905    1.2874 H   0  0  0  0  0  0  0  0  0  0  0  0
    6.1073   20.6087    2.6227 H   0  0  0  0  0  0  0  0  0  0  0  0
    6.1689   19.5511    1.1720 H   0  0  0  0  0  0  0  0  0  0  0  0
    5.1293   21.0159    1.1720 H   0  0  0  0  0  0  0  0  0  0  0  0
    4.3939   19.3636    4.4610 H   0  0  0  0  0  0  0  0  0  0  0  0
    3.9756   17.7965    3.6890 H   0  0  0  0  0  0  0  0  0  0  0  0
    5.6773   18.3718    3.6890 H   0  0  0  0  0  0  0  0  0  0  0  0
    1.8322   15.9214   -2.9544 H   0  0  0  0  0  0  0  0  0  0  0  0
    4.1335   15.3914   -3.4635 H   0  0  0  0  0  0  0  0  0  0  0  0
    4.7187   16.1397   -1.9620 H   0  0  0  0  0  0  0  0  0  0  0  0
    4.4754   13.3314   -2.4331 H   0  0  0  0  0  0  0  0  0  0  0  0
    4.6893   14.0497   -0.8392 H   0  0  0  0  0  0  0  0  0  0  0  0
    1.1623   12.4671   -2.5292 H   0  0  0  0  0  0  0  0  0  0  0  0
    1.5862   14.0230   -3.3204 H   0  0  0  0  0  0  0  0  0  0  0  0
    2.7627   12.6655   -3.3204 H   0  0  0  0  0  0  0  0  0  0  0  0
    2.9663   13.1050    0.5773 H   0  0  0  0  0  0  0  0  0  0  0  0
    3.8486   11.3875   -1.1292 H   0  0  0  0  0  0  0  0  0  0  0  0
    3.1928   10.8548    0.5066 H   0  0  0  0  0  0  0  0  0  0  0  0
    2.4961    9.3838   -1.5641 H   0  0  0  0  0  0  0  0  0  0  0  0
   -0.3194   12.2737   -1.4368 H   0  0  0  0  0  0  0  0  0  0  0  0
   -0.9529   10.4829    0.9894 H   0  0  0  0  0  0  0  0  0  0  0  0
   -1.8450   11.9834    0.4771 H   0  0  0  0  0  0  0  0  0  0  0  0
   -3.0472    9.9164   -0.1601 H   0  0  0  0  0  0  0  0  0  0  0  0
   -2.5378   10.9039   -1.5851 H   0  0  0  0  0  0  0  0  0  0  0  0
   -2.1133    8.5890   -2.0595 H   0  0  0  0  0  0  0  0  0  0  0  0
   -1.1760    7.2710   -0.6090 H   0  0  0  0  0  0  0  0  0  0  0  0
   -1.0365   11.1281   -3.1931 H   0  0  0  0  0  0  0  0  0  0  0  0
    0.3783   10.3752   -4.0043 H   0  0  0  0  0  0  0  0  0  0  0  0
   -1.2092    9.5347   -4.0043 H   0  0  0  0  0  0  0  0  0  0  0  0
    0.8774    7.6066   -1.6027 H   0  0  0  0  0  0  0  0  0  0  0  0
   -0.1062    7.5274   -3.1037 H   0  0  0  0  0  0  0  0  0  0  0  0
    1.4636    8.4005   -3.1037 H   0  0  0  0  0  0  0  0  0  0  0  0
    0.8401   12.8594    2.4555 H   0  0  0  0  0  0  0  0  0  0  0  0
    0.1419   11.2989    1.9040 H   0  0  0  0  0  0  0  0  0  0  0  0
    1.9225   11.5361    1.9040 H   0  0  0  0  0  0  0  0  0  0  0  0
   -0.9002   13.8271    0.3604 H   0  0  0  0  0  0  0  0  0  0  0  0
    0.5743   14.4371    1.3034 H   0  0  0  0  0  0  0  0  0  0  0  0
    0.0567   14.6732   -1.6735 H   0  0  0  0  0  0  0  0  0  0  0  0
    0.1472   15.9875   -0.4363 H   0  0  0  0  0  0  0  0  0  0  0  0
    2.1510   15.1930    1.2492 H   0  0  0  0  0  0  0  0  0  0  0  0
    3.7368   15.3753    0.4255 H   0  0  0  0  0  0  0  0  0  0  0  0
    2.5632   16.7352    0.4255 H   0  0  0  0  0  0  0  0  0  0  0  0
  1  2  1  0
  2  3  1  0
  3  4  1  0
  4  5  1  0
  5  6  1  0
  6  7  1  0
  7  8  1  0
  7  9  1  0
  2 10  1  0
 10 11  1  0
 11 12  1  0
 12 13  1  0
 13 14  1  6
 13 15  1  0
 15 16  1  0
 16 17  1  0
 17 18  2  0
 18 19  1  0
 19 20  1  0
 20 21  1  0
 21 22  1  0
 22 23  1  0
 22 24  1  0
 24 25  1  0
 24 26  1  0
 19 27  1  0
 27 28  1  1
 27 29  1  0
 29 30  1  0
 30 31  1  0
 31 32  1  1
  7  5  1  0
 31 10  1  0
 31 13  1  0
 27 15  1  0
 24 18  1  0
  1 33  1  0
  1 34  1  0
  1 35  1  0
  2 36  1  1
  3 37  1  0
  3 38  1  0
  4 39  1  0
  4 40  1  0
  5 41  1  1
  8 42  1  0
  8 43  1  0
  8 44  1  0
  9 45  1  0
  9 46  1  0
  9 47  1  0
 10 48  1  6
 11 49  1  0
 11 50  1  0
 12 51  1  0
 12 52  1  0
 14 53  1  0
 14 54  1  0
 14 55  1  0
 15 56  1  1
 16 57  1  0
 16 58  1  0
 17 59  1  0
 19 60  1  6
 20 61  1  0
 20 62  1  0
 21 63  1  0
 21 64  1  0
 22 65  1  6
 23 66  1  0
 25 67  1  0
 25 68  1  0
 25 69  1  0
 26 70  1  0
 26 71  1  0
 26 72  1  0
 28 73  1  0
 28 74  1  0
 28 75  1  0
 29 76  1  0
 29 77  1  0
 30 78  1  0
 30 79  1  0
 32 80  1  0
 32 81  1  0
 32 82  1  0
M  END
>  <meeko>  (9) 
{"is_sidechain": [false], "intermolecular_energy": 2.731, "internal_energy": -0.839}

$$$$
EPH_relaxed_0001_pdb2pqr_Repair_153_r2_0001_out
     RDKit          3D

 82 86  0  0  0  0  0  0  0  0999 V2000
    0.9120    8.7220   -0.2450 C   0  0  0  0  0  0  0  0  0  0  0  0
   -0.1370    9.4710   -1.0730 C   0  0  2  0  0  0  0  0  0  0  0  0
   -0.8200    8.5560   -2.1090 C   0  0  0  0  0  0  0  0  0  0  0  0
   -2.3330    8.4260   -1.9120 C   0  0  0  0  0  0  0  0  0  0  0  0
   -2.8850    7.2310   -2.6280 C   0  0  2  0  0  0  0  0  0  0  0  0
   -3.9370    7.5230   -3.5570 O   0  0  0  0  0  0  0  0  0  0  0  0
   -4.2970    6.7130   -2.4270 C   0  0  0  0  0  0  0  0  0  0  0  0
   -5.2440    7.3780   -1.4780 C   0  0  0  0  0  0  0  0  0  0  0  0
   -4.5930    5.2880   -2.7760 C   0  0  0  0  0  0  0  0  0  0  0  0
    0.5070   10.6610   -1.7740 C   0  0  1  0  0  0  0  0  0  0  0  0
    0.1520   10.7290   -3.2830 C   0  0  0  0  0  0  0  0  0  0  0  0
    0.0470   12.2320   -3.6510 C   0  0  0  0  0  0  0  0  0  0  0  0
    0.6640   12.9730   -2.4410 C   0  0  1  0  0  0  0  0  0  0  0  0
    2.2060   12.8960   -2.6680 C   0  0  0  0  0  0  0  0  0  0  0  0
    0.1860   14.4450   -2.2160 C   0  0  2  0  0  0  0  0  0  0  0  0
    0.5230   15.4220   -3.3550 C   0  0  0  0  0  0  0  0  0  0  0  0
    1.8340   16.1250   -3.2260 C   0  0  0  0  0  0  0  0  0  0  0  0
    2.5760   16.1970   -2.1050 C   0  0  0  0  0  0  0  0  0  0  0  0
    2.0620   15.6130   -0.7820 C   0  0  1  0  0  0  0  0  0  0  0  0
    2.2900   16.6390    0.3590 C   0  0  0  0  0  0  0  0  0  0  0  0
    3.7410   17.1020    0.4500 C   0  0  0  0  0  0  0  0  0  0  0  0
    4.1960   17.7290   -0.8660 C   0  0  2  0  0  0  0  0  0  0  0  0
    3.4690   18.9440   -1.0730 O   0  0  0  0  0  0  0  0  0  0  0  0
    4.0060   16.7900   -2.0900 C   0  0  0  0  0  0  0  0  0  0  0  0
    5.0170   15.6200   -2.0110 C   0  0  0  0  0  0  0  0  0  0  0  0
    4.3700   17.5930   -3.3680 C   0  0  0  0  0  0  0  0  0  0  0  0
    0.5790   15.0440   -0.8050 C   0  0  1  0  0  0  0  0  0  0  0  0
   -0.4360   16.1920   -0.5110 C   0  0  0  0  0  0  0  0  0  0  0  0
    0.4120   13.9960    0.3580 C   0  0  0  0  0  0  0  0  0  0  0  0
    0.7880   12.5370    0.0370 C   0  0  0  0  0  0  0  0  0  0  0  0
    0.1290   12.0750   -1.2670 C   0  0  2  0  0  0  0  0  0  0  0  0
   -1.4230   12.1210   -1.0610 C   0  0  0  0  0  0  0  0  0  0  0  0
    0.7069    8.8685    0.8257 H   0  0  0  0  0  0  0  0  0  0  0  0
    0.8693    7.6489   -0.4831 H   0  0  0  0  0  0  0  0  0  0  0  0
    1.9131    9.1108   -0.4831 H   0  0  0  0  0  0  0  0  0  0  0  0
   -0.9151    9.8241   -0.3802 H   0  0  0  0  0  0  0  0  0  0  0  0
   -0.6344    8.9678   -3.1120 H   0  0  0  0  0  0  0  0  0  0  0  0
   -0.3916    7.5508   -1.9824 H   0  0  0  0  0  0  0  0  0  0  0  0
   -2.5452    8.3270   -0.8372 H   0  0  0  0  0  0  0  0  0  0  0  0
   -2.8112    9.3254   -2.3273 H   0  0  0  0  0  0  0  0  0  0  0  0
   -1.9051    6.7321   -2.5994 H   0  0  0  0  0  0  0  0  0  0  0  0
   -4.9378    7.1630   -0.4436 H   0  0  0  0  0  0  0  0  0  0  0  0
   -5.2290    8.4649   -1.6464 H   0  0  0  0  0  0  0  0  0  0  0  0
   -6.2613    6.9949   -1.6464 H   0  0  0  0  0  0  0  0  0  0  0  0
   -4.7147    4.7021   -1.8530 H   0  0  0  0  0  0  0  0  0  0  0  0
   -5.5203    5.2399   -3.3658 H   0  0  0  0  0  0  0  0  0  0  0  0
   -3.7616    4.8746   -3.3658 H   0  0  0  0  0  0  0  0  0  0  0  0
    1.5648   10.4533   -1.5552 H   0  0  0  0  0  0  0  0  0  0  0  0
    0.9406   10.2472   -3.8797 H   0  0  0  0  0  0  0  0  0  0  0  0
   -0.7926   10.2048   -3.4904 H   0  0  0  0  0  0  0  0  0  0  0  0
    0.6136   12.4478   -4.5688 H   0  0  0  0  0  0  0  0  0  0  0  0
   -0.9900   12.5426   -3.8464 H   0  0  0  0  0  0  0  0  0  0  0  0
    2.7190   12.8704   -1.6953 H   0  0  0  0  0  0  0  0  0  0  0  0
    2.4482   11.9846   -3.2344 H   0  0  0  0  0  0  0  0  0  0  0  0
    2.5378   13.7787   -3.2344 H   0  0  0  0  0  0  0  0  0  0  0  0
   -0.9091   14.3422   -2.2262 H   0  0  0  0  0  0  0  0  0  0  0  0
    0.5329   14.8548   -4.2974 H   0  0  0  0  0  0  0  0  0  0  0  0
   -0.2474   16.2065   -3.3206 H   0  0  0  0  0  0  0  0  0  0  0  0
    2.2267   16.6265   -4.1228 H   0  0  0  0  0  0  0  0  0  0  0  0
    2.6595   14.7085   -0.5955 H   0  0  0  0  0  0  0  0  0  0  0  0
    1.6511   17.5158    0.1773 H   0  0  0  0  0  0  0  0  0  0  0  0
    2.0381   16.1434    1.3082 H   0  0  0  0  0  0  0  0  0  0  0  0
    3.8317   17.8469    1.2543 H   0  0  0  0  0  0  0  0  0  0  0  0
    4.3760   16.2291    0.6617 H   0  0  0  0  0  0  0  0  0  0  0  0
    5.2759   17.9217   -0.7841 H   0  0  0  0  0  0  0  0  0  0  0  0
    3.9570   19.4700   -1.7290 H   0  0  0  0  0  0  0  0  0  0  0  0
    5.2218   15.3830   -0.9566 H   0  0  0  0  0  0  0  0  0  0  0  0
    4.5941   14.7357   -2.5102 H   0  0  0  0  0  0  0  0  0  0  0  0
    5.9533   15.9101   -2.5102 H   0  0  0  0  0  0  0  0  0  0  0  0
    4.8084   18.5601   -3.0809 H   0  0  0  0  0  0  0  0  0  0  0  0
    5.0978   17.0231   -3.9643 H   0  0  0  0  0  0  0  0  0  0  0  0
    3.4617   17.7647   -3.9643 H   0  0  0  0  0  0  0  0  0  0  0  0
   -0.5451   16.3154    0.5766 H   0  0  0  0  0  0  0  0  0  0  0  0
   -0.0664   17.1299   -0.9512 H   0  0  0  0  0  0  0  0  0  0  0  0
   -1.4121   15.9401   -0.9512 H   0  0  0  0  0  0  0  0  0  0  0  0
    1.0433   14.3257    1.1963 H   0  0  0  0  0  0  0  0  0  0  0  0
   -0.6664   13.9747    0.5738 H   0  0  0  0  0  0  0  0  0  0  0  0
    1.8806   12.4612   -0.0654 H   0  0  0  0  0  0  0  0  0  0  0  0
    0.4326   11.8948    0.8563 H   0  0  0  0  0  0  0  0  0  0  0  0
   -1.6500   12.1277    0.0153 H   0  0  0  0  0  0  0  0  0  0  0  0
   -1.8279   13.0315   -1.5268 H   0  0  0  0  0  0  0  0  0  0  0  0
   -1.8811   11.2360   -1.5268 H   0  0  0  0  0  0  0  0  0  0  0  0
  1  2  1  0
  2  3  1  0
  3  4  1  0
  4  5  1  0
  5  6  1  0
  6  7  1  0
  7  8  1  0
  7  9  1  0
  2 10  1  0
 10 11  1  0
 11 12  1  0
 12 13  1  0
 13 14  1  6
 13 15  1  0
 15 16  1  0
 16 17  1  0
 17 18  2  0
 18 19  1  0
 19 20  1  0
 20 21  1  0
 21 22  1  0
 22 23  1  0
 22 24  1  0
 24 25  1  0
 24 26  1  0
 19 27  1  0
 27 28  1  1
 27 29  1  0
 29 30  1  0
 30 31  1  0
 31 32  1  1
  7  5  1  0
 31 10  1  0
 31 13  1  0
 27 15  1  0
 24 18  1  0
  1 33  1  0
  1 34  1  0
  1 35  1  0
  2 36  1  1
  3 37  1  0
  3 38  1  0
  4 39  1  0
  4 40  1  0
  5 41  1  6
  8 42  1  0
  8 43  1  0
  8 44  1  0
  9 45  1  0
  9 46  1  0
  9 47  1  0
 10 48  1  6
 11 49  1  0
 11 50  1  0
 12 51  1  0
 12 52  1  0
 14 53  1  0
 14 54  1  0
 14 55  1  0
 15 56  1  1
 16 57  1  0
 16 58  1  0
 17 59  1  0
 19 60  1  1
 20 61  1  0
 20 62  1  0
 21 63  1  0
 21 64  1  0
 22 65  1  1
 23 66  1  0
 25 67  1  0
 25 68  1  0
 25 69  1  0
 26 70  1  0
 26 71  1  0
 26 72  1  0
 28 73  1  0
 28 74  1  0
 28 75  1  0
 29 76  1  0
 29 77  1  0
 30 78  1  0
 30 79  1  0
 32 80  1  0
 32 81  1  0
 32 82  1  0
M  END
>  <meeko>  (10) 
{"is_sidechain": [false], "intermolecular_energy": 2.731, "internal_energy": -0.839}

$$$$
EPH_relaxed_0001_pdb2pqr_Repair_153_r2_0001_out
     RDKit          3D

 82 86  0  0  0  0  0  0  0  0999 V2000
    0.4090    8.9660   -2.4970 C   0  0  0  0  0  0  0  0  0  0  0  0
    1.1900   10.1220   -3.1280 C   0  0  2  0  0  0  0  0  0  0  0  0
    2.6800   10.1010   -2.7320 C   0  0  0  0  0  0  0  0  0  0  0  0
    3.6220   10.5430   -3.8550 C   0  0  0  0  0  0  0  0  0  0  0  0
    5.0050   10.8130   -3.3450 C   0  0  2  0  0  0  0  0  0  0  0  0
    5.5870   12.0380   -3.8090 O   0  0  0  0  0  0  0  0  0  0  0  0
    6.2360   10.8280   -4.2320 C   0  0  0  0  0  0  0  0  0  0  0  0
    6.1420   10.5680   -5.7020 C   0  0  0  0  0  0  0  0  0  0  0  0
    7.5760   10.6110   -3.6000 C   0  0  0  0  0  0  0  0  0  0  0  0
    0.5630   11.4530   -2.7290 C   0  0  1  0  0  0  0  0  0  0  0  0
   -0.7020   11.2760   -1.8480 C   0  0  0  0  0  0  0  0  0  0  0  0
   -0.7140   12.4550   -0.8410 C   0  0  0  0  0  0  0  0  0  0  0  0
    0.3460   13.4420   -1.3830 C   0  0  1  0  0  0  0  0  0  0  0  0
   -0.3840   14.2340   -2.5120 C   0  0  0  0  0  0  0  0  0  0  0  0
    0.9990   14.4000   -0.3340 C   0  0  2  0  0  0  0  0  0  0  0  0
    0.0250   15.3730    0.3550 C   0  0  0  0  0  0  0  0  0  0  0  0
   -0.1470   16.6910   -0.3250 C   0  0  0  0  0  0  0  0  0  0  0  0
    0.6600   17.1900   -1.2790 C   0  0  0  0  0  0  0  0  0  0  0  0
    1.9370   16.4500   -1.6970 C   0  0  1  0  0  0  0  0  0  0  0  0
    3.1180   17.4530   -1.7670 C   0  0  0  0  0  0  0  0  0  0  0  0
    2.8170   18.6500   -2.6650 C   0  0  0  0  0  0  0  0  0  0  0  0
    1.5740   19.3940   -2.1830 C   0  0  2  0  0  0  0  0  0  0  0  0
    1.8580   19.9910   -0.9140 O   0  0  0  0  0  0  0  0  0  0  0  0
    0.3220   18.4820   -2.0640 C   0  0  0  0  0  0  0  0  0  0  0  0
   -0.1650   18.0780   -3.4780 C   0  0  0  0  0  0  0  0  0  0  0  0
   -0.8230   19.3220   -1.4350 C   0  0  0  0  0  0  0  0  0  0  0  0
    2.2910   15.1490   -0.8560 C   0  0  1  0  0  0  0  0  0  0  0  0
    3.1190   15.5400    0.4060 C   0  0  0  0  0  0  0  0  0  0  0  0
    3.2160   14.2130   -1.7210 C   0  0  0  0  0  0  0  0  0  0  0  0
    2.5120   13.2060   -2.6490 C   0  0  0  0  0  0  0  0  0  0  0  0
    1.4320   12.4260   -1.8930 C   0  0  2  0  0  0  0  0  0  0  0  0
    2.1400   11.6010   -0.7640 C   0  0  0  0  0  0  0  0  0  0  0  0
    0.4612    9.0433   -1.4010 H   0  0  0  0  0  0  0  0  0  0  0  0
   -0.6419    9.0149   -2.8184 H   0  0  0  0  0  0  0  0  0  0  0  0
    0.8466    8.0093   -2.8184 H   0  0  0  0  0  0  0  0  0  0  0  0
    1.1372    9.9994   -4.2199 H   0  0  0  0  0  0  0  0  0  0  0  0
    2.8210   10.7758   -1.8748 H   0  0  0  0  0  0  0  0  0  0  0  0
    2.9339    9.0580   -2.4916 H   0  0  0  0  0  0  0  0  0  0  0  0
    3.6707    9.7474   -4.6131 H   0  0  0  0  0  0  0  0  0  0  0  0
    3.2277   11.4751   -4.2860 H   0  0  0  0  0  0  0  0  0  0  0  0
    4.7823   10.2953   -2.4004 H   0  0  0  0  0  0  0  0  0  0  0  0
    5.7724    9.5458   -5.8707 H   0  0  0  0  0  0  0  0  0  0  0  0
    5.4476   11.2889   -6.1582 H   0  0  0  0  0  0  0  0  0  0  0  0
    7.1369   10.6781   -6.1582 H   0  0  0  0  0  0  0  0  0  0  0  0
    7.4720   10.6278   -2.5051 H   0  0  0  0  0  0  0  0  0  0  0  0
    7.9766    9.6363   -3.9153 H   0  0  0  0  0  0  0  0  0  0  0  0
    8.2638   11.4095   -3.9153 H   0  0  0  0  0  0  0  0  0  0  0  0
    0.3778   11.8770   -3.7270 H   0  0  0  0  0  0  0  0  0  0  0  0
   -1.6063   11.3030   -2.4737 H   0  0  0  0  0  0  0  0  0  0  0  0
   -0.6863   10.3090   -1.3240 H   0  0  0  0  0  0  0  0  0  0  0  0
   -1.7061   12.9291   -0.8100 H   0  0  0  0  0  0  0  0  0  0  0  0
   -0.4934   12.1286    0.1860 H   0  0  0  0  0  0  0  0  0  0  0  0
   -1.0641   14.9719   -2.0614 H   0  0  0  0  0  0  0  0  0  0  0  0
    0.3591   14.7529   -3.1352 H   0  0  0  0  0  0  0  0  0  0  0  0
   -0.9617   13.5355   -3.1352 H   0  0  0  0  0  0  0  0  0  0  0  0
    1.3298   13.7023    0.4495 H   0  0  0  0  0  0  0  0  0  0  0  0
   -0.9603   14.8868    0.4083 H   0  0  0  0  0  0  0  0  0  0  0  0
    0.4612   15.5935    1.3404 H   0  0  0  0  0  0  0  0  0  0  0  0
   -1.0064   17.3063   -0.0202 H   0  0  0  0  0  0  0  0  0  0  0  0
    1.7363   16.0395   -2.6976 H   0  0  0  0  0  0  0  0  0  0  0  0
    3.3307   17.8186   -0.7516 H   0  0  0  0  0  0  0  0  0  0  0  0
    3.9813   16.9229   -2.1956 H   0  0  0  0  0  0  0  0  0  0  0  0
    3.6762   19.3367   -2.6498 H   0  0  0  0  0  0  0  0  0  0  0  0
    2.6343   18.2856   -3.6867 H   0  0  0  0  0  0  0  0  0  0  0  0
    1.3335   20.1584   -2.9365 H   0  0  0  0  0  0  0  0  0  0  0  0
    2.4570   20.7400   -1.0690 H   0  0  0  0  0  0  0  0  0  0  0  0
   -1.0088   17.3780   -3.3891 H   0  0  0  0  0  0  0  0  0  0  0  0
   -0.4894   18.9758   -4.0245 H   0  0  0  0  0  0  0  0  0  0  0  0
    0.6575   17.5933   -4.0245 H   0  0  0  0  0  0  0  0  0  0  0  0
   -0.7547   19.2719   -0.3383 H   0  0  0  0  0  0  0  0  0  0  0  0
   -0.7314   20.3687   -1.7606 H   0  0  0  0  0  0  0  0  0  0  0  0
   -1.7939   18.9204   -1.7606 H   0  0  0  0  0  0  0  0  0  0  0  0
    2.5547   15.2735    1.3118 H   0  0  0  0  0  0  0  0  0  0  0  0
    4.0767   14.9990    0.3982 H   0  0  0  0  0  0  0  0  0  0  0  0
    3.3097   16.6233    0.3982 H   0  0  0  0  0  0  0  0  0  0  0  0
    3.8482   14.8582   -2.3487 H   0  0  0  0  0  0  0  0  0  0  0  0
    3.7645   13.5979   -0.9925 H   0  0  0  0  0  0  0  0  0  0  0  0
    2.0452   13.7506   -3.4830 H   0  0  0  0  0  0  0  0  0  0  0  0
    3.2606   12.4934   -3.0255 H   0  0  0  0  0  0  0  0  0  0  0  0
    1.8191   11.9749    0.2195 H   0  0  0  0  0  0  0  0  0  0  0  0
    1.8673   10.5396   -0.8596 H   0  0  0  0  0  0  0  0  0  0  0  0
    3.2305   11.7095   -0.8596 H   0  0  0  0  0  0  0  0  0  0  0  0
  1  2  1  0
  2  3  1  0
  3  4  1  0
  4  5  1  0
  5  6  1  0
  6  7  1  0
  7  8  1  0
  7  9  1  0
  2 10  1  0
 10 11  1  0
 11 12  1  0
 12 13  1  0
 13 14  1  6
 13 15  1  0
 15 16  1  0
 16 17  1  0
 17 18  2  0
 18 19  1  0
 19 20  1  0
 20 21  1  0
 21 22  1  0
 22 23  1  0
 22 24  1  0
 24 25  1  0
 24 26  1  0
 19 27  1  0
 27 28  1  1
 27 29  1  0
 29 30  1  0
 30 31  1  0
 31 32  1  1
  7  5  1  0
 31 10  1  0
 31 13  1  0
 27 15  1  0
 24 18  1  0
  1 33  1  0
  1 34  1  0
  1 35  1  0
  2 36  1  6
  3 37  1  0
  3 38  1  0
  4 39  1  0
  4 40  1  0
  5 41  1  1
  8 42  1  0
  8 43  1  0
  8 44  1  0
  9 45  1  0
  9 46  1  0
  9 47  1  0
 10 48  1  6
 11 49  1  0
 11 50  1  0
 12 51  1  0
 12 52  1  0
 14 53  1  0
 14 54  1  0
 14 55  1  0
 15 56  1  1
 16 57  1  0
 16 58  1  0
 17 59  1  0
 19 60  1  6
 20 61  1  0
 20 62  1  0
 21 63  1  0
 21 64  1  0
 22 65  1  6
 23 66  1  0
 25 67  1  0
 25 68  1  0
 25 69  1  0
 26 70  1  0
 26 71  1  0
 26 72  1  0
 28 73  1  0
 28 74  1  0
 28 75  1  0
 29 76  1  0
 29 77  1  0
 30 78  1  0
 30 79  1  0
 32 80  1  0
 32 81  1  0
 32 82  1  0
M  END
>  <meeko>  (11) 
{"is_sidechain": [false], "intermolecular_energy": 2.731, "internal_energy": -0.839}

$$$$
EPH_relaxed_0001_pdb2pqr_Repair_153_r2_0001_out
     RDKit          3D

 82 86  0  0  0  0  0  0  0  0999 V2000
   -0.3720    7.4820   -0.2420 C   0  0  0  0  0  0  0  0  0  0  0  0
   -0.9000    8.9140   -0.3710 C   0  0  2  0  0  0  0  0  0  0  0  0
   -1.8950    9.0630   -1.5400 C   0  0  0  0  0  0  0  0  0  0  0  0
   -2.8430    7.8720   -1.6970 C   0  0  0  0  0  0  0  0  0  0  0  0
   -4.1890    8.1530   -1.1000 C   0  0  2  0  0  0  0  0  0  0  0  0
   -4.6950    7.1160   -0.2490 O   0  0  0  0  0  0  0  0  0  0  0  0
   -5.4400    7.3690   -1.4510 C   0  0  0  0  0  0  0  0  0  0  0  0
   -5.4050    6.2440   -2.4370 C   0  0  0  0  0  0  0  0  0  0  0  0
   -6.7740    8.0050   -1.2110 C   0  0  0  0  0  0  0  0  0  0  0  0
    0.2630    9.8830   -0.5510 C   0  0  1  0  0  0  0  0  0  0  0  0
    1.6020    9.1590   -0.8520 C   0  0  0  0  0  0  0  0  0  0  0  0
    2.3940   10.0700   -1.8250 C   0  0  0  0  0  0  0  0  0  0  0  0
    1.6450   11.4220   -1.7890 C   0  0  1  0  0  0  0  0  0  0  0  0
    2.1630   12.1340   -0.5010 C   0  0  0  0  0  0  0  0  0  0  0  0
    1.7990   12.3310   -3.0520 C   0  0  2  0  0  0  0  0  0  0  0  0
    3.2340   12.8040   -3.3450 C   0  0  0  0  0  0  0  0  0  0  0  0
    3.6190   14.1000   -2.7110 C   0  0  0  0  0  0  0  0  0  0  0  0
    2.7660   14.9940   -2.1770 C   0  0  0  0  0  0  0  0  0  0  0  0
    1.2490   14.7840   -2.2640 C   0  0  1  0  0  0  0  0  0  0  0  0
    0.5680   16.1040   -2.7100 C   0  0  0  0  0  0  0  0  0  0  0  0
    0.9430   17.2850   -1.8200 C   0  0  0  0  0  0  0  0  0  0  0  0
    2.4550   17.4980   -1.8060 C   0  0  2  0  0  0  0  0  0  0  0  0
    2.8740   17.9140   -3.1100 O   0  0  0  0  0  0  0  0  0  0  0  0
    3.2480   16.2310   -1.3810 C   0  0  0  0  0  0  0  0  0  0  0  0
    3.0230   15.9580    0.1270 C   0  0  0  0  0  0  0  0  0  0  0  0
    4.7610   16.5380   -1.5450 C   0  0  0  0  0  0  0  0  0  0  0  0
    0.7700   13.5310   -3.1170 C   0  0  1  0  0  0  0  0  0  0  0  0
    0.6430   13.9290   -4.6200 C   0  0  0  0  0  0  0  0  0  0  0  0
   -0.6720   13.1090   -2.6460 C   0  0  0  0  0  0  0  0  0  0  0  0
   -0.7560   12.1170   -1.4710 C   0  0  0  0  0  0  0  0  0  0  0  0
    0.1600   10.9120   -1.7040 C   0  0  2  0  0  0  0  0  0  0  0  0
   -0.3500   10.1630   -2.9820 C   0  0  0  0  0  0  0  0  0  0  0  0
   -0.2758    7.2212    0.8223 H   0  0  0  0  0  0  0  0  0  0  0  0
   -1.0732    6.7875   -0.7278 H   0  0  0  0  0  0  0  0  0  0  0  0
    0.6122    7.4089   -0.7278 H   0  0  0  0  0  0  0  0  0  0  0  0
   -1.4417    9.1514    0.5565 H   0  0  0  0  0  0  0  0  0  0  0  0
   -2.4983    9.9668   -1.3694 H   0  0  0  0  0  0  0  0  0  0  0  0
   -1.2996    9.1236   -2.4630 H   0  0  0  0  0  0  0  0  0  0  0  0
   -2.9665    7.6533   -2.7679 H   0  0  0  0  0  0  0  0  0  0  0  0
   -2.4053    7.0129   -1.1675 H   0  0  0  0  0  0  0  0  0  0  0  0
   -3.9778    9.2322   -1.0728 H   0  0  0  0  0  0  0  0  0  0  0  0
   -5.3752    5.2853   -1.8985 H   0  0  0  0  0  0  0  0  0  0  0  0
   -6.3048    6.2819   -3.0687 H   0  0  0  0  0  0  0  0  0  0  0  0
   -4.5093    6.3378   -3.0687 H   0  0  0  0  0  0  0  0  0  0  0  0
   -6.9506    8.0892   -0.1285 H   0  0  0  0  0  0  0  0  0  0  0  0
   -6.7892    9.0072   -1.6641 H   0  0  0  0  0  0  0  0  0  0  0  0
   -7.5622    7.3858   -1.6641 H   0  0  0  0  0  0  0  0  0  0  0  0
    0.2234   10.4006    0.4188 H   0  0  0  0  0  0  0  0  0  0  0  0
    2.1710    9.0128    0.0780 H   0  0  0  0  0  0  0  0  0  0  0  0
    1.4243    8.1680   -1.2950 H   0  0  0  0  0  0  0  0  0  0  0  0
    3.4327   10.1922   -1.4842 H   0  0  0  0  0  0  0  0  0  0  0  0
    2.4479    9.6495   -2.8400 H   0  0  0  0  0  0  0  0  0  0  0  0
    1.7811   11.6090    0.3870 H   0  0  0  0  0  0  0  0  0  0  0  0
    3.2629   12.1191   -0.4909 H   0  0  0  0  0  0  0  0  0  0  0  0
    1.8103   13.1759   -0.4909 H   0  0  0  0  0  0  0  0  0  0  0  0
    1.5385   11.6432   -3.8700 H   0  0  0  0  0  0  0  0  0  0  0  0
    3.9275   12.0299   -2.9848 H   0  0  0  0  0  0  0  0  0  0  0  0
    3.2848   12.9691   -4.4314 H   0  0  0  0  0  0  0  0  0  0  0  0
    4.6908   14.3450   -2.6775 H   0  0  0  0  0  0  0  0  0  0  0  0
    0.9201   14.5195   -1.2482 H   0  0  0  0  0  0  0  0  0  0  0  0
    0.8757   16.3284   -3.7420 H   0  0  0  0  0  0  0  0  0  0  0  0
   -0.5200   15.9608   -2.6342 H   0  0  0  0  0  0  0  0  0  0  0  0
    0.4548   18.1935   -2.2025 H   0  0  0  0  0  0  0  0  0  0  0  0
    0.6085   17.0721   -0.7940 H   0  0  0  0  0  0  0  0  0  0  0  0
    2.6727   18.2706   -1.0539 H   0  0  0  0  0  0  0  0  0  0  0  0
    2.9770   17.1150   -3.6540 H   0  0  0  0  0  0  0  0  0  0  0  0
    3.6119   16.6725    0.7208 H   0  0  0  0  0  0  0  0  0  0  0  0
    1.9556   16.0750    0.3655 H   0  0  0  0  0  0  0  0  0  0  0  0
    3.3417   14.9326    0.3655 H   0  0  0  0  0  0  0  0  0  0  0  0
    5.2257   16.6323   -0.5524 H   0  0  0  0  0  0  0  0  0  0  0  0
    5.2433   15.7194   -2.0994 H   0  0  0  0  0  0  0  0  0  0  0  0
    4.8861   17.4798   -2.0994 H   0  0  0  0  0  0  0  0  0  0  0  0
    0.3094   14.9745   -4.6955 H   0  0  0  0  0  0  0  0  0  0  0  0
    1.6207   13.8196   -5.1121 H   0  0  0  0  0  0  0  0  0  0  0  0
   -0.0906   13.2736   -5.1121 H   0  0  0  0  0  0  0  0  0  0  0  0
   -1.2058   14.0236   -2.3482 H   0  0  0  0  0  0  0  0  0  0  0  0
   -1.1109   12.5776   -3.5033 H   0  0  0  0  0  0  0  0  0  0  0  0
   -0.4501   12.6280   -0.5462 H   0  0  0  0  0  0  0  0  0  0  0  0
   -1.7927   11.7586   -1.3882 H   0  0  0  0  0  0  0  0  0  0  0  0
   -0.9455    9.2884   -2.6813 H   0  0  0  0  0  0  0  0  0  0  0  0
   -0.9737   10.8428   -3.5810 H   0  0  0  0  0  0  0  0  0  0  0  0
    0.5111    9.8318   -3.5810 H   0  0  0  0  0  0  0  0  0  0  0  0
  1  2  1  0
  2  3  1  0
  3  4  1  0
  4  5  1  0
  5  6  1  0
  6  7  1  0
  7  8  1  0
  7  9  1  0
  2 10  1  0
 10 11  1  0
 11 12  1  0
 12 13  1  0
 13 14  1  1
 13 15  1  0
 15 16  1  0
 16 17  1  0
 17 18  2  0
 18 19  1  0
 19 20  1  0
 20 21  1  0
 21 22  1  0
 22 23  1  0
 22 24  1  0
 24 25  1  0
 24 26  1  0
 19 27  1  0
 27 28  1  6
 27 29  1  0
 29 30  1  0
 30 31  1  0
 31 32  1  6
  7  5  1  0
 31 10  1  0
 31 13  1  0
 27 15  1  0
 24 18  1  0
  1 33  1  0
  1 34  1  0
  1 35  1  0
  2 36  1  1
  3 37  1  0
  3 38  1  0
  4 39  1  0
  4 40  1  0
  5 41  1  1
  8 42  1  0
  8 43  1  0
  8 44  1  0
  9 45  1  0
  9 46  1  0
  9 47  1  0
 10 48  1  1
 11 49  1  0
 11 50  1  0
 12 51  1  0
 12 52  1  0
 14 53  1  0
 14 54  1  0
 14 55  1  0
 15 56  1  6
 16 57  1  0
 16 58  1  0
 17 59  1  0
 19 60  1  1
 20 61  1  0
 20 62  1  0
 21 63  1  0
 21 64  1  0
 22 65  1  1
 23 66  1  0
 25 67  1  0
 25 68  1  0
 25 69  1  0
 26 70  1  0
 26 71  1  0
 26 72  1  0
 28 73  1  0
 28 74  1  0
 28 75  1  0
 29 76  1  0
 29 77  1  0
 30 78  1  0
 30 79  1  0
 32 80  1  0
 32 81  1  0
 32 82  1  0
M  END
>  <meeko>  (12) 
{"is_sidechain": [false], "intermolecular_energy": 2.731, "internal_energy": -0.839}

$$$$
EPH_relaxed_0001_pdb2pqr_Repair_153_r2_0001_out
     RDKit          3D

 82 86  0  0  0  0  0  0  0  0999 V2000
    1.0110   17.7550   -2.3390 C   0  0  0  0  0  0  0  0  0  0  0  0
    2.3440   17.1220   -1.9280 C   0  0  2  0  0  0  0  0  0  0  0  0
    3.5400   17.7580   -2.6640 C   0  0  0  0  0  0  0  0  0  0  0  0
    4.8770   17.5690   -1.9420 C   0  0  0  0  0  0  0  0  0  0  0  0
    6.0380   17.8910   -2.8340 C   0  0  2  0  0  0  0  0  0  0  0  0
    5.9170   17.4010   -4.1750 O   0  0  0  0  0  0  0  0  0  0  0  0
    6.9820   16.8410   -3.3900 C   0  0  0  0  0  0  0  0  0  0  0  0
    6.8070   15.3890   -3.0740 C   0  0  0  0  0  0  0  0  0  0  0  0
    8.3470   17.2690   -3.8330 C   0  0  0  0  0  0  0  0  0  0  0  0
    2.3090   15.6210   -2.1900 C   0  0  1  0  0  0  0  0  0  0  0  0
    3.6740   15.0680   -2.6770 C   0  0  0  0  0  0  0  0  0  0  0  0
    3.8170   13.6430   -2.0830 C   0  0  0  0  0  0  0  0  0  0  0  0
    2.4050   13.2960   -1.5560 C   0  0  1  0  0  0  0  0  0  0  0  0
    1.6110   12.8280   -2.8160 C   0  0  0  0  0  0  0  0  0  0  0  0
    2.3370   12.2400   -0.4050 C   0  0  2  0  0  0  0  0  0  0  0  0
    2.8590   10.8400   -0.7720 C   0  0  0  0  0  0  0  0  0  0  0  0
    1.8350    9.9000   -1.3160 C   0  0  0  0  0  0  0  0  0  0  0  0
    0.5020   10.0660   -1.2380 C   0  0  0  0  0  0  0  0  0  0  0  0
   -0.1020   11.2460   -0.4660 C   0  0  1  0  0  0  0  0  0  0  0  0
   -1.2540   10.7370    0.4390 C   0  0  0  0  0  0  0  0  0  0  0  0
   -2.3050    9.9500   -0.3380 C   0  0  0  0  0  0  0  0  0  0  0  0
   -1.6760    8.7520   -1.0450 C   0  0  2  0  0  0  0  0  0  0  0  0
   -1.2220    7.8200   -0.0580 O   0  0  0  0  0  0  0  0  0  0  0  0
   -0.4960    9.1410   -1.9780 C   0  0  0  0  0  0  0  0  0  0  0  0
   -1.0390    9.9000   -3.2140 C   0  0  0  0  0  0  0  0  0  0  0  0
    0.1380    7.8300   -2.5180 C   0  0  0  0  0  0  0  0  0  0  0  0
    0.9320   12.1620    0.3200 C   0  0  1  0  0  0  0  0  0  0  0  0
    1.1960   11.5710    1.7380 C   0  0  0  0  0  0  0  0  0  0  0  0
    0.2940   13.5840    0.5430 C   0  0  0  0  0  0  0  0  0  0  0  0
    0.4980   14.6210   -0.5780 C   0  0  0  0  0  0  0  0  0  0  0  0
    1.9700   14.6980   -0.9920 C   0  0  2  0  0  0  0  0  0  0  0  0
    2.7910   15.1880    0.2490 C   0  0  0  0  0  0  0  0  0  0  0  0
    0.4406   18.0259   -1.4383 H   0  0  0  0  0  0  0  0  0  0  0  0
    1.2029   18.6582   -2.9369 H   0  0  0  0  0  0  0  0  0  0  0  0
    0.4323   17.0355   -2.9369 H   0  0  0  0  0  0  0  0  0  0  0  0
    2.4815   17.3084   -0.8527 H   0  0  0  0  0  0  0  0  0  0  0  0
    3.6165   17.3016   -3.6619 H   0  0  0  0  0  0  0  0  0  0  0  0
    3.3500   18.8404   -2.7115 H   0  0  0  0  0  0  0  0  0  0  0  0
    4.9059   18.2328   -1.0653 H   0  0  0  0  0  0  0  0  0  0  0  0
    4.9581   16.5144   -1.6401 H   0  0  0  0  0  0  0  0  0  0  0  0
    6.2171   18.8354   -2.2991 H   0  0  0  0  0  0  0  0  0  0  0  0
    6.7903   15.2506   -1.9829 H   0  0  0  0  0  0  0  0  0  0  0  0
    5.8593   15.0319   -3.5034 H   0  0  0  0  0  0  0  0  0  0  0  0
    7.6427   14.8170   -3.5034 H   0  0  0  0  0  0  0  0  0  0  0  0
    8.9739   17.4656   -2.9508 H   0  0  0  0  0  0  0  0  0  0  0  0
    8.8036   16.4709   -4.4368 H   0  0  0  0  0  0  0  0  0  0  0  0
    8.2661   18.1849   -4.4368 H   0  0  0  0  0  0  0  0  0  0  0  0
    1.5008   15.5822   -2.9352 H   0  0  0  0  0  0  0  0  0  0  0  0
    3.6946   15.0241   -3.7759 H   0  0  0  0  0  0  0  0  0  0  0  0
    4.5013   15.7161   -2.3522 H   0  0  0  0  0  0  0  0  0  0  0  0
    4.1282   12.9283   -2.8591 H   0  0  0  0  0  0  0  0  0  0  0  0
    4.5804   13.5955   -1.2925 H   0  0  0  0  0  0  0  0  0  0  0  0
    0.7034   12.2930   -2.4997 H   0  0  0  0  0  0  0  0  0  0  0  0
    1.3290   13.7043   -3.4181 H   0  0  0  0  0  0  0  0  0  0  0  0
    2.2411   12.1569   -3.4181 H   0  0  0  0  0  0  0  0  0  0  0  0
    3.0525   12.6422    0.3273 H   0  0  0  0  0  0  0  0  0  0  0  0
    3.6476   10.9591   -1.5296 H   0  0  0  0  0  0  0  0  0  0  0  0
    3.2147   10.3920    0.1675 H   0  0  0  0  0  0  0  0  0  0  0  0
    2.2010    8.9953   -1.8235 H   0  0  0  0  0  0  0  0  0  0  0  0
   -0.5005   11.9346   -1.2256 H   0  0  0  0  0  0  0  0  0  0  0  0
   -0.8295   10.0854    1.2170 H   0  0  0  0  0  0  0  0  0  0  0  0
   -1.7503   11.6170    0.8740 H   0  0  0  0  0  0  0  0  0  0  0  0
   -3.0760    9.5921    0.3602 H   0  0  0  0  0  0  0  0  0  0  0  0
   -2.7502   10.6114   -1.0959 H   0  0  0  0  0  0  0  0  0  0  0  0
   -2.4492    8.3053   -1.6874 H   0  0  0  0  0  0  0  0  0  0  0  0
   -0.8760    8.3320    0.6930 H   0  0  0  0  0  0  0  0  0  0  0  0
   -1.6491   10.7528   -2.8817 H   0  0  0  0  0  0  0  0  0  0  0  0
   -0.1963   10.2657   -3.8191 H   0  0  0  0  0  0  0  0  0  0  0  0
   -1.6572    9.2205   -3.8191 H   0  0  0  0  0  0  0  0  0  0  0  0
    0.4447    7.1959   -1.6731 H   0  0  0  0  0  0  0  0  0  0  0  0
   -0.5994    7.2918   -3.1317 H   0  0  0  0  0  0  0  0  0  0  0  0
    1.0177    8.0738   -3.1317 H   0  0  0  0  0  0  0  0  0  0  0  0
    0.8733   12.2934    2.5022 H   0  0  0  0  0  0  0  0  0  0  0  0
    0.6305   10.6350    1.8562 H   0  0  0  0  0  0  0  0  0  0  0  0
    2.2705   11.3676    1.8562 H   0  0  0  0  0  0  0  0  0  0  0  0
   -0.7892   13.4456    0.6751 H   0  0  0  0  0  0  0  0  0  0  0  0
    0.8160   13.9995    1.4176 H   0  0  0  0  0  0  0  0  0  0  0  0
   -0.1065   14.3316   -1.4503 H   0  0  0  0  0  0  0  0  0  0  0  0
    0.1867   15.6076   -0.2041 H   0  0  0  0  0  0  0  0  0  0  0  0
    2.2777   14.8816    1.1724 H   0  0  0  0  0  0  0  0  0  0  0  0
    3.7962   14.7420    0.2230 H   0  0  0  0  0  0  0  0  0  0  0  0
    2.8756   16.2844    0.2230 H   0  0  0  0  0  0  0  0  0  0  0  0
  1  2  1  0
  2  3  1  0
  3  4  1  0
  4  5  1  0
  5  6  1  0
  6  7  1  0
  7  8  1  0
  7  9  1  0
  2 10  1  0
 10 11  1  0
 11 12  1  0
 12 13  1  0
 13 14  1  6
 13 15  1  0
 15 16  1  0
 16 17  1  0
 17 18  2  0
 18 19  1  0
 19 20  1  0
 20 21  1  0
 21 22  1  0
 22 23  1  0
 22 24  1  0
 24 25  1  0
 24 26  1  0
 19 27  1  0
 27 28  1  1
 27 29  1  0
 29 30  1  0
 30 31  1  0
 31 32  1  1
  7  5  1  0
 31 10  1  0
 31 13  1  0
 27 15  1  0
 24 18  1  0
  1 33  1  0
  1 34  1  0
  1 35  1  0
  2 36  1  1
  3 37  1  0
  3 38  1  0
  4 39  1  0
  4 40  1  0
  5 41  1  6
  8 42  1  0
  8 43  1  0
  8 44  1  0
  9 45  1  0
  9 46  1  0
  9 47  1  0
 10 48  1  6
 11 49  1  0
 11 50  1  0
 12 51  1  0
 12 52  1  0
 14 53  1  0
 14 54  1  0
 14 55  1  0
 15 56  1  1
 16 57  1  0
 16 58  1  0
 17 59  1  0
 19 60  1  6
 20 61  1  0
 20 62  1  0
 21 63  1  0
 21 64  1  0
 22 65  1  6
 23 66  1  0
 25 67  1  0
 25 68  1  0
 25 69  1  0
 26 70  1  0
 26 71  1  0
 26 72  1  0
 28 73  1  0
 28 74  1  0
 28 75  1  0
 29 76  1  0
 29 77  1  0
 30 78  1  0
 30 79  1  0
 32 80  1  0
 32 81  1  0
 32 82  1  0
M  END
>  <meeko>  (13) 
{"is_sidechain": [false], "intermolecular_energy": 2.731, "internal_energy": -0.839}

$$$$
EPH_relaxed_0001_pdb2pqr_Repair_153_r2_0001_out
     RDKit          3D

 82 86  0  0  0  0  0  0  0  0999 V2000
   -4.9380    6.0370   -2.0790 C   0  0  0  0  0  0  0  0  0  0  0  0
   -5.3560    7.5040   -1.9440 C   0  0  2  0  0  0  0  0  0  0  0  0
   -5.1630    8.0340   -0.5090 C   0  0  0  0  0  0  0  0  0  0  0  0
   -4.1220    9.1510   -0.4000 C   0  0  0  0  0  0  0  0  0  0  0  0
   -2.7660    8.6910   -0.8400 C   0  0  2  0  0  0  0  0  0  0  0  0
   -1.7030    9.0010    0.0710 O   0  0  0  0  0  0  0  0  0  0  0  0
   -1.6410    9.6380   -1.2150 C   0  0  0  0  0  0  0  0  0  0  0  0
   -1.8240   11.1230   -1.1680 C   0  0  0  0  0  0  0  0  0  0  0  0
   -0.5370    9.1280   -2.0880 C   0  0  0  0  0  0  0  0  0  0  0  0
   -6.8100    7.6710   -2.3700 C   0  0  1  0  0  0  0  0  0  0  0  0
   -7.1290    6.9470   -3.7050 C   0  0  0  0  0  0  0  0  0  0  0  0
   -8.5830    6.4210   -3.5920 C   0  0  0  0  0  0  0  0  0  0  0  0
   -9.1610    7.1370   -2.3490 C   0  0  1  0  0  0  0  0  0  0  0  0
   -9.5790    8.5520   -2.8590 C   0  0  0  0  0  0  0  0  0  0  0  0
  -10.3420    6.4130   -1.6220 C   0  0  2  0  0  0  0  0  0  0  0  0
  -11.6140    6.2300   -2.4680 C   0  0  0  0  0  0  0  0  0  0  0  0
  -12.6070    7.3410   -2.3740 C   0  0  0  0  0  0  0  0  0  0  0  0
  -12.6200    8.3010   -1.4310 C   0  0  0  0  0  0  0  0  0  0  0  0
  -11.6200    8.2760   -0.2670 C   0  0  1  0  0  0  0  0  0  0  0  0
  -12.3690    8.5440    1.0640 C   0  0  0  0  0  0  0  0  0  0  0  0
  -13.1880    9.8310    1.0270 C   0  0  0  0  0  0  0  0  0  0  0  0
  -14.2100    9.7940   -0.1070 C   0  0  2  0  0  0  0  0  0  0  0  0
  -15.1830    8.7860    0.1820 O   0  0  0  0  0  0  0  0  0  0  0  0
  -13.5720    9.5210   -1.4980 C   0  0  0  0  0  0  0  0  0  0  0  0
  -12.7510   10.7550   -1.9450 C   0  0  0  0  0  0  0  0  0  0  0  0
  -14.7230    9.3680   -2.5290 C   0  0  0  0  0  0  0  0  0  0  0  0
  -10.6780    6.9990   -0.1910 C   0  0  1  0  0  0  0  0  0  0  0  0
  -11.3890    5.8590    0.6000 C   0  0  0  0  0  0  0  0  0  0  0  0
   -9.3820    7.3640    0.6250 C   0  0  0  0  0  0  0  0  0  0  0  0
   -8.2060    7.9650   -0.1700 C   0  0  0  0  0  0  0  0  0  0  0  0
   -7.8990    7.1250   -1.4130 C   0  0  2  0  0  0  0  0  0  0  0  0
   -7.4540    5.7020   -0.9300 C   0  0  0  0  0  0  0  0  0  0  0  0
   -4.8129    5.5978   -1.0783 H   0  0  0  0  0  0  0  0  0  0  0  0
   -5.7142    5.4836   -2.6279 H   0  0  0  0  0  0  0  0  0  0  0  0
   -3.9867    5.9758   -2.6279 H   0  0  0  0  0  0  0  0  0  0  0  0
   -4.7045    8.0956   -2.6040 H   0  0  0  0  0  0  0  0  0  0  0  0
   -6.1275    8.4220   -0.1495 H   0  0  0  0  0  0  0  0  0  0  0  0
   -4.7964    7.1928    0.0976 H   0  0  0  0  0  0  0  0  0  0  0  0
   -4.4356    9.9934   -1.0341 H   0  0  0  0  0  0  0  0  0  0  0  0
   -4.0549    9.4547    0.6551 H   0  0  0  0  0  0  0  0  0  0  0  0
   -3.2028    7.8232   -1.3558 H   0  0  0  0  0  0  0  0  0  0  0  0
   -1.8648   11.4544   -0.1199 H   0  0  0  0  0  0  0  0  0  0  0  0
   -0.9794   11.6127   -1.6748 H   0  0  0  0  0  0  0  0  0  0  0  0
   -2.7622   11.3930   -1.6748 H   0  0  0  0  0  0  0  0  0  0  0  0
    0.2824    8.7495   -1.4593 H   0  0  0  0  0  0  0  0  0  0  0  0
   -0.9178    8.3146   -2.7231 H   0  0  0  0  0  0  0  0  0  0  0  0
   -0.1645    9.9452   -2.7231 H   0  0  0  0  0  0  0  0  0  0  0  0
   -6.8636    8.7688   -2.4137 H   0  0  0  0  0  0  0  0  0  0  0  0
   -7.0448    7.6501   -4.5468 H   0  0  0  0  0  0  0  0  0  0  0  0
   -6.4236    6.1225   -3.8856 H   0  0  0  0  0  0  0  0  0  0  0  0
   -9.1603    6.6787   -4.4922 H   0  0  0  0  0  0  0  0  0  0  0  0
   -8.6245    5.3257   -3.4996 H   0  0  0  0  0  0  0  0  0  0  0  0
   -9.7732    9.2093   -1.9986 H   0  0  0  0  0  0  0  0  0  0  0  0
   -8.7678    8.9763   -3.4689 H   0  0  0  0  0  0  0  0  0  0  0  0
  -10.4905    8.4674   -3.4689 H   0  0  0  0  0  0  0  0  0  0  0  0
   -9.9394    5.4013   -1.4658 H   0  0  0  0  0  0  0  0  0  0  0  0
  -11.3110    6.1330   -3.5210 H   0  0  0  0  0  0  0  0  0  0  0  0
  -12.1180    5.3366   -2.0709 H   0  0  0  0  0  0  0  0  0  0  0  0
  -13.3949    7.3780   -3.1407 H   0  0  0  0  0  0  0  0  0  0  0  0
  -10.9043    9.0882   -0.4623 H   0  0  0  0  0  0  0  0  0  0  0  0
  -13.0466    7.7007    1.2630 H   0  0  0  0  0  0  0  0  0  0  0  0
  -11.6132    8.6524    1.8559 H   0  0  0  0  0  0  0  0  0  0  0  0
  -13.7165    9.9492    1.9844 H   0  0  0  0  0  0  0  0  0  0  0  0
  -12.5057   10.6771    0.8578 H   0  0  0  0  0  0  0  0  0  0  0  0
  -14.6746   10.7894   -0.1649 H   0  0  0  0  0  0  0  0  0  0  0  0
  -15.0980    8.0910   -0.4930 H   0  0  0  0  0  0  0  0  0  0  0  0
  -12.3907   11.2966   -1.0580 H   0  0  0  0  0  0  0  0  0  0  0  0
  -11.8917   10.4251   -2.5473 H   0  0  0  0  0  0  0  0  0  0  0  0
  -13.3872   11.4201   -2.5473 H   0  0  0  0  0  0  0  0  0  0  0  0
  -15.6774    9.2411   -1.9970 H   0  0  0  0  0  0  0  0  0  0  0  0
  -14.7718   10.2676   -3.1602 H   0  0  0  0  0  0  0  0  0  0  0  0
  -14.5351    8.4869   -3.1602 H   0  0  0  0  0  0  0  0  0  0  0  0
  -11.2778    6.0373    1.6797 H   0  0  0  0  0  0  0  0  0  0  0  0
  -12.4575    5.8430    0.3392 H   0  0  0  0  0  0  0  0  0  0  0  0
  -10.9334    4.8924    0.3392 H   0  0  0  0  0  0  0  0  0  0  0  0
   -9.6691    8.0934    1.3967 H   0  0  0  0  0  0  0  0  0  0  0  0
   -9.0069    6.4055    1.0131 H   0  0  0  0  0  0  0  0  0  0  0  0
   -8.4673    8.9870   -0.4818 H   0  0  0  0  0  0  0  0  0  0  0  0
   -7.3152    7.9754    0.4752 H   0  0  0  0  0  0  0  0  0  0  0  0
   -7.4453    5.6741    0.1696 H   0  0  0  0  0  0  0  0  0  0  0  0
   -8.1594    4.9485   -1.3103 H   0  0  0  0  0  0  0  0  0  0  0  0
   -6.4450    5.4846   -1.3103 H   0  0  0  0  0  0  0  0  0  0  0  0
  1  2  1  0
  2  3  1  0
  3  4  1  0
  4  5  1  0
  5  6  1  0
  6  7  1  0
  7  8  1  0
  7  9  1  0
  2 10  1  0
 10 11  1  0
 11 12  1  0
 12 13  1  0
 13 14  1  6
 13 15  1  0
 15 16  1  0
 16 17  1  0
 17 18  2  0
 18 19  1  0
 19 20  1  0
 20 21  1  0
 21 22  1  0
 22 23  1  0
 22 24  1  0
 24 25  1  0
 24 26  1  0
 19 27  1  0
 27 28  1  1
 27 29  1  0
 29 30  1  0
 30 31  1  0
 31 32  1  1
  7  5  1  0
 31 10  1  0
 31 13  1  0
 27 15  1  0
 24 18  1  0
  1 33  1  0
  1 34  1  0
  1 35  1  0
  2 36  1  6
  3 37  1  0
  3 38  1  0
  4 39  1  0
  4 40  1  0
  5 41  1  6
  8 42  1  0
  8 43  1  0
  8 44  1  0
  9 45  1  0
  9 46  1  0
  9 47  1  0
 10 48  1  6
 11 49  1  0
 11 50  1  0
 12 51  1  0
 12 52  1  0
 14 53  1  0
 14 54  1  0
 14 55  1  0
 15 56  1  1
 16 57  1  0
 16 58  1  0
 17 59  1  0
 19 60  1  6
 20 61  1  0
 20 62  1  0
 21 63  1  0
 21 64  1  0
 22 65  1  6
 23 66  1  0
 25 67  1  0
 25 68  1  0
 25 69  1  0
 26 70  1  0
 26 71  1  0
 26 72  1  0
 28 73  1  0
 28 74  1  0
 28 75  1  0
 29 76  1  0
 29 77  1  0
 30 78  1  0
 30 79  1  0
 32 80  1  0
 32 81  1  0
 32 82  1  0
M  END
>  <meeko>  (14) 
{"is_sidechain": [false], "intermolecular_energy": 2.731, "internal_energy": -0.839}

$$$$
EPH_relaxed_0001_pdb2pqr_Repair_153_r2_0001_out
     RDKit          3D

 82 86  0  0  0  0  0  0  0  0999 V2000
    2.5480   20.1250   -0.2140 C   0  0  0  0  0  0  0  0  0  0  0  0
    2.5530   19.5160   -1.6190 C   0  0  2  0  0  0  0  0  0  0  0  0
    1.1720   19.6110   -2.2980 C   0  0  0  0  0  0  0  0  0  0  0  0
    0.0640   20.1160   -1.3710 C   0  0  0  0  0  0  0  0  0  0  0  0
   -0.9400   19.0440   -1.0720 C   0  0  2  0  0  0  0  0  0  0  0  0
   -2.3080   19.4600   -1.1740 O   0  0  0  0  0  0  0  0  0  0  0  0
   -1.8590   19.0710    0.1350 C   0  0  0  0  0  0  0  0  0  0  0  0
   -1.8170   20.1940    1.1220 C   0  0  0  0  0  0  0  0  0  0  0  0
   -2.4470   17.7810    0.6150 C   0  0  0  0  0  0  0  0  0  0  0  0
    3.0020   18.0610   -1.5520 C   0  0  1  0  0  0  0  0  0  0  0  0
    4.0310   17.8040   -0.4190 C   0  0  0  0  0  0  0  0  0  0  0  0
    3.7460   16.3820    0.1300 C   0  0  0  0  0  0  0  0  0  0  0  0
    2.7970   15.7450   -0.9120 C   0  0  1  0  0  0  0  0  0  0  0  0
    3.7340   15.2520   -2.0590 C   0  0  0  0  0  0  0  0  0  0  0  0
    1.8700   14.5990   -0.3920 C   0  0  2  0  0  0  0  0  0  0  0  0
    2.6040   13.3510    0.1300 C   0  0  0  0  0  0  0  0  0  0  0  0
    2.8670   12.2930   -0.8900 C   0  0  0  0  0  0  0  0  0  0  0  0
    2.2850   12.2110   -2.1010 C   0  0  0  0  0  0  0  0  0  0  0  0
    1.1800   13.1940   -2.5110 C   0  0  1  0  0  0  0  0  0  0  0  0
    0.0020   12.4120   -3.1490 C   0  0  0  0  0  0  0  0  0  0  0  0
    0.4480   11.5190   -4.3030 C   0  0  0  0  0  0  0  0  0  0  0  0
    1.5040   10.5180   -3.8410 C   0  0  2  0  0  0  0  0  0  0  0  0
    0.9000    9.6010   -2.9240 O   0  0  0  0  0  0  0  0  0  0  0  0
    2.7360   11.1900   -3.1740 C   0  0  0  0  0  0  0  0  0  0  0  0
    3.5620   11.9440   -4.2450 C   0  0  0  0  0  0  0  0  0  0  0  0
    3.6560   10.0650   -2.6280 C   0  0  0  0  0  0  0  0  0  0  0  0
    0.7020   14.2090   -1.3860 C   0  0  1  0  0  0  0  0  0  0  0  0
   -0.4190   13.5550   -0.5210 C   0  0  0  0  0  0  0  0  0  0  0  0
    0.0540   15.4690   -2.0720 C   0  0  0  0  0  0  0  0  0  0  0  0
    1.0070   16.6180   -2.4540 C   0  0  0  0  0  0  0  0  0  0  0  0
    1.9140   16.9920   -1.2780 C   0  0  2  0  0  0  0  0  0  0  0  0
    1.0010   17.5130   -0.1160 C   0  0  0  0  0  0  0  0  0  0  0  0
    2.5546   19.3193    0.5349 H   0  0  0  0  0  0  0  0  0  0  0  0
    3.4410   20.7540   -0.0838 H   0  0  0  0  0  0  0  0  0  0  0  0
    1.6448   20.7392   -0.0838 H   0  0  0  0  0  0  0  0  0  0  0  0
    3.2608   20.0961   -2.2293 H   0  0  0  0  0  0  0  0  0  0  0  0
    1.2515   20.3001   -3.1517 H   0  0  0  0  0  0  0  0  0  0  0  0
    0.8942   18.5920   -2.6055 H   0  0  0  0  0  0  0  0  0  0  0  0
    0.5158   20.4546   -0.4270 H   0  0  0  0  0  0  0  0  0  0  0  0
   -0.4568   20.9421   -1.8773 H   0  0  0  0  0  0  0  0  0  0  0  0
   -0.2667   18.2700   -1.4690 H   0  0  0  0  0  0  0  0  0  0  0  0
   -1.8323   19.7854    2.1432 H   0  0  0  0  0  0  0  0  0  0  0  0
   -0.8964   20.7777    0.9744 H   0  0  0  0  0  0  0  0  0  0  0  0
   -2.6914   20.8448    0.9744 H   0  0  0  0  0  0  0  0  0  0  0  0
   -2.4531   17.7676    1.7149 H   0  0  0  0  0  0  0  0  0  0  0  0
   -3.4773   17.6862    0.2414 H   0  0  0  0  0  0  0  0  0  0  0  0
   -1.8428   16.9411    0.2414 H   0  0  0  0  0  0  0  0  0  0  0  0
    3.3964   17.9437   -2.5721 H   0  0  0  0  0  0  0  0  0  0  0  0
    5.0548   17.8580   -0.8177 H   0  0  0  0  0  0  0  0  0  0  0  0
    3.9407   18.5595    0.3754 H   0  0  0  0  0  0  0  0  0  0  0  0
    4.6778   15.8032    0.2117 H   0  0  0  0  0  0  0  0  0  0  0  0
    3.3050   16.4042    1.1375 H   0  0  0  0  0  0  0  0  0  0  0  0
    4.6285   14.7814   -1.6250 H   0  0  0  0  0  0  0  0  0  0  0  0
    3.1987   14.5188   -2.6801 H   0  0  0  0  0  0  0  0  0  0  0  0
    4.0351   16.1085   -2.6801 H   0  0  0  0  0  0  0  0  0  0  0  0
    1.3993   15.0587    0.4896 H   0  0  0  0  0  0  0  0  0  0  0  0
    3.5714   13.6733    0.5427 H   0  0  0  0  0  0  0  0  0  0  0  0
    1.9367   12.8952    0.8763 H   0  0  0  0  0  0  0  0  0  0  0  0
    3.5988   11.5141   -0.6297 H   0  0  0  0  0  0  0  0  0  0  0  0
    1.6307   13.8640   -3.2580 H   0  0  0  0  0  0  0  0  0  0  0  0
   -0.4631   11.7828   -2.3759 H   0  0  0  0  0  0  0  0  0  0  0  0
   -0.7077   13.1491   -3.5528 H   0  0  0  0  0  0  0  0  0  0  0  0
   -0.4228   10.9704   -4.6911 H   0  0  0  0  0  0  0  0  0  0  0  0
    0.8846   12.1526   -5.0890 H   0  0  0  0  0  0  0  0  0  0  0  0
    1.8778    9.9973   -4.7349 H   0  0  0  0  0  0  0  0  0  0  0  0
    0.4950    8.8870   -3.4450 H   0  0  0  0  0  0  0  0  0  0  0  0
    4.2874   12.6061   -3.7496 H   0  0  0  0  0  0  0  0  0  0  0  0
    4.0982   11.2174   -4.8731 H   0  0  0  0  0  0  0  0  0  0  0  0
    2.8872   12.5441   -4.8731 H   0  0  0  0  0  0  0  0  0  0  0  0
    3.6424   10.0816   -1.5282 H   0  0  0  0  0  0  0  0  0  0  0  0
    3.2935    9.0895   -2.9845 H   0  0  0  0  0  0  0  0  0  0  0  0
    4.6840   10.2267   -2.9845 H   0  0  0  0  0  0  0  0  0  0  0  0
   -0.1857   13.6911    0.5453 H   0  0  0  0  0  0  0  0  0  0  0  0
   -1.3835   14.0321   -0.7491 H   0  0  0  0  0  0  0  0  0  0  0  0
   -0.4784   12.4806   -0.7491 H   0  0  0  0  0  0  0  0  0  0  0  0
   -0.4427   15.1284   -2.9925 H   0  0  0  0  0  0  0  0  0  0  0  0
   -0.6211   15.8942   -1.3148 H   0  0  0  0  0  0  0  0  0  0  0  0
    1.6307   16.3010   -3.3028 H   0  0  0  0  0  0  0  0  0  0  0  0
    0.4047   17.4974   -2.7259 H   0  0  0  0  0  0  0  0  0  0  0  0
    1.4553   17.2537    0.8517 H   0  0  0  0  0  0  0  0  0  0  0  0
    0.8985   18.6056   -0.1920 H   0  0  0  0  0  0  0  0  0  0  0  0
    0.0082   17.0454   -0.1920 H   0  0  0  0  0  0  0  0  0  0  0  0
  1  2  1  0
  2  3  1  0
  3  4  1  0
  4  5  1  0
  5  6  1  0
  6  7  1  0
  7  8  1  0
  7  9  1  0
  2 10  1  0
 10 11  1  0
 11 12  1  0
 12 13  1  0
 13 14  1  6
 13 15  1  0
 15 16  1  0
 16 17  1  0
 17 18  2  0
 18 19  1  0
 19 20  1  0
 20 21  1  0
 21 22  1  0
 22 23  1  0
 22 24  1  0
 24 25  1  0
 24 26  1  0
 19 27  1  0
 27 28  1  1
 27 29  1  0
 29 30  1  0
 30 31  1  0
 31 32  1  1
  7  5  1  0
 31 10  1  0
 31 13  1  0
 27 15  1  0
 24 18  1  0
  1 33  1  0
  1 34  1  0
  1 35  1  0
  2 36  1  6
  3 37  1  0
  3 38  1  0
  4 39  1  0
  4 40  1  0
  5 41  1  6
  8 42  1  0
  8 43  1  0
  8 44  1  0
  9 45  1  0
  9 46  1  0
  9 47  1  0
 10 48  1  6
 11 49  1  0
 11 50  1  0
 12 51  1  0
 12 52  1  0
 14 53  1  0
 14 54  1  0
 14 55  1  0
 15 56  1  1
 16 57  1  0
 16 58  1  0
 17 59  1  0
 19 60  1  6
 20 61  1  0
 20 62  1  0
 21 63  1  0
 21 64  1  0
 22 65  1  6
 23 66  1  0
 25 67  1  0
 25 68  1  0
 25 69  1  0
 26 70  1  0
 26 71  1  0
 26 72  1  0
 28 73  1  0
 28 74  1  0
 28 75  1  0
 29 76  1  0
 29 77  1  0
 30 78  1  0
 30 79  1  0
 32 80  1  0
 32 81  1  0
 32 82  1  0
M  END
>  <meeko>  (15) 
{"is_sidechain": [false], "intermolecular_energy": 2.731, "internal_energy": -0.839}

$$$$
EPH_relaxed_0001_pdb2pqr_Repair_153_r2_0001_out
     RDKit          3D

 82 86  0  0  0  0  0  0  0  0999 V2000
    4.4360   17.6530   -2.8600 C   0  0  0  0  0  0  0  0  0  0  0  0
    2.9810   17.2170   -2.6670 C   0  0  2  0  0  0  0  0  0  0  0  0
    2.1500   18.2810   -1.9230 C   0  0  0  0  0  0  0  0  0  0  0  0
    0.6720   18.2970   -2.3220 C   0  0  0  0  0  0  0  0  0  0  0  0
   -0.0760   19.4010   -1.6370 C   0  0  2  0  0  0  0  0  0  0  0  0
    0.3910   19.7110   -0.3180 O   0  0  0  0  0  0  0  0  0  0  0  0
   -0.9440   19.1880   -0.4110 C   0  0  0  0  0  0  0  0  0  0  0  0
   -1.1100   17.8330    0.2010 C   0  0  0  0  0  0  0  0  0  0  0  0
   -2.0080   20.1940   -0.1040 C   0  0  0  0  0  0  0  0  0  0  0  0
    2.9310   15.8940   -1.9100 C   0  0  1  0  0  0  0  0  0  0  0  0
    3.4620   16.0170   -0.4570 C   0  0  0  0  0  0  0  0  0  0  0  0
    2.6170   15.0500    0.4110 C   0  0  0  0  0  0  0  0  0  0  0  0
    1.8610   14.1670   -0.6110 C   0  0  1  0  0  0  0  0  0  0  0  0
    2.8940   13.0790   -1.0420 C   0  0  0  0  0  0  0  0  0  0  0  0
    0.5230   13.5290   -0.1160 C   0  0  2  0  0  0  0  0  0  0  0  0
    0.6630   12.5500    1.0620 C   0  0  0  0  0  0  0  0  0  0  0  0
    0.8770   11.1220    0.6820 C   0  0  0  0  0  0  0  0  0  0  0  0
    0.6710   10.5980   -0.5410 C   0  0  0  0  0  0  0  0  0  0  0  0
    0.0820   11.4500   -1.6730 C   0  0  1  0  0  0  0  0  0  0  0  0
   -1.0420   10.6550   -2.3880 C   0  0  0  0  0  0  0  0  0  0  0  0
   -0.5740    9.2860   -2.8710 C   0  0  0  0  0  0  0  0  0  0  0  0
   -0.0490    8.4470   -1.7080 C   0  0  2  0  0  0  0  0  0  0  0  0
   -1.1390    8.1390   -0.8330 O   0  0  0  0  0  0  0  0  0  0  0  0
    1.0810    9.1510   -0.9060 C   0  0  0  0  0  0  0  0  0  0  0  0
    2.3680    9.2130   -1.7660 C   0  0  0  0  0  0  0  0  0  0  0  0
    1.4210    8.2610    0.3200 C   0  0  0  0  0  0  0  0  0  0  0  0
   -0.3710   12.9200   -1.2710 C   0  0  1  0  0  0  0  0  0  0  0  0
   -1.8360   12.8980   -0.7370 C   0  0  0  0  0  0  0  0  0  0  0  0
   -0.3810   13.8240   -2.5600 C   0  0  0  0  0  0  0  0  0  0  0  0
    0.9410   14.5230   -2.9290 C   0  0  0  0  0  0  0  0  0  0  0  0
    1.5400   15.2390   -1.7150 C   0  0  2  0  0  0  0  0  0  0  0  0
    0.5330   16.3550   -1.2730 C   0  0  0  0  0  0  0  0  0  0  0  0
    4.9097   17.7949   -1.8774 H   0  0  0  0  0  0  0  0  0  0  0  0
    4.9796   16.8783   -3.4206 H   0  0  0  0  0  0  0  0  0  0  0  0
    4.4640   18.5990   -3.4206 H   0  0  0  0  0  0  0  0  0  0  0  0
    2.5379   17.0911   -3.6659 H   0  0  0  0  0  0  0  0  0  0  0  0
    2.2161   18.0809   -0.8434 H   0  0  0  0  0  0  0  0  0  0  0  0
    2.5669   19.2621   -2.1942 H   0  0  0  0  0  0  0  0  0  0  0  0
    0.5982   18.4384   -3.4104 H   0  0  0  0  0  0  0  0  0  0  0  0
    0.2245   17.3395   -2.0173 H   0  0  0  0  0  0  0  0  0  0  0  0
   -0.2670   19.9004   -2.5983 H   0  0  0  0  0  0  0  0  0  0  0  0
   -1.0991   17.9220    1.2973 H   0  0  0  0  0  0  0  0  0  0  0  0
   -2.0680   17.3996   -0.1222 H   0  0  0  0  0  0  0  0  0  0  0  0
   -0.2850   17.1811   -0.1222 H   0  0  0  0  0  0  0  0  0  0  0  0
   -2.1141   20.2943    0.9863 H   0  0  0  0  0  0  0  0  0  0  0  0
   -1.7290   21.1663   -0.5363 H   0  0  0  0  0  0  0  0  0  0  0  0
   -2.9631   19.8610   -0.5363 H   0  0  0  0  0  0  0  0  0  0  0  0
    3.5480   15.2751   -2.5780 H   0  0  0  0  0  0  0  0  0  0  0  0
    4.5239   15.7328   -0.4164 H   0  0  0  0  0  0  0  0  0  0  0  0
    3.3781   17.0513   -0.0919 H   0  0  0  0  0  0  0  0  0  0  0  0
    3.2664   14.4343    1.0506 H   0  0  0  0  0  0  0  0  0  0  0  0
    1.9331   15.5852    1.0861 H   0  0  0  0  0  0  0  0  0  0  0  0
    3.3338   12.6158   -0.1465 H   0  0  0  0  0  0  0  0  0  0  0  0
    2.3867   12.3089   -1.6416 H   0  0  0  0  0  0  0  0  0  0  0  0
    3.6894   13.5457   -1.6416 H   0  0  0  0  0  0  0  0  0  0  0  0
   -0.0194   14.3991    0.2824 H   0  0  0  0  0  0  0  0  0  0  0  0
    1.5204   12.8718    1.6714 H   0  0  0  0  0  0  0  0  0  0  0  0
   -0.2961   12.5815    1.5998 H   0  0  0  0  0  0  0  0  0  0  0  0
    1.2333   10.4401    1.4681 H   0  0  0  0  0  0  0  0  0  0  0  0
    0.9090   11.6392   -2.3732 H   0  0  0  0  0  0  0  0  0  0  0  0
   -1.8764   10.5146   -1.6851 H   0  0  0  0  0  0  0  0  0  0  0  0
   -1.3498   11.2334   -3.2716 H   0  0  0  0  0  0  0  0  0  0  0  0
   -1.4193    8.7616   -3.3404 H   0  0  0  0  0  0  0  0  0  0  0  0
    0.2405    9.4292   -3.5963 H   0  0  0  0  0  0  0  0  0  0  0  0
    0.3905    7.5325   -2.1329 H   0  0  0  0  0  0  0  0  0  0  0  0
   -0.9010    7.3380   -0.3370 H   0  0  0  0  0  0  0  0  0  0  0  0
    3.2477    9.2554   -1.1070 H   0  0  0  0  0  0  0  0  0  0  0  0
    2.4283    8.3167   -2.4009 H   0  0  0  0  0  0  0  0  0  0  0  0
    2.3419   10.1109   -2.4009 H   0  0  0  0  0  0  0  0  0  0  0  0
    1.2091    8.8158    1.2459 H   0  0  0  0  0  0  0  0  0  0  0  0
    0.8084    7.3478    0.2913 H   0  0  0  0  0  0  0  0  0  0  0  0
    2.4864    7.9889    0.2913 H   0  0  0  0  0  0  0  0  0  0  0  0
   -1.8254   12.8982    0.3629 H   0  0  0  0  0  0  0  0  0  0  0  0
   -2.3715   13.7882   -1.0986 H   0  0  0  0  0  0  0  0  0  0  0  0
   -2.3445   11.9921   -1.0986 H   0  0  0  0  0  0  0  0  0  0  0  0
   -0.6697   13.1882   -3.4100 H   0  0  0  0  0  0  0  0  0  0  0  0
   -1.0840   14.6393   -2.3340 H   0  0  0  0  0  0  0  0  0  0  0  0
    1.6566   13.7707   -3.2923 H   0  0  0  0  0  0  0  0  0  0  0  0
    0.7368   15.2694   -3.7108 H   0  0  0  0  0  0  0  0  0  0  0  0
    0.4933   16.3990   -0.1746 H   0  0  0  0  0  0  0  0  0  0  0  0
    0.8662   17.3265   -1.6670 H   0  0  0  0  0  0  0  0  0  0  0  0
   -0.4675   16.1231   -1.6670 H   0  0  0  0  0  0  0  0  0  0  0  0
  1  2  1  0
  2  3  1  0
  3  4  1  0
  4  5  1  0
  5  6  1  0
  6  7  1  0
  7  8  1  0
  7  9  1  0
  2 10  1  0
 10 11  1  0
 11 12  1  0
 12 13  1  0
 13 14  1  6
 13 15  1  0
 15 16  1  0
 16 17  1  0
 17 18  2  0
 18 19  1  0
 19 20  1  0
 20 21  1  0
 21 22  1  0
 22 23  1  0
 22 24  1  0
 24 25  1  0
 24 26  1  0
 19 27  1  0
 27 28  1  1
 27 29  1  0
 29 30  1  0
 30 31  1  0
 31 32  1  1
  7  5  1  0
 31 10  1  0
 31 13  1  0
 27 15  1  0
 24 18  1  0
  1 33  1  0
  1 34  1  0
  1 35  1  0
  2 36  1  6
  3 37  1  0
  3 38  1  0
  4 39  1  0
  4 40  1  0
  5 41  1  6
  8 42  1  0
  8 43  1  0
  8 44  1  0
  9 45  1  0
  9 46  1  0
  9 47  1  0
 10 48  1  6
 11 49  1  0
 11 50  1  0
 12 51  1  0
 12 52  1  0
 14 53  1  0
 14 54  1  0
 14 55  1  0
 15 56  1  1
 16 57  1  0
 16 58  1  0
 17 59  1  0
 19 60  1  6
 20 61  1  0
 20 62  1  0
 21 63  1  0
 21 64  1  0
 22 65  1  6
 23 66  1  0
 25 67  1  0
 25 68  1  0
 25 69  1  0
 26 70  1  0
 26 71  1  0
 26 72  1  0
 28 73  1  0
 28 74  1  0
 28 75  1  0
 29 76  1  0
 29 77  1  0
 30 78  1  0
 30 79  1  0
 32 80  1  0
 32 81  1  0
 32 82  1  0
M  END
>  <meeko>  (16) 
{"is_sidechain": [false], "intermolecular_energy": 2.731, "internal_energy": -0.839}

$$$$
EPH_relaxed_0001_pdb2pqr_Repair_153_r2_0001_out
     RDKit          3D

 82 86  0  0  0  0  0  0  0  0999 V2000
   -0.1790    8.4440   -3.3510 C   0  0  0  0  0  0  0  0  0  0  0  0
   -0.7180    8.8580   -1.9790 C   0  0  2  0  0  0  0  0  0  0  0  0
   -2.0770    8.1990   -1.6660 C   0  0  0  0  0  0  0  0  0  0  0  0
   -2.6000    7.3040   -2.7920 C   0  0  0  0  0  0  0  0  0  0  0  0
   -4.0840    7.4330   -2.9580 C   0  0  2  0  0  0  0  0  0  0  0  0
   -4.8420    7.2200   -1.7600 O   0  0  0  0  0  0  0  0  0  0  0  0
   -5.0470    6.2690   -2.8170 C   0  0  0  0  0  0  0  0  0  0  0  0
   -4.5610    4.8900   -2.4970 C   0  0  0  0  0  0  0  0  0  0  0  0
   -6.3920    6.3690   -3.4660 C   0  0  0  0  0  0  0  0  0  0  0  0
   -0.8470   10.3760   -1.9070 C   0  0  1  0  0  0  0  0  0  0  0  0
   -2.1660   10.8320   -1.2290 C   0  0  0  0  0  0  0  0  0  0  0  0
   -1.8390   12.1260   -0.4410 C   0  0  0  0  0  0  0  0  0  0  0  0
   -0.4440   12.5540   -0.9540 C   0  0  1  0  0  0  0  0  0  0  0  0
   -0.7220   13.2930   -2.3000 C   0  0  0  0  0  0  0  0  0  0  0  0
    0.4120   13.4280    0.0190 C   0  0  2  0  0  0  0  0  0  0  0  0
   -0.1960   14.7960    0.3730 C   0  0  0  0  0  0  0  0  0  0  0  0
    0.1930   15.9200   -0.5290 C   0  0  0  0  0  0  0  0  0  0  0  0
    1.2140   15.9010   -1.4060 C   0  0  0  0  0  0  0  0  0  0  0  0
    2.1630   14.6980   -1.4840 C   0  0  1  0  0  0  0  0  0  0  0  0
    3.6310   15.1980   -1.5210 C   0  0  0  0  0  0  0  0  0  0  0  0
    3.8770   16.2090   -2.6370 C   0  0  0  0  0  0  0  0  0  0  0  0
    2.9550   17.4170   -2.4920 C   0  0  2  0  0  0  0  0  0  0  0  0
    3.3160   18.1320   -1.3070 O   0  0  0  0  0  0  0  0  0  0  0  0
    1.4490   17.0360   -2.4340 C   0  0  0  0  0  0  0  0  0  0  0  0
    0.9850   16.5360   -3.8240 C   0  0  0  0  0  0  0  0  0  0  0  0
    0.6400   18.3280   -2.1440 C   0  0  0  0  0  0  0  0  0  0  0  0
    1.9330   13.5620   -0.3980 C   0  0  1  0  0  0  0  0  0  0  0  0
    2.7230   13.9010    0.9030 C   0  0  0  0  0  0  0  0  0  0  0  0
    2.5270   12.2070   -0.9370 C   0  0  0  0  0  0  0  0  0  0  0  0
    1.5920   11.3310   -1.7930 C   0  0  0  0  0  0  0  0  0  0  0  0
    0.2350   11.1440   -1.1090 C   0  0  2  0  0  0  0  0  0  0  0  0
    0.4800   10.3830    0.2390 C   0  0  0  0  0  0  0  0  0  0  0  0
    0.6871    7.7788   -3.2192 H   0  0  0  0  0  0  0  0  0  0  0  0
   -0.9655    7.9156   -3.9097 H   0  0  0  0  0  0  0  0  0  0  0  0
    0.1287    9.3402   -3.9097 H   0  0  0  0  0  0  0  0  0  0  0  0
    0.0006    8.5094   -1.2226 H   0  0  0  0  0  0  0  0  0  0  0  0
   -1.9655    7.5867   -0.7590 H   0  0  0  0  0  0  0  0  0  0  0  0
   -2.8065    9.0120   -1.5361 H   0  0  0  0  0  0  0  0  0  0  0  0
   -2.1095    7.5921   -3.7335 H   0  0  0  0  0  0  0  0  0  0  0  0
   -2.3732    6.2592   -2.5333 H   0  0  0  0  0  0  0  0  0  0  0  0
   -3.9529    8.1909   -3.7443 H   0  0  0  0  0  0  0  0  0  0  0  0
   -4.5156    4.7613   -1.4055 H   0  0  0  0  0  0  0  0  0  0  0  0
   -5.2522    4.1491   -2.9252 H   0  0  0  0  0  0  0  0  0  0  0  0
   -3.5580    4.7462   -2.9252 H   0  0  0  0  0  0  0  0  0  0  0  0
   -7.1699    6.4268   -2.6905 H   0  0  0  0  0  0  0  0  0  0  0  0
   -6.4307    7.2725   -4.0923 H   0  0  0  0  0  0  0  0  0  0  0  0
   -6.5639    5.4812   -4.0923 H   0  0  0  0  0  0  0  0  0  0  0  0
   -0.7681   10.6188   -2.9770 H   0  0  0  0  0  0  0  0  0  0  0  0
   -2.9328   11.0359   -1.9909 H   0  0  0  0  0  0  0  0  0  0  0  0
   -2.5575   10.0508   -0.5609 H   0  0  0  0  0  0  0  0  0  0  0  0
   -2.5855   12.9065   -0.6494 H   0  0  0  0  0  0  0  0  0  0  0  0
   -1.8519   11.9659    0.6472 H   0  0  0  0  0  0  0  0  0  0  0  0
   -1.1023   14.3039   -2.0915 H   0  0  0  0  0  0  0  0  0  0  0  0
    0.2108   13.3642   -2.8786 H   0  0  0  0  0  0  0  0  0  0  0  0
   -1.4705   12.7318   -2.8786 H   0  0  0  0  0  0  0  0  0  0  0  0
    0.3864   12.8401    0.9484 H   0  0  0  0  0  0  0  0  0  0  0  0
   -1.2913   14.6992    0.3423 H   0  0  0  0  0  0  0  0  0  0  0  0
    0.1961   15.0547    1.3676 H   0  0  0  0  0  0  0  0  0  0  0  0
   -0.4051   16.8414   -0.4722 H   0  0  0  0  0  0  0  0  0  0  0  0
    1.9210   14.1806   -2.4240 H   0  0  0  0  0  0  0  0  0  0  0  0
    3.8662   15.6728   -0.5570 H   0  0  0  0  0  0  0  0  0  0  0  0
    4.2755   14.3272   -1.7114 H   0  0  0  0  0  0  0  0  0  0  0  0
    4.9228   16.5470   -2.5924 H   0  0  0  0  0  0  0  0  0  0  0  0
    3.6704   15.7236   -3.6022 H   0  0  0  0  0  0  0  0  0  0  0  0
    3.0857   18.0410   -3.3884 H   0  0  0  0  0  0  0  0  0  0  0  0
    2.4970   18.3430   -0.8280 H   0  0  0  0  0  0  0  0  0  0  0  0
    0.2418   15.7352   -3.6963 H   0  0  0  0  0  0  0  0  0  0  0  0
    0.5334   17.3698   -4.3816 H   0  0  0  0  0  0  0  0  0  0  0  0
    1.8501   16.1479   -4.3816 H   0  0  0  0  0  0  0  0  0  0  0  0
    0.5517   18.4690   -1.0567 H   0  0  0  0  0  0  0  0  0  0  0  0
    1.1586   19.1921   -2.5849 H   0  0  0  0  0  0  0  0  0  0  0  0
   -0.3638   18.2388   -2.5849 H   0  0  0  0  0  0  0  0  0  0  0  0
    2.1136   13.6395    1.7807 H   0  0  0  0  0  0  0  0  0  0  0  0
    3.6605   13.3260    0.9230 H   0  0  0  0  0  0  0  0  0  0  0  0
    2.9522   14.9767    0.9230 H   0  0  0  0  0  0  0  0  0  0  0  0
    3.4083   12.4499   -1.5489 H   0  0  0  0  0  0  0  0  0  0  0  0
    2.7404   11.6086   -0.0390 H   0  0  0  0  0  0  0  0  0  0  0  0
    1.4391   11.8153   -2.7688 H   0  0  0  0  0  0  0  0  0  0  0  0
    2.0583   10.3430   -1.9214 H   0  0  0  0  0  0  0  0  0  0  0  0
    0.2640   11.0541    1.0834 H   0  0  0  0  0  0  0  0  0  0  0  0
   -0.1809    9.5052    0.2899 H   0  0  0  0  0  0  0  0  0  0  0  0
    1.5289   10.0557    0.2899 H   0  0  0  0  0  0  0  0  0  0  0  0
  1  2  1  0
  2  3  1  0
  3  4  1  0
  4  5  1  0
  5  6  1  0
  6  7  1  0
  7  8  1  0
  7  9  1  0
  2 10  1  0
 10 11  1  0
 11 12  1  0
 12 13  1  0
 13 14  1  6
 13 15  1  0
 15 16  1  0
 16 17  1  0
 17 18  2  0
 18 19  1  0
 19 20  1  0
 20 21  1  0
 21 22  1  0
 22 23  1  0
 22 24  1  0
 24 25  1  0
 24 26  1  0
 19 27  1  0
 27 28  1  1
 27 29  1  0
 29 30  1  0
 30 31  1  0
 31 32  1  1
  7  5  1  0
 31 10  1  0
 31 13  1  0
 27 15  1  0
 24 18  1  0
  1 33  1  0
  1 34  1  0
  1 35  1  0
  2 36  1  1
  3 37  1  0
  3 38  1  0
  4 39  1  0
  4 40  1  0
  5 41  1  6
  8 42  1  0
  8 43  1  0
  8 44  1  0
  9 45  1  0
  9 46  1  0
  9 47  1  0
 10 48  1  6
 11 49  1  0
 11 50  1  0
 12 51  1  0
 12 52  1  0
 14 53  1  0
 14 54  1  0
 14 55  1  0
 15 56  1  1
 16 57  1  0
 16 58  1  0
 17 59  1  0
 19 60  1  6
 20 61  1  0
 20 62  1  0
 21 63  1  0
 21 64  1  0
 22 65  1  6
 23 66  1  0
 25 67  1  0
 25 68  1  0
 25 69  1  0
 26 70  1  0
 26 71  1  0
 26 72  1  0
 28 73  1  0
 28 74  1  0
 28 75  1  0
 29 76  1  0
 29 77  1  0
 30 78  1  0
 30 79  1  0
 32 80  1  0
 32 81  1  0
 32 82  1  0
M  END
>  <meeko>  (17) 
{"is_sidechain": [false], "intermolecular_energy": 2.731, "internal_energy": -0.839}

$$$$
EPH_relaxed_0001_pdb2pqr_Repair_153_r2_0001_out
     RDKit          3D

 82 86  0  0  0  0  0  0  0  0999 V2000
    0.1020   10.1790    1.8390 C   0  0  0  0  0  0  0  0  0  0  0  0
    0.3660   10.4410    0.3530 C   0  0  2  0  0  0  0  0  0  0  0  0
    0.8700    9.1800   -0.3780 C   0  0  0  0  0  0  0  0  0  0  0  0
    0.0740    8.8420   -1.6410 C   0  0  0  0  0  0  0  0  0  0  0  0
   -1.2610    8.2450   -1.3130 C   0  0  2  0  0  0  0  0  0  0  0  0
   -2.2670    8.4370   -2.3160 O   0  0  0  0  0  0  0  0  0  0  0  0
   -2.5060    9.0710   -1.0490 C   0  0  0  0  0  0  0  0  0  0  0  0
   -2.4750   10.5660   -1.1010 C   0  0  0  0  0  0  0  0  0  0  0  0
   -3.6220    8.4530   -0.2660 C   0  0  0  0  0  0  0  0  0  0  0  0
    1.3760   11.5720    0.1970 C   0  0  1  0  0  0  0  0  0  0  0  0
    2.7180   11.0940   -0.4190 C   0  0  0  0  0  0  0  0  0  0  0  0
    3.2410   12.2530   -1.3060 C   0  0  0  0  0  0  0  0  0  0  0  0
    2.3680   13.4680   -0.9140 C   0  0  1  0  0  0  0  0  0  0  0  0
    3.0100   14.0160    0.3990 C   0  0  0  0  0  0  0  0  0  0  0  0
    2.2190   14.5890   -1.9950 C   0  0  2  0  0  0  0  0  0  0  0  0
    3.5290   15.2910   -2.3920 C   0  0  0  0  0  0  0  0  0  0  0  0
    3.8730   16.5020   -1.5880 C   0  0  0  0  0  0  0  0  0  0  0  0
    3.0280   17.1710   -0.7820 C   0  0  0  0  0  0  0  0  0  0  0  0
    1.5470   16.7780   -0.6930 C   0  0  1  0  0  0  0  0  0  0  0  0
    0.6670   18.0530   -0.7850 C   0  0  0  0  0  0  0  0  0  0  0  0
    1.0550   19.1070    0.2480 C   0  0  0  0  0  0  0  0  0  0  0  0
    2.5170   19.5140    0.0900 C   0  0  2  0  0  0  0  0  0  0  0  0
    2.6740   20.1940   -1.1590 O   0  0  0  0  0  0  0  0  0  0  0  0
    3.4990   18.3100    0.1550 C   0  0  0  0  0  0  0  0  0  0  0  0
    3.5500   17.7590    1.6020 C   0  0  0  0  0  0  0  0  0  0  0  0
    4.9240   18.8380   -0.1590 C   0  0  0  0  0  0  0  0  0  0  0  0
    1.0720   15.6350   -1.6890 C   0  0  1  0  0  0  0  0  0  0  0  0
    0.6620   16.2590   -3.0580 C   0  0  0  0  0  0  0  0  0  0  0  0
   -0.2220   14.9520   -1.1080 C   0  0  0  0  0  0  0  0  0  0  0  0
   -0.0090   13.7730   -0.1380 C   0  0  0  0  0  0  0  0  0  0  0  0
    0.9800   12.7580   -0.7180 C   0  0  2  0  0  0  0  0  0  0  0  0
    0.3520   12.1730   -2.0290 C   0  0  0  0  0  0  0  0  0  0  0  0
    0.7529   10.8250    2.4465 H   0  0  0  0  0  0  0  0  0  0  0  0
   -0.9509   10.3994    2.0688 H   0  0  0  0  0  0  0  0  0  0  0  0
    0.3144    9.1245    2.0688 H   0  0  0  0  0  0  0  0  0  0  0  0
   -0.5902   10.7297   -0.1078 H   0  0  0  0  0  0  0  0  0  0  0  0
    1.9207    9.3397   -0.6619 H   0  0  0  0  0  0  0  0  0  0  0  0
    0.7467    8.3352    0.3156 H   0  0  0  0  0  0  0  0  0  0  0  0
   -0.0807    9.7633   -2.2218 H   0  0  0  0  0  0  0  0  0  0  0  0
    0.6471    8.1023   -2.2193 H   0  0  0  0  0  0  0  0  0  0  0  0
   -0.7830    7.4301   -0.7495 H   0  0  0  0  0  0  0  0  0  0  0  0
   -2.4667   10.9684   -0.0773 H   0  0  0  0  0  0  0  0  0  0  0  0
   -1.5698   10.8957   -1.6320 H   0  0  0  0  0  0  0  0  0  0  0  0
   -3.3657   10.9330   -1.6320 H   0  0  0  0  0  0  0  0  0  0  0  0
   -3.4208    8.5644    0.8097 H   0  0  0  0  0  0  0  0  0  0  0  0
   -4.5678    8.9559   -0.5161 H   0  0  0  0  0  0  0  0  0  0  0  0
   -3.6976    7.3845   -0.5161 H   0  0  0  0  0  0  0  0  0  0  0  0
    1.4392   11.9080    1.2425 H   0  0  0  0  0  0  0  0  0  0  0  0
    3.4423   10.8705    0.3781 H   0  0  0  0  0  0  0  0  0  0  0  0
    2.5769   10.1771   -1.0100 H   0  0  0  0  0  0  0  0  0  0  0  0
    4.3022   12.4536   -1.0971 H   0  0  0  0  0  0  0  0  0  0  0  0
    3.1745   12.0201   -2.3790 H   0  0  0  0  0  0  0  0  0  0  0  0
    2.4973   13.5784    1.2682 H   0  0  0  0  0  0  0  0  0  0  0  0
    4.0757   13.7448    0.4270 H   0  0  0  0  0  0  0  0  0  0  0  0
    2.9095   15.1110    0.4270 H   0  0  0  0  0  0  0  0  0  0  0  0
    1.9045   14.0208   -2.8828 H   0  0  0  0  0  0  0  0  0  0  0  0
    4.3494   14.5664   -2.2831 H   0  0  0  0  0  0  0  0  0  0  0  0
    3.3853   15.6420   -3.4246 H   0  0  0  0  0  0  0  0  0  0  0  0
    4.9039   16.8787   -1.6609 H   0  0  0  0  0  0  0  0  0  0  0  0
    1.4162   16.3043    0.2911 H   0  0  0  0  0  0  0  0  0  0  0  0
    0.7780   18.4864   -1.7899 H   0  0  0  0  0  0  0  0  0  0  0  0
   -0.3731   17.7562   -0.5850 H   0  0  0  0  0  0  0  0  0  0  0  0
    0.4181   19.9938    0.1140 H   0  0  0  0  0  0  0  0  0  0  0  0
    0.9159   18.6814    1.2527 H   0  0  0  0  0  0  0  0  0  0  0  0
    2.7691   20.1712    0.9353 H   0  0  0  0  0  0  0  0  0  0  0  0
    3.5690   20.0050   -1.4880 H   0  0  0  0  0  0  0  0  0  0  0  0
    3.4728   18.5931    2.3149 H   0  0  0  0  0  0  0  0  0  0  0  0
    2.7124   17.0635    1.7593 H   0  0  0  0  0  0  0  0  0  0  0  0
    4.5010   17.2291    1.7593 H   0  0  0  0  0  0  0  0  0  0  0  0
    5.4575   19.0357    0.7824 H   0  0  0  0  0  0  0  0  0  0  0  0
    5.4744   18.0841   -0.7410 H   0  0  0  0  0  0  0  0  0  0  0  0
    4.8503   19.7685   -0.7410 H   0  0  0  0  0  0  0  0  0  0  0  0
    0.0656   17.1667   -2.8833 H   0  0  0  0  0  0  0  0  0  0  0  0
    1.5662   16.5185   -3.6282 H   0  0  0  0  0  0  0  0  0  0  0  0
    0.0650   15.5321   -3.6282 H   0  0  0  0  0  0  0  0  0  0  0  0
   -0.7943   15.7241   -0.5729 H   0  0  0  0  0  0  0  0  0  0  0  0
   -0.7353   14.5191   -1.9793 H   0  0  0  0  0  0  0  0  0  0  0  0
    0.3863   14.1571    0.8139 H   0  0  0  0  0  0  0  0  0  0  0  0
   -0.9746   13.2706    0.0208 H   0  0  0  0  0  0  0  0  0  0  0  0
   -0.4299   11.4447   -1.7677 H   0  0  0  0  0  0  0  0  0  0  0  0
   -0.0897   12.9890   -2.6198 H   0  0  0  0  0  0  0  0  0  0  0  0
    1.1347   11.6746   -2.6198 H   0  0  0  0  0  0  0  0  0  0  0  0
  1  2  1  0
  2  3  1  0
  3  4  1  0
  4  5  1  0
  5  6  1  0
  6  7  1  0
  7  8  1  0
  7  9  1  0
  2 10  1  0
 10 11  1  0
 11 12  1  0
 12 13  1  0
 13 14  1  1
 13 15  1  0
 15 16  1  0
 16 17  1  0
 17 18  2  0
 18 19  1  0
 19 20  1  0
 20 21  1  0
 21 22  1  0
 22 23  1  0
 22 24  1  0
 24 25  1  0
 24 26  1  0
 19 27  1  0
 27 28  1  6
 27 29  1  0
 29 30  1  0
 30 31  1  0
 31 32  1  6
  7  5  1  0
 31 10  1  0
 31 13  1  0
 27 15  1  0
 24 18  1  0
  1 33  1  0
  1 34  1  0
  1 35  1  0
  2 36  1  6
  3 37  1  0
  3 38  1  0
  4 39  1  0
  4 40  1  0
  5 41  1  1
  8 42  1  0
  8 43  1  0
  8 44  1  0
  9 45  1  0
  9 46  1  0
  9 47  1  0
 10 48  1  1
 11 49  1  0
 11 50  1  0
 12 51  1  0
 12 52  1  0
 14 53  1  0
 14 54  1  0
 14 55  1  0
 15 56  1  6
 16 57  1  0
 16 58  1  0
 17 59  1  0
 19 60  1  1
 20 61  1  0
 20 62  1  0
 21 63  1  0
 21 64  1  0
 22 65  1  1
 23 66  1  0
 25 67  1  0
 25 68  1  0
 25 69  1  0
 26 70  1  0
 26 71  1  0
 26 72  1  0
 28 73  1  0
 28 74  1  0
 28 75  1  0
 29 76  1  0
 29 77  1  0
 30 78  1  0
 30 79  1  0
 32 80  1  0
 32 81  1  0
 32 82  1  0
M  END
>  <meeko>  (18) 
{"is_sidechain": [false], "intermolecular_energy": 2.731, "internal_energy": -0.839}

$$$$
