EPH_relaxed_0001_pdb2pqr_Repair_130_r2_0001_out
     RDKit          3D

 82 86  0  0  0  0  0  0  0  0999 V2000
   -1.3750    8.4660   -1.5380 C   0  0  0  0  0  0  0  0  0  0  0  0
   -1.9670    9.2530   -0.3650 C   0  0  2  0  0  0  0  0  0  0  0  0
   -3.4100    9.7160   -0.6460 C   0  0  0  0  0  0  0  0  0  0  0  0
   -4.4600    8.6230   -0.4280 C   0  0  0  0  0  0  0  0  0  0  0  0
   -4.9780    8.0850   -1.7280 C   0  0  2  0  0  0  0  0  0  0  0  0
   -6.0900    8.8060   -2.2740 O   0  0  0  0  0  0  0  0  0  0  0  0
   -6.3460    7.4480   -1.8840 C   0  0  0  0  0  0  0  0  0  0  0  0
   -7.2820    7.3140   -0.7240 C   0  0  0  0  0  0  0  0  0  0  0  0
   -6.5770    6.5220   -3.0380 C   0  0  0  0  0  0  0  0  0  0  0  0
   -1.0860   10.4560   -0.0500 C   0  0  1  0  0  0  0  0  0  0  0  0
    0.0140   10.1340    0.9970 C   0  0  0  0  0  0  0  0  0  0  0  0
    1.2620   10.9670    0.6060 C   0  0  0  0  0  0  0  0  0  0  0  0
    0.7420   11.9810   -0.4400 C   0  0  1  0  0  0  0  0  0  0  0  0
    0.0860   13.1220    0.3990 C   0  0  0  0  0  0  0  0  0  0  0  0
    1.7990   12.5390   -1.4470 C   0  0  2  0  0  0  0  0  0  0  0  0
    2.9450   13.3440   -0.8110 C   0  0  0  0  0  0  0  0  0  0  0  0
    2.7010   14.8120   -0.6880 C   0  0  0  0  0  0  0  0  0  0  0  0
    1.7360   15.5000   -1.3250 C   0  0  0  0  0  0  0  0  0  0  0  0
    0.8250   14.8130   -2.3500 C   0  0  1  0  0  0  0  0  0  0  0  0
    0.7170   15.6970   -3.6210 C   0  0  0  0  0  0  0  0  0  0  0  0
    0.2720   17.1220   -3.3070 C   0  0  0  0  0  0  0  0  0  0  0  0
    1.2350   17.7910   -2.3300 C   0  0  2  0  0  0  0  0  0  0  0  0
    2.4980   17.9700   -2.9780 O   0  0  0  0  0  0  0  0  0  0  0  0
    1.4310   16.9860   -1.0150 C   0  0  0  0  0  0  0  0  0  0  0  0
    0.1360   17.0500   -0.1680 C   0  0  0  0  0  0  0  0  0  0  0  0
    2.5310   17.6970   -0.1800 C   0  0  0  0  0  0  0  0  0  0  0  0
    1.1760   13.3000   -2.6870 C   0  0  1  0  0  0  0  0  0  0  0  0
    2.2390   13.2420   -3.8260 C   0  0  0  0  0  0  0  0  0  0  0  0
   -0.1110   12.5850   -3.2430 C   0  0  0  0  0  0  0  0  0  0  0  0
   -1.0560   11.9500   -2.2050 C   0  0  0  0  0  0  0  0  0  0  0  0
   -0.2780   11.0730   -1.2200 C   0  0  2  0  0  0  0  0  0  0  0  0
    0.3740    9.9020   -2.0320 C   0  0  0  0  0  0  0  0  0  0  0  0
   -0.7558    7.6428   -1.1520 H   0  0  0  0  0  0  0  0  0  0  0  0
   -2.1898    8.0551   -2.1522 H   0  0  0  0  0  0  0  0  0  0  0  0
   -0.7543    9.1349   -2.1522 H   0  0  0  0  0  0  0  0  0  0  0  0
   -2.0002    8.5786    0.5033 H   0  0  0  0  0  0  0  0  0  0  0  0
   -3.6411   10.5581    0.0229 H   0  0  0  0  0  0  0  0  0  0  0  0
   -3.4560    9.9991   -1.7080 H   0  0  0  0  0  0  0  0  0  0  0  0
   -4.0048    7.8000    0.1424 H   0  0  0  0  0  0  0  0  0  0  0  0
   -5.3047    9.0635    0.1219 H   0  0  0  0  0  0  0  0  0  0  0  0
   -3.9709    7.7508   -2.0178 H   0  0  0  0  0  0  0  0  0  0  0  0
   -6.7156    7.3951    0.2155 H   0  0  0  0  0  0  0  0  0  0  0  0
   -8.0365    8.1133   -0.7674 H   0  0  0  0  0  0  0  0  0  0  0  0
   -7.7819    6.3351   -0.7674 H   0  0  0  0  0  0  0  0  0  0  0  0
   -6.8270    5.5198   -2.6596 H   0  0  0  0  0  0  0  0  0  0  0  0
   -7.4083    6.9004   -3.6510 H   0  0  0  0  0  0  0  0  0  0  0  0
   -5.6654    6.4656   -3.6510 H   0  0  0  0  0  0  0  0  0  0  0  0
   -1.8566   11.1638    0.2894 H   0  0  0  0  0  0  0  0  0  0  0  0
   -0.3281   10.4143    2.0042 H   0  0  0  0  0  0  0  0  0  0  0  0
    0.2450    9.0586    1.0088 H   0  0  0  0  0  0  0  0  0  0  0  0
    1.6708   11.4894    1.4835 H   0  0  0  0  0  0  0  0  0  0  0  0
    2.0751   10.3401    0.2111 H   0  0  0  0  0  0  0  0  0  0  0  0
    0.2098   12.9067    1.4706 H   0  0  0  0  0  0  0  0  0  0  0  0
    0.5716   14.0794    0.1588 H   0  0  0  0  0  0  0  0  0  0  0  0
   -0.9857   13.1840    0.1588 H   0  0  0  0  0  0  0  0  0  0  0  0
    2.2605   11.6197   -1.8367 H   0  0  0  0  0  0  0  0  0  0  0  0
    3.1230   12.9432    0.1978 H   0  0  0  0  0  0  0  0  0  0  0  0
    3.8060   13.2340   -1.4867 H   0  0  0  0  0  0  0  0  0  0  0  0
    3.3664   15.3788   -0.0202 H   0  0  0  0  0  0  0  0  0  0  0  0
   -0.1610   14.7263   -1.8701 H   0  0  0  0  0  0  0  0  0  0  0  0
    1.7022   15.7348   -4.1089 H   0  0  0  0  0  0  0  0  0  0  0  0
   -0.0429   15.2470   -4.2768 H   0  0  0  0  0  0  0  0  0  0  0  0
    0.2434   17.7041   -4.2399 H   0  0  0  0  0  0  0  0  0  0  0  0
   -0.7262   17.0848   -2.8463 H   0  0  0  0  0  0  0  0  0  0  0  0
    0.7955   18.7576   -2.0428 H   0  0  0  0  0  0  0  0  0  0  0  0
    2.9190   18.7560   -2.5900 H   0  0  0  0  0  0  0  0  0  0  0  0
    0.3959   17.0372    0.9008 H   0  0  0  0  0  0  0  0  0  0  0  0
   -0.4095   17.9762   -0.4016 H   0  0  0  0  0  0  0  0  0  0  0  0
   -0.4982   16.1821   -0.4016 H   0  0  0  0  0  0  0  0  0  0  0  0
    2.3224   17.5622    0.8916 H   0  0  0  0  0  0  0  0  0  0  0  0
    3.5123   17.2619   -0.4201 H   0  0  0  0  0  0  0  0  0  0  0  0
    2.5372   18.7704   -0.4201 H   0  0  0  0  0  0  0  0  0  0  0  0
    3.2455   13.1871   -3.3857 H   0  0  0  0  0  0  0  0  0  0  0  0
    2.0618   12.3522   -4.4480 H   0  0  0  0  0  0  0  0  0  0  0  0
    2.1597   14.1458   -4.4480 H   0  0  0  0  0  0  0  0  0  0  0  0
   -0.6894   13.3319   -3.8066 H   0  0  0  0  0  0  0  0  0  0  0  0
    0.2641   11.7433   -3.8437 H   0  0  0  0  0  0  0  0  0  0  0  0
   -1.5683   12.7487   -1.6486 H   0  0  0  0  0  0  0  0  0  0  0  0
   -1.7862   11.3202   -2.7343 H   0  0  0  0  0  0  0  0  0  0  0  0
    0.7880    9.1585   -1.3350 H   0  0  0  0  0  0  0  0  0  0  0  0
   -0.3889    9.4258   -2.6655 H   0  0  0  0  0  0  0  0  0  0  0  0
    1.1806   10.2997   -2.6655 H   0  0  0  0  0  0  0  0  0  0  0  0
  1  2  1  0
  2  3  1  0
  3  4  1  0
  4  5  1  0
  5  6  1  0
  6  7  1  0
  7  8  1  0
  7  9  1  0
  2 10  1  0
 10 11  1  0
 11 12  1  0
 12 13  1  0
 13 14  1  1
 13 15  1  0
 15 16  1  0
 16 17  1  0
 17 18  2  0
 18 19  1  0
 19 20  1  0
 20 21  1  0
 21 22  1  0
 22 23  1  0
 22 24  1  0
 24 25  1  0
 24 26  1  0
 19 27  1  0
 27 28  1  6
 27 29  1  0
 29 30  1  0
 30 31  1  0
 31 32  1  6
  7  5  1  0
 31 10  1  0
 31 13  1  0
 27 15  1  0
 24 18  1  0
  1 33  1  0
  1 34  1  0
  1 35  1  0
  2 36  1  1
  3 37  1  0
  3 38  1  0
  4 39  1  0
  4 40  1  0
  5 41  1  6
  8 42  1  0
  8 43  1  0
  8 44  1  0
  9 45  1  0
  9 46  1  0
  9 47  1  0
 10 48  1  1
 11 49  1  0
 11 50  1  0
 12 51  1  0
 12 52  1  0
 14 53  1  0
 14 54  1  0
 14 55  1  0
 15 56  1  6
 16 57  1  0
 16 58  1  0
 17 59  1  0
 19 60  1  1
 20 61  1  0
 20 62  1  0
 21 63  1  0
 21 64  1  0
 22 65  1  1
 23 66  1  0
 25 67  1  0
 25 68  1  0
 25 69  1  0
 26 70  1  0
 26 71  1  0
 26 72  1  0
 28 73  1  0
 28 74  1  0
 28 75  1  0
 29 76  1  0
 29 77  1  0
 30 78  1  0
 30 79  1  0
 32 80  1  0
 32 81  1  0
 32 82  1  0
M  END
>  <meeko>  (1) 
{"is_sidechain": [false], "intermolecular_energy": 2.731, "internal_energy": -0.839}

$$$$
EPH_relaxed_0001_pdb2pqr_Repair_130_r2_0001_out
     RDKit          3D

 82 86  0  0  0  0  0  0  0  0999 V2000
    2.2790   19.3330   -0.8030 C   0  0  0  0  0  0  0  0  0  0  0  0
    2.4350   18.2280    0.2460 C   0  0  2  0  0  0  0  0  0  0  0  0
    3.8730   17.6730    0.2960 C   0  0  0  0  0  0  0  0  0  0  0  0
    4.8590   18.5850    1.0310 C   0  0  0  0  0  0  0  0  0  0  0  0
    4.2900   19.0900    2.3230 C   0  0  2  0  0  0  0  0  0  0  0  0
    5.0020   20.1920    2.9000 O   0  0  0  0  0  0  0  0  0  0  0  0
    5.0060   18.9700    3.6550 C   0  0  0  0  0  0  0  0  0  0  0  0
    6.3520   18.3250    3.7630 C   0  0  0  0  0  0  0  0  0  0  0  0
    4.1940   19.0350    4.9110 C   0  0  0  0  0  0  0  0  0  0  0  0
    1.4510   17.0990   -0.0380 C   0  0  1  0  0  0  0  0  0  0  0  0
    0.1840   17.5860   -0.7890 C   0  0  0  0  0  0  0  0  0  0  0  0
   -0.2370   16.4410   -1.7460 C   0  0  0  0  0  0  0  0  0  0  0  0
    0.5900   15.2200   -1.2800 C   0  0  1  0  0  0  0  0  0  0  0  0
   -0.1900   14.6520   -0.0540 C   0  0  0  0  0  0  0  0  0  0  0  0
    0.8590   14.1170   -2.3550 C   0  0  2  0  0  0  0  0  0  0  0  0
   -0.3980   13.4210   -2.9040 C   0  0  0  0  0  0  0  0  0  0  0  0
   -0.8250   12.1970   -2.1620 C   0  0  0  0  0  0  0  0  0  0  0  0
   -0.0720   11.5160   -1.2790 C   0  0  0  0  0  0  0  0  0  0  0  0
    1.3890   11.9070   -1.0220 C   0  0  1  0  0  0  0  0  0  0  0  0
    2.2760   10.6350   -1.0370 C   0  0  0  0  0  0  0  0  0  0  0  0
    1.7810    9.5650   -0.0690 C   0  0  0  0  0  0  0  0  0  0  0  0
    0.3450    9.1600   -0.3930 C   0  0  2  0  0  0  0  0  0  0  0  0
    0.3270    8.4990   -1.6620 O   0  0  0  0  0  0  0  0  0  0  0  0
   -0.6400   10.3620   -0.4160 C   0  0  0  0  0  0  0  0  0  0  0  0
   -0.8510   10.8900    1.0240 C   0  0  0  0  0  0  0  0  0  0  0  0
   -2.0220    9.8380   -0.8930 C   0  0  0  0  0  0  0  0  0  0  0  0
    1.9680   13.0660   -1.9420 C   0  0  1  0  0  0  0  0  0  0  0  0
    2.5260   12.4640   -3.2680 C   0  0  0  0  0  0  0  0  0  0  0  0
    3.1890   13.7410   -1.2120 C   0  0  0  0  0  0  0  0  0  0  0  0
    2.8690   14.9040   -0.2530 C   0  0  0  0  0  0  0  0  0  0  0  0
    1.9470   15.9280   -0.9220 C   0  0  2  0  0  0  0  0  0  0  0  0
    2.7140   16.5340   -2.1470 C   0  0  0  0  0  0  0  0  0  0  0  0
    2.1424   20.3009   -0.2985 H   0  0  0  0  0  0  0  0  0  0  0  0
    3.1806   19.3714   -1.4320 H   0  0  0  0  0  0  0  0  0  0  0  0
    1.4020   19.1203   -1.4320 H   0  0  0  0  0  0  0  0  0  0  0  0
    2.2182   18.6721    1.2287 H   0  0  0  0  0  0  0  0  0  0  0  0
    3.8521   16.6997    0.8081 H   0  0  0  0  0  0  0  0  0  0  0  0
    4.2230   17.5925   -0.7437 H   0  0  0  0  0  0  0  0  0  0  0  0
    5.7779   18.0189    1.2433 H   0  0  0  0  0  0  0  0  0  0  0  0
    5.0698   19.4516    0.3872 H   0  0  0  0  0  0  0  0  0  0  0  0
    3.2709   18.8232    2.0064 H   0  0  0  0  0  0  0  0  0  0  0  0
    6.6143   18.1993    4.8238 H   0  0  0  0  0  0  0  0  0  0  0  0
    6.3274   17.3408    3.2723 H   0  0  0  0  0  0  0  0  0  0  0  0
    7.1037   18.9607    3.2723 H   0  0  0  0  0  0  0  0  0  0  0  0
    4.8625   18.9815    5.7830 H   0  0  0  0  0  0  0  0  0  0  0  0
    3.6331   19.9809    4.9365 H   0  0  0  0  0  0  0  0  0  0  0  0
    3.4898   18.1904    4.9365 H   0  0  0  0  0  0  0  0  0  0  0  0
    1.2748   16.7461    0.9888 H   0  0  0  0  0  0  0  0  0  0  0  0
   -0.6235   17.7968   -0.0724 H   0  0  0  0  0  0  0  0  0  0  0  0
    0.3872   18.5121   -1.3467 H   0  0  0  0  0  0  0  0  0  0  0  0
   -1.3143   16.2371   -1.6575 H   0  0  0  0  0  0  0  0  0  0  0  0
   -0.0541   16.6907   -2.8015 H   0  0  0  0  0  0  0  0  0  0  0  0
    0.2855   14.9983    0.8755 H   0  0  0  0  0  0  0  0  0  0  0  0
   -1.2314   15.0047   -0.0866 H   0  0  0  0  0  0  0  0  0  0  0  0
   -0.1740   13.5526   -0.0866 H   0  0  0  0  0  0  0  0  0  0  0  0
    1.2681   14.6997   -3.1935 H   0  0  0  0  0  0  0  0  0  0  0  0
   -1.2271   14.1433   -2.8738 H   0  0  0  0  0  0  0  0  0  0  0  0
   -0.1416   13.0869   -3.9202 H   0  0  0  0  0  0  0  0  0  0  0  0
   -1.8407   11.8206   -2.3536 H   0  0  0  0  0  0  0  0  0  0  0  0
    1.4102   12.3643   -0.0218 H   0  0  0  0  0  0  0  0  0  0  0  0
    2.2760   10.2171   -2.0545 H   0  0  0  0  0  0  0  0  0  0  0  0
    3.2874   10.9296   -0.7202 H   0  0  0  0  0  0  0  0  0  0  0  0
    2.4308    8.6808   -0.1464 H   0  0  0  0  0  0  0  0  0  0  0  0
    1.8092    9.9741    0.9517 H   0  0  0  0  0  0  0  0  0  0  0  0
    0.0028    8.4892    0.4089 H   0  0  0  0  0  0  0  0  0  0  0  0
    1.2000    8.0910   -1.7930 H   0  0  0  0  0  0  0  0  0  0  0  0
   -0.5430   10.1193    1.7459 H   0  0  0  0  0  0  0  0  0  0  0  0
   -0.2459   11.7962    1.1746 H   0  0  0  0  0  0  0  0  0  0  0  0
   -1.9140   11.1296    1.1746 H   0  0  0  0  0  0  0  0  0  0  0  0
   -2.6461    9.6014   -0.0186 H   0  0  0  0  0  0  0  0  0  0  0  0
   -2.5178   10.6106   -1.4991 H   0  0  0  0  0  0  0  0  0  0  0  0
   -1.8809    8.9309   -1.4991 H   0  0  0  0  0  0  0  0  0  0  0  0
    3.2566   11.6757   -3.0339 H   0  0  0  0  0  0  0  0  0  0  0  0
    1.6988   12.0353   -3.8527 H   0  0  0  0  0  0  0  0  0  0  0  0
    3.0162   13.2564   -3.8527 H   0  0  0  0  0  0  0  0  0  0  0  0
    3.7012   12.9609   -0.6297 H   0  0  0  0  0  0  0  0  0  0  0  0
    3.7930   14.1883   -2.0152 H   0  0  0  0  0  0  0  0  0  0  0  0
    2.3728   14.5048    0.6439 H   0  0  0  0  0  0  0  0  0  0  0  0
    3.8104   15.4041    0.0184 H   0  0  0  0  0  0  0  0  0  0  0  0
    3.5295   17.1783   -1.7867 H   0  0  0  0  0  0  0  0  0  0  0  0
    3.1322   15.7198   -2.7570 H   0  0  0  0  0  0  0  0  0  0  0  0
    2.0186   17.1292   -2.7570 H   0  0  0  0  0  0  0  0  0  0  0  0
  1  2  1  0
  2  3  1  0
  3  4  1  0
  4  5  1  0
  5  6  1  0
  6  7  1  0
  7  8  1  0
  7  9  1  0
  2 10  1  0
 10 11  1  0
 11 12  1  0
 12 13  1  0
 13 14  1  1
 13 15  1  0
 15 16  1  0
 16 17  1  0
 17 18  2  0
 18 19  1  0
 19 20  1  0
 20 21  1  0
 21 22  1  0
 22 23  1  0
 22 24  1  0
 24 25  1  0
 24 26  1  0
 19 27  1  0
 27 28  1  6
 27 29  1  0
 29 30  1  0
 30 31  1  0
 31 32  1  6
  7  5  1  0
 31 10  1  0
 31 13  1  0
 27 15  1  0
 24 18  1  0
  1 33  1  0
  1 34  1  0
  1 35  1  0
  2 36  1  1
  3 37  1  0
  3 38  1  0
  4 39  1  0
  4 40  1  0
  5 41  1  1
  8 42  1  0
  8 43  1  0
  8 44  1  0
  9 45  1  0
  9 46  1  0
  9 47  1  0
 10 48  1  1
 11 49  1  0
 11 50  1  0
 12 51  1  0
 12 52  1  0
 14 53  1  0
 14 54  1  0
 14 55  1  0
 15 56  1  6
 16 57  1  0
 16 58  1  0
 17 59  1  0
 19 60  1  1
 20 61  1  0
 20 62  1  0
 21 63  1  0
 21 64  1  0
 22 65  1  1
 23 66  1  0
 25 67  1  0
 25 68  1  0
 25 69  1  0
 26 70  1  0
 26 71  1  0
 26 72  1  0
 28 73  1  0
 28 74  1  0
 28 75  1  0
 29 76  1  0
 29 77  1  0
 30 78  1  0
 30 79  1  0
 32 80  1  0
 32 81  1  0
 32 82  1  0
M  END
>  <meeko>  (2) 
{"is_sidechain": [false], "intermolecular_energy": 2.731, "internal_energy": -0.839}

$$$$
EPH_relaxed_0001_pdb2pqr_Repair_130_r2_0001_out
     RDKit          3D

 82 86  0  0  0  0  0  0  0  0999 V2000
    1.9710   18.2420   -2.6300 C   0  0  0  0  0  0  0  0  0  0  0  0
    0.4580   18.0080   -2.6730 C   0  0  2  0  0  0  0  0  0  0  0  0
   -0.2370   18.4610   -1.3730 C   0  0  0  0  0  0  0  0  0  0  0  0
    0.4960   18.0270   -0.1000 C   0  0  0  0  0  0  0  0  0  0  0  0
    1.1120   19.1940    0.6100 C   0  0  2  0  0  0  0  0  0  0  0  0
    2.0410   19.9510   -0.1760 O   0  0  0  0  0  0  0  0  0  0  0  0
    2.5840   19.2730    0.9680 C   0  0  0  0  0  0  0  0  0  0  0  0
    3.5310   18.1660    0.6260 C   0  0  0  0  0  0  0  0  0  0  0  0
    3.0040   20.1940    2.0710 C   0  0  0  0  0  0  0  0  0  0  0  0
    0.1670   16.5350   -2.9340 C   0  0  1  0  0  0  0  0  0  0  0  0
    0.2230   16.1730   -4.4420 C   0  0  0  0  0  0  0  0  0  0  0  0
    0.7930   14.7340   -4.5360 C   0  0  0  0  0  0  0  0  0  0  0  0
    0.7330   14.1960   -3.0870 C   0  0  1  0  0  0  0  0  0  0  0  0
   -0.7450   13.7340   -2.8920 C   0  0  0  0  0  0  0  0  0  0  0  0
    1.7450   13.0600   -2.7290 C   0  0  2  0  0  0  0  0  0  0  0  0
    1.5720   11.7560   -3.5280 C   0  0  0  0  0  0  0  0  0  0  0  0
    0.6570   10.7490   -2.9140 C   0  0  0  0  0  0  0  0  0  0  0  0
    0.2240   10.7600   -1.6400 C   0  0  0  0  0  0  0  0  0  0  0  0
    0.7360   11.8070   -0.6430 C   0  0  1  0  0  0  0  0  0  0  0  0
    1.1210   11.1100    0.6880 C   0  0  0  0  0  0  0  0  0  0  0  0
   -0.0160   10.2690    1.2590 C   0  0  0  0  0  0  0  0  0  0  0  0
   -0.4580    9.2020    0.2610 C   0  0  2  0  0  0  0  0  0  0  0  0
    0.6040    8.2580    0.0940 O   0  0  0  0  0  0  0  0  0  0  0  0
   -0.8620    9.7850   -1.1220 C   0  0  0  0  0  0  0  0  0  0  0  0
   -2.1930   10.5660   -0.9890 C   0  0  0  0  0  0  0  0  0  0  0  0
   -1.1500    8.5950   -2.0760 C   0  0  0  0  0  0  0  0  0  0  0  0
    1.8780   12.7740   -1.1790 C   0  0  1  0  0  0  0  0  0  0  0  0
    3.2760   12.1160   -0.9650 C   0  0  0  0  0  0  0  0  0  0  0  0
    1.8750   14.0970   -0.3240 C   0  0  0  0  0  0  0  0  0  0  0  0
    0.9410   15.2270   -0.7970 C   0  0  0  0  0  0  0  0  0  0  0  0
    1.1220   15.4970   -2.2940 C   0  0  2  0  0  0  0  0  0  0  0  0
    2.5940   15.9860   -2.5180 C   0  0  0  0  0  0  0  0  0  0  0  0
    2.3044   18.2936   -1.5830 H   0  0  0  0  0  0  0  0  0  0  0  0
    2.4849   17.4127   -3.1380 H   0  0  0  0  0  0  0  0  0  0  0  0
    2.2103   19.1878   -3.1380 H   0  0  0  0  0  0  0  0  0  0  0  0
    0.0520   18.6178   -3.4936 H   0  0  0  0  0  0  0  0  0  0  0  0
   -0.3028   19.5590   -1.3787 H   0  0  0  0  0  0  0  0  0  0  0  0
   -1.2268   17.9816   -1.3535 H   0  0  0  0  0  0  0  0  0  0  0  0
   -0.2213   17.5372    0.5750 H   0  0  0  0  0  0  0  0  0  0  0  0
    1.3021   17.3359   -0.3872 H   0  0  0  0  0  0  0  0  0  0  0  0
    0.1988   19.3441    1.2046 H   0  0  0  0  0  0  0  0  0  0  0  0
    3.9171   17.7146    1.5518 H   0  0  0  0  0  0  0  0  0  0  0  0
    3.0035   17.4010    0.0374 H   0  0  0  0  0  0  0  0  0  0  0  0
    4.3685   18.5686    0.0374 H   0  0  0  0  0  0  0  0  0  0  0  0
    2.7898   19.7244    3.0424 H   0  0  0  0  0  0  0  0  0  0  0  0
    4.0826   20.3945    1.9905 H   0  0  0  0  0  0  0  0  0  0  0  0
    2.4482   21.1398    1.9905 H   0  0  0  0  0  0  0  0  0  0  0  0
   -0.8304   16.4604   -2.4761 H   0  0  0  0  0  0  0  0  0  0  0  0
   -0.7862   16.2099   -4.8781 H   0  0  0  0  0  0  0  0  0  0  0  0
    0.8534   16.8844   -4.9957 H   0  0  0  0  0  0  0  0  0  0  0  0
    0.1776   14.1154   -5.2058 H   0  0  0  0  0  0  0  0  0  0  0  0
    1.8134   14.7151   -4.9464 H   0  0  0  0  0  0  0  0  0  0  0  0
   -0.9685   13.6641   -1.8172 H   0  0  0  0  0  0  0  0  0  0  0  0
   -1.4220   14.4634   -3.3607 H   0  0  0  0  0  0  0  0  0  0  0  0
   -0.8861   12.7489   -3.3607 H   0  0  0  0  0  0  0  0  0  0  0  0
    2.7038   13.4874   -3.0577 H   0  0  0  0  0  0  0  0  0  0  0  0
    1.1750   12.0155   -4.5205 H   0  0  0  0  0  0  0  0  0  0  0  0
    2.5654   11.2848   -3.5605 H   0  0  0  0  0  0  0  0  0  0  0  0
    0.3070    9.9284   -3.5575 H   0  0  0  0  0  0  0  0  0  0  0  0
   -0.1012   12.4998   -0.4722 H   0  0  0  0  0  0  0  0  0  0  0  0
    1.9862   10.4557    0.5058 H   0  0  0  0  0  0  0  0  0  0  0  0
    1.3547   11.8964    1.4208 H   0  0  0  0  0  0  0  0  0  0  0  0
    0.3269    9.7788    2.1821 H   0  0  0  0  0  0  0  0  0  0  0  0
   -0.8703   10.9292    1.4694 H   0  0  0  0  0  0  0  0  0  0  0  0
   -1.3571    8.7194    0.6718 H   0  0  0  0  0  0  0  0  0  0  0  0
    1.3170    8.5060    0.7070 H   0  0  0  0  0  0  0  0  0  0  0  0
   -2.4313   10.7058    0.0757 H   0  0  0  0  0  0  0  0  0  0  0  0
   -2.0919   11.5480   -1.4741 H   0  0  0  0  0  0  0  0  0  0  0  0
   -3.0010    9.9988   -1.4741 H   0  0  0  0  0  0  0  0  0  0  0  0
   -1.3680    7.6943   -1.4833 H   0  0  0  0  0  0  0  0  0  0  0  0
   -2.0160    8.8349   -2.7104 H   0  0  0  0  0  0  0  0  0  0  0  0
   -0.2701    8.4124   -2.7104 H   0  0  0  0  0  0  0  0  0  0  0  0
    3.4759   12.0219    0.1126 H   0  0  0  0  0  0  0  0  0  0  0  0
    3.2865   11.1184   -1.4283 H   0  0  0  0  0  0  0  0  0  0  0  0
    4.0515   12.7437   -1.4283 H   0  0  0  0  0  0  0  0  0  0  0  0
    1.5812   13.8297    0.7018 H   0  0  0  0  0  0  0  0  0  0  0  0
    2.8921   14.5046   -0.4205 H   0  0  0  0  0  0  0  0  0  0  0  0
   -0.1024   14.9345   -0.6076 H   0  0  0  0  0  0  0  0  0  0  0  0
    1.1905   16.1436   -0.2425 H   0  0  0  0  0  0  0  0  0  0  0  0
    3.0791   16.1471   -1.5440 H   0  0  0  0  0  0  0  0  0  0  0  0
    3.1512   15.2247   -3.0836 H   0  0  0  0  0  0  0  0  0  0  0  0
    2.5849   16.9294   -3.0836 H   0  0  0  0  0  0  0  0  0  0  0  0
  1  2  1  0
  2  3  1  0
  3  4  1  0
  4  5  1  0
  5  6  1  0
  6  7  1  0
  7  8  1  0
  7  9  1  0
  2 10  1  0
 10 11  1  0
 11 12  1  0
 12 13  1  0
 13 14  1  1
 13 15  1  0
 15 16  1  0
 16 17  1  0
 17 18  2  0
 18 19  1  0
 19 20  1  0
 20 21  1  0
 21 22  1  0
 22 23  1  0
 22 24  1  0
 24 25  1  0
 24 26  1  0
 19 27  1  0
 27 28  1  6
 27 29  1  0
 29 30  1  0
 30 31  1  0
 31 32  1  1
  7  5  1  0
 31 10  1  0
 31 13  1  0
 27 15  1  0
 24 18  1  0
  1 33  1  0
  1 34  1  0
  1 35  1  0
  2 36  1  6
  3 37  1  0
  3 38  1  0
  4 39  1  0
  4 40  1  0
  5 41  1  1
  8 42  1  0
  8 43  1  0
  8 44  1  0
  9 45  1  0
  9 46  1  0
  9 47  1  0
 10 48  1  1
 11 49  1  0
 11 50  1  0
 12 51  1  0
 12 52  1  0
 14 53  1  0
 14 54  1  0
 14 55  1  0
 15 56  1  6
 16 57  1  0
 16 58  1  0
 17 59  1  0
 19 60  1  1
 20 61  1  0
 20 62  1  0
 21 63  1  0
 21 64  1  0
 22 65  1  1
 23 66  1  0
 25 67  1  0
 25 68  1  0
 25 69  1  0
 26 70  1  0
 26 71  1  0
 26 72  1  0
 28 73  1  0
 28 74  1  0
 28 75  1  0
 29 76  1  0
 29 77  1  0
 30 78  1  0
 30 79  1  0
 32 80  1  0
 32 81  1  0
 32 82  1  0
M  END
>  <meeko>  (3) 
{"is_sidechain": [false], "intermolecular_energy": 2.731, "internal_energy": -0.839}

$$$$
EPH_relaxed_0001_pdb2pqr_Repair_130_r2_0001_out
     RDKit          3D

 82 86  0  0  0  0  0  0  0  0999 V2000
    1.9750   18.3200   -2.8330 C   0  0  0  0  0  0  0  0  0  0  0  0
    0.9270   17.7470   -1.8740 C   0  0  2  0  0  0  0  0  0  0  0  0
    1.4220   17.7330   -0.4140 C   0  0  0  0  0  0  0  0  0  0  0  0
    1.2280   19.0650    0.3150 C   0  0  0  0  0  0  0  0  0  0  0  0
   -0.0280   19.7570   -0.1210 C   0  0  2  0  0  0  0  0  0  0  0  0
   -0.8740   20.1940    0.9510 O   0  0  0  0  0  0  0  0  0  0  0  0
   -1.4160   19.1820    0.0880 C   0  0  0  0  0  0  0  0  0  0  0  0
   -1.6200   17.8580    0.7560 C   0  0  0  0  0  0  0  0  0  0  0  0
   -2.5310   19.6680   -0.7850 C   0  0  0  0  0  0  0  0  0  0  0  0
    0.5410   16.3370   -2.3070 C   0  0  1  0  0  0  0  0  0  0  0  0
    0.6270   16.1400   -3.8440 C   0  0  0  0  0  0  0  0  0  0  0  0
    1.0960   14.6820   -4.0830 C   0  0  0  0  0  0  0  0  0  0  0  0
    0.9450   13.9940   -2.7060 C   0  0  1  0  0  0  0  0  0  0  0  0
   -0.5680   13.6240   -2.6060 C   0  0  0  0  0  0  0  0  0  0  0  0
    1.8610   12.7520   -2.4500 C   0  0  2  0  0  0  0  0  0  0  0  0
    1.6250   11.5610   -3.3940 C   0  0  0  0  0  0  0  0  0  0  0  0
    0.6180   10.5640   -2.9240 C   0  0  0  0  0  0  0  0  0  0  0  0
    0.1410   10.4670   -1.6690 C   0  0  0  0  0  0  0  0  0  0  0  0
    0.6900   11.3570   -0.5470 C   0  0  1  0  0  0  0  0  0  0  0  0
    0.9760   10.4910    0.7080 C   0  0  0  0  0  0  0  0  0  0  0  0
   -0.2390    9.6790    1.1480 C   0  0  0  0  0  0  0  0  0  0  0  0
   -0.7190    8.7640    0.0250 C   0  0  2  0  0  0  0  0  0  0  0  0
    0.2790    7.7680   -0.2170 O   0  0  0  0  0  0  0  0  0  0  0  0
   -1.0300    9.5250   -1.2950 C   0  0  0  0  0  0  0  0  0  0  0  0
   -2.3060   10.3830   -1.1130 C   0  0  0  0  0  0  0  0  0  0  0  0
   -1.3670    8.4720   -2.3850 C   0  0  0  0  0  0  0  0  0  0  0  0
    1.9160   12.2890   -0.9380 C   0  0  1  0  0  0  0  0  0  0  0  0
    3.2550   11.5090   -0.7600 C   0  0  0  0  0  0  0  0  0  0  0  0
    1.9760   13.5060    0.0600 C   0  0  0  0  0  0  0  0  0  0  0  0
    1.1430   14.7480   -0.3100 C   0  0  0  0  0  0  0  0  0  0  0  0
    1.3970   15.1670   -1.7610 C   0  0  2  0  0  0  0  0  0  0  0  0
    2.9070   15.5660   -1.8870 C   0  0  0  0  0  0  0  0  0  0  0  0
    2.7956   18.7686   -2.2539 H   0  0  0  0  0  0  0  0  0  0  0  0
    2.3719   17.5134   -3.4669 H   0  0  0  0  0  0  0  0  0  0  0  0
    1.5101   19.0895   -3.4669 H   0  0  0  0  0  0  0  0  0  0  0  0
    0.0453   18.4033   -1.9173 H   0  0  0  0  0  0  0  0  0  0  0  0
    0.8695   16.9545    0.1325 H   0  0  0  0  0  0  0  0  0  0  0  0
    2.5041   17.5377   -0.4436 H   0  0  0  0  0  0  0  0  0  0  0  0
    1.1731   18.8746    1.3970 H   0  0  0  0  0  0  0  0  0  0  0  0
    2.0806   19.7163    0.0725 H   0  0  0  0  0  0  0  0  0  0  0  0
    0.4764   20.1623   -1.0105 H   0  0  0  0  0  0  0  0  0  0  0  0
   -1.5995   17.9911    1.8477 H   0  0  0  0  0  0  0  0  0  0  0  0
   -2.5929   17.4418    0.4556 H   0  0  0  0  0  0  0  0  0  0  0  0
   -0.8175   17.1682    0.4556 H   0  0  0  0  0  0  0  0  0  0  0  0
   -3.3584   20.0286   -0.1563 H   0  0  0  0  0  0  0  0  0  0  0  0
   -2.1680   20.4895   -1.4201 H   0  0  0  0  0  0  0  0  0  0  0  0
   -2.8858   18.8429   -1.4201 H   0  0  0  0  0  0  0  0  0  0  0  0
   -0.4754   16.2867   -1.8893 H   0  0  0  0  0  0  0  0  0  0  0  0
   -0.3601   16.3002   -4.3022 H   0  0  0  0  0  0  0  0  0  0  0  0
    1.3266   16.8587   -4.2956 H   0  0  0  0  0  0  0  0  0  0  0  0
    0.4630   14.1887   -4.8353 H   0  0  0  0  0  0  0  0  0  0  0  0
    2.1267   14.6321   -4.4639 H   0  0  0  0  0  0  0  0  0  0  0  0
   -0.8589   13.5529   -1.5475 H   0  0  0  0  0  0  0  0  0  0  0  0
   -1.1691   14.4016   -3.1000 H   0  0  0  0  0  0  0  0  0  0  0  0
   -0.7424   12.6567   -3.1000 H   0  0  0  0  0  0  0  0  0  0  0  0
    2.8592   13.1391   -2.7025 H   0  0  0  0  0  0  0  0  0  0  0  0
    1.2848   11.9570   -4.3622 H   0  0  0  0  0  0  0  0  0  0  0  0
    2.5827   11.0228   -3.4498 H   0  0  0  0  0  0  0  0  0  0  0  0
    0.2335    9.8485   -3.6657 H   0  0  0  0  0  0  0  0  0  0  0  0
   -0.1015   12.0875   -0.3238 H   0  0  0  0  0  0  0  0  0  0  0  0
    1.7988    9.7980    0.4782 H   0  0  0  0  0  0  0  0  0  0  0  0
    1.2382   11.1721    1.5310 H   0  0  0  0  0  0  0  0  0  0  0  0
    0.0340    9.0663    2.0198 H   0  0  0  0  0  0  0  0  0  0  0  0
   -1.0514   10.3743    1.4059 H   0  0  0  0  0  0  0  0  0  0  0  0
   -1.6642    8.3069    0.3533 H   0  0  0  0  0  0  0  0  0  0  0  0
    0.8790    8.1130   -0.9000 H   0  0  0  0  0  0  0  0  0  0  0  0
   -2.5070   10.5182   -0.0400 H   0  0  0  0  0  0  0  0  0  0  0  0
   -2.1576   11.3655   -1.5849 H   0  0  0  0  0  0  0  0  0  0  0  0
   -3.1599    9.8749   -1.5849 H   0  0  0  0  0  0  0  0  0  0  0  0
   -1.6685    7.5299   -1.9039 H   0  0  0  0  0  0  0  0  0  0  0  0
   -2.1910    8.8438   -3.0117 H   0  0  0  0  0  0  0  0  0  0  0  0
   -0.4802    8.2963   -3.0117 H   0  0  0  0  0  0  0  0  0  0  0  0
    3.4675   11.3852    0.3122 H   0  0  0  0  0  0  0  0  0  0  0  0
    3.1688   10.5198   -1.2333 H   0  0  0  0  0  0  0  0  0  0  0  0
    4.0730   12.0719   -1.2333 H   0  0  0  0  0  0  0  0  0  0  0  0
    1.6261   13.1503    1.0403 H   0  0  0  0  0  0  0  0  0  0  0  0
    3.0225   13.8442    0.0397 H   0  0  0  0  0  0  0  0  0  0  0  0
    0.0752   14.5154   -0.1844 H   0  0  0  0  0  0  0  0  0  0  0  0
    1.4372   15.5768    0.3507 H   0  0  0  0  0  0  0  0  0  0  0  0
    3.3410   15.6807   -0.8828 H   0  0  0  0  0  0  0  0  0  0  0  0
    3.4495   14.7804   -2.4334 H   0  0  0  0  0  0  0  0  0  0  0  0
    2.9906   16.5171   -2.4334 H   0  0  0  0  0  0  0  0  0  0  0  0
  1  2  1  0
  2  3  1  0
  3  4  1  0
  4  5  1  0
  5  6  1  0
  6  7  1  0
  7  8  1  0
  7  9  1  0
  2 10  1  0
 10 11  1  0
 11 12  1  0
 12 13  1  0
 13 14  1  1
 13 15  1  0
 15 16  1  0
 16 17  1  0
 17 18  2  0
 18 19  1  0
 19 20  1  0
 20 21  1  0
 21 22  1  0
 22 23  1  0
 22 24  1  0
 24 25  1  0
 24 26  1  0
 19 27  1  0
 27 28  1  6
 27 29  1  0
 29 30  1  0
 30 31  1  0
 31 32  1  1
  7  5  1  0
 31 10  1  0
 31 13  1  0
 27 15  1  0
 24 18  1  0
  1 33  1  0
  1 34  1  0
  1 35  1  0
  2 36  1  1
  3 37  1  0
  3 38  1  0
  4 39  1  0
  4 40  1  0
  5 41  1  6
  8 42  1  0
  8 43  1  0
  8 44  1  0
  9 45  1  0
  9 46  1  0
  9 47  1  0
 10 48  1  1
 11 49  1  0
 11 50  1  0
 12 51  1  0
 12 52  1  0
 14 53  1  0
 14 54  1  0
 14 55  1  0
 15 56  1  6
 16 57  1  0
 16 58  1  0
 17 59  1  0
 19 60  1  1
 20 61  1  0
 20 62  1  0
 21 63  1  0
 21 64  1  0
 22 65  1  1
 23 66  1  0
 25 67  1  0
 25 68  1  0
 25 69  1  0
 26 70  1  0
 26 71  1  0
 26 72  1  0
 28 73  1  0
 28 74  1  0
 28 75  1  0
 29 76  1  0
 29 77  1  0
 30 78  1  0
 30 79  1  0
 32 80  1  0
 32 81  1  0
 32 82  1  0
M  END
>  <meeko>  (4) 
{"is_sidechain": [false], "intermolecular_energy": 2.731, "internal_energy": -0.839}

$$$$
EPH_relaxed_0001_pdb2pqr_Repair_130_r2_0001_out
     RDKit          3D

 82 86  0  0  0  0  0  0  0  0999 V2000
    3.7690   17.7720    0.6970 C   0  0  0  0  0  0  0  0  0  0  0  0
    2.7760   18.1990   -0.3880 C   0  0  2  0  0  0  0  0  0  0  0  0
    2.0790   19.5310   -0.0440 C   0  0  0  0  0  0  0  0  0  0  0  0
    0.9230   19.3830    0.9480 C   0  0  0  0  0  0  0  0  0  0  0  0
   -0.3210   20.0580    0.4540 C   0  0  2  0  0  0  0  0  0  0  0  0
   -1.3590   20.1930    1.4350 O   0  0  0  0  0  0  0  0  0  0  0  0
   -1.6560   19.3500    0.3100 C   0  0  0  0  0  0  0  0  0  0  0  0
   -1.8140   17.9030    0.6580 C   0  0  0  0  0  0  0  0  0  0  0  0
   -2.6740   19.9270   -0.6230 C   0  0  0  0  0  0  0  0  0  0  0  0
    1.7350   17.1060   -0.5990 C   0  0  1  0  0  0  0  0  0  0  0  0
    0.5160   17.5940   -1.4270 C   0  0  0  0  0  0  0  0  0  0  0  0
    0.0530   16.3930   -2.2910 C   0  0  0  0  0  0  0  0  0  0  0  0
    0.7970   15.1750   -1.6970 C   0  0  1  0  0  0  0  0  0  0  0  0
   -0.0430   14.7620   -0.4480 C   0  0  0  0  0  0  0  0  0  0  0  0
    1.0270   13.9670   -2.6630 C   0  0  2  0  0  0  0  0  0  0  0  0
   -0.2550   13.2950   -3.1840 C   0  0  0  0  0  0  0  0  0  0  0  0
   -0.7690   12.1680   -2.3500 C   0  0  0  0  0  0  0  0  0  0  0  0
   -0.0780   11.5280   -1.3890 C   0  0  0  0  0  0  0  0  0  0  0  0
    1.3970   11.8590   -1.1260 C   0  0  1  0  0  0  0  0  0  0  0  0
    2.2090   10.5430   -1.0040 C   0  0  0  0  0  0  0  0  0  0  0  0
    1.6300    9.5920    0.0390 C   0  0  0  0  0  0  0  0  0  0  0  0
    0.1810    9.2400   -0.2890 C   0  0  2  0  0  0  0  0  0  0  0  0
    0.1550    8.4710   -1.4960 O   0  0  0  0  0  0  0  0  0  0  0  0
   -0.7320   10.4880   -0.4460 C   0  0  0  0  0  0  0  0  0  0  0  0
   -0.9460   11.1530    0.9360 C   0  0  0  0  0  0  0  0  0  0  0  0
   -2.1300   10.0010   -0.9140 C   0  0  0  0  0  0  0  0  0  0  0  0
    2.0630   12.8970   -2.1280 C   0  0  1  0  0  0  0  0  0  0  0  0
    2.6170   12.1490   -3.3790 C   0  0  0  0  0  0  0  0  0  0  0  0
    3.3040   13.5660   -1.4250 C   0  0  0  0  0  0  0  0  0  0  0  0
    3.0290   14.8250   -0.5810 C   0  0  0  0  0  0  0  0  0  0  0  0
    2.1840   15.8350   -1.3630 C   0  0  2  0  0  0  0  0  0  0  0  0
    3.0130   16.2860   -2.6140 C   0  0  0  0  0  0  0  0  0  0  0  0
    3.3318   17.9600    1.6887 H   0  0  0  0  0  0  0  0  0  0  0  0
    3.9894   16.6996    0.5908 H   0  0  0  0  0  0  0  0  0  0  0  0
    4.6990   18.3497    0.5908 H   0  0  0  0  0  0  0  0  0  0  0  0
    3.3456   18.3538   -1.3162 H   0  0  0  0  0  0  0  0  0  0  0  0
    2.8256   20.2110    0.3920 H   0  0  0  0  0  0  0  0  0  0  0  0
    1.6514   19.9207   -0.9796 H   0  0  0  0  0  0  0  0  0  0  0  0
    0.7138   18.3131    1.0947 H   0  0  0  0  0  0  0  0  0  0  0  0
    1.2195   19.8599    1.8939 H   0  0  0  0  0  0  0  0  0  0  0  0
    0.2634   20.6797   -0.2402 H   0  0  0  0  0  0  0  0  0  0  0  0
   -1.8265   17.7882    1.7519 H   0  0  0  0  0  0  0  0  0  0  0  0
   -2.7586   17.5261    0.2389 H   0  0  0  0  0  0  0  0  0  0  0  0
   -0.9730   17.3311    0.2389 H   0  0  0  0  0  0  0  0  0  0  0  0
   -3.4859   20.3872   -0.0407 H   0  0  0  0  0  0  0  0  0  0  0  0
   -2.1993   20.6903   -1.2570 H   0  0  0  0  0  0  0  0  0  0  0  0
   -3.0850   19.1276   -1.2570 H   0  0  0  0  0  0  0  0  0  0  0  0
    1.5136   16.8567    0.4493 H   0  0  0  0  0  0  0  0  0  0  0  0
   -0.2950   17.9126   -0.7556 H   0  0  0  0  0  0  0  0  0  0  0  0
    0.7856   18.4539   -2.0578 H   0  0  0  0  0  0  0  0  0  0  0  0
   -1.0360   16.2574   -2.2156 H   0  0  0  0  0  0  0  0  0  0  0  0
    0.2750   16.5372   -3.3587 H   0  0  0  0  0  0  0  0  0  0  0  0
    0.5044   15.0311    0.4674 H   0  0  0  0  0  0  0  0  0  0  0  0
   -1.0090   15.2879   -0.4656 H   0  0  0  0  0  0  0  0  0  0  0  0
   -0.2164   13.6759   -0.4656 H   0  0  0  0  0  0  0  0  0  0  0  0
    1.4885   14.4493   -3.5373 H   0  0  0  0  0  0  0  0  0  0  0  0
   -1.0416   14.0618   -3.2410 H   0  0  0  0  0  0  0  0  0  0  0  0
    0.0056   12.8576   -4.1591 H   0  0  0  0  0  0  0  0  0  0  0  0
   -1.7998   11.8326   -2.5371 H   0  0  0  0  0  0  0  0  0  0  0  0
    1.4217   12.4022   -0.1698 H   0  0  0  0  0  0  0  0  0  0  0  0
    2.2092   10.0371   -1.9808 H   0  0  0  0  0  0  0  0  0  0  0  0
    3.2277   10.8080   -0.6847 H   0  0  0  0  0  0  0  0  0  0  0  0
    2.2293    8.6698    0.0575 H   0  0  0  0  0  0  0  0  0  0  0  0
    1.6575   10.0880    1.0204 H   0  0  0  0  0  0  0  0  0  0  0  0
   -0.2181    8.6634    0.5585 H   0  0  0  0  0  0  0  0  0  0  0  0
    0.8910    7.8370   -1.4560 H   0  0  0  0  0  0  0  0  0  0  0  0
   -0.7131   10.4294    1.7311 H   0  0  0  0  0  0  0  0  0  0  0  0
   -0.2835   12.0261    1.0293 H   0  0  0  0  0  0  0  0  0  0  0  0
   -1.9934   11.4759    1.0293 H   0  0  0  0  0  0  0  0  0  0  0  0
   -2.7554    9.7832   -0.0357 H   0  0  0  0  0  0  0  0  0  0  0  0
   -2.6080   10.7856   -1.5190 H   0  0  0  0  0  0  0  0  0  0  0  0
   -2.0171    9.0893   -1.5190 H   0  0  0  0  0  0  0  0  0  0  0  0
    3.2425   11.3045   -3.0541 H   0  0  0  0  0  0  0  0  0  0  0  0
    1.7779   11.7729   -3.9827 H   0  0  0  0  0  0  0  0  0  0  0  0
    3.2214   12.8420   -3.9827 H   0  0  0  0  0  0  0  0  0  0  0  0
    3.7567   12.8136   -0.7625 H   0  0  0  0  0  0  0  0  0  0  0  0
    3.9515   13.9061   -2.2467 H   0  0  0  0  0  0  0  0  0  0  0  0
    2.4893   14.5350    0.3326 H   0  0  0  0  0  0  0  0  0  0  0  0
    3.9910   15.2943   -0.3272 H   0  0  0  0  0  0  0  0  0  0  0  0
    3.9342   16.7872   -2.2821 H   0  0  0  0  0  0  0  0  0  0  0  0
    3.2726   15.4047   -3.2190 H   0  0  0  0  0  0  0  0  0  0  0  0
    2.4141   16.9827   -3.2190 H   0  0  0  0  0  0  0  0  0  0  0  0
  1  2  1  0
  2  3  1  0
  3  4  1  0
  4  5  1  0
  5  6  1  0
  6  7  1  0
  7  8  1  0
  7  9  1  0
  2 10  1  0
 10 11  1  0
 11 12  1  0
 12 13  1  0
 13 14  1  1
 13 15  1  0
 15 16  1  0
 16 17  1  0
 17 18  2  0
 18 19  1  0
 19 20  1  0
 20 21  1  0
 21 22  1  0
 22 23  1  0
 22 24  1  0
 24 25  1  0
 24 26  1  0
 19 27  1  0
 27 28  1  6
 27 29  1  0
 29 30  1  0
 30 31  1  0
 31 32  1  6
  7  5  1  0
 31 10  1  0
 31 13  1  0
 27 15  1  0
 24 18  1  0
  1 33  1  0
  1 34  1  0
  1 35  1  0
  2 36  1  6
  3 37  1  0
  3 38  1  0
  4 39  1  0
  4 40  1  0
  5 41  1  6
  8 42  1  0
  8 43  1  0
  8 44  1  0
  9 45  1  0
  9 46  1  0
  9 47  1  0
 10 48  1  1
 11 49  1  0
 11 50  1  0
 12 51  1  0
 12 52  1  0
 14 53  1  0
 14 54  1  0
 14 55  1  0
 15 56  1  6
 16 57  1  0
 16 58  1  0
 17 59  1  0
 19 60  1  1
 20 61  1  0
 20 62  1  0
 21 63  1  0
 21 64  1  0
 22 65  1  1
 23 66  1  0
 25 67  1  0
 25 68  1  0
 25 69  1  0
 26 70  1  0
 26 71  1  0
 26 72  1  0
 28 73  1  0
 28 74  1  0
 28 75  1  0
 29 76  1  0
 29 77  1  0
 30 78  1  0
 30 79  1  0
 32 80  1  0
 32 81  1  0
 32 82  1  0
M  END
>  <meeko>  (5) 
{"is_sidechain": [false], "intermolecular_energy": 2.731, "internal_energy": -0.839}

$$$$
EPH_relaxed_0001_pdb2pqr_Repair_130_r2_0001_out
     RDKit          3D

 82 86  0  0  0  0  0  0  0  0999 V2000
    3.5810   11.4550   -5.1130 C   0  0  0  0  0  0  0  0  0  0  0  0
    2.0550   11.3240   -5.1150 C   0  0  2  0  0  0  0  0  0  0  0  0
    1.4870   11.1680   -6.5400 C   0  0  0  0  0  0  0  0  0  0  0  0
    1.9940   12.2260   -7.5230 C   0  0  0  0  0  0  0  0  0  0  0  0
    0.9470   13.2590   -7.8140 C   0  0  2  0  0  0  0  0  0  0  0  0
    0.6630   13.4480   -9.2070 O   0  0  0  0  0  0  0  0  0  0  0  0
    1.2380   14.5700   -8.5190 C   0  0  0  0  0  0  0  0  0  0  0  0
    2.6200   14.9210   -8.9750 C   0  0  0  0  0  0  0  0  0  0  0  0
    0.2880   15.7120   -8.3280 C   0  0  0  0  0  0  0  0  0  0  0  0
    1.4290   12.5360   -4.4340 C   0  0  1  0  0  0  0  0  0  0  0  0
   -0.1170   12.4380   -4.3440 C   0  0  0  0  0  0  0  0  0  0  0  0
   -0.5300   13.1070   -3.0080 C   0  0  0  0  0  0  0  0  0  0  0  0
    0.7390   13.8550   -2.5370 C   0  0  1  0  0  0  0  0  0  0  0  0
    0.7430   15.1880   -3.3490 C   0  0  0  0  0  0  0  0  0  0  0  0
    0.8580   14.1140   -1.0000 C   0  0  2  0  0  0  0  0  0  0  0  0
   -0.2420   15.0090   -0.4020 C   0  0  0  0  0  0  0  0  0  0  0  0
    0.0630   16.4710   -0.3880 C   0  0  0  0  0  0  0  0  0  0  0  0
    1.2790   17.0180   -0.5710 C   0  0  0  0  0  0  0  0  0  0  0  0
    2.5250   16.1360   -0.7240 C   0  0  1  0  0  0  0  0  0  0  0  0
    3.6630   16.6880    0.1730 C   0  0  0  0  0  0  0  0  0  0  0  0
    3.9550   18.1620   -0.0930 C   0  0  0  0  0  0  0  0  0  0  0  0
    2.7070   19.0130    0.1260 C   0  0  2  0  0  0  0  0  0  0  0  0
    2.3670   18.9850    1.5150 O   0  0  0  0  0  0  0  0  0  0  0  0
    1.4900   18.5450   -0.7200 C   0  0  0  0  0  0  0  0  0  0  0  0
    1.7440   18.8580   -2.2150 C   0  0  0  0  0  0  0  0  0  0  0  0
    0.2620   19.3970   -0.3010 C   0  0  0  0  0  0  0  0  0  0  0  0
    2.2970   14.5750   -0.5300 C   0  0  1  0  0  0  0  0  0  0  0  0
    2.4120   14.2050    0.9810 C   0  0  0  0  0  0  0  0  0  0  0  0
    3.4470   13.7920   -1.2680 C   0  0  0  0  0  0  0  0  0  0  0  0
    3.2180   13.4610   -2.7550 C   0  0  0  0  0  0  0  0  0  0  0  0
    1.8430   12.8220   -2.9690 C   0  0  2  0  0  0  0  0  0  0  0  0
    1.8170   11.4670   -2.1820 C   0  0  0  0  0  0  0  0  0  0  0  0
    3.9450   11.4862   -4.0754 H   0  0  0  0  0  0  0  0  0  0  0  0
    4.0238   10.5916   -5.6311 H   0  0  0  0  0  0  0  0  0  0  0  0
    3.8702   12.3813   -5.6311 H   0  0  0  0  0  0  0  0  0  0  0  0
    1.8003   10.4109   -4.5570 H   0  0  0  0  0  0  0  0  0  0  0  0
    1.7711   10.1758   -6.9205 H   0  0  0  0  0  0  0  0  0  0  0  0
    0.3965   11.2928   -6.4671 H   0  0  0  0  0  0  0  0  0  0  0  0
    2.8743   12.7229   -7.0893 H   0  0  0  0  0  0  0  0  0  0  0  0
    2.2508   11.7225   -8.4667 H   0  0  0  0  0  0  0  0  0  0  0  0
    0.4236   13.0267   -6.8748 H   0  0  0  0  0  0  0  0  0  0  0  0
    3.2647   15.0847   -8.0989 H   0  0  0  0  0  0  0  0  0  0  0  0
    3.0265   14.0976   -9.5806 H   0  0  0  0  0  0  0  0  0  0  0  0
    2.5843   15.8386   -9.5806 H   0  0  0  0  0  0  0  0  0  0  0  0
    0.1400   15.8899   -7.2526 H   0  0  0  0  0  0  0  0  0  0  0  0
    0.7036   16.6168   -8.7956 H   0  0  0  0  0  0  0  0  0  0  0  0
   -0.6773   15.4680   -8.7956 H   0  0  0  0  0  0  0  0  0  0  0  0
    1.8056   13.3324   -5.0928 H   0  0  0  0  0  0  0  0  0  0  0  0
   -0.5800   12.9656   -5.1909 H   0  0  0  0  0  0  0  0  0  0  0  0
   -0.4493   11.3900   -4.3805 H   0  0  0  0  0  0  0  0  0  0  0  0
   -1.3596   13.8117   -3.1668 H   0  0  0  0  0  0  0  0  0  0  0  0
   -0.8818   12.3748   -2.2663 H   0  0  0  0  0  0  0  0  0  0  0  0
    0.7456   16.0407   -2.6540 H   0  0  0  0  0  0  0  0  0  0  0  0
    1.6413   15.2287   -3.9826 H   0  0  0  0  0  0  0  0  0  0  0  0
   -0.1550   15.2341   -3.9826 H   0  0  0  0  0  0  0  0  0  0  0  0
    0.6901   13.1120   -0.5782 H   0  0  0  0  0  0  0  0  0  0  0  0
   -1.1595   14.8587   -0.9899 H   0  0  0  0  0  0  0  0  0  0  0  0
   -0.3399   14.7083    0.6516 H   0  0  0  0  0  0  0  0  0  0  0  0
   -0.7774   17.1589   -0.2133 H   0  0  0  0  0  0  0  0  0  0  0  0
    2.8181   16.2037   -1.7821 H   0  0  0  0  0  0  0  0  0  0  0  0
    3.3696   16.5712    1.2267 H   0  0  0  0  0  0  0  0  0  0  0  0
    4.5760   16.1197   -0.0584 H   0  0  0  0  0  0  0  0  0  0  0  0
    4.7468   18.5014    0.5910 H   0  0  0  0  0  0  0  0  0  0  0  0
    4.2769   18.2732   -1.1390 H   0  0  0  0  0  0  0  0  0  0  0  0
    2.9434   20.0354   -0.2039 H   0  0  0  0  0  0  0  0  0  0  0  0
    3.0100   19.5420    1.9870 H   0  0  0  0  0  0  0  0  0  0  0  0
    2.4351   19.7096   -2.2990 H   0  0  0  0  0  0  0  0  0  0  0  0
    2.1861   17.9774   -2.7040 H   0  0  0  0  0  0  0  0  0  0  0  0
    0.7913   19.1093   -2.7040 H   0  0  0  0  0  0  0  0  0  0  0  0
    0.2019   19.4387    0.7966 H   0  0  0  0  0  0  0  0  0  0  0  0
    0.3689   20.4160   -0.7013 H   0  0  0  0  0  0  0  0  0  0  0  0
   -0.6551   18.9401   -0.7013 H   0  0  0  0  0  0  0  0  0  0  0  0
    2.1409   15.0773    1.5938 H   0  0  0  0  0  0  0  0  0  0  0  0
    1.7304   13.3718    1.2074 H   0  0  0  0  0  0  0  0  0  0  0  0
    3.4458   13.9049    1.2074 H   0  0  0  0  0  0  0  0  0  0  0  0
    4.3610   14.4002   -1.1993 H   0  0  0  0  0  0  0  0  0  0  0  0
    3.5030   12.8173   -0.7613 H   0  0  0  0  0  0  0  0  0  0  0  0
    3.2794   14.3882   -3.3436 H   0  0  0  0  0  0  0  0  0  0  0  0
    3.9904   12.7477   -3.0784 H   0  0  0  0  0  0  0  0  0  0  0  0
    1.8209   11.6707   -1.1010 H   0  0  0  0  0  0  0  0  0  0  0  0
    0.9079   10.9069   -2.4463 H   0  0  0  0  0  0  0  0  0  0  0  0
    2.7039   10.8724   -2.4463 H   0  0  0  0  0  0  0  0  0  0  0  0
  1  2  1  0
  2  3  1  0
  3  4  1  0
  4  5  1  0
  5  6  1  0
  6  7  1  0
  7  8  1  0
  7  9  1  0
  2 10  1  0
 10 11  1  0
 11 12  1  0
 12 13  1  0
 13 14  1  6
 13 15  1  0
 15 16  1  0
 16 17  1  0
 17 18  2  0
 18 19  1  0
 19 20  1  0
 20 21  1  0
 21 22  1  0
 22 23  1  0
 22 24  1  0
 24 25  1  0
 24 26  1  0
 19 27  1  0
 27 28  1  1
 27 29  1  0
 29 30  1  0
 30 31  1  0
 31 32  1  1
  7  5  1  0
 31 10  1  0
 31 13  1  0
 27 15  1  0
 24 18  1  0
  1 33  1  0
  1 34  1  0
  1 35  1  0
  2 36  1  1
  3 37  1  0
  3 38  1  0
  4 39  1  0
  4 40  1  0
  5 41  1  1
  8 42  1  0
  8 43  1  0
  8 44  1  0
  9 45  1  0
  9 46  1  0
  9 47  1  0
 10 48  1  6
 11 49  1  0
 11 50  1  0
 12 51  1  0
 12 52  1  0
 14 53  1  0
 14 54  1  0
 14 55  1  0
 15 56  1  1
 16 57  1  0
 16 58  1  0
 17 59  1  0
 19 60  1  6
 20 61  1  0
 20 62  1  0
 21 63  1  0
 21 64  1  0
 22 65  1  6
 23 66  1  0
 25 67  1  0
 25 68  1  0
 25 69  1  0
 26 70  1  0
 26 71  1  0
 26 72  1  0
 28 73  1  0
 28 74  1  0
 28 75  1  0
 29 76  1  0
 29 77  1  0
 30 78  1  0
 30 79  1  0
 32 80  1  0
 32 81  1  0
 32 82  1  0
M  END
>  <meeko>  (6) 
{"is_sidechain": [false], "intermolecular_energy": 2.731, "internal_energy": -0.839}

$$$$
EPH_relaxed_0001_pdb2pqr_Repair_130_r2_0001_out
     RDKit          3D

 82 86  0  0  0  0  0  0  0  0999 V2000
   -5.1980    5.9020   -1.7540 C   0  0  0  0  0  0  0  0  0  0  0  0
   -5.4810    7.3960   -1.9340 C   0  0  2  0  0  0  0  0  0  0  0  0
   -5.1980    8.1990   -0.6490 C   0  0  0  0  0  0  0  0  0  0  0  0
   -4.2120    9.3540   -0.8490 C   0  0  0  0  0  0  0  0  0  0  0  0
   -2.8170    8.9640   -0.4660 C   0  0  2  0  0  0  0  0  0  0  0  0
   -2.2560    9.7270    0.6100 O   0  0  0  0  0  0  0  0  0  0  0  0
   -1.6120    9.8650   -0.6670 C   0  0  0  0  0  0  0  0  0  0  0  0
   -1.7480   11.2260   -1.2730 C   0  0  0  0  0  0  0  0  0  0  0  0
   -0.2530    9.2390   -0.7270 C   0  0  0  0  0  0  0  0  0  0  0  0
   -6.9270    7.6030   -2.3700 C   0  0  1  0  0  0  0  0  0  0  0  0
   -7.2540    6.8920   -3.7100 C   0  0  0  0  0  0  0  0  0  0  0  0
   -8.7220    6.4040   -3.6110 C   0  0  0  0  0  0  0  0  0  0  0  0
   -9.2910    7.1290   -2.3690 C   0  0  1  0  0  0  0  0  0  0  0  0
   -9.6680    8.5560   -2.8760 C   0  0  0  0  0  0  0  0  0  0  0  0
  -10.4950    6.4340   -1.6540 C   0  0  2  0  0  0  0  0  0  0  0  0
  -11.7660    6.2870   -2.5100 C   0  0  0  0  0  0  0  0  0  0  0  0
  -12.7310    7.4230   -2.4190 C   0  0  0  0  0  0  0  0  0  0  0  0
  -12.7250    8.3800   -1.4720 C   0  0  0  0  0  0  0  0  0  0  0  0
  -11.7360    8.3240   -0.3010 C   0  0  1  0  0  0  0  0  0  0  0  0
  -12.4880    8.6060    1.0260 C   0  0  0  0  0  0  0  0  0  0  0  0
  -13.2720    9.9130    0.9880 C   0  0  0  0  0  0  0  0  0  0  0  0
  -14.2860    9.9080   -0.1540 C   0  0  2  0  0  0  0  0  0  0  0  0
  -15.2870    8.9240    0.1240 O   0  0  0  0  0  0  0  0  0  0  0  0
  -13.6450    9.6240   -1.5410 C   0  0  0  0  0  0  0  0  0  0  0  0
  -12.7890   10.8380   -1.9770 C   0  0  0  0  0  0  0  0  0  0  0  0
  -14.7910    9.5050   -2.5810 C   0  0  0  0  0  0  0  0  0  0  0  0
  -10.8270    7.0220   -0.2230 C   0  0  1  0  0  0  0  0  0  0  0  0
  -11.5730    5.8980    0.5580 C   0  0  0  0  0  0  0  0  0  0  0  0
   -9.5280    7.3510    0.6040 C   0  0  0  0  0  0  0  0  0  0  0  0
   -8.3320    7.9240   -0.1790 C   0  0  0  0  0  0  0  0  0  0  0  0
   -8.0370    7.0810   -1.4230 C   0  0  2  0  0  0  0  0  0  0  0  0
   -7.6320    5.6450   -0.9430 C   0  0  0  0  0  0  0  0  0  0  0  0
   -5.1529    5.6640   -0.6810 H   0  0  0  0  0  0  0  0  0  0  0  0
   -6.0013    5.3172   -2.2258 H   0  0  0  0  0  0  0  0  0  0  0  0
   -4.2364    5.6515   -2.2258 H   0  0  0  0  0  0  0  0  0  0  0  0
   -4.8010    7.7699   -2.7136 H   0  0  0  0  0  0  0  0  0  0  0  0
   -6.1486    8.6135   -0.2822 H   0  0  0  0  0  0  0  0  0  0  0  0
   -4.7379    7.5044    0.0692 H   0  0  0  0  0  0  0  0  0  0  0  0
   -4.2211    9.6512   -1.9081 H   0  0  0  0  0  0  0  0  0  0  0  0
   -4.5247   10.1877   -0.2031 H   0  0  0  0  0  0  0  0  0  0  0  0
   -3.0091    7.9162   -0.7401 H   0  0  0  0  0  0  0  0  0  0  0  0
   -1.8231   11.9776   -0.4733 H   0  0  0  0  0  0  0  0  0  0  0  0
   -0.8668   11.4399   -1.8956 H   0  0  0  0  0  0  0  0  0  0  0  0
   -2.6541   11.2613   -1.8956 H   0  0  0  0  0  0  0  0  0  0  0  0
    0.1175    9.0683    0.2946 H   0  0  0  0  0  0  0  0  0  0  0  0
   -0.3149    8.2786   -1.2598 H   0  0  0  0  0  0  0  0  0  0  0  0
    0.4367    9.9102   -1.2598 H   0  0  0  0  0  0  0  0  0  0  0  0
   -6.9524    8.7020   -2.4097 H   0  0  0  0  0  0  0  0  0  0  0  0
   -7.1444    7.5954   -4.5486 H   0  0  0  0  0  0  0  0  0  0  0  0
   -6.5690    6.0498   -3.8876 H   0  0  0  0  0  0  0  0  0  0  0  0
   -9.2851    6.6811   -4.5144 H   0  0  0  0  0  0  0  0  0  0  0  0
   -8.7930    5.3097   -3.5243 H   0  0  0  0  0  0  0  0  0  0  0  0
   -9.8426    9.2170   -2.0143 H   0  0  0  0  0  0  0  0  0  0  0  0
   -8.8452    8.9578   -3.4855 H   0  0  0  0  0  0  0  0  0  0  0  0
  -10.5819    8.4990   -3.4855 H   0  0  0  0  0  0  0  0  0  0  0  0
  -10.1188    5.4120   -1.4993 H   0  0  0  0  0  0  0  0  0  0  0  0
  -11.4581    6.1859   -3.5612 H   0  0  0  0  0  0  0  0  0  0  0  0
  -12.2957    5.4056   -2.1195 H   0  0  0  0  0  0  0  0  0  0  0  0
  -13.5126    7.4830   -3.1907 H   0  0  0  0  0  0  0  0  0  0  0  0
  -10.9983    9.1183   -0.4876 H   0  0  0  0  0  0  0  0  0  0  0  0
  -13.1889    7.7799    1.2164 H   0  0  0  0  0  0  0  0  0  0  0  0
  -11.7358    8.6912    1.8241 H   0  0  0  0  0  0  0  0  0  0  0  0
  -13.8047   10.0412    1.9419 H   0  0  0  0  0  0  0  0  0  0  0  0
  -12.5662   10.7413    0.8273 H   0  0  0  0  0  0  0  0  0  0  0  0
  -14.7238   10.9155   -0.2116 H   0  0  0  0  0  0  0  0  0  0  0  0
  -15.5840    8.5580   -0.7260 H   0  0  0  0  0  0  0  0  0  0  0  0
  -12.4179   11.3642   -1.0852 H   0  0  0  0  0  0  0  0  0  0  0  0
  -11.9364   10.4886   -2.5778 H   0  0  0  0  0  0  0  0  0  0  0  0
  -13.4044   11.5237   -2.5778 H   0  0  0  0  0  0  0  0  0  0  0  0
  -15.7529    9.4051   -2.0568 H   0  0  0  0  0  0  0  0  0  0  0  0
  -14.8089   10.4061   -3.2116 H   0  0  0  0  0  0  0  0  0  0  0  0
  -14.6234    8.6194   -3.2116 H   0  0  0  0  0  0  0  0  0  0  0  0
  -11.4611    6.0665    1.6392 H   0  0  0  0  0  0  0  0  0  0  0  0
  -12.6405    5.9138    0.2929 H   0  0  0  0  0  0  0  0  0  0  0  0
  -11.1438    4.9205    0.2929 H   0  0  0  0  0  0  0  0  0  0  0  0
   -9.8023    8.0847    1.3763 H   0  0  0  0  0  0  0  0  0  0  0  0
   -9.1804    6.3818    0.9911 H   0  0  0  0  0  0  0  0  0  0  0  0
   -8.5646    8.9535   -0.4888 H   0  0  0  0  0  0  0  0  0  0  0  0
   -7.4462    7.9091    0.4730 H   0  0  0  0  0  0  0  0  0  0  0  0
   -7.6235    5.6147    0.1566 H   0  0  0  0  0  0  0  0  0  0  0  0
   -8.3586    4.9124   -1.3243 H   0  0  0  0  0  0  0  0  0  0  0  0
   -6.6297    5.4000   -1.3243 H   0  0  0  0  0  0  0  0  0  0  0  0
  1  2  1  0
  2  3  1  0
  3  4  1  0
  4  5  1  0
  5  6  1  0
  6  7  1  0
  7  8  1  0
  7  9  1  0
  2 10  1  0
 10 11  1  0
 11 12  1  0
 12 13  1  0
 13 14  1  6
 13 15  1  0
 15 16  1  0
 16 17  1  0
 17 18  2  0
 18 19  1  0
 19 20  1  0
 20 21  1  0
 21 22  1  0
 22 23  1  0
 22 24  1  0
 24 25  1  0
 24 26  1  0
 19 27  1  0
 27 28  1  1
 27 29  1  0
 29 30  1  0
 30 31  1  0
 31 32  1  1
  7  5  1  0
 31 10  1  0
 31 13  1  0
 27 15  1  0
 24 18  1  0
  1 33  1  0
  1 34  1  0
  1 35  1  0
  2 36  1  6
  3 37  1  0
  3 38  1  0
  4 39  1  0
  4 40  1  0
  5 41  1  1
  8 42  1  0
  8 43  1  0
  8 44  1  0
  9 45  1  0
  9 46  1  0
  9 47  1  0
 10 48  1  6
 11 49  1  0
 11 50  1  0
 12 51  1  0
 12 52  1  0
 14 53  1  0
 14 54  1  0
 14 55  1  0
 15 56  1  1
 16 57  1  0
 16 58  1  0
 17 59  1  0
 19 60  1  6
 20 61  1  0
 20 62  1  0
 21 63  1  0
 21 64  1  0
 22 65  1  6
 23 66  1  0
 25 67  1  0
 25 68  1  0
 25 69  1  0
 26 70  1  0
 26 71  1  0
 26 72  1  0
 28 73  1  0
 28 74  1  0
 28 75  1  0
 29 76  1  0
 29 77  1  0
 30 78  1  0
 30 79  1  0
 32 80  1  0
 32 81  1  0
 32 82  1  0
M  END
>  <meeko>  (7) 
{"is_sidechain": [false], "intermolecular_energy": 2.731, "internal_energy": -0.839}

$$$$
EPH_relaxed_0001_pdb2pqr_Repair_130_r2_0001_out
     RDKit          3D

 82 86  0  0  0  0  0  0  0  0999 V2000
   -0.1620   15.0170   -7.3960 C   0  0  0  0  0  0  0  0  0  0  0  0
    0.7260   13.8880   -7.9270 C   0  0  2  0  0  0  0  0  0  0  0  0
    0.1690   13.2740   -9.2270 C   0  0  0  0  0  0  0  0  0  0  0  0
    0.8900   13.7480  -10.4910 C   0  0  0  0  0  0  0  0  0  0  0  0
    1.0350   15.2400  -10.5200 C   0  0  2  0  0  0  0  0  0  0  0  0
    2.1200   15.7210  -11.3240 O   0  0  0  0  0  0  0  0  0  0  0  0
    2.2140   15.9780   -9.9140 C   0  0  0  0  0  0  0  0  0  0  0  0
    3.3280   15.2440   -9.2340 C   0  0  0  0  0  0  0  0  0  0  0  0
    2.0460   17.4200   -9.5510 C   0  0  0  0  0  0  0  0  0  0  0  0
    0.8830   12.8060   -6.8650 C   0  0  1  0  0  0  0  0  0  0  0  0
    1.8980   11.7070   -7.2780 C   0  0  0  0  0  0  0  0  0  0  0  0
    2.6200   11.2560   -5.9820 C   0  0  0  0  0  0  0  0  0  0  0  0
    1.7770   11.8600   -4.8350 C   0  0  1  0  0  0  0  0  0  0  0  0
    0.5770   10.8770   -4.6590 C   0  0  0  0  0  0  0  0  0  0  0  0
    2.5230   12.1070   -3.4840 C   0  0  2  0  0  0  0  0  0  0  0  0
    3.0730   10.8420   -2.8020 C   0  0  0  0  0  0  0  0  0  0  0  0
    2.1410   10.1790   -1.8420 C   0  0  0  0  0  0  0  0  0  0  0  0
    1.0280   10.7310   -1.3240 C   0  0  0  0  0  0  0  0  0  0  0  0
    0.6620   12.1910   -1.6210 C   0  0  1  0  0  0  0  0  0  0  0  0
    0.2610   12.9040   -0.3030 C   0  0  0  0  0  0  0  0  0  0  0  0
   -0.8430   12.1660    0.4480 C   0  0  0  0  0  0  0  0  0  0  0  0
   -0.4190   10.7370    0.7770 C   0  0  2  0  0  0  0  0  0  0  0  0
    0.6560   10.7810    1.7200 O   0  0  0  0  0  0  0  0  0  0  0  0
    0.0170    9.9240   -0.4740 C   0  0  0  0  0  0  0  0  0  0  0  0
   -1.2220    9.6180   -1.3530 C   0  0  0  0  0  0  0  0  0  0  0  0
    0.5530    8.5510    0.0120 C   0  0  0  0  0  0  0  0  0  0  0  0
    1.7290   13.0170   -2.4610 C   0  0  1  0  0  0  0  0  0  0  0  0
    2.7910   13.6420   -1.5050 C   0  0  0  0  0  0  0  0  0  0  0  0
    1.0050   14.2220   -3.1700 C   0  0  0  0  0  0  0  0  0  0  0  0
    0.3910   13.9460   -4.5550 C   0  0  0  0  0  0  0  0  0  0  0  0
    1.3990   13.2470   -5.4720 C   0  0  2  0  0  0  0  0  0  0  0  0
    2.6080   14.2210   -5.6860 C   0  0  0  0  0  0  0  0  0  0  0  0
   -0.1523   15.0047   -6.2961 H   0  0  0  0  0  0  0  0  0  0  0  0
    0.2202   15.9839   -7.7552 H   0  0  0  0  0  0  0  0  0  0  0  0
   -1.1917   14.8734   -7.7552 H   0  0  0  0  0  0  0  0  0  0  0  0
    1.7087   14.3228   -8.1619 H   0  0  0  0  0  0  0  0  0  0  0  0
    0.2643   12.1800   -9.1627 H   0  0  0  0  0  0  0  0  0  0  0  0
   -0.8779   13.6005   -9.3132 H   0  0  0  0  0  0  0  0  0  0  0  0
    1.8905   13.2919  -10.5230 H   0  0  0  0  0  0  0  0  0  0  0  0
    0.2905   13.4447  -11.3620 H   0  0  0  0  0  0  0  0  0  0  0  0
   -0.0519   15.3710  -10.4125 H   0  0  0  0  0  0  0  0  0  0  0  0
    3.2075   15.3234   -8.1435 H   0  0  0  0  0  0  0  0  0  0  0  0
    3.3033   14.1847   -9.5295 H   0  0  0  0  0  0  0  0  0  0  0  0
    4.2916   15.6847   -9.5295 H   0  0  0  0  0  0  0  0  0  0  0  0
    2.0339   17.5234   -8.4559 H   0  0  0  0  0  0  0  0  0  0  0  0
    2.8824   18.0022   -9.9651 H   0  0  0  0  0  0  0  0  0  0  0  0
    1.0982   17.7943   -9.9651 H   0  0  0  0  0  0  0  0  0  0  0  0
   -0.1610   12.4678   -6.7895 H   0  0  0  0  0  0  0  0  0  0  0  0
    1.3705   10.8560   -7.7336 H   0  0  0  0  0  0  0  0  0  0  0  0
    2.6163   12.0903   -8.0177 H   0  0  0  0  0  0  0  0  0  0  0  0
    2.6417   10.1585   -5.9115 H   0  0  0  0  0  0  0  0  0  0  0  0
    3.6675   11.5903   -5.9503 H   0  0  0  0  0  0  0  0  0  0  0  0
    0.3856   10.7202   -3.5872 H   0  0  0  0  0  0  0  0  0  0  0  0
   -0.3192   11.3039   -5.1329 H   0  0  0  0  0  0  0  0  0  0  0  0
    0.8191    9.9143   -5.1329 H   0  0  0  0  0  0  0  0  0  0  0  0
    3.4048   12.6818   -3.8034 H   0  0  0  0  0  0  0  0  0  0  0  0
    3.3258   10.1148   -3.5877 H   0  0  0  0  0  0  0  0  0  0  0  0
    3.9399   11.1684   -2.2087 H   0  0  0  0  0  0  0  0  0  0  0  0
    2.3847    9.1522   -1.5318 H   0  0  0  0  0  0  0  0  0  0  0  0
   -0.2006   12.1544   -2.3027 H   0  0  0  0  0  0  0  0  0  0  0  0
    1.1465   12.9693    0.3463 H   0  0  0  0  0  0  0  0  0  0  0  0
   -0.1223   13.9010   -0.5656 H   0  0  0  0  0  0  0  0  0  0  0  0
   -1.0613   12.7011    1.3840 H   0  0  0  0  0  0  0  0  0  0  0  0
   -1.7373   12.1281   -0.1914 H   0  0  0  0  0  0  0  0  0  0  0  0
   -1.2953   10.2212    1.1967 H   0  0  0  0  0  0  0  0  0  0  0  0
    1.0010   11.6900    1.7320 H   0  0  0  0  0  0  0  0  0  0  0  0
   -2.0863    9.4045   -0.7069 H   0  0  0  0  0  0  0  0  0  0  0  0
   -1.4450   10.4881   -1.9880 H   0  0  0  0  0  0  0  0  0  0  0  0
   -1.0143    8.7442   -1.9880 H   0  0  0  0  0  0  0  0  0  0  0  0
    0.5615    8.5291    1.1117 H   0  0  0  0  0  0  0  0  0  0  0  0
   -0.0980    7.7487   -0.3656 H   0  0  0  0  0  0  0  0  0  0  0  0
    1.5753    8.4020   -0.3656 H   0  0  0  0  0  0  0  0  0  0  0  0
    2.4928   13.4665   -0.4608 H   0  0  0  0  0  0  0  0  0  0  0  0
    3.7702   13.1761   -1.6899 H   0  0  0  0  0  0  0  0  0  0  0  0
    2.8591   14.7242   -1.6899 H   0  0  0  0  0  0  0  0  0  0  0  0
    0.1940   14.5591   -2.5077 H   0  0  0  0  0  0  0  0  0  0  0  0
    1.7944   14.9670   -3.3486 H   0  0  0  0  0  0  0  0  0  0  0  0
   -0.4929   13.3023   -4.4350 H   0  0  0  0  0  0  0  0  0  0  0  0
    0.1089   14.9063   -5.0113 H   0  0  0  0  0  0  0  0  0  0  0  0
    3.0011   14.5377   -4.7087 H   0  0  0  0  0  0  0  0  0  0  0  0
    3.3992   13.7050   -6.2498 H   0  0  0  0  0  0  0  0  0  0  0  0
    2.2723   15.1039   -6.2498 H   0  0  0  0  0  0  0  0  0  0  0  0
  1  2  1  0
  2  3  1  0
  3  4  1  0
  4  5  1  0
  5  6  1  0
  6  7  1  0
  7  8  1  0
  7  9  1  0
  2 10  1  0
 10 11  1  0
 11 12  1  0
 12 13  1  0
 13 14  1  1
 13 15  1  0
 15 16  1  0
 16 17  1  0
 17 18  2  0
 18 19  1  0
 19 20  1  0
 20 21  1  0
 21 22  1  0
 22 23  1  0
 22 24  1  0
 24 25  1  0
 24 26  1  0
 19 27  1  0
 27 28  1  1
 27 29  1  0
 29 30  1  0
 30 31  1  0
 31 32  1  6
  7  5  1  0
 31 10  1  0
 31 13  1  0
 27 15  1  0
 24 18  1  0
  1 33  1  0
  1 34  1  0
  1 35  1  0
  2 36  1  6
  3 37  1  0
  3 38  1  0
  4 39  1  0
  4 40  1  0
  5 41  1  6
  8 42  1  0
  8 43  1  0
  8 44  1  0
  9 45  1  0
  9 46  1  0
  9 47  1  0
 10 48  1  1
 11 49  1  0
 11 50  1  0
 12 51  1  0
 12 52  1  0
 14 53  1  0
 14 54  1  0
 14 55  1  0
 15 56  1  6
 16 57  1  0
 16 58  1  0
 17 59  1  0
 19 60  1  6
 20 61  1  0
 20 62  1  0
 21 63  1  0
 21 64  1  0
 22 65  1  1
 23 66  1  0
 25 67  1  0
 25 68  1  0
 25 69  1  0
 26 70  1  0
 26 71  1  0
 26 72  1  0
 28 73  1  0
 28 74  1  0
 28 75  1  0
 29 76  1  0
 29 77  1  0
 30 78  1  0
 30 79  1  0
 32 80  1  0
 32 81  1  0
 32 82  1  0
M  END
>  <meeko>  (8) 
{"is_sidechain": [false], "intermolecular_energy": 2.731, "internal_energy": -0.839}

$$$$
EPH_relaxed_0001_pdb2pqr_Repair_130_r2_0001_out
     RDKit          3D

 82 86  0  0  0  0  0  0  0  0999 V2000
   -0.3110   13.0450   -8.9840 C   0  0  0  0  0  0  0  0  0  0  0  0
    1.0780   13.2770   -8.3820 C   0  0  2  0  0  0  0  0  0  0  0  0
    2.2000   13.0880   -9.4220 C   0  0  0  0  0  0  0  0  0  0  0  0
    2.4930   14.3440  -10.2470 C   0  0  0  0  0  0  0  0  0  0  0  0
    1.3290   15.2870  -10.2520 C   0  0  2  0  0  0  0  0  0  0  0  0
    1.6480   16.6310  -10.6380 O   0  0  0  0  0  0  0  0  0  0  0  0
    1.1900   16.4510   -9.2880 C   0  0  0  0  0  0  0  0  0  0  0  0
    2.2310   16.7320   -8.2500 C   0  0  0  0  0  0  0  0  0  0  0  0
   -0.1750   17.0120   -9.0350 C   0  0  0  0  0  0  0  0  0  0  0  0
    1.2960   12.3360   -7.2030 C   0  0  1  0  0  0  0  0  0  0  0  0
    2.5990   11.5020   -7.3370 C   0  0  0  0  0  0  0  0  0  0  0  0
    3.1670   11.3250   -5.9050 C   0  0  0  0  0  0  0  0  0  0  0  0
    2.0160   11.7690   -4.9720 C   0  0  1  0  0  0  0  0  0  0  0  0
    1.0700   10.5300   -4.8850 C   0  0  0  0  0  0  0  0  0  0  0  0
    2.4340   12.2770   -3.5540 C   0  0  2  0  0  0  0  0  0  0  0  0
    3.1370   11.2340   -2.6680 C   0  0  0  0  0  0  0  0  0  0  0  0
    2.2340   10.4190   -1.8020 C   0  0  0  0  0  0  0  0  0  0  0  0
    0.9490   10.7070   -1.5230 C   0  0  0  0  0  0  0  0  0  0  0  0
    0.3070   12.0080   -2.0220 C   0  0  1  0  0  0  0  0  0  0  0  0
   -0.4760   12.6770   -0.8620 C   0  0  0  0  0  0  0  0  0  0  0  0
   -1.4890   11.7350   -0.2200 C   0  0  0  0  0  0  0  0  0  0  0  0
   -0.8050   10.4800    0.3160 C   0  0  2  0  0  0  0  0  0  0  0  0
    0.0460   10.8490    1.4050 O   0  0  0  0  0  0  0  0  0  0  0  0
    0.0230    9.7260   -0.7620 C   0  0  0  0  0  0  0  0  0  0  0  0
   -0.9330    9.0670   -1.7870 C   0  0  0  0  0  0  0  0  0  0  0  0
    0.7750    8.5630   -0.0600 C   0  0  0  0  0  0  0  0  0  0  0  0
    1.2800   13.0210   -2.7660 C   0  0  1  0  0  0  0  0  0  0  0  0
    1.9790   13.9490   -1.7250 C   0  0  0  0  0  0  0  0  0  0  0  0
    0.4290   13.9610   -3.6980 C   0  0  0  0  0  0  0  0  0  0  0  0
    0.1510   13.4560   -5.1270 C   0  0  0  0  0  0  0  0  0  0  0  0
    1.4410   12.9760   -5.7990 C   0  0  2  0  0  0  0  0  0  0  0  0
    2.4030   14.2060   -5.9210 C   0  0  0  0  0  0  0  0  0  0  0  0
   -1.0456   12.9223   -8.1745 H   0  0  0  0  0  0  0  0  0  0  0  0
   -0.5905   13.9089   -9.6049 H   0  0  0  0  0  0  0  0  0  0  0  0
   -0.2945   12.1372   -9.6049 H   0  0  0  0  0  0  0  0  0  0  0  0
    1.1202   14.3208   -8.0375 H   0  0  0  0  0  0  0  0  0  0  0  0
    3.1194   12.7984   -8.8921 H   0  0  0  0  0  0  0  0  0  0  0  0
    1.8591   12.3139  -10.1253 H   0  0  0  0  0  0  0  0  0  0  0  0
    3.3659   14.8573   -9.8173 H   0  0  0  0  0  0  0  0  0  0  0  0
    2.6889   14.0352  -11.2844 H   0  0  0  0  0  0  0  0  0  0  0  0
    0.6424   14.4743  -10.5314 H   0  0  0  0  0  0  0  0  0  0  0  0
    1.7916   16.6134   -7.2486 H   0  0  0  0  0  0  0  0  0  0  0  0
    3.0673   16.0275   -8.3693 H   0  0  0  0  0  0  0  0  0  0  0  0
    2.5992   17.7617   -8.3693 H   0  0  0  0  0  0  0  0  0  0  0  0
   -0.3472   17.0828   -7.9509 H   0  0  0  0  0  0  0  0  0  0  0  0
   -0.2489   18.0134   -9.4841 H   0  0  0  0  0  0  0  0  0  0  0  0
   -0.9317   16.3520   -9.4841 H   0  0  0  0  0  0  0  0  0  0  0  0
    0.3642   11.7539   -7.2574 H   0  0  0  0  0  0  0  0  0  0  0  0
    2.3763   10.5201   -7.7801 H   0  0  0  0  0  0  0  0  0  0  0  0
    3.3256   12.0074   -7.9901 H   0  0  0  0  0  0  0  0  0  0  0  0
    3.4336   10.2739   -5.7200 H   0  0  0  0  0  0  0  0  0  0  0  0
    4.0842   11.9106   -5.7443 H   0  0  0  0  0  0  0  0  0  0  0  0
    0.8829   10.2850   -3.8291 H   0  0  0  0  0  0  0  0  0  0  0  0
    0.1164   10.7611   -5.3823 H   0  0  0  0  0  0  0  0  0  0  0  0
    1.5442    9.6710   -5.3823 H   0  0  0  0  0  0  0  0  0  0  0  0
    3.1983   13.0321   -3.7899 H   0  0  0  0  0  0  0  0  0  0  0  0
    3.6889   10.5462   -3.3256 H   0  0  0  0  0  0  0  0  0  0  0  0
    3.7830   11.8029   -1.9831 H   0  0  0  0  0  0  0  0  0  0  0  0
    2.6543    9.5063   -1.3543 H   0  0  0  0  0  0  0  0  0  0  0  0
   -0.3888   11.7161   -2.8225 H   0  0  0  0  0  0  0  0  0  0  0  0
    0.2411   13.0006   -0.0932 H   0  0  0  0  0  0  0  0  0  0  0  0
   -1.0315   13.5286   -1.2818 H   0  0  0  0  0  0  0  0  0  0  0  0
   -1.9881   12.2554    0.6107 H   0  0  0  0  0  0  0  0  0  0  0  0
   -2.2224   11.4358   -0.9832 H   0  0  0  0  0  0  0  0  0  0  0  0
   -1.5946    9.7886    0.6453 H   0  0  0  0  0  0  0  0  0  0  0  0
    0.9490   10.5630    1.1840 H   0  0  0  0  0  0  0  0  0  0  0  0
   -1.7244    8.5215   -1.2522 H   0  0  0  0  0  0  0  0  0  0  0  0
   -1.3865    9.8452   -2.4184 H   0  0  0  0  0  0  0  0  0  0  0  0
   -0.3670    8.3663   -2.4184 H   0  0  0  0  0  0  0  0  0  0  0  0
    0.6980    8.6821    1.0308 H   0  0  0  0  0  0  0  0  0  0  0  0
    0.3257    7.6038   -0.3567 H   0  0  0  0  0  0  0  0  0  0  0  0
    1.8341    8.5792   -0.3567 H   0  0  0  0  0  0  0  0  0  0  0  0
    1.7269   13.6143   -0.7079 H   0  0  0  0  0  0  0  0  0  0  0  0
    3.0689   13.9032   -1.8665 H   0  0  0  0  0  0  0  0  0  0  0  0
    1.6341   14.9839   -1.8665 H   0  0  0  0  0  0  0  0  0  0  0  0
   -0.5422   14.1245   -3.2081 H   0  0  0  0  0  0  0  0  0  0  0  0
    1.0390   14.8673   -3.8267 H   0  0  0  0  0  0  0  0  0  0  0  0
   -0.5632   12.6207   -5.0810 H   0  0  0  0  0  0  0  0  0  0  0  0
   -0.2647   14.2856   -5.7177 H   0  0  0  0  0  0  0  0  0  0  0  0
    2.6780   14.5576   -4.9156 H   0  0  0  0  0  0  0  0  0  0  0  0
    3.3108   13.9088   -6.4665 H   0  0  0  0  0  0  0  0  0  0  0  0
    1.8959   15.0154   -6.4665 H   0  0  0  0  0  0  0  0  0  0  0  0
  1  2  1  0
  2  3  1  0
  3  4  1  0
  4  5  1  0
  5  6  1  0
  6  7  1  0
  7  8  1  0
  7  9  1  0
  2 10  1  0
 10 11  1  0
 11 12  1  0
 12 13  1  0
 13 14  1  1
 13 15  1  0
 15 16  1  0
 16 17  1  0
 17 18  2  0
 18 19  1  0
 19 20  1  0
 20 21  1  0
 21 22  1  0
 22 23  1  0
 22 24  1  0
 24 25  1  0
 24 26  1  0
 19 27  1  0
 27 28  1  1
 27 29  1  0
 29 30  1  0
 30 31  1  0
 31 32  1  6
  7  5  1  0
 31 10  1  0
 31 13  1  0
 27 15  1  0
 24 18  1  0
  1 33  1  0
  1 34  1  0
  1 35  1  0
  2 36  1  1
  3 37  1  0
  3 38  1  0
  4 39  1  0
  4 40  1  0
  5 41  1  6
  8 42  1  0
  8 43  1  0
  8 44  1  0
  9 45  1  0
  9 46  1  0
  9 47  1  0
 10 48  1  1
 11 49  1  0
 11 50  1  0
 12 51  1  0
 12 52  1  0
 14 53  1  0
 14 54  1  0
 14 55  1  0
 15 56  1  6
 16 57  1  0
 16 58  1  0
 17 59  1  0
 19 60  1  6
 20 61  1  0
 20 62  1  0
 21 63  1  0
 21 64  1  0
 22 65  1  1
 23 66  1  0
 25 67  1  0
 25 68  1  0
 25 69  1  0
 26 70  1  0
 26 71  1  0
 26 72  1  0
 28 73  1  0
 28 74  1  0
 28 75  1  0
 29 76  1  0
 29 77  1  0
 30 78  1  0
 30 79  1  0
 32 80  1  0
 32 81  1  0
 32 82  1  0
M  END
>  <meeko>  (9) 
{"is_sidechain": [false], "intermolecular_energy": 2.731, "internal_energy": -0.839}

$$$$
EPH_relaxed_0001_pdb2pqr_Repair_130_r2_0001_out
     RDKit          3D

 82 86  0  0  0  0  0  0  0  0999 V2000
   -0.1700    9.9140   -1.9930 C   0  0  0  0  0  0  0  0  0  0  0  0
   -0.8930   10.3490   -0.7150 C   0  0  2  0  0  0  0  0  0  0  0  0
   -2.4130   10.4970   -0.9290 C   0  0  0  0  0  0  0  0  0  0  0  0
   -3.2250    9.3030   -0.4220 C   0  0  0  0  0  0  0  0  0  0  0  0
   -4.1520    8.7750   -1.4750 C   0  0  2  0  0  0  0  0  0  0  0  0
   -5.5230    9.1610   -1.3150 O   0  0  0  0  0  0  0  0  0  0  0  0
   -5.2420    7.7570   -1.1970 C   0  0  0  0  0  0  0  0  0  0  0  0
   -5.4620    7.2050    0.1770 C   0  0  0  0  0  0  0  0  0  0  0  0
   -5.7650    6.9390   -2.3370 C   0  0  0  0  0  0  0  0  0  0  0  0
   -0.3080   11.6620   -0.2080 C   0  0  1  0  0  0  0  0  0  0  0  0
    0.8890   11.4500    0.7570 C   0  0  0  0  0  0  0  0  0  0  0  0
    1.8820   12.6130    0.5000 C   0  0  0  0  0  0  0  0  0  0  0  0
    1.0830   13.6270   -0.3520 C   0  0  1  0  0  0  0  0  0  0  0  0
    0.2200   14.4230    0.6760 C   0  0  0  0  0  0  0  0  0  0  0  0
    1.9250   14.5810   -1.2600 C   0  0  2  0  0  0  0  0  0  0  0  0
    2.8780   15.5250   -0.5070 C   0  0  0  0  0  0  0  0  0  0  0  0
    2.3000   16.8500   -0.1330 C   0  0  0  0  0  0  0  0  0  0  0  0
    1.1670   17.3780   -0.6340 C   0  0  0  0  0  0  0  0  0  0  0  0
    0.3940   16.6670   -1.7510 C   0  0  1  0  0  0  0  0  0  0  0  0
    0.0140   17.6930   -2.8520 C   0  0  0  0  0  0  0  0  0  0  0  0
   -0.7400   18.8970   -2.2940 C   0  0  0  0  0  0  0  0  0  0  0  0
    0.0860   19.6110   -1.2280 C   0  0  2  0  0  0  0  0  0  0  0  0
    1.2360   20.1940   -1.8480 O   0  0  0  0  0  0  0  0  0  0  0  0
    0.5350   18.6750   -0.0710 C   0  0  0  0  0  0  0  0  0  0  0  0
   -0.6930   18.2830    0.7880 C   0  0  0  0  0  0  0  0  0  0  0  0
    1.4760   19.4850    0.8610 C   0  0  0  0  0  0  0  0  0  0  0  0
    1.0760   15.3600   -2.3440 C   0  0  1  0  0  0  0  0  0  0  0  0
    2.0630   15.7480   -3.4880 C   0  0  0  0  0  0  0  0  0  0  0  0
   -0.0310   14.4550   -3.0010 C   0  0  0  0  0  0  0  0  0  0  0  0
   -0.7440   13.4480   -2.0780 C   0  0  0  0  0  0  0  0  0  0  0  0
    0.2690   12.6380   -1.2640 C   0  0  2  0  0  0  0  0  0  0  0  0
    1.1380   11.8090   -2.2710 C   0  0  0  0  0  0  0  0  0  0  0  0
    0.7447    9.3637   -1.7276 H   0  0  0  0  0  0  0  0  0  0  0  0
   -0.8307    9.2634   -2.5847 H   0  0  0  0  0  0  0  0  0  0  0  0
    0.0953   10.8025   -2.5847 H   0  0  0  0  0  0  0  0  0  0  0  0
   -0.7409    9.5597    0.0360 H   0  0  0  0  0  0  0  0  0  0  0  0
   -2.7523   11.3984   -0.3977 H   0  0  0  0  0  0  0  0  0  0  0  0
   -2.5799   10.5616   -2.0143 H   0  0  0  0  0  0  0  0  0  0  0  0
   -2.5326    8.5024   -0.1228 H   0  0  0  0  0  0  0  0  0  0  0  0
   -3.8320    9.6390    0.4316 H   0  0  0  0  0  0  0  0  0  0  0  0
   -3.3525    8.8124   -2.2296 H   0  0  0  0  0  0  0  0  0  0  0  0
   -5.1635    7.9540    0.9252 H   0  0  0  0  0  0  0  0  0  0  0  0
   -6.5264    6.9602    0.3077 H   0  0  0  0  0  0  0  0  0  0  0  0
   -4.8578    6.2952    0.3077 H   0  0  0  0  0  0  0  0  0  0  0  0
   -6.3184    6.0735   -1.9437 H   0  0  0  0  0  0  0  0  0  0  0  0
   -6.4371    7.5551   -2.9524 H   0  0  0  0  0  0  0  0  0  0  0  0
   -4.9237    6.5875   -2.9524 H   0  0  0  0  0  0  0  0  0  0  0  0
   -1.2057   12.0969    0.2557 H   0  0  0  0  0  0  0  0  0  0  0  0
    0.5425   11.4714    1.8008 H   0  0  0  0  0  0  0  0  0  0  0  0
    1.3686   10.4754    0.5834 H   0  0  0  0  0  0  0  0  0  0  0  0
    2.2002   13.0689    1.4492 H   0  0  0  0  0  0  0  0  0  0  0  0
    2.7989   12.2748   -0.0049 H   0  0  0  0  0  0  0  0  0  0  0  0
    0.5194   14.1468    1.6978 H   0  0  0  0  0  0  0  0  0  0  0  0
    0.3751   15.5018    0.5274 H   0  0  0  0  0  0  0  0  0  0  0  0
   -0.8428   14.1814    0.5274 H   0  0  0  0  0  0  0  0  0  0  0  0
    2.5712   13.8780   -1.8061 H   0  0  0  0  0  0  0  0  0  0  0  0
    3.1965   15.0202    0.4170 H   0  0  0  0  0  0  0  0  0  0  0  0
    3.7050   15.7386   -1.2001 H   0  0  0  0  0  0  0  0  0  0  0  0
    2.8455   17.4447    0.6145 H   0  0  0  0  0  0  0  0  0  0  0  0
   -0.5173   16.2670   -1.2825 H   0  0  0  0  0  0  0  0  0  0  0  0
    0.9355   18.0476   -3.3368 H   0  0  0  0  0  0  0  0  0  0  0  0
   -0.6498   17.1852   -3.5672 H   0  0  0  0  0  0  0  0  0  0  0  0
   -0.9545   19.5989   -3.1134 H   0  0  0  0  0  0  0  0  0  0  0  0
   -1.6755   18.5440   -1.8355 H   0  0  0  0  0  0  0  0  0  0  0  0
   -0.5557   20.3821   -0.7768 H   0  0  0  0  0  0  0  0  0  0  0  0
    1.9510   20.2070   -1.1900 H   0  0  0  0  0  0  0  0  0  0  0  0
   -0.4358   18.3651    1.8544 H   0  0  0  0  0  0  0  0  0  0  0  0
   -1.5307   18.9584    0.5598 H   0  0  0  0  0  0  0  0  0  0  0  0
   -0.9845   17.2472    0.5598 H   0  0  0  0  0  0  0  0  0  0  0  0
    1.2264   19.2701    1.9105 H   0  0  0  0  0  0  0  0  0  0  0  0
    2.5201   19.1987    0.6664 H   0  0  0  0  0  0  0  0  0  0  0  0
    1.3482   20.5601    0.6664 H   0  0  0  0  0  0  0  0  0  0  0  0
    3.0028   16.1175   -3.0518 H   0  0  0  0  0  0  0  0  0  0  0  0
    2.2697   14.8642   -4.1094 H   0  0  0  0  0  0  0  0  0  0  0  0
    1.6125   16.5360   -4.1094 H   0  0  0  0  0  0  0  0  0  0  0  0
   -0.7983   15.1211   -3.4224 H   0  0  0  0  0  0  0  0  0  0  0  0
    0.5023   13.8396   -3.7405 H   0  0  0  0  0  0  0  0  0  0  0  0
   -1.4035   13.9960   -1.3889 H   0  0  0  0  0  0  0  0  0  0  0  0
   -1.3284   12.7545   -2.7006 H   0  0  0  0  0  0  0  0  0  0  0  0
    1.8234   11.1551   -1.7119 H   0  0  0  0  0  0  0  0  0  0  0  0
    0.4803   11.1952   -2.9039 H   0  0  0  0  0  0  0  0  0  0  0  0
    1.7202   12.4949   -2.9039 H   0  0  0  0  0  0  0  0  0  0  0  0
  1  2  1  0
  2  3  1  0
  3  4  1  0
  4  5  1  0
  5  6  1  0
  6  7  1  0
  7  8  1  0
  7  9  1  0
  2 10  1  0
 10 11  1  0
 11 12  1  0
 12 13  1  0
 13 14  1  1
 13 15  1  0
 15 16  1  0
 16 17  1  0
 17 18  2  0
 18 19  1  0
 19 20  1  0
 20 21  1  0
 21 22  1  0
 22 23  1  0
 22 24  1  0
 24 25  1  0
 24 26  1  0
 19 27  1  0
 27 28  1  6
 27 29  1  0
 29 30  1  0
 30 31  1  0
 31 32  1  6
  7  5  1  0
 31 10  1  0
 31 13  1  0
 27 15  1  0
 24 18  1  0
  1 33  1  0
  1 34  1  0
  1 35  1  0
  2 36  1  1
  3 37  1  0
  3 38  1  0
  4 39  1  0
  4 40  1  0
  5 41  1  6
  8 42  1  0
  8 43  1  0
  8 44  1  0
  9 45  1  0
  9 46  1  0
  9 47  1  0
 10 48  1  1
 11 49  1  0
 11 50  1  0
 12 51  1  0
 12 52  1  0
 14 53  1  0
 14 54  1  0
 14 55  1  0
 15 56  1  6
 16 57  1  0
 16 58  1  0
 17 59  1  0
 19 60  1  1
 20 61  1  0
 20 62  1  0
 21 63  1  0
 21 64  1  0
 22 65  1  1
 23 66  1  0
 25 67  1  0
 25 68  1  0
 25 69  1  0
 26 70  1  0
 26 71  1  0
 26 72  1  0
 28 73  1  0
 28 74  1  0
 28 75  1  0
 29 76  1  0
 29 77  1  0
 30 78  1  0
 30 79  1  0
 32 80  1  0
 32 81  1  0
 32 82  1  0
M  END
>  <meeko>  (10) 
{"is_sidechain": [false], "intermolecular_energy": 2.731, "internal_energy": -0.839}

$$$$
EPH_relaxed_0001_pdb2pqr_Repair_130_r2_0001_out
     RDKit          3D

 82 86  0  0  0  0  0  0  0  0999 V2000
    1.2010   12.9040   -9.0090 C   0  0  0  0  0  0  0  0  0  0  0  0
    0.4500   13.3800   -7.7630 C   0  0  2  0  0  0  0  0  0  0  0  0
    0.8110   14.8310   -7.3870 C   0  0  0  0  0  0  0  0  0  0  0  0
    0.6940   15.8160   -8.5530 C   0  0  0  0  0  0  0  0  0  0  0  0
    1.9580   15.8760   -9.3570 C   0  0  2  0  0  0  0  0  0  0  0  0
    1.9000   16.7400  -10.5000 O   0  0  0  0  0  0  0  0  0  0  0  0
    2.0750   15.3400  -10.7720 C   0  0  0  0  0  0  0  0  0  0  0  0
    0.9100   14.7060  -11.4650 C   0  0  0  0  0  0  0  0  0  0  0  0
    3.4330   14.9930  -11.2960 C   0  0  0  0  0  0  0  0  0  0  0  0
    0.7450   12.4500   -6.5920 C   0  0  1  0  0  0  0  0  0  0  0  0
    1.8490   11.4100   -6.9180 C   0  0  0  0  0  0  0  0  0  0  0  0
    2.6500   11.1830   -5.6100 C   0  0  0  0  0  0  0  0  0  0  0  0
    1.7880   11.8370   -4.5060 C   0  0  1  0  0  0  0  0  0  0  0  0
    0.6950   10.7740   -4.1690 C   0  0  0  0  0  0  0  0  0  0  0  0
    2.5480   12.3090   -3.2240 C   0  0  2  0  0  0  0  0  0  0  0  0
    3.2390   11.1900   -2.4250 C   0  0  0  0  0  0  0  0  0  0  0  0
    2.4060   10.5610   -1.3580 C   0  0  0  0  0  0  0  0  0  0  0  0
    1.2610   11.0640   -0.8610 C   0  0  0  0  0  0  0  0  0  0  0  0
    0.7460   12.4380   -1.3070 C   0  0  1  0  0  0  0  0  0  0  0  0
    0.3190   13.2600   -0.0630 C   0  0  0  0  0  0  0  0  0  0  0  0
   -0.6850   12.5170    0.8130 C   0  0  0  0  0  0  0  0  0  0  0  0
   -0.1140   11.1820    1.2850 C   0  0  2  0  0  0  0  0  0  0  0  0
    0.9800   11.4360    2.1710 O   0  0  0  0  0  0  0  0  0  0  0  0
    0.3600   10.2720    0.1180 C   0  0  0  0  0  0  0  0  0  0  0  0
   -0.8690    9.7510   -0.6680 C   0  0  0  0  0  0  0  0  0  0  0  0
    1.0420    9.0210    0.7340 C   0  0  0  0  0  0  0  0  0  0  0  0
    1.7020   13.2550   -2.2790 C   0  0  1  0  0  0  0  0  0  0  0  0
    2.7260   14.0840   -1.4460 C   0  0  0  0  0  0  0  0  0  0  0  0
    0.8420   14.2960   -3.0900 C   0  0  0  0  0  0  0  0  0  0  0  0
    0.2150   13.8030   -4.4080 C   0  0  0  0  0  0  0  0  0  0  0  0
    1.2580   13.0980   -5.2810 C   0  0  2  0  0  0  0  0  0  0  0  0
    2.3590   14.1480   -5.6540 C   0  0  0  0  0  0  0  0  0  0  0  0
    2.0939   12.3380   -8.7050 H   0  0  0  0  0  0  0  0  0  0  0  0
    0.5436   12.2573   -9.6087 H   0  0  0  0  0  0  0  0  0  0  0  0
    1.5052   13.7745   -9.6087 H   0  0  0  0  0  0  0  0  0  0  0  0
   -0.6250   13.3566   -7.9950 H   0  0  0  0  0  0  0  0  0  0  0  0
    0.1343   15.1605   -6.5848 H   0  0  0  0  0  0  0  0  0  0  0  0
    1.8651   14.8289   -7.0724 H   0  0  0  0  0  0  0  0  0  0  0  0
   -0.1302   15.4970   -9.2079 H   0  0  0  0  0  0  0  0  0  0  0  0
    0.5033   16.8169   -8.1386 H   0  0  0  0  0  0  0  0  0  0  0  0
    2.5676   15.7178   -8.4551 H   0  0  0  0  0  0  0  0  0  0  0  0
    0.2027   14.3211  -10.7156 H   0  0  0  0  0  0  0  0  0  0  0  0
    0.4062   15.4543  -12.0944 H   0  0  0  0  0  0  0  0  0  0  0  0
    1.2648   13.8766  -12.0944 H   0  0  0  0  0  0  0  0  0  0  0  0
    4.1176   14.8181  -10.4530 H   0  0  0  0  0  0  0  0  0  0  0  0
    3.3675   14.0827  -11.9101 H   0  0  0  0  0  0  0  0  0  0  0  0
    3.8122   15.8231  -11.9101 H   0  0  0  0  0  0  0  0  0  0  0  0
   -0.2583   12.0271   -6.4355 H   0  0  0  0  0  0  0  0  0  0  0  0
    1.3935   10.4661   -7.2519 H   0  0  0  0  0  0  0  0  0  0  0  0
    2.5043   11.7695   -7.7251 H   0  0  0  0  0  0  0  0  0  0  0  0
    2.7796   10.1081   -5.4157 H   0  0  0  0  0  0  0  0  0  0  0  0
    3.6608   11.6139   -5.6599 H   0  0  0  0  0  0  0  0  0  0  0  0
    0.5988   10.6804   -3.0772 H   0  0  0  0  0  0  0  0  0  0  0  0
   -0.2681   11.0902   -4.5962 H   0  0  0  0  0  0  0  0  0  0  0  0
    0.9843    9.8025   -4.5962 H   0  0  0  0  0  0  0  0  0  0  0  0
    3.3595   12.9210   -3.6446 H   0  0  0  0  0  0  0  0  0  0  0  0
    3.5375   10.4020   -3.1321 H   0  0  0  0  0  0  0  0  0  0  0  0
    4.0875   11.6635   -1.9093 H   0  0  0  0  0  0  0  0  0  0  0  0
    2.7579    9.6052   -0.9427 H   0  0  0  0  0  0  0  0  0  0  0  0
   -0.1295   12.2421   -1.9436 H   0  0  0  0  0  0  0  0  0  0  0  0
    1.2138   13.4821    0.5370 H   0  0  0  0  0  0  0  0  0  0  0  0
   -0.1669   14.1796   -0.4212 H   0  0  0  0  0  0  0  0  0  0  0  0
   -0.9251   13.1361    1.6900 H   0  0  0  0  0  0  0  0  0  0  0  0
   -1.5910   12.3217    0.2205 H   0  0  0  0  0  0  0  0  0  0  0  0
   -0.9226   10.6401    1.7973 H   0  0  0  0  0  0  0  0  0  0  0  0
    1.6580   11.9220    1.6710 H   0  0  0  0  0  0  0  0  0  0  0  0
   -1.6444    9.4223    0.0396 H   0  0  0  0  0  0  0  0  0  0  0  0
   -1.2682   10.5573   -1.3009 H   0  0  0  0  0  0  0  0  0  0  0  0
   -0.5671    8.9035   -1.3009 H   0  0  0  0  0  0  0  0  0  0  0  0
    1.0061    9.0868    1.8314 H   0  0  0  0  0  0  0  0  0  0  0  0
    0.5130    8.1149    0.4035 H   0  0  0  0  0  0  0  0  0  0  0  0
    2.0902    8.9747    0.4035 H   0  0  0  0  0  0  0  0  0  0  0  0
    2.5361   13.9303   -0.3735 H   0  0  0  0  0  0  0  0  0  0  0  0
    3.7474   13.7553   -1.6883 H   0  0  0  0  0  0  0  0  0  0  0  0
    2.6171   15.1514   -1.6883 H   0  0  0  0  0  0  0  0  0  0  0  0
    0.0229   14.6314   -2.4369 H   0  0  0  0  0  0  0  0  0  0  0  0
    1.5491   15.0852   -3.3854 H   0  0  0  0  0  0  0  0  0  0  0  0
   -0.5978   13.0983   -4.1784 H   0  0  0  0  0  0  0  0  0  0  0  0
   -0.1735   14.6725   -4.9585 H   0  0  0  0  0  0  0  0  0  0  0  0
    2.7954   14.5642   -4.7340 H   0  0  0  0  0  0  0  0  0  0  0  0
    3.1472   13.6586   -6.2449 H   0  0  0  0  0  0  0  0  0  0  0  0
    1.9075   14.9585   -6.2449 H   0  0  0  0  0  0  0  0  0  0  0  0
  1  2  1  0
  2  3  1  0
  3  4  1  0
  4  5  1  0
  5  6  1  0
  6  7  1  0
  7  8  1  0
  7  9  1  0
  2 10  1  0
 10 11  1  0
 11 12  1  0
 12 13  1  0
 13 14  1  1
 13 15  1  0
 15 16  1  0
 16 17  1  0
 17 18  2  0
 18 19  1  0
 19 20  1  0
 20 21  1  0
 21 22  1  0
 22 23  1  0
 22 24  1  0
 24 25  1  0
 24 26  1  0
 19 27  1  0
 27 28  1  1
 27 29  1  0
 29 30  1  0
 30 31  1  0
 31 32  1  6
  7  5  1  0
 31 10  1  0
 31 13  1  0
 27 15  1  0
 24 18  1  0
  1 33  1  0
  1 34  1  0
  1 35  1  0
  2 36  1  6
  3 37  1  0
  3 38  1  0
  4 39  1  0
  4 40  1  0
  5 41  1  1
  8 42  1  0
  8 43  1  0
  8 44  1  0
  9 45  1  0
  9 46  1  0
  9 47  1  0
 10 48  1  1
 11 49  1  0
 11 50  1  0
 12 51  1  0
 12 52  1  0
 14 53  1  0
 14 54  1  0
 14 55  1  0
 15 56  1  6
 16 57  1  0
 16 58  1  0
 17 59  1  0
 19 60  1  6
 20 61  1  0
 20 62  1  0
 21 63  1  0
 21 64  1  0
 22 65  1  1
 23 66  1  0
 25 67  1  0
 25 68  1  0
 25 69  1  0
 26 70  1  0
 26 71  1  0
 26 72  1  0
 28 73  1  0
 28 74  1  0
 28 75  1  0
 29 76  1  0
 29 77  1  0
 30 78  1  0
 30 79  1  0
 32 80  1  0
 32 81  1  0
 32 82  1  0
M  END
>  <meeko>  (11) 
{"is_sidechain": [false], "intermolecular_energy": 2.731, "internal_energy": -0.839}

$$$$
EPH_relaxed_0001_pdb2pqr_Repair_130_r2_0001_out
     RDKit          3D

 82 86  0  0  0  0  0  0  0  0999 V2000
    0.3820    8.8430   -2.3560 C   0  0  0  0  0  0  0  0  0  0  0  0
    1.1280    9.9860   -3.0520 C   0  0  2  0  0  0  0  0  0  0  0  0
    2.6280   10.0010   -2.6960 C   0  0  0  0  0  0  0  0  0  0  0  0
    3.5200   10.5470   -3.8140 C   0  0  0  0  0  0  0  0  0  0  0  0
    4.9170   10.8040   -3.3340 C   0  0  2  0  0  0  0  0  0  0  0  0
    5.5000   12.0220   -3.8150 O   0  0  0  0  0  0  0  0  0  0  0  0
    6.1290   10.8040   -4.2470 C   0  0  0  0  0  0  0  0  0  0  0  0
    6.0000   10.5410   -5.7150 C   0  0  0  0  0  0  0  0  0  0  0  0
    7.4790   10.5750   -3.6430 C   0  0  0  0  0  0  0  0  0  0  0  0
    0.4920   11.3210   -2.6850 C   0  0  1  0  0  0  0  0  0  0  0  0
   -0.8740   11.1550   -1.9660 C   0  0  0  0  0  0  0  0  0  0  0  0
   -0.9760   12.3030   -0.9290 C   0  0  0  0  0  0  0  0  0  0  0  0
    0.1660   13.2740   -1.3090 C   0  0  1  0  0  0  0  0  0  0  0  0
   -0.4040   14.1220   -2.4890 C   0  0  0  0  0  0  0  0  0  0  0  0
    0.7130   14.1810   -0.1580 C   0  0  2  0  0  0  0  0  0  0  0  0
   -0.3110   15.1610    0.4430 C   0  0  0  0  0  0  0  0  0  0  0  0
   -0.3680   16.5030   -0.2090 C   0  0  0  0  0  0  0  0  0  0  0  0
    0.5600   17.0070   -1.0430 C   0  0  0  0  0  0  0  0  0  0  0  0
    1.8590   16.2430   -1.3320 C   0  0  1  0  0  0  0  0  0  0  0  0
    3.0650   17.2140   -1.2280 C   0  0  0  0  0  0  0  0  0  0  0  0
    2.9030   18.4450   -2.1150 C   0  0  0  0  0  0  0  0  0  0  0  0
    1.6310   19.2100   -1.7590 C   0  0  2  0  0  0  0  0  0  0  0  0
    1.7760   19.7590   -0.4460 O   0  0  0  0  0  0  0  0  0  0  0  0
    0.3500   18.3310   -1.8190 C   0  0  0  0  0  0  0  0  0  0  0  0
    0.0250   17.9840   -3.2930 C   0  0  0  0  0  0  0  0  0  0  0  0
   -0.8390   19.1850   -1.3020 C   0  0  0  0  0  0  0  0  0  0  0  0
    2.0770   14.9080   -0.4980 C   0  0  1  0  0  0  0  0  0  0  0  0
    2.7580   15.2370    0.8650 C   0  0  0  0  0  0  0  0  0  0  0  0
    3.0750   13.9720   -1.2780 C   0  0  0  0  0  0  0  0  0  0  0  0
    2.4610   13.0140   -2.3170 C   0  0  0  0  0  0  0  0  0  0  0  0
    1.2790   12.2430   -1.7200 C   0  0  2  0  0  0  0  0  0  0  0  0
    1.8260   11.3640   -0.5440 C   0  0  0  0  0  0  0  0  0  0  0  0
    0.4610    8.9640   -1.2655 H   0  0  0  0  0  0  0  0  0  0  0  0
   -0.6774    8.8631   -2.6514 H   0  0  0  0  0  0  0  0  0  0  0  0
    0.8268    7.8813   -2.6514 H   0  0  0  0  0  0  0  0  0  0  0  0
    1.0477    9.8221   -4.1368 H   0  0  0  0  0  0  0  0  0  0  0  0
    2.7668   10.6284   -1.8032 H   0  0  0  0  0  0  0  0  0  0  0  0
    2.9286    8.9567   -2.5257 H   0  0  0  0  0  0  0  0  0  0  0  0
    3.5539    9.8136   -4.6331 H   0  0  0  0  0  0  0  0  0  0  0  0
    3.0943   11.5017   -4.1566 H   0  0  0  0  0  0  0  0  0  0  0  0
    4.7100   10.2911   -2.3832 H   0  0  0  0  0  0  0  0  0  0  0  0
    5.5205    9.5635   -5.8716 H   0  0  0  0  0  0  0  0  0  0  0  0
    5.3860   11.3287   -6.1761 H   0  0  0  0  0  0  0  0  0  0  0  0
    6.9987   10.5376   -6.1761 H   0  0  0  0  0  0  0  0  0  0  0  0
    7.3971   10.5889   -2.5461 H   0  0  0  0  0  0  0  0  0  0  0  0
    7.8659    9.5984   -3.9695 H   0  0  0  0  0  0  0  0  0  0  0  0
    8.1663   11.3694   -3.9695 H   0  0  0  0  0  0  0  0  0  0  0  0
    0.4382   11.7795   -3.6834 H   0  0  0  0  0  0  0  0  0  0  0  0
   -1.6961   11.2273   -2.6932 H   0  0  0  0  0  0  0  0  0  0  0  0
   -0.9457   10.1727   -1.4761 H   0  0  0  0  0  0  0  0  0  0  0  0
   -1.9523   12.8049   -0.9999 H   0  0  0  0  0  0  0  0  0  0  0  0
   -0.8880   11.9398    0.1056 H   0  0  0  0  0  0  0  0  0  0  0  0
   -0.9753   14.9719   -2.0873 H   0  0  0  0  0  0  0  0  0  0  0  0
    0.4262   14.4969   -3.1056 H   0  0  0  0  0  0  0  0  0  0  0  0
   -1.0646   13.4948   -3.1056 H   0  0  0  0  0  0  0  0  0  0  0  0
    0.9296   13.4504    0.6353 H   0  0  0  0  0  0  0  0  0  0  0  0
   -1.3076   14.7021    0.3640 H   0  0  0  0  0  0  0  0  0  0  0  0
    0.0108   15.3397    1.4796 H   0  0  0  0  0  0  0  0  0  0  0  0
   -1.2425   17.1329    0.0110 H   0  0  0  0  0  0  0  0  0  0  0  0
    1.7695   15.8685   -2.3624 H   0  0  0  0  0  0  0  0  0  0  0  0
    3.1639   17.5429   -0.1830 H   0  0  0  0  0  0  0  0  0  0  0  0
    3.9600   16.6726   -1.5683 H   0  0  0  0  0  0  0  0  0  0  0  0
    3.7714   19.1058   -1.9759 H   0  0  0  0  0  0  0  0  0  0  0  0
    2.8337   18.1164   -3.1625 H   0  0  0  0  0  0  0  0  0  0  0  0
    1.5023   20.0035   -2.5098 H   0  0  0  0  0  0  0  0  0  0  0  0
    2.3970   19.1940    0.0430 H   0  0  0  0  0  0  0  0  0  0  0  0
   -0.7267   17.1815   -3.3236 H   0  0  0  0  0  0  0  0  0  0  0  0
   -0.3701   18.8760   -3.8011 H   0  0  0  0  0  0  0  0  0  0  0  0
    0.9409   17.6481   -3.8011 H   0  0  0  0  0  0  0  0  0  0  0  0
   -0.8393   19.1852   -0.2020 H   0  0  0  0  0  0  0  0  0  0  0  0
   -0.7361   20.2169   -1.6688 H   0  0  0  0  0  0  0  0  0  0  0  0
   -1.7840   18.7579   -1.6688 H   0  0  0  0  0  0  0  0  0  0  0  0
    2.1016   14.9199    1.6888 H   0  0  0  0  0  0  0  0  0  0  0  0
    3.7172   14.7029    0.9340 H   0  0  0  0  0  0  0  0  0  0  0  0
    2.9358   16.3203    0.9340 H   0  0  0  0  0  0  0  0  0  0  0  0
    3.7939   14.6172   -1.8042 H   0  0  0  0  0  0  0  0  0  0  0  0
    3.5169   13.3194   -0.5106 H   0  0  0  0  0  0  0  0  0  0  0  0
    2.1107   13.5971   -3.1815 H   0  0  0  0  0  0  0  0  0  0  0  0
    3.2308   12.2918   -2.6266 H   0  0  0  0  0  0  0  0  0  0  0  0
    1.5427   11.8192    0.4165 H   0  0  0  0  0  0  0  0  0  0  0  0
    1.3971   10.3533   -0.6114 H   0  0  0  0  0  0  0  0  0  0  0  0
    2.9222   11.3024   -0.6114 H   0  0  0  0  0  0  0  0  0  0  0  0
  1  2  1  0
  2  3  1  0
  3  4  1  0
  4  5  1  0
  5  6  1  0
  6  7  1  0
  7  8  1  0
  7  9  1  0
  2 10  1  0
 10 11  1  0
 11 12  1  0
 12 13  1  0
 13 14  1  6
 13 15  1  0
 15 16  1  0
 16 17  1  0
 17 18  2  0
 18 19  1  0
 19 20  1  0
 20 21  1  0
 21 22  1  0
 22 23  1  0
 22 24  1  0
 24 25  1  0
 24 26  1  0
 19 27  1  0
 27 28  1  1
 27 29  1  0
 29 30  1  0
 30 31  1  0
 31 32  1  1
  7  5  1  0
 31 10  1  0
 31 13  1  0
 27 15  1  0
 24 18  1  0
  1 33  1  0
  1 34  1  0
  1 35  1  0
  2 36  1  6
  3 37  1  0
  3 38  1  0
  4 39  1  0
  4 40  1  0
  5 41  1  1
  8 42  1  0
  8 43  1  0
  8 44  1  0
  9 45  1  0
  9 46  1  0
  9 47  1  0
 10 48  1  6
 11 49  1  0
 11 50  1  0
 12 51  1  0
 12 52  1  0
 14 53  1  0
 14 54  1  0
 14 55  1  0
 15 56  1  1
 16 57  1  0
 16 58  1  0
 17 59  1  0
 19 60  1  6
 20 61  1  0
 20 62  1  0
 21 63  1  0
 21 64  1  0
 22 65  1  6
 23 66  1  0
 25 67  1  0
 25 68  1  0
 25 69  1  0
 26 70  1  0
 26 71  1  0
 26 72  1  0
 28 73  1  0
 28 74  1  0
 28 75  1  0
 29 76  1  0
 29 77  1  0
 30 78  1  0
 30 79  1  0
 32 80  1  0
 32 81  1  0
 32 82  1  0
M  END
>  <meeko>  (12) 
{"is_sidechain": [false], "intermolecular_energy": 2.731, "internal_energy": -0.839}

$$$$
EPH_relaxed_0001_pdb2pqr_Repair_130_r2_0001_out
     RDKit          3D

 82 86  0  0  0  0  0  0  0  0999 V2000
    2.6430   16.0210   -8.1680 C   0  0  0  0  0  0  0  0  0  0  0  0
    2.3260   14.5950   -7.7090 C   0  0  2  0  0  0  0  0  0  0  0  0
    1.3290   13.8900   -8.6490 C   0  0  0  0  0  0  0  0  0  0  0  0
    0.3730   14.8490   -9.3640 C   0  0  0  0  0  0  0  0  0  0  0  0
    0.3090   14.5730  -10.8360 C   0  0  2  0  0  0  0  0  0  0  0  0
    0.9640   13.3660  -11.2480 O   0  0  0  0  0  0  0  0  0  0  0  0
    1.5240   14.5930  -11.7440 C   0  0  0  0  0  0  0  0  0  0  0  0
    2.8890   14.8980  -11.2140 C   0  0  0  0  0  0  0  0  0  0  0  0
    1.3150   14.8000  -13.2120 C   0  0  0  0  0  0  0  0  0  0  0  0
    1.7760   14.6180   -6.2880 C   0  0  1  0  0  0  0  0  0  0  0  0
    0.4470   15.4120   -6.1740 C   0  0  0  0  0  0  0  0  0  0  0  0
   -0.4140   14.6930   -5.1050 C   0  0  0  0  0  0  0  0  0  0  0  0
    0.5640   13.7190   -4.4070 C   0  0  1  0  0  0  0  0  0  0  0  0
    1.3360   14.5980   -3.3740 C   0  0  0  0  0  0  0  0  0  0  0  0
   -0.0770   12.4630   -3.7300 C   0  0  2  0  0  0  0  0  0  0  0  0
   -1.0510   12.7670   -2.5790 C   0  0  0  0  0  0  0  0  0  0  0  0
   -0.4330   12.8350   -1.2220 C   0  0  0  0  0  0  0  0  0  0  0  0
    0.7920   12.3810   -0.8970 C   0  0  0  0  0  0  0  0  0  0  0  0
    1.6550   11.6380   -1.9250 C   0  0  1  0  0  0  0  0  0  0  0  0
    2.2530   10.3630   -1.2740 C   0  0  0  0  0  0  0  0  0  0  0  0
    3.0100   10.6650    0.0150 C   0  0  0  0  0  0  0  0  0  0  0  0
    2.1030   11.3500    1.0340 C   0  0  2  0  0  0  0  0  0  0  0  0
    1.0920   10.4250    1.4470 O   0  0  0  0  0  0  0  0  0  0  0  0
    1.4360   12.6430    0.4870 C   0  0  0  0  0  0  0  0  0  0  0  0
    2.5050   13.7520    0.3230 C   0  0  0  0  0  0  0  0  0  0  0  0
    0.4390   13.1570    1.5610 C   0  0  0  0  0  0  0  0  0  0  0  0
    0.9650   11.3430   -3.3250 C   0  0  1  0  0  0  0  0  0  0  0  0
    0.1720   10.0020   -3.2550 C   0  0  0  0  0  0  0  0  0  0  0  0
    2.0820   11.1420   -4.4170 C   0  0  0  0  0  0  0  0  0  0  0  0
    2.5890   12.4080   -5.1340 C   0  0  0  0  0  0  0  0  0  0  0  0
    1.4180   13.2550   -5.6420 C   0  0  2  0  0  0  0  0  0  0  0  0
    0.6350   12.4050   -6.6990 C   0  0  0  0  0  0  0  0  0  0  0  0
    2.7864   16.6659   -7.2885 H   0  0  0  0  0  0  0  0  0  0  0  0
    3.5619   16.0158   -8.7726 H   0  0  0  0  0  0  0  0  0  0  0  0
    1.8084   16.4056   -8.7726 H   0  0  0  0  0  0  0  0  0  0  0  0
    3.2646   14.0220   -7.7356 H   0  0  0  0  0  0  0  0  0  0  0  0
    1.9002   13.3377   -9.4098 H   0  0  0  0  0  0  0  0  0  0  0  0
    0.7119   13.2275   -8.0243 H   0  0  0  0  0  0  0  0  0  0  0  0
   -0.6336   14.7341   -8.9357 H   0  0  0  0  0  0  0  0  0  0  0  0
    0.7466   15.8740   -9.2232 H   0  0  0  0  0  0  0  0  0  0  0  0
   -0.6744   15.0604  -10.9086 H   0  0  0  0  0  0  0  0  0  0  0  0
    2.8650   14.8926  -10.1143 H   0  0  0  0  0  0  0  0  0  0  0  0
    3.5988   14.1363  -11.5690 H   0  0  0  0  0  0  0  0  0  0  0  0
    3.2071   15.8894  -11.5690 H   0  0  0  0  0  0  0  0  0  0  0  0
    0.5413   15.5663  -13.3678 H   0  0  0  0  0  0  0  0  0  0  0  0
    2.2571   15.1310  -13.6734 H   0  0  0  0  0  0  0  0  0  0  0  0
    0.9930   13.8548  -13.6734 H   0  0  0  0  0  0  0  0  0  0  0  0
    2.6326   15.0696   -5.7662 H   0  0  0  0  0  0  0  0  0  0  0  0
    0.6500   16.4474   -5.8630 H   0  0  0  0  0  0  0  0  0  0  0  0
   -0.0749   15.4488   -7.1416 H   0  0  0  0  0  0  0  0  0  0  0  0
   -0.8220   15.4167   -4.3840 H   0  0  0  0  0  0  0  0  0  0  0  0
   -1.2774   14.1729   -5.5455 H   0  0  0  0  0  0  0  0  0  0  0  0
    1.0644   14.2887   -2.3539 H   0  0  0  0  0  0  0  0  0  0  0  0
    2.4187   14.4697   -3.5200 H   0  0  0  0  0  0  0  0  0  0  0  0
    1.0690   15.6551   -3.5200 H   0  0  0  0  0  0  0  0  0  0  0  0
   -0.6940   12.0477   -4.5404 H   0  0  0  0  0  0  0  0  0  0  0  0
   -1.5277   13.7368   -2.7844 H   0  0  0  0  0  0  0  0  0  0  0  0
   -1.7589   11.9256   -2.5492 H   0  0  0  0  0  0  0  0  0  0  0  0
   -1.0288   13.2949   -0.4198 H   0  0  0  0  0  0  0  0  0  0  0  0
    2.4641   12.3303   -2.2006 H   0  0  0  0  0  0  0  0  0  0  0  0
    1.4333    9.6656   -1.0465 H   0  0  0  0  0  0  0  0  0  0  0  0
    2.9684    9.9278   -1.9874 H   0  0  0  0  0  0  0  0  0  0  0  0
    3.3836    9.7226    0.4420 H   0  0  0  0  0  0  0  0  0  0  0  0
    3.8463   11.3399   -0.2195 H   0  0  0  0  0  0  0  0  0  0  0  0
    2.7319   11.6557    1.8831 H   0  0  0  0  0  0  0  0  0  0  0  0
    0.8670   10.6290    2.3710 H   0  0  0  0  0  0  0  0  0  0  0  0
    2.8342   14.0936    1.3154 H   0  0  0  0  0  0  0  0  0  0  0  0
    3.3666   13.3517   -0.2315 H   0  0  0  0  0  0  0  0  0  0  0  0
    2.0733   14.5983   -0.2315 H   0  0  0  0  0  0  0  0  0  0  0  0
    0.8411   12.9497    2.5637 H   0  0  0  0  0  0  0  0  0  0  0  0
    0.2964   14.2410    1.4400 H   0  0  0  0  0  0  0  0  0  0  0  0
   -0.5267   12.6444    1.4400 H   0  0  0  0  0  0  0  0  0  0  0  0
    0.0092    9.7268   -2.2025 H   0  0  0  0  0  0  0  0  0  0  0  0
   -0.7994   10.1238   -3.7566 H   0  0  0  0  0  0  0  0  0  0  0  0
    0.7468    9.2095   -3.7566 H   0  0  0  0  0  0  0  0  0  0  0  0
    2.9456   10.6691   -3.9265 H   0  0  0  0  0  0  0  0  0  0  0  0
    1.6093   10.5357   -5.2037 H   0  0  0  0  0  0  0  0  0  0  0  0
    3.1868   13.0055   -4.4300 H   0  0  0  0  0  0  0  0  0  0  0  0
    3.2012   12.1025   -5.9953 H   0  0  0  0  0  0  0  0  0  0  0  0
   -0.0225   11.6912   -6.1812 H   0  0  0  0  0  0  0  0  0  0  0  0
    0.0282   13.0719   -7.3291 H   0  0  0  0  0  0  0  0  0  0  0  0
    1.3494   11.8549   -7.3291 H   0  0  0  0  0  0  0  0  0  0  0  0
  1  2  1  0
  2  3  1  0
  3  4  1  0
  4  5  1  0
  5  6  1  0
  6  7  1  0
  7  8  1  0
  7  9  1  0
  2 10  1  0
 10 11  1  0
 11 12  1  0
 12 13  1  0
 13 14  1  1
 13 15  1  0
 15 16  1  0
 16 17  1  0
 17 18  2  0
 18 19  1  0
 19 20  1  0
 20 21  1  0
 21 22  1  0
 22 23  1  0
 22 24  1  0
 24 25  1  0
 24 26  1  0
 19 27  1  0
 27 28  1  1
 27 29  1  0
 29 30  1  0
 30 31  1  0
 31 32  1  6
  7  5  1  0
 31 10  1  0
 31 13  1  0
 27 15  1  0
 24 18  1  0
  1 33  1  0
  1 34  1  0
  1 35  1  0
  2 36  1  1
  3 37  1  0
  3 38  1  0
  4 39  1  0
  4 40  1  0
  5 41  1  6
  8 42  1  0
  8 43  1  0
  8 44  1  0
  9 45  1  0
  9 46  1  0
  9 47  1  0
 10 48  1  1
 11 49  1  0
 11 50  1  0
 12 51  1  0
 12 52  1  0
 14 53  1  0
 14 54  1  0
 14 55  1  0
 15 56  1  6
 16 57  1  0
 16 58  1  0
 17 59  1  0
 19 60  1  6
 20 61  1  0
 20 62  1  0
 21 63  1  0
 21 64  1  0
 22 65  1  1
 23 66  1  0
 25 67  1  0
 25 68  1  0
 25 69  1  0
 26 70  1  0
 26 71  1  0
 26 72  1  0
 28 73  1  0
 28 74  1  0
 28 75  1  0
 29 76  1  0
 29 77  1  0
 30 78  1  0
 30 79  1  0
 32 80  1  0
 32 81  1  0
 32 82  1  0
M  END
>  <meeko>  (13) 
{"is_sidechain": [false], "intermolecular_energy": 2.731, "internal_energy": -0.839}

$$$$
EPH_relaxed_0001_pdb2pqr_Repair_130_r2_0001_out
     RDKit          3D

 82 86  0  0  0  0  0  0  0  0999 V2000
    0.0800    9.3400   -2.3460 C   0  0  0  0  0  0  0  0  0  0  0  0
    1.1390   10.3520   -2.7930 C   0  0  2  0  0  0  0  0  0  0  0  0
    2.5460    9.7250   -2.8690 C   0  0  0  0  0  0  0  0  0  0  0  0
    3.4720   10.4120   -3.8760 C   0  0  0  0  0  0  0  0  0  0  0  0
    4.8540   10.5910   -3.3250 C   0  0  2  0  0  0  0  0  0  0  0  0
    5.4520   11.8630   -3.6100 O   0  0  0  0  0  0  0  0  0  0  0  0
    6.0910   10.7170   -4.1940 C   0  0  0  0  0  0  0  0  0  0  0  0
    6.0040   10.6670   -5.6880 C   0  0  0  0  0  0  0  0  0  0  0  0
    7.4240   10.3980   -3.5920 C   0  0  0  0  0  0  0  0  0  0  0  0
    1.1500   11.5450   -1.8450 C   0  0  1  0  0  0  0  0  0  0  0  0
    2.2180   11.4100   -0.7270 C   0  0  0  0  0  0  0  0  0  0  0  0
    2.7530   12.8370   -0.4440 C   0  0  0  0  0  0  0  0  0  0  0  0
    1.7540   13.7770   -1.1590 C   0  0  1  0  0  0  0  0  0  0  0  0
    0.5460   13.8990   -0.1780 C   0  0  0  0  0  0  0  0  0  0  0  0
    2.3030   15.1800   -1.5760 C   0  0  2  0  0  0  0  0  0  0  0  0
    2.7570   16.0760   -0.4100 C   0  0  0  0  0  0  0  0  0  0  0  0
    1.7030   16.9680    0.1560 C   0  0  0  0  0  0  0  0  0  0  0  0
    0.5260   17.2580   -0.4290 C   0  0  0  0  0  0  0  0  0  0  0  0
    0.1990   16.7430   -1.8360 C   0  0  1  0  0  0  0  0  0  0  0  0
   -0.3860   17.9010   -2.6880 C   0  0  0  0  0  0  0  0  0  0  0  0
   -1.5820   18.5730   -2.0200 C   0  0  0  0  0  0  0  0  0  0  0  0
   -1.2010   19.1230   -0.6470 C   0  0  2  0  0  0  0  0  0  0  0  0
   -0.2690   20.1940   -0.8230 O   0  0  0  0  0  0  0  0  0  0  0  0
   -0.5910   18.0490    0.2960 C   0  0  0  0  0  0  0  0  0  0  0  0
   -1.6920   17.0490    0.7270 C   0  0  0  0  0  0  0  0  0  0  0  0
   -0.1210   18.7630    1.5920 C   0  0  0  0  0  0  0  0  0  0  0  0
    1.3690   15.9690   -2.5810 C   0  0  1  0  0  0  0  0  0  0  0  0
    2.2830   16.9830   -3.3350 C   0  0  0  0  0  0  0  0  0  0  0  0
    0.7460   15.0300   -3.6810 C   0  0  0  0  0  0  0  0  0  0  0  0
    0.3340   13.6150   -3.2340 C   0  0  0  0  0  0  0  0  0  0  0  0
    1.4640   12.9350   -2.4540 C   0  0  2  0  0  0  0  0  0  0  0  0
    2.6860   12.7780   -3.4220 C   0  0  0  0  0  0  0  0  0  0  0  0
    0.0453    9.3068   -1.2470 H   0  0  0  0  0  0  0  0  0  0  0  0
   -0.9035    9.6425   -2.7349 H   0  0  0  0  0  0  0  0  0  0  0  0
    0.3375    8.3438   -2.7349 H   0  0  0  0  0  0  0  0  0  0  0  0
    0.8717   10.6854   -3.8066 H   0  0  0  0  0  0  0  0  0  0  0  0
    3.0085    9.7877   -1.8729 H   0  0  0  0  0  0  0  0  0  0  0  0
    2.4173    8.6862   -3.2072 H   0  0  0  0  0  0  0  0  0  0  0  0
    3.5280    9.7969   -4.7862 H   0  0  0  0  0  0  0  0  0  0  0  0
    3.0595   11.4073   -4.0978 H   0  0  0  0  0  0  0  0  0  0  0  0
    4.6195    9.9481   -2.4638 H   0  0  0  0  0  0  0  0  0  0  0  0
    5.0855   10.1391   -5.9843 H   0  0  0  0  0  0  0  0  0  0  0  0
    5.9837   11.6913   -6.0886 H   0  0  0  0  0  0  0  0  0  0  0  0
    6.8788   10.1339   -6.0886 H   0  0  0  0  0  0  0  0  0  0  0  0
    7.3449   10.4169   -2.4950 H   0  0  0  0  0  0  0  0  0  0  0  0
    7.7443    9.3979   -3.9193 H   0  0  0  0  0  0  0  0  0  0  0  0
    8.1623   11.1448   -3.9193 H   0  0  0  0  0  0  0  0  0  0  0  0
    0.1070   11.5130   -1.4971 H   0  0  0  0  0  0  0  0  0  0  0  0
    1.7636   10.9888    0.1819 H   0  0  0  0  0  0  0  0  0  0  0  0
    3.0315   10.7378   -1.0374 H   0  0  0  0  0  0  0  0  0  0  0  0
    2.7697   13.0381    0.6373 H   0  0  0  0  0  0  0  0  0  0  0  0
    3.7842   12.9745   -0.8014 H   0  0  0  0  0  0  0  0  0  0  0  0
    0.9107   13.8622    0.8591 H   0  0  0  0  0  0  0  0  0  0  0  0
    0.0282   14.8540   -0.3509 H   0  0  0  0  0  0  0  0  0  0  0  0
   -0.1523   13.0668   -0.3509 H   0  0  0  0  0  0  0  0  0  0  0  0
    3.2186   14.9204   -2.1276 H   0  0  0  0  0  0  0  0  0  0  0  0
    3.1205   15.4241    0.3980 H   0  0  0  0  0  0  0  0  0  0  0  0
    3.5306   16.7415   -0.8208 H   0  0  0  0  0  0  0  0  0  0  0  0
    1.9052   17.4277    1.1347 H   0  0  0  0  0  0  0  0  0  0  0  0
   -0.5586   15.9567   -1.7031 H   0  0  0  0  0  0  0  0  0  0  0  0
    0.3996   18.6548   -2.8451 H   0  0  0  0  0  0  0  0  0  0  0  0
   -0.7326   17.4727   -3.6401 H   0  0  0  0  0  0  0  0  0  0  0  0
   -1.9314   19.4003   -2.6551 H   0  0  0  0  0  0  0  0  0  0  0  0
   -2.3784   17.8253   -1.8906 H   0  0  0  0  0  0  0  0  0  0  0  0
   -2.1247   19.4748   -0.1644 H   0  0  0  0  0  0  0  0  0  0  0  0
    0.4390   20.0790   -0.1660 H   0  0  0  0  0  0  0  0  0  0  0  0
   -1.7390   17.0063    1.8252 H   0  0  0  0  0  0  0  0  0  0  0  0
   -2.6634   17.3800    0.3310 H   0  0  0  0  0  0  0  0  0  0  0  0
   -1.4557   16.0503    0.3310 H   0  0  0  0  0  0  0  0  0  0  0  0
   -0.4860   18.2085    2.4691 H   0  0  0  0  0  0  0  0  0  0  0  0
    0.9782   18.7994    1.6126 H   0  0  0  0  0  0  0  0  0  0  0  0
   -0.5222   19.7870    1.6126 H   0  0  0  0  0  0  0  0  0  0  0  0
    2.8336   17.5938   -2.6045 H   0  0  0  0  0  0  0  0  0  0  0  0
    2.9972   16.4339   -3.9662 H   0  0  0  0  0  0  0  0  0  0  0  0
    1.6629   17.6365   -3.9662 H   0  0  0  0  0  0  0  0  0  0  0  0
   -0.1516   15.5291   -4.0750 H   0  0  0  0  0  0  0  0  0  0  0  0
    1.5490   14.8769   -4.4171 H   0  0  0  0  0  0  0  0  0  0  0  0
   -0.5554   13.6857   -2.5906 H   0  0  0  0  0  0  0  0  0  0  0  0
    0.1152   13.0144   -4.1292 H   0  0  0  0  0  0  0  0  0  0  0  0
    3.6075   12.6596   -2.8330 H   0  0  0  0  0  0  0  0  0  0  0  0
    2.5398   11.8913   -4.0563 H   0  0  0  0  0  0  0  0  0  0  0  0
    2.7687   13.6729   -4.0563 H   0  0  0  0  0  0  0  0  0  0  0  0
  1  2  1  0
  2  3  1  0
  3  4  1  0
  4  5  1  0
  5  6  1  0
  6  7  1  0
  7  8  1  0
  7  9  1  0
  2 10  1  0
 10 11  1  0
 11 12  1  0
 12 13  1  0
 13 14  1  1
 13 15  1  0
 15 16  1  0
 16 17  1  0
 17 18  2  0
 18 19  1  0
 19 20  1  0
 20 21  1  0
 21 22  1  0
 22 23  1  0
 22 24  1  0
 24 25  1  0
 24 26  1  0
 19 27  1  0
 27 28  1  6
 27 29  1  0
 29 30  1  0
 30 31  1  0
 31 32  1  6
  7  5  1  0
 31 10  1  0
 31 13  1  0
 27 15  1  0
 24 18  1  0
  1 33  1  0
  1 34  1  0
  1 35  1  0
  2 36  1  6
  3 37  1  0
  3 38  1  0
  4 39  1  0
  4 40  1  0
  5 41  1  1
  8 42  1  0
  8 43  1  0
  8 44  1  0
  9 45  1  0
  9 46  1  0
  9 47  1  0
 10 48  1  1
 11 49  1  0
 11 50  1  0
 12 51  1  0
 12 52  1  0
 14 53  1  0
 14 54  1  0
 14 55  1  0
 15 56  1  6
 16 57  1  0
 16 58  1  0
 17 59  1  0
 19 60  1  1
 20 61  1  0
 20 62  1  0
 21 63  1  0
 21 64  1  0
 22 65  1  1
 23 66  1  0
 25 67  1  0
 25 68  1  0
 25 69  1  0
 26 70  1  0
 26 71  1  0
 26 72  1  0
 28 73  1  0
 28 74  1  0
 28 75  1  0
 29 76  1  0
 29 77  1  0
 30 78  1  0
 30 79  1  0
 32 80  1  0
 32 81  1  0
 32 82  1  0
M  END
>  <meeko>  (14) 
{"is_sidechain": [false], "intermolecular_energy": 2.731, "internal_energy": -0.839}

$$$$
EPH_relaxed_0001_pdb2pqr_Repair_130_r2_0001_out
     RDKit          3D

 82 86  0  0  0  0  0  0  0  0999 V2000
   -2.6670    7.8020   -0.2840 C   0  0  0  0  0  0  0  0  0  0  0  0
   -3.2050    9.2300   -0.1540 C   0  0  2  0  0  0  0  0  0  0  0  0
   -4.7170    9.3090   -0.4490 C   0  0  0  0  0  0  0  0  0  0  0  0
   -5.2320    8.1700   -1.3320 C   0  0  0  0  0  0  0  0  0  0  0  0
   -6.7300    8.1420   -1.3820 C   0  0  2  0  0  0  0  0  0  0  0  0
   -7.3220    6.9220   -0.9160 O   0  0  0  0  0  0  0  0  0  0  0  0
   -7.5190    7.2320   -2.3050 C   0  0  0  0  0  0  0  0  0  0  0  0
   -6.8340    6.2870   -3.2420 C   0  0  0  0  0  0  0  0  0  0  0  0
   -8.9280    7.6060   -2.6450 C   0  0  0  0  0  0  0  0  0  0  0  0
   -2.4420   10.1600   -1.0890 C   0  0  1  0  0  0  0  0  0  0  0  0
   -3.0500   11.5880   -1.1380 C   0  0  0  0  0  0  0  0  0  0  0  0
   -1.8650   12.5730   -1.3060 C   0  0  0  0  0  0  0  0  0  0  0  0
   -0.6620   11.6750   -1.6800 C   0  0  1  0  0  0  0  0  0  0  0  0
   -0.8200   11.4080   -3.2090 C   0  0  0  0  0  0  0  0  0  0  0  0
    0.7550   12.2410   -1.3360 C   0  0  2  0  0  0  0  0  0  0  0  0
    1.1310   13.5440   -2.0630 C   0  0  0  0  0  0  0  0  0  0  0  0
    1.8280   13.3660   -3.3710 C   0  0  0  0  0  0  0  0  0  0  0  0
    2.3930   12.2250   -3.8080 C   0  0  0  0  0  0  0  0  0  0  0  0
    2.4490   10.9810   -2.9120 C   0  0  1  0  0  0  0  0  0  0  0  0
    3.8750   10.3720   -2.9620 C   0  0  0  0  0  0  0  0  0  0  0  0
    4.3400   10.0860   -4.3860 C   0  0  0  0  0  0  0  0  0  0  0  0
    4.3250   11.3580   -5.2300 C   0  0  2  0  0  0  0  0  0  0  0  0
    5.3190   12.2570   -4.7270 O   0  0  0  0  0  0  0  0  0  0  0  0
    2.9410   12.0660   -5.2470 C   0  0  0  0  0  0  0  0  0  0  0  0
    1.9330   11.2180   -6.0610 C   0  0  0  0  0  0  0  0  0  0  0  0
    3.1000   13.4060   -6.0150 C   0  0  0  0  0  0  0  0  0  0  0  0
    1.9190   11.1720   -1.4260 C   0  0  1  0  0  0  0  0  0  0  0  0
    3.0710   11.6910   -0.5120 C   0  0  0  0  0  0  0  0  0  0  0  0
    1.4900    9.7710   -0.8490 C   0  0  0  0  0  0  0  0  0  0  0  0
    0.0420    9.3220   -1.1200 C   0  0  0  0  0  0  0  0  0  0  0  0
   -0.9520   10.4310   -0.7640 C   0  0  2  0  0  0  0  0  0  0  0  0
   -0.8310   10.7060    0.7740 C   0  0  0  0  0  0  0  0  0  0  0  0
   -2.5072    7.3777    0.7182 H   0  0  0  0  0  0  0  0  0  0  0  0
   -3.3942    7.1847   -0.8318 H   0  0  0  0  0  0  0  0  0  0  0  0
   -1.7132    7.8180   -0.8318 H   0  0  0  0  0  0  0  0  0  0  0  0
   -3.0549    9.5473    0.8885 H   0  0  0  0  0  0  0  0  0  0  0  0
   -5.2594    9.2793    0.5075 H   0  0  0  0  0  0  0  0  0  0  0  0
   -4.8885   10.2455   -0.9999 H   0  0  0  0  0  0  0  0  0  0  0  0
   -4.8436    8.3061   -2.3521 H   0  0  0  0  0  0  0  0  0  0  0  0
   -4.8851    7.2187   -0.9021 H   0  0  0  0  0  0  0  0  0  0  0  0
   -6.7802    9.2245   -1.1931 H   0  0  0  0  0  0  0  0  0  0  0  0
   -6.2851    5.5298   -2.6628 H   0  0  0  0  0  0  0  0  0  0  0  0
   -7.5839    5.7912   -3.8759 H   0  0  0  0  0  0  0  0  0  0  0  0
   -6.1295    6.8455   -3.8759 H   0  0  0  0  0  0  0  0  0  0  0  0
   -9.5008    7.7580   -1.7183 H   0  0  0  0  0  0  0  0  0  0  0  0
   -8.9289    8.5355   -3.2333 H   0  0  0  0  0  0  0  0  0  0  0  0
   -9.3897    6.7993   -3.2333 H   0  0  0  0  0  0  0  0  0  0  0  0
   -2.5243    9.5878   -2.0249 H   0  0  0  0  0  0  0  0  0  0  0  0
   -3.7401   11.6768   -1.9900 H   0  0  0  0  0  0  0  0  0  0  0  0
   -3.6187   11.8068   -0.2222 H   0  0  0  0  0  0  0  0  0  0  0  0
   -2.0728   13.2976   -2.1072 H   0  0  0  0  0  0  0  0  0  0  0  0
   -1.6793   13.1617   -0.3956 H   0  0  0  0  0  0  0  0  0  0  0  0
   -1.3747   10.4705   -3.3621 H   0  0  0  0  0  0  0  0  0  0  0  0
   -1.3713   12.2400   -3.6715 H   0  0  0  0  0  0  0  0  0  0  0  0
    0.1746   11.3252   -3.6715 H   0  0  0  0  0  0  0  0  0  0  0  0
    0.6505   12.5107   -0.2747 H   0  0  0  0  0  0  0  0  0  0  0  0
    0.2060   14.1107   -2.2451 H   0  0  0  0  0  0  0  0  0  0  0  0
    1.8441   14.0639   -1.4064 H   0  0  0  0  0  0  0  0  0  0  0  0
    1.8847   14.2418   -4.0342 H   0  0  0  0  0  0  0  0  0  0  0  0
    1.7235   10.2695   -3.3332 H   0  0  0  0  0  0  0  0  0  0  0  0
    4.5771   11.0800   -2.4974 H   0  0  0  0  0  0  0  0  0  0  0  0
    3.8479    9.4144   -2.4213 H   0  0  0  0  0  0  0  0  0  0  0  0
    5.3640    9.6853   -4.3568 H   0  0  0  0  0  0  0  0  0  0  0  0
    3.6541    9.3553   -4.8395 H   0  0  0  0  0  0  0  0  0  0  0  0
    4.5413   11.0671   -6.2686 H   0  0  0  0  0  0  0  0  0  0  0  0
    6.1660   12.0210   -5.1420 H   0  0  0  0  0  0  0  0  0  0  0  0
    1.2771   10.6662   -5.3715 H   0  0  0  0  0  0  0  0  0  0  0  0
    1.3247   11.8800   -6.6949 H   0  0  0  0  0  0  0  0  0  0  0  0
    2.4811   10.5054   -6.6949 H   0  0  0  0  0  0  0  0  0  0  0  0
    3.1980   14.2319   -5.2950 H   0  0  0  0  0  0  0  0  0  0  0  0
    3.9992   13.3619   -6.6470 H   0  0  0  0  0  0  0  0  0  0  0  0
    2.2154   13.5736   -6.6470 H   0  0  0  0  0  0  0  0  0  0  0  0
    2.7877   11.5634    0.5432 H   0  0  0  0  0  0  0  0  0  0  0  0
    3.9879   11.1190   -0.7172 H   0  0  0  0  0  0  0  0  0  0  0  0
    3.2500   12.7567   -0.7172 H   0  0  0  0  0  0  0  0  0  0  0  0
    2.1598    9.0135   -1.2821 H   0  0  0  0  0  0  0  0  0  0  0  0
    1.5587    9.8766    0.2438 H   0  0  0  0  0  0  0  0  0  0  0  0
   -0.0638    9.0727   -2.1861 H   0  0  0  0  0  0  0  0  0  0  0  0
   -0.1751    8.4430   -0.4954 H   0  0  0  0  0  0  0  0  0  0  0  0
   -1.2126    9.8387    1.3327 H   0  0  0  0  0  0  0  0  0  0  0  0
    0.2244   10.8745    1.0344 H   0  0  0  0  0  0  0  0  0  0  0  0
   -1.4198   11.5979    1.0344 H   0  0  0  0  0  0  0  0  0  0  0  0
  1  2  1  0
  2  3  1  0
  3  4  1  0
  4  5  1  0
  5  6  1  0
  6  7  1  0
  7  8  1  0
  7  9  1  0
  2 10  1  0
 10 11  1  0
 11 12  1  0
 12 13  1  0
 13 14  1  6
 13 15  1  0
 15 16  1  0
 16 17  1  0
 17 18  2  0
 18 19  1  0
 19 20  1  0
 20 21  1  0
 21 22  1  0
 22 23  1  0
 22 24  1  0
 24 25  1  0
 24 26  1  0
 19 27  1  0
 27 28  1  1
 27 29  1  0
 29 30  1  0
 30 31  1  0
 31 32  1  1
  7  5  1  0
 31 10  1  0
 31 13  1  0
 27 15  1  0
 24 18  1  0
  1 33  1  0
  1 34  1  0
  1 35  1  0
  2 36  1  1
  3 37  1  0
  3 38  1  0
  4 39  1  0
  4 40  1  0
  5 41  1  1
  8 42  1  0
  8 43  1  0
  8 44  1  0
  9 45  1  0
  9 46  1  0
  9 47  1  0
 10 48  1  6
 11 49  1  0
 11 50  1  0
 12 51  1  0
 12 52  1  0
 14 53  1  0
 14 54  1  0
 14 55  1  0
 15 56  1  1
 16 57  1  0
 16 58  1  0
 17 59  1  0
 19 60  1  6
 20 61  1  0
 20 62  1  0
 21 63  1  0
 21 64  1  0
 22 65  1  6
 23 66  1  0
 25 67  1  0
 25 68  1  0
 25 69  1  0
 26 70  1  0
 26 71  1  0
 26 72  1  0
 28 73  1  0
 28 74  1  0
 28 75  1  0
 29 76  1  0
 29 77  1  0
 30 78  1  0
 30 79  1  0
 32 80  1  0
 32 81  1  0
 32 82  1  0
M  END
>  <meeko>  (15) 
{"is_sidechain": [false], "intermolecular_energy": 2.731, "internal_energy": -0.839}

$$$$
EPH_relaxed_0001_pdb2pqr_Repair_130_r2_0001_out
     RDKit          3D

 82 86  0  0  0  0  0  0  0  0999 V2000
   -1.1950    8.2460   -1.1790 C   0  0  0  0  0  0  0  0  0  0  0  0
   -1.5110    9.4940   -0.3490 C   0  0  2  0  0  0  0  0  0  0  0  0
   -2.9570    9.4870    0.1840 C   0  0  0  0  0  0  0  0  0  0  0  0
   -4.0180    9.3830   -0.9150 C   0  0  0  0  0  0  0  0  0  0  0  0
   -4.7340    8.0670   -0.8710 C   0  0  2  0  0  0  0  0  0  0  0  0
   -4.7650    7.3610   -2.1190 O   0  0  0  0  0  0  0  0  0  0  0  0
   -6.0340    7.7970   -1.6060 C   0  0  0  0  0  0  0  0  0  0  0  0
   -6.6950    8.8530   -2.4350 C   0  0  0  0  0  0  0  0  0  0  0  0
   -6.9080    6.6800   -1.1270 C   0  0  0  0  0  0  0  0  0  0  0  0
   -1.2690   10.7470   -1.1830 C   0  0  1  0  0  0  0  0  0  0  0  0
   -1.4770   12.0540   -0.3720 C   0  0  0  0  0  0  0  0  0  0  0  0
   -0.4440   13.0800   -0.9030 C   0  0  0  0  0  0  0  0  0  0  0  0
    0.0920   12.4510   -2.2110 C   0  0  1  0  0  0  0  0  0  0  0  0
   -0.9850   12.7880   -3.2890 C   0  0  0  0  0  0  0  0  0  0  0  0
    1.5200   12.9030   -2.6600 C   0  0  2  0  0  0  0  0  0  0  0  0
    1.6590   14.4010   -2.9830 C   0  0  0  0  0  0  0  0  0  0  0  0
    1.3990   14.7740   -4.4050 C   0  0  0  0  0  0  0  0  0  0  0  0
    1.3480   13.9170   -5.4410 C   0  0  0  0  0  0  0  0  0  0  0  0
    1.6600   12.4270   -5.2470 C   0  0  1  0  0  0  0  0  0  0  0  0
    2.6210   11.9490   -6.3680 C   0  0  0  0  0  0  0  0  0  0  0  0
    2.0890   12.2570   -7.7650 C   0  0  0  0  0  0  0  0  0  0  0  0
    1.8470   13.7540   -7.9380 C   0  0  2  0  0  0  0  0  0  0  0  0
    3.1060   14.4320   -7.9020 O   0  0  0  0  0  0  0  0  0  0  0  0
    0.9000   14.3500   -6.8590 C   0  0  0  0  0  0  0  0  0  0  0  0
   -0.5430   13.8370   -7.0910 C   0  0  0  0  0  0  0  0  0  0  0  0
    0.8520   15.8890   -7.0640 C   0  0  0  0  0  0  0  0  0  0  0  0
    2.1560   12.0060   -3.7980 C   0  0  1  0  0  0  0  0  0  0  0  0
    3.7020   12.1830   -3.6920 C   0  0  0  0  0  0  0  0  0  0  0  0
    1.8690   10.4730   -3.5810 C   0  0  0  0  0  0  0  0  0  0  0  0
    0.4830   10.0980   -3.0220 C   0  0  0  0  0  0  0  0  0  0  0  0
    0.1440   10.9380   -1.7870 C   0  0  2  0  0  0  0  0  0  0  0  0
    1.1980   10.6040   -0.6770 C   0  0  0  0  0  0  0  0  0  0  0  0
   -0.9814    7.4025   -0.5060 H   0  0  0  0  0  0  0  0  0  0  0  0
   -2.0590    7.9992   -1.8135 H   0  0  0  0  0  0  0  0  0  0  0  0
   -0.3177    8.4401   -1.8135 H   0  0  0  0  0  0  0  0  0  0  0  0
   -0.8391    9.4909    0.5220 H   0  0  0  0  0  0  0  0  0  0  0  0
   -3.0732    8.6280    0.8612 H   0  0  0  0  0  0  0  0  0  0  0  0
   -3.1160   10.4485    0.6942 H   0  0  0  0  0  0  0  0  0  0  0  0
   -4.7508   10.1923   -0.7808 H   0  0  0  0  0  0  0  0  0  0  0  0
   -3.5128    9.4663   -1.8886 H   0  0  0  0  0  0  0  0  0  0  0  0
   -4.4313    7.9099    0.1748 H   0  0  0  0  0  0  0  0  0  0  0  0
   -7.1618    9.5987   -1.7747 H   0  0  0  0  0  0  0  0  0  0  0  0
   -5.9432    9.3448   -3.0698 H   0  0  0  0  0  0  0  0  0  0  0  0
   -7.4658    8.3917   -3.0698 H   0  0  0  0  0  0  0  0  0  0  0  0
   -6.9176    6.6678   -0.0271 H   0  0  0  0  0  0  0  0  0  0  0  0
   -7.9317    6.8292   -1.5010 H   0  0  0  0  0  0  0  0  0  0  0  0
   -6.5170    5.7223   -1.5010 H   0  0  0  0  0  0  0  0  0  0  0  0
   -2.0014   10.5774   -1.9860 H   0  0  0  0  0  0  0  0  0  0  0  0
   -2.4986   12.4336   -0.5210 H   0  0  0  0  0  0  0  0  0  0  0  0
   -1.3391   11.8764    0.7048 H   0  0  0  0  0  0  0  0  0  0  0  0
   -0.9265   14.0474   -1.1063 H   0  0  0  0  0  0  0  0  0  0  0  0
    0.3575   13.2798   -0.1766 H   0  0  0  0  0  0  0  0  0  0  0  0
   -1.9217   13.0811   -2.7924 H   0  0  0  0  0  0  0  0  0  0  0  0
   -0.6280   13.6174   -3.9172 H   0  0  0  0  0  0  0  0  0  0  0  0
   -1.1644   11.9031   -3.9172 H   0  0  0  0  0  0  0  0  0  0  0  0
    2.1163   12.7364   -1.7508 H   0  0  0  0  0  0  0  0  0  0  0  0
    0.9468   14.9523   -2.3514 H   0  0  0  0  0  0  0  0  0  0  0  0
    2.7109   14.6577   -2.7887 H   0  0  0  0  0  0  0  0  0  0  0  0
    1.2353   15.8394   -4.6243 H   0  0  0  0  0  0  0  0  0  0  0  0
    0.6975   11.9011   -5.3310 H   0  0  0  0  0  0  0  0  0  0  0  0
    3.5902   12.4534   -6.2405 H   0  0  0  0  0  0  0  0  0  0  0  0
    2.7188   10.8568   -6.2810 H   0  0  0  0  0  0  0  0  0  0  0  0
    2.8238   11.9223   -8.5120 H   0  0  0  0  0  0  0  0  0  0  0  0
    1.1340   11.7286   -7.9017 H   0  0  0  0  0  0  0  0  0  0  0  0
    1.3471   13.8977   -8.9072 H   0  0  0  0  0  0  0  0  0  0  0  0
    2.9300   15.3690   -7.7080 H   0  0  0  0  0  0  0  0  0  0  0  0
   -1.0309   13.6635   -6.1205 H   0  0  0  0  0  0  0  0  0  0  0  0
   -1.1123   14.5878   -7.6586 H   0  0  0  0  0  0  0  0  0  0  0  0
   -0.5106   12.8953   -7.6586 H   0  0  0  0  0  0  0  0  0  0  0  0
    0.8364   16.3891   -6.0844 H   0  0  0  0  0  0  0  0  0  0  0  0
    1.7405   16.2119   -7.6264 H   0  0  0  0  0  0  0  0  0  0  0  0
   -0.0549   16.1559   -7.6264 H   0  0  0  0  0  0  0  0  0  0  0  0
    3.9954   12.2166   -2.6324 H   0  0  0  0  0  0  0  0  0  0  0  0
    4.2026   11.3363   -4.1844 H   0  0  0  0  0  0  0  0  0  0  0  0
    3.9983   13.1209   -4.1844 H   0  0  0  0  0  0  0  0  0  0  0  0
    1.9820    9.9723   -4.5539 H   0  0  0  0  0  0  0  0  0  0  0  0
    2.5863   10.1520   -2.8113 H   0  0  0  0  0  0  0  0  0  0  0  0
   -0.2773   10.2746   -3.7970 H   0  0  0  0  0  0  0  0  0  0  0  0
    0.4975    9.0372   -2.7313 H   0  0  0  0  0  0  0  0  0  0  0  0
    0.7442   10.7478    0.3147 H   0  0  0  0  0  0  0  0  0  0  0  0
    1.5236    9.5587   -0.7832 H   0  0  0  0  0  0  0  0  0  0  0  0
    2.0662   11.2710   -0.7832 H   0  0  0  0  0  0  0  0  0  0  0  0
  1  2  1  0
  2  3  1  0
  3  4  1  0
  4  5  1  0
  5  6  1  0
  6  7  1  0
  7  8  1  0
  7  9  1  0
  2 10  1  0
 10 11  1  0
 11 12  1  0
 12 13  1  0
 13 14  1  6
 13 15  1  0
 15 16  1  0
 16 17  1  0
 17 18  2  0
 18 19  1  0
 19 20  1  0
 20 21  1  0
 21 22  1  0
 22 23  1  0
 22 24  1  0
 24 25  1  0
 24 26  1  0
 19 27  1  0
 27 28  1  6
 27 29  1  0
 29 30  1  0
 30 31  1  0
 31 32  1  1
  7  5  1  0
 31 10  1  0
 31 13  1  0
 27 15  1  0
 24 18  1  0
  1 33  1  0
  1 34  1  0
  1 35  1  0
  2 36  1  1
  3 37  1  0
  3 38  1  0
  4 39  1  0
  4 40  1  0
  5 41  1  1
  8 42  1  0
  8 43  1  0
  8 44  1  0
  9 45  1  0
  9 46  1  0
  9 47  1  0
 10 48  1  6
 11 49  1  0
 11 50  1  0
 12 51  1  0
 12 52  1  0
 14 53  1  0
 14 54  1  0
 14 55  1  0
 15 56  1  1
 16 57  1  0
 16 58  1  0
 17 59  1  0
 19 60  1  6
 20 61  1  0
 20 62  1  0
 21 63  1  0
 21 64  1  0
 22 65  1  6
 23 66  1  0
 25 67  1  0
 25 68  1  0
 25 69  1  0
 26 70  1  0
 26 71  1  0
 26 72  1  0
 28 73  1  0
 28 74  1  0
 28 75  1  0
 29 76  1  0
 29 77  1  0
 30 78  1  0
 30 79  1  0
 32 80  1  0
 32 81  1  0
 32 82  1  0
M  END
>  <meeko>  (16) 
{"is_sidechain": [false], "intermolecular_energy": 2.731, "internal_energy": -0.839}

$$$$
EPH_relaxed_0001_pdb2pqr_Repair_130_r2_0001_out
     RDKit          3D

 82 86  0  0  0  0  0  0  0  0999 V2000
    0.5310    8.9370   -1.9700 C   0  0  0  0  0  0  0  0  0  0  0  0
    0.9750   10.0030   -2.9750 C   0  0  2  0  0  0  0  0  0  0  0  0
    2.5100   10.1230   -3.0540 C   0  0  0  0  0  0  0  0  0  0  0  0
    2.9930   11.3340   -3.8580 C   0  0  0  0  0  0  0  0  0  0  0  0
    2.7470   11.1580   -5.3260 C   0  0  2  0  0  0  0  0  0  0  0  0
    3.2840   12.2000   -6.1520 O   0  0  0  0  0  0  0  0  0  0  0  0
    1.8530   12.0750   -6.1400 C   0  0  0  0  0  0  0  0  0  0  0  0
    1.1460   13.2350   -5.5120 C   0  0  0  0  0  0  0  0  0  0  0  0
    1.2820   11.5610   -7.4250 C   0  0  0  0  0  0  0  0  0  0  0  0
    0.3660   11.3510   -2.6070 C   0  0  1  0  0  0  0  0  0  0  0  0
   -0.9990   11.2110   -1.8810 C   0  0  0  0  0  0  0  0  0  0  0  0
   -1.0740   12.3610   -0.8440 C   0  0  0  0  0  0  0  0  0  0  0  0
    0.0840   13.3110   -1.2310 C   0  0  1  0  0  0  0  0  0  0  0  0
   -0.4760   14.1670   -2.4090 C   0  0  0  0  0  0  0  0  0  0  0  0
    0.6530   14.2090   -0.0840 C   0  0  2  0  0  0  0  0  0  0  0  0
   -0.3490   15.2070    0.5210 C   0  0  0  0  0  0  0  0  0  0  0  0
   -0.3840   16.5500   -0.1320 C   0  0  0  0  0  0  0  0  0  0  0  0
    0.5490   17.0360   -0.9710 C   0  0  0  0  0  0  0  0  0  0  0  0
    1.8320   16.2480   -1.2660 C   0  0  1  0  0  0  0  0  0  0  0  0
    3.0560   17.1950   -1.1700 C   0  0  0  0  0  0  0  0  0  0  0  0
    2.9120   18.4280   -2.0570 C   0  0  0  0  0  0  0  0  0  0  0  0
    1.6570   19.2170   -1.6950 C   0  0  2  0  0  0  0  0  0  0  0  0
    1.8190   19.7660   -0.3830 O   0  0  0  0  0  0  0  0  0  0  0  0
    0.3590   18.3630   -1.7470 C   0  0  0  0  0  0  0  0  0  0  0  0
    0.0210   18.0210   -3.2190 C   0  0  0  0  0  0  0  0  0  0  0  0
   -0.8110   19.2390   -1.2250 C   0  0  0  0  0  0  0  0  0  0  0  0
    2.0290   14.9090   -0.4320 C   0  0  1  0  0  0  0  0  0  0  0  0
    2.7230   15.2270    0.9280 C   0  0  0  0  0  0  0  0  0  0  0  0
    3.0050   13.9540   -1.2160 C   0  0  0  0  0  0  0  0  0  0  0  0
    2.3680   13.0070   -2.2500 C   0  0  0  0  0  0  0  0  0  0  0  0
    1.1750   12.2590   -1.6470 C   0  0  2  0  0  0  0  0  0  0  0  0
    1.7120   11.3710   -0.4730 C   0  0  0  0  0  0  0  0  0  0  0  0
    0.6864    9.3102   -0.9470 H   0  0  0  0  0  0  0  0  0  0  0  0
   -0.5353    8.7127   -2.1204 H   0  0  0  0  0  0  0  0  0  0  0  0
    1.1229    8.0221   -2.1204 H   0  0  0  0  0  0  0  0  0  0  0  0
    0.6163    9.6915   -3.9671 H   0  0  0  0  0  0  0  0  0  0  0  0
    2.9049   10.2058   -2.0307 H   0  0  0  0  0  0  0  0  0  0  0  0
    2.8760    9.2255   -3.5741 H   0  0  0  0  0  0  0  0  0  0  0  0
    2.4562   12.2293   -3.5113 H   0  0  0  0  0  0  0  0  0  0  0  0
    4.0768   11.4394   -3.7019 H   0  0  0  0  0  0  0  0  0  0  0  0
    2.7852   10.0633   -5.2255 H   0  0  0  0  0  0  0  0  0  0  0  0
    1.1993   13.1476   -4.4168 H   0  0  0  0  0  0  0  0  0  0  0  0
    1.6265   14.1724   -5.8288 H   0  0  0  0  0  0  0  0  0  0  0  0
    0.0926   13.2376   -5.8288 H   0  0  0  0  0  0  0  0  0  0  0  0
    0.4806   10.8396   -7.2075 H   0  0  0  0  0  0  0  0  0  0  0  0
    0.8721   12.4004   -8.0058 H   0  0  0  0  0  0  0  0  0  0  0  0
    2.0738   11.0654   -8.0058 H   0  0  0  0  0  0  0  0  0  0  0  0
    0.3160   11.8096   -3.6056 H   0  0  0  0  0  0  0  0  0  0  0  0
   -1.8233   11.2986   -2.6040 H   0  0  0  0  0  0  0  0  0  0  0  0
   -1.0867   10.2304   -1.3904 H   0  0  0  0  0  0  0  0  0  0  0  0
   -2.0412   12.8808   -0.9097 H   0  0  0  0  0  0  0  0  0  0  0  0
   -0.9870   11.9966    0.1902 H   0  0  0  0  0  0  0  0  0  0  0  0
   -1.0363   15.0235   -2.0059 H   0  0  0  0  0  0  0  0  0  0  0  0
    0.3583   14.5322   -3.0258 H   0  0  0  0  0  0  0  0  0  0  0  0
   -1.1449   13.5488   -3.0258 H   0  0  0  0  0  0  0  0  0  0  0  0
    0.8596   13.4762    0.7099 H   0  0  0  0  0  0  0  0  0  0  0  0
   -1.3543   14.7666    0.4470 H   0  0  0  0  0  0  0  0  0  0  0  0
   -0.0193   15.3800    1.5561 H   0  0  0  0  0  0  0  0  0  0  0  0
   -1.2454   17.1964    0.0920 H   0  0  0  0  0  0  0  0  0  0  0  0
    1.7300   15.8750   -2.2958 H   0  0  0  0  0  0  0  0  0  0  0  0
    3.1674   17.5227   -0.1259 H   0  0  0  0  0  0  0  0  0  0  0  0
    3.9385   16.6364   -1.5150 H   0  0  0  0  0  0  0  0  0  0  0  0
    3.7934   19.0725   -1.9234 H   0  0  0  0  0  0  0  0  0  0  0  0
    2.8305   18.0998   -3.1037 H   0  0  0  0  0  0  0  0  0  0  0  0
    1.5399   20.0116   -2.4466 H   0  0  0  0  0  0  0  0  0  0  0  0
    2.4500   19.2020    0.0960 H   0  0  0  0  0  0  0  0  0  0  0  0
   -0.7520   17.2388   -3.2455 H   0  0  0  0  0  0  0  0  0  0  0  0
   -0.3514   18.9219   -3.7286 H   0  0  0  0  0  0  0  0  0  0  0  0
    0.9263   17.6593   -3.7286 H   0  0  0  0  0  0  0  0  0  0  0  0
   -0.8082   19.2369   -0.1250 H   0  0  0  0  0  0  0  0  0  0  0  0
   -0.6887   20.2694   -1.5900 H   0  0  0  0  0  0  0  0  0  0  0  0
   -1.7653   18.8315   -1.5900 H   0  0  0  0  0  0  0  0  0  0  0  0
    2.0640   14.9250    1.7554 H   0  0  0  0  0  0  0  0  0  0  0  0
    3.6714   14.6736    0.9939 H   0  0  0  0  0  0  0  0  0  0  0  0
    2.9231   16.3066    0.9939 H   0  0  0  0  0  0  0  0  0  0  0  0
    3.7330   14.5851   -1.7468 H   0  0  0  0  0  0  0  0  0  0  0  0
    3.4388   13.2942   -0.4502 H   0  0  0  0  0  0  0  0  0  0  0  0
    2.0245   13.5957   -3.1134 H   0  0  0  0  0  0  0  0  0  0  0  0
    3.1226   12.2700   -2.5620 H   0  0  0  0  0  0  0  0  0  0  0  0
    1.4356   11.8281    0.4886 H   0  0  0  0  0  0  0  0  0  0  0  0
    1.2702   10.3660   -0.5417 H   0  0  0  0  0  0  0  0  0  0  0  0
    2.8073   11.2955   -0.5417 H   0  0  0  0  0  0  0  0  0  0  0  0
  1  2  1  0
  2  3  1  0
  3  4  1  0
  4  5  1  0
  5  6  1  0
  6  7  1  0
  7  8  1  0
  7  9  1  0
  2 10  1  0
 10 11  1  0
 11 12  1  0
 12 13  1  0
 13 14  1  6
 13 15  1  0
 15 16  1  0
 16 17  1  0
 17 18  2  0
 18 19  1  0
 19 20  1  0
 20 21  1  0
 21 22  1  0
 22 23  1  0
 22 24  1  0
 24 25  1  0
 24 26  1  0
 19 27  1  0
 27 28  1  1
 27 29  1  0
 29 30  1  0
 30 31  1  0
 31 32  1  1
  7  5  1  0
 31 10  1  0
 31 13  1  0
 27 15  1  0
 24 18  1  0
  1 33  1  0
  1 34  1  0
  1 35  1  0
  2 36  1  6
  3 37  1  0
  3 38  1  0
  4 39  1  0
  4 40  1  0
  5 41  1  6
  8 42  1  0
  8 43  1  0
  8 44  1  0
  9 45  1  0
  9 46  1  0
  9 47  1  0
 10 48  1  6
 11 49  1  0
 11 50  1  0
 12 51  1  0
 12 52  1  0
 14 53  1  0
 14 54  1  0
 14 55  1  0
 15 56  1  1
 16 57  1  0
 16 58  1  0
 17 59  1  0
 19 60  1  6
 20 61  1  0
 20 62  1  0
 21 63  1  0
 21 64  1  0
 22 65  1  6
 23 66  1  0
 25 67  1  0
 25 68  1  0
 25 69  1  0
 26 70  1  0
 26 71  1  0
 26 72  1  0
 28 73  1  0
 28 74  1  0
 28 75  1  0
 29 76  1  0
 29 77  1  0
 30 78  1  0
 30 79  1  0
 32 80  1  0
 32 81  1  0
 32 82  1  0
M  END
>  <meeko>  (17) 
{"is_sidechain": [false], "intermolecular_energy": 2.731, "internal_energy": -0.839}

$$$$
EPH_relaxed_0001_pdb2pqr_Repair_130_r2_0001_out
     RDKit          3D

 82 86  0  0  0  0  0  0  0  0999 V2000
    0.8600   20.1340   -1.5640 C   0  0  0  0  0  0  0  0  0  0  0  0
    1.4840   19.6070   -0.2690 C   0  0  2  0  0  0  0  0  0  0  0  0
    3.0210   19.7280   -0.2720 C   0  0  0  0  0  0  0  0  0  0  0  0
    3.6110   20.1140    1.0870 C   0  0  0  0  0  0  0  0  0  0  0  0
    4.5150   19.0460    1.6220 C   0  0  2  0  0  0  0  0  0  0  0  0
    3.9550   18.2660    2.6870 O   0  0  0  0  0  0  0  0  0  0  0  0
    5.0990   19.0680    3.0220 C   0  0  0  0  0  0  0  0  0  0  0  0
    4.8020   20.1840    3.9740 C   0  0  0  0  0  0  0  0  0  0  0  0
    6.3360   18.2700    3.2940 C   0  0  0  0  0  0  0  0  0  0  0  0
    1.0760   18.1550   -0.0490 C   0  0  1  0  0  0  0  0  0  0  0  0
   -0.3320   18.0200    0.5890 C   0  0  0  0  0  0  0  0  0  0  0  0
   -0.9770   16.7470   -0.0160 C   0  0  0  0  0  0  0  0  0  0  0  0
    0.1900   16.0150   -0.7200 C   0  0  1  0  0  0  0  0  0  0  0  0
    0.9300   15.2500    0.4210 C   0  0  0  0  0  0  0  0  0  0  0  0
   -0.2010   15.0620   -1.8960 C   0  0  2  0  0  0  0  0  0  0  0  0
   -1.0920   13.8710   -1.5010 C   0  0  0  0  0  0  0  0  0  0  0  0
   -0.3600   12.6300   -1.1100 C   0  0  0  0  0  0  0  0  0  0  0  0
    0.9420   12.3820   -1.3460 C   0  0  0  0  0  0  0  0  0  0  0  0
    1.7960   13.3640   -2.1590 C   0  0  1  0  0  0  0  0  0  0  0  0
    2.6250   12.5810   -3.2100 C   0  0  0  0  0  0  0  0  0  0  0  0
    3.4560   11.4640   -2.5870 C   0  0  0  0  0  0  0  0  0  0  0  0
    2.5650   10.4760   -1.8370 C   0  0  2  0  0  0  0  0  0  0  0  0
    1.7380    9.7910   -2.7830 O   0  0  0  0  0  0  0  0  0  0  0  0
    1.6750   11.1520   -0.7570 C   0  0  0  0  0  0  0  0  0  0  0  0
    2.5590   11.6310    0.4210 C   0  0  0  0  0  0  0  0  0  0  0  0
    0.7260   10.0690   -0.1750 C   0  0  0  0  0  0  0  0  0  0  0  0
    1.0200   14.5990   -2.7890 C   0  0  1  0  0  0  0  0  0  0  0  0
    0.4320   14.2050   -4.1790 C   0  0  0  0  0  0  0  0  0  0  0  0
    2.0430   15.7670   -3.0550 C   0  0  0  0  0  0  0  0  0  0  0  0
    2.2970   16.7460   -1.8930 C   0  0  0  0  0  0  0  0  0  0  0  0
    0.9760   17.2470   -1.3000 C   0  0  2  0  0  0  0  0  0  0  0  0
    0.2200   18.0410   -2.4190 C   0  0  0  0  0  0  0  0  0  0  0  0
    0.0404   20.8262   -1.3209 H   0  0  0  0  0  0  0  0  0  0  0  0
    1.6252   20.6634   -2.1508 H   0  0  0  0  0  0  0  0  0  0  0  0
    0.4661   19.2910   -2.1508 H   0  0  0  0  0  0  0  0  0  0  0  0
    1.1066   20.2287    0.5563 H   0  0  0  0  0  0  0  0  0  0  0  0
    3.4450   18.7583   -0.5718 H   0  0  0  0  0  0  0  0  0  0  0  0
    3.2784   20.5342   -0.9747 H   0  0  0  0  0  0  0  0  0  0  0  0
    4.1864   21.0447    0.9744 H   0  0  0  0  0  0  0  0  0  0  0  0
    2.7806   20.2473    1.7960 H   0  0  0  0  0  0  0  0  0  0  0  0
    4.9755   18.9073    0.6327 H   0  0  0  0  0  0  0  0  0  0  0  0
    4.8989   19.8199    5.0075 H   0  0  0  0  0  0  0  0  0  0  0  0
    5.5123   21.0071    3.8071 H   0  0  0  0  0  0  0  0  0  0  0  0
    3.7765   20.5452    3.8071 H   0  0  0  0  0  0  0  0  0  0  0  0
    6.4806   18.1767    4.3805 H   0  0  0  0  0  0  0  0  0  0  0  0
    6.2313   17.2687    2.8507 H   0  0  0  0  0  0  0  0  0  0  0  0
    7.2050   18.7782    2.8507 H   0  0  0  0  0  0  0  0  0  0  0  0
    1.9082   17.8248    0.5900 H   0  0  0  0  0  0  0  0  0  0  0  0
   -0.2449   17.9182    1.6808 H   0  0  0  0  0  0  0  0  0  0  0  0
   -0.9457   18.9095    0.3834 H   0  0  0  0  0  0  0  0  0  0  0  0
   -1.4094   16.1172    0.7754 H   0  0  0  0  0  0  0  0  0  0  0  0
   -1.7986   16.9842   -0.7079 H   0  0  0  0  0  0  0  0  0  0  0  0
    0.5766   15.6153    1.3965 H   0  0  0  0  0  0  0  0  0  0  0  0
    0.7220   14.1732    0.3354 H   0  0  0  0  0  0  0  0  0  0  0  0
    2.0131   15.4221    0.3354 H   0  0  0  0  0  0  0  0  0  0  0  0
   -0.8287   15.7096   -2.5258 H   0  0  0  0  0  0  0  0  0  0  0  0
   -1.7156   14.1806   -0.6493 H   0  0  0  0  0  0  0  0  0  0  0  0
   -1.6713   13.6126   -2.3997 H   0  0  0  0  0  0  0  0  0  0  0  0
   -0.9332   11.8521   -0.5844 H   0  0  0  0  0  0  0  0  0  0  0  0
    2.4709   13.8500   -1.4391 H   0  0  0  0  0  0  0  0  0  0  0  0
    1.9357   12.1395   -3.9448 H   0  0  0  0  0  0  0  0  0  0  0  0
    3.3206   13.2906   -3.6819 H   0  0  0  0  0  0  0  0  0  0  0  0
    3.9959   10.9299   -3.3828 H   0  0  0  0  0  0  0  0  0  0  0  0
    4.1654   11.9093   -1.8739 H   0  0  0  0  0  0  0  0  0  0  0  0
    3.2246    9.7744   -1.3053 H   0  0  0  0  0  0  0  0  0  0  0  0
    2.1250    8.9110   -2.9290 H   0  0  0  0  0  0  0  0  0  0  0  0
    2.0747   11.3686    1.3732 H   0  0  0  0  0  0  0  0  0  0  0  0
    3.5430   11.1426    0.3633 H   0  0  0  0  0  0  0  0  0  0  0  0
    2.6872   12.7220    0.3633 H   0  0  0  0  0  0  0  0  0  0  0  0
    0.7581   10.1056    0.9239 H   0  0  0  0  0  0  0  0  0  0  0  0
   -0.3016   10.2591   -0.5184 H   0  0  0  0  0  0  0  0  0  0  0  0
    1.0494    9.0753   -0.5184 H   0  0  0  0  0  0  0  0  0  0  0  0
   -0.4740   13.5979   -4.0351 H   0  0  0  0  0  0  0  0  0  0  0  0
    0.1777   15.1157   -4.7410 H   0  0  0  0  0  0  0  0  0  0  0  0
    1.1776   13.6235   -4.7410 H   0  0  0  0  0  0  0  0  0  0  0  0
    3.0074   15.3103   -3.3222 H   0  0  0  0  0  0  0  0  0  0  0  0
    1.5852   16.3753   -3.8490 H   0  0  0  0  0  0  0  0  0  0  0  0
    2.8718   16.2321   -1.1085 H   0  0  0  0  0  0  0  0  0  0  0  0
    2.8588   17.6097   -2.2782 H   0  0  0  0  0  0  0  0  0  0  0  0
   -0.4678   18.7633   -1.9551 H   0  0  0  0  0  0  0  0  0  0  0  0
    0.9489   18.5779   -3.0438 H   0  0  0  0  0  0  0  0  0  0  0  0
   -0.3520   17.3393   -3.0438 H   0  0  0  0  0  0  0  0  0  0  0  0
  1  2  1  0
  2  3  1  0
  3  4  1  0
  4  5  1  0
  5  6  1  0
  6  7  1  0
  7  8  1  0
  7  9  1  0
  2 10  1  0
 10 11  1  0
 11 12  1  0
 12 13  1  0
 13 14  1  1
 13 15  1  0
 15 16  1  0
 16 17  1  0
 17 18  2  0
 18 19  1  0
 19 20  1  0
 20 21  1  0
 21 22  1  0
 22 23  1  0
 22 24  1  0
 24 25  1  0
 24 26  1  0
 19 27  1  0
 27 28  1  6
 27 29  1  0
 29 30  1  0
 30 31  1  0
 31 32  1  6
  7  5  1  0
 31 10  1  0
 31 13  1  0
 27 15  1  0
 24 18  1  0
  1 33  1  0
  1 34  1  0
  1 35  1  0
  2 36  1  1
  3 37  1  0
  3 38  1  0
  4 39  1  0
  4 40  1  0
  5 41  1  6
  8 42  1  0
  8 43  1  0
  8 44  1  0
  9 45  1  0
  9 46  1  0
  9 47  1  0
 10 48  1  1
 11 49  1  0
 11 50  1  0
 12 51  1  0
 12 52  1  0
 14 53  1  0
 14 54  1  0
 14 55  1  0
 15 56  1  6
 16 57  1  0
 16 58  1  0
 17 59  1  0
 19 60  1  1
 20 61  1  0
 20 62  1  0
 21 63  1  0
 21 64  1  0
 22 65  1  1
 23 66  1  0
 25 67  1  0
 25 68  1  0
 25 69  1  0
 26 70  1  0
 26 71  1  0
 26 72  1  0
 28 73  1  0
 28 74  1  0
 28 75  1  0
 29 76  1  0
 29 77  1  0
 30 78  1  0
 30 79  1  0
 32 80  1  0
 32 81  1  0
 32 82  1  0
M  END
>  <meeko>  (18) 
{"is_sidechain": [false], "intermolecular_energy": 2.731, "internal_energy": -0.839}

$$$$
EPH_relaxed_0001_pdb2pqr_Repair_130_r2_0001_out
     RDKit          3D

 82 86  0  0  0  0  0  0  0  0999 V2000
   -1.2470    7.9190   -1.1620 C   0  0  0  0  0  0  0  0  0  0  0  0
   -1.8330    8.9600   -0.2040 C   0  0  2  0  0  0  0  0  0  0  0  0
   -3.3720    8.8940   -0.1450 C   0  0  0  0  0  0  0  0  0  0  0  0
   -3.9930    8.0200   -1.2380 C   0  0  0  0  0  0  0  0  0  0  0  0
   -5.4840    7.9420   -1.1060 C   0  0  2  0  0  0  0  0  0  0  0  0
   -5.9880    6.6440   -0.7650 O   0  0  0  0  0  0  0  0  0  0  0  0
   -6.3680    7.1540   -2.0530 C   0  0  0  0  0  0  0  0  0  0  0  0
   -5.7920    6.3900   -3.2040 C   0  0  0  0  0  0  0  0  0  0  0  0
   -7.8160    7.5210   -2.1530 C   0  0  0  0  0  0  0  0  0  0  0  0
   -1.3870   10.3570   -0.6190 C   0  0  1  0  0  0  0  0  0  0  0  0
   -1.0200   11.2520    0.5950 C   0  0  0  0  0  0  0  0  0  0  0  0
    0.1540   12.1590    0.1430 C   0  0  0  0  0  0  0  0  0  0  0  0
    0.2040   11.9950   -1.3940 C   0  0  1  0  0  0  0  0  0  0  0  0
   -0.9070   12.9490   -1.9350 C   0  0  0  0  0  0  0  0  0  0  0  0
    1.5840   12.2730   -2.0740 C   0  0  2  0  0  0  0  0  0  0  0  0
    2.1100   13.7100   -1.9200 C   0  0  0  0  0  0  0  0  0  0  0  0
    1.7050   14.6570   -3.0010 C   0  0  0  0  0  0  0  0  0  0  0  0
    1.1900   14.3080   -4.1940 C   0  0  0  0  0  0  0  0  0  0  0  0
    1.0610   12.8320   -4.5950 C   0  0  1  0  0  0  0  0  0  0  0  0
    1.5890   12.6400   -6.0410 C   0  0  0  0  0  0  0  0  0  0  0  0
    0.9150   13.5770   -7.0390 C   0  0  0  0  0  0  0  0  0  0  0  0
    1.1150   15.0360   -6.6380 C   0  0  2  0  0  0  0  0  0  0  0  0
    2.5030   15.3610   -6.7590 O   0  0  0  0  0  0  0  0  0  0  0  0
    0.6290   15.3470   -5.1950 C   0  0  0  0  0  0  0  0  0  0  0  0
   -0.9180   15.2860   -5.1430 C   0  0  0  0  0  0  0  0  0  0  0  0
    1.0170   16.8140   -4.8670 C   0  0  0  0  0  0  0  0  0  0  0  0
    1.6780   11.7810   -3.5750 C   0  0  1  0  0  0  0  0  0  0  0  0
    3.1920   11.5690   -3.8810 C   0  0  0  0  0  0  0  0  0  0  0  0
    0.9810   10.3850   -3.7920 C   0  0  0  0  0  0  0  0  0  0  0  0
   -0.3150   10.1250   -3.0010 C   0  0  0  0  0  0  0  0  0  0  0  0
   -0.1300   10.4640   -1.5190 C   0  0  2  0  0  0  0  0  0  0  0  0
    0.9660    9.5050   -0.9420 C   0  0  0  0  0  0  0  0  0  0  0  0
   -0.7884    7.1043   -0.5823 H   0  0  0  0  0  0  0  0  0  0  0  0
   -2.0485    7.5119   -1.7959 H   0  0  0  0  0  0  0  0  0  0  0  0
   -0.4832    8.3930   -1.7959 H   0  0  0  0  0  0  0  0  0  0  0  0
   -1.4544    8.7326    0.8035 H   0  0  0  0  0  0  0  0  0  0  0  0
   -3.6648    8.4863    0.8338 H   0  0  0  0  0  0  0  0  0  0  0  0
   -3.7438    9.9173   -0.3018 H   0  0  0  0  0  0  0  0  0  0  0  0
   -3.7441    8.4476   -2.2205 H   0  0  0  0  0  0  0  0  0  0  0  0
   -3.5863    7.0031   -1.1358 H   0  0  0  0  0  0  0  0  0  0  0  0
   -5.5295    8.9807   -0.7469 H   0  0  0  0  0  0  0  0  0  0  0  0
   -5.1708    5.5660   -2.8230 H   0  0  0  0  0  0  0  0  0  0  0  0
   -6.6081    5.9806   -3.8174 H   0  0  0  0  0  0  0  0  0  0  0  0
   -5.1738    7.0619   -3.8174 H   0  0  0  0  0  0  0  0  0  0  0  0
   -8.2378    7.6279   -1.1427 H   0  0  0  0  0  0  0  0  0  0  0  0
   -7.9164    8.4730   -2.6949 H   0  0  0  0  0  0  0  0  0  0  0  0
   -8.3577    6.7318   -2.6949 H   0  0  0  0  0  0  0  0  0  0  0  0
   -2.2785   10.6770   -1.1783 H   0  0  0  0  0  0  0  0  0  0  0  0
   -1.8837   11.8675    0.8867 H   0  0  0  0  0  0  0  0  0  0  0  0
   -0.7354   10.6412    1.4644 H   0  0  0  0  0  0  0  0  0  0  0  0
   -0.0378   13.2073    0.4157 H   0  0  0  0  0  0  0  0  0  0  0  0
    1.1041   11.8820    0.6233 H   0  0  0  0  0  0  0  0  0  0  0  0
   -1.4406   13.4072   -1.0892 H   0  0  0  0  0  0  0  0  0  0  0  0
   -0.4465   13.7374   -2.5485 H   0  0  0  0  0  0  0  0  0  0  0  0
   -1.6167   12.3746   -2.5485 H   0  0  0  0  0  0  0  0  0  0  0  0
    2.2668   11.6408   -1.4874 H   0  0  0  0  0  0  0  0  0  0  0  0
    1.7388   14.1071   -0.9637 H   0  0  0  0  0  0  0  0  0  0  0  0
    3.2065   13.6398   -1.9722 H   0  0  0  0  0  0  0  0  0  0  0  0
    1.8390   15.7311   -2.8054 H   0  0  0  0  0  0  0  0  0  0  0  0
   -0.0133   12.5986   -4.5566 H   0  0  0  0  0  0  0  0  0  0  0  0
    2.6716   12.8349   -6.0499 H   0  0  0  0  0  0  0  0  0  0  0  0
    1.3611   11.6079   -6.3455 H   0  0  0  0  0  0  0  0  0  0  0  0
    1.3505   13.4147   -8.0360 H   0  0  0  0  0  0  0  0  0  0  0  0
   -0.1635   13.3607   -7.0506 H   0  0  0  0  0  0  0  0  0  0  0  0
    0.5027   15.6509   -7.3140 H   0  0  0  0  0  0  0  0  0  0  0  0
    2.7170   15.3890   -7.7070 H   0  0  0  0  0  0  0  0  0  0  0  0
   -1.2494   15.2729   -4.0942 H   0  0  0  0  0  0  0  0  0  0  0  0
   -1.3370   16.1683   -5.6489 H   0  0  0  0  0  0  0  0  0  0  0  0
   -1.2662   14.3734   -5.6489 H   0  0  0  0  0  0  0  0  0  0  0  0
    1.0526   16.9486   -3.7759 H   0  0  0  0  0  0  0  0  0  0  0  0
    2.0049   17.0367   -5.2964 H   0  0  0  0  0  0  0  0  0  0  0  0
    0.2684   17.4960   -5.2964 H   0  0  0  0  0  0  0  0  0  0  0  0
    3.7496   11.4909   -2.9360 H   0  0  0  0  0  0  0  0  0  0  0  0
    3.3227   10.6438   -4.4614 H   0  0  0  0  0  0  0  0  0  0  0  0
    3.5718   12.4227   -4.4614 H   0  0  0  0  0  0  0  0  0  0  0  0
    0.7415   10.2954   -4.8619 H   0  0  0  0  0  0  0  0  0  0  0  0
    1.7008    9.6426   -3.4169 H   0  0  0  0  0  0  0  0  0  0  0  0
   -1.1206   10.7491   -3.4151 H   0  0  0  0  0  0  0  0  0  0  0  0
   -0.5708    9.0587   -3.0876 H   0  0  0  0  0  0  0  0  0  0  0  0
    0.9351    9.5321    0.1572 H   0  0  0  0  0  0  0  0  0  0  0  0
    0.7749    8.4788   -1.2890 H   0  0  0  0  0  0  0  0  0  0  0  0
    1.9577    9.8307   -1.2890 H   0  0  0  0  0  0  0  0  0  0  0  0
  1  2  1  0
  2  3  1  0
  3  4  1  0
  4  5  1  0
  5  6  1  0
  6  7  1  0
  7  8  1  0
  7  9  1  0
  2 10  1  0
 10 11  1  0
 11 12  1  0
 12 13  1  0
 13 14  1  6
 13 15  1  0
 15 16  1  0
 16 17  1  0
 17 18  2  0
 18 19  1  0
 19 20  1  0
 20 21  1  0
 21 22  1  0
 22 23  1  0
 22 24  1  0
 24 25  1  0
 24 26  1  0
 19 27  1  0
 27 28  1  6
 27 29  1  0
 29 30  1  0
 30 31  1  0
 31 32  1  1
  7  5  1  0
 31 10  1  0
 31 13  1  0
 27 15  1  0
 24 18  1  0
  1 33  1  0
  1 34  1  0
  1 35  1  0
  2 36  1  1
  3 37  1  0
  3 38  1  0
  4 39  1  0
  4 40  1  0
  5 41  1  1
  8 42  1  0
  8 43  1  0
  8 44  1  0
  9 45  1  0
  9 46  1  0
  9 47  1  0
 10 48  1  6
 11 49  1  0
 11 50  1  0
 12 51  1  0
 12 52  1  0
 14 53  1  0
 14 54  1  0
 14 55  1  0
 15 56  1  1
 16 57  1  0
 16 58  1  0
 17 59  1  0
 19 60  1  6
 20 61  1  0
 20 62  1  0
 21 63  1  0
 21 64  1  0
 22 65  1  6
 23 66  1  0
 25 67  1  0
 25 68  1  0
 25 69  1  0
 26 70  1  0
 26 71  1  0
 26 72  1  0
 28 73  1  0
 28 74  1  0
 28 75  1  0
 29 76  1  0
 29 77  1  0
 30 78  1  0
 30 79  1  0
 32 80  1  0
 32 81  1  0
 32 82  1  0
M  END
>  <meeko>  (19) 
{"is_sidechain": [false], "intermolecular_energy": 2.731, "internal_energy": -0.839}

$$$$
