EPH_relaxed_0001_pdb2pqr_Repair_259_r2_0001_out
     RDKit          3D

 82 86  0  0  0  0  0  0  0  0999 V2000
   -5.1530    5.8460   -1.7450 C   0  0  0  0  0  0  0  0  0  0  0  0
   -5.4500    7.3470   -1.7990 C   0  0  2  0  0  0  0  0  0  0  0  0
   -5.2250    8.0330   -0.4360 C   0  0  0  0  0  0  0  0  0  0  0  0
   -4.1760    9.1470   -0.4730 C   0  0  0  0  0  0  0  0  0  0  0  0
   -2.8150    8.6170   -0.8100 C   0  0  2  0  0  0  0  0  0  0  0  0
   -1.8000    8.9150    0.1570 O   0  0  0  0  0  0  0  0  0  0  0  0
   -1.6300    9.5040   -1.1420 C   0  0  0  0  0  0  0  0  0  0  0  0
   -1.7510   10.9960   -1.1540 C   0  0  0  0  0  0  0  0  0  0  0  0
   -0.4960    8.9200   -1.9250 C   0  0  0  0  0  0  0  0  0  0  0  0
   -6.8810    7.5770   -2.2680 C   0  0  1  0  0  0  0  0  0  0  0  0
   -7.1840    6.8870   -3.6250 C   0  0  0  0  0  0  0  0  0  0  0  0
   -8.6600    6.4160   -3.5680 C   0  0  0  0  0  0  0  0  0  0  0  0
   -9.2510    7.1340   -2.3320 C   0  0  1  0  0  0  0  0  0  0  0  0
   -9.5970    8.5720   -2.8310 C   0  0  0  0  0  0  0  0  0  0  0  0
  -10.4810    6.4460   -1.6560 C   0  0  2  0  0  0  0  0  0  0  0  0
  -11.7320    6.3250   -2.5440 C   0  0  0  0  0  0  0  0  0  0  0  0
  -12.6840    7.4720   -2.4640 C   0  0  0  0  0  0  0  0  0  0  0  0
  -12.6910    8.4170   -1.5060 C   0  0  0  0  0  0  0  0  0  0  0  0
  -11.7320    8.3350   -0.3110 C   0  0  1  0  0  0  0  0  0  0  0  0
  -12.5130    8.6110    1.0000 C   0  0  0  0  0  0  0  0  0  0  0  0
  -13.2800    9.9290    0.9580 C   0  0  0  0  0  0  0  0  0  0  0  0
  -14.2650    9.9490   -0.2090 C   0  0  2  0  0  0  0  0  0  0  0  0
  -15.2850    8.9750    0.0320 O   0  0  0  0  0  0  0  0  0  0  0  0
  -13.5930    9.6730   -1.5830 C   0  0  0  0  0  0  0  0  0  0  0  0
  -12.7110   10.8820   -1.9830 C   0  0  0  0  0  0  0  0  0  0  0  0
  -14.7140    9.5820   -2.6530 C   0  0  0  0  0  0  0  0  0  0  0  0
  -10.8410    7.0210   -0.2260 C   0  0  1  0  0  0  0  0  0  0  0  0
  -11.6210    5.8970    0.5230 C   0  0  0  0  0  0  0  0  0  0  0  0
   -9.5600    7.3230    0.6370 C   0  0  0  0  0  0  0  0  0  0  0  0
   -8.3370    7.8900   -0.1090 C   0  0  0  0  0  0  0  0  0  0  0  0
   -8.0210    7.0580   -1.3560 C   0  0  2  0  0  0  0  0  0  0  0  0
   -7.6470    5.6120   -0.8830 C   0  0  0  0  0  0  0  0  0  0  0  0
   -5.0890    5.5224   -0.6956 H   0  0  0  0  0  0  0  0  0  0  0  0
   -5.9594    5.2943   -2.2503 H   0  0  0  0  0  0  0  0  0  0  0  0
   -4.1973    5.6429   -2.2503 H   0  0  0  0  0  0  0  0  0  0  0  0
   -4.7473    7.7978   -2.5152 H   0  0  0  0  0  0  0  0  0  0  0  0
   -6.1799    8.4662   -0.1035 H   0  0  0  0  0  0  0  0  0  0  0  0
   -4.8508    7.2621    0.2537 H   0  0  0  0  0  0  0  0  0  0  0  0
   -4.4685    9.8868   -1.2327 H   0  0  0  0  0  0  0  0  0  0  0  0
   -4.1275    9.6052    0.5258 H   0  0  0  0  0  0  0  0  0  0  0  0
   -3.2547    7.7501   -1.3248 H   0  0  0  0  0  0  0  0  0  0  0  0
   -1.7813   11.3697   -0.1199 H   0  0  0  0  0  0  0  0  0  0  0  0
   -0.8851   11.4299   -1.6755 H   0  0  0  0  0  0  0  0  0  0  0  0
   -2.6755   11.2847   -1.6755 H   0  0  0  0  0  0  0  0  0  0  0  0
    0.2642    8.5285   -1.2330 H   0  0  0  0  0  0  0  0  0  0  0  0
   -0.8706    8.1027   -2.5587 H   0  0  0  0  0  0  0  0  0  0  0  0
   -0.0482    9.6996   -2.5587 H   0  0  0  0  0  0  0  0  0  0  0  0
   -6.8909    8.6766   -2.2943 H   0  0  0  0  0  0  0  0  0  0  0  0
   -7.0455    7.5996   -4.4515 H   0  0  0  0  0  0  0  0  0  0  0  0
   -6.5052    6.0386   -3.7968 H   0  0  0  0  0  0  0  0  0  0  0  0
   -9.1971    6.7102   -4.4818 H   0  0  0  0  0  0  0  0  0  0  0  0
   -8.7463    5.3218   -3.4958 H   0  0  0  0  0  0  0  0  0  0  0  0
   -9.7558    9.2321   -1.9655 H   0  0  0  0  0  0  0  0  0  0  0  0
   -8.7663    8.9587   -3.4396 H   0  0  0  0  0  0  0  0  0  0  0  0
  -10.5127    8.5385   -3.4396 H   0  0  0  0  0  0  0  0  0  0  0  0
  -10.1213    5.4174   -1.5055 H   0  0  0  0  0  0  0  0  0  0  0  0
  -11.3997    6.2313   -3.5884 H   0  0  0  0  0  0  0  0  0  0  0  0
  -12.2824    5.4464   -2.1763 H   0  0  0  0  0  0  0  0  0  0  0  0
  -13.4441    7.5515   -3.2551 H   0  0  0  0  0  0  0  0  0  0  0  0
  -10.9803    9.1222   -0.4698 H   0  0  0  0  0  0  0  0  0  0  0  0
  -13.2286    7.7917    1.1632 H   0  0  0  0  0  0  0  0  0  0  0  0
  -11.7800    8.6774    1.8175 H   0  0  0  0  0  0  0  0  0  0  0  0
  -13.8347   10.0531    1.8997 H   0  0  0  0  0  0  0  0  0  0  0  0
  -12.5605   10.7504    0.8250 H   0  0  0  0  0  0  0  0  0  0  0  0
  -14.6888   10.9625   -0.2654 H   0  0  0  0  0  0  0  0  0  0  0  0
  -16.1200    9.4530    0.1740 H   0  0  0  0  0  0  0  0  0  0  0  0
  -12.3444   11.3845   -1.0758 H   0  0  0  0  0  0  0  0  0  0  0  0
  -11.8556   10.5307   -2.5786 H   0  0  0  0  0  0  0  0  0  0  0  0
  -13.3067   11.5893   -2.5786 H   0  0  0  0  0  0  0  0  0  0  0  0
  -15.6913    9.5027   -2.1544 H   0  0  0  0  0  0  0  0  0  0  0  0
  -14.6952   10.4846   -3.2814 H   0  0  0  0  0  0  0  0  0  0  0  0
  -14.5499    8.6942   -3.2814 H   0  0  0  0  0  0  0  0  0  0  0  0
  -11.5204    6.0419    1.6088 H   0  0  0  0  0  0  0  0  0  0  0  0
  -12.6842    5.9402    0.2442 H   0  0  0  0  0  0  0  0  0  0  0  0
  -11.2085    4.9161    0.2442 H   0  0  0  0  0  0  0  0  0  0  0  0
   -9.8444    8.0509    1.4111 H   0  0  0  0  0  0  0  0  0  0  0  0
   -9.2347    6.3448    1.0209 H   0  0  0  0  0  0  0  0  0  0  0  0
   -8.5488    8.9261   -0.4119 H   0  0  0  0  0  0  0  0  0  0  0  0
   -7.4683    7.8557    0.5649 H   0  0  0  0  0  0  0  0  0  0  0  0
   -7.6379    5.5767    0.2164 H   0  0  0  0  0  0  0  0  0  0  0  0
   -8.3898    4.8971   -1.2666 H   0  0  0  0  0  0  0  0  0  0  0  0
   -6.6507    5.3469   -1.2666 H   0  0  0  0  0  0  0  0  0  0  0  0
  1  2  1  0
  2  3  1  0
  3  4  1  0
  4  5  1  0
  5  6  1  0
  6  7  1  0
  7  8  1  0
  7  9  1  0
  2 10  1  0
 10 11  1  0
 11 12  1  0
 12 13  1  0
 13 14  1  6
 13 15  1  0
 15 16  1  0
 16 17  1  0
 17 18  2  0
 18 19  1  0
 19 20  1  0
 20 21  1  0
 21 22  1  0
 22 23  1  0
 22 24  1  0
 24 25  1  0
 24 26  1  0
 19 27  1  0
 27 28  1  1
 27 29  1  0
 29 30  1  0
 30 31  1  0
 31 32  1  1
  7  5  1  0
 31 10  1  0
 31 13  1  0
 27 15  1  0
 24 18  1  0
  1 33  1  0
  1 34  1  0
  1 35  1  0
  2 36  1  6
  3 37  1  0
  3 38  1  0
  4 39  1  0
  4 40  1  0
  5 41  1  6
  8 42  1  0
  8 43  1  0
  8 44  1  0
  9 45  1  0
  9 46  1  0
  9 47  1  0
 10 48  1  6
 11 49  1  0
 11 50  1  0
 12 51  1  0
 12 52  1  0
 14 53  1  0
 14 54  1  0
 14 55  1  0
 15 56  1  1
 16 57  1  0
 16 58  1  0
 17 59  1  0
 19 60  1  6
 20 61  1  0
 20 62  1  0
 21 63  1  0
 21 64  1  0
 22 65  1  6
 23 66  1  0
 25 67  1  0
 25 68  1  0
 25 69  1  0
 26 70  1  0
 26 71  1  0
 26 72  1  0
 28 73  1  0
 28 74  1  0
 28 75  1  0
 29 76  1  0
 29 77  1  0
 30 78  1  0
 30 79  1  0
 32 80  1  0
 32 81  1  0
 32 82  1  0
M  END
>  <meeko>  (1) 
{"is_sidechain": [false], "intermolecular_energy": 2.731, "internal_energy": -0.839}

$$$$
EPH_relaxed_0001_pdb2pqr_Repair_259_r2_0001_out
     RDKit          3D

 82 86  0  0  0  0  0  0  0  0999 V2000
   -1.5810    8.4090   -1.8500 C   0  0  0  0  0  0  0  0  0  0  0  0
   -1.8260    9.0360   -0.4750 C   0  0  2  0  0  0  0  0  0  0  0  0
   -3.2560    9.5950   -0.3370 C   0  0  0  0  0  0  0  0  0  0  0  0
   -4.3330    8.5120   -0.2280 C   0  0  0  0  0  0  0  0  0  0  0  0
   -4.9540    8.2110   -1.5590 C   0  0  2  0  0  0  0  0  0  0  0  0
   -6.3420    8.5530   -1.6630 O   0  0  0  0  0  0  0  0  0  0  0  0
   -6.0240    7.1560   -1.7630 C   0  0  0  0  0  0  0  0  0  0  0  0
   -6.5360    6.3320   -0.6230 C   0  0  0  0  0  0  0  0  0  0  0  0
   -6.2190    6.5900   -3.1350 C   0  0  0  0  0  0  0  0  0  0  0  0
   -0.8080   10.1410   -0.2190 C   0  0  1  0  0  0  0  0  0  0  0  0
    0.3950    9.6600    0.6360 C   0  0  0  0  0  0  0  0  0  0  0  0
    1.6440   10.4190    0.1180 C   0  0  0  0  0  0  0  0  0  0  0  0
    1.0730   11.5430   -0.7780 C   0  0  1  0  0  0  0  0  0  0  0  0
    0.6440   12.6680    0.2140 C   0  0  0  0  0  0  0  0  0  0  0  0
    2.0250   12.0870   -1.8930 C   0  0  2  0  0  0  0  0  0  0  0  0
    3.3140   12.7530   -1.3820 C   0  0  0  0  0  0  0  0  0  0  0  0
    3.2190   14.2230   -1.1370 C   0  0  0  0  0  0  0  0  0  0  0  0
    2.2380   15.0290   -1.5850 C   0  0  0  0  0  0  0  0  0  0  0  0
    1.1360   14.4900   -2.5060 C   0  0  1  0  0  0  0  0  0  0  0  0
    0.9290   15.4680   -3.6930 C   0  0  0  0  0  0  0  0  0  0  0  0
    0.6590   16.8980   -3.2320 C   0  0  0  0  0  0  0  0  0  0  0  0
    1.8040   17.4180   -2.3670 C   0  0  2  0  0  0  0  0  0  0  0  0
    2.9750   17.5430   -3.1790 O   0  0  0  0  0  0  0  0  0  0  0  0
    2.1100   16.5080   -1.1450 C   0  0  0  0  0  0  0  0  0  0  0  0
    0.9570   16.6110   -0.1160 C   0  0  0  0  0  0  0  0  0  0  0  0
    3.3740   17.0680   -0.4380 C   0  0  0  0  0  0  0  0  0  0  0  0
    1.3030   12.9830   -2.9800 C   0  0  1  0  0  0  0  0  0  0  0  0
    2.1870   12.9230   -4.2630 C   0  0  0  0  0  0  0  0  0  0  0  0
   -0.1070   12.4120   -3.3860 C   0  0  0  0  0  0  0  0  0  0  0  0
   -0.9500   11.7790   -2.2620 C   0  0  0  0  0  0  0  0  0  0  0  0
   -0.1210   10.7750   -1.4540 C   0  0  2  0  0  0  0  0  0  0  0  0
    0.3060    9.6190   -2.4210 C   0  0  0  0  0  0  0  0  0  0  0  0
   -1.1833    7.3913   -1.7233 H   0  0  0  0  0  0  0  0  0  0  0  0
   -2.5284    8.3657   -2.4073 H   0  0  0  0  0  0  0  0  0  0  0  0
   -0.8553    9.0195   -2.4073 H   0  0  0  0  0  0  0  0  0  0  0  0
   -1.7091    8.2410    0.2762 H   0  0  0  0  0  0  0  0  0  0  0  0
   -3.2988   10.2195    0.5675 H   0  0  0  0  0  0  0  0  0  0  0  0
   -3.4671   10.1669   -1.2526 H   0  0  0  0  0  0  0  0  0  0  0  0
   -3.8757    7.5932    0.1679 H   0  0  0  0  0  0  0  0  0  0  0  0
   -5.1228    8.8804    0.4432 H   0  0  0  0  0  0  0  0  0  0  0  0
   -4.0014    8.4048   -2.0737 H   0  0  0  0  0  0  0  0  0  0  0  0
   -6.2446    6.8010    0.3284 H   0  0  0  0  0  0  0  0  0  0  0  0
   -7.6327    6.2687   -0.6798 H   0  0  0  0  0  0  0  0  0  0  0  0
   -6.1070    5.3207   -0.6798 H   0  0  0  0  0  0  0  0  0  0  0  0
   -6.5764    5.5527   -3.0563 H   0  0  0  0  0  0  0  0  0  0  0  0
   -6.9611    7.1933   -3.6784 H   0  0  0  0  0  0  0  0  0  0  0  0
   -5.2628    6.6082   -3.6784 H   0  0  0  0  0  0  0  0  0  0  0  0
   -1.4587   10.8803    0.2709 H   0  0  0  0  0  0  0  0  0  0  0  0
    0.2230    9.8934    1.6971 H   0  0  0  0  0  0  0  0  0  0  0  0
    0.5304    8.5717    0.5502 H   0  0  0  0  0  0  0  0  0  0  0  0
    2.2160   10.8433    0.9563 H   0  0  0  0  0  0  0  0  0  0  0  0
    2.3357    9.7607   -0.4281 H   0  0  0  0  0  0  0  0  0  0  0  0
    0.7781   12.3162    1.2476 H   0  0  0  0  0  0  0  0  0  0  0  0
    1.2649   13.5605    0.0470 H   0  0  0  0  0  0  0  0  0  0  0  0
   -0.4135   12.9205    0.0470 H   0  0  0  0  0  0  0  0  0  0  0  0
    2.3462   11.1654   -2.4004 H   0  0  0  0  0  0  0  0  0  0  0  0
    3.5948   12.2682   -0.4354 H   0  0  0  0  0  0  0  0  0  0  0  0
    4.0595   12.6253   -2.1807 H   0  0  0  0  0  0  0  0  0  0  0  0
    4.0182   14.6866   -0.5400 H   0  0  0  0  0  0  0  0  0  0  0  0
    0.2232   14.4464   -1.8938 H   0  0  0  0  0  0  0  0  0  0  0  0
    1.8355   15.4634   -4.3160 H   0  0  0  0  0  0  0  0  0  0  0  0
    0.0486   15.1269   -4.2574 H   0  0  0  0  0  0  0  0  0  0  0  0
    0.5512   17.5463   -4.1141 H   0  0  0  0  0  0  0  0  0  0  0  0
   -0.2641   16.9055   -2.6338 H   0  0  0  0  0  0  0  0  0  0  0  0
    1.4955   18.3933   -1.9624 H   0  0  0  0  0  0  0  0  0  0  0  0
    3.5760   16.8160   -2.9440 H   0  0  0  0  0  0  0  0  0  0  0  0
    1.3703   16.5741    0.9027 H   0  0  0  0  0  0  0  0  0  0  0  0
    0.4208   17.5606   -0.2600 H   0  0  0  0  0  0  0  0  0  0  0  0
    0.2610   15.7715   -0.2600 H   0  0  0  0  0  0  0  0  0  0  0  0
    3.2407   17.0090    0.6523 H   0  0  0  0  0  0  0  0  0  0  0  0
    4.2521   16.4747   -0.7327 H   0  0  0  0  0  0  0  0  0  0  0  0
    3.5245   18.1170   -0.7327 H   0  0  0  0  0  0  0  0  0  0  0  0
    3.2463   12.8511   -3.9754 H   0  0  0  0  0  0  0  0  0  0  0  0
    1.9084   12.0417   -4.8594 H   0  0  0  0  0  0  0  0  0  0  0  0
    2.0300   13.8339   -4.8594 H   0  0  0  0  0  0  0  0  0  0  0  0
   -0.6909   13.2403   -3.8137 H   0  0  0  0  0  0  0  0  0  0  0  0
    0.1058   11.5893   -4.0844 H   0  0  0  0  0  0  0  0  0  0  0  0
   -1.3084   12.5729   -1.5903 H   0  0  0  0  0  0  0  0  0  0  0  0
   -1.7988   11.2475   -2.7170 H   0  0  0  0  0  0  0  0  0  0  0  0
    0.6278    8.7479   -1.8315 H   0  0  0  0  0  0  0  0  0  0  0  0
   -0.5475    9.3375   -3.0553 H   0  0  0  0  0  0  0  0  0  0  0  0
    1.1375    9.9599   -3.0553 H   0  0  0  0  0  0  0  0  0  0  0  0
  1  2  1  0
  2  3  1  0
  3  4  1  0
  4  5  1  0
  5  6  1  0
  6  7  1  0
  7  8  1  0
  7  9  1  0
  2 10  1  0
 10 11  1  0
 11 12  1  0
 12 13  1  0
 13 14  1  1
 13 15  1  0
 15 16  1  0
 16 17  1  0
 17 18  2  0
 18 19  1  0
 19 20  1  0
 20 21  1  0
 21 22  1  0
 22 23  1  0
 22 24  1  0
 24 25  1  0
 24 26  1  0
 19 27  1  0
 27 28  1  6
 27 29  1  0
 29 30  1  0
 30 31  1  0
 31 32  1  6
  7  5  1  0
 31 10  1  0
 31 13  1  0
 27 15  1  0
 24 18  1  0
  1 33  1  0
  1 34  1  0
  1 35  1  0
  2 36  1  1
  3 37  1  0
  3 38  1  0
  4 39  1  0
  4 40  1  0
  5 41  1  6
  8 42  1  0
  8 43  1  0
  8 44  1  0
  9 45  1  0
  9 46  1  0
  9 47  1  0
 10 48  1  1
 11 49  1  0
 11 50  1  0
 12 51  1  0
 12 52  1  0
 14 53  1  0
 14 54  1  0
 14 55  1  0
 15 56  1  6
 16 57  1  0
 16 58  1  0
 17 59  1  0
 19 60  1  1
 20 61  1  0
 20 62  1  0
 21 63  1  0
 21 64  1  0
 22 65  1  1
 23 66  1  0
 25 67  1  0
 25 68  1  0
 25 69  1  0
 26 70  1  0
 26 71  1  0
 26 72  1  0
 28 73  1  0
 28 74  1  0
 28 75  1  0
 29 76  1  0
 29 77  1  0
 30 78  1  0
 30 79  1  0
 32 80  1  0
 32 81  1  0
 32 82  1  0
M  END
>  <meeko>  (2) 
{"is_sidechain": [false], "intermolecular_energy": 2.731, "internal_energy": -0.839}

$$$$
EPH_relaxed_0001_pdb2pqr_Repair_259_r2_0001_out
     RDKit          3D

 82 86  0  0  0  0  0  0  0  0999 V2000
    1.1680   18.2750    0.0330 C   0  0  0  0  0  0  0  0  0  0  0  0
    2.1830   17.1430   -0.1470 C   0  0  2  0  0  0  0  0  0  0  0  0
    3.4720   17.6230   -0.8450 C   0  0  0  0  0  0  0  0  0  0  0  0
    4.5620   18.0840    0.1260 C   0  0  0  0  0  0  0  0  0  0  0  0
    3.9830   18.5780    1.4170 C   0  0  2  0  0  0  0  0  0  0  0  0
    4.1490   19.9830    1.6490 O   0  0  0  0  0  0  0  0  0  0  0  0
    4.8240   19.1050    2.5640 C   0  0  0  0  0  0  0  0  0  0  0  0
    6.3170   19.1630    2.4750 C   0  0  0  0  0  0  0  0  0  0  0  0
    4.2380   19.1030    3.9420 C   0  0  0  0  0  0  0  0  0  0  0  0
    1.5550   16.0030   -0.9410 C   0  0  1  0  0  0  0  0  0  0  0  0
    1.5530   16.2700   -2.4690 C   0  0  0  0  0  0  0  0  0  0  0  0
    1.7660   14.9000   -3.1630 C   0  0  0  0  0  0  0  0  0  0  0  0
    1.5520   13.8570   -2.0410 C   0  0  1  0  0  0  0  0  0  0  0  0
    0.0030   13.7010   -1.9280 C   0  0  0  0  0  0  0  0  0  0  0  0
    2.2590   12.4760   -2.2370 C   0  0  2  0  0  0  0  0  0  0  0  0
    1.7960   11.6750   -3.4660 C   0  0  0  0  0  0  0  0  0  0  0  0
    0.6560   10.7410   -3.2260 C   0  0  0  0  0  0  0  0  0  0  0  0
    0.2140   10.3400   -2.0190 C   0  0  0  0  0  0  0  0  0  0  0  0
    0.9410   10.7580   -0.7350 C   0  0  1  0  0  0  0  0  0  0  0  0
    1.1240    9.5210    0.1820 C   0  0  0  0  0  0  0  0  0  0  0  0
   -0.1910    8.8020    0.4650 C   0  0  0  0  0  0  0  0  0  0  0  0
   -0.8560    8.3510   -0.8330 C   0  0  2  0  0  0  0  0  0  0  0  0
   -0.0440    7.3390   -1.4390 O   0  0  0  0  0  0  0  0  0  0  0  0
   -1.0830    9.5120   -1.8410 C   0  0  0  0  0  0  0  0  0  0  0  0
   -2.1920   10.4530   -1.3100 C   0  0  0  0  0  0  0  0  0  0  0  0
   -1.6270    8.8990   -3.1600 C   0  0  0  0  0  0  0  0  0  0  0  0
    2.2900   11.5740   -0.9370 C   0  0  1  0  0  0  0  0  0  0  0  0
    3.4870   10.5890   -1.1080 C   0  0  0  0  0  0  0  0  0  0  0  0
    2.5850   12.4100    0.3650 C   0  0  0  0  0  0  0  0  0  0  0  0
    1.9560   13.8140    0.4460 C   0  0  0  0  0  0  0  0  0  0  0  0
    2.2240   14.6100   -0.8350 C   0  0  2  0  0  0  0  0  0  0  0  0
    3.7740   14.8020   -0.9640 C   0  0  0  0  0  0  0  0  0  0  0  0
    1.0063   18.4553    1.1060 H   0  0  0  0  0  0  0  0  0  0  0  0
    1.5529   19.1911   -0.4388 H   0  0  0  0  0  0  0  0  0  0  0  0
    0.2155   17.9919   -0.4388 H   0  0  0  0  0  0  0  0  0  0  0  0
    2.4633   16.7881    0.8558 H   0  0  0  0  0  0  0  0  0  0  0  0
    3.8710   16.7929   -1.4465 H   0  0  0  0  0  0  0  0  0  0  0  0
    3.1998   18.4936   -1.4598 H   0  0  0  0  0  0  0  0  0  0  0  0
    5.2324   17.2378    0.3369 H   0  0  0  0  0  0  0  0  0  0  0  0
    5.1100   18.9143   -0.3435 H   0  0  0  0  0  0  0  0  0  0  0  0
    3.1839   17.8233    1.3742 H   0  0  0  0  0  0  0  0  0  0  0  0
    6.7444   19.1796    3.4885 H   0  0  0  0  0  0  0  0  0  0  0  0
    6.6868   18.2785    1.9356 H   0  0  0  0  0  0  0  0  0  0  0  0
    6.6171   20.0735    1.9356 H   0  0  0  0  0  0  0  0  0  0  0  0
    5.0489   19.1058    4.6853 H   0  0  0  0  0  0  0  0  0  0  0  0
    3.6143   19.9990    4.0765 H   0  0  0  0  0  0  0  0  0  0  0  0
    3.6204   18.2027    4.0765 H   0  0  0  0  0  0  0  0  0  0  0  0
    0.5597   15.9787   -0.4734 H   0  0  0  0  0  0  0  0  0  0  0  0
    0.5904   16.7046   -2.7763 H   0  0  0  0  0  0  0  0  0  0  0  0
    2.3453   16.9807   -2.7467 H   0  0  0  0  0  0  0  0  0  0  0  0
    1.0342   14.7563   -3.9716 H   0  0  0  0  0  0  0  0  0  0  0  0
    2.7604   14.8169   -3.6258 H   0  0  0  0  0  0  0  0  0  0  0  0
   -0.2862   13.6719   -0.8671 H   0  0  0  0  0  0  0  0  0  0  0  0
   -0.4882   14.5542   -2.4186 H   0  0  0  0  0  0  0  0  0  0  0  0
   -0.3082   12.7670   -2.4186 H   0  0  0  0  0  0  0  0  0  0  0  0
    3.2981   12.7700   -2.4465 H   0  0  0  0  0  0  0  0  0  0  0  0
    1.4909   12.3911   -4.2432 H   0  0  0  0  0  0  0  0  0  0  0  0
    2.6493   11.0451   -3.7579 H   0  0  0  0  0  0  0  0  0  0  0  0
    0.1330   10.3472   -4.1100 H   0  0  0  0  0  0  0  0  0  0  0  0
    0.2895   11.4944   -0.2418 H   0  0  0  0  0  0  0  0  0  0  0  0
    1.8120    8.8170   -0.3089 H   0  0  0  0  0  0  0  0  0  0  0  0
    1.5242    9.8749    1.1435 H   0  0  0  0  0  0  0  0  0  0  0  0
    0.0082    7.9208    1.0926 H   0  0  0  0  0  0  0  0  0  0  0  0
   -0.8674    9.4978    0.9829 H   0  0  0  0  0  0  0  0  0  0  0  0
   -1.8517    7.9607   -0.5756 H   0  0  0  0  0  0  0  0  0  0  0  0
   -0.1200    6.5370   -0.8950 H   0  0  0  0  0  0  0  0  0  0  0  0
   -2.1834   10.4457   -0.2101 H   0  0  0  0  0  0  0  0  0  0  0  0
   -2.0091   11.4757   -1.6713 H   0  0  0  0  0  0  0  0  0  0  0  0
   -3.1713   10.1061   -1.6713 H   0  0  0  0  0  0  0  0  0  0  0  0
   -2.3401    8.0954   -2.9241 H   0  0  0  0  0  0  0  0  0  0  0  0
   -2.1349    9.6798   -3.7451 H   0  0  0  0  0  0  0  0  0  0  0  0
   -0.7913    8.4875   -3.7451 H   0  0  0  0  0  0  0  0  0  0  0  0
    3.8562   10.2852   -0.1174 H   0  0  0  0  0  0  0  0  0  0  0  0
    3.1538    9.7000   -1.6636 H   0  0  0  0  0  0  0  0  0  0  0  0
    4.2952   11.0871   -1.6636 H   0  0  0  0  0  0  0  0  0  0  0  0
    2.2160   11.8299    1.2237 H   0  0  0  0  0  0  0  0  0  0  0  0
    3.6716   12.5812    0.3572 H   0  0  0  0  0  0  0  0  0  0  0  0
    0.8696   13.7140    0.5868 H   0  0  0  0  0  0  0  0  0  0  0  0
    2.4064   14.3516    1.2935 H   0  0  0  0  0  0  0  0  0  0  0  0
    4.2214   14.8574    0.0394 H   0  0  0  0  0  0  0  0  0  0  0  0
    4.2047   13.9503   -1.5110 H   0  0  0  0  0  0  0  0  0  0  0  0
    3.9839   15.7330   -1.5110 H   0  0  0  0  0  0  0  0  0  0  0  0
  1  2  1  0
  2  3  1  0
  3  4  1  0
  4  5  1  0
  5  6  1  0
  6  7  1  0
  7  8  1  0
  7  9  1  0
  2 10  1  0
 10 11  1  0
 11 12  1  0
 12 13  1  0
 13 14  1  1
 13 15  1  0
 15 16  1  0
 16 17  1  0
 17 18  2  0
 18 19  1  0
 19 20  1  0
 20 21  1  0
 21 22  1  0
 22 23  1  0
 22 24  1  0
 24 25  1  0
 24 26  1  0
 19 27  1  0
 27 28  1  6
 27 29  1  0
 29 30  1  0
 30 31  1  0
 31 32  1  6
  7  5  1  0
 31 10  1  0
 31 13  1  0
 27 15  1  0
 24 18  1  0
  1 33  1  0
  1 34  1  0
  1 35  1  0
  2 36  1  1
  3 37  1  0
  3 38  1  0
  4 39  1  0
  4 40  1  0
  5 41  1  1
  8 42  1  0
  8 43  1  0
  8 44  1  0
  9 45  1  0
  9 46  1  0
  9 47  1  0
 10 48  1  1
 11 49  1  0
 11 50  1  0
 12 51  1  0
 12 52  1  0
 14 53  1  0
 14 54  1  0
 14 55  1  0
 15 56  1  6
 16 57  1  0
 16 58  1  0
 17 59  1  0
 19 60  1  1
 20 61  1  0
 20 62  1  0
 21 63  1  0
 21 64  1  0
 22 65  1  1
 23 66  1  0
 25 67  1  0
 25 68  1  0
 25 69  1  0
 26 70  1  0
 26 71  1  0
 26 72  1  0
 28 73  1  0
 28 74  1  0
 28 75  1  0
 29 76  1  0
 29 77  1  0
 30 78  1  0
 30 79  1  0
 32 80  1  0
 32 81  1  0
 32 82  1  0
M  END
>  <meeko>  (3) 
{"is_sidechain": [false], "intermolecular_energy": 2.731, "internal_energy": -0.839}

$$$$
EPH_relaxed_0001_pdb2pqr_Repair_259_r2_0001_out
     RDKit          3D

 82 86  0  0  0  0  0  0  0  0999 V2000
   -2.1280    7.8630   -2.3280 C   0  0  0  0  0  0  0  0  0  0  0  0
   -1.9580    8.4930   -0.9430 C   0  0  2  0  0  0  0  0  0  0  0  0
   -3.2550    8.4280   -0.1120 C   0  0  0  0  0  0  0  0  0  0  0  0
   -4.5290    8.5810   -0.9470 C   0  0  0  0  0  0  0  0  0  0  0  0
   -5.3580    7.3330   -0.9290 C   0  0  2  0  0  0  0  0  0  0  0  0
   -5.4580    6.6620   -2.1910 O   0  0  0  0  0  0  0  0  0  0  0  0
   -6.6810    7.1960   -1.6590 C   0  0  0  0  0  0  0  0  0  0  0  0
   -7.2510    8.3250   -2.4590 C   0  0  0  0  0  0  0  0  0  0  0  0
   -7.6470    6.1480   -1.2000 C   0  0  0  0  0  0  0  0  0  0  0  0
   -1.5010    9.9400   -1.0820 C   0  0  1  0  0  0  0  0  0  0  0  0
   -1.1140   10.5780    0.2790 C   0  0  0  0  0  0  0  0  0  0  0  0
    0.0650   11.5460    0.0000 C   0  0  0  0  0  0  0  0  0  0  0  0
    0.1000   11.6850   -1.5400 C   0  0  1  0  0  0  0  0  0  0  0  0
   -1.0060   12.7350   -1.8730 C   0  0  0  0  0  0  0  0  0  0  0  0
    1.4770   12.0770   -2.1670 C   0  0  2  0  0  0  0  0  0  0  0  0
    2.0190   13.4530   -1.7410 C   0  0  0  0  0  0  0  0  0  0  0  0
    1.6140   14.5950   -2.6130 C   0  0  0  0  0  0  0  0  0  0  0  0
    1.0860   14.4900   -3.8460 C   0  0  0  0  0  0  0  0  0  0  0  0
    0.9390   13.1220   -4.5250 C   0  0  1  0  0  0  0  0  0  0  0  0
    1.4520   13.2100   -5.9860 C   0  0  0  0  0  0  0  0  0  0  0  0
    0.7790   14.3290   -6.7760 C   0  0  0  0  0  0  0  0  0  0  0  0
    0.9980   15.6810   -6.1000 C   0  0  2  0  0  0  0  0  0  0  0  0
    2.3880   16.0110   -6.1700 O   0  0  0  0  0  0  0  0  0  0  0  0
    0.5270   15.7090   -4.6190 C   0  0  0  0  0  0  0  0  0  0  0  0
   -1.0200   15.6520   -4.5640 C   0  0  0  0  0  0  0  0  0  0  0  0
    0.9330   17.0810   -4.0160 C   0  0  0  0  0  0  0  0  0  0  0  0
    1.5530   11.8860   -3.7360 C   0  0  1  0  0  0  0  0  0  0  0  0
    3.0620   11.7250   -4.0920 C   0  0  0  0  0  0  0  0  0  0  0  0
    0.8400   10.5660   -4.2130 C   0  0  0  0  0  0  0  0  0  0  0  0
   -0.4520   10.1680   -3.4750 C   0  0  0  0  0  0  0  0  0  0  0  0
   -0.2510   10.2100   -1.9570 C   0  0  2  0  0  0  0  0  0  0  0  0
    0.8400    9.1470   -1.5890 C   0  0  0  0  0  0  0  0  0  0  0  0
   -2.4131    6.8063   -2.2177 H   0  0  0  0  0  0  0  0  0  0  0  0
   -2.9136    8.3990   -2.8807 H   0  0  0  0  0  0  0  0  0  0  0  0
   -1.1794    7.9310   -2.8807 H   0  0  0  0  0  0  0  0  0  0  0  0
   -1.1931    7.9115   -0.4074 H   0  0  0  0  0  0  0  0  0  0  0  0
   -3.2905    7.4555    0.4008 H   0  0  0  0  0  0  0  0  0  0  0  0
   -3.2285    9.2729    0.5919 H   0  0  0  0  0  0  0  0  0  0  0  0
   -5.1250    9.4105   -0.5388 H   0  0  0  0  0  0  0  0  0  0  0  0
   -4.2343    8.7813   -1.9877 H   0  0  0  0  0  0  0  0  0  0  0  0
   -5.0641    7.1255    0.1105 H   0  0  0  0  0  0  0  0  0  0  0  0
   -7.6405    9.0965   -1.7785 H   0  0  0  0  0  0  0  0  0  0  0  0
   -6.4640    8.7590   -3.0932 H   0  0  0  0  0  0  0  0  0  0  0  0
   -8.0675    7.9494   -3.0932 H   0  0  0  0  0  0  0  0  0  0  0  0
   -7.6681    6.1251   -0.1004 H   0  0  0  0  0  0  0  0  0  0  0  0
   -8.6517    6.3832   -1.5812 H   0  0  0  0  0  0  0  0  0  0  0  0
   -7.3309    5.1658   -1.5812 H   0  0  0  0  0  0  0  0  0  0  0  0
   -2.3942   10.3703   -1.5585 H   0  0  0  0  0  0  0  0  0  0  0  0
   -1.9688   11.1319    0.6944 H   0  0  0  0  0  0  0  0  0  0  0  0
   -0.8277    9.8070    1.0095 H   0  0  0  0  0  0  0  0  0  0  0  0
   -0.1138   12.5224    0.4740 H   0  0  0  0  0  0  0  0  0  0  0  0
    1.0164   11.1726    0.4068 H   0  0  0  0  0  0  0  0  0  0  0  0
   -1.4262   13.1340   -0.9380 H   0  0  0  0  0  0  0  0  0  0  0  0
   -0.5672   13.5568   -2.4578 H   0  0  0  0  0  0  0  0  0  0  0  0
   -1.8040   12.2541   -2.4578 H   0  0  0  0  0  0  0  0  0  0  0  0
    2.1583   11.3365   -1.7227 H   0  0  0  0  0  0  0  0  0  0  0  0
    1.6599   13.6593   -0.7219 H   0  0  0  0  0  0  0  0  0  0  0  0
    3.1143   13.3856   -1.8165 H   0  0  0  0  0  0  0  0  0  0  0  0
    1.7598   15.6093   -2.2131 H   0  0  0  0  0  0  0  0  0  0  0  0
   -0.1375   12.8957   -4.5208 H   0  0  0  0  0  0  0  0  0  0  0  0
    2.5364   13.3936   -5.9685 H   0  0  0  0  0  0  0  0  0  0  0  0
    1.2105   12.2587   -6.4826 H   0  0  0  0  0  0  0  0  0  0  0  0
    1.2043   14.3602   -7.7900 H   0  0  0  0  0  0  0  0  0  0  0  0
   -0.3017   14.1283   -6.8188 H   0  0  0  0  0  0  0  0  0  0  0  0
    0.3867   16.4215   -6.6367 H   0  0  0  0  0  0  0  0  0  0  0  0
    2.8050   15.3990   -6.7990 H   0  0  0  0  0  0  0  0  0  0  0  0
   -1.3494   15.6399   -3.5145 H   0  0  0  0  0  0  0  0  0  0  0  0
   -1.4377   16.5354   -5.0692 H   0  0  0  0  0  0  0  0  0  0  0  0
   -1.3715   14.7403   -5.0692 H   0  0  0  0  0  0  0  0  0  0  0  0
    0.9146   17.0188   -2.9179 H   0  0  0  0  0  0  0  0  0  0  0  0
    1.9472   17.3433   -4.3514 H   0  0  0  0  0  0  0  0  0  0  0  0
    0.2248   17.8530   -4.3514 H   0  0  0  0  0  0  0  0  0  0  0  0
    3.6525   11.6620   -3.1661 H   0  0  0  0  0  0  0  0  0  0  0  0
    3.2039   10.8066   -4.6806 H   0  0  0  0  0  0  0  0  0  0  0  0
    3.3945   12.5928   -4.6806 H   0  0  0  0  0  0  0  0  0  0  0  0
    0.5908   10.6885   -5.2774 H   0  0  0  0  0  0  0  0  0  0  0  0
    1.5551    9.7587   -3.9965 H   0  0  0  0  0  0  0  0  0  0  0  0
   -1.2545   10.8678   -3.7513 H   0  0  0  0  0  0  0  0  0  0  0  0
   -0.7198    9.1413   -3.7652 H   0  0  0  0  0  0  0  0  0  0  0  0
    0.9208    9.0682   -0.4948 H   0  0  0  0  0  0  0  0  0  0  0  0
    0.5557    8.1700   -2.0069 H   0  0  0  0  0  0  0  0  0  0  0  0
    1.8093    9.4566   -2.0069 H   0  0  0  0  0  0  0  0  0  0  0  0
  1  2  1  0
  2  3  1  0
  3  4  1  0
  4  5  1  0
  5  6  1  0
  6  7  1  0
  7  8  1  0
  7  9  1  0
  2 10  1  0
 10 11  1  0
 11 12  1  0
 12 13  1  0
 13 14  1  6
 13 15  1  0
 15 16  1  0
 16 17  1  0
 17 18  2  0
 18 19  1  0
 19 20  1  0
 20 21  1  0
 21 22  1  0
 22 23  1  0
 22 24  1  0
 24 25  1  0
 24 26  1  0
 19 27  1  0
 27 28  1  6
 27 29  1  0
 29 30  1  0
 30 31  1  0
 31 32  1  6
  7  5  1  0
 31 10  1  0
 31 13  1  0
 27 15  1  0
 24 18  1  0
  1 33  1  0
  1 34  1  0
  1 35  1  0
  2 36  1  1
  3 37  1  0
  3 38  1  0
  4 39  1  0
  4 40  1  0
  5 41  1  1
  8 42  1  0
  8 43  1  0
  8 44  1  0
  9 45  1  0
  9 46  1  0
  9 47  1  0
 10 48  1  6
 11 49  1  0
 11 50  1  0
 12 51  1  0
 12 52  1  0
 14 53  1  0
 14 54  1  0
 14 55  1  0
 15 56  1  1
 16 57  1  0
 16 58  1  0
 17 59  1  0
 19 60  1  6
 20 61  1  0
 20 62  1  0
 21 63  1  0
 21 64  1  0
 22 65  1  6
 23 66  1  0
 25 67  1  0
 25 68  1  0
 25 69  1  0
 26 70  1  0
 26 71  1  0
 26 72  1  0
 28 73  1  0
 28 74  1  0
 28 75  1  0
 29 76  1  0
 29 77  1  0
 30 78  1  0
 30 79  1  0
 32 80  1  0
 32 81  1  0
 32 82  1  0
M  END
>  <meeko>  (4) 
{"is_sidechain": [false], "intermolecular_energy": 2.731, "internal_energy": -0.839}

$$$$
EPH_relaxed_0001_pdb2pqr_Repair_259_r2_0001_out
     RDKit          3D

 82 86  0  0  0  0  0  0  0  0999 V2000
   -4.2610    7.2110   -3.0540 C   0  0  0  0  0  0  0  0  0  0  0  0
   -4.1060    7.4430   -1.5480 C   0  0  2  0  0  0  0  0  0  0  0  0
   -5.4660    7.4730   -0.8230 C   0  0  0  0  0  0  0  0  0  0  0  0
   -6.5020    6.5150   -1.4170 C   0  0  0  0  0  0  0  0  0  0  0  0
   -7.9020    6.9800   -1.1560 C   0  0  2  0  0  0  0  0  0  0  0  0
   -8.8680    5.9290   -1.0240 O   0  0  0  0  0  0  0  0  0  0  0  0
   -9.0390    6.8110   -2.1460 C   0  0  0  0  0  0  0  0  0  0  0  0
   -8.8260    6.1540   -3.4740 C   0  0  0  0  0  0  0  0  0  0  0  0
  -10.2300    7.7100   -2.0290 C   0  0  0  0  0  0  0  0  0  0  0  0
   -3.3540    8.7450   -1.2980 C   0  0  1  0  0  0  0  0  0  0  0  0
   -3.8370    9.4770   -0.0180 C   0  0  0  0  0  0  0  0  0  0  0  0
   -2.5910   10.1570    0.6070 C   0  0  0  0  0  0  0  0  0  0  0  0
   -1.5090   10.0750   -0.4960 C   0  0  1  0  0  0  0  0  0  0  0  0
   -1.8280   11.2610   -1.4590 C   0  0  0  0  0  0  0  0  0  0  0  0
   -0.0230   10.1100   -0.0100 C   0  0  2  0  0  0  0  0  0  0  0  0
    0.3970   11.4030    0.7120 C   0  0  0  0  0  0  0  0  0  0  0  0
    0.9540   12.4720   -0.1690 C   0  0  0  0  0  0  0  0  0  0  0  0
    1.3760   12.3010   -1.4360 C   0  0  0  0  0  0  0  0  0  0  0  0
    1.4050   10.9070   -2.0750 C   0  0  1  0  0  0  0  0  0  0  0  0
    2.7630   10.6970   -2.7960 C   0  0  0  0  0  0  0  0  0  0  0  0
    3.0700   11.8050   -3.7990 C   0  0  0  0  0  0  0  0  0  0  0  0
    3.0890   13.1690   -3.1150 C   0  0  2  0  0  0  0  0  0  0  0  0
    4.1980   13.2170   -2.2130 O   0  0  0  0  0  0  0  0  0  0  0  0
    1.7760   13.4880   -2.3470 C   0  0  0  0  0  0  0  0  0  0  0  0
    0.6280   13.7340   -3.3570 C   0  0  0  0  0  0  0  0  0  0  0  0
    1.9800   14.8270   -1.5880 C   0  0  0  0  0  0  0  0  0  0  0  0
    1.0300    9.6970   -1.1150 C   0  0  1  0  0  0  0  0  0  0  0  0
    2.3010    9.2050   -0.3570 C   0  0  0  0  0  0  0  0  0  0  0  0
    0.5360    8.4830   -1.9880 C   0  0  0  0  0  0  0  0  0  0  0  0
   -0.9640    8.4410   -2.3350 C   0  0  0  0  0  0  0  0  0  0  0  0
   -1.8220    8.6510   -1.0830 C   0  0  2  0  0  0  0  0  0  0  0  0
   -1.5390    7.4610   -0.1040 C   0  0  0  0  0  0  0  0  0  0  0  0
   -4.8646    6.3076   -3.2256 H   0  0  0  0  0  0  0  0  0  0  0  0
   -4.7617    8.0784   -3.5090 H   0  0  0  0  0  0  0  0  0  0  0  0
   -3.2681    7.0805   -3.5090 H   0  0  0  0  0  0  0  0  0  0  0  0
   -3.5324    6.5978   -1.1397 H   0  0  0  0  0  0  0  0  0  0  0  0
   -5.3041    7.1997    0.2301 H   0  0  0  0  0  0  0  0  0  0  0  0
   -5.8678    8.4908   -0.9358 H   0  0  0  0  0  0  0  0  0  0  0  0
   -6.3450    6.4497   -2.5038 H   0  0  0  0  0  0  0  0  0  0  0  0
   -6.3730    5.5323   -0.9398 H   0  0  0  0  0  0  0  0  0  0  0  0
   -7.5321    7.8540   -0.6000 H   0  0  0  0  0  0  0  0  0  0  0  0
   -8.4901    5.1178   -3.3208 H   0  0  0  0  0  0  0  0  0  0  0  0
   -9.7701    6.1537   -4.0386 H   0  0  0  0  0  0  0  0  0  0  0  0
   -8.0613    6.7077   -4.0386 H   0  0  0  0  0  0  0  0  0  0  0  0
  -10.4571    7.8814   -0.9664 H   0  0  0  0  0  0  0  0  0  0  0  0
  -10.0130    8.6715   -2.5173 H   0  0  0  0  0  0  0  0  0  0  0  0
  -11.0952    7.2378   -2.5173 H   0  0  0  0  0  0  0  0  0  0  0  0
   -3.5708    9.2677   -2.2413 H   0  0  0  0  0  0  0  0  0  0  0  0
   -4.5917   10.2342   -0.2769 H   0  0  0  0  0  0  0  0  0  0  0  0
   -4.2982    8.7721    0.6894 H   0  0  0  0  0  0  0  0  0  0  0  0
   -2.8072   11.2049    0.8621 H   0  0  0  0  0  0  0  0  0  0  0  0
   -2.2735    9.6698    1.5407 H   0  0  0  0  0  0  0  0  0  0  0  0
   -2.0692   12.1576   -0.8691 H   0  0  0  0  0  0  0  0  0  0  0  0
   -0.9525   11.4639   -2.0933 H   0  0  0  0  0  0  0  0  0  0  0  0
   -2.6872   10.9974   -2.0933 H   0  0  0  0  0  0  0  0  0  0  0  0
   -0.0068    9.3211    0.7564 H   0  0  0  0  0  0  0  0  0  0  0  0
   -0.4880   11.8101    1.2228 H   0  0  0  0  0  0  0  0  0  0  0  0
    1.2090   11.1192    1.3976 H   0  0  0  0  0  0  0  0  0  0  0  0
    1.0257   13.4853    0.2529 H   0  0  0  0  0  0  0  0  0  0  0  0
    0.5860   10.8908   -2.8091 H   0  0  0  0  0  0  0  0  0  0  0  0
    3.5629   10.6729   -2.0413 H   0  0  0  0  0  0  0  0  0  0  0  0
    2.7029    9.7500   -3.3524 H   0  0  0  0  0  0  0  0  0  0  0  0
    4.0536   11.6165   -4.2539 H   0  0  0  0  0  0  0  0  0  0  0  0
    2.2848   11.8091   -4.5693 H   0  0  0  0  0  0  0  0  0  0  0  0
    3.1843   13.9313   -3.9023 H   0  0  0  0  0  0  0  0  0  0  0  0
    4.1030   14.0200   -1.6720 H   0  0  0  0  0  0  0  0  0  0  0  0
   -0.3051   13.9340   -2.8099 H   0  0  0  0  0  0  0  0  0  0  0  0
    0.8751   14.5996   -3.9892 H   0  0  0  0  0  0  0  0  0  0  0  0
    0.4987   12.8432   -3.9892 H   0  0  0  0  0  0  0  0  0  0  0  0
    1.9518   14.6420   -0.5040 H   0  0  0  0  0  0  0  0  0  0  0  0
    2.9543   15.2585   -1.8611 H   0  0  0  0  0  0  0  0  0  0  0  0
    1.1785   15.5291   -1.8611 H   0  0  0  0  0  0  0  0  0  0  0  0
    2.1297    9.2713    0.7276 H   0  0  0  0  0  0  0  0  0  0  0  0
    2.5107    8.1608   -0.6320 H   0  0  0  0  0  0  0  0  0  0  0  0
    3.1591    9.8359   -0.6320 H   0  0  0  0  0  0  0  0  0  0  0  0
    1.0959    8.5044   -2.9346 H   0  0  0  0  0  0  0  0  0  0  0  0
    0.7125    7.5921   -1.3675 H   0  0  0  0  0  0  0  0  0  0  0  0
   -1.1876    9.2356   -3.0621 H   0  0  0  0  0  0  0  0  0  0  0  0
   -1.1985    7.4538   -2.7597 H   0  0  0  0  0  0  0  0  0  0  0  0
   -1.6227    7.8130    0.9348 H   0  0  0  0  0  0  0  0  0  0  0  0
   -2.2716    6.6595   -0.2797 H   0  0  0  0  0  0  0  0  0  0  0  0
   -0.5240    7.0751   -0.2797 H   0  0  0  0  0  0  0  0  0  0  0  0
  1  2  1  0
  2  3  1  0
  3  4  1  0
  4  5  1  0
  5  6  1  0
  6  7  1  0
  7  8  1  0
  7  9  1  0
  2 10  1  0
 10 11  1  0
 11 12  1  0
 12 13  1  0
 13 14  1  6
 13 15  1  0
 15 16  1  0
 16 17  1  0
 17 18  2  0
 18 19  1  0
 19 20  1  0
 20 21  1  0
 21 22  1  0
 22 23  1  0
 22 24  1  0
 24 25  1  0
 24 26  1  0
 19 27  1  0
 27 28  1  1
 27 29  1  0
 29 30  1  0
 30 31  1  0
 31 32  1  1
  7  5  1  0
 31 10  1  0
 31 13  1  0
 27 15  1  0
 24 18  1  0
  1 33  1  0
  1 34  1  0
  1 35  1  0
  2 36  1  1
  3 37  1  0
  3 38  1  0
  4 39  1  0
  4 40  1  0
  5 41  1  1
  8 42  1  0
  8 43  1  0
  8 44  1  0
  9 45  1  0
  9 46  1  0
  9 47  1  0
 10 48  1  6
 11 49  1  0
 11 50  1  0
 12 51  1  0
 12 52  1  0
 14 53  1  0
 14 54  1  0
 14 55  1  0
 15 56  1  1
 16 57  1  0
 16 58  1  0
 17 59  1  0
 19 60  1  6
 20 61  1  0
 20 62  1  0
 21 63  1  0
 21 64  1  0
 22 65  1  6
 23 66  1  0
 25 67  1  0
 25 68  1  0
 25 69  1  0
 26 70  1  0
 26 71  1  0
 26 72  1  0
 28 73  1  0
 28 74  1  0
 28 75  1  0
 29 76  1  0
 29 77  1  0
 30 78  1  0
 30 79  1  0
 32 80  1  0
 32 81  1  0
 32 82  1  0
M  END
>  <meeko>  (5) 
{"is_sidechain": [false], "intermolecular_energy": 2.731, "internal_energy": -0.839}

$$$$
EPH_relaxed_0001_pdb2pqr_Repair_259_r2_0001_out
     RDKit          3D

 82 86  0  0  0  0  0  0  0  0999 V2000
    2.6280   17.9290   -2.8250 C   0  0  0  0  0  0  0  0  0  0  0  0
    1.6770   17.3490   -1.7740 C   0  0  2  0  0  0  0  0  0  0  0  0
    2.3570   17.1940   -0.3980 C   0  0  0  0  0  0  0  0  0  0  0  0
    2.5180   18.5140    0.3610 C   0  0  0  0  0  0  0  0  0  0  0  0
    3.9120   18.6860    0.8830 C   0  0  2  0  0  0  0  0  0  0  0  0
    4.1570   18.0650    2.1520 O   0  0  0  0  0  0  0  0  0  0  0  0
    4.2480   19.4990    2.1200 C   0  0  0  0  0  0  0  0  0  0  0  0
    3.1830   20.1940    2.9090 C   0  0  0  0  0  0  0  0  0  0  0  0
    5.6430   20.0180    2.2780 C   0  0  0  0  0  0  0  0  0  0  0  0
    1.1410   16.0020   -2.2450 C   0  0  1  0  0  0  0  0  0  0  0  0
    1.2370   15.8260   -3.7840 C   0  0  0  0  0  0  0  0  0  0  0  0
    1.5400   14.3280   -4.0450 C   0  0  0  0  0  0  0  0  0  0  0  0
    1.2810   13.6350   -2.6860 C   0  0  1  0  0  0  0  0  0  0  0  0
   -0.2670   13.4410   -2.6230 C   0  0  0  0  0  0  0  0  0  0  0  0
    2.0420   12.2920   -2.4390 C   0  0  2  0  0  0  0  0  0  0  0  0
    1.6900   11.1550   -3.4140 C   0  0  0  0  0  0  0  0  0  0  0  0
    0.5660   10.2710   -2.9850 C   0  0  0  0  0  0  0  0  0  0  0  0
    0.0530   10.2060   -1.7420 C   0  0  0  0  0  0  0  0  0  0  0  0
    0.6770   11.0050   -0.5900 C   0  0  1  0  0  0  0  0  0  0  0  0
    0.8340   10.0870    0.6510 C   0  0  0  0  0  0  0  0  0  0  0  0
   -0.4760    9.4130    1.0500 C   0  0  0  0  0  0  0  0  0  0  0  0
   -1.0340    8.5820   -0.1020 C   0  0  2  0  0  0  0  0  0  0  0  0
   -0.1520    7.4820   -0.3460 O   0  0  0  0  0  0  0  0  0  0  0  0
   -1.2260    9.3980   -1.4100 C   0  0  0  0  0  0  0  0  0  0  0  0
   -2.3980   10.3950   -1.2350 C   0  0  0  0  0  0  0  0  0  0  0  0
   -1.6590    8.4130   -2.5290 C   0  0  0  0  0  0  0  0  0  0  0  0
    2.0110   11.7960   -0.9370 C   0  0  1  0  0  0  0  0  0  0  0  0
    3.2460   10.8630   -0.7510 C   0  0  0  0  0  0  0  0  0  0  0  0
    2.1880   12.9780    0.0870 C   0  0  0  0  0  0  0  0  0  0  0  0
    1.5120   14.3160   -0.2710 C   0  0  0  0  0  0  0  0  0  0  0  0
    1.8440   14.7300   -1.7080 C   0  0  2  0  0  0  0  0  0  0  0  0
    3.3920   14.9540   -1.7960 C   0  0  0  0  0  0  0  0  0  0  0  0
    3.4633   18.4384   -2.3223 H   0  0  0  0  0  0  0  0  0  0  0  0
    3.0195   17.1158   -3.4538 H   0  0  0  0  0  0  0  0  0  0  0  0
    2.0842   18.6494   -3.4538 H   0  0  0  0  0  0  0  0  0  0  0  0
    0.8450   18.0583   -1.6530 H   0  0  0  0  0  0  0  0  0  0  0  0
    1.7488   16.5127    0.2152 H   0  0  0  0  0  0  0  0  0  0  0  0
    3.3687   16.8032   -0.5815 H   0  0  0  0  0  0  0  0  0  0  0  0
    2.2866   19.3470   -0.3192 H   0  0  0  0  0  0  0  0  0  0  0  0
    1.8293   18.5029    1.2187 H   0  0  0  0  0  0  0  0  0  0  0  0
    4.3189   18.6953   -0.1390 H   0  0  0  0  0  0  0  0  0  0  0  0
    3.3800   20.0655    3.9836 H   0  0  0  0  0  0  0  0  0  0  0  0
    3.1840   21.2658    2.6617 H   0  0  0  0  0  0  0  0  0  0  0  0
    2.2023   19.7615    2.6617 H   0  0  0  0  0  0  0  0  0  0  0  0
    5.8821   20.1070    3.3480 H   0  0  0  0  0  0  0  0  0  0  0  0
    6.3492   19.3225    1.8011 H   0  0  0  0  0  0  0  0  0  0  0  0
    5.7229   21.0060    1.8011 H   0  0  0  0  0  0  0  0  0  0  0  0
    0.1168   16.0619   -1.8481 H   0  0  0  0  0  0  0  0  0  0  0  0
    0.2851   16.1080   -4.2576 H   0  0  0  0  0  0  0  0  0  0  0  0
    2.0243   16.4676   -4.2065 H   0  0  0  0  0  0  0  0  0  0  0  0
    0.8708   13.9257   -4.8198 H   0  0  0  0  0  0  0  0  0  0  0  0
    2.5663   14.1668   -4.4067 H   0  0  0  0  0  0  0  0  0  0  0  0
   -0.5890   13.4006   -1.5720 H   0  0  0  0  0  0  0  0  0  0  0  0
   -0.7630   14.2840   -3.1263 H   0  0  0  0  0  0  0  0  0  0  0  0
   -0.5396   12.5017   -3.1263 H   0  0  0  0  0  0  0  0  0  0  0  0
    3.0836   12.5660   -2.6624 H   0  0  0  0  0  0  0  0  0  0  0  0
    1.4173   11.6072   -4.3790 H   0  0  0  0  0  0  0  0  0  0  0  0
    2.5806   10.5114   -3.4645 H   0  0  0  0  0  0  0  0  0  0  0  0
    0.1193    9.6177   -3.7490 H   0  0  0  0  0  0  0  0  0  0  0  0
   -0.0293   11.8180   -0.3661 H   0  0  0  0  0  0  0  0  0  0  0  0
    1.5758    9.3078    0.4216 H   0  0  0  0  0  0  0  0  0  0  0  0
    1.1556   10.7168    1.4936 H   0  0  0  0  0  0  0  0  0  0  0  0
   -0.2945    8.7558    1.9132 H   0  0  0  0  0  0  0  0  0  0  0  0
   -1.2080   10.1926    1.3077 H   0  0  0  0  0  0  0  0  0  0  0  0
   -2.0328    8.2318    0.1977 H   0  0  0  0  0  0  0  0  0  0  0  0
   -0.3130    6.8160    0.3440 H   0  0  0  0  0  0  0  0  0  0  0  0
   -2.5862   10.5551   -0.1631 H   0  0  0  0  0  0  0  0  0  0  0  0
   -2.1382   11.3531   -1.7088 H   0  0  0  0  0  0  0  0  0  0  0  0
   -3.3021    9.9849   -1.7088 H   0  0  0  0  0  0  0  0  0  0  0  0
   -2.0621    7.4960   -2.0745 H   0  0  0  0  0  0  0  0  0  0  0  0
   -2.4331    8.8840   -3.1527 H   0  0  0  0  0  0  0  0  0  0  0  0
   -0.7886    8.1611   -3.1527 H   0  0  0  0  0  0  0  0  0  0  0  0
    3.4377   10.7181    0.3224 H   0  0  0  0  0  0  0  0  0  0  0  0
    3.0445    9.8896   -1.2221 H   0  0  0  0  0  0  0  0  0  0  0  0
    4.1272   11.3229   -1.2221 H   0  0  0  0  0  0  0  0  0  0  0  0
    1.7780   12.6460    1.0522 H   0  0  0  0  0  0  0  0  0  0  0  0
    3.2666   13.1936    0.0933 H   0  0  0  0  0  0  0  0  0  0  0  0
    0.4220   14.2069   -0.1705 H   0  0  0  0  0  0  0  0  0  0  0  0
    1.8856   15.0922    0.4131 H   0  0  0  0  0  0  0  0  0  0  0  0
    3.8120   15.0148   -0.7811 H   0  0  0  0  0  0  0  0  0  0  0  0
    3.8541   14.1134   -2.3343 H   0  0  0  0  0  0  0  0  0  0  0  0
    3.5969   15.8911   -2.3343 H   0  0  0  0  0  0  0  0  0  0  0  0
  1  2  1  0
  2  3  1  0
  3  4  1  0
  4  5  1  0
  5  6  1  0
  6  7  1  0
  7  8  1  0
  7  9  1  0
  2 10  1  0
 10 11  1  0
 11 12  1  0
 12 13  1  0
 13 14  1  1
 13 15  1  0
 15 16  1  0
 16 17  1  0
 17 18  2  0
 18 19  1  0
 19 20  1  0
 20 21  1  0
 21 22  1  0
 22 23  1  0
 22 24  1  0
 24 25  1  0
 24 26  1  0
 19 27  1  0
 27 28  1  6
 27 29  1  0
 29 30  1  0
 30 31  1  0
 31 32  1  1
  7  5  1  0
 31 10  1  0
 31 13  1  0
 27 15  1  0
 24 18  1  0
  1 33  1  0
  1 34  1  0
  1 35  1  0
  2 36  1  1
  3 37  1  0
  3 38  1  0
  4 39  1  0
  4 40  1  0
  5 41  1  6
  8 42  1  0
  8 43  1  0
  8 44  1  0
  9 45  1  0
  9 46  1  0
  9 47  1  0
 10 48  1  1
 11 49  1  0
 11 50  1  0
 12 51  1  0
 12 52  1  0
 14 53  1  0
 14 54  1  0
 14 55  1  0
 15 56  1  6
 16 57  1  0
 16 58  1  0
 17 59  1  0
 19 60  1  1
 20 61  1  0
 20 62  1  0
 21 63  1  0
 21 64  1  0
 22 65  1  1
 23 66  1  0
 25 67  1  0
 25 68  1  0
 25 69  1  0
 26 70  1  0
 26 71  1  0
 26 72  1  0
 28 73  1  0
 28 74  1  0
 28 75  1  0
 29 76  1  0
 29 77  1  0
 30 78  1  0
 30 79  1  0
 32 80  1  0
 32 81  1  0
 32 82  1  0
M  END
>  <meeko>  (6) 
{"is_sidechain": [false], "intermolecular_energy": 2.731, "internal_energy": -0.839}

$$$$
EPH_relaxed_0001_pdb2pqr_Repair_259_r2_0001_out
     RDKit          3D

 82 86  0  0  0  0  0  0  0  0999 V2000
   -0.5400   16.4120   -5.7360 C   0  0  0  0  0  0  0  0  0  0  0  0
    0.4070   15.6290   -6.6500 C   0  0  2  0  0  0  0  0  0  0  0  0
   -0.1400   15.5080   -8.0870 C   0  0  0  0  0  0  0  0  0  0  0  0
    0.4760   16.5110   -9.0660 C   0  0  0  0  0  0  0  0  0  0  0  0
    1.8740   16.1270   -9.4460 C   0  0  2  0  0  0  0  0  0  0  0  0
    2.3330   16.6870  -10.6830 O   0  0  0  0  0  0  0  0  0  0  0  0
    2.2070   15.2560  -10.6430 C   0  0  0  0  0  0  0  0  0  0  0  0
    1.1350   14.7150  -11.5360 C   0  0  0  0  0  0  0  0  0  0  0  0
    3.5180   14.5350  -10.6610 C   0  0  0  0  0  0  0  0  0  0  0  0
    0.6600   14.2420   -6.0700 C   0  0  1  0  0  0  0  0  0  0  0  0
    1.8250   13.5010   -6.7800 C   0  0  0  0  0  0  0  0  0  0  0  0
    2.5450   12.6590   -5.6950 C   0  0  0  0  0  0  0  0  0  0  0  0
    1.5840   12.6800   -4.4830 C   0  0  1  0  0  0  0  0  0  0  0  0
    0.5160   11.5870   -4.8010 C   0  0  0  0  0  0  0  0  0  0  0  0
    2.2370   12.4580   -3.0800 C   0  0  2  0  0  0  0  0  0  0  0  0
    2.9180   11.0920   -2.8860 C   0  0  0  0  0  0  0  0  0  0  0  0
    2.0410   10.0150   -2.3360 C   0  0  0  0  0  0  0  0  0  0  0  0
    0.8460   10.2050   -1.7470 C   0  0  0  0  0  0  0  0  0  0  0  0
    0.3060   11.6190   -1.4970 C   0  0  1  0  0  0  0  0  0  0  0  0
   -0.2360   11.7170   -0.0470 C   0  0  0  0  0  0  0  0  0  0  0  0
   -1.2660   10.6360    0.2670 C   0  0  0  0  0  0  0  0  0  0  0  0
   -0.6740    9.2440    0.0630 C   0  0  2  0  0  0  0  0  0  0  0  0
    0.3470    9.0290    1.0420 O   0  0  0  0  0  0  0  0  0  0  0  0
   -0.0860    9.0300   -1.3600 C   0  0  0  0  0  0  0  0  0  0  0  0
   -1.2380    8.9630   -2.3940 C   0  0  0  0  0  0  0  0  0  0  0  0
    0.6040    7.6400   -1.3890 C   0  0  0  0  0  0  0  0  0  0  0  0
    1.2910   12.8110   -1.8620 C   0  0  1  0  0  0  0  0  0  0  0  0
    2.2230   13.1220   -0.6510 C   0  0  0  0  0  0  0  0  0  0  0  0
    0.4470   14.1150   -2.1190 C   0  0  0  0  0  0  0  0  0  0  0  0
   -0.0690   14.3370   -3.5530 C   0  0  0  0  0  0  0  0  0  0  0  0
    1.0570   14.1580   -4.5750 C   0  0  2  0  0  0  0  0  0  0  0  0
    2.1370   15.2580   -4.2950 C   0  0  0  0  0  0  0  0  0  0  0  0
   -0.2897   16.2051   -4.6850 H   0  0  0  0  0  0  0  0  0  0  0  0
   -0.4329   17.4889   -5.9332 H   0  0  0  0  0  0  0  0  0  0  0  0
   -1.5776   16.1045   -5.9332 H   0  0  0  0  0  0  0  0  0  0  0  0
    1.3529   16.1880   -6.7034 H   0  0  0  0  0  0  0  0  0  0  0  0
    0.0683   14.4920   -8.4536 H   0  0  0  0  0  0  0  0  0  0  0  0
   -1.2175   15.7244   -8.0403 H   0  0  0  0  0  0  0  0  0  0  0  0
   -0.1429   16.5485   -9.9746 H   0  0  0  0  0  0  0  0  0  0  0  0
    0.5121   17.4937   -8.5730 H   0  0  0  0  0  0  0  0  0  0  0  0
    2.1713   16.0719   -8.3884 H   0  0  0  0  0  0  0  0  0  0  0  0
    0.3198   14.3036  -10.9226 H   0  0  0  0  0  0  0  0  0  0  0  0
    0.7439   15.5237  -12.1709 H   0  0  0  0  0  0  0  0  0  0  0  0
    1.5532   13.9200  -12.1709 H   0  0  0  0  0  0  0  0  0  0  0  0
    3.8502   14.3523   -9.6284 H   0  0  0  0  0  0  0  0  0  0  0  0
    3.4010   13.5743  -11.1839 H   0  0  0  0  0  0  0  0  0  0  0  0
    4.2666   15.1483  -11.1839 H   0  0  0  0  0  0  0  0  0  0  0  0
   -0.3337   13.7949   -6.2205 H   0  0  0  0  0  0  0  0  0  0  0  0
    1.4312   12.8445   -7.5699 H   0  0  0  0  0  0  0  0  0  0  0  0
    2.5176   14.2134   -7.2520 H   0  0  0  0  0  0  0  0  0  0  0  0
    2.7051   11.6288   -6.0458 H   0  0  0  0  0  0  0  0  0  0  0  0
    3.5385   13.0606   -5.4465 H   0  0  0  0  0  0  0  0  0  0  0  0
    0.1175   11.1791   -3.8604 H   0  0  0  0  0  0  0  0  0  0  0  0
   -0.3034   12.0335   -5.3834 H   0  0  0  0  0  0  0  0  0  0  0  0
    0.9813   10.7781   -5.3834 H   0  0  0  0  0  0  0  0  0  0  0  0
    3.0497   13.1993   -3.0779 H   0  0  0  0  0  0  0  0  0  0  0  0
    3.2943   10.7577   -3.8641 H   0  0  0  0  0  0  0  0  0  0  0  0
    3.7107   11.2500   -2.1399 H   0  0  0  0  0  0  0  0  0  0  0  0
    2.4024    8.9794   -2.4195 H   0  0  0  0  0  0  0  0  0  0  0  0
   -0.5165   11.7621   -2.2133 H   0  0  0  0  0  0  0  0  0  0  0  0
    0.6070   11.6146    0.6522 H   0  0  0  0  0  0  0  0  0  0  0  0
   -0.7332   12.6926    0.0584 H   0  0  0  0  0  0  0  0  0  0  0  0
   -1.5897   10.7399    1.3131 H   0  0  0  0  0  0  0  0  0  0  0  0
   -2.1215   10.7573   -0.4137 H   0  0  0  0  0  0  0  0  0  0  0  0
   -1.4928    8.5182    0.1764 H   0  0  0  0  0  0  0  0  0  0  0  0
    1.1350    8.6970    0.5780 H   0  0  0  0  0  0  0  0  0  0  0  0
   -2.2015    8.9070   -1.8663 H   0  0  0  0  0  0  0  0  0  0  0  0
   -1.2173    9.8639   -3.0249 H   0  0  0  0  0  0  0  0  0  0  0  0
   -1.1130    8.0706   -3.0249 H   0  0  0  0  0  0  0  0  0  0  0  0
    0.7756    7.2943   -0.3589 H   0  0  0  0  0  0  0  0  0  0  0  0
   -0.0418    6.9210   -1.9143 H   0  0  0  0  0  0  0  0  0  0  0  0
    1.5672    7.7197   -1.9143 H   0  0  0  0  0  0  0  0  0  0  0  0
    1.6782   12.9402    0.2871 H   0  0  0  0  0  0  0  0  0  0  0  0
    3.1084   12.4706   -0.6930 H   0  0  0  0  0  0  0  0  0  0  0  0
    2.5398   14.1746   -0.6930 H   0  0  0  0  0  0  0  0  0  0  0  0
   -0.4272   14.0824   -1.4521 H   0  0  0  0  0  0  0  0  0  0  0  0
    1.1400   14.9482   -1.9303 H   0  0  0  0  0  0  0  0  0  0  0  0
   -0.8663   13.6095   -3.7651 H   0  0  0  0  0  0  0  0  0  0  0  0
   -0.4539   15.3644   -3.6319 H   0  0  0  0  0  0  0  0  0  0  0  0
    2.2599   15.3832   -3.2091 H   0  0  0  0  0  0  0  0  0  0  0  0
    3.0956   14.9523   -4.7397 H   0  0  0  0  0  0  0  0  0  0  0  0
    1.8138   16.2108   -4.7397 H   0  0  0  0  0  0  0  0  0  0  0  0
  1  2  1  0
  2  3  1  0
  3  4  1  0
  4  5  1  0
  5  6  1  0
  6  7  1  0
  7  8  1  0
  7  9  1  0
  2 10  1  0
 10 11  1  0
 11 12  1  0
 12 13  1  0
 13 14  1  6
 13 15  1  0
 15 16  1  0
 16 17  1  0
 17 18  2  0
 18 19  1  0
 19 20  1  0
 20 21  1  0
 21 22  1  0
 22 23  1  0
 22 24  1  0
 24 25  1  0
 24 26  1  0
 19 27  1  0
 27 28  1  1
 27 29  1  0
 29 30  1  0
 30 31  1  0
 31 32  1  1
  7  5  1  0
 31 10  1  0
 31 13  1  0
 27 15  1  0
 24 18  1  0
  1 33  1  0
  1 34  1  0
  1 35  1  0
  2 36  1  6
  3 37  1  0
  3 38  1  0
  4 39  1  0
  4 40  1  0
  5 41  1  1
  8 42  1  0
  8 43  1  0
  8 44  1  0
  9 45  1  0
  9 46  1  0
  9 47  1  0
 10 48  1  1
 11 49  1  0
 11 50  1  0
 12 51  1  0
 12 52  1  0
 14 53  1  0
 14 54  1  0
 14 55  1  0
 15 56  1  6
 16 57  1  0
 16 58  1  0
 17 59  1  0
 19 60  1  6
 20 61  1  0
 20 62  1  0
 21 63  1  0
 21 64  1  0
 22 65  1  1
 23 66  1  0
 25 67  1  0
 25 68  1  0
 25 69  1  0
 26 70  1  0
 26 71  1  0
 26 72  1  0
 28 73  1  0
 28 74  1  0
 28 75  1  0
 29 76  1  0
 29 77  1  0
 30 78  1  0
 30 79  1  0
 32 80  1  0
 32 81  1  0
 32 82  1  0
M  END
>  <meeko>  (7) 
{"is_sidechain": [false], "intermolecular_energy": 2.731, "internal_energy": -0.839}

$$$$
EPH_relaxed_0001_pdb2pqr_Repair_259_r2_0001_out
     RDKit          3D

 82 86  0  0  0  0  0  0  0  0999 V2000
    2.4140   17.0970   -1.0830 C   0  0  0  0  0  0  0  0  0  0  0  0
    1.6960   17.1890   -2.4330 C   0  0  2  0  0  0  0  0  0  0  0  0
    0.6450   18.3160   -2.4550 C   0  0  0  0  0  0  0  0  0  0  0  0
    1.1580   19.6480   -1.9000 C   0  0  0  0  0  0  0  0  0  0  0  0
    1.4560   19.5600   -0.4340 C   0  0  2  0  0  0  0  0  0  0  0  0
    0.7890   18.4910    0.2490 O   0  0  0  0  0  0  0  0  0  0  0  0
    0.4240   19.8220    0.6460 C   0  0  0  0  0  0  0  0  0  0  0  0
   -0.9850   20.1940    0.3060 C   0  0  0  0  0  0  0  0  0  0  0  0
    0.9000   20.1940    2.0160 C   0  0  0  0  0  0  0  0  0  0  0  0
    1.0370   15.8550   -2.7630 C   0  0  1  0  0  0  0  0  0  0  0  0
    0.8540   15.6410   -4.2890 C   0  0  0  0  0  0  0  0  0  0  0  0
    1.0510   14.1260   -4.5550 C   0  0  0  0  0  0  0  0  0  0  0  0
    1.0100   13.4750   -3.1520 C   0  0  1  0  0  0  0  0  0  0  0  0
   -0.5080   13.3470   -2.8140 C   0  0  0  0  0  0  0  0  0  0  0  0
    1.7530   12.1080   -3.0030 C   0  0  2  0  0  0  0  0  0  0  0  0
    1.1940   10.9640   -3.8680 C   0  0  0  0  0  0  0  0  0  0  0  0
    0.1310   10.1380   -3.2220 C   0  0  0  0  0  0  0  0  0  0  0  0
   -0.1560   10.1210   -1.9070 C   0  0  0  0  0  0  0  0  0  0  0  0
    0.6890   10.9200   -0.9060 C   0  0  1  0  0  0  0  0  0  0  0  0
    1.0280   10.0250    0.3140 C   0  0  0  0  0  0  0  0  0  0  0  0
   -0.2140    9.4140    0.9560 C   0  0  0  0  0  0  0  0  0  0  0  0
   -0.9960    8.5800   -0.0560 C   0  0  2  0  0  0  0  0  0  0  0  0
   -0.2120    7.4400   -0.4180 O   0  0  0  0  0  0  0  0  0  0  0  0
   -1.3860    9.3750   -1.3340 C   0  0  0  0  0  0  0  0  0  0  0  0
   -2.4720   10.4230   -0.9840 C   0  0  0  0  0  0  0  0  0  0  0  0
   -2.0450    8.3830   -2.3300 C   0  0  0  0  0  0  0  0  0  0  0  0
    1.9690   11.6470   -1.5050 C   0  0  1  0  0  0  0  0  0  0  0  0
    3.1830   10.6690   -1.5100 C   0  0  0  0  0  0  0  0  0  0  0  0
    2.3670   12.8440   -0.5620 C   0  0  0  0  0  0  0  0  0  0  0  0
    1.6880   14.2000   -0.8360 C   0  0  0  0  0  0  0  0  0  0  0  0
    1.7760   14.5670   -2.3200 C   0  0  2  0  0  0  0  0  0  0  0  0
    3.2920   14.7260   -2.6850 C   0  0  0  0  0  0  0  0  0  0  0  0
    1.6793   17.1911   -0.2698 H   0  0  0  0  0  0  0  0  0  0  0  0
    2.9250   16.1260   -1.0049 H   0  0  0  0  0  0  0  0  0  0  0  0
    3.1533   17.9078   -1.0049 H   0  0  0  0  0  0  0  0  0  0  0  0
    2.4524   17.4281   -3.1951 H   0  0  0  0  0  0  0  0  0  0  0  0
    0.3264   18.4733   -3.4960 H   0  0  0  0  0  0  0  0  0  0  0  0
   -0.1833   17.9954   -1.8061 H   0  0  0  0  0  0  0  0  0  0  0  0
    2.0782   19.9262   -2.4347 H   0  0  0  0  0  0  0  0  0  0  0  0
    0.3732   20.4049   -2.0454 H   0  0  0  0  0  0  0  0  0  0  0  0
    2.4726   19.9489   -0.5931 H   0  0  0  0  0  0  0  0  0  0  0  0
   -1.5581   20.3453    1.2327 H   0  0  0  0  0  0  0  0  0  0  0  0
   -0.9871   21.1235   -0.2823 H   0  0  0  0  0  0  0  0  0  0  0  0
   -1.4456   19.3867   -0.2823 H   0  0  0  0  0  0  0  0  0  0  0  0
    0.2689   19.7008    2.7699 H   0  0  0  0  0  0  0  0  0  0  0  0
    1.9435   19.8696    2.1423 H   0  0  0  0  0  0  0  0  0  0  0  0
    0.8374   21.2849    2.1423 H   0  0  0  0  0  0  0  0  0  0  0  0
    0.1018   15.9658   -2.1946 H   0  0  0  0  0  0  0  0  0  0  0  0
   -0.1554   15.9515   -4.5967 H   0  0  0  0  0  0  0  0  0  0  0  0
    1.5776   16.2399   -4.8614 H   0  0  0  0  0  0  0  0  0  0  0  0
    0.2415   13.7345   -5.1886 H   0  0  0  0  0  0  0  0  0  0  0  0
    1.9909   13.9144   -5.0858 H   0  0  0  0  0  0  0  0  0  0  0  0
   -0.6408   13.3358   -1.7221 H   0  0  0  0  0  0  0  0  0  0  0  0
   -1.0521   14.2025   -3.2408 H   0  0  0  0  0  0  0  0  0  0  0  0
   -0.9012   12.4125   -3.2408 H   0  0  0  0  0  0  0  0  0  0  0  0
    2.7481   12.3347   -3.4134 H   0  0  0  0  0  0  0  0  0  0  0  0
    0.7728   11.4046   -4.7837 H   0  0  0  0  0  0  0  0  0  0  0  0
    2.0375   10.2831   -4.0549 H   0  0  0  0  0  0  0  0  0  0  0  0
   -0.4686    9.4881   -3.8764 H   0  0  0  0  0  0  0  0  0  0  0  0
    0.0636   11.7663   -0.5856 H   0  0  0  0  0  0  0  0  0  0  0  0
    1.6892    9.2113   -0.0188 H   0  0  0  0  0  0  0  0  0  0  0  0
    1.5150   10.6603    1.0685 H   0  0  0  0  0  0  0  0  0  0  0  0
    0.0931    8.7697    1.7930 H   0  0  0  0  0  0  0  0  0  0  0  0
   -0.8607   10.2281    1.3151 H   0  0  0  0  0  0  0  0  0  0  0  0
   -1.9383    8.2769    0.4239 H   0  0  0  0  0  0  0  0  0  0  0  0
    0.6620    7.7610   -0.6970 H   0  0  0  0  0  0  0  0  0  0  0  0
   -2.5604   10.5083    0.1091 H   0  0  0  0  0  0  0  0  0  0  0  0
   -2.1896   11.3987   -1.4063 H   0  0  0  0  0  0  0  0  0  0  0  0
   -3.4370   10.1061   -1.4063 H   0  0  0  0  0  0  0  0  0  0  0  0
   -2.5688    7.5945   -1.7697 H   0  0  0  0  0  0  0  0  0  0  0  0
   -2.7647    8.9228   -2.9630 H   0  0  0  0  0  0  0  0  0  0  0  0
   -1.2684    7.9288   -2.9630 H   0  0  0  0  0  0  0  0  0  0  0  0
    3.4711   10.4369   -0.4741 H   0  0  0  0  0  0  0  0  0  0  0  0
    2.9038    9.7406   -2.0297 H   0  0  0  0  0  0  0  0  0  0  0  0
    4.0307   11.1394   -2.0297 H   0  0  0  0  0  0  0  0  0  0  0  0
    2.1211   12.5511    0.4694 H   0  0  0  0  0  0  0  0  0  0  0  0
    3.4373   13.0149   -0.7500 H   0  0  0  0  0  0  0  0  0  0  0  0
    0.6296   14.1382   -0.5427 H   0  0  0  0  0  0  0  0  0  0  0  0
    2.2048   14.9755   -0.2516 H   0  0  0  0  0  0  0  0  0  0  0  0
    3.8868   14.7884   -1.7618 H   0  0  0  0  0  0  0  0  0  0  0  0
    3.6202   13.8574   -3.2747 H   0  0  0  0  0  0  0  0  0  0  0  0
    3.4329   15.6438   -3.2747 H   0  0  0  0  0  0  0  0  0  0  0  0
  1  2  1  0
  2  3  1  0
  3  4  1  0
  4  5  1  0
  5  6  1  0
  6  7  1  0
  7  8  1  0
  7  9  1  0
  2 10  1  0
 10 11  1  0
 11 12  1  0
 12 13  1  0
 13 14  1  1
 13 15  1  0
 15 16  1  0
 16 17  1  0
 17 18  2  0
 18 19  1  0
 19 20  1  0
 20 21  1  0
 21 22  1  0
 22 23  1  0
 22 24  1  0
 24 25  1  0
 24 26  1  0
 19 27  1  0
 27 28  1  6
 27 29  1  0
 29 30  1  0
 30 31  1  0
 31 32  1  6
  7  5  1  0
 31 10  1  0
 31 13  1  0
 27 15  1  0
 24 18  1  0
  1 33  1  0
  1 34  1  0
  1 35  1  0
  2 36  1  6
  3 37  1  0
  3 38  1  0
  4 39  1  0
  4 40  1  0
  5 41  1  1
  8 42  1  0
  8 43  1  0
  8 44  1  0
  9 45  1  0
  9 46  1  0
  9 47  1  0
 10 48  1  1
 11 49  1  0
 11 50  1  0
 12 51  1  0
 12 52  1  0
 14 53  1  0
 14 54  1  0
 14 55  1  0
 15 56  1  6
 16 57  1  0
 16 58  1  0
 17 59  1  0
 19 60  1  1
 20 61  1  0
 20 62  1  0
 21 63  1  0
 21 64  1  0
 22 65  1  1
 23 66  1  0
 25 67  1  0
 25 68  1  0
 25 69  1  0
 26 70  1  0
 26 71  1  0
 26 72  1  0
 28 73  1  0
 28 74  1  0
 28 75  1  0
 29 76  1  0
 29 77  1  0
 30 78  1  0
 30 79  1  0
 32 80  1  0
 32 81  1  0
 32 82  1  0
M  END
>  <meeko>  (8) 
{"is_sidechain": [false], "intermolecular_energy": 2.731, "internal_energy": -0.839}

$$$$
EPH_relaxed_0001_pdb2pqr_Repair_259_r2_0001_out
     RDKit          3D

 82 86  0  0  0  0  0  0  0  0999 V2000
  -14.3680    5.4500    0.4660 C   0  0  0  0  0  0  0  0  0  0  0  0
  -13.8310    6.8750    0.3040 C   0  0  2  0  0  0  0  0  0  0  0  0
  -14.9500    7.8840   -0.0180 C   0  0  0  0  0  0  0  0  0  0  0  0
  -14.5460    9.3440    0.2050 C   0  0  0  0  0  0  0  0  0  0  0  0
  -15.2700   10.2680   -0.7260 C   0  0  2  0  0  0  0  0  0  0  0  0
  -15.1960    9.9030   -2.1100 O   0  0  0  0  0  0  0  0  0  0  0  0
  -14.5690   11.1440   -1.7480 C   0  0  0  0  0  0  0  0  0  0  0  0
  -13.0800   11.1380   -1.8900 C   0  0  0  0  0  0  0  0  0  0  0  0
  -15.2850   12.3530   -2.2650 C   0  0  0  0  0  0  0  0  0  0  0  0
  -12.7680    6.9080   -0.7880 C   0  0  1  0  0  0  0  0  0  0  0  0
  -13.1360    7.8700   -1.9500 C   0  0  0  0  0  0  0  0  0  0  0  0
  -11.8090    8.4950   -2.4500 C   0  0  0  0  0  0  0  0  0  0  0  0
  -10.7020    7.6360   -1.7960 C   0  0  1  0  0  0  0  0  0  0  0  0
  -10.5910    6.3680   -2.6990 C   0  0  0  0  0  0  0  0  0  0  0  0
   -9.3140    8.3290   -1.6010 C   0  0  2  0  0  0  0  0  0  0  0  0
   -8.6130    8.7610   -2.9010 C   0  0  0  0  0  0  0  0  0  0  0  0
   -7.7040    7.7420   -3.5050 C   0  0  0  0  0  0  0  0  0  0  0  0
   -7.2390    6.6430   -2.8830 C   0  0  0  0  0  0  0  0  0  0  0  0
   -7.5460    6.3870   -1.4020 C   0  0  1  0  0  0  0  0  0  0  0  0
   -6.2440    5.9680   -0.6680 C   0  0  0  0  0  0  0  0  0  0  0  0
   -5.5530    4.7820   -1.3350 C   0  0  0  0  0  0  0  0  0  0  0  0
   -5.2120    5.0960   -2.7890 C   0  0  2  0  0  0  0  0  0  0  0  0
   -4.2170    6.1230   -2.8170 O   0  0  0  0  0  0  0  0  0  0  0  0
   -6.4450    5.5400   -3.6250 C   0  0  0  0  0  0  0  0  0  0  0  0
   -7.3860    4.3300   -3.8480 C   0  0  0  0  0  0  0  0  0  0  0  0
   -5.9410    5.9620   -5.0320 C   0  0  0  0  0  0  0  0  0  0  0  0
   -8.3260    7.5460   -0.6450 C   0  0  1  0  0  0  0  0  0  0  0  0
   -7.3150    8.5960   -0.0920 C   0  0  0  0  0  0  0  0  0  0  0  0
   -9.0630    6.9370    0.6070 C   0  0  0  0  0  0  0  0  0  0  0  0
  -10.4790    6.3760    0.3750 C   0  0  0  0  0  0  0  0  0  0  0  0
  -11.3490    7.3820   -0.3860 C   0  0  2  0  0  0  0  0  0  0  0  0
  -11.4960    8.6600    0.5080 C   0  0  0  0  0  0  0  0  0  0  0  0
  -14.4579    5.2115    1.5361 H   0  0  0  0  0  0  0  0  0  0  0  0
  -15.3564    5.3742   -0.0108 H   0  0  0  0  0  0  0  0  0  0  0  0
  -13.6755    4.7408   -0.0108 H   0  0  0  0  0  0  0  0  0  0  0  0
  -13.3860    7.1728    1.2649 H   0  0  0  0  0  0  0  0  0  0  0  0
  -15.2361    7.7602   -1.0729 H   0  0  0  0  0  0  0  0  0  0  0  0
  -15.7814    7.6721    0.6703 H   0  0  0  0  0  0  0  0  0  0  0  0
  -14.7830    9.6250    1.2418 H   0  0  0  0  0  0  0  0  0  0  0  0
  -13.4676    9.4351    0.0084 H   0  0  0  0  0  0  0  0  0  0  0  0
  -16.0238   10.4905    0.0436 H   0  0  0  0  0  0  0  0  0  0  0  0
  -12.6165   11.1361   -0.8924 H   0  0  0  0  0  0  0  0  0  0  0  0
  -12.7678   10.2386   -2.4410 H   0  0  0  0  0  0  0  0  0  0  0  0
  -12.7606   12.0349   -2.4410 H   0  0  0  0  0  0  0  0  0  0  0  0
  -15.6428   12.9572   -1.4183 H   0  0  0  0  0  0  0  0  0  0  0  0
  -14.5963   12.9527   -2.8783 H   0  0  0  0  0  0  0  0  0  0  0  0
  -16.1419   12.0374   -2.8783 H   0  0  0  0  0  0  0  0  0  0  0  0
  -12.7463    5.8415   -1.0565 H   0  0  0  0  0  0  0  0  0  0  0  0
  -13.6224    7.3123   -2.7639 H   0  0  0  0  0  0  0  0  0  0  0  0
  -13.8364    8.6480   -1.6120 H   0  0  0  0  0  0  0  0  0  0  0  0
  -11.7441    8.4425   -3.5468 H   0  0  0  0  0  0  0  0  0  0  0  0
  -11.7230    9.5589   -2.1841 H   0  0  0  0  0  0  0  0  0  0  0  0
  -10.5126    5.4723   -2.0653 H   0  0  0  0  0  0  0  0  0  0  0  0
  -11.4858    6.2907   -3.3341 H   0  0  0  0  0  0  0  0  0  0  0  0
   -9.6964    6.4473   -3.3341 H   0  0  0  0  0  0  0  0  0  0  0  0
   -9.5865    9.2606   -1.0834 H   0  0  0  0  0  0  0  0  0  0  0  0
   -9.3896    9.0048   -3.6410 H   0  0  0  0  0  0  0  0  0  0  0  0
   -7.9755    9.6164   -2.6329 H   0  0  0  0  0  0  0  0  0  0  0  0
   -7.3878    7.9032   -4.5462 H   0  0  0  0  0  0  0  0  0  0  0  0
   -8.2702    5.5593   -1.3806 H   0  0  0  0  0  0  0  0  0  0  0  0
   -5.5514    6.8225   -0.6628 H   0  0  0  0  0  0  0  0  0  0  0  0
   -6.5188    5.6639    0.3528 H   0  0  0  0  0  0  0  0  0  0  0  0
   -4.6259    4.5522   -0.7894 H   0  0  0  0  0  0  0  0  0  0  0  0
   -6.2361    3.9201   -1.3130 H   0  0  0  0  0  0  0  0  0  0  0  0
   -4.8390    4.1687   -3.2484 H   0  0  0  0  0  0  0  0  0  0  0  0
   -4.1910    6.5330   -1.9360 H   0  0  0  0  0  0  0  0  0  0  0  0
   -7.7004    3.9257   -2.8745 H   0  0  0  0  0  0  0  0  0  0  0  0
   -8.2719    4.6539   -4.4139 H   0  0  0  0  0  0  0  0  0  0  0  0
   -6.8539    3.5511   -4.4139 H   0  0  0  0  0  0  0  0  0  0  0  0
   -5.1016    6.6648   -4.9252 H   0  0  0  0  0  0  0  0  0  0  0  0
   -5.6056    5.0714   -5.5837 H   0  0  0  0  0  0  0  0  0  0  0  0
   -6.7588    6.4487   -5.5837 H   0  0  0  0  0  0  0  0  0  0  0  0
   -7.3324    8.5780    1.0077 H   0  0  0  0  0  0  0  0  0  0  0  0
   -6.3026    8.3525   -0.4468 H   0  0  0  0  0  0  0  0  0  0  0  0
   -7.5966    9.5984   -0.4468 H   0  0  0  0  0  0  0  0  0  0  0  0
   -8.4397    6.1174    0.9939 H   0  0  0  0  0  0  0  0  0  0  0  0
   -9.1977    7.7806    1.3000 H   0  0  0  0  0  0  0  0  0  0  0  0
  -10.4068    5.4474   -0.2102 H   0  0  0  0  0  0  0  0  0  0  0  0
  -10.9432    6.1795    1.3527 H   0  0  0  0  0  0  0  0  0  0  0  0
  -11.4628    8.3712    1.5689 H   0  0  0  0  0  0  0  0  0  0  0  0
  -10.6720    9.3557    0.2914 H   0  0  0  0  0  0  0  0  0  0  0  0
  -12.4565    9.1505    0.2914 H   0  0  0  0  0  0  0  0  0  0  0  0
  1  2  1  0
  2  3  1  0
  3  4  1  0
  4  5  1  0
  5  6  1  0
  6  7  1  0
  7  8  1  0
  7  9  1  0
  2 10  1  0
 10 11  1  0
 11 12  1  0
 12 13  1  0
 13 14  1  6
 13 15  1  0
 15 16  1  0
 16 17  1  0
 17 18  2  0
 18 19  1  0
 19 20  1  0
 20 21  1  0
 21 22  1  0
 22 23  1  0
 22 24  1  0
 24 25  1  0
 24 26  1  0
 19 27  1  0
 27 28  1  1
 27 29  1  0
 29 30  1  0
 30 31  1  0
 31 32  1  1
  7  5  1  0
 31 10  1  0
 31 13  1  0
 27 15  1  0
 24 18  1  0
  1 33  1  0
  1 34  1  0
  1 35  1  0
  2 36  1  1
  3 37  1  0
  3 38  1  0
  4 39  1  0
  4 40  1  0
  5 41  1  1
  8 42  1  0
  8 43  1  0
  8 44  1  0
  9 45  1  0
  9 46  1  0
  9 47  1  0
 10 48  1  6
 11 49  1  0
 11 50  1  0
 12 51  1  0
 12 52  1  0
 14 53  1  0
 14 54  1  0
 14 55  1  0
 15 56  1  1
 16 57  1  0
 16 58  1  0
 17 59  1  0
 19 60  1  6
 20 61  1  0
 20 62  1  0
 21 63  1  0
 21 64  1  0
 22 65  1  6
 23 66  1  0
 25 67  1  0
 25 68  1  0
 25 69  1  0
 26 70  1  0
 26 71  1  0
 26 72  1  0
 28 73  1  0
 28 74  1  0
 28 75  1  0
 29 76  1  0
 29 77  1  0
 30 78  1  0
 30 79  1  0
 32 80  1  0
 32 81  1  0
 32 82  1  0
M  END
>  <meeko>  (9) 
{"is_sidechain": [false], "intermolecular_energy": 2.731, "internal_energy": -0.839}

$$$$
EPH_relaxed_0001_pdb2pqr_Repair_259_r2_0001_out
     RDKit          3D

 82 86  0  0  0  0  0  0  0  0999 V2000
    0.2970   16.0370   -8.3670 C   0  0  0  0  0  0  0  0  0  0  0  0
    1.5350   16.1270   -7.4710 C   0  0  2  0  0  0  0  0  0  0  0  0
    2.6860   15.2350   -7.9780 C   0  0  0  0  0  0  0  0  0  0  0  0
    2.3830   14.5350   -9.3050 C   0  0  0  0  0  0  0  0  0  0  0  0
    2.8580   15.3390  -10.4770 C   0  0  2  0  0  0  0  0  0  0  0  0
    1.9740   16.3930  -10.8790 O   0  0  0  0  0  0  0  0  0  0  0  0
    2.1710   15.3340  -11.8300 C   0  0  0  0  0  0  0  0  0  0  0  0
    0.9490   14.5070  -12.0810 C   0  0  0  0  0  0  0  0  0  0  0  0
    2.9580   15.7440  -13.0350 C   0  0  0  0  0  0  0  0  0  0  0  0
    1.1710   15.7440   -6.0410 C   0  0  1  0  0  0  0  0  0  0  0  0
   -0.1950   16.3310   -5.5950 C   0  0  0  0  0  0  0  0  0  0  0  0
   -0.8490   15.2820   -4.6590 C   0  0  0  0  0  0  0  0  0  0  0  0
    0.2900   14.2870   -4.3330 C   0  0  1  0  0  0  0  0  0  0  0  0
    1.1100   14.9750   -3.1970 C   0  0  0  0  0  0  0  0  0  0  0  0
   -0.1490   12.8410   -3.9330 C   0  0  2  0  0  0  0  0  0  0  0  0
   -0.9910   12.7460   -2.6490 C   0  0  0  0  0  0  0  0  0  0  0  0
   -0.2120   12.5560   -1.3890 C   0  0  0  0  0  0  0  0  0  0  0  0
    1.0780   12.1810   -1.3160 C   0  0  0  0  0  0  0  0  0  0  0  0
    1.8640   11.8110   -2.5810 C   0  0  1  0  0  0  0  0  0  0  0  0
    2.6460   10.4940   -2.3370 C   0  0  0  0  0  0  0  0  0  0  0  0
    3.5340   10.5610   -1.0980 C   0  0  0  0  0  0  0  0  0  0  0  0
    2.7090   10.8740    0.1470 C   0  0  2  0  0  0  0  0  0  0  0  0
    1.8420    9.7670    0.4160 O   0  0  0  0  0  0  0  0  0  0  0  0
    1.8690   12.1750    0.0150 C   0  0  0  0  0  0  0  0  0  0  0  0
    2.8100   13.4050    0.0270 C   0  0  0  0  0  0  0  0  0  0  0  0
    0.9780   12.2980    1.2810 C   0  0  0  0  0  0  0  0  0  0  0  0
    1.0280   11.7830   -3.9320 C   0  0  1  0  0  0  0  0  0  0  0  0
    0.3680   10.3830   -4.1220 C   0  0  0  0  0  0  0  0  0  0  0  0
    2.0090   11.9790   -5.1480 C   0  0  0  0  0  0  0  0  0  0  0  0
    2.3100   13.4300   -5.5710 C   0  0  0  0  0  0  0  0  0  0  0  0
    1.0170   14.2350   -5.7260 C   0  0  2  0  0  0  0  0  0  0  0  0
    0.1800   13.5790   -6.8780 C   0  0  0  0  0  0  0  0  0  0  0  0
   -0.6049   15.9714   -7.7407 H   0  0  0  0  0  0  0  0  0  0  0  0
    0.2381   16.9332   -9.0021 H   0  0  0  0  0  0  0  0  0  0  0  0
    0.3683   15.1417   -9.0021 H   0  0  0  0  0  0  0  0  0  0  0  0
    1.8878   17.1685   -7.4990 H   0  0  0  0  0  0  0  0  0  0  0  0
    3.5788   15.8633   -8.1127 H   0  0  0  0  0  0  0  0  0  0  0  0
    2.8372   14.4467   -7.2258 H   0  0  0  0  0  0  0  0  0  0  0  0
    2.8871   13.5574   -9.3156 H   0  0  0  0  0  0  0  0  0  0  0  0
    1.2926   14.4172   -9.3894 H   0  0  0  0  0  0  0  0  0  0  0  0
    3.9073   15.1910  -10.1818 H   0  0  0  0  0  0  0  0  0  0  0  0
    0.5056   14.2069  -11.1201 H   0  0  0  0  0  0  0  0  0  0  0  0
    0.2183   15.0970  -12.6537 H   0  0  0  0  0  0  0  0  0  0  0  0
    1.2250   13.6093  -12.6537 H   0  0  0  0  0  0  0  0  0  0  0  0
    3.8914   16.2303  -12.7153 H   0  0  0  0  0  0  0  0  0  0  0  0
    3.1955   14.8550  -13.6377 H   0  0  0  0  0  0  0  0  0  0  0  0
    2.3656   16.4481  -13.6377 H   0  0  0  0  0  0  0  0  0  0  0  0
    2.0457   16.1510   -5.5127 H   0  0  0  0  0  0  0  0  0  0  0  0
   -0.0425   17.2773   -5.0553 H   0  0  0  0  0  0  0  0  0  0  0  0
   -0.8372   16.5402   -6.4632 H   0  0  0  0  0  0  0  0  0  0  0  0
   -1.2222   15.7596   -3.7410 H   0  0  0  0  0  0  0  0  0  0  0  0
   -1.7140   14.7880   -5.1255 H   0  0  0  0  0  0  0  0  0  0  0  0
    0.7244   14.6515   -2.2189 H   0  0  0  0  0  0  0  0  0  0  0  0
    2.1690   14.6912   -3.2857 H   0  0  0  0  0  0  0  0  0  0  0  0
    1.0145   16.0672   -3.2857 H   0  0  0  0  0  0  0  0  0  0  0  0
   -0.8259   12.5647   -4.7549 H   0  0  0  0  0  0  0  0  0  0  0  0
   -1.5712   13.6756   -2.5532 H   0  0  0  0  0  0  0  0  0  0  0  0
   -1.6153   11.8471   -2.7598 H   0  0  0  0  0  0  0  0  0  0  0  0
   -0.7376   12.7381   -0.4400 H   0  0  0  0  0  0  0  0  0  0  0  0
    2.5693   12.6371   -2.7545 H   0  0  0  0  0  0  0  0  0  0  0  0
    1.9241    9.6739   -2.2094 H   0  0  0  0  0  0  0  0  0  0  0  0
    3.2987   10.3276   -3.2066 H   0  0  0  0  0  0  0  0  0  0  0  0
    4.0369    9.5921   -0.9626 H   0  0  0  0  0  0  0  0  0  0  0  0
    4.2746   11.3619   -1.2393 H   0  0  0  0  0  0  0  0  0  0  0  0
    3.4131   11.0383    0.9760 H   0  0  0  0  0  0  0  0  0  0  0  0
    1.2740    9.6430   -0.3630 H   0  0  0  0  0  0  0  0  0  0  0  0
    3.0279   13.6898    1.0669 H   0  0  0  0  0  0  0  0  0  0  0  0
    3.7486   13.1537   -0.4887 H   0  0  0  0  0  0  0  0  0  0  0  0
    2.3219   14.2451   -0.4887 H   0  0  0  0  0  0  0  0  0  0  0  0
    1.6051   12.2114    2.1806 H   0  0  0  0  0  0  0  0  0  0  0  0
    0.4717   13.2746    1.2796 H   0  0  0  0  0  0  0  0  0  0  0  0
    0.2261   11.4951    1.2796 H   0  0  0  0  0  0  0  0  0  0  0  0
    0.1589    9.9395   -3.1373 H   0  0  0  0  0  0  0  0  0  0  0  0
   -0.5726   10.4939   -4.6814 H   0  0  0  0  0  0  0  0  0  0  0  0
    1.0521    9.7280   -4.6814 H   0  0  0  0  0  0  0  0  0  0  0  0
    2.9654   11.5041   -4.8839 H   0  0  0  0  0  0  0  0  0  0  0  0
    1.4933   11.5292   -6.0093 H   0  0  0  0  0  0  0  0  0  0  0  0
    2.9399   13.9050   -4.8044 H   0  0  0  0  0  0  0  0  0  0  0  0
    2.8303   13.4121   -6.5400 H   0  0  0  0  0  0  0  0  0  0  0  0
   -0.6155   12.9555   -6.4440 H   0  0  0  0  0  0  0  0  0  0  0  0
   -0.2699   14.3675   -7.4992 H   0  0  0  0  0  0  0  0  0  0  0  0
    0.8382   12.9537   -7.4992 H   0  0  0  0  0  0  0  0  0  0  0  0
  1  2  1  0
  2  3  1  0
  3  4  1  0
  4  5  1  0
  5  6  1  0
  6  7  1  0
  7  8  1  0
  7  9  1  0
  2 10  1  0
 10 11  1  0
 11 12  1  0
 12 13  1  0
 13 14  1  1
 13 15  1  0
 15 16  1  0
 16 17  1  0
 17 18  2  0
 18 19  1  0
 19 20  1  0
 20 21  1  0
 21 22  1  0
 22 23  1  0
 22 24  1  0
 24 25  1  0
 24 26  1  0
 19 27  1  0
 27 28  1  6
 27 29  1  0
 29 30  1  0
 30 31  1  0
 31 32  1  6
  7  5  1  0
 31 10  1  0
 31 13  1  0
 27 15  1  0
 24 18  1  0
  1 33  1  0
  1 34  1  0
  1 35  1  0
  2 36  1  1
  3 37  1  0
  3 38  1  0
  4 39  1  0
  4 40  1  0
  5 41  1  6
  8 42  1  0
  8 43  1  0
  8 44  1  0
  9 45  1  0
  9 46  1  0
  9 47  1  0
 10 48  1  1
 11 49  1  0
 11 50  1  0
 12 51  1  0
 12 52  1  0
 14 53  1  0
 14 54  1  0
 14 55  1  0
 15 56  1  6
 16 57  1  0
 16 58  1  0
 17 59  1  0
 19 60  1  6
 20 61  1  0
 20 62  1  0
 21 63  1  0
 21 64  1  0
 22 65  1  1
 23 66  1  0
 25 67  1  0
 25 68  1  0
 25 69  1  0
 26 70  1  0
 26 71  1  0
 26 72  1  0
 28 73  1  0
 28 74  1  0
 28 75  1  0
 29 76  1  0
 29 77  1  0
 30 78  1  0
 30 79  1  0
 32 80  1  0
 32 81  1  0
 32 82  1  0
M  END
>  <meeko>  (10) 
{"is_sidechain": [false], "intermolecular_energy": 2.731, "internal_energy": -0.839}

$$$$
EPH_relaxed_0001_pdb2pqr_Repair_259_r2_0001_out
     RDKit          3D

 82 86  0  0  0  0  0  0  0  0999 V2000
   -2.3900    7.6000   -0.1470 C   0  0  0  0  0  0  0  0  0  0  0  0
   -2.9960    9.0050   -0.0810 C   0  0  2  0  0  0  0  0  0  0  0  0
   -4.4980    9.0060   -0.4280 C   0  0  0  0  0  0  0  0  0  0  0  0
   -5.1090    7.6050   -0.5210 C   0  0  0  0  0  0  0  0  0  0  0  0
   -5.8600    7.4110   -1.8040 C   0  0  2  0  0  0  0  0  0  0  0  0
   -6.7530    8.4800   -2.1420 O   0  0  0  0  0  0  0  0  0  0  0  0
   -7.3620    7.2070   -1.8720 C   0  0  0  0  0  0  0  0  0  0  0  0
   -8.2030    7.1860   -0.6340 C   0  0  0  0  0  0  0  0  0  0  0  0
   -7.9400    6.5460   -3.0840 C   0  0  0  0  0  0  0  0  0  0  0  0
   -2.2430    9.9410   -1.0190 C   0  0  1  0  0  0  0  0  0  0  0  0
   -2.9020   11.3420   -1.1200 C   0  0  0  0  0  0  0  0  0  0  0  0
   -1.7510   12.3680   -1.2820 C   0  0  0  0  0  0  0  0  0  0  0  0
   -0.5050   11.5080   -1.6000 C   0  0  1  0  0  0  0  0  0  0  0  0
   -0.6120   11.1970   -3.1260 C   0  0  0  0  0  0  0  0  0  0  0  0
    0.8790   12.1350   -1.2340 C   0  0  2  0  0  0  0  0  0  0  0  0
    1.2260   13.4340   -1.9830 C   0  0  0  0  0  0  0  0  0  0  0  0
    1.9650   13.2510   -3.2680 C   0  0  0  0  0  0  0  0  0  0  0  0
    2.5840   12.1220   -3.6600 C   0  0  0  0  0  0  0  0  0  0  0  0
    2.6620   10.9030   -2.7320 C   0  0  1  0  0  0  0  0  0  0  0  0
    4.1110   10.3480   -2.7280 C   0  0  0  0  0  0  0  0  0  0  0  0
    4.6250   10.0460   -4.1320 C   0  0  0  0  0  0  0  0  0  0  0  0
    4.5860   11.2950   -5.0080 C   0  0  2  0  0  0  0  0  0  0  0  0
    5.5310   12.2430   -4.5020 O   0  0  0  0  0  0  0  0  0  0  0  0
    3.1770   11.9490   -5.0800 C   0  0  0  0  0  0  0  0  0  0  0  0
    2.2240   11.0430   -5.8980 C   0  0  0  0  0  0  0  0  0  0  0  0
    3.3070   13.2750   -5.8770 C   0  0  0  0  0  0  0  0  0  0  0  0
    2.0840   11.1100   -1.2660 C   0  0  1  0  0  0  0  0  0  0  0  0
    3.1910   11.6950   -0.3350 C   0  0  0  0  0  0  0  0  0  0  0  0
    1.6930    9.7080   -0.6650 C   0  0  0  0  0  0  0  0  0  0  0  0
    0.2710    9.1970   -0.9620 C   0  0  0  0  0  0  0  0  0  0  0  0
   -0.7740   10.2760   -0.6610 C   0  0  2  0  0  0  0  0  0  0  0  0
   -0.7060   10.5930    0.8720 C   0  0  0  0  0  0  0  0  0  0  0  0
   -2.2272    7.2226    0.8733 H   0  0  0  0  0  0  0  0  0  0  0  0
   -3.0785    6.9284   -0.6809 H   0  0  0  0  0  0  0  0  0  0  0  0
   -1.4291    7.6399   -0.6809 H   0  0  0  0  0  0  0  0  0  0  0  0
   -2.8968    9.3599    0.9554 H   0  0  0  0  0  0  0  0  0  0  0  0
   -5.0341    9.5677    0.3512 H   0  0  0  0  0  0  0  0  0  0  0  0
   -4.5982    9.4671   -1.4217 H   0  0  0  0  0  0  0  0  0  0  0  0
   -4.3019    6.8597   -0.4643 H   0  0  0  0  0  0  0  0  0  0  0  0
   -5.8170    7.4839    0.3121 H   0  0  0  0  0  0  0  0  0  0  0  0
   -5.0191    6.8508   -2.2389 H   0  0  0  0  0  0  0  0  0  0  0  0
   -7.5515    7.2023    0.2522 H   0  0  0  0  0  0  0  0  0  0  0  0
   -8.8602    8.0680   -0.6222 H   0  0  0  0  0  0  0  0  0  0  0  0
   -8.8154    6.2723   -0.6222 H   0  0  0  0  0  0  0  0  0  0  0  0
   -8.6344    5.7518   -2.7725 H   0  0  0  0  0  0  0  0  0  0  0  0
   -8.4813    7.2914   -3.6852 H   0  0  0  0  0  0  0  0  0  0  0  0
   -7.1291    6.1090   -3.6852 H   0  0  0  0  0  0  0  0  0  0  0  0
   -2.2782    9.3442   -1.9423 H   0  0  0  0  0  0  0  0  0  0  0  0
   -3.5717   11.3835   -1.9916 H   0  0  0  0  0  0  0  0  0  0  0  0
   -3.5028   11.5610   -0.2249 H   0  0  0  0  0  0  0  0  0  0  0  0
   -1.9639   13.0636   -2.1071 H   0  0  0  0  0  0  0  0  0  0  0  0
   -1.6132   12.9864   -0.3828 H   0  0  0  0  0  0  0  0  0  0  0  0
   -0.9670   10.1653   -3.2659 H   0  0  0  0  0  0  0  0  0  0  0  0
   -1.3215   11.8955   -3.5937 H   0  0  0  0  0  0  0  0  0  0  0  0
    0.3771   11.3111   -3.5937 H   0  0  0  0  0  0  0  0  0  0  0  0
    0.7351   12.4257   -0.1829 H   0  0  0  0  0  0  0  0  0  0  0  0
    0.2859   13.9608   -2.2035 H   0  0  0  0  0  0  0  0  0  0  0  0
    1.9010   13.9963   -1.3209 H   0  0  0  0  0  0  0  0  0  0  0  0
    2.0069   14.1117   -3.9518 H   0  0  0  0  0  0  0  0  0  0  0  0
    1.9762   10.1540   -3.1546 H   0  0  0  0  0  0  0  0  0  0  0  0
    4.7729   11.0933   -2.2628 H   0  0  0  0  0  0  0  0  0  0  0  0
    4.1055    9.4037   -2.1639 H   0  0  0  0  0  0  0  0  0  0  0  0
    5.6620    9.6851   -4.0657 H   0  0  0  0  0  0  0  0  0  0  0  0
    3.9789    9.2795   -4.5848 H   0  0  0  0  0  0  0  0  0  0  0  0
    4.8419   10.9874   -6.0326 H   0  0  0  0  0  0  0  0  0  0  0  0
    6.1740   12.4220   -5.2080 H   0  0  0  0  0  0  0  0  0  0  0  0
    1.6013   10.4510   -5.2111 H   0  0  0  0  0  0  0  0  0  0  0  0
    1.5780   11.6681   -6.5320 H   0  0  0  0  0  0  0  0  0  0  0  0
    2.8157   10.3663   -6.5320 H   0  0  0  0  0  0  0  0  0  0  0  0
    3.3896   14.1180   -5.1752 H   0  0  0  0  0  0  0  0  0  0  0  0
    4.2056   13.2356   -6.5102 H   0  0  0  0  0  0  0  0  0  0  0  0
    2.4179   13.4109   -6.5102 H   0  0  0  0  0  0  0  0  0  0  0  0
    2.9040   11.5433    0.7160 H   0  0  0  0  0  0  0  0  0  0  0  0
    4.1443   11.1830   -0.5323 H   0  0  0  0  0  0  0  0  0  0  0  0
    3.3051   12.7711   -0.5323 H   0  0  0  0  0  0  0  0  0  0  0  0
    2.4025    8.9666   -1.0612 H   0  0  0  0  0  0  0  0  0  0  0  0
    1.7282    9.8428    0.4261 H   0  0  0  0  0  0  0  0  0  0  0  0
    0.2037    8.9172   -2.0237 H   0  0  0  0  0  0  0  0  0  0  0  0
    0.0704    8.3262   -0.3206 H   0  0  0  0  0  0  0  0  0  0  0  0
   -0.9029    9.6751    1.4453 H   0  0  0  0  0  0  0  0  0  0  0  0
    0.2945   10.9748    1.1234 H   0  0  0  0  0  0  0  0  0  0  0  0
   -1.4618   11.3516    1.1234 H   0  0  0  0  0  0  0  0  0  0  0  0
  1  2  1  0
  2  3  1  0
  3  4  1  0
  4  5  1  0
  5  6  1  0
  6  7  1  0
  7  8  1  0
  7  9  1  0
  2 10  1  0
 10 11  1  0
 11 12  1  0
 12 13  1  0
 13 14  1  6
 13 15  1  0
 15 16  1  0
 16 17  1  0
 17 18  2  0
 18 19  1  0
 19 20  1  0
 20 21  1  0
 21 22  1  0
 22 23  1  0
 22 24  1  0
 24 25  1  0
 24 26  1  0
 19 27  1  0
 27 28  1  1
 27 29  1  0
 29 30  1  0
 30 31  1  0
 31 32  1  1
  7  5  1  0
 31 10  1  0
 31 13  1  0
 27 15  1  0
 24 18  1  0
  1 33  1  0
  1 34  1  0
  1 35  1  0
  2 36  1  1
  3 37  1  0
  3 38  1  0
  4 39  1  0
  4 40  1  0
  5 41  1  6
  8 42  1  0
  8 43  1  0
  8 44  1  0
  9 45  1  0
  9 46  1  0
  9 47  1  0
 10 48  1  6
 11 49  1  0
 11 50  1  0
 12 51  1  0
 12 52  1  0
 14 53  1  0
 14 54  1  0
 14 55  1  0
 15 56  1  1
 16 57  1  0
 16 58  1  0
 17 59  1  0
 19 60  1  6
 20 61  1  0
 20 62  1  0
 21 63  1  0
 21 64  1  0
 22 65  1  6
 23 66  1  0
 25 67  1  0
 25 68  1  0
 25 69  1  0
 26 70  1  0
 26 71  1  0
 26 72  1  0
 28 73  1  0
 28 74  1  0
 28 75  1  0
 29 76  1  0
 29 77  1  0
 30 78  1  0
 30 79  1  0
 32 80  1  0
 32 81  1  0
 32 82  1  0
M  END
>  <meeko>  (11) 
{"is_sidechain": [false], "intermolecular_energy": 2.731, "internal_energy": -0.839}

$$$$
EPH_relaxed_0001_pdb2pqr_Repair_259_r2_0001_out
     RDKit          3D

 82 86  0  0  0  0  0  0  0  0999 V2000
    1.1580   14.6310   -2.6770 C   0  0  0  0  0  0  0  0  0  0  0  0
    1.3100   13.9690   -4.0500 C   0  0  2  0  0  0  0  0  0  0  0  0
    0.5590   14.7410   -5.1530 C   0  0  0  0  0  0  0  0  0  0  0  0
    1.1340   14.5260   -6.5550 C   0  0  0  0  0  0  0  0  0  0  0  0
    0.8830   15.7050   -7.4450 C   0  0  2  0  0  0  0  0  0  0  0  0
    0.3320   15.3800   -8.7290 O   0  0  0  0  0  0  0  0  0  0  0  0
    1.6470   15.9610   -8.7310 C   0  0  0  0  0  0  0  0  0  0  0  0
    2.7220   15.0310   -9.1980 C   0  0  0  0  0  0  0  0  0  0  0  0
    1.6880   17.3560   -9.2730 C   0  0  0  0  0  0  0  0  0  0  0  0
    0.8110   12.5300   -3.9900 C   0  0  1  0  0  0  0  0  0  0  0  0
    1.9140   11.5000   -4.3530 C   0  0  0  0  0  0  0  0  0  0  0  0
    1.6640   10.2480   -3.4730 C   0  0  0  0  0  0  0  0  0  0  0  0
    0.2510   10.4620   -2.8830 C   0  0  1  0  0  0  0  0  0  0  0  0
   -0.7280   10.0170   -4.0150 C   0  0  0  0  0  0  0  0  0  0  0  0
   -0.0540    9.7300   -1.5360 C   0  0  2  0  0  0  0  0  0  0  0  0
    0.0020    8.1930   -1.6010 C   0  0  0  0  0  0  0  0  0  0  0  0
   -1.2900    7.5220   -1.9330 C   0  0  0  0  0  0  0  0  0  0  0  0
   -2.5050    8.1000   -1.8910 C   0  0  0  0  0  0  0  0  0  0  0  0
   -2.6770    9.5370   -1.3820 C   0  0  1  0  0  0  0  0  0  0  0  0
   -3.8660    9.5960   -0.3880 C   0  0  0  0  0  0  0  0  0  0  0  0
   -5.1530    9.0290   -0.9810 C   0  0  0  0  0  0  0  0  0  0  0  0
   -4.9580    7.5810   -1.4220 C   0  0  2  0  0  0  0  0  0  0  0  0
   -4.7390    6.7720   -0.2620 O   0  0  0  0  0  0  0  0  0  0  0  0
   -3.7800    7.3960   -2.4180 C   0  0  0  0  0  0  0  0  0  0  0  0
   -4.1510    8.0220   -3.7850 C   0  0  0  0  0  0  0  0  0  0  0  0
   -3.6030    5.8740   -2.6710 C   0  0  0  0  0  0  0  0  0  0  0  0
   -1.3670   10.2300   -0.8080 C   0  0  1  0  0  0  0  0  0  0  0  0
   -1.1990    9.8830    0.7020 C   0  0  0  0  0  0  0  0  0  0  0  0
   -1.5360   11.7940   -0.8880 C   0  0  0  0  0  0  0  0  0  0  0  0
   -1.1060   12.4730   -2.2020 C   0  0  0  0  0  0  0  0  0  0  0  0
    0.2920   12.0120   -2.6250 C   0  0  2  0  0  0  0  0  0  0  0  0
    1.3020   12.4660   -1.5160 C   0  0  0  0  0  0  0  0  0  0  0  0
    1.3296   13.8835   -1.8885 H   0  0  0  0  0  0  0  0  0  0  0  0
    1.8930   15.4434   -2.5783 H   0  0  0  0  0  0  0  0  0  0  0  0
    0.1422   15.0415   -2.5783 H   0  0  0  0  0  0  0  0  0  0  0  0
    2.3793   13.9820   -4.3077 H   0  0  0  0  0  0  0  0  0  0  0  0
   -0.4906   14.4120   -5.1539 H   0  0  0  0  0  0  0  0  0  0  0  0
    0.6631   15.8118   -4.9236 H   0  0  0  0  0  0  0  0  0  0  0  0
    2.2192   14.3653   -6.4742 H   0  0  0  0  0  0  0  0  0  0  0  0
    0.6371   13.6504   -6.9983 H   0  0  0  0  0  0  0  0  0  0  0  0
    0.6660   16.3439   -6.5763 H   0  0  0  0  0  0  0  0  0  0  0  0
    3.2302   14.5913   -8.3272 H   0  0  0  0  0  0  0  0  0  0  0  0
    2.2754   14.2297   -9.8051 H   0  0  0  0  0  0  0  0  0  0  0  0
    3.4507   15.5882   -9.8051 H   0  0  0  0  0  0  0  0  0  0  0  0
    1.7091   18.0729   -8.4390 H   0  0  0  0  0  0  0  0  0  0  0  0
    2.5903   17.4836   -9.8891 H   0  0  0  0  0  0  0  0  0  0  0  0
    0.7948   17.5364   -9.8891 H   0  0  0  0  0  0  0  0  0  0  0  0
   -0.0198   12.5936   -4.7081 H   0  0  0  0  0  0  0  0  0  0  0  0
    1.8478   11.2337   -5.4182 H   0  0  0  0  0  0  0  0  0  0  0  0
    2.9167   11.9152   -4.1734 H   0  0  0  0  0  0  0  0  0  0  0  0
    1.6960    9.3326   -4.0820 H   0  0  0  0  0  0  0  0  0  0  0  0
    2.4287   10.1279   -2.6914 H   0  0  0  0  0  0  0  0  0  0  0  0
   -1.6424    9.6014   -3.5665 H   0  0  0  0  0  0  0  0  0  0  0  0
   -0.9873   10.8857   -4.6380 H   0  0  0  0  0  0  0  0  0  0  0  0
   -0.2440    9.2504   -4.6380 H   0  0  0  0  0  0  0  0  0  0  0  0
    0.7950   10.0339   -0.9060 H   0  0  0  0  0  0  0  0  0  0  0  0
    0.7383    7.9117   -2.3683 H   0  0  0  0  0  0  0  0  0  0  0  0
    0.2698    7.8548   -0.5891 H   0  0  0  0  0  0  0  0  0  0  0  0
   -1.2451    6.4660   -2.2377 H   0  0  0  0  0  0  0  0  0  0  0  0
   -2.9014   10.1486   -2.2683 H   0  0  0  0  0  0  0  0  0  0  0  0
   -3.6051    9.0150    0.5089 H   0  0  0  0  0  0  0  0  0  0  0  0
   -4.0472   10.6537   -0.1465 H   0  0  0  0  0  0  0  0  0  0  0  0
   -5.9480    9.0703   -0.2219 H   0  0  0  0  0  0  0  0  0  0  0  0
   -5.4293    9.6298   -1.8600 H   0  0  0  0  0  0  0  0  0  0  0  0
   -5.8695    7.2734   -1.9554 H   0  0  0  0  0  0  0  0  0  0  0  0
   -5.5570    6.7850    0.2650 H   0  0  0  0  0  0  0  0  0  0  0  0
   -4.7056    8.9578   -3.6213 H   0  0  0  0  0  0  0  0  0  0  0  0
   -3.2328    8.2344   -4.3523 H   0  0  0  0  0  0  0  0  0  0  0  0
   -4.7781    7.3185   -4.3523 H   0  0  0  0  0  0  0  0  0  0  0  0
   -3.5417    5.3468   -1.7075 H   0  0  0  0  0  0  0  0  0  0  0  0
   -4.4631    5.4948   -3.2424 H   0  0  0  0  0  0  0  0  0  0  0  0
   -2.6788    5.7023   -3.2424 H   0  0  0  0  0  0  0  0  0  0  0  0
   -1.5974   10.7058    1.3138 H   0  0  0  0  0  0  0  0  0  0  0  0
   -1.7489    8.9578    0.9290 H   0  0  0  0  0  0  0  0  0  0  0  0
   -0.1321    9.7405    0.9290 H   0  0  0  0  0  0  0  0  0  0  0  0
   -2.6001   12.0223   -0.7283 H   0  0  0  0  0  0  0  0  0  0  0  0
   -0.8579   12.1963   -0.1210 H   0  0  0  0  0  0  0  0  0  0  0  0
   -1.8251   12.2139   -2.9931 H   0  0  0  0  0  0  0  0  0  0  0  0
   -1.0836   13.5613   -2.0436 H   0  0  0  0  0  0  0  0  0  0  0  0
    0.8689   12.2713   -0.5238 H   0  0  0  0  0  0  0  0  0  0  0  0
    2.2412   11.9035   -1.6229 H   0  0  0  0  0  0  0  0  0  0  0  0
    1.5048   13.5419   -1.6229 H   0  0  0  0  0  0  0  0  0  0  0  0
  1  2  1  0
  2  3  1  0
  3  4  1  0
  4  5  1  0
  5  6  1  0
  6  7  1  0
  7  8  1  0
  7  9  1  0
  2 10  1  0
 10 11  1  0
 11 12  1  0
 12 13  1  0
 13 14  1  6
 13 15  1  0
 15 16  1  0
 16 17  1  0
 17 18  2  0
 18 19  1  0
 19 20  1  0
 20 21  1  0
 21 22  1  0
 22 23  1  0
 22 24  1  0
 24 25  1  0
 24 26  1  0
 19 27  1  0
 27 28  1  1
 27 29  1  0
 29 30  1  0
 30 31  1  0
 31 32  1  1
  7  5  1  0
 31 10  1  0
 31 13  1  0
 27 15  1  0
 24 18  1  0
  1 33  1  0
  1 34  1  0
  1 35  1  0
  2 36  1  6
  3 37  1  0
  3 38  1  0
  4 39  1  0
  4 40  1  0
  5 41  1  1
  8 42  1  0
  8 43  1  0
  8 44  1  0
  9 45  1  0
  9 46  1  0
  9 47  1  0
 10 48  1  6
 11 49  1  0
 11 50  1  0
 12 51  1  0
 12 52  1  0
 14 53  1  0
 14 54  1  0
 14 55  1  0
 15 56  1  1
 16 57  1  0
 16 58  1  0
 17 59  1  0
 19 60  1  6
 20 61  1  0
 20 62  1  0
 21 63  1  0
 21 64  1  0
 22 65  1  6
 23 66  1  0
 25 67  1  0
 25 68  1  0
 25 69  1  0
 26 70  1  0
 26 71  1  0
 26 72  1  0
 28 73  1  0
 28 74  1  0
 28 75  1  0
 29 76  1  0
 29 77  1  0
 30 78  1  0
 30 79  1  0
 32 80  1  0
 32 81  1  0
 32 82  1  0
M  END
>  <meeko>  (12) 
{"is_sidechain": [false], "intermolecular_energy": 2.731, "internal_energy": -0.839}

$$$$
EPH_relaxed_0001_pdb2pqr_Repair_259_r2_0001_out
     RDKit          3D

 82 86  0  0  0  0  0  0  0  0999 V2000
   -6.1380    7.9850   -3.0000 C   0  0  0  0  0  0  0  0  0  0  0  0
   -5.3610    7.7270   -1.7060 C   0  0  2  0  0  0  0  0  0  0  0  0
   -6.2960    7.4690   -0.5080 C   0  0  0  0  0  0  0  0  0  0  0  0
   -7.5980    6.7560   -0.8860 C   0  0  0  0  0  0  0  0  0  0  0  0
   -8.7090    7.0920    0.0600 C   0  0  2  0  0  0  0  0  0  0  0  0
   -9.7990    6.1600    0.0610 O   0  0  0  0  0  0  0  0  0  0  0  0
  -10.1020    7.4890   -0.3920 C   0  0  0  0  0  0  0  0  0  0  0  0
  -10.4570    7.5720   -1.8430 C   0  0  0  0  0  0  0  0  0  0  0  0
  -10.9670    8.2650    0.5520 C   0  0  0  0  0  0  0  0  0  0  0  0
   -4.4440    8.9070   -1.4060 C   0  0  1  0  0  0  0  0  0  0  0  0
   -4.8790    9.6950   -0.1420 C   0  0  0  0  0  0  0  0  0  0  0  0
   -3.5810   10.1880    0.5470 C   0  0  0  0  0  0  0  0  0  0  0  0
   -2.4700    9.9580   -0.5040 C   0  0  1  0  0  0  0  0  0  0  0  0
   -2.5720   11.1810   -1.4690 C   0  0  0  0  0  0  0  0  0  0  0  0
   -1.0190    9.7800    0.0510 C   0  0  2  0  0  0  0  0  0  0  0  0
   -0.4550   10.9970    0.8050 C   0  0  0  0  0  0  0  0  0  0  0  0
    0.2890   11.9800   -0.0370 C   0  0  0  0  0  0  0  0  0  0  0  0
    0.7430   11.7560   -1.2840 C   0  0  0  0  0  0  0  0  0  0  0  0
    0.6050   10.3740   -1.9370 C   0  0  1  0  0  0  0  0  0  0  0  0
    1.9520    9.9770   -2.5960 C   0  0  0  0  0  0  0  0  0  0  0  0
    2.4600   11.0340   -3.5710 C   0  0  0  0  0  0  0  0  0  0  0  0
    2.6400   12.3790   -2.8720 C   0  0  2  0  0  0  0  0  0  0  0  0
    3.7000   12.2650   -1.9180 O   0  0  0  0  0  0  0  0  0  0  0  0
    1.3500   12.8780   -2.1620 C   0  0  0  0  0  0  0  0  0  0  0  0
    0.2980   13.2880   -3.2220 C   0  0  0  0  0  0  0  0  0  0  0  0
    1.7050   14.1710   -1.3800 C   0  0  0  0  0  0  0  0  0  0  0  0
    0.0170    9.2250   -1.0090 C   0  0  1  0  0  0  0  0  0  0  0  0
    1.1670    8.5550   -0.1980 C   0  0  0  0  0  0  0  0  0  0  0  0
   -0.6020    8.0980   -1.9170 C   0  0  0  0  0  0  0  0  0  0  0  0
   -2.0750    8.2720   -2.3340 C   0  0  0  0  0  0  0  0  0  0  0  0
   -2.9530    8.5960   -1.1220 C   0  0  2  0  0  0  0  0  0  0  0  0
   -2.8890    7.3730   -0.1440 C   0  0  0  0  0  0  0  0  0  0  0  0
   -7.1558    8.3230   -2.7554 H   0  0  0  0  0  0  0  0  0  0  0  0
   -5.6252    8.7611   -3.5871 H   0  0  0  0  0  0  0  0  0  0  0  0
   -6.1912    7.0563   -3.5871 H   0  0  0  0  0  0  0  0  0  0  0  0
   -4.7602    6.8180   -1.8572 H   0  0  0  0  0  0  0  0  0  0  0  0
   -5.7594    6.8474    0.2239 H   0  0  0  0  0  0  0  0  0  0  0  0
   -6.5743    8.4518   -0.0997 H   0  0  0  0  0  0  0  0  0  0  0  0
   -7.8899    7.0618   -1.9015 H   0  0  0  0  0  0  0  0  0  0  0  0
   -7.4217    5.6714   -0.8360 H   0  0  0  0  0  0  0  0  0  0  0  0
   -8.0009    7.5554    0.7627 H   0  0  0  0  0  0  0  0  0  0  0  0
  -11.5234    7.8213   -1.9459 H   0  0  0  0  0  0  0  0  0  0  0  0
   -9.8498    8.3524   -2.3250 H   0  0  0  0  0  0  0  0  0  0  0  0
  -10.2588    6.6033   -2.3250 H   0  0  0  0  0  0  0  0  0  0  0  0
  -10.6921    8.0184    1.5882 H   0  0  0  0  0  0  0  0  0  0  0  0
  -10.8225    9.3419    0.3807 H   0  0  0  0  0  0  0  0  0  0  0  0
  -12.0220    8.0048    0.3807 H   0  0  0  0  0  0  0  0  0  0  0  0
   -4.5390    9.4590   -2.3527 H   0  0  0  0  0  0  0  0  0  0  0  0
   -5.5055   10.5529   -0.4275 H   0  0  0  0  0  0  0  0  0  0  0  0
   -5.4688    9.0600    0.5355 H   0  0  0  0  0  0  0  0  0  0  0  0
   -3.6584   11.2550    0.8031 H   0  0  0  0  0  0  0  0  0  0  0  0
   -3.3808    9.6562    1.4889 H   0  0  0  0  0  0  0  0  0  0  0  0
   -2.6492   12.1071   -0.8804 H   0  0  0  0  0  0  0  0  0  0  0  0
   -1.6743   11.2235   -2.1033 H   0  0  0  0  0  0  0  0  0  0  0  0
   -3.4644   11.0742   -2.1033 H   0  0  0  0  0  0  0  0  0  0  0  0
   -1.1512    8.9942    0.8093 H   0  0  0  0  0  0  0  0  0  0  0  0
   -1.2968   11.5235    1.2785 H   0  0  0  0  0  0  0  0  0  0  0  0
    0.2755   10.5978    1.5241 H   0  0  0  0  0  0  0  0  0  0  0  0
    0.4825   12.9713    0.3987 H   0  0  0  0  0  0  0  0  0  0  0  0
   -0.1720   10.4773   -2.7088 H   0  0  0  0  0  0  0  0  0  0  0  0
    2.7036    9.8365   -1.8052 H   0  0  0  0  0  0  0  0  0  0  0  0
    1.7851    9.0506   -3.1651 H   0  0  0  0  0  0  0  0  0  0  0  0
    3.4274   10.7095   -3.9819 H   0  0  0  0  0  0  0  0  0  0  0  0
    1.7205   11.1530   -4.3766 H   0  0  0  0  0  0  0  0  0  0  0  0
    2.8803   13.1229   -3.6458 H   0  0  0  0  0  0  0  0  0  0  0  0
    3.7740   11.3280   -1.6710 H   0  0  0  0  0  0  0  0  0  0  0  0
   -0.6125   13.6428   -2.7169 H   0  0  0  0  0  0  0  0  0  0  0  0
    0.7058   14.0930   -3.8510 H   0  0  0  0  0  0  0  0  0  0  0  0
    0.0535   12.4194   -3.8510 H   0  0  0  0  0  0  0  0  0  0  0  0
    1.6505   13.9726   -0.2994 H   0  0  0  0  0  0  0  0  0  0  0  0
    2.7241   14.4906   -1.6432 H   0  0  0  0  0  0  0  0  0  0  0  0
    0.9919   14.9661   -1.6432 H   0  0  0  0  0  0  0  0  0  0  0  0
    0.9713    8.6690    0.8784 H   0  0  0  0  0  0  0  0  0  0  0  0
    1.2186    7.4855   -0.4500 H   0  0  0  0  0  0  0  0  0  0  0  0
    2.1228    9.0376   -0.4500 H   0  0  0  0  0  0  0  0  0  0  0  0
   -0.0003    8.0434   -2.8362 H   0  0  0  0  0  0  0  0  0  0  0  0
   -0.5836    7.1882   -1.2989 H   0  0  0  0  0  0  0  0  0  0  0  0
   -2.1484    9.0938   -3.0615 H   0  0  0  0  0  0  0  0  0  0  0  0
   -2.4268    7.3302   -2.7803 H   0  0  0  0  0  0  0  0  0  0  0  0
   -2.9078    7.7332    0.8952 H   0  0  0  0  0  0  0  0  0  0  0  0
   -3.7540    6.7168   -0.3204 H   0  0  0  0  0  0  0  0  0  0  0  0
   -1.9602    6.8107   -0.3204 H   0  0  0  0  0  0  0  0  0  0  0  0
  1  2  1  0
  2  3  1  0
  3  4  1  0
  4  5  1  0
  5  6  1  0
  6  7  1  0
  7  8  1  0
  7  9  1  0
  2 10  1  0
 10 11  1  0
 11 12  1  0
 12 13  1  0
 13 14  1  6
 13 15  1  0
 15 16  1  0
 16 17  1  0
 17 18  2  0
 18 19  1  0
 19 20  1  0
 20 21  1  0
 21 22  1  0
 22 23  1  0
 22 24  1  0
 24 25  1  0
 24 26  1  0
 19 27  1  0
 27 28  1  1
 27 29  1  0
 29 30  1  0
 30 31  1  0
 31 32  1  1
  7  5  1  0
 31 10  1  0
 31 13  1  0
 27 15  1  0
 24 18  1  0
  1 33  1  0
  1 34  1  0
  1 35  1  0
  2 36  1  6
  3 37  1  0
  3 38  1  0
  4 39  1  0
  4 40  1  0
  5 41  1  1
  8 42  1  0
  8 43  1  0
  8 44  1  0
  9 45  1  0
  9 46  1  0
  9 47  1  0
 10 48  1  6
 11 49  1  0
 11 50  1  0
 12 51  1  0
 12 52  1  0
 14 53  1  0
 14 54  1  0
 14 55  1  0
 15 56  1  1
 16 57  1  0
 16 58  1  0
 17 59  1  0
 19 60  1  6
 20 61  1  0
 20 62  1  0
 21 63  1  0
 21 64  1  0
 22 65  1  6
 23 66  1  0
 25 67  1  0
 25 68  1  0
 25 69  1  0
 26 70  1  0
 26 71  1  0
 26 72  1  0
 28 73  1  0
 28 74  1  0
 28 75  1  0
 29 76  1  0
 29 77  1  0
 30 78  1  0
 30 79  1  0
 32 80  1  0
 32 81  1  0
 32 82  1  0
M  END
>  <meeko>  (13) 
{"is_sidechain": [false], "intermolecular_energy": 2.731, "internal_energy": -0.839}

$$$$
EPH_relaxed_0001_pdb2pqr_Repair_259_r2_0001_out
     RDKit          3D

 82 86  0  0  0  0  0  0  0  0999 V2000
  -15.1900    8.8730    0.6160 C   0  0  0  0  0  0  0  0  0  0  0  0
  -14.3000    9.1330   -0.6030 C   0  0  2  0  0  0  0  0  0  0  0  0
  -14.6320    8.1870   -1.7760 C   0  0  0  0  0  0  0  0  0  0  0  0
  -14.6220    8.8760   -3.1430 C   0  0  0  0  0  0  0  0  0  0  0  0
  -15.2870   10.2180   -3.0930 C   0  0  2  0  0  0  0  0  0  0  0  0
  -14.9570   11.0910   -4.1800 O   0  0  0  0  0  0  0  0  0  0  0  0
  -14.5350   11.5170   -2.8750 C   0  0  0  0  0  0  0  0  0  0  0  0
  -13.0490   11.5370   -2.6920 C   0  0  0  0  0  0  0  0  0  0  0  0
  -15.2870   12.7020   -2.3550 C   0  0  0  0  0  0  0  0  0  0  0  0
  -12.8330    8.9880   -0.2160 C   0  0  1  0  0  0  0  0  0  0  0  0
  -12.6220    8.9540    1.3210 C   0  0  0  0  0  0  0  0  0  0  0  0
  -11.4390    7.9880    1.5880 C   0  0  0  0  0  0  0  0  0  0  0  0
  -10.8010    7.7580    0.1990 C   0  0  1  0  0  0  0  0  0  0  0  0
   -9.8920    9.0060   -0.0360 C   0  0  0  0  0  0  0  0  0  0  0  0
  -10.0080    6.4240    0.0140 C   0  0  2  0  0  0  0  0  0  0  0  0
   -8.7780    6.2640    0.9260 C   0  0  0  0  0  0  0  0  0  0  0  0
   -7.4950    6.7770    0.3610 C   0  0  0  0  0  0  0  0  0  0  0  0
   -7.2760    7.0820   -0.9310 C   0  0  0  0  0  0  0  0  0  0  0  0
   -8.3510    6.8260   -1.9950 C   0  0  1  0  0  0  0  0  0  0  0  0
   -7.7080    6.1360   -3.2260 C   0  0  0  0  0  0  0  0  0  0  0  0
   -6.5170    6.9140   -3.7770 C   0  0  0  0  0  0  0  0  0  0  0  0
   -5.4440    7.0980   -2.7070 C   0  0  2  0  0  0  0  0  0  0  0  0
   -4.8890    5.8190   -2.3860 O   0  0  0  0  0  0  0  0  0  0  0  0
   -5.9770    7.7750   -1.4140 C   0  0  0  0  0  0  0  0  0  0  0  0
   -6.2990    9.2630   -1.7000 C   0  0  0  0  0  0  0  0  0  0  0  0
   -4.8320    7.7730   -0.3650 C   0  0  0  0  0  0  0  0  0  0  0  0
   -9.6600    6.0790   -1.4910 C   0  0  1  0  0  0  0  0  0  0  0  0
   -9.4500    4.5350   -1.5560 C   0  0  0  0  0  0  0  0  0  0  0  0
  -10.8490    6.4070   -2.4690 C   0  0  0  0  0  0  0  0  0  0  0  0
  -11.6700    7.6750   -2.1650 C   0  0  0  0  0  0  0  0  0  0  0  0
  -12.0940    7.7130   -0.6940 C   0  0  2  0  0  0  0  0  0  0  0  0
  -13.0280    6.4820   -0.4330 C   0  0  0  0  0  0  0  0  0  0  0  0
  -14.6107    9.0422    1.5357 H   0  0  0  0  0  0  0  0  0  0  0  0
  -16.0511    9.5571    0.5939 H   0  0  0  0  0  0  0  0  0  0  0  0
  -15.5474    7.8329    0.5939 H   0  0  0  0  0  0  0  0  0  0  0  0
  -14.4947   10.1611   -0.9422 H   0  0  0  0  0  0  0  0  0  0  0  0
  -13.8883    7.3766   -1.7900 H   0  0  0  0  0  0  0  0  0  0  0  0
  -15.6540    7.8154   -1.6104 H   0  0  0  0  0  0  0  0  0  0  0  0
  -13.5794    9.0068   -3.4685 H   0  0  0  0  0  0  0  0  0  0  0  0
  -15.1795    8.2435   -3.8495 H   0  0  0  0  0  0  0  0  0  0  0  0
  -16.1720    9.7866   -2.6025 H   0  0  0  0  0  0  0  0  0  0  0  0
  -12.8119   11.5402   -1.6179 H   0  0  0  0  0  0  0  0  0  0  0  0
  -12.6097   10.6447   -3.1618 H   0  0  0  0  0  0  0  0  0  0  0  0
  -12.6338   12.4408   -3.1618 H   0  0  0  0  0  0  0  0  0  0  0  0
  -15.2782   12.6881   -1.2551 H   0  0  0  0  0  0  0  0  0  0  0  0
  -14.8094   13.6257   -2.7139 H   0  0  0  0  0  0  0  0  0  0  0  0
  -16.3261   12.6632   -2.7139 H   0  0  0  0  0  0  0  0  0  0  0  0
  -12.4202    9.8735   -0.7215 H   0  0  0  0  0  0  0  0  0  0  0  0
  -12.3805    9.9607    1.6927 H   0  0  0  0  0  0  0  0  0  0  0  0
  -13.5325    8.6162    1.8376 H   0  0  0  0  0  0  0  0  0  0  0  0
  -10.7135    8.4441    2.2777 H   0  0  0  0  0  0  0  0  0  0  0  0
  -11.7660    7.0483    2.0572 H   0  0  0  0  0  0  0  0  0  0  0  0
   -9.5867    9.4251    0.9341 H   0  0  0  0  0  0  0  0  0  0  0  0
   -8.9985    8.7072   -0.6038 H   0  0  0  0  0  0  0  0  0  0  0  0
  -10.4505    9.7647   -0.6038 H   0  0  0  0  0  0  0  0  0  0  0  0
  -10.7331    5.6702    0.3545 H   0  0  0  0  0  0  0  0  0  0  0  0
   -8.9770    6.8044    1.8632 H   0  0  0  0  0  0  0  0  0  0  0  0
   -8.6392    5.1814    1.0631 H   0  0  0  0  0  0  0  0  0  0  0  0
   -6.6576    6.9176    1.0603 H   0  0  0  0  0  0  0  0  0  0  0  0
   -8.7368    7.8154   -2.2819 H   0  0  0  0  0  0  0  0  0  0  0  0
   -7.3674    5.1328   -2.9300 H   0  0  0  0  0  0  0  0  0  0  0  0
   -8.4702    6.0876   -4.0176 H   0  0  0  0  0  0  0  0  0  0  0  0
   -6.0879    6.3618   -4.6261 H   0  0  0  0  0  0  0  0  0  0  0  0
   -6.8647    7.9063   -4.1001 H   0  0  0  0  0  0  0  0  0  0  0  0
   -4.6786    7.7712   -3.1205 H   0  0  0  0  0  0  0  0  0  0  0  0
   -5.6180    5.2470   -2.0900 H   0  0  0  0  0  0  0  0  0  0  0  0
   -6.4157    9.8023   -0.7484 H   0  0  0  0  0  0  0  0  0  0  0  0
   -5.4771    9.7116   -2.2773 H   0  0  0  0  0  0  0  0  0  0  0  0
   -7.2328    9.3317   -2.2773 H   0  0  0  0  0  0  0  0  0  0  0  0
   -5.2622    7.7738    0.6474 H   0  0  0  0  0  0  0  0  0  0  0  0
   -4.2129    6.8738   -0.4997 H   0  0  0  0  0  0  0  0  0  0  0  0
   -4.2098    8.6701   -0.4997 H   0  0  0  0  0  0  0  0  0  0  0  0
   -9.3948    4.1292   -0.5351 H   0  0  0  0  0  0  0  0  0  0  0  0
  -10.2935    4.0724   -2.0894 H   0  0  0  0  0  0  0  0  0  0  0  0
   -8.5136    4.3144   -2.0894 H   0  0  0  0  0  0  0  0  0  0  0  0
  -10.4279    6.5176   -3.4792 H   0  0  0  0  0  0  0  0  0  0  0  0
  -11.5557    5.5721   -2.3525 H   0  0  0  0  0  0  0  0  0  0  0  0
  -11.0579    8.5618   -2.3862 H   0  0  0  0  0  0  0  0  0  0  0  0
  -12.5745    7.6660   -2.7909 H   0  0  0  0  0  0  0  0  0  0  0  0
  -13.1421    6.3316    0.6507 H   0  0  0  0  0  0  0  0  0  0  0  0
  -14.0142    6.6681   -0.8832 H   0  0  0  0  0  0  0  0  0  0  0  0
  -12.5832    5.5823   -0.8832 H   0  0  0  0  0  0  0  0  0  0  0  0
  1  2  1  0
  2  3  1  0
  3  4  1  0
  4  5  1  0
  5  6  1  0
  6  7  1  0
  7  8  1  0
  7  9  1  0
  2 10  1  0
 10 11  1  0
 11 12  1  0
 12 13  1  0
 13 14  1  6
 13 15  1  0
 15 16  1  0
 16 17  1  0
 17 18  2  0
 18 19  1  0
 19 20  1  0
 20 21  1  0
 21 22  1  0
 22 23  1  0
 22 24  1  0
 24 25  1  0
 24 26  1  0
 19 27  1  0
 27 28  1  1
 27 29  1  0
 29 30  1  0
 30 31  1  0
 31 32  1  1
  7  5  1  0
 31 10  1  0
 31 13  1  0
 27 15  1  0
 24 18  1  0
  1 33  1  0
  1 34  1  0
  1 35  1  0
  2 36  1  6
  3 37  1  0
  3 38  1  0
  4 39  1  0
  4 40  1  0
  5 41  1  1
  8 42  1  0
  8 43  1  0
  8 44  1  0
  9 45  1  0
  9 46  1  0
  9 47  1  0
 10 48  1  6
 11 49  1  0
 11 50  1  0
 12 51  1  0
 12 52  1  0
 14 53  1  0
 14 54  1  0
 14 55  1  0
 15 56  1  1
 16 57  1  0
 16 58  1  0
 17 59  1  0
 19 60  1  6
 20 61  1  0
 20 62  1  0
 21 63  1  0
 21 64  1  0
 22 65  1  6
 23 66  1  0
 25 67  1  0
 25 68  1  0
 25 69  1  0
 26 70  1  0
 26 71  1  0
 26 72  1  0
 28 73  1  0
 28 74  1  0
 28 75  1  0
 29 76  1  0
 29 77  1  0
 30 78  1  0
 30 79  1  0
 32 80  1  0
 32 81  1  0
 32 82  1  0
M  END
>  <meeko>  (14) 
{"is_sidechain": [false], "intermolecular_energy": 2.731, "internal_energy": -0.839}

$$$$
EPH_relaxed_0001_pdb2pqr_Repair_259_r2_0001_out
     RDKit          3D

 82 86  0  0  0  0  0  0  0  0999 V2000
    1.2250   14.4570   -5.3180 C   0  0  0  0  0  0  0  0  0  0  0  0
    0.6130   14.1060   -3.9600 C   0  0  2  0  0  0  0  0  0  0  0  0
    1.5650   14.4330   -2.7920 C   0  0  0  0  0  0  0  0  0  0  0  0
    1.6470   15.9260   -2.4640 C   0  0  0  0  0  0  0  0  0  0  0  0
    2.3970   16.1740   -1.1900 C   0  0  2  0  0  0  0  0  0  0  0  0
    1.5690   16.3490   -0.0320 O   0  0  0  0  0  0  0  0  0  0  0  0
    2.3480   17.4880   -0.4320 C   0  0  0  0  0  0  0  0  0  0  0  0
    1.5310   18.6420   -0.9230 C   0  0  0  0  0  0  0  0  0  0  0  0
    3.4670   17.8140    0.5080 C   0  0  0  0  0  0  0  0  0  0  0  0
    0.2350   12.6300   -3.9260 C   0  0  1  0  0  0  0  0  0  0  0  0
    1.4210   11.7010   -4.3010 C   0  0  0  0  0  0  0  0  0  0  0  0
    1.2730   10.4180   -3.4430 C   0  0  0  0  0  0  0  0  0  0  0  0
   -0.1550   10.5050   -2.8550 C   0  0  1  0  0  0  0  0  0  0  0  0
   -1.0900    9.9990   -3.9980 C   0  0  0  0  0  0  0  0  0  0  0  0
   -0.4020    9.7270   -1.5210 C   0  0  2  0  0  0  0  0  0  0  0  0
   -0.2190    8.2020   -1.6110 C   0  0  0  0  0  0  0  0  0  0  0  0
   -1.4500    7.4320   -1.9590 C   0  0  0  0  0  0  0  0  0  0  0  0
   -2.7090    7.9070   -1.9120 C   0  0  0  0  0  0  0  0  0  0  0  0
   -3.0000    9.3160   -1.3810 C   0  0  1  0  0  0  0  0  0  0  0  0
   -4.1930    9.2600   -0.3910 C   0  0  0  0  0  0  0  0  0  0  0  0
   -5.4270    8.5990   -0.9980 C   0  0  0  0  0  0  0  0  0  0  0  0
   -5.1120    7.1790   -1.4610 C   0  0  2  0  0  0  0  0  0  0  0  0
   -4.8300    6.3710   -0.3140 O   0  0  0  0  0  0  0  0  0  0  0  0
   -3.9190    7.1090   -2.4560 C   0  0  0  0  0  0  0  0  0  0  0  0
   -4.3370    7.7250   -3.8140 C   0  0  0  0  0  0  0  0  0  0  0  0
   -3.6160    5.6110   -2.7330 C   0  0  0  0  0  0  0  0  0  0  0  0
   -1.7540   10.1060   -0.7900 C   0  0  1  0  0  0  0  0  0  0  0  0
   -1.5610    9.7480    0.7150 C   0  0  0  0  0  0  0  0  0  0  0  0
   -2.0510   11.6510   -0.8450 C   0  0  0  0  0  0  0  0  0  0  0  0
   -1.6750   12.3850   -2.1460 C   0  0  0  0  0  0  0  0  0  0  0  0
   -0.2430   12.0490   -2.5720 C   0  0  2  0  0  0  0  0  0  0  0  0
    0.7230   12.5660   -1.4510 C   0  0  0  0  0  0  0  0  0  0  0  0
    2.1700   14.9990   -5.1653 H   0  0  0  0  0  0  0  0  0  0  0  0
    1.4193   13.5331   -5.8824 H   0  0  0  0  0  0  0  0  0  0  0  0
    0.5256   15.0913   -5.8824 H   0  0  0  0  0  0  0  0  0  0  0  0
   -0.2885   14.7236   -3.8339 H   0  0  0  0  0  0  0  0  0  0  0  0
    1.2123   13.8997   -1.8969 H   0  0  0  0  0  0  0  0  0  0  0  0
    2.5723   14.1159   -3.1001 H   0  0  0  0  0  0  0  0  0  0  0  0
    2.1613   16.4439   -3.2869 H   0  0  0  0  0  0  0  0  0  0  0  0
    0.6224   16.3059   -2.3379 H   0  0  0  0  0  0  0  0  0  0  0  0
    3.2361   15.5523   -1.5354 H   0  0  0  0  0  0  0  0  0  0  0  0
    1.1343   19.2024   -0.0636 H   0  0  0  0  0  0  0  0  0  0  0  0
    2.1622   19.3048   -1.5331 H   0  0  0  0  0  0  0  0  0  0  0  0
    0.6961   18.2669   -1.5331 H   0  0  0  0  0  0  0  0  0  0  0  0
    3.1159   17.7117    1.5454 H   0  0  0  0  0  0  0  0  0  0  0  0
    4.3048   17.1226    0.3346 H   0  0  0  0  0  0  0  0  0  0  0  0
    3.8023   18.8472    0.3346 H   0  0  0  0  0  0  0  0  0  0  0  0
   -0.5958   12.6359   -4.6469 H   0  0  0  0  0  0  0  0  0  0  0  0
    1.3804   11.4480   -5.3708 H   0  0  0  0  0  0  0  0  0  0  0  0
    2.3852   12.1948   -4.1099 H   0  0  0  0  0  0  0  0  0  0  0  0
    1.3820    9.5187   -4.0670 H   0  0  0  0  0  0  0  0  0  0  0  0
    2.0430   10.3481   -2.6605 H   0  0  0  0  0  0  0  0  0  0  0  0
   -1.9775    9.5187   -3.5602 H   0  0  0  0  0  0  0  0  0  0  0  0
   -1.4032   10.8508   -4.6196 H   0  0  0  0  0  0  0  0  0  0  0  0
   -0.5482    9.2710   -4.6196 H   0  0  0  0  0  0  0  0  0  0  0  0
    0.4176   10.0881   -0.8824 H   0  0  0  0  0  0  0  0  0  0  0  0
    0.5400    7.9954   -2.3799 H   0  0  0  0  0  0  0  0  0  0  0  0
    0.0732    7.8703   -0.6037 H   0  0  0  0  0  0  0  0  0  0  0  0
   -1.3171    6.3886   -2.2810 H   0  0  0  0  0  0  0  0  0  0  0  0
   -3.2707    9.9213   -2.2587 H   0  0  0  0  0  0  0  0  0  0  0  0
   -3.8874    8.6876    0.4973 H   0  0  0  0  0  0  0  0  0  0  0  0
   -4.4616   10.2951   -0.1332 H   0  0  0  0  0  0  0  0  0  0  0  0
   -6.2249    8.5626   -0.2416 H   0  0  0  0  0  0  0  0  0  0  0  0
   -5.7495    9.1891   -1.8685 H   0  0  0  0  0  0  0  0  0  0  0  0
   -5.9940    6.8058   -2.0021 H   0  0  0  0  0  0  0  0  0  0  0  0
   -4.2130    5.6730   -0.5900 H   0  0  0  0  0  0  0  0  0  0  0  0
   -4.9466    8.6234   -3.6370 H   0  0  0  0  0  0  0  0  0  0  0  0
   -3.4375    7.9989   -4.3848 H   0  0  0  0  0  0  0  0  0  0  0  0
   -4.9238    6.9903   -4.3848 H   0  0  0  0  0  0  0  0  0  0  0  0
   -3.5078    5.0761   -1.7779 H   0  0  0  0  0  0  0  0  0  0  0  0
   -4.4431    5.1699   -3.3086 H   0  0  0  0  0  0  0  0  0  0  0  0
   -2.6825    5.5261   -3.3086 H   0  0  0  0  0  0  0  0  0  0  0  0
   -1.9907   10.5451    1.3395 H   0  0  0  0  0  0  0  0  0  0  0  0
   -2.0686    8.7970    0.9337 H   0  0  0  0  0  0  0  0  0  0  0  0
   -0.4875    9.6494    0.9337 H   0  0  0  0  0  0  0  0  0  0  0  0
   -3.1307   11.7881   -0.6858 H   0  0  0  0  0  0  0  0  0  0  0  0
   -1.4103   12.0949   -0.0688 H   0  0  0  0  0  0  0  0  0  0  0  0
   -2.3684   12.0807   -2.9439 H   0  0  0  0  0  0  0  0  0  0  0  0
   -1.7426   13.4685   -1.9689 H   0  0  0  0  0  0  0  0  0  0  0  0
    0.2951   12.3370   -0.4639 H   0  0  0  0  0  0  0  0  0  0  0  0
    1.6997   12.0701   -1.5512 H   0  0  0  0  0  0  0  0  0  0  0  0
    0.8521   13.6538   -1.5512 H   0  0  0  0  0  0  0  0  0  0  0  0
  1  2  1  0
  2  3  1  0
  3  4  1  0
  4  5  1  0
  5  6  1  0
  6  7  1  0
  7  8  1  0
  7  9  1  0
  2 10  1  0
 10 11  1  0
 11 12  1  0
 12 13  1  0
 13 14  1  6
 13 15  1  0
 15 16  1  0
 16 17  1  0
 17 18  2  0
 18 19  1  0
 19 20  1  0
 20 21  1  0
 21 22  1  0
 22 23  1  0
 22 24  1  0
 24 25  1  0
 24 26  1  0
 19 27  1  0
 27 28  1  1
 27 29  1  0
 29 30  1  0
 30 31  1  0
 31 32  1  1
  7  5  1  0
 31 10  1  0
 31 13  1  0
 27 15  1  0
 24 18  1  0
  1 33  1  0
  1 34  1  0
  1 35  1  0
  2 36  1  1
  3 37  1  0
  3 38  1  0
  4 39  1  0
  4 40  1  0
  5 41  1  1
  8 42  1  0
  8 43  1  0
  8 44  1  0
  9 45  1  0
  9 46  1  0
  9 47  1  0
 10 48  1  6
 11 49  1  0
 11 50  1  0
 12 51  1  0
 12 52  1  0
 14 53  1  0
 14 54  1  0
 14 55  1  0
 15 56  1  1
 16 57  1  0
 16 58  1  0
 17 59  1  0
 19 60  1  6
 20 61  1  0
 20 62  1  0
 21 63  1  0
 21 64  1  0
 22 65  1  6
 23 66  1  0
 25 67  1  0
 25 68  1  0
 25 69  1  0
 26 70  1  0
 26 71  1  0
 26 72  1  0
 28 73  1  0
 28 74  1  0
 28 75  1  0
 29 76  1  0
 29 77  1  0
 30 78  1  0
 30 79  1  0
 32 80  1  0
 32 81  1  0
 32 82  1  0
M  END
>  <meeko>  (15) 
{"is_sidechain": [false], "intermolecular_energy": 2.731, "internal_energy": -0.839}

$$$$
EPH_relaxed_0001_pdb2pqr_Repair_259_r2_0001_out
     RDKit          3D

 82 86  0  0  0  0  0  0  0  0999 V2000
  -12.8040   10.9980   -2.3190 C   0  0  0  0  0  0  0  0  0  0  0  0
  -13.0840    9.7310   -1.5060 C   0  0  2  0  0  0  0  0  0  0  0  0
  -14.0770    9.9870   -0.3550 C   0  0  0  0  0  0  0  0  0  0  0  0
  -15.2820    9.0420   -0.3610 C   0  0  0  0  0  0  0  0  0  0  0  0
  -15.0680    7.8660    0.5440 C   0  0  2  0  0  0  0  0  0  0  0  0
  -13.8210    7.1830    0.3530 O   0  0  0  0  0  0  0  0  0  0  0  0
  -15.0080    6.4320    0.0510 C   0  0  0  0  0  0  0  0  0  0  0  0
  -15.1640    6.0980   -1.3990 C   0  0  0  0  0  0  0  0  0  0  0  0
  -15.2870    5.3290    1.0240 C   0  0  0  0  0  0  0  0  0  0  0  0
  -11.7790    9.1700   -0.9530 C   0  0  1  0  0  0  0  0  0  0  0  0
  -11.9500    8.5370    0.4540 C   0  0  0  0  0  0  0  0  0  0  0  0
  -10.9820    7.3280    0.5210 C   0  0  0  0  0  0  0  0  0  0  0  0
  -10.0560    7.5010   -0.7060 C   0  0  1  0  0  0  0  0  0  0  0  0
   -8.9850    8.5440   -0.2560 C   0  0  0  0  0  0  0  0  0  0  0  0
   -9.3940    6.1990   -1.2630 C   0  0  2  0  0  0  0  0  0  0  0  0
   -8.4470    5.4790   -0.2860 C   0  0  0  0  0  0  0  0  0  0  0  0
   -7.0170    5.9010   -0.3590 C   0  0  0  0  0  0  0  0  0  0  0  0
   -6.4590    6.6070   -1.3600 C   0  0  0  0  0  0  0  0  0  0  0  0
   -7.2680    6.9730   -2.6110 C   0  0  1  0  0  0  0  0  0  0  0  0
   -6.4270    6.6690   -3.8780 C   0  0  0  0  0  0  0  0  0  0  0  0
   -5.0590    7.3440   -3.8490 C   0  0  0  0  0  0  0  0  0  0  0  0
   -4.2630    6.9100   -2.6210 C   0  0  2  0  0  0  0  0  0  0  0  0
   -3.9470    5.5200   -2.7440 O   0  0  0  0  0  0  0  0  0  0  0  0
   -5.0150    7.1600   -1.2840 C   0  0  0  0  0  0  0  0  0  0  0  0
   -5.0900    8.6810   -1.0050 C   0  0  0  0  0  0  0  0  0  0  0  0
   -4.1640    6.5500   -0.1370 C   0  0  0  0  0  0  0  0  0  0  0  0
   -8.7340    6.3660   -2.6910 C   0  0  1  0  0  0  0  0  0  0  0  0
   -8.6870    4.9440   -3.3290 C   0  0  0  0  0  0  0  0  0  0  0  0
   -9.6070    7.2550   -3.6530 C   0  0  0  0  0  0  0  0  0  0  0  0
  -10.3320    8.4590   -3.0210 C   0  0  0  0  0  0  0  0  0  0  0  0
  -11.0920    8.0390   -1.7590 C   0  0  2  0  0  0  0  0  0  0  0  0
  -12.1910    7.0070   -2.1830 C   0  0  0  0  0  0  0  0  0  0  0  0
  -12.6181   11.8391   -1.6348 H   0  0  0  0  0  0  0  0  0  0  0  0
  -11.9194   10.8388   -2.9531 H   0  0  0  0  0  0  0  0  0  0  0  0
  -13.6733   11.2264   -2.9531 H   0  0  0  0  0  0  0  0  0  0  0  0
  -13.5465    8.9983   -2.1837 H   0  0  0  0  0  0  0  0  0  0  0  0
  -13.5430    9.8630    0.5986 H   0  0  0  0  0  0  0  0  0  0  0  0
  -14.4672   11.0069   -0.4875 H   0  0  0  0  0  0  0  0  0  0  0  0
  -16.1707    9.5951   -0.0229 H   0  0  0  0  0  0  0  0  0  0  0  0
  -15.4183    8.6662   -1.3858 H   0  0  0  0  0  0  0  0  0  0  0  0
  -15.6468    8.3471    1.3462 H   0  0  0  0  0  0  0  0  0  0  0  0
  -15.6276    5.1055   -1.4988 H   0  0  0  0  0  0  0  0  0  0  0  0
  -15.8033    6.8516   -1.8821 H   0  0  0  0  0  0  0  0  0  0  0  0
  -14.1758    6.0914   -1.8821 H   0  0  0  0  0  0  0  0  0  0  0  0
  -15.1900    5.7123    2.0505 H   0  0  0  0  0  0  0  0  0  0  0  0
  -16.3087    4.9524    0.8682 H   0  0  0  0  0  0  0  0  0  0  0  0
  -14.5673    4.5119    0.8682 H   0  0  0  0  0  0  0  0  0  0  0  0
  -11.1611   10.0796   -0.9807 H   0  0  0  0  0  0  0  0  0  0  0  0
  -11.6945    9.2705    1.2330 H   0  0  0  0  0  0  0  0  0  0  0  0
  -12.9900    8.2200    0.6208 H   0  0  0  0  0  0  0  0  0  0  0  0
  -10.3989    7.3486    1.4535 H   0  0  0  0  0  0  0  0  0  0  0  0
  -11.5149    6.3658    0.5090 H   0  0  0  0  0  0  0  0  0  0  0  0
   -8.9476    8.5804    0.8428 H   0  0  0  0  0  0  0  0  0  0  0  0
   -7.9998    8.2498   -0.6469 H   0  0  0  0  0  0  0  0  0  0  0  0
   -9.2530    9.5367   -0.6469 H   0  0  0  0  0  0  0  0  0  0  0  0
  -10.2586    5.5306   -1.3884 H   0  0  0  0  0  0  0  0  0  0  0  0
   -8.8056    5.6676    0.7367 H   0  0  0  0  0  0  0  0  0  0  0  0
   -8.4663    4.4164   -0.5697 H   0  0  0  0  0  0  0  0  0  0  0  0
   -6.3634    5.6102    0.4766 H   0  0  0  0  0  0  0  0  0  0  0  0
   -7.4623    8.0535   -2.5424 H   0  0  0  0  0  0  0  0  0  0  0  0
   -6.2818    5.5811   -3.9520 H   0  0  0  0  0  0  0  0  0  0  0  0
   -6.9758    7.0645   -4.7454 H   0  0  0  0  0  0  0  0  0  0  0  0
   -4.5015    7.0670   -4.7559 H   0  0  0  0  0  0  0  0  0  0  0  0
   -5.2056    8.4333   -3.8056 H   0  0  0  0  0  0  0  0  0  0  0  0
   -3.3500    7.5226   -2.5858 H   0  0  0  0  0  0  0  0  0  0  0  0
   -3.0480    5.3910   -2.3970 H   0  0  0  0  0  0  0  0  0  0  0  0
   -5.0986    8.8546    0.0812 H   0  0  0  0  0  0  0  0  0  0  0  0
   -4.2153    9.1788   -1.4490 H   0  0  0  0  0  0  0  0  0  0  0  0
   -6.0094    9.0903   -1.4490 H   0  0  0  0  0  0  0  0  0  0  0  0
   -4.5856    6.8522    0.8330 H   0  0  0  0  0  0  0  0  0  0  0  0
   -4.1751    5.4529   -0.2158 H   0  0  0  0  0  0  0  0  0  0  0  0
   -3.1286    6.9128   -0.2158 H   0  0  0  0  0  0  0  0  0  0  0  0
   -8.6619    4.1855   -2.5327 H   0  0  0  0  0  0  0  0  0  0  0  0
   -9.5806    4.7920   -3.9522 H   0  0  0  0  0  0  0  0  0  0  0  0
   -7.7853    4.8513   -3.9522 H   0  0  0  0  0  0  0  0  0  0  0  0
   -8.9442    7.6421   -4.4410 H   0  0  0  0  0  0  0  0  0  0  0  0
  -10.4087    6.5913   -4.0090 H   0  0  0  0  0  0  0  0  0  0  0  0
   -9.5906    9.2272   -2.7560 H   0  0  0  0  0  0  0  0  0  0  0  0
  -11.0537    8.8566   -3.7497 H   0  0  0  0  0  0  0  0  0  0  0  0
  -12.6530    6.5732   -1.2839 H   0  0  0  0  0  0  0  0  0  0  0  0
  -12.9608    7.5162   -2.7815 H   0  0  0  0  0  0  0  0  0  0  0  0
  -11.7312    6.2068   -2.7815 H   0  0  0  0  0  0  0  0  0  0  0  0
  1  2  1  0
  2  3  1  0
  3  4  1  0
  4  5  1  0
  5  6  1  0
  6  7  1  0
  7  8  1  0
  7  9  1  0
  2 10  1  0
 10 11  1  0
 11 12  1  0
 12 13  1  0
 13 14  1  1
 13 15  1  0
 15 16  1  0
 16 17  1  0
 17 18  2  0
 18 19  1  0
 19 20  1  0
 20 21  1  0
 21 22  1  0
 22 23  1  0
 22 24  1  0
 24 25  1  0
 24 26  1  0
 19 27  1  0
 27 28  1  6
 27 29  1  0
 29 30  1  0
 30 31  1  0
 31 32  1  6
  7  5  1  0
 31 10  1  0
 31 13  1  0
 27 15  1  0
 24 18  1  0
  1 33  1  0
  1 34  1  0
  1 35  1  0
  2 36  1  6
  3 37  1  0
  3 38  1  0
  4 39  1  0
  4 40  1  0
  5 41  1  1
  8 42  1  0
  8 43  1  0
  8 44  1  0
  9 45  1  0
  9 46  1  0
  9 47  1  0
 10 48  1  1
 11 49  1  0
 11 50  1  0
 12 51  1  0
 12 52  1  0
 14 53  1  0
 14 54  1  0
 14 55  1  0
 15 56  1  6
 16 57  1  0
 16 58  1  0
 17 59  1  0
 19 60  1  1
 20 61  1  0
 20 62  1  0
 21 63  1  0
 21 64  1  0
 22 65  1  1
 23 66  1  0
 25 67  1  0
 25 68  1  0
 25 69  1  0
 26 70  1  0
 26 71  1  0
 26 72  1  0
 28 73  1  0
 28 74  1  0
 28 75  1  0
 29 76  1  0
 29 77  1  0
 30 78  1  0
 30 79  1  0
 32 80  1  0
 32 81  1  0
 32 82  1  0
M  END
>  <meeko>  (16) 
{"is_sidechain": [false], "intermolecular_energy": 2.731, "internal_energy": -0.839}

$$$$
EPH_relaxed_0001_pdb2pqr_Repair_259_r2_0001_out
     RDKit          3D

 82 86  0  0  0  0  0  0  0  0999 V2000
   -1.2600   10.3680    1.5600 C   0  0  0  0  0  0  0  0  0  0  0  0
   -1.9940   10.0520    0.2540 C   0  0  2  0  0  0  0  0  0  0  0  0
   -2.9010    8.8120    0.3820 C   0  0  0  0  0  0  0  0  0  0  0  0
   -4.2110    8.9230   -0.4040 C   0  0  0  0  0  0  0  0  0  0  0  0
   -4.7180    7.5780   -0.8280 C   0  0  2  0  0  0  0  0  0  0  0  0
   -4.8960    7.4250   -2.2430 O   0  0  0  0  0  0  0  0  0  0  0  0
   -6.0870    7.3560   -1.4430 C   0  0  0  0  0  0  0  0  0  0  0  0
   -7.0360    8.4920   -1.6650 C   0  0  0  0  0  0  0  0  0  0  0  0
   -6.6890    5.9870   -1.3730 C   0  0  0  0  0  0  0  0  0  0  0  0
   -0.9880    9.8470   -0.8720 C   0  0  1  0  0  0  0  0  0  0  0  0
   -1.5910    9.0820   -2.0810 C   0  0  0  0  0  0  0  0  0  0  0  0
   -0.9320    9.6690   -3.3550 C   0  0  0  0  0  0  0  0  0  0  0  0
    0.2560   10.5080   -2.8300 C   0  0  1  0  0  0  0  0  0  0  0  0
    1.3930    9.4710   -2.5670 C   0  0  0  0  0  0  0  0  0  0  0  0
    0.7400   11.6740   -3.7520 C   0  0  2  0  0  0  0  0  0  0  0  0
    1.2800   11.2390   -5.1250 C   0  0  0  0  0  0  0  0  0  0  0  0
    2.7470   10.9650   -5.1760 C   0  0  0  0  0  0  0  0  0  0  0  0
    3.6440   11.3340   -4.2440 C   0  0  0  0  0  0  0  0  0  0  0  0
    3.2240   12.1890   -3.0410 C   0  0  1  0  0  0  0  0  0  0  0  0
    4.2420   13.3430   -2.8450 C   0  0  0  0  0  0  0  0  0  0  0  0
    5.6790   12.8440   -2.7320 C   0  0  0  0  0  0  0  0  0  0  0  0
    6.0780   12.0480   -3.9720 C   0  0  2  0  0  0  0  0  0  0  0  0
    6.1190   12.9340   -5.0950 O   0  0  0  0  0  0  0  0  0  0  0  0
    5.1190   10.8630   -4.2760 C   0  0  0  0  0  0  0  0  0  0  0  0
    5.3000    9.7590   -3.2040 C   0  0  0  0  0  0  0  0  0  0  0  0
    5.5520   10.2320   -5.6270 C   0  0  0  0  0  0  0  0  0  0  0  0
    1.7180   12.6970   -3.0440 C   0  0  1  0  0  0  0  0  0  0  0  0
    1.6100   14.0370   -3.8340 C   0  0  0  0  0  0  0  0  0  0  0  0
    1.2810   13.0170   -1.5650 C   0  0  0  0  0  0  0  0  0  0  0  0
    0.7000   11.8500   -0.7440 C   0  0  0  0  0  0  0  0  0  0  0  0
   -0.3900   11.1150   -1.5310 C   0  0  2  0  0  0  0  0  0  0  0  0
   -1.5570   12.1270   -1.7920 C   0  0  0  0  0  0  0  0  0  0  0  0
   -1.8967   10.0939    2.4141 H   0  0  0  0  0  0  0  0  0  0  0  0
   -0.3228    9.7936    1.6021 H   0  0  0  0  0  0  0  0  0  0  0  0
   -1.0331   11.4435    1.6021 H   0  0  0  0  0  0  0  0  0  0  0  0
   -2.6407   10.9113    0.0228 H   0  0  0  0  0  0  0  0  0  0  0  0
   -2.3470    7.9369    0.0116 H   0  0  0  0  0  0  0  0  0  0  0  0
   -3.1706    8.7195    1.4444 H   0  0  0  0  0  0  0  0  0  0  0  0
   -4.9683    9.4055    0.2314 H   0  0  0  0  0  0  0  0  0  0  0  0
   -4.0189    9.5182   -1.3089 H   0  0  0  0  0  0  0  0  0  0  0  0
   -4.1980    7.0909    0.0101 H   0  0  0  0  0  0  0  0  0  0  0  0
   -7.3671    8.8883   -0.6938 H   0  0  0  0  0  0  0  0  0  0  0  0
   -6.5299    9.2871   -2.2322 H   0  0  0  0  0  0  0  0  0  0  0  0
   -7.9084    8.1354   -2.2322 H   0  0  0  0  0  0  0  0  0  0  0  0
   -6.8169    5.6961   -0.3199 H   0  0  0  0  0  0  0  0  0  0  0  0
   -7.6684    5.9911   -1.8738 H   0  0  0  0  0  0  0  0  0  0  0  0
   -6.0240    5.2680   -1.8738 H   0  0  0  0  0  0  0  0  0  0  0  0
   -0.2054    9.3032   -0.3226 H   0  0  0  0  0  0  0  0  0  0  0  0
   -1.3675    8.0080   -1.9994 H   0  0  0  0  0  0  0  0  0  0  0  0
   -2.6847    9.1948   -2.1142 H   0  0  0  0  0  0  0  0  0  0  0  0
   -0.5768    8.8635   -4.0145 H   0  0  0  0  0  0  0  0  0  0  0  0
   -1.6361   10.2700   -3.9492 H   0  0  0  0  0  0  0  0  0  0  0  0
    1.5310    9.3452   -1.4830 H   0  0  0  0  0  0  0  0  0  0  0  0
    1.1194    8.5050   -3.0164 H   0  0  0  0  0  0  0  0  0  0  0  0
    2.3298    9.8322   -3.0164 H   0  0  0  0  0  0  0  0  0  0  0  0
   -0.1950   12.2159   -3.9570 H   0  0  0  0  0  0  0  0  0  0  0  0
    0.7522   10.3208   -5.4224 H   0  0  0  0  0  0  0  0  0  0  0  0
    1.1052   12.0872   -5.8033 H   0  0  0  0  0  0  0  0  0  0  0  0
    3.1263   10.4148   -6.0497 H   0  0  0  0  0  0  0  0  0  0  0  0
    3.2473   11.5193   -2.1687 H   0  0  0  0  0  0  0  0  0  0  0  0
    4.1722   14.0244   -3.7057 H   0  0  0  0  0  0  0  0  0  0  0  0
    3.9910   13.8526   -1.9030 H   0  0  0  0  0  0  0  0  0  0  0  0
    6.3527   13.7070   -2.6258 H   0  0  0  0  0  0  0  0  0  0  0  0
    5.7550   12.1870   -1.8530 H   0  0  0  0  0  0  0  0  0  0  0  0
    7.0669   11.6078   -3.7764 H   0  0  0  0  0  0  0  0  0  0  0  0
    6.5210   12.4510   -5.8370 H   0  0  0  0  0  0  0  0  0  0  0  0
    5.2267   10.2058   -2.2015 H   0  0  0  0  0  0  0  0  0  0  0  0
    4.5146    8.9984   -3.3247 H   0  0  0  0  0  0  0  0  0  0  0  0
    6.2872    9.2890   -3.3247 H   0  0  0  0  0  0  0  0  0  0  0  0
    6.1648    9.3390   -5.4349 H   0  0  0  0  0  0  0  0  0  0  0  0
    4.6584    9.9468   -6.2016 H   0  0  0  0  0  0  0  0  0  0  0  0
    6.1395   10.9632   -6.2016 H   0  0  0  0  0  0  0  0  0  0  0  0
    1.5424   14.8758   -3.1256 H   0  0  0  0  0  0  0  0  0  0  0  0
    2.5010   14.1624   -4.4668 H   0  0  0  0  0  0  0  0  0  0  0  0
    0.7105   14.0181   -4.4668 H   0  0  0  0  0  0  0  0  0  0  0  0
    2.1662   13.3917   -1.0302 H   0  0  0  0  0  0  0  0  0  0  0  0
    0.4579   13.7408   -1.6585 H   0  0  0  0  0  0  0  0  0  0  0  0
    1.5075   11.1434   -0.5018 H   0  0  0  0  0  0  0  0  0  0  0  0
    0.2548   12.2561    0.1763 H   0  0  0  0  0  0  0  0  0  0  0  0
   -1.9607   12.4771   -0.8305 H   0  0  0  0  0  0  0  0  0  0  0  0
   -1.1765   12.9858   -2.3644 H   0  0  0  0  0  0  0  0  0  0  0  0
   -2.3533   11.6287   -2.3644 H   0  0  0  0  0  0  0  0  0  0  0  0
  1  2  1  0
  2  3  1  0
  3  4  1  0
  4  5  1  0
  5  6  1  0
  6  7  1  0
  7  8  1  0
  7  9  1  0
  2 10  1  0
 10 11  1  0
 11 12  1  0
 12 13  1  0
 13 14  1  1
 13 15  1  0
 15 16  1  0
 16 17  1  0
 17 18  2  0
 18 19  1  0
 19 20  1  0
 20 21  1  0
 21 22  1  0
 22 23  1  0
 22 24  1  0
 24 25  1  0
 24 26  1  0
 19 27  1  0
 27 28  1  6
 27 29  1  0
 29 30  1  0
 30 31  1  0
 31 32  1  6
  7  5  1  0
 31 10  1  0
 31 13  1  0
 27 15  1  0
 24 18  1  0
  1 33  1  0
  1 34  1  0
  1 35  1  0
  2 36  1  6
  3 37  1  0
  3 38  1  0
  4 39  1  0
  4 40  1  0
  5 41  1  1
  8 42  1  0
  8 43  1  0
  8 44  1  0
  9 45  1  0
  9 46  1  0
  9 47  1  0
 10 48  1  1
 11 49  1  0
 11 50  1  0
 12 51  1  0
 12 52  1  0
 14 53  1  0
 14 54  1  0
 14 55  1  0
 15 56  1  6
 16 57  1  0
 16 58  1  0
 17 59  1  0
 19 60  1  1
 20 61  1  0
 20 62  1  0
 21 63  1  0
 21 64  1  0
 22 65  1  1
 23 66  1  0
 25 67  1  0
 25 68  1  0
 25 69  1  0
 26 70  1  0
 26 71  1  0
 26 72  1  0
 28 73  1  0
 28 74  1  0
 28 75  1  0
 29 76  1  0
 29 77  1  0
 30 78  1  0
 30 79  1  0
 32 80  1  0
 32 81  1  0
 32 82  1  0
M  END
>  <meeko>  (17) 
{"is_sidechain": [false], "intermolecular_energy": 2.731, "internal_energy": -0.839}

$$$$
EPH_relaxed_0001_pdb2pqr_Repair_259_r2_0001_out
     RDKit          3D

 82 86  0  0  0  0  0  0  0  0999 V2000
  -14.0520    9.7940    0.1210 C   0  0  0  0  0  0  0  0  0  0  0  0
  -13.3430    9.0430   -1.0090 C   0  0  2  0  0  0  0  0  0  0  0  0
  -14.1620    7.8350   -1.5070 C   0  0  0  0  0  0  0  0  0  0  0  0
  -15.2430    8.2020   -2.5270 C   0  0  0  0  0  0  0  0  0  0  0  0
  -15.0470    7.4820   -3.8270 C   0  0  2  0  0  0  0  0  0  0  0  0
  -13.8020    7.7580   -4.4820 O   0  0  0  0  0  0  0  0  0  0  0  0
  -14.9890    8.1830   -5.1710 C   0  0  0  0  0  0  0  0  0  0  0  0
  -15.1290    9.6690   -5.2830 C   0  0  0  0  0  0  0  0  0  0  0  0
  -15.2860    7.3900   -6.4050 C   0  0  0  0  0  0  0  0  0  0  0  0
  -11.9670    8.5830   -0.5440 C   0  0  1  0  0  0  0  0  0  0  0  0
  -12.0220    7.7760    0.7800 C   0  0  0  0  0  0  0  0  0  0  0  0
  -10.9170    6.6930    0.6900 C   0  0  0  0  0  0  0  0  0  0  0  0
  -10.0520    7.1170   -0.5200 C   0  0  1  0  0  0  0  0  0  0  0  0
   -9.1000    8.2220    0.0350 C   0  0  0  0  0  0  0  0  0  0  0  0
   -9.2580    5.9760   -1.2350 C   0  0  2  0  0  0  0  0  0  0  0  0
   -8.2050    5.2680   -0.3640 C   0  0  0  0  0  0  0  0  0  0  0  0
   -6.8370    5.8640   -0.4060 C   0  0  0  0  0  0  0  0  0  0  0  0
   -6.3950    6.7440   -1.3240 C   0  0  0  0  0  0  0  0  0  0  0  0
   -7.2760    7.1520   -2.5120 C   0  0  1  0  0  0  0  0  0  0  0  0
   -6.4400    7.0990   -3.8180 C   0  0  0  0  0  0  0  0  0  0  0  0
   -5.1610    7.9270   -3.7280 C   0  0  0  0  0  0  0  0  0  0  0  0
   -4.2860    7.4530   -2.5710 C   0  0  2  0  0  0  0  0  0  0  0  0
   -3.8120    6.1350   -2.8610 O   0  0  0  0  0  0  0  0  0  0  0  0
   -5.0240    7.4540   -1.2030 C   0  0  0  0  0  0  0  0  0  0  0  0
   -5.2710    8.9130   -0.7460 C   0  0  0  0  0  0  0  0  0  0  0  0
   -4.0760    6.8220   -0.1480 C   0  0  0  0  0  0  0  0  0  0  0  0
   -8.6620    6.3860   -2.6430 C   0  0  1  0  0  0  0  0  0  0  0  0
   -8.4650    5.0630   -3.4450 C   0  0  0  0  0  0  0  0  0  0  0  0
   -9.6600    7.2690   -3.4810 C   0  0  0  0  0  0  0  0  0  0  0  0
  -10.5030    8.2950   -2.7010 C   0  0  0  0  0  0  0  0  0  0  0  0
  -11.1740    7.6440   -1.4870 C   0  0  2  0  0  0  0  0  0  0  0  0
  -12.1550    6.5430   -2.0160 C   0  0  0  0  0  0  0  0  0  0  0  0
  -13.6963    9.4172    1.0913 H   0  0  0  0  0  0  0  0  0  0  0  0
  -13.8315   10.8688    0.0418 H   0  0  0  0  0  0  0  0  0  0  0  0
  -15.1377    9.6356    0.0418 H   0  0  0  0  0  0  0  0  0  0  0  0
  -13.2363    9.7400   -1.8533 H   0  0  0  0  0  0  0  0  0  0  0  0
  -13.4723    7.1172   -1.9751 H   0  0  0  0  0  0  0  0  0  0  0  0
  -14.6767    7.4130   -0.6313 H   0  0  0  0  0  0  0  0  0  0  0  0
  -16.2271    7.9331   -2.1156 H   0  0  0  0  0  0  0  0  0  0  0  0
  -15.1783    9.2828   -2.7209 H   0  0  0  0  0  0  0  0  0  0  0  0
  -15.6337    6.6238   -3.4674 H   0  0  0  0  0  0  0  0  0  0  0  0
  -15.1706   10.1103   -4.2763 H   0  0  0  0  0  0  0  0  0  0  0  0
  -14.2655   10.0786   -5.8275 H   0  0  0  0  0  0  0  0  0  0  0  0
  -16.0538    9.9102   -5.8275 H   0  0  0  0  0  0  0  0  0  0  0  0
  -15.6587    6.3949   -6.1205 H   0  0  0  0  0  0  0  0  0  0  0  0
  -16.0499    7.9111   -7.0007 H   0  0  0  0  0  0  0  0  0  0  0  0
  -14.3677    7.2811   -7.0007 H   0  0  0  0  0  0  0  0  0  0  0  0
  -11.4624    9.5578   -0.4724 H   0  0  0  0  0  0  0  0  0  0  0  0
  -11.8328    8.4399    1.6364 H   0  0  0  0  0  0  0  0  0  0  0  0
  -13.0122    7.3189    0.9230 H   0  0  0  0  0  0  0  0  0  0  0  0
  -10.3149    6.6752    1.6104 H   0  0  0  0  0  0  0  0  0  0  0  0
  -11.3331    5.6817    0.5711 H   0  0  0  0  0  0  0  0  0  0  0  0
   -9.1171    8.2022    1.1347 H   0  0  0  0  0  0  0  0  0  0  0  0
   -8.0755    8.0351   -0.3192 H   0  0  0  0  0  0  0  0  0  0  0  0
   -9.4364    9.2076   -0.3192 H   0  0  0  0  0  0  0  0  0  0  0  0
  -10.0409    5.2269   -1.4246 H   0  0  0  0  0  0  0  0  0  0  0  0
   -8.5544    5.2924    0.6787 H   0  0  0  0  0  0  0  0  0  0  0  0
   -8.1065    4.2513   -0.7722 H   0  0  0  0  0  0  0  0  0  0  0  0
   -6.1303    5.5583    0.3796 H   0  0  0  0  0  0  0  0  0  0  0  0
   -7.5943    8.1861   -2.3139 H   0  0  0  0  0  0  0  0  0  0  0  0
   -6.1690    6.0524   -4.0210 H   0  0  0  0  0  0  0  0  0  0  0  0
   -7.0554    7.5218   -4.6258 H   0  0  0  0  0  0  0  0  0  0  0  0
   -4.5998    7.8264   -4.6687 H   0  0  0  0  0  0  0  0  0  0  0  0
   -5.4343    8.9783   -3.5544 H   0  0  0  0  0  0  0  0  0  0  0  0
   -3.4515    8.1635   -2.4769 H   0  0  0  0  0  0  0  0  0  0  0  0
   -4.5880    5.5670   -3.0020 H   0  0  0  0  0  0  0  0  0  0  0  0
   -5.2784    8.9567    0.3531 H   0  0  0  0  0  0  0  0  0  0  0  0
   -4.4695    9.5592   -1.1333 H   0  0  0  0  0  0  0  0  0  0  0  0
   -6.2406    9.2594   -1.1333 H   0  0  0  0  0  0  0  0  0  0  0  0
   -4.4384    7.0636    0.8621 H   0  0  0  0  0  0  0  0  0  0  0  0
   -4.0572    5.7300   -0.2794 H   0  0  0  0  0  0  0  0  0  0  0  0
   -3.0608    7.2246   -0.2794 H   0  0  0  0  0  0  0  0  0  0  0  0
   -8.3401    4.2245   -2.7441 H   0  0  0  0  0  0  0  0  0  0  0  0
   -9.3463    4.8834   -4.0783 H   0  0  0  0  0  0  0  0  0  0  0  0
   -7.5696    5.1480   -4.0783 H   0  0  0  0  0  0  0  0  0  0  0  0
   -9.0697    7.8216   -4.2267 H   0  0  0  0  0  0  0  0  0  0  0  0
  -10.3876    6.5597   -3.9023 H   0  0  0  0  0  0  0  0  0  0  0  0
   -9.8497    9.1103   -2.3569 H   0  0  0  0  0  0  0  0  0  0  0  0
  -11.2864    8.6847   -3.3677 H   0  0  0  0  0  0  0  0  0  0  0  0
  -12.6176    6.0239   -1.1636 H   0  0  0  0  0  0  0  0  0  0  0  0
  -12.9387    7.0135   -2.6279 H   0  0  0  0  0  0  0  0  0  0  0  0
  -11.5975    5.8186   -2.6279 H   0  0  0  0  0  0  0  0  0  0  0  0
  1  2  1  0
  2  3  1  0
  3  4  1  0
  4  5  1  0
  5  6  1  0
  6  7  1  0
  7  8  1  0
  7  9  1  0
  2 10  1  0
 10 11  1  0
 11 12  1  0
 12 13  1  0
 13 14  1  1
 13 15  1  0
 15 16  1  0
 16 17  1  0
 17 18  2  0
 18 19  1  0
 19 20  1  0
 20 21  1  0
 21 22  1  0
 22 23  1  0
 22 24  1  0
 24 25  1  0
 24 26  1  0
 19 27  1  0
 27 28  1  6
 27 29  1  0
 29 30  1  0
 30 31  1  0
 31 32  1  6
  7  5  1  0
 31 10  1  0
 31 13  1  0
 27 15  1  0
 24 18  1  0
  1 33  1  0
  1 34  1  0
  1 35  1  0
  2 36  1  6
  3 37  1  0
  3 38  1  0
  4 39  1  0
  4 40  1  0
  5 41  1  6
  8 42  1  0
  8 43  1  0
  8 44  1  0
  9 45  1  0
  9 46  1  0
  9 47  1  0
 10 48  1  1
 11 49  1  0
 11 50  1  0
 12 51  1  0
 12 52  1  0
 14 53  1  0
 14 54  1  0
 14 55  1  0
 15 56  1  6
 16 57  1  0
 16 58  1  0
 17 59  1  0
 19 60  1  1
 20 61  1  0
 20 62  1  0
 21 63  1  0
 21 64  1  0
 22 65  1  1
 23 66  1  0
 25 67  1  0
 25 68  1  0
 25 69  1  0
 26 70  1  0
 26 71  1  0
 26 72  1  0
 28 73  1  0
 28 74  1  0
 28 75  1  0
 29 76  1  0
 29 77  1  0
 30 78  1  0
 30 79  1  0
 32 80  1  0
 32 81  1  0
 32 82  1  0
M  END
>  <meeko>  (18) 
{"is_sidechain": [false], "intermolecular_energy": 2.731, "internal_energy": -0.839}

$$$$
EPH_relaxed_0001_pdb2pqr_Repair_259_r2_0001_out
     RDKit          3D

 82 86  0  0  0  0  0  0  0  0999 V2000
    1.1980   13.5420   -4.5170 C   0  0  0  0  0  0  0  0  0  0  0  0
    1.4550   12.9120   -3.1460 C   0  0  2  0  0  0  0  0  0  0  0  0
    2.9610   12.7870   -2.8380 C   0  0  0  0  0  0  0  0  0  0  0  0
    3.7080   11.8500   -3.7910 C   0  0  0  0  0  0  0  0  0  0  0  0
    5.1490   11.7010   -3.4050 C   0  0  2  0  0  0  0  0  0  0  0  0
    6.0720   12.3870   -4.2610 O   0  0  0  0  0  0  0  0  0  0  0  0
    6.1670   10.9540   -4.2460 C   0  0  0  0  0  0  0  0  0  0  0  0
    5.7860   10.3040   -5.5390 C   0  0  0  0  0  0  0  0  0  0  0  0
    7.4050   10.4390   -3.5800 C   0  0  0  0  0  0  0  0  0  0  0  0
    0.7930   11.5410   -3.0710 C   0  0  1  0  0  0  0  0  0  0  0  0
    1.8220   10.3860   -2.9430 C   0  0  0  0  0  0  0  0  0  0  0  0
    1.1720    9.3070   -2.0400 C   0  0  0  0  0  0  0  0  0  0  0  0
   -0.3170    9.7160   -1.9520 C   0  0  1  0  0  0  0  0  0  0  0  0
   -0.9590    9.1800   -3.2710 C   0  0  0  0  0  0  0  0  0  0  0  0
   -1.0960    9.2230   -0.6890 C   0  0  2  0  0  0  0  0  0  0  0  0
   -1.2090    7.6950   -0.5470 C   0  0  0  0  0  0  0  0  0  0  0  0
   -2.4130    7.0830   -1.1830 C   0  0  0  0  0  0  0  0  0  0  0  0
   -3.5060    7.7520   -1.5920 C   0  0  0  0  0  0  0  0  0  0  0  0
   -3.6480    9.2580   -1.3420 C   0  0  1  0  0  0  0  0  0  0  0  0
   -5.0640    9.5600   -0.7840 C   0  0  0  0  0  0  0  0  0  0  0  0
   -6.1730    9.0100   -1.6760 C   0  0  0  0  0  0  0  0  0  0  0  0
   -6.0320    7.5000   -1.8550 C   0  0  2  0  0  0  0  0  0  0  0  0
   -6.2680    6.8630   -0.5950 O   0  0  0  0  0  0  0  0  0  0  0  0
   -4.6400    7.0760   -2.4020 C   0  0  0  0  0  0  0  0  0  0  0  0
   -4.5080    7.5130   -3.8820 C   0  0  0  0  0  0  0  0  0  0  0  0
   -4.5800    5.5240   -2.4010 C   0  0  0  0  0  0  0  0  0  0  0  0
   -2.4960    9.9290   -0.4760 C   0  0  1  0  0  0  0  0  0  0  0  0
   -2.8310    9.8030    1.0420 C   0  0  0  0  0  0  0  0  0  0  0  0
   -2.4450   11.4700   -0.7930 C   0  0  0  0  0  0  0  0  0  0  0  0
   -1.5630   11.9060   -1.9790 C   0  0  0  0  0  0  0  0  0  0  0  0
   -0.1690   11.2800   -1.8850 C   0  0  2  0  0  0  0  0  0  0  0  0
    0.5100   11.8180   -0.5790 C   0  0  0  0  0  0  0  0  0  0  0  0
    0.7855   14.5531   -4.3844 H   0  0  0  0  0  0  0  0  0  0  0  0
    2.1435   13.6021   -5.0760 H   0  0  0  0  0  0  0  0  0  0  0  0
    0.4803   12.9236   -5.0760 H   0  0  0  0  0  0  0  0  0  0  0  0
    1.0166   13.5783   -2.3884 H   0  0  0  0  0  0  0  0  0  0  0  0
    3.4140   13.7869   -2.9080 H   0  0  0  0  0  0  0  0  0  0  0  0
    3.0484   12.3565   -1.8295 H   0  0  0  0  0  0  0  0  0  0  0  0
    3.2282   10.8604   -3.7670 H   0  0  0  0  0  0  0  0  0  0  0  0
    3.6664   12.2835   -4.8011 H   0  0  0  0  0  0  0  0  0  0  0  0
    4.8816   11.6364   -2.3399 H   0  0  0  0  0  0  0  0  0  0  0  0
    5.2395    9.3717   -5.3337 H   0  0  0  0  0  0  0  0  0  0  0  0
    5.1444   10.9854   -6.1169 H   0  0  0  0  0  0  0  0  0  0  0  0
    6.6941   10.0771   -6.1169 H   0  0  0  0  0  0  0  0  0  0  0  0
    7.2822   10.4901   -2.4881 H   0  0  0  0  0  0  0  0  0  0  0  0
    7.5762    9.3950   -3.8813 H   0  0  0  0  0  0  0  0  0  0  0  0
    8.2661   11.0535   -3.8813 H   0  0  0  0  0  0  0  0  0  0  0  0
    0.2297   11.5566   -4.0157 H   0  0  0  0  0  0  0  0  0  0  0  0
    2.0453    9.9658   -3.9348 H   0  0  0  0  0  0  0  0  0  0  0  0
    2.7678   10.7453   -2.5112 H   0  0  0  0  0  0  0  0  0  0  0  0
    1.2745    8.3094   -2.4920 H   0  0  0  0  0  0  0  0  0  0  0  0
    1.6479    9.2502   -1.0499 H   0  0  0  0  0  0  0  0  0  0  0  0
   -1.7821    8.4928   -3.0253 H   0  0  0  0  0  0  0  0  0  0  0  0
   -1.3492   10.0243   -3.8583 H   0  0  0  0  0  0  0  0  0  0  0  0
   -0.1979    8.6454   -3.8583 H   0  0  0  0  0  0  0  0  0  0  0  0
   -0.4441    9.5511    0.1340 H   0  0  0  0  0  0  0  0  0  0  0  0
   -0.3163    7.2441   -1.0051 H   0  0  0  0  0  0  0  0  0  0  0  0
   -1.2995    7.4953    0.5309 H   0  0  0  0  0  0  0  0  0  0  0  0
   -2.4058    5.9928   -1.3296 H   0  0  0  0  0  0  0  0  0  0  0  0
   -3.5220    9.7413   -2.3221 H   0  0  0  0  0  0  0  0  0  0  0  0
   -5.1548    9.1045    0.2131 H   0  0  0  0  0  0  0  0  0  0  0  0
   -5.1804   10.6530   -0.7414 H   0  0  0  0  0  0  0  0  0  0  0  0
   -7.1474    9.2283   -1.2146 H   0  0  0  0  0  0  0  0  0  0  0  0
   -6.0987    9.4888   -2.6636 H   0  0  0  0  0  0  0  0  0  0  0  0
   -6.7730    7.1853   -2.6046 H   0  0  0  0  0  0  0  0  0  0  0  0
   -5.4920    7.0260   -0.0330 H   0  0  0  0  0  0  0  0  0  0  0  0
   -4.1902    8.5651   -3.9267 H   0  0  0  0  0  0  0  0  0  0  0  0
   -3.7603    6.8824   -4.3852 H   0  0  0  0  0  0  0  0  0  0  0  0
   -5.4798    7.4018   -4.3852 H   0  0  0  0  0  0  0  0  0  0  0  0
   -4.5659    5.1583   -1.3637 H   0  0  0  0  0  0  0  0  0  0  0  0
   -5.4633    5.1226   -2.9193 H   0  0  0  0  0  0  0  0  0  0  0  0
   -3.6683    5.1920   -2.9193 H   0  0  0  0  0  0  0  0  0  0  0  0
   -1.9650   10.1287    1.6369 H   0  0  0  0  0  0  0  0  0  0  0  0
   -3.6983   10.4364    1.2799 H   0  0  0  0  0  0  0  0  0  0  0  0
   -3.0660    8.7551    1.2799 H   0  0  0  0  0  0  0  0  0  0  0  0
   -3.4728   11.8008   -1.0032 H   0  0  0  0  0  0  0  0  0  0  0  0
   -1.9847   11.9313    0.0932 H   0  0  0  0  0  0  0  0  0  0  0  0
   -2.0386   11.5859   -2.9178 H   0  0  0  0  0  0  0  0  0  0  0  0
   -1.4581   13.0007   -1.9540 H   0  0  0  0  0  0  0  0  0  0  0  0
   -0.0085   11.4072    0.2998 H   0  0  0  0  0  0  0  0  0  0  0  0
    1.5653   11.5083   -0.5601 H   0  0  0  0  0  0  0  0  0  0  0  0
    0.4498   12.9162   -0.5601 H   0  0  0  0  0  0  0  0  0  0  0  0
  1  2  1  0
  2  3  1  0
  3  4  1  0
  4  5  1  0
  5  6  1  0
  6  7  1  0
  7  8  1  0
  7  9  1  0
  2 10  1  0
 10 11  1  0
 11 12  1  0
 12 13  1  0
 13 14  1  6
 13 15  1  0
 15 16  1  0
 16 17  1  0
 17 18  2  0
 18 19  1  0
 19 20  1  0
 20 21  1  0
 21 22  1  0
 22 23  1  0
 22 24  1  0
 24 25  1  0
 24 26  1  0
 19 27  1  0
 27 28  1  1
 27 29  1  0
 29 30  1  0
 30 31  1  0
 31 32  1  1
  7  5  1  0
 31 10  1  0
 31 13  1  0
 27 15  1  0
 24 18  1  0
  1 33  1  0
  1 34  1  0
  1 35  1  0
  2 36  1  1
  3 37  1  0
  3 38  1  0
  4 39  1  0
  4 40  1  0
  5 41  1  1
  8 42  1  0
  8 43  1  0
  8 44  1  0
  9 45  1  0
  9 46  1  0
  9 47  1  0
 10 48  1  6
 11 49  1  0
 11 50  1  0
 12 51  1  0
 12 52  1  0
 14 53  1  0
 14 54  1  0
 14 55  1  0
 15 56  1  1
 16 57  1  0
 16 58  1  0
 17 59  1  0
 19 60  1  6
 20 61  1  0
 20 62  1  0
 21 63  1  0
 21 64  1  0
 22 65  1  6
 23 66  1  0
 25 67  1  0
 25 68  1  0
 25 69  1  0
 26 70  1  0
 26 71  1  0
 26 72  1  0
 28 73  1  0
 28 74  1  0
 28 75  1  0
 29 76  1  0
 29 77  1  0
 30 78  1  0
 30 79  1  0
 32 80  1  0
 32 81  1  0
 32 82  1  0
M  END
>  <meeko>  (19) 
{"is_sidechain": [false], "intermolecular_energy": 2.731, "internal_energy": -0.839}

$$$$
EPH_relaxed_0001_pdb2pqr_Repair_259_r2_0001_out
     RDKit          3D

 82 86  0  0  0  0  0  0  0  0999 V2000
  -11.3730    8.9370   -2.6710 C   0  0  0  0  0  0  0  0  0  0  0  0
  -10.9940    7.6630   -1.9110 C   0  0  2  0  0  0  0  0  0  0  0  0
  -12.0820    7.2430   -0.9030 C   0  0  0  0  0  0  0  0  0  0  0  0
  -13.4960    7.6620   -1.3140 C   0  0  0  0  0  0  0  0  0  0  0  0
  -13.7950    9.0750   -0.9130 C   0  0  2  0  0  0  0  0  0  0  0  0
  -15.1850    9.3580   -0.7080 O   0  0  0  0  0  0  0  0  0  0  0  0
  -14.5500   10.0520   -1.7940 C   0  0  0  0  0  0  0  0  0  0  0  0
  -15.0530    9.6560   -3.1470 C   0  0  0  0  0  0  0  0  0  0  0  0
  -14.3730   11.5190   -1.5510 C   0  0  0  0  0  0  0  0  0  0  0  0
   -9.6660    7.8640   -1.1910 C   0  0  1  0  0  0  0  0  0  0  0  0
   -9.7620    7.5760    0.3310 C   0  0  0  0  0  0  0  0  0  0  0  0
   -8.4080    6.9500    0.7550 C   0  0  0  0  0  0  0  0  0  0  0  0
   -7.4690    7.2020   -0.4480 C   0  0  1  0  0  0  0  0  0  0  0  0
   -6.9850    8.6760   -0.2770 C   0  0  0  0  0  0  0  0  0  0  0  0
   -6.2670    6.2140   -0.6050 C   0  0  2  0  0  0  0  0  0  0  0  0
   -5.2580    6.2260    0.5560 C   0  0  0  0  0  0  0  0  0  0  0  0
   -4.1240    7.1860    0.4070 C   0  0  0  0  0  0  0  0  0  0  0  0
   -3.7650    7.7990   -0.7360 C   0  0  0  0  0  0  0  0  0  0  0  0
   -4.4680    7.4730   -2.0600 C   0  0  1  0  0  0  0  0  0  0  0  0
   -3.4060    7.2620   -3.1710 C   0  0  0  0  0  0  0  0  0  0  0  0
   -2.4460    8.4420   -3.2950 C   0  0  0  0  0  0  0  0  0  0  0  0
   -1.7240    8.6980   -1.9750 C   0  0  2  0  0  0  0  0  0  0  0  0
   -0.8600    7.5910   -1.7000 O   0  0  0  0  0  0  0  0  0  0  0  0
   -2.6920    8.9160   -0.7790 C   0  0  0  0  0  0  0  0  0  0  0  0
   -3.4130   10.2770   -0.9340 C   0  0  0  0  0  0  0  0  0  0  0  0
   -1.8380    9.0220    0.5130 C   0  0  0  0  0  0  0  0  0  0  0  0
   -5.5370    6.2990   -2.0060 C   0  0  1  0  0  0  0  0  0  0  0  0
   -4.8310    4.9260   -2.2240 C   0  0  0  0  0  0  0  0  0  0  0  0
   -6.5500    6.4710   -3.1990 C   0  0  0  0  0  0  0  0  0  0  0  0
   -7.7800    7.3640   -2.9430 C   0  0  0  0  0  0  0  0  0  0  0  0
   -8.4750    6.9770   -1.6350 C   0  0  2  0  0  0  0  0  0  0  0  0
   -8.9930    5.5050   -1.7850 C   0  0  0  0  0  0  0  0  0  0  0  0
  -11.6105    9.7355   -1.9527 H   0  0  0  0  0  0  0  0  0  0  0  0
  -10.5295    9.2515   -3.3032 H   0  0  0  0  0  0  0  0  0  0  0  0
  -12.2512    8.7393   -3.3032 H   0  0  0  0  0  0  0  0  0  0  0  0
  -10.8980    6.8530   -2.6490 H   0  0  0  0  0  0  0  0  0  0  0  0
  -12.0593    6.1477   -0.8037 H   0  0  0  0  0  0  0  0  0  0  0  0
  -11.8575    7.7549    0.0444 H   0  0  0  0  0  0  0  0  0  0  0  0
  -13.5903    7.5741   -2.4064 H   0  0  0  0  0  0  0  0  0  0  0  0
  -14.2114    7.0019   -0.8017 H   0  0  0  0  0  0  0  0  0  0  0  0
  -12.8360    9.1515   -0.3796 H   0  0  0  0  0  0  0  0  0  0  0  0
  -15.9128    8.9791   -3.0349 H   0  0  0  0  0  0  0  0  0  0  0  0
  -15.3635   10.5546   -3.7002 H   0  0  0  0  0  0  0  0  0  0  0  0
  -14.2524    9.1432   -3.7002 H   0  0  0  0  0  0  0  0  0  0  0  0
  -14.3498   11.7111   -0.4682 H   0  0  0  0  0  0  0  0  0  0  0  0
  -13.4279   11.8542   -2.0032 H   0  0  0  0  0  0  0  0  0  0  0  0
  -15.2113   12.0693   -2.0032 H   0  0  0  0  0  0  0  0  0  0  0  0
   -9.4713    8.9145   -1.4528 H   0  0  0  0  0  0  0  0  0  0  0  0
   -9.9362    8.5113    0.8831 H   0  0  0  0  0  0  0  0  0  0  0  0
  -10.5977    6.8957    0.5520 H   0  0  0  0  0  0  0  0  0  0  0  0
   -8.0199    7.4401    1.6601 H   0  0  0  0  0  0  0  0  0  0  0  0
   -8.4997    5.8807    0.9963 H   0  0  0  0  0  0  0  0  0  0  0  0
   -6.9067    8.9143    0.7940 H   0  0  0  0  0  0  0  0  0  0  0  0
   -6.0003    8.7961   -0.7523 H   0  0  0  0  0  0  0  0  0  0  0  0
   -7.7069    9.3564   -0.7523 H   0  0  0  0  0  0  0  0  0  0  0  0
   -6.7609    5.2321   -0.5620 H   0  0  0  0  0  0  0  0  0  0  0  0
   -5.8024    6.4836    1.4765 H   0  0  0  0  0  0  0  0  0  0  0  0
   -4.8064    5.2232    0.5765 H   0  0  0  0  0  0  0  0  0  0  0  0
   -3.5326    7.4110    1.3068 H   0  0  0  0  0  0  0  0  0  0  0  0
   -5.0892    8.3487   -2.2991 H   0  0  0  0  0  0  0  0  0  0  0  0
   -2.8250    6.3580   -2.9362 H   0  0  0  0  0  0  0  0  0  0  0  0
   -3.9392    7.1635   -4.1281 H   0  0  0  0  0  0  0  0  0  0  0  0
   -1.7026    8.2210   -4.0751 H   0  0  0  0  0  0  0  0  0  0  0  0
   -3.0247    9.3395   -3.5588 H   0  0  0  0  0  0  0  0  0  0  0  0
   -1.1512    9.6303   -2.0878 H   0  0  0  0  0  0  0  0  0  0  0  0
   -0.0830    7.6730   -2.2790 H   0  0  0  0  0  0  0  0  0  0  0  0
   -3.6324   10.6911    0.0612 H   0  0  0  0  0  0  0  0  0  0  0  0
   -2.7658   10.9739   -1.4867 H   0  0  0  0  0  0  0  0  0  0  0  0
   -4.3531   10.1331   -1.4867 H   0  0  0  0  0  0  0  0  0  0  0  0
   -2.4929    8.9407    1.3931 H   0  0  0  0  0  0  0  0  0  0  0  0
   -1.0974    8.2089    0.5307 H   0  0  0  0  0  0  0  0  0  0  0  0
   -1.3186    9.9915    0.5307 H   0  0  0  0  0  0  0  0  0  0  0  0
   -4.5987    4.4742   -1.2484 H   0  0  0  0  0  0  0  0  0  0  0  0
   -5.4969    4.2569   -2.7887 H   0  0  0  0  0  0  0  0  0  0  0  0
   -3.8994    5.0783   -2.7887 H   0  0  0  0  0  0  0  0  0  0  0  0
   -5.9964    6.9020   -4.0462 H   0  0  0  0  0  0  0  0  0  0  0  0
   -6.9570    5.4649   -3.3783 H   0  0  0  0  0  0  0  0  0  0  0  0
   -7.4563    8.4135   -2.8817 H   0  0  0  0  0  0  0  0  0  0  0  0
   -8.4907    7.2282   -3.7715 H   0  0  0  0  0  0  0  0  0  0  0  0
   -9.1471    5.0671   -0.7878 H   0  0  0  0  0  0  0  0  0  0  0  0
   -9.9449    5.5056   -2.3363 H   0  0  0  0  0  0  0  0  0  0  0  0
   -8.2505    4.9094   -2.3363 H   0  0  0  0  0  0  0  0  0  0  0  0
  1  2  1  0
  2  3  1  0
  3  4  1  0
  4  5  1  0
  5  6  1  0
  6  7  1  0
  7  8  1  0
  7  9  1  0
  2 10  1  0
 10 11  1  0
 11 12  1  0
 12 13  1  0
 13 14  1  1
 13 15  1  0
 15 16  1  0
 16 17  1  0
 17 18  2  0
 18 19  1  0
 19 20  1  0
 20 21  1  0
 21 22  1  0
 22 23  1  0
 22 24  1  0
 24 25  1  0
 24 26  1  0
 19 27  1  0
 27 28  1  6
 27 29  1  0
 29 30  1  0
 30 31  1  0
 31 32  1  6
  7  5  1  0
 31 10  1  0
 31 13  1  0
 27 15  1  0
 24 18  1  0
  1 33  1  0
  1 34  1  0
  1 35  1  0
  2 36  1  6
  3 37  1  0
  3 38  1  0
  4 39  1  0
  4 40  1  0
  5 41  1  1
  8 42  1  0
  8 43  1  0
  8 44  1  0
  9 45  1  0
  9 46  1  0
  9 47  1  0
 10 48  1  1
 11 49  1  0
 11 50  1  0
 12 51  1  0
 12 52  1  0
 14 53  1  0
 14 54  1  0
 14 55  1  0
 15 56  1  6
 16 57  1  0
 16 58  1  0
 17 59  1  0
 19 60  1  6
 20 61  1  0
 20 62  1  0
 21 63  1  0
 21 64  1  0
 22 65  1  6
 23 66  1  0
 25 67  1  0
 25 68  1  0
 25 69  1  0
 26 70  1  0
 26 71  1  0
 26 72  1  0
 28 73  1  0
 28 74  1  0
 28 75  1  0
 29 76  1  0
 29 77  1  0
 30 78  1  0
 30 79  1  0
 32 80  1  0
 32 81  1  0
 32 82  1  0
M  END
>  <meeko>  (20) 
{"is_sidechain": [false], "intermolecular_energy": 2.731, "internal_energy": -0.839}

$$$$
