EPH_relaxed_0001_pdb2pqr_Repair_54_r2_0001_out
     RDKit          3D

 82 86  0  0  0  0  0  0  0  0999 V2000
   -1.7030    8.5810   -1.8540 C   0  0  0  0  0  0  0  0  0  0  0  0
   -2.0920    9.1130   -0.4710 C   0  0  2  0  0  0  0  0  0  0  0  0
   -3.5860    9.4860   -0.3920 C   0  0  0  0  0  0  0  0  0  0  0  0
   -4.5130    8.2800   -0.2180 C   0  0  0  0  0  0  0  0  0  0  0  0
   -5.1960    7.9170   -1.5020 C   0  0  2  0  0  0  0  0  0  0  0  0
   -6.3490    8.7120   -1.8120 O   0  0  0  0  0  0  0  0  0  0  0  0
   -6.5880    7.3170   -1.5680 C   0  0  0  0  0  0  0  0  0  0  0  0
   -7.3790    7.0430   -0.3280 C   0  0  0  0  0  0  0  0  0  0  0  0
   -6.9790    6.5490   -2.7920 C   0  0  0  0  0  0  0  0  0  0  0  0
   -1.2330   10.3220   -0.1200 C   0  0  1  0  0  0  0  0  0  0  0  0
   -0.2050   10.0190    1.0030 C   0  0  0  0  0  0  0  0  0  0  0  0
    1.0660   10.8460    0.6810 C   0  0  0  0  0  0  0  0  0  0  0  0
    0.6170   11.8400   -0.4150 C   0  0  1  0  0  0  0  0  0  0  0  0
   -0.0920   12.9960    0.3580 C   0  0  0  0  0  0  0  0  0  0  0  0
    1.7400   12.3810   -1.3600 C   0  0  2  0  0  0  0  0  0  0  0  0
    2.8410   13.1980   -0.6630 C   0  0  0  0  0  0  0  0  0  0  0  0
    2.5910   14.6680   -0.5830 C   0  0  0  0  0  0  0  0  0  0  0  0
    1.6700   15.3440   -1.2950 C   0  0  0  0  0  0  0  0  0  0  0  0
    0.8280   14.6380   -2.3660 C   0  0  1  0  0  0  0  0  0  0  0  0
    0.8060   15.4990   -3.6560 C   0  0  0  0  0  0  0  0  0  0  0  0
    0.3420   16.9290   -3.3980 C   0  0  0  0  0  0  0  0  0  0  0  0
    1.2380   17.6160   -2.3710 C   0  0  2  0  0  0  0  0  0  0  0  0
    2.5420   17.7840   -2.9370 O   0  0  0  0  0  0  0  0  0  0  0  0
    1.3460   16.8350   -1.0320 C   0  0  0  0  0  0  0  0  0  0  0  0
   -0.0020   16.9130   -0.2740 C   0  0  0  0  0  0  0  0  0  0  0  0
    2.3880   17.5610   -0.1390 C   0  0  0  0  0  0  0  0  0  0  0  0
    1.2010   13.1200   -2.6510 C   0  0  1  0  0  0  0  0  0  0  0  0
    2.3370   13.0410   -3.7160 C   0  0  0  0  0  0  0  0  0  0  0  0
   -0.0470   12.3940   -3.2790 C   0  0  0  0  0  0  0  0  0  0  0  0
   -1.0600   11.7760   -2.2950 C   0  0  0  0  0  0  0  0  0  0  0  0
   -0.3490   10.9180   -1.2440 C   0  0  2  0  0  0  0  0  0  0  0  0
    0.3550    9.7330   -1.9900 C   0  0  0  0  0  0  0  0  0  0  0  0
   -1.0573    7.6979   -1.7389 H   0  0  0  0  0  0  0  0  0  0  0  0
   -2.6112    8.3014   -2.4081 H   0  0  0  0  0  0  0  0  0  0  0  0
   -1.1612    9.3617   -2.4081 H   0  0  0  0  0  0  0  0  0  0  0  0
   -1.9147    8.3073    0.2566 H   0  0  0  0  0  0  0  0  0  0  0  0
   -3.7305   10.1615    0.4641 H   0  0  0  0  0  0  0  0  0  0  0  0
   -3.8503    9.9592   -1.3492 H   0  0  0  0  0  0  0  0  0  0  0  0
   -3.9190    7.4202    0.1255 H   0  0  0  0  0  0  0  0  0  0  0  0
   -5.2856    8.5444    0.5190 H   0  0  0  0  0  0  0  0  0  0  0  0
   -4.2396    7.6140   -1.9531 H   0  0  0  0  0  0  0  0  0  0  0  0
   -6.7606    7.2572    0.5562 H   0  0  0  0  0  0  0  0  0  0  0  0
   -8.2729    7.6838   -0.3142 H   0  0  0  0  0  0  0  0  0  0  0  0
   -7.6850    5.9865   -0.3142 H   0  0  0  0  0  0  0  0  0  0  0  0
   -7.4595    5.6052   -2.4947 H   0  0  0  0  0  0  0  0  0  0  0  0
   -7.6828    7.1462   -3.3903 H   0  0  0  0  0  0  0  0  0  0  0  0
   -6.0820    6.3312   -3.3903 H   0  0  0  0  0  0  0  0  0  0  0  0
   -2.0239   11.0355    0.1547 H   0  0  0  0  0  0  0  0  0  0  0  0
   -0.6129   10.3165    1.9803 H   0  0  0  0  0  0  0  0  0  0  0  0
    0.0243    8.9442    1.0489 H   0  0  0  0  0  0  0  0  0  0  0  0
    1.4155   11.3846    1.5742 H   0  0  0  0  0  0  0  0  0  0  0  0
    1.9035   10.2130    0.3525 H   0  0  0  0  0  0  0  0  0  0  0  0
    0.0100   12.8297    1.4406 H   0  0  0  0  0  0  0  0  0  0  0  0
    0.3728   13.9560    0.0891 H   0  0  0  0  0  0  0  0  0  0  0  0
   -1.1584   13.0169    0.0891 H   0  0  0  0  0  0  0  0  0  0  0  0
    2.2262   11.4556   -1.7024 H   0  0  0  0  0  0  0  0  0  0  0  0
    2.9503   12.8156    0.3626 H   0  0  0  0  0  0  0  0  0  0  0  0
    3.7452   13.0763   -1.2775 H   0  0  0  0  0  0  0  0  0  0  0  0
    3.2116   15.2472    0.1166 H   0  0  0  0  0  0  0  0  0  0  0  0
   -0.1882   14.5590   -1.9525 H   0  0  0  0  0  0  0  0  0  0  0  0
    1.8217   15.5286   -4.0773 H   0  0  0  0  0  0  0  0  0  0  0  0
    0.0913   15.0371   -4.3531 H   0  0  0  0  0  0  0  0  0  0  0  0
    0.3762   17.4943   -4.3410 H   0  0  0  0  0  0  0  0  0  0  0  0
   -0.6847   16.8995   -3.0044 H   0  0  0  0  0  0  0  0  0  0  0  0
    0.7806   18.5871   -2.1308 H   0  0  0  0  0  0  0  0  0  0  0  0
    3.0990   17.0560   -2.6130 H   0  0  0  0  0  0  0  0  0  0  0  0
    0.1856   16.9021    0.8098 H   0  0  0  0  0  0  0  0  0  0  0  0
   -0.5227   17.8428   -0.5467 H   0  0  0  0  0  0  0  0  0  0  0  0
   -0.6265   16.0495   -0.5467 H   0  0  0  0  0  0  0  0  0  0  0  0
    2.1446   17.3914    0.9203 H   0  0  0  0  0  0  0  0  0  0  0  0
    3.3923   17.1661   -0.3523 H   0  0  0  0  0  0  0  0  0  0  0  0
    2.3654   18.6399   -0.3523 H   0  0  0  0  0  0  0  0  0  0  0  0
    3.3108   12.9733   -3.2090 H   0  0  0  0  0  0  0  0  0  0  0  0
    2.1885   12.1510   -4.3452 H   0  0  0  0  0  0  0  0  0  0  0  0
    2.3131   13.9430   -4.3452 H   0  0  0  0  0  0  0  0  0  0  0  0
   -0.5863   13.1305   -3.8928 H   0  0  0  0  0  0  0  0  0  0  0  0
    0.3671   11.5421   -3.8383 H   0  0  0  0  0  0  0  0  0  0  0  0
   -1.6089   12.5838   -1.7888 H   0  0  0  0  0  0  0  0  0  0  0  0
   -1.7529   11.1357   -2.8606 H   0  0  0  0  0  0  0  0  0  0  0  0
    0.7718    9.0314   -1.2525 H   0  0  0  0  0  0  0  0  0  0  0  0
   -0.3785    9.2092   -2.6206 H   0  0  0  0  0  0  0  0  0  0  0  0
    1.1658   10.1267   -2.6206 H   0  0  0  0  0  0  0  0  0  0  0  0
  1  2  1  0
  2  3  1  0
  3  4  1  0
  4  5  1  0
  5  6  1  0
  6  7  1  0
  7  8  1  0
  7  9  1  0
  2 10  1  0
 10 11  1  0
 11 12  1  0
 12 13  1  0
 13 14  1  1
 13 15  1  0
 15 16  1  0
 16 17  1  0
 17 18  2  0
 18 19  1  0
 19 20  1  0
 20 21  1  0
 21 22  1  0
 22 23  1  0
 22 24  1  0
 24 25  1  0
 24 26  1  0
 19 27  1  0
 27 28  1  6
 27 29  1  0
 29 30  1  0
 30 31  1  0
 31 32  1  6
  7  5  1  0
 31 10  1  0
 31 13  1  0
 27 15  1  0
 24 18  1  0
  1 33  1  0
  1 34  1  0
  1 35  1  0
  2 36  1  1
  3 37  1  0
  3 38  1  0
  4 39  1  0
  4 40  1  0
  5 41  1  6
  8 42  1  0
  8 43  1  0
  8 44  1  0
  9 45  1  0
  9 46  1  0
  9 47  1  0
 10 48  1  1
 11 49  1  0
 11 50  1  0
 12 51  1  0
 12 52  1  0
 14 53  1  0
 14 54  1  0
 14 55  1  0
 15 56  1  6
 16 57  1  0
 16 58  1  0
 17 59  1  0
 19 60  1  1
 20 61  1  0
 20 62  1  0
 21 63  1  0
 21 64  1  0
 22 65  1  1
 23 66  1  0
 25 67  1  0
 25 68  1  0
 25 69  1  0
 26 70  1  0
 26 71  1  0
 26 72  1  0
 28 73  1  0
 28 74  1  0
 28 75  1  0
 29 76  1  0
 29 77  1  0
 30 78  1  0
 30 79  1  0
 32 80  1  0
 32 81  1  0
 32 82  1  0
M  END
>  <meeko>  (1) 
{"is_sidechain": [false], "intermolecular_energy": 2.731, "internal_energy": -0.839}

$$$$
EPH_relaxed_0001_pdb2pqr_Repair_54_r2_0001_out
     RDKit          3D

 82 86  0  0  0  0  0  0  0  0999 V2000
    4.1810   17.6160   -0.5950 C   0  0  0  0  0  0  0  0  0  0  0  0
    2.8230   18.1680   -0.1530 C   0  0  2  0  0  0  0  0  0  0  0  0
    2.8910   18.8350    1.2350 C   0  0  0  0  0  0  0  0  0  0  0  0
    4.2650   18.7290    1.9020 C   0  0  0  0  0  0  0  0  0  0  0  0
    4.2550   19.3030    3.2870 C   0  0  2  0  0  0  0  0  0  0  0  0
    5.3410   20.1940    3.5730 O   0  0  0  0  0  0  0  0  0  0  0  0
    5.3020   18.9770    4.3350 C   0  0  0  0  0  0  0  0  0  0  0  0
    6.4320   18.0400    4.0450 C   0  0  0  0  0  0  0  0  0  0  0  0
    4.9570   19.1810    5.7780 C   0  0  0  0  0  0  0  0  0  0  0  0
    1.7860   17.0520   -0.1440 C   0  0  1  0  0  0  0  0  0  0  0  0
    0.3530   17.5640   -0.4510 C   0  0  0  0  0  0  0  0  0  0  0  0
   -0.3590   16.4480   -1.2570 C   0  0  0  0  0  0  0  0  0  0  0  0
    0.5580   15.2110   -1.1040 C   0  0  1  0  0  0  0  0  0  0  0  0
    0.1920   14.6120    0.2910 C   0  0  0  0  0  0  0  0  0  0  0  0
    0.4640   14.1370   -2.2360 C   0  0  2  0  0  0  0  0  0  0  0  0
   -0.9100   13.4610   -2.3830 C   0  0  0  0  0  0  0  0  0  0  0  0
   -1.0990   12.2190   -1.5760 C   0  0  0  0  0  0  0  0  0  0  0  0
   -0.1160   11.5110   -0.9890 C   0  0  0  0  0  0  0  0  0  0  0  0
    1.3570   11.8900   -1.1910 C   0  0  1  0  0  0  0  0  0  0  0  0
    2.1790   10.6150   -1.5140 C   0  0  0  0  0  0  0  0  0  0  0  0
    1.9970    9.5200   -0.4680 C   0  0  0  0  0  0  0  0  0  0  0  0
    0.5270    9.1290   -0.3380 C   0  0  2  0  0  0  0  0  0  0  0  0
    0.1060    8.5040   -1.5540 O   0  0  0  0  0  0  0  0  0  0  0  0
   -0.4020   10.3350   -0.0220 C   0  0  0  0  0  0  0  0  0  0  0  0
   -0.1460   10.8240    1.4250 C   0  0  0  0  0  0  0  0  0  0  0  0
   -1.8690    9.8300   -0.0570 C   0  0  0  0  0  0  0  0  0  0  0  0
    1.6340   13.0710   -2.2170 C   0  0  1  0  0  0  0  0  0  0  0  0
    1.7440   12.5040   -3.6650 C   0  0  0  0  0  0  0  0  0  0  0  0
    3.0300   13.7210   -1.8870 C   0  0  0  0  0  0  0  0  0  0  0  0
    3.0390   14.8580   -0.8470 C   0  0  0  0  0  0  0  0  0  0  0  0
    1.9670   15.9040   -1.1690 C   0  0  2  0  0  0  0  0  0  0  0  0
    2.3210   16.5400   -2.5560 C   0  0  0  0  0  0  0  0  0  0  0  0
    4.7836   17.3711    0.2921 H   0  0  0  0  0  0  0  0  0  0  0  0
    4.0293   16.7081   -1.1973 H   0  0  0  0  0  0  0  0  0  0  0  0
    4.7057   18.3722   -1.1973 H   0  0  0  0  0  0  0  0  0  0  0  0
    2.5295   18.9422   -0.8772 H   0  0  0  0  0  0  0  0  0  0  0  0
    2.6415   19.9003    1.1210 H   0  0  0  0  0  0  0  0  0  0  0  0
    2.1776   18.3039    1.8822 H   0  0  0  0  0  0  0  0  0  0  0  0
    4.5534   17.6689    1.9576 H   0  0  0  0  0  0  0  0  0  0  0  0
    4.9842   19.3022    1.2985 H   0  0  0  0  0  0  0  0  0  0  0  0
    3.1554   19.2850    3.3122 H   0  0  0  0  0  0  0  0  0  0  0  0
    6.8636   17.6821    4.9914 H   0  0  0  0  0  0  0  0  0  0  0  0
    6.0583   17.1832    3.4652 H   0  0  0  0  0  0  0  0  0  0  0  0
    7.2048   18.5659    3.4652 H   0  0  0  0  0  0  0  0  0  0  0  0
    5.7327   18.7223    6.4088 H   0  0  0  0  0  0  0  0  0  0  0  0
    4.8996   20.2584    5.9925 H   0  0  0  0  0  0  0  0  0  0  0  0
    3.9853   18.7121    5.9925 H   0  0  0  0  0  0  0  0  0  0  0  0
    1.9343   16.6723    0.8777 H   0  0  0  0  0  0  0  0  0  0  0  0
   -0.1886   17.7581    0.4866 H   0  0  0  0  0  0  0  0  0  0  0  0
    0.3838   18.5040   -1.0215 H   0  0  0  0  0  0  0  0  0  0  0  0
   -1.3571   16.2453   -0.8415 H   0  0  0  0  0  0  0  0  0  0  0  0
   -0.5118   16.7265   -2.3101 H   0  0  0  0  0  0  0  0  0  0  0  0
    0.5891   15.2619    1.0847 H   0  0  0  0  0  0  0  0  0  0  0  0
   -0.9018   14.5444    0.3855 H   0  0  0  0  0  0  0  0  0  0  0  0
    0.6310   13.6078    0.3855 H   0  0  0  0  0  0  0  0  0  0  0  0
    0.5973   14.7415   -3.1453 H   0  0  0  0  0  0  0  0  0  0  0  0
   -1.6796   14.1852   -2.0777 H   0  0  0  0  0  0  0  0  0  0  0  0
   -0.9872   13.1542   -3.4365 H   0  0  0  0  0  0  0  0  0  0  0  0
   -2.1282   11.8516   -1.4506 H   0  0  0  0  0  0  0  0  0  0  0  0
    1.6948   12.3203   -0.2367 H   0  0  0  0  0  0  0  0  0  0  0  0
    1.8567   10.2260   -2.4912 H   0  0  0  0  0  0  0  0  0  0  0  0
    3.2423   10.8965   -1.5205 H   0  0  0  0  0  0  0  0  0  0  0  0
    2.5796    8.6361   -0.7669 H   0  0  0  0  0  0  0  0  0  0  0  0
    2.3465    9.9004    0.5032 H   0  0  0  0  0  0  0  0  0  0  0  0
    0.4443    8.4372    0.5132 H   0  0  0  0  0  0  0  0  0  0  0  0
   -0.4720    9.1300   -2.0220 H   0  0  0  0  0  0  0  0  0  0  0  0
   -0.5348   10.0813    2.1372 H   0  0  0  0  0  0  0  0  0  0  0  0
    0.9350   10.9524    1.5828 H   0  0  0  0  0  0  0  0  0  0  0  0
   -0.6564   11.7856    1.5828 H   0  0  0  0  0  0  0  0  0  0  0  0
   -2.2377    9.7031    0.9716 H   0  0  0  0  0  0  0  0  0  0  0  0
   -2.4969   10.5637   -0.5837 H   0  0  0  0  0  0  0  0  0  0  0  0
   -1.9122    8.8653   -0.5837 H   0  0  0  0  0  0  0  0  0  0  0  0
    1.9533   11.4250   -3.6213 H   0  0  0  0  0  0  0  0  0  0  0  0
    0.7964   12.6724   -4.1977 H   0  0  0  0  0  0  0  0  0  0  0  0
    2.5598   13.0145   -4.1977 H   0  0  0  0  0  0  0  0  0  0  0  0
    3.6885   12.9231   -1.5133 H   0  0  0  0  0  0  0  0  0  0  0  0
    3.3591   14.1882   -2.8269 H   0  0  0  0  0  0  0  0  0  0  0  0
    2.8420   14.4358    0.1495 H   0  0  0  0  0  0  0  0  0  0  0  0
    4.0242   15.3468   -0.8701 H   0  0  0  0  0  0  0  0  0  0  0  0
    2.8505   17.4913   -2.3987 H   0  0  0  0  0  0  0  0  0  0  0  0
    2.9653   15.8509   -3.1216 H   0  0  0  0  0  0  0  0  0  0  0  0
    1.3958   16.7245   -3.1216 H   0  0  0  0  0  0  0  0  0  0  0  0
  1  2  1  0
  2  3  1  0
  3  4  1  0
  4  5  1  0
  5  6  1  0
  6  7  1  0
  7  8  1  0
  7  9  1  0
  2 10  1  0
 10 11  1  0
 11 12  1  0
 12 13  1  0
 13 14  1  1
 13 15  1  0
 15 16  1  0
 16 17  1  0
 17 18  2  0
 18 19  1  0
 19 20  1  0
 20 21  1  0
 21 22  1  0
 22 23  1  0
 22 24  1  0
 24 25  1  0
 24 26  1  0
 19 27  1  0
 27 28  1  6
 27 29  1  0
 29 30  1  0
 30 31  1  0
 31 32  1  6
  7  5  1  0
 31 10  1  0
 31 13  1  0
 27 15  1  0
 24 18  1  0
  1 33  1  0
  1 34  1  0
  1 35  1  0
  2 36  1  6
  3 37  1  0
  3 38  1  0
  4 39  1  0
  4 40  1  0
  5 41  1  1
  8 42  1  0
  8 43  1  0
  8 44  1  0
  9 45  1  0
  9 46  1  0
  9 47  1  0
 10 48  1  1
 11 49  1  0
 11 50  1  0
 12 51  1  0
 12 52  1  0
 14 53  1  0
 14 54  1  0
 14 55  1  0
 15 56  1  6
 16 57  1  0
 16 58  1  0
 17 59  1  0
 19 60  1  1
 20 61  1  0
 20 62  1  0
 21 63  1  0
 21 64  1  0
 22 65  1  1
 23 66  1  0
 25 67  1  0
 25 68  1  0
 25 69  1  0
 26 70  1  0
 26 71  1  0
 26 72  1  0
 28 73  1  0
 28 74  1  0
 28 75  1  0
 29 76  1  0
 29 77  1  0
 30 78  1  0
 30 79  1  0
 32 80  1  0
 32 81  1  0
 32 82  1  0
M  END
>  <meeko>  (2) 
{"is_sidechain": [false], "intermolecular_energy": 2.731, "internal_energy": -0.839}

$$$$
EPH_relaxed_0001_pdb2pqr_Repair_54_r2_0001_out
     RDKit          3D

 82 86  0  0  0  0  0  0  0  0999 V2000
    2.3250   17.9480   -2.7630 C   0  0  0  0  0  0  0  0  0  0  0  0
    1.0580   17.5590   -1.9960 C   0  0  2  0  0  0  0  0  0  0  0  0
    1.2660   17.6060   -0.4690 C   0  0  0  0  0  0  0  0  0  0  0  0
    0.9820   18.9770    0.1490 C   0  0  0  0  0  0  0  0  0  0  0  0
   -0.4500   19.1070    0.5720 C   0  0  2  0  0  0  0  0  0  0  0  0
   -1.3590   18.2370   -0.1140 O   0  0  0  0  0  0  0  0  0  0  0  0
   -1.5440   19.6460   -0.3310 C   0  0  0  0  0  0  0  0  0  0  0  0
   -1.2520   20.0890   -1.7300 C   0  0  0  0  0  0  0  0  0  0  0  0
   -2.7860   20.1940    0.2980 C   0  0  0  0  0  0  0  0  0  0  0  0
    0.6020   16.1670   -2.4180 C   0  0  1  0  0  0  0  0  0  0  0  0
    0.6650   15.9580   -3.9540 C   0  0  0  0  0  0  0  0  0  0  0  0
    1.0620   14.4770   -4.1880 C   0  0  0  0  0  0  0  0  0  0  0  0
    0.8910   13.8050   -2.8060 C   0  0  1  0  0  0  0  0  0  0  0  0
   -0.6370   13.5080   -2.6910 C   0  0  0  0  0  0  0  0  0  0  0  0
    1.7480   12.5230   -2.5500 C   0  0  2  0  0  0  0  0  0  0  0  0
    1.4470   11.3390   -3.4860 C   0  0  0  0  0  0  0  0  0  0  0  0
    0.3990   10.3930   -3.0010 C   0  0  0  0  0  0  0  0  0  0  0  0
   -0.0710   10.3260   -1.7410 C   0  0  0  0  0  0  0  0  0  0  0  0
    0.5290   11.1950   -0.6290 C   0  0  1  0  0  0  0  0  0  0  0  0
    0.7840   10.3230    0.6290 C   0  0  0  0  0  0  0  0  0  0  0  0
   -0.4640    9.5730    1.0840 C   0  0  0  0  0  0  0  0  0  0  0  0
   -0.9970    8.6760   -0.0300 C   0  0  2  0  0  0  0  0  0  0  0  0
   -0.0490    7.6320   -0.2740 O   0  0  0  0  0  0  0  0  0  0  0  0
   -1.2820    9.4430   -1.3510 C   0  0  0  0  0  0  0  0  0  0  0  0
   -2.5140   10.3620   -1.1640 C   0  0  0  0  0  0  0  0  0  0  0  0
   -1.6790    8.4010   -2.4320 C   0  0  0  0  0  0  0  0  0  0  0  0
    1.7950   12.0650   -1.0360 C   0  0  1  0  0  0  0  0  0  0  0  0
    3.0960   11.2230   -0.8650 C   0  0  0  0  0  0  0  0  0  0  0  0
    1.9210   13.2840   -0.0460 C   0  0  0  0  0  0  0  0  0  0  0  0
    1.1450   14.5620   -0.4160 C   0  0  0  0  0  0  0  0  0  0  0  0
    1.4060   14.9600   -1.8720 C   0  0  2  0  0  0  0  0  0  0  0  0
    2.9320   15.2860   -2.0130 C   0  0  0  0  0  0  0  0  0  0  0  0
    3.1250   18.1936   -2.0490 H   0  0  0  0  0  0  0  0  0  0  0  0
    2.6437   17.1063   -3.3955 H   0  0  0  0  0  0  0  0  0  0  0  0
    2.1165   18.8235   -3.3955 H   0  0  0  0  0  0  0  0  0  0  0  0
    0.2805   18.2961   -2.2454 H   0  0  0  0  0  0  0  0  0  0  0  0
    0.5939   16.8697   -0.0042 H   0  0  0  0  0  0  0  0  0  0  0  0
    2.3268   17.3829   -0.2822 H   0  0  0  0  0  0  0  0  0  0  0  0
    1.6277   19.1122    1.0292 H   0  0  0  0  0  0  0  0  0  0  0  0
    1.1868   19.7454   -0.6110 H   0  0  0  0  0  0  0  0  0  0  0  0
   -0.1475   19.3632    1.5981 H   0  0  0  0  0  0  0  0  0  0  0  0
   -0.6468   21.0072   -1.7051 H   0  0  0  0  0  0  0  0  0  0  0  0
   -0.6974   19.2985   -2.2567 H   0  0  0  0  0  0  0  0  0  0  0  0
   -2.1972   20.2870   -2.2567 H   0  0  0  0  0  0  0  0  0  0  0  0
   -2.6915   20.1523    1.3931 H   0  0  0  0  0  0  0  0  0  0  0  0
   -2.9273   21.2380   -0.0183 H   0  0  0  0  0  0  0  0  0  0  0  0
   -3.6524   19.5946   -0.0183 H   0  0  0  0  0  0  0  0  0  0  0  0
   -0.4121   16.1675   -1.9918 H   0  0  0  0  0  0  0  0  0  0  0  0
   -0.3173   16.1626   -4.4048 H   0  0  0  0  0  0  0  0  0  0  0  0
    1.3940   16.6401   -4.4159 H   0  0  0  0  0  0  0  0  0  0  0  0
    0.3994   14.0101   -4.9316 H   0  0  0  0  0  0  0  0  0  0  0  0
    2.0857   14.3758   -4.5775 H   0  0  0  0  0  0  0  0  0  0  0  0
   -0.9209   13.4528   -1.6297 H   0  0  0  0  0  0  0  0  0  0  0  0
   -1.2048   14.3126   -3.1811 H   0  0  0  0  0  0  0  0  0  0  0  0
   -0.8621   12.5493   -3.1811 H   0  0  0  0  0  0  0  0  0  0  0  0
    2.7612   12.8616   -2.8122 H   0  0  0  0  0  0  0  0  0  0  0  0
    1.1164   11.7458   -4.4531 H   0  0  0  0  0  0  0  0  0  0  0  0
    2.3778   10.7561   -3.5482 H   0  0  0  0  0  0  0  0  0  0  0  0
   -0.0250    9.6916   -3.7347 H   0  0  0  0  0  0  0  0  0  0  0  0
   -0.2247   11.9638   -0.4034 H   0  0  0  0  0  0  0  0  0  0  0  0
    1.5706    9.5901    0.3964 H   0  0  0  0  0  0  0  0  0  0  0  0
    1.0856   10.9954    1.4456 H   0  0  0  0  0  0  0  0  0  0  0  0
   -0.2130    8.9525    1.9569 H   0  0  0  0  0  0  0  0  0  0  0  0
   -1.2399   10.3077    1.3451 H   0  0  0  0  0  0  0  0  0  0  0  0
   -1.9604    8.2668    0.3082 H   0  0  0  0  0  0  0  0  0  0  0  0
   -0.2400    6.9090    0.3470 H   0  0  0  0  0  0  0  0  0  0  0  0
   -2.7054   10.5047   -0.0902 H   0  0  0  0  0  0  0  0  0  0  0  0
   -2.3189   11.3370   -1.6345 H   0  0  0  0  0  0  0  0  0  0  0  0
   -3.3930    9.8972   -1.6345 H   0  0  0  0  0  0  0  0  0  0  0  0
   -2.0297    7.4804   -1.9426 H   0  0  0  0  0  0  0  0  0  0  0  0
   -2.4835    8.8120   -3.0595 H   0  0  0  0  0  0  0  0  0  0  0  0
   -0.8049    8.1725   -3.0595 H   0  0  0  0  0  0  0  0  0  0  0  0
    3.3065   11.0868    0.2060 H   0  0  0  0  0  0  0  0  0  0  0  0
    2.9617   10.2401   -1.3402 H   0  0  0  0  0  0  0  0  0  0  0  0
    3.9377   11.7481   -1.3402 H   0  0  0  0  0  0  0  0  0  0  0  0
    1.5631   12.9509    0.9394 H   0  0  0  0  0  0  0  0  0  0  0  0
    2.9821   13.5721   -0.0777 H   0  0  0  0  0  0  0  0  0  0  0  0
    0.0685   14.3814   -0.2798 H   0  0  0  0  0  0  0  0  0  0  0  0
    1.4841   15.3796    0.2372 H   0  0  0  0  0  0  0  0  0  0  0  0
    3.3804   15.3818   -1.0131 H   0  0  0  0  0  0  0  0  0  0  0  0
    3.4311   14.4742   -2.5624 H   0  0  0  0  0  0  0  0  0  0  0  0
    3.0558   16.2309   -2.5624 H   0  0  0  0  0  0  0  0  0  0  0  0
  1  2  1  0
  2  3  1  0
  3  4  1  0
  4  5  1  0
  5  6  1  0
  6  7  1  0
  7  8  1  0
  7  9  1  0
  2 10  1  0
 10 11  1  0
 11 12  1  0
 12 13  1  0
 13 14  1  1
 13 15  1  0
 15 16  1  0
 16 17  1  0
 17 18  2  0
 18 19  1  0
 19 20  1  0
 20 21  1  0
 21 22  1  0
 22 23  1  0
 22 24  1  0
 24 25  1  0
 24 26  1  0
 19 27  1  0
 27 28  1  6
 27 29  1  0
 29 30  1  0
 30 31  1  0
 31 32  1  1
  7  5  1  0
 31 10  1  0
 31 13  1  0
 27 15  1  0
 24 18  1  0
  1 33  1  0
  1 34  1  0
  1 35  1  0
  2 36  1  1
  3 37  1  0
  3 38  1  0
  4 39  1  0
  4 40  1  0
  5 41  1  1
  8 42  1  0
  8 43  1  0
  8 44  1  0
  9 45  1  0
  9 46  1  0
  9 47  1  0
 10 48  1  1
 11 49  1  0
 11 50  1  0
 12 51  1  0
 12 52  1  0
 14 53  1  0
 14 54  1  0
 14 55  1  0
 15 56  1  6
 16 57  1  0
 16 58  1  0
 17 59  1  0
 19 60  1  1
 20 61  1  0
 20 62  1  0
 21 63  1  0
 21 64  1  0
 22 65  1  1
 23 66  1  0
 25 67  1  0
 25 68  1  0
 25 69  1  0
 26 70  1  0
 26 71  1  0
 26 72  1  0
 28 73  1  0
 28 74  1  0
 28 75  1  0
 29 76  1  0
 29 77  1  0
 30 78  1  0
 30 79  1  0
 32 80  1  0
 32 81  1  0
 32 82  1  0
M  END
>  <meeko>  (3) 
{"is_sidechain": [false], "intermolecular_energy": 2.731, "internal_energy": -0.839}

$$$$
EPH_relaxed_0001_pdb2pqr_Repair_54_r2_0001_out
     RDKit          3D

 82 86  0  0  0  0  0  0  0  0999 V2000
    0.3660   18.4740   -0.1470 C   0  0  0  0  0  0  0  0  0  0  0  0
    1.4520   17.4080   -0.3170 C   0  0  2  0  0  0  0  0  0  0  0  0
    2.6900   17.9520   -1.0590 C   0  0  0  0  0  0  0  0  0  0  0  0
    3.9090   18.1550   -0.1560 C   0  0  0  0  0  0  0  0  0  0  0  0
    3.5150   18.6410    1.2060 C   0  0  2  0  0  0  0  0  0  0  0  0
    3.7550   20.0350    1.4370 O   0  0  0  0  0  0  0  0  0  0  0  0
    4.5130   19.1200    2.2440 C   0  0  0  0  0  0  0  0  0  0  0  0
    5.9830   19.1360    1.9640 C   0  0  0  0  0  0  0  0  0  0  0  0
    4.1080   19.1090    3.6850 C   0  0  0  0  0  0  0  0  0  0  0  0
    0.8870   16.2040   -1.0610 C   0  0  1  0  0  0  0  0  0  0  0  0
    0.7720   16.4460   -2.5900 C   0  0  0  0  0  0  0  0  0  0  0  0
    1.0690   15.0910   -3.2810 C   0  0  0  0  0  0  0  0  0  0  0  0
    1.0170   14.0500   -2.1380 C   0  0  1  0  0  0  0  0  0  0  0  0
   -0.5020   13.7560   -1.9330 C   0  0  0  0  0  0  0  0  0  0  0  0
    1.8350   12.7370   -2.3620 C   0  0  2  0  0  0  0  0  0  0  0  0
    1.3770   11.8780   -3.5540 C   0  0  0  0  0  0  0  0  0  0  0  0
    0.3430   10.8480   -3.2380 C   0  0  0  0  0  0  0  0  0  0  0  0
    0.0100   10.4270   -2.0040 C   0  0  0  0  0  0  0  0  0  0  0  0
    0.7690   10.9290   -0.7690 C   0  0  1  0  0  0  0  0  0  0  0  0
    1.1180    9.7280    0.1480 C   0  0  0  0  0  0  0  0  0  0  0  0
   -0.1080    8.8960    0.5150 C   0  0  0  0  0  0  0  0  0  0  0  0
   -0.8020    8.3670   -0.7380 C   0  0  2  0  0  0  0  0  0  0  0  0
    0.0630    7.4240   -1.3800 O   0  0  0  0  0  0  0  0  0  0  0  0
   -1.1920    9.4870   -1.7420 C   0  0  0  0  0  0  0  0  0  0  0  0
   -2.3510   10.3310   -1.1550 C   0  0  0  0  0  0  0  0  0  0  0  0
   -1.7540    8.8080   -3.0200 C   0  0  0  0  0  0  0  0  0  0  0  0
    2.0240   11.8610   -1.0570 C   0  0  1  0  0  0  0  0  0  0  0  0
    3.2940   10.9860   -1.2890 C   0  0  0  0  0  0  0  0  0  0  0  0
    2.3160   12.7390    0.2160 C   0  0  0  0  0  0  0  0  0  0  0  0
    1.5660   14.0820    0.3210 C   0  0  0  0  0  0  0  0  0  0  0  0
    1.6860   14.8790   -0.9810 C   0  0  2  0  0  0  0  0  0  0  0  0
    3.2010   15.2090   -1.2030 C   0  0  0  0  0  0  0  0  0  0  0  0
    0.1881   18.6486    0.9244 H   0  0  0  0  0  0  0  0  0  0  0  0
    0.6940   19.4106   -0.6216 H   0  0  0  0  0  0  0  0  0  0  0  0
   -0.5643   18.1286   -0.6216 H   0  0  0  0  0  0  0  0  0  0  0  0
    1.7772   17.1046    0.6891 H   0  0  0  0  0  0  0  0  0  0  0  0
    2.9603   17.2394   -1.8522 H   0  0  0  0  0  0  0  0  0  0  0  0
    2.4172   18.9403   -1.4575 H   0  0  0  0  0  0  0  0  0  0  0  0
    4.4398   17.1971   -0.0530 H   0  0  0  0  0  0  0  0  0  0  0  0
    4.5552   18.9159   -0.6180 H   0  0  0  0  0  0  0  0  0  0  0  0
    2.6925   17.9122    1.2540 H   0  0  0  0  0  0  0  0  0  0  0  0
    6.5372   19.1420    2.9142 H   0  0  0  0  0  0  0  0  0  0  0  0
    6.2559   18.2408    1.3860 H   0  0  0  0  0  0  0  0  0  0  0  0
    6.2364   20.0370    1.3860 H   0  0  0  0  0  0  0  0  0  0  0  0
    5.0068   19.1334    4.3187 H   0  0  0  0  0  0  0  0  0  0  0  0
    3.4854   19.9906    3.8976 H   0  0  0  0  0  0  0  0  0  0  0  0
    3.5342   18.1949    3.8976 H   0  0  0  0  0  0  0  0  0  0  0  0
   -0.0731   16.0968   -0.5349 H   0  0  0  0  0  0  0  0  0  0  0  0
   -0.2426   16.7865   -2.8443 H   0  0  0  0  0  0  0  0  0  0  0  0
    1.4784   17.2214   -2.9213 H   0  0  0  0  0  0  0  0  0  0  0  0
    0.3078   14.8689   -4.0434 H   0  0  0  0  0  0  0  0  0  0  0  0
    2.0385   15.0916   -3.8007 H   0  0  0  0  0  0  0  0  0  0  0  0
   -0.7251   13.7128   -0.8567 H   0  0  0  0  0  0  0  0  0  0  0  0
   -1.0964   14.5558   -2.3989 H   0  0  0  0  0  0  0  0  0  0  0  0
   -0.7551   12.7922   -2.3989 H   0  0  0  0  0  0  0  0  0  0  0  0
    2.8286   13.1216   -2.6355 H   0  0  0  0  0  0  0  0  0  0  0  0
    0.9633   12.5514   -4.3191 H   0  0  0  0  0  0  0  0  0  0  0  0
    2.2661   11.3238   -3.8891 H   0  0  0  0  0  0  0  0  0  0  0  0
   -0.1918   10.3950   -4.0858 H   0  0  0  0  0  0  0  0  0  0  0  0
    0.0815   11.6105   -0.2467 H   0  0  0  0  0  0  0  0  0  0  0  0
    1.8385    9.0823   -0.3755 H   0  0  0  0  0  0  0  0  0  0  0  0
    1.5391   10.1314    1.0807 H   0  0  0  0  0  0  0  0  0  0  0  0
    0.2069    8.0461    1.1384 H   0  0  0  0  0  0  0  0  0  0  0  0
   -0.8146    9.5348    1.0651 H   0  0  0  0  0  0  0  0  0  0  0  0
   -1.7415    7.8918   -0.4194 H   0  0  0  0  0  0  0  0  0  0  0  0
    0.3860    6.8100   -0.6990 H   0  0  0  0  0  0  0  0  0  0  0  0
   -2.3077   10.2994   -0.0563 H   0  0  0  0  0  0  0  0  0  0  0  0
   -2.2554   11.3724   -1.4960 H   0  0  0  0  0  0  0  0  0  0  0  0
   -3.3128    9.9204   -1.4960 H   0  0  0  0  0  0  0  0  0  0  0  0
   -2.4311    7.9900   -2.7330 H   0  0  0  0  0  0  0  0  0  0  0  0
   -2.3064    9.5491   -3.6162 H   0  0  0  0  0  0  0  0  0  0  0  0
   -0.9227    8.4038   -3.6162 H   0  0  0  0  0  0  0  0  0  0  0  0
    3.7196   10.6928   -0.3180 H   0  0  0  0  0  0  0  0  0  0  0  0
    3.0195   10.0844   -1.8563 H   0  0  0  0  0  0  0  0  0  0  0  0
    4.0386   11.5636   -1.8563 H   0  0  0  0  0  0  0  0  0  0  0  0
    2.0525   12.1406    1.1006 H   0  0  0  0  0  0  0  0  0  0  0  0
    3.3799   13.0084    0.1420 H   0  0  0  0  0  0  0  0  0  0  0  0
    0.5033   13.8858    0.5263 H   0  0  0  0  0  0  0  0  0  0  0  0
    2.0128   14.6709    1.1356 H   0  0  0  0  0  0  0  0  0  0  0  0
    3.6993   15.3175   -0.2283 H   0  0  0  0  0  0  0  0  0  0  0  0
    3.6750   14.3930   -1.7683 H   0  0  0  0  0  0  0  0  0  0  0  0
    3.2927   16.1482   -1.7683 H   0  0  0  0  0  0  0  0  0  0  0  0
  1  2  1  0
  2  3  1  0
  3  4  1  0
  4  5  1  0
  5  6  1  0
  6  7  1  0
  7  8  1  0
  7  9  1  0
  2 10  1  0
 10 11  1  0
 11 12  1  0
 12 13  1  0
 13 14  1  1
 13 15  1  0
 15 16  1  0
 16 17  1  0
 17 18  2  0
 18 19  1  0
 19 20  1  0
 20 21  1  0
 21 22  1  0
 22 23  1  0
 22 24  1  0
 24 25  1  0
 24 26  1  0
 19 27  1  0
 27 28  1  6
 27 29  1  0
 29 30  1  0
 30 31  1  0
 31 32  1  6
  7  5  1  0
 31 10  1  0
 31 13  1  0
 27 15  1  0
 24 18  1  0
  1 33  1  0
  1 34  1  0
  1 35  1  0
  2 36  1  1
  3 37  1  0
  3 38  1  0
  4 39  1  0
  4 40  1  0
  5 41  1  1
  8 42  1  0
  8 43  1  0
  8 44  1  0
  9 45  1  0
  9 46  1  0
  9 47  1  0
 10 48  1  1
 11 49  1  0
 11 50  1  0
 12 51  1  0
 12 52  1  0
 14 53  1  0
 14 54  1  0
 14 55  1  0
 15 56  1  6
 16 57  1  0
 16 58  1  0
 17 59  1  0
 19 60  1  1
 20 61  1  0
 20 62  1  0
 21 63  1  0
 21 64  1  0
 22 65  1  1
 23 66  1  0
 25 67  1  0
 25 68  1  0
 25 69  1  0
 26 70  1  0
 26 71  1  0
 26 72  1  0
 28 73  1  0
 28 74  1  0
 28 75  1  0
 29 76  1  0
 29 77  1  0
 30 78  1  0
 30 79  1  0
 32 80  1  0
 32 81  1  0
 32 82  1  0
M  END
>  <meeko>  (4) 
{"is_sidechain": [false], "intermolecular_energy": 2.731, "internal_energy": -0.839}

$$$$
EPH_relaxed_0001_pdb2pqr_Repair_54_r2_0001_out
     RDKit          3D

 82 86  0  0  0  0  0  0  0  0999 V2000
    3.6760   18.0130    0.8260 C   0  0  0  0  0  0  0  0  0  0  0  0
    2.7150   18.4490   -0.2830 C   0  0  2  0  0  0  0  0  0  0  0  0
    1.9700   19.7510    0.0720 C   0  0  0  0  0  0  0  0  0  0  0  0
    0.8120   19.5490    1.0540 C   0  0  0  0  0  0  0  0  0  0  0  0
   -0.4640   20.1390    0.5350 C   0  0  2  0  0  0  0  0  0  0  0  0
   -1.5360   20.1760    1.4860 O   0  0  0  0  0  0  0  0  0  0  0  0
   -1.7370   19.3370    0.3380 C   0  0  0  0  0  0  0  0  0  0  0  0
   -1.7950   17.8750    0.6550 C   0  0  0  0  0  0  0  0  0  0  0  0
   -2.7690   19.8550   -0.6150 C   0  0  0  0  0  0  0  0  0  0  0  0
    1.7130   17.3360   -0.5700 C   0  0  1  0  0  0  0  0  0  0  0  0
    0.5660   17.7930   -1.5100 C   0  0  0  0  0  0  0  0  0  0  0  0
    0.1990   16.5730   -2.3930 C   0  0  0  0  0  0  0  0  0  0  0  0
    0.9040   15.3750   -1.7160 C   0  0  1  0  0  0  0  0  0  0  0  0
   -0.0380   14.9670   -0.5400 C   0  0  0  0  0  0  0  0  0  0  0  0
    1.2370   14.1570   -2.6380 C   0  0  2  0  0  0  0  0  0  0  0  0
    0.0160   13.4580   -3.2610 C   0  0  0  0  0  0  0  0  0  0  0  0
   -0.5540   12.3350   -2.4580 C   0  0  0  0  0  0  0  0  0  0  0  0
    0.0570   11.7190   -1.4300 C   0  0  0  0  0  0  0  0  0  0  0  0
    1.4980   12.0770   -1.0410 C   0  0  1  0  0  0  0  0  0  0  0  0
    2.3150   10.7760   -0.8270 C   0  0  0  0  0  0  0  0  0  0  0  0
    1.6580    9.8320    0.1750 C   0  0  0  0  0  0  0  0  0  0  0  0
    0.2490    9.4530   -0.2750 C   0  0  2  0  0  0  0  0  0  0  0  0
    0.3420    8.6650   -1.4660 O   0  0  0  0  0  0  0  0  0  0  0  0
   -0.6640   10.6840   -0.5320 C   0  0  0  0  0  0  0  0  0  0  0  0
   -1.0100   11.3660    0.8150 C   0  0  0  0  0  0  0  0  0  0  0  0
   -2.0070   10.1680   -1.1150 C   0  0  0  0  0  0  0  0  0  0  0  0
    2.2360   13.1110   -1.9960 C   0  0  1  0  0  0  0  0  0  0  0  0
    2.9100   12.3540   -3.1810 C   0  0  0  0  0  0  0  0  0  0  0  0
    3.3990   13.8090   -1.1960 C   0  0  0  0  0  0  0  0  0  0  0  0
    3.0320   15.0760   -0.4000 C   0  0  0  0  0  0  0  0  0  0  0  0
    2.2460   16.0620   -1.2710 C   0  0  2  0  0  0  0  0  0  0  0  0
    3.1770   16.5070   -2.4500 C   0  0  0  0  0  0  0  0  0  0  0  0
    3.2220   18.2190    1.8065 H   0  0  0  0  0  0  0  0  0  0  0  0
    3.8772   16.9355    0.7342 H   0  0  0  0  0  0  0  0  0  0  0  0
    4.6193   18.5713    0.7342 H   0  0  0  0  0  0  0  0  0  0  0  0
    3.3164   18.6485   -1.1822 H   0  0  0  0  0  0  0  0  0  0  0  0
    2.6892   20.4510    0.5223 H   0  0  0  0  0  0  0  0  0  0  0  0
    1.5362   20.1382   -0.8617 H   0  0  0  0  0  0  0  0  0  0  0  0
    0.6662   18.4709    1.2163 H   0  0  0  0  0  0  0  0  0  0  0  0
    1.0675   20.0582    1.9950 H   0  0  0  0  0  0  0  0  0  0  0  0
    0.0917   20.8165   -0.1300 H   0  0  0  0  0  0  0  0  0  0  0  0
   -1.8005   17.7364    1.7462 H   0  0  0  0  0  0  0  0  0  0  0  0
   -2.7110   17.4428    0.2259 H   0  0  0  0  0  0  0  0  0  0  0  0
   -0.9161   17.3716    0.2259 H   0  0  0  0  0  0  0  0  0  0  0  0
   -3.6117   20.2780   -0.0485 H   0  0  0  0  0  0  0  0  0  0  0  0
   -2.3238   20.6365   -1.2483 H   0  0  0  0  0  0  0  0  0  0  0  0
   -3.1297   19.0311   -1.2483 H   0  0  0  0  0  0  0  0  0  0  0  0
    1.4033   17.0975    0.4582 H   0  0  0  0  0  0  0  0  0  0  0  0
   -0.3060   18.1083   -0.9182 H   0  0  0  0  0  0  0  0  0  0  0  0
    0.8783   18.6480   -2.1276 H   0  0  0  0  0  0  0  0  0  0  0  0
   -0.8904   16.4218   -2.4129 H   0  0  0  0  0  0  0  0  0  0  0  0
    0.5135   16.7054   -3.4387 H   0  0  0  0  0  0  0  0  0  0  0  0
    0.4577   15.1817    0.4182 H   0  0  0  0  0  0  0  0  0  0  0  0
   -0.9747   15.5401   -0.6048 H   0  0  0  0  0  0  0  0  0  0  0  0
   -0.2608   13.8917   -0.6048 H   0  0  0  0  0  0  0  0  0  0  0  0
    1.7687   14.6335   -3.4748 H   0  0  0  0  0  0  0  0  0  0  0  0
   -0.7732   14.2116   -3.3997 H   0  0  0  0  0  0  0  0  0  0  0  0
    0.3683   13.0112   -4.2024 H   0  0  0  0  0  0  0  0  0  0  0  0
   -1.5593   11.9814   -2.7305 H   0  0  0  0  0  0  0  0  0  0  0  0
    1.4290   12.6336   -0.0947 H   0  0  0  0  0  0  0  0  0  0  0  0
    2.4097   10.2561   -1.7918 H   0  0  0  0  0  0  0  0  0  0  0  0
    3.2977   11.0610   -0.4231 H   0  0  0  0  0  0  0  0  0  0  0  0
    2.2659    8.9193    0.2617 H   0  0  0  0  0  0  0  0  0  0  0  0
    1.5906   10.3431    1.1467 H   0  0  0  0  0  0  0  0  0  0  0  0
   -0.2166    8.8833    0.5427 H   0  0  0  0  0  0  0  0  0  0  0  0
    0.3910    7.7320   -1.1990 H   0  0  0  0  0  0  0  0  0  0  0  0
   -0.6839   10.7232    1.6459 H   0  0  0  0  0  0  0  0  0  0  0  0
   -0.4950   12.3359    0.8778 H   0  0  0  0  0  0  0  0  0  0  0  0
   -2.0969   11.5232    0.8778 H   0  0  0  0  0  0  0  0  0  0  0  0
   -2.6878    9.9064   -0.2915 H   0  0  0  0  0  0  0  0  0  0  0  0
   -2.4646   10.9544   -1.7333 H   0  0  0  0  0  0  0  0  0  0  0  0
   -1.8203    9.2776   -1.7333 H   0  0  0  0  0  0  0  0  0  0  0  0
    3.5926   11.5874   -2.7855 H   0  0  0  0  0  0  0  0  0  0  0  0
    2.1357   11.8731   -3.7967 H   0  0  0  0  0  0  0  0  0  0  0  0
    3.4772   13.0676   -3.7967 H   0  0  0  0  0  0  0  0  0  0  0  0
    3.8011   13.0734   -0.4838 H   0  0  0  0  0  0  0  0  0  0  0  0
    4.1125   14.1470   -1.9619 H   0  0  0  0  0  0  0  0  0  0  0  0
    2.4167   14.7912    0.4662 H   0  0  0  0  0  0  0  0  0  0  0  0
    3.9607   15.5636   -0.0687 H   0  0  0  0  0  0  0  0  0  0  0  0
    4.0990   16.9477   -2.0429 H   0  0  0  0  0  0  0  0  0  0  0  0
    3.4301   15.6325   -3.0674 H   0  0  0  0  0  0  0  0  0  0  0  0
    2.6555   17.2532   -3.0674 H   0  0  0  0  0  0  0  0  0  0  0  0
  1  2  1  0
  2  3  1  0
  3  4  1  0
  4  5  1  0
  5  6  1  0
  6  7  1  0
  7  8  1  0
  7  9  1  0
  2 10  1  0
 10 11  1  0
 11 12  1  0
 12 13  1  0
 13 14  1  1
 13 15  1  0
 15 16  1  0
 16 17  1  0
 17 18  2  0
 18 19  1  0
 19 20  1  0
 20 21  1  0
 21 22  1  0
 22 23  1  0
 22 24  1  0
 24 25  1  0
 24 26  1  0
 19 27  1  0
 27 28  1  6
 27 29  1  0
 29 30  1  0
 30 31  1  0
 31 32  1  6
  7  5  1  0
 31 10  1  0
 31 13  1  0
 27 15  1  0
 24 18  1  0
  1 33  1  0
  1 34  1  0
  1 35  1  0
  2 36  1  6
  3 37  1  0
  3 38  1  0
  4 39  1  0
  4 40  1  0
  5 41  1  6
  8 42  1  0
  8 43  1  0
  8 44  1  0
  9 45  1  0
  9 46  1  0
  9 47  1  0
 10 48  1  1
 11 49  1  0
 11 50  1  0
 12 51  1  0
 12 52  1  0
 14 53  1  0
 14 54  1  0
 14 55  1  0
 15 56  1  6
 16 57  1  0
 16 58  1  0
 17 59  1  0
 19 60  1  1
 20 61  1  0
 20 62  1  0
 21 63  1  0
 21 64  1  0
 22 65  1  1
 23 66  1  0
 25 67  1  0
 25 68  1  0
 25 69  1  0
 26 70  1  0
 26 71  1  0
 26 72  1  0
 28 73  1  0
 28 74  1  0
 28 75  1  0
 29 76  1  0
 29 77  1  0
 30 78  1  0
 30 79  1  0
 32 80  1  0
 32 81  1  0
 32 82  1  0
M  END
>  <meeko>  (5) 
{"is_sidechain": [false], "intermolecular_energy": 2.731, "internal_energy": -0.839}

$$$$
EPH_relaxed_0001_pdb2pqr_Repair_54_r2_0001_out
     RDKit          3D

 82 86  0  0  0  0  0  0  0  0999 V2000
  -14.9830    6.3100    0.1730 C   0  0  0  0  0  0  0  0  0  0  0  0
  -13.7200    7.1070    0.5090 C   0  0  2  0  0  0  0  0  0  0  0  0
  -14.0290    8.5900    0.8000 C   0  0  0  0  0  0  0  0  0  0  0  0
  -14.9490    9.2410   -0.2350 C   0  0  0  0  0  0  0  0  0  0  0  0
  -14.3380   10.4790   -0.8200 C   0  0  2  0  0  0  0  0  0  0  0  0
  -15.2820   11.4780   -1.2280 O   0  0  0  0  0  0  0  0  0  0  0  0
  -14.4950   10.8840   -2.2730 C   0  0  0  0  0  0  0  0  0  0  0  0
  -15.2870   10.0520   -3.2330 C   0  0  0  0  0  0  0  0  0  0  0  0
  -13.4860   11.8130   -2.8710 C   0  0  0  0  0  0  0  0  0  0  0  0
  -12.7170    6.9990   -0.6330 C   0  0  1  0  0  0  0  0  0  0  0  0
  -13.0700    7.9250   -1.8280 C   0  0  0  0  0  0  0  0  0  0  0  0
  -11.7260    8.4150   -2.4260 C   0  0  0  0  0  0  0  0  0  0  0  0
  -10.6560    7.5050   -1.7790 C   0  0  1  0  0  0  0  0  0  0  0  0
  -10.6920    6.1870   -2.6140 C   0  0  0  0  0  0  0  0  0  0  0  0
   -9.2100    8.0930   -1.6910 C   0  0  2  0  0  0  0  0  0  0  0  0
   -8.5460    8.3990   -3.0450 C   0  0  0  0  0  0  0  0  0  0  0  0
   -7.7530    7.2800   -3.6330 C   0  0  0  0  0  0  0  0  0  0  0  0
   -7.3430    6.1800   -2.9740 C   0  0  0  0  0  0  0  0  0  0  0  0
   -7.5900    6.0270   -1.4680 C   0  0  1  0  0  0  0  0  0  0  0  0
   -6.2890    5.5430   -0.7760 C   0  0  0  0  0  0  0  0  0  0  0  0
   -5.7280    4.2730   -1.4070 C   0  0  0  0  0  0  0  0  0  0  0  0
   -5.4400    4.4830   -2.8920 C   0  0  2  0  0  0  0  0  0  0  0  0
   -4.3710    5.4230   -3.0250 O   0  0  0  0  0  0  0  0  0  0  0  0
   -6.6770    4.9800   -3.6910 C   0  0  0  0  0  0  0  0  0  0  0  0
   -7.7190    3.8400   -3.8000 C   0  0  0  0  0  0  0  0  0  0  0  0
   -6.2160    5.2870   -5.1420 C   0  0  0  0  0  0  0  0  0  0  0  0
   -8.2380    7.2830   -0.7400 C   0  0  1  0  0  0  0  0  0  0  0  0
   -7.1200    8.2760   -0.2970 C   0  0  0  0  0  0  0  0  0  0  0  0
   -8.9530    6.8020    0.5770 C   0  0  0  0  0  0  0  0  0  0  0  0
  -10.4180    6.3450    0.4460 C   0  0  0  0  0  0  0  0  0  0  0  0
  -11.2460    7.3770   -0.3270 C   0  0  2  0  0  0  0  0  0  0  0  0
  -11.2460    8.7070    0.5000 C   0  0  0  0  0  0  0  0  0  0  0  0
  -15.4780    5.9976    1.1043 H   0  0  0  0  0  0  0  0  0  0  0  0
  -15.6686    6.9394   -0.4134 H   0  0  0  0  0  0  0  0  0  0  0  0
  -14.7100    5.4203   -0.4134 H   0  0  0  0  0  0  0  0  0  0  0  0
  -13.2896    6.6734    1.4237 H   0  0  0  0  0  0  0  0  0  0  0  0
  -14.5127    8.6571    1.7856 H   0  0  0  0  0  0  0  0  0  0  0  0
  -13.0718    9.1308    0.7647 H   0  0  0  0  0  0  0  0  0  0  0  0
  -15.1403    8.5213   -1.0445 H   0  0  0  0  0  0  0  0  0  0  0  0
  -15.8844    9.5257    0.2689 H   0  0  0  0  0  0  0  0  0  0  0  0
  -13.4531   10.3745   -0.1749 H   0  0  0  0  0  0  0  0  0  0  0  0
  -15.9395    9.3665   -2.6724 H   0  0  0  0  0  0  0  0  0  0  0  0
  -15.9022   10.7083   -3.8660 H   0  0  0  0  0  0  0  0  0  0  0  0
  -14.6012    9.4698   -3.8660 H   0  0  0  0  0  0  0  0  0  0  0  0
  -12.9338   12.3214   -2.0669 H   0  0  0  0  0  0  0  0  0  0  0  0
  -12.7828   11.2395   -3.4929 H   0  0  0  0  0  0  0  0  0  0  0  0
  -13.9995   12.5610   -3.4929 H   0  0  0  0  0  0  0  0  0  0  0  0
  -12.7925    5.9218   -0.8425 H   0  0  0  0  0  0  0  0  0  0  0  0
  -13.6401    7.3662   -2.5848 H   0  0  0  0  0  0  0  0  0  0  0  0
  -13.6895    8.7731   -1.5011 H   0  0  0  0  0  0  0  0  0  0  0  0
  -11.7231    8.3005   -3.5200 H   0  0  0  0  0  0  0  0  0  0  0  0
  -11.5439    9.4810   -2.2247 H   0  0  0  0  0  0  0  0  0  0  0  0
  -10.7156    5.3227   -1.9340 H   0  0  0  0  0  0  0  0  0  0  0  0
  -11.5907    6.1792   -3.2483 H   0  0  0  0  0  0  0  0  0  0  0  0
   -9.7951    6.1302   -3.2483 H   0  0  0  0  0  0  0  0  0  0  0  0
   -9.3812    9.0700   -1.2154 H   0  0  0  0  0  0  0  0  0  0  0  0
   -9.3384    8.6663   -3.7596 H   0  0  0  0  0  0  0  0  0  0  0  0
   -7.8305    9.2129   -2.8562 H   0  0  0  0  0  0  0  0  0  0  0  0
   -7.4802    7.3608   -4.6956 H   0  0  0  0  0  0  0  0  0  0  0  0
   -8.3739    5.2622   -1.3650 H   0  0  0  0  0  0  0  0  0  0  0  0
   -5.5326    6.3381   -0.8518 H   0  0  0  0  0  0  0  0  0  0  0  0
   -6.5335    5.3150    0.2720 H   0  0  0  0  0  0  0  0  0  0  0  0
   -4.7942    3.9985   -0.8945 H   0  0  0  0  0  0  0  0  0  0  0  0
   -6.4734    3.4707   -1.3038 H   0  0  0  0  0  0  0  0  0  0  0  0
   -5.1646    3.5064   -3.3168 H   0  0  0  0  0  0  0  0  0  0  0  0
   -3.7130    5.2210   -2.3380 H   0  0  0  0  0  0  0  0  0  0  0  0
   -8.0150    3.5161   -2.7913 H   0  0  0  0  0  0  0  0  0  0  0  0
   -8.6041    4.2029   -4.3431 H   0  0  0  0  0  0  0  0  0  0  0  0
   -7.2782    2.9910   -4.3431 H   0  0  0  0  0  0  0  0  0  0  0  0
   -5.3007    5.8965   -5.1147 H   0  0  0  0  0  0  0  0  0  0  0  0
   -6.0126    4.3434   -5.6695 H   0  0  0  0  0  0  0  0  0  0  0  0
   -7.0082    5.8385   -5.6695 H   0  0  0  0  0  0  0  0  0  0  0  0
   -7.0774    8.3138    0.8015 H   0  0  0  0  0  0  0  0  0  0  0  0
   -6.1506    7.9358   -0.6900 H   0  0  0  0  0  0  0  0  0  0  0  0
   -7.3435    9.2788   -0.6900 H   0  0  0  0  0  0  0  0  0  0  0  0
   -8.3756    5.9565    0.9791 H   0  0  0  0  0  0  0  0  0  0  0  0
   -8.9858    7.6891    1.2266 H   0  0  0  0  0  0  0  0  0  0  0  0
  -10.4491    5.3845   -0.0892 H   0  0  0  0  0  0  0  0  0  0  0  0
  -10.8439    6.2370    1.4545 H   0  0  0  0  0  0  0  0  0  0  0  0
  -10.2089    9.0184    0.6936 H   0  0  0  0  0  0  0  0  0  0  0  0
  -11.7645    9.4926   -0.0691 H   0  0  0  0  0  0  0  0  0  0  0  0
  -11.7645    8.5441    1.4563 H   0  0  0  0  0  0  0  0  0  0  0  0
  1  2  1  0
  2  3  1  0
  3  4  1  0
  4  5  1  0
  5  6  1  0
  6  7  1  0
  7  8  1  0
  7  9  1  0
  2 10  1  0
 10 11  1  0
 11 12  1  0
 12 13  1  0
 13 14  1  6
 13 15  1  0
 15 16  1  0
 16 17  1  0
 17 18  2  0
 18 19  1  0
 19 20  1  0
 20 21  1  0
 21 22  1  0
 22 23  1  0
 22 24  1  0
 24 25  1  0
 24 26  1  0
 19 27  1  0
 27 28  1  1
 27 29  1  0
 29 30  1  0
 30 31  1  0
 31 32  1  1
  7  5  1  0
 31 10  1  0
 31 13  1  0
 27 15  1  0
 24 18  1  0
  1 33  1  0
  1 34  1  0
  1 35  1  0
  2 36  1  1
  3 37  1  0
  3 38  1  0
  4 39  1  0
  4 40  1  0
  5 41  1  1
  8 42  1  0
  8 43  1  0
  8 44  1  0
  9 45  1  0
  9 46  1  0
  9 47  1  0
 10 48  1  6
 11 49  1  0
 11 50  1  0
 12 51  1  0
 12 52  1  0
 14 53  1  0
 14 54  1  0
 14 55  1  0
 15 56  1  1
 16 57  1  0
 16 58  1  0
 17 59  1  0
 19 60  1  6
 20 61  1  0
 20 62  1  0
 21 63  1  0
 21 64  1  0
 22 65  1  6
 23 66  1  0
 25 67  1  0
 25 68  1  0
 25 69  1  0
 26 70  1  0
 26 71  1  0
 26 72  1  0
 28 73  1  0
 28 74  1  0
 28 75  1  0
 29 76  1  0
 29 77  1  0
 30 78  1  0
 30 79  1  0
 32 80  1  0
 32 81  1  0
 32 82  1  0
M  END
>  <meeko>  (6) 
{"is_sidechain": [false], "intermolecular_energy": 2.731, "internal_energy": -0.839}

$$$$
EPH_relaxed_0001_pdb2pqr_Repair_54_r2_0001_out
     RDKit          3D

 82 86  0  0  0  0  0  0  0  0999 V2000
   -5.1220    5.8980   -1.8310 C   0  0  0  0  0  0  0  0  0  0  0  0
   -5.4490    7.3940   -1.8380 C   0  0  2  0  0  0  0  0  0  0  0  0
   -5.2360    8.0410   -0.4550 C   0  0  0  0  0  0  0  0  0  0  0  0
   -4.1830    9.1530   -0.4510 C   0  0  0  0  0  0  0  0  0  0  0  0
   -2.8210    8.6280   -0.7910 C   0  0  2  0  0  0  0  0  0  0  0  0
   -1.7980    8.9590    0.1570 O   0  0  0  0  0  0  0  0  0  0  0  0
   -1.6490    9.5180   -1.1580 C   0  0  0  0  0  0  0  0  0  0  0  0
   -1.7850   11.0080   -1.2040 C   0  0  0  0  0  0  0  0  0  0  0  0
   -0.5180    8.9270   -1.9400 C   0  0  0  0  0  0  0  0  0  0  0  0
   -6.8860    7.6100   -2.2980 C   0  0  1  0  0  0  0  0  0  0  0  0
   -7.1920    6.9130   -3.6500 C   0  0  0  0  0  0  0  0  0  0  0  0
   -8.6630    6.4280   -3.5820 C   0  0  0  0  0  0  0  0  0  0  0  0
   -9.2520    7.1440   -2.3440 C   0  0  1  0  0  0  0  0  0  0  0  0
   -9.6150    8.5780   -2.8450 C   0  0  0  0  0  0  0  0  0  0  0  0
  -10.4710    6.4470   -1.6570 C   0  0  2  0  0  0  0  0  0  0  0  0
  -11.7270    6.3130   -2.5370 C   0  0  0  0  0  0  0  0  0  0  0  0
  -12.6890    7.4510   -2.4520 C   0  0  0  0  0  0  0  0  0  0  0  0
  -12.6970    8.3990   -1.4970 C   0  0  0  0  0  0  0  0  0  0  0  0
  -11.7290    8.3290   -0.3090 C   0  0  1  0  0  0  0  0  0  0  0  0
  -12.5040    8.6010    1.0070 C   0  0  0  0  0  0  0  0  0  0  0  0
  -13.2830    9.9120    0.9660 C   0  0  0  0  0  0  0  0  0  0  0  0
  -14.2760    9.9200   -0.1930 C   0  0  2  0  0  0  0  0  0  0  0  0
  -15.2860    8.9380    0.0580 O   0  0  0  0  0  0  0  0  0  0  0  0
  -13.6120    9.6470   -1.5710 C   0  0  0  0  0  0  0  0  0  0  0  0
  -12.7430   10.8620   -1.9810 C   0  0  0  0  0  0  0  0  0  0  0  0
  -14.7390    9.5420   -2.6330 C   0  0  0  0  0  0  0  0  0  0  0  0
  -10.8260    7.0230   -0.2270 C   0  0  1  0  0  0  0  0  0  0  0  0
  -11.5910    5.8950    0.5310 C   0  0  0  0  0  0  0  0  0  0  0  0
   -9.5420    7.3400    0.6270 C   0  0  0  0  0  0  0  0  0  0  0  0
   -8.3290    7.9160   -0.1300 C   0  0  0  0  0  0  0  0  0  0  0  0
   -8.0150    7.0830   -1.3760 C   0  0  2  0  0  0  0  0  0  0  0  0
   -7.6240    5.6410   -0.9020 C   0  0  0  0  0  0  0  0  0  0  0  0
   -5.0447    5.5444   -0.7922 H   0  0  0  0  0  0  0  0  0  0  0  0
   -5.9206    5.3457   -2.3479 H   0  0  0  0  0  0  0  0  0  0  0  0
   -4.1658    5.7293   -2.3479 H   0  0  0  0  0  0  0  0  0  0  0  0
   -4.7566    7.8807   -2.5407 H   0  0  0  0  0  0  0  0  0  0  0  0
   -6.1930    8.4677   -0.1202 H   0  0  0  0  0  0  0  0  0  0  0  0
   -4.8710    7.2503    0.2170 H   0  0  0  0  0  0  0  0  0  0  0  0
   -4.4665    9.9150   -1.1919 H   0  0  0  0  0  0  0  0  0  0  0  0
   -4.1421    9.5828    0.5607 H   0  0  0  0  0  0  0  0  0  0  0  0
   -3.2579    7.7447   -1.2797 H   0  0  0  0  0  0  0  0  0  0  0  0
   -1.8212   11.4047   -0.1787 H   0  0  0  0  0  0  0  0  0  0  0  0
   -0.9224   11.4387   -1.7336 H   0  0  0  0  0  0  0  0  0  0  0  0
   -2.7113   11.2755   -1.7336 H   0  0  0  0  0  0  0  0  0  0  0  0
    0.2393    8.5313   -1.2473 H   0  0  0  0  0  0  0  0  0  0  0  0
   -0.8970    8.1117   -2.5737 H   0  0  0  0  0  0  0  0  0  0  0  0
   -0.0651    9.7037   -2.5737 H   0  0  0  0  0  0  0  0  0  0  0  0
   -6.9063    8.7094   -2.3278 H   0  0  0  0  0  0  0  0  0  0  0  0
   -7.0659    7.6242   -4.4796 H   0  0  0  0  0  0  0  0  0  0  0  0
   -6.5065    6.0703   -3.8233 H   0  0  0  0  0  0  0  0  0  0  0  0
   -9.2090    6.7146   -4.4929 H   0  0  0  0  0  0  0  0  0  0  0  0
   -8.7386    5.3332   -3.5064 H   0  0  0  0  0  0  0  0  0  0  0  0
   -9.7819    9.2372   -1.9803 H   0  0  0  0  0  0  0  0  0  0  0  0
   -8.7887    8.9738   -3.4538 H   0  0  0  0  0  0  0  0  0  0  0  0
  -10.5301    8.5330   -3.4538 H   0  0  0  0  0  0  0  0  0  0  0  0
  -10.1017    5.4221   -1.5050 H   0  0  0  0  0  0  0  0  0  0  0  0
  -11.4007    6.2211   -3.5835 H   0  0  0  0  0  0  0  0  0  0  0  0
  -12.2667    5.4297   -2.1648 H   0  0  0  0  0  0  0  0  0  0  0  0
  -13.4567    7.5207   -3.2367 H   0  0  0  0  0  0  0  0  0  0  0  0
  -10.9855    9.1225   -0.4748 H   0  0  0  0  0  0  0  0  0  0  0  0
  -13.2111    7.7757    1.1770 H   0  0  0  0  0  0  0  0  0  0  0  0
  -11.7666    8.6757    1.8198 H   0  0  0  0  0  0  0  0  0  0  0  0
  -13.8320   10.0343    1.9113 H   0  0  0  0  0  0  0  0  0  0  0  0
  -12.5716   10.7390    0.8247 H   0  0  0  0  0  0  0  0  0  0  0  0
  -14.7092   10.9296   -0.2488 H   0  0  0  0  0  0  0  0  0  0  0  0
  -15.9080    9.3140    0.7030 H   0  0  0  0  0  0  0  0  0  0  0  0
  -12.3776   11.3729   -1.0779 H   0  0  0  0  0  0  0  0  0  0  0  0
  -11.8866   10.5155   -2.5781 H   0  0  0  0  0  0  0  0  0  0  0  0
  -13.3477   11.5605   -2.5781 H   0  0  0  0  0  0  0  0  0  0  0  0
  -15.7118    9.4514   -2.1276 H   0  0  0  0  0  0  0  0  0  0  0  0
  -14.7353   10.4444   -3.2620 H   0  0  0  0  0  0  0  0  0  0  0  0
  -14.5686    8.6558   -3.2620 H   0  0  0  0  0  0  0  0  0  0  0  0
  -11.4879    6.0470    1.6156 H   0  0  0  0  0  0  0  0  0  0  0  0
  -12.6556    5.9253    0.2560 H   0  0  0  0  0  0  0  0  0  0  0  0
  -11.1690    4.9171    0.2560 H   0  0  0  0  0  0  0  0  0  0  0  0
   -9.8280    8.0680    1.4004 H   0  0  0  0  0  0  0  0  0  0  0  0
   -9.2050    6.3665    1.0127 H   0  0  0  0  0  0  0  0  0  0  0  0
   -8.5523    8.9491   -0.4346 H   0  0  0  0  0  0  0  0  0  0  0  0
   -7.4551    7.8920    0.5376 H   0  0  0  0  0  0  0  0  0  0  0  0
   -7.6146    5.6064    0.1974 H   0  0  0  0  0  0  0  0  0  0  0  0
   -8.3583    4.9173   -1.2854 H   0  0  0  0  0  0  0  0  0  0  0  0
   -6.6247    5.3874   -1.2854 H   0  0  0  0  0  0  0  0  0  0  0  0
  1  2  1  0
  2  3  1  0
  3  4  1  0
  4  5  1  0
  5  6  1  0
  6  7  1  0
  7  8  1  0
  7  9  1  0
  2 10  1  0
 10 11  1  0
 11 12  1  0
 12 13  1  0
 13 14  1  6
 13 15  1  0
 15 16  1  0
 16 17  1  0
 17 18  2  0
 18 19  1  0
 19 20  1  0
 20 21  1  0
 21 22  1  0
 22 23  1  0
 22 24  1  0
 24 25  1  0
 24 26  1  0
 19 27  1  0
 27 28  1  1
 27 29  1  0
 29 30  1  0
 30 31  1  0
 31 32  1  1
  7  5  1  0
 31 10  1  0
 31 13  1  0
 27 15  1  0
 24 18  1  0
  1 33  1  0
  1 34  1  0
  1 35  1  0
  2 36  1  6
  3 37  1  0
  3 38  1  0
  4 39  1  0
  4 40  1  0
  5 41  1  6
  8 42  1  0
  8 43  1  0
  8 44  1  0
  9 45  1  0
  9 46  1  0
  9 47  1  0
 10 48  1  6
 11 49  1  0
 11 50  1  0
 12 51  1  0
 12 52  1  0
 14 53  1  0
 14 54  1  0
 14 55  1  0
 15 56  1  1
 16 57  1  0
 16 58  1  0
 17 59  1  0
 19 60  1  6
 20 61  1  0
 20 62  1  0
 21 63  1  0
 21 64  1  0
 22 65  1  6
 23 66  1  0
 25 67  1  0
 25 68  1  0
 25 69  1  0
 26 70  1  0
 26 71  1  0
 26 72  1  0
 28 73  1  0
 28 74  1  0
 28 75  1  0
 29 76  1  0
 29 77  1  0
 30 78  1  0
 30 79  1  0
 32 80  1  0
 32 81  1  0
 32 82  1  0
M  END
>  <meeko>  (7) 
{"is_sidechain": [false], "intermolecular_energy": 2.731, "internal_energy": -0.839}

$$$$
EPH_relaxed_0001_pdb2pqr_Repair_54_r2_0001_out
     RDKit          3D

 82 86  0  0  0  0  0  0  0  0999 V2000
    0.4600    8.8040   -2.3730 C   0  0  0  0  0  0  0  0  0  0  0  0
    1.1950    9.9490   -3.0750 C   0  0  2  0  0  0  0  0  0  0  0  0
    2.6970    9.9730   -2.7290 C   0  0  0  0  0  0  0  0  0  0  0  0
    3.5670   10.6220   -3.8090 C   0  0  0  0  0  0  0  0  0  0  0  0
    4.9670   10.8570   -3.3270 C   0  0  2  0  0  0  0  0  0  0  0  0
    5.5760   12.0580   -3.8180 O   0  0  0  0  0  0  0  0  0  0  0  0
    6.1810   10.8240   -4.2350 C   0  0  0  0  0  0  0  0  0  0  0  0
    6.0520   10.5480   -5.7010 C   0  0  0  0  0  0  0  0  0  0  0  0
    7.5250   10.5750   -3.6250 C   0  0  0  0  0  0  0  0  0  0  0  0
    0.5540   11.2820   -2.7060 C   0  0  1  0  0  0  0  0  0  0  0  0
   -0.8230   11.1110   -2.0110 C   0  0  0  0  0  0  0  0  0  0  0  0
   -0.9410   12.2480   -0.9650 C   0  0  0  0  0  0  0  0  0  0  0  0
    0.2080   13.2220   -1.3160 C   0  0  1  0  0  0  0  0  0  0  0  0
   -0.3410   14.0810   -2.4970 C   0  0  0  0  0  0  0  0  0  0  0  0
    0.7370   14.1170   -0.1480 C   0  0  2  0  0  0  0  0  0  0  0  0
   -0.2950   15.0920    0.4450 C   0  0  0  0  0  0  0  0  0  0  0  0
   -0.3400   16.4400   -0.1940 C   0  0  0  0  0  0  0  0  0  0  0  0
    0.6030   16.9520   -1.0080 C   0  0  0  0  0  0  0  0  0  0  0  0
    1.9050   16.1880   -1.2820 C   0  0  1  0  0  0  0  0  0  0  0  0
    3.1100   17.1560   -1.1490 C   0  0  0  0  0  0  0  0  0  0  0  0
    2.9640   18.3960   -2.0270 C   0  0  0  0  0  0  0  0  0  0  0  0
    1.6870   19.1590   -1.6840 C   0  0  2  0  0  0  0  0  0  0  0  0
    1.8110   19.6960   -0.3640 O   0  0  0  0  0  0  0  0  0  0  0  0
    0.4070   18.2830   -1.7740 C   0  0  0  0  0  0  0  0  0  0  0  0
    0.1060   17.9510   -3.2560 C   0  0  0  0  0  0  0  0  0  0  0  0
   -0.7900   19.1330   -1.2680 C   0  0  0  0  0  0  0  0  0  0  0  0
    2.1080   14.8450   -0.4580 C   0  0  1  0  0  0  0  0  0  0  0  0
    2.7660   15.1590    0.9200 C   0  0  0  0  0  0  0  0  0  0  0  0
    3.1170   13.9150   -1.2310 C   0  0  0  0  0  0  0  0  0  0  0  0
    2.5190   12.9680   -2.2890 C   0  0  0  0  0  0  0  0  0  0  0  0
    1.3270   12.1930   -1.7190 C   0  0  2  0  0  0  0  0  0  0  0  0
    1.8530   11.3020   -0.5430 C   0  0  0  0  0  0  0  0  0  0  0  0
    0.5409    8.9300   -1.2832 H   0  0  0  0  0  0  0  0  0  0  0  0
   -0.6003    8.8149   -2.6657 H   0  0  0  0  0  0  0  0  0  0  0  0
    0.9114    7.8445   -2.6657 H   0  0  0  0  0  0  0  0  0  0  0  0
    1.1085    9.7825   -4.1589 H   0  0  0  0  0  0  0  0  0  0  0  0
    2.8288   10.5351   -1.7927 H   0  0  0  0  0  0  0  0  0  0  0  0
    3.0231    8.9263   -2.6395 H   0  0  0  0  0  0  0  0  0  0  0  0
    3.5987    9.9597   -4.6867 H   0  0  0  0  0  0  0  0  0  0  0  0
    3.1249   11.5960   -4.0656 H   0  0  0  0  0  0  0  0  0  0  0  0
    4.7464   10.3582   -2.3717 H   0  0  0  0  0  0  0  0  0  0  0  0
    5.5905    9.5605   -5.8490 H   0  0  0  0  0  0  0  0  0  0  0  0
    5.4217   11.3206   -6.1655 H   0  0  0  0  0  0  0  0  0  0  0  0
    7.0490   10.5601   -6.1655 H   0  0  0  0  0  0  0  0  0  0  0  0
    7.4387   10.5910   -2.5285 H   0  0  0  0  0  0  0  0  0  0  0  0
    7.8984    9.5924   -3.9491 H   0  0  0  0  0  0  0  0  0  0  0  0
    8.2256   11.3586   -3.9491 H   0  0  0  0  0  0  0  0  0  0  0  0
    0.5162   11.7503   -3.7006 H   0  0  0  0  0  0  0  0  0  0  0  0
   -1.6331   11.1915   -2.7508 H   0  0  0  0  0  0  0  0  0  0  0  0
   -0.9034   10.1241   -1.5319 H   0  0  0  0  0  0  0  0  0  0  0  0
   -1.9156   12.7515   -1.0470 H   0  0  0  0  0  0  0  0  0  0  0  0
   -0.8703   11.8742    0.0671 H   0  0  0  0  0  0  0  0  0  0  0  0
   -0.8928   14.9444   -2.0969 H   0  0  0  0  0  0  0  0  0  0  0  0
    0.4981   14.4358   -3.1134 H   0  0  0  0  0  0  0  0  0  0  0  0
   -1.0154   13.4685   -3.1134 H   0  0  0  0  0  0  0  0  0  0  0  0
    0.9395   13.3785    0.6417 H   0  0  0  0  0  0  0  0  0  0  0  0
   -1.2906   14.6352    0.3450 H   0  0  0  0  0  0  0  0  0  0  0  0
    0.0102   15.2602    1.4884 H   0  0  0  0  0  0  0  0  0  0  0  0
   -1.2176   17.0685    0.0178 H   0  0  0  0  0  0  0  0  0  0  0  0
    1.8311   15.8225   -2.3169 H   0  0  0  0  0  0  0  0  0  0  0  0
    3.1921   17.4747   -0.0994 H   0  0  0  0  0  0  0  0  0  0  0  0
    4.0098   16.6166   -1.4798 H   0  0  0  0  0  0  0  0  0  0  0  0
    3.8307   19.0543   -1.8675 H   0  0  0  0  0  0  0  0  0  0  0  0
    2.9116   18.0778   -3.0787 H   0  0  0  0  0  0  0  0  0  0  0  0
    1.5714   19.9600   -2.4291 H   0  0  0  0  0  0  0  0  0  0  0  0
    2.5320   19.2190    0.0810 H   0  0  0  0  0  0  0  0  0  0  0  0
   -0.6321   17.1369   -3.3068 H   0  0  0  0  0  0  0  0  0  0  0  0
   -0.2973   18.8434   -3.7571 H   0  0  0  0  0  0  0  0  0  0  0  0
    1.0335   17.6368   -3.7571 H   0  0  0  0  0  0  0  0  0  0  0  0
   -0.7971   19.1380   -0.1680 H   0  0  0  0  0  0  0  0  0  0  0  0
   -0.6904   20.1638   -1.6388 H   0  0  0  0  0  0  0  0  0  0  0  0
   -1.7304   18.6992   -1.6388 H   0  0  0  0  0  0  0  0  0  0  0  0
    2.0934   14.8381    1.7291 H   0  0  0  0  0  0  0  0  0  0  0  0
    3.7212   14.6197    1.0016 H   0  0  0  0  0  0  0  0  0  0  0  0
    2.9476   16.2408    1.0016 H   0  0  0  0  0  0  0  0  0  0  0  0
    3.8452   14.5642   -1.7392 H   0  0  0  0  0  0  0  0  0  0  0  0
    3.5452   13.2542   -0.4629 H   0  0  0  0  0  0  0  0  0  0  0  0
    2.1834   13.5599   -3.1533 H   0  0  0  0  0  0  0  0  0  0  0  0
    3.2929   12.2479   -2.5930 H   0  0  0  0  0  0  0  0  0  0  0  0
    1.5803   11.7639    0.4173 H   0  0  0  0  0  0  0  0  0  0  0  0
    1.4006   10.3016   -0.6102 H   0  0  0  0  0  0  0  0  0  0  0  0
    2.9475   11.2148   -0.6102 H   0  0  0  0  0  0  0  0  0  0  0  0
  1  2  1  0
  2  3  1  0
  3  4  1  0
  4  5  1  0
  5  6  1  0
  6  7  1  0
  7  8  1  0
  7  9  1  0
  2 10  1  0
 10 11  1  0
 11 12  1  0
 12 13  1  0
 13 14  1  6
 13 15  1  0
 15 16  1  0
 16 17  1  0
 17 18  2  0
 18 19  1  0
 19 20  1  0
 20 21  1  0
 21 22  1  0
 22 23  1  0
 22 24  1  0
 24 25  1  0
 24 26  1  0
 19 27  1  0
 27 28  1  1
 27 29  1  0
 29 30  1  0
 30 31  1  0
 31 32  1  1
  7  5  1  0
 31 10  1  0
 31 13  1  0
 27 15  1  0
 24 18  1  0
  1 33  1  0
  1 34  1  0
  1 35  1  0
  2 36  1  6
  3 37  1  0
  3 38  1  0
  4 39  1  0
  4 40  1  0
  5 41  1  1
  8 42  1  0
  8 43  1  0
  8 44  1  0
  9 45  1  0
  9 46  1  0
  9 47  1  0
 10 48  1  6
 11 49  1  0
 11 50  1  0
 12 51  1  0
 12 52  1  0
 14 53  1  0
 14 54  1  0
 14 55  1  0
 15 56  1  1
 16 57  1  0
 16 58  1  0
 17 59  1  0
 19 60  1  6
 20 61  1  0
 20 62  1  0
 21 63  1  0
 21 64  1  0
 22 65  1  6
 23 66  1  0
 25 67  1  0
 25 68  1  0
 25 69  1  0
 26 70  1  0
 26 71  1  0
 26 72  1  0
 28 73  1  0
 28 74  1  0
 28 75  1  0
 29 76  1  0
 29 77  1  0
 30 78  1  0
 30 79  1  0
 32 80  1  0
 32 81  1  0
 32 82  1  0
M  END
>  <meeko>  (8) 
{"is_sidechain": [false], "intermolecular_energy": 2.731, "internal_energy": -0.839}

$$$$
EPH_relaxed_0001_pdb2pqr_Repair_54_r2_0001_out
     RDKit          3D

 82 86  0  0  0  0  0  0  0  0999 V2000
   -3.9850    7.2740   -3.3900 C   0  0  0  0  0  0  0  0  0  0  0  0
   -3.8680    7.3050   -1.8640 C   0  0  2  0  0  0  0  0  0  0  0  0
   -5.2240    7.0580   -1.1730 C   0  0  0  0  0  0  0  0  0  0  0  0
   -5.7960    5.6600   -1.4200 C   0  0  0  0  0  0  0  0  0  0  0  0
   -7.2230    5.7170   -1.8760 C   0  0  2  0  0  0  0  0  0  0  0  0
   -7.8280    4.4390   -2.1120 O   0  0  0  0  0  0  0  0  0  0  0  0
   -7.6760    5.2900   -3.2600 C   0  0  0  0  0  0  0  0  0  0  0  0
   -6.7050    4.7750   -4.2750 C   0  0  0  0  0  0  0  0  0  0  0  0
   -8.9700    5.8280   -3.7860 C   0  0  0  0  0  0  0  0  0  0  0  0
   -3.2890    8.6410   -1.4140 C   0  0  1  0  0  0  0  0  0  0  0  0
   -3.8850    9.1260   -0.0650 C   0  0  0  0  0  0  0  0  0  0  0  0
   -2.7450    9.8590    0.6890 C   0  0  0  0  0  0  0  0  0  0  0  0
   -1.6410   10.0620   -0.3750 C   0  0  1  0  0  0  0  0  0  0  0  0
   -2.0880   11.3210   -1.1810 C   0  0  0  0  0  0  0  0  0  0  0  0
   -0.1810   10.2100    0.1640 C   0  0  2  0  0  0  0  0  0  0  0  0
    0.0610   11.4320    1.0670 C   0  0  0  0  0  0  0  0  0  0  0  0
    0.4960   12.6720    0.3580 C   0  0  0  0  0  0  0  0  0  0  0  0
    0.9600   12.7300   -0.9040 C   0  0  0  0  0  0  0  0  0  0  0  0
    1.1760   11.4500   -1.7230 C   0  0  1  0  0  0  0  0  0  0  0  0
    2.5620   11.5080   -2.4170 C   0  0  0  0  0  0  0  0  0  0  0  0
    2.7470   12.7720   -3.2500 C   0  0  0  0  0  0  0  0  0  0  0  0
    2.5820   14.0220   -2.3890 C   0  0  2  0  0  0  0  0  0  0  0  0
    3.6600   14.0790   -1.4490 O   0  0  0  0  0  0  0  0  0  0  0  0
    1.2250   14.0700   -1.6320 C   0  0  0  0  0  0  0  0  0  0  0  0
    0.0750   14.3110   -2.6410 C   0  0  0  0  0  0  0  0  0  0  0  0
    1.2460   15.3060   -0.6940 C   0  0  0  0  0  0  0  0  0  0  0  0
    0.9370   10.0830   -0.9490 C   0  0  1  0  0  0  0  0  0  0  0  0
    2.2450    9.6490   -0.2190 C   0  0  0  0  0  0  0  0  0  0  0  0
    0.6150    8.9500   -1.9940 C   0  0  0  0  0  0  0  0  0  0  0  0
   -0.8620    8.7750   -2.3960 C   0  0  0  0  0  0  0  0  0  0  0  0
   -1.7620    8.7050   -1.1590 C   0  0  2  0  0  0  0  0  0  0  0  0
   -1.3510    7.4350   -0.3390 C   0  0  0  0  0  0  0  0  0  0  0  0
   -5.0124    7.0018   -3.6735 H   0  0  0  0  0  0  0  0  0  0  0  0
   -3.7434    8.2672   -3.7965 H   0  0  0  0  0  0  0  0  0  0  0  0
   -3.2833    6.5308   -3.7965 H   0  0  0  0  0  0  0  0  0  0  0  0
   -3.1928    6.4890   -1.5669 H   0  0  0  0  0  0  0  0  0  0  0  0
   -5.0908    7.1920   -0.0893 H   0  0  0  0  0  0  0  0  0  0  0  0
   -5.9380    7.7772   -1.6008 H   0  0  0  0  0  0  0  0  0  0  0  0
   -5.1943    5.1603   -2.1935 H   0  0  0  0  0  0  0  0  0  0  0  0
   -5.7611    5.1030   -0.4721 H   0  0  0  0  0  0  0  0  0  0  0  0
   -7.3979    6.6326   -1.2919 H   0  0  0  0  0  0  0  0  0  0  0  0
   -5.8454    4.3191   -3.7618 H   0  0  0  0  0  0  0  0  0  0  0  0
   -7.1986    4.0202   -4.9047 H   0  0  0  0  0  0  0  0  0  0  0  0
   -6.3570    5.6071   -4.9047 H   0  0  0  0  0  0  0  0  0  0  0  0
   -9.6235    6.0997   -2.9439 H   0  0  0  0  0  0  0  0  0  0  0  0
   -8.7739    6.7192   -4.4003 H   0  0  0  0  0  0  0  0  0  0  0  0
   -9.4635    5.0605   -4.4003 H   0  0  0  0  0  0  0  0  0  0  0  0
   -3.5508    9.2586   -2.2858 H   0  0  0  0  0  0  0  0  0  0  0  0
   -4.7232    9.8148   -0.2468 H   0  0  0  0  0  0  0  0  0  0  0  0
   -4.2689    8.2803    0.5244 H   0  0  0  0  0  0  0  0  0  0  0  0
   -3.0950   10.8277    1.0752 H   0  0  0  0  0  0  0  0  0  0  0  0
   -2.3863    9.2891    1.5588 H   0  0  0  0  0  0  0  0  0  0  0  0
   -2.3723   12.1217   -0.4824 H   0  0  0  0  0  0  0  0  0  0  0  0
   -1.2570   11.6649   -1.8144 H   0  0  0  0  0  0  0  0  0  0  0  0
   -2.9498   11.0639   -1.8144 H   0  0  0  0  0  0  0  0  0  0  0  0
   -0.0814    9.3313    0.8182 H   0  0  0  0  0  0  0  0  0  0  0  0
   -0.8771   11.6545    1.5967 H   0  0  0  0  0  0  0  0  0  0  0  0
    0.8897   11.1570    1.7360 H   0  0  0  0  0  0  0  0  0  0  0  0
    0.4318   13.6187    0.9145 H   0  0  0  0  0  0  0  0  0  0  0  0
    0.3792   11.4354   -2.4813 H   0  0  0  0  0  0  0  0  0  0  0  0
    3.3446   11.4772   -1.6446 H   0  0  0  0  0  0  0  0  0  0  0  0
    2.6306   10.6467   -3.0978 H   0  0  0  0  0  0  0  0  0  0  0  0
    3.7550   12.7686   -3.6903 H   0  0  0  0  0  0  0  0  0  0  0  0
    1.9821   12.7866   -4.0404 H   0  0  0  0  0  0  0  0  0  0  0  0
    2.5956   14.8914   -3.0628 H   0  0  0  0  0  0  0  0  0  0  0  0
    4.4500   13.7180   -1.8850 H   0  0  0  0  0  0  0  0  0  0  0  0
   -0.8585   14.5066   -2.0931 H   0  0  0  0  0  0  0  0  0  0  0  0
    0.3176   15.1778   -3.2733 H   0  0  0  0  0  0  0  0  0  0  0  0
   -0.0508   13.4197   -3.2733 H   0  0  0  0  0  0  0  0  0  0  0  0
    1.2403   14.9712    0.3538 H   0  0  0  0  0  0  0  0  0  0  0  0
    2.1543   15.8962   -0.8854 H   0  0  0  0  0  0  0  0  0  0  0  0
    0.3583   15.9267   -0.8854 H   0  0  0  0  0  0  0  0  0  0  0  0
    2.0918    9.6998    0.8691 H   0  0  0  0  0  0  0  0  0  0  0  0
    2.5001    8.6181   -0.5056 H   0  0  0  0  0  0  0  0  0  0  0  0
    3.0658   10.3230   -0.5056 H   0  0  0  0  0  0  0  0  0  0  0  0
    1.1851    9.1693   -2.9088 H   0  0  0  0  0  0  0  0  0  0  0  0
    0.8903    8.0100   -1.4934 H   0  0  0  0  0  0  0  0  0  0  0  0
   -1.1696    9.6293   -3.0170 H   0  0  0  0  0  0  0  0  0  0  0  0
   -0.9637    7.8346   -2.9575 H   0  0  0  0  0  0  0  0  0  0  0  0
   -1.4219    7.6542    0.7366 H   0  0  0  0  0  0  0  0  0  0  0  0
   -2.0257    6.6030   -0.5889 H   0  0  0  0  0  0  0  0  0  0  0  0
   -0.3167    7.1561   -0.5889 H   0  0  0  0  0  0  0  0  0  0  0  0
  1  2  1  0
  2  3  1  0
  3  4  1  0
  4  5  1  0
  5  6  1  0
  6  7  1  0
  7  8  1  0
  7  9  1  0
  2 10  1  0
 10 11  1  0
 11 12  1  0
 12 13  1  0
 13 14  1  6
 13 15  1  0
 15 16  1  0
 16 17  1  0
 17 18  2  0
 18 19  1  0
 19 20  1  0
 20 21  1  0
 21 22  1  0
 22 23  1  0
 22 24  1  0
 24 25  1  0
 24 26  1  0
 19 27  1  0
 27 28  1  1
 27 29  1  0
 29 30  1  0
 30 31  1  0
 31 32  1  1
  7  5  1  0
 31 10  1  0
 31 13  1  0
 27 15  1  0
 24 18  1  0
  1 33  1  0
  1 34  1  0
  1 35  1  0
  2 36  1  1
  3 37  1  0
  3 38  1  0
  4 39  1  0
  4 40  1  0
  5 41  1  1
  8 42  1  0
  8 43  1  0
  8 44  1  0
  9 45  1  0
  9 46  1  0
  9 47  1  0
 10 48  1  6
 11 49  1  0
 11 50  1  0
 12 51  1  0
 12 52  1  0
 14 53  1  0
 14 54  1  0
 14 55  1  0
 15 56  1  1
 16 57  1  0
 16 58  1  0
 17 59  1  0
 19 60  1  6
 20 61  1  0
 20 62  1  0
 21 63  1  0
 21 64  1  0
 22 65  1  6
 23 66  1  0
 25 67  1  0
 25 68  1  0
 25 69  1  0
 26 70  1  0
 26 71  1  0
 26 72  1  0
 28 73  1  0
 28 74  1  0
 28 75  1  0
 29 76  1  0
 29 77  1  0
 30 78  1  0
 30 79  1  0
 32 80  1  0
 32 81  1  0
 32 82  1  0
M  END
>  <meeko>  (9) 
{"is_sidechain": [false], "intermolecular_energy": 2.731, "internal_energy": -0.839}

$$$$
EPH_relaxed_0001_pdb2pqr_Repair_54_r2_0001_out
     RDKit          3D

 82 86  0  0  0  0  0  0  0  0999 V2000
   -0.8520   16.3490   -5.8410 C   0  0  0  0  0  0  0  0  0  0  0  0
    0.2350   15.6460   -6.6590 C   0  0  2  0  0  0  0  0  0  0  0  0
   -0.1720   15.4700   -8.1360 C   0  0  0  0  0  0  0  0  0  0  0  0
    0.4660   16.4960   -9.0770 C   0  0  0  0  0  0  0  0  0  0  0  0
    1.8670   16.1120   -9.4470 C   0  0  2  0  0  0  0  0  0  0  0  0
    2.3340   16.6700  -10.6820 O   0  0  0  0  0  0  0  0  0  0  0  0
    2.2080   15.2400  -10.6400 C   0  0  0  0  0  0  0  0  0  0  0  0
    1.1420   14.6960  -11.5390 C   0  0  0  0  0  0  0  0  0  0  0  0
    3.5200   14.5190  -10.6480 C   0  0  0  0  0  0  0  0  0  0  0  0
    0.5540   14.2900   -6.0410 C   0  0  1  0  0  0  0  0  0  0  0  0
    1.8210   13.6370   -6.6560 C   0  0  0  0  0  0  0  0  0  0  0  0
    2.5280   12.8670   -5.5110 C   0  0  0  0  0  0  0  0  0  0  0  0
    1.4850   12.8230   -4.3690 C   0  0  1  0  0  0  0  0  0  0  0  0
    0.5310   11.6450   -4.7430 C   0  0  0  0  0  0  0  0  0  0  0  0
    2.0530   12.6680   -2.9210 C   0  0  2  0  0  0  0  0  0  0  0  0
    2.8240   11.3630   -2.6580 C   0  0  0  0  0  0  0  0  0  0  0  0
    1.9990   10.2260   -2.1540 C   0  0  0  0  0  0  0  0  0  0  0  0
    0.7540   10.3250   -1.6510 C   0  0  0  0  0  0  0  0  0  0  0  0
    0.0880   11.6940   -1.4620 C   0  0  1  0  0  0  0  0  0  0  0  0
   -0.5620   11.7640   -0.0550 C   0  0  0  0  0  0  0  0  0  0  0  0
   -1.5220   10.6070    0.2040 C   0  0  0  0  0  0  0  0  0  0  0  0
   -0.8090    9.2640    0.0630 C   0  0  2  0  0  0  0  0  0  0  0  0
    0.1540    9.1420    1.1140 O   0  0  0  0  0  0  0  0  0  0  0  0
   -0.1080    9.0840   -1.3120 C   0  0  0  0  0  0  0  0  0  0  0  0
   -1.1750    8.9150   -2.4220 C   0  0  0  0  0  0  0  0  0  0  0  0
    0.6900    7.7530   -1.2700 C   0  0  0  0  0  0  0  0  0  0  0  0
    0.9990   12.9580   -1.7770 C   0  0  1  0  0  0  0  0  0  0  0  0
    1.8150   13.3540   -0.5090 C   0  0  0  0  0  0  0  0  0  0  0  0
    0.0740   14.1870   -2.1120 C   0  0  0  0  0  0  0  0  0  0  0  0
   -0.3560   14.3530   -3.5830 C   0  0  0  0  0  0  0  0  0  0  0  0
    0.8510   14.2530   -4.5210 C   0  0  2  0  0  0  0  0  0  0  0  0
    1.8180   15.4390   -4.1840 C   0  0  0  0  0  0  0  0  0  0  0  0
   -0.6471   16.2165   -4.7684 H   0  0  0  0  0  0  0  0  0  0  0  0
   -0.8571   17.4219   -6.0835 H   0  0  0  0  0  0  0  0  0  0  0  0
   -1.8326   15.9136   -6.0835 H   0  0  0  0  0  0  0  0  0  0  0  0
    1.1306   16.2843   -6.6378 H   0  0  0  0  0  0  0  0  0  0  0  0
    0.1310   14.4641   -8.4622 H   0  0  0  0  0  0  0  0  0  0  0  0
   -1.2606   15.6184   -8.1893 H   0  0  0  0  0  0  0  0  0  0  0  0
   -0.1389   16.5641   -9.9932 H   0  0  0  0  0  0  0  0  0  0  0  0
    0.5017   17.4640   -8.5558 H   0  0  0  0  0  0  0  0  0  0  0  0
    2.1573   16.0587   -8.3873 H   0  0  0  0  0  0  0  0  0  0  0  0
    0.3261   14.2796  -10.9300 H   0  0  0  0  0  0  0  0  0  0  0  0
    0.7500   15.5043  -12.1738 H   0  0  0  0  0  0  0  0  0  0  0  0
    1.5665   13.9043  -12.1738 H   0  0  0  0  0  0  0  0  0  0  0  0
    3.8462   14.3397   -9.6129 H   0  0  0  0  0  0  0  0  0  0  0  0
    3.4064   13.5566  -11.1685 H   0  0  0  0  0  0  0  0  0  0  0  0
    4.2715   15.1309  -11.1685 H   0  0  0  0  0  0  0  0  0  0  0  0
   -0.3887   13.7643   -6.2529 H   0  0  0  0  0  0  0  0  0  0  0  0
    1.5368   12.9426   -7.4604 H   0  0  0  0  0  0  0  0  0  0  0  0
    2.4864   14.3979   -7.0900 H   0  0  0  0  0  0  0  0  0  0  0  0
    2.7940   11.8495   -5.8335 H   0  0  0  0  0  0  0  0  0  0  0  0
    3.4665   13.3496   -5.2008 H   0  0  0  0  0  0  0  0  0  0  0  0
    0.1506   11.1753   -3.8239 H   0  0  0  0  0  0  0  0  0  0  0  0
   -0.3128   12.0301   -5.3343 H   0  0  0  0  0  0  0  0  0  0  0  0
    1.0831   10.8996   -5.3343 H   0  0  0  0  0  0  0  0  0  0  0  0
    2.8030   13.4713   -2.8750 H   0  0  0  0  0  0  0  0  0  0  0  0
    3.2941   11.0498   -3.6019 H   0  0  0  0  0  0  0  0  0  0  0  0
    3.5466   11.5917   -1.8608 H   0  0  0  0  0  0  0  0  0  0  0  0
    2.4460    9.2219   -2.1971 H   0  0  0  0  0  0  0  0  0  0  0  0
   -0.6901   11.7629   -2.2365 H   0  0  0  0  0  0  0  0  0  0  0  0
    0.2346   11.7377    0.7031 H   0  0  0  0  0  0  0  0  0  0  0  0
   -1.1416   12.6973   -0.0010 H   0  0  0  0  0  0  0  0  0  0  0  0
   -1.9252   10.6952    1.2236 H   0  0  0  0  0  0  0  0  0  0  0  0
   -2.3344   10.6525   -0.5362 H   0  0  0  0  0  0  0  0  0  0  0  0
   -1.5730    8.4755    0.1304 H   0  0  0  0  0  0  0  0  0  0  0  0
    0.9690    9.5820    0.8190 H   0  0  0  0  0  0  0  0  0  0  0  0
   -2.1616    8.7587   -1.9614 H   0  0  0  0  0  0  0  0  0  0  0  0
   -1.2011    9.8202   -3.0464 H   0  0  0  0  0  0  0  0  0  0  0  0
   -0.9201    8.0460   -3.0464 H   0  0  0  0  0  0  0  0  0  0  0  0
    0.8640    7.4627   -0.2234 H   0  0  0  0  0  0  0  0  0  0  0  0
    0.1154    6.9648   -1.7784 H   0  0  0  0  0  0  0  0  0  0  0  0
    1.6560    7.8884   -1.7784 H   0  0  0  0  0  0  0  0  0  0  0  0
    1.2480   13.0789    0.3926 H   0  0  0  0  0  0  0  0  0  0  0  0
    2.7785   12.8233   -0.5125 H   0  0  0  0  0  0  0  0  0  0  0  0
    1.9942   14.4393   -0.5125 H   0  0  0  0  0  0  0  0  0  0  0  0
   -0.8397   14.0904   -1.5071 H   0  0  0  0  0  0  0  0  0  0  0  0
    0.6833   15.0751   -1.8884 H   0  0  0  0  0  0  0  0  0  0  0  0
   -1.0770   13.5626   -3.8387 H   0  0  0  0  0  0  0  0  0  0  0  0
   -0.8140   15.3456   -3.7049 H   0  0  0  0  0  0  0  0  0  0  0  0
    1.9033   15.5437   -3.0923 H   0  0  0  0  0  0  0  0  0  0  0  0
    2.8108   15.2354   -4.6116 H   0  0  0  0  0  0  0  0  0  0  0  0
    1.4187   16.3705   -4.6116 H   0  0  0  0  0  0  0  0  0  0  0  0
  1  2  1  0
  2  3  1  0
  3  4  1  0
  4  5  1  0
  5  6  1  0
  6  7  1  0
  7  8  1  0
  7  9  1  0
  2 10  1  0
 10 11  1  0
 11 12  1  0
 12 13  1  0
 13 14  1  6
 13 15  1  0
 15 16  1  0
 16 17  1  0
 17 18  2  0
 18 19  1  0
 19 20  1  0
 20 21  1  0
 21 22  1  0
 22 23  1  0
 22 24  1  0
 24 25  1  0
 24 26  1  0
 19 27  1  0
 27 28  1  1
 27 29  1  0
 29 30  1  0
 30 31  1  0
 31 32  1  1
  7  5  1  0
 31 10  1  0
 31 13  1  0
 27 15  1  0
 24 18  1  0
  1 33  1  0
  1 34  1  0
  1 35  1  0
  2 36  1  6
  3 37  1  0
  3 38  1  0
  4 39  1  0
  4 40  1  0
  5 41  1  1
  8 42  1  0
  8 43  1  0
  8 44  1  0
  9 45  1  0
  9 46  1  0
  9 47  1  0
 10 48  1  1
 11 49  1  0
 11 50  1  0
 12 51  1  0
 12 52  1  0
 14 53  1  0
 14 54  1  0
 14 55  1  0
 15 56  1  6
 16 57  1  0
 16 58  1  0
 17 59  1  0
 19 60  1  6
 20 61  1  0
 20 62  1  0
 21 63  1  0
 21 64  1  0
 22 65  1  1
 23 66  1  0
 25 67  1  0
 25 68  1  0
 25 69  1  0
 26 70  1  0
 26 71  1  0
 26 72  1  0
 28 73  1  0
 28 74  1  0
 28 75  1  0
 29 76  1  0
 29 77  1  0
 30 78  1  0
 30 79  1  0
 32 80  1  0
 32 81  1  0
 32 82  1  0
M  END
>  <meeko>  (10) 
{"is_sidechain": [false], "intermolecular_energy": 2.731, "internal_energy": -0.839}

$$$$
EPH_relaxed_0001_pdb2pqr_Repair_54_r2_0001_out
     RDKit          3D

 82 86  0  0  0  0  0  0  0  0999 V2000
   -0.2860   15.0810   -7.6210 C   0  0  0  0  0  0  0  0  0  0  0  0
    1.0860   15.0630   -6.9430 C   0  0  2  0  0  0  0  0  0  0  0  0
    2.2390   15.1560   -7.9620 C   0  0  0  0  0  0  0  0  0  0  0  0
    2.2750   16.4790   -8.7310 C   0  0  0  0  0  0  0  0  0  0  0  0
    1.8790   16.2980  -10.1650 C   0  0  2  0  0  0  0  0  0  0  0  0
    1.1960   15.0700  -10.4470 O   0  0  0  0  0  0  0  0  0  0  0  0
    2.4780   15.2400  -11.0720 C   0  0  0  0  0  0  0  0  0  0  0  0
    3.5260   14.2920  -10.5780 C   0  0  0  0  0  0  0  0  0  0  0  0
    2.4050   15.4410  -12.5530 C   0  0  0  0  0  0  0  0  0  0  0  0
    1.2340   13.7990   -6.1030 C   0  0  1  0  0  0  0  0  0  0  0  0
    2.6670   13.2060   -6.1640 C   0  0  0  0  0  0  0  0  0  0  0  0
    2.9610   12.6040   -4.7660 C   0  0  0  0  0  0  0  0  0  0  0  0
    1.5870   12.5710   -4.0580 C   0  0  1  0  0  0  0  0  0  0  0  0
    0.8850   11.2880   -4.6020 C   0  0  0  0  0  0  0  0  0  0  0  0
    1.6140   12.5960   -2.4950 C   0  0  2  0  0  0  0  0  0  0  0  0
    2.3060   11.3900   -1.8350 C   0  0  0  0  0  0  0  0  0  0  0  0
    1.4130   10.2350   -1.5220 C   0  0  0  0  0  0  0  0  0  0  0  0
    0.0680   10.2710   -1.4970 C   0  0  0  0  0  0  0  0  0  0  0  0
   -0.6890   11.5890   -1.7060 C   0  0  1  0  0  0  0  0  0  0  0  0
   -1.7960   11.7270   -0.6280 C   0  0  0  0  0  0  0  0  0  0  0  0
   -2.7280   10.5190   -0.5880 C   0  0  0  0  0  0  0  0  0  0  0  0
   -1.9460    9.2360   -0.3200 C   0  0  2  0  0  0  0  0  0  0  0  0
   -1.4110    9.2900    1.0060 O   0  0  0  0  0  0  0  0  0  0  0  0
   -0.7960    8.9950   -1.3380 C   0  0  0  0  0  0  0  0  0  0  0  0
   -1.3930    8.6370   -2.7220 C   0  0  0  0  0  0  0  0  0  0  0  0
    0.0010    7.7470   -0.8730 C   0  0  0  0  0  0  0  0  0  0  0  0
    0.2100   12.8930   -1.8270 C   0  0  1  0  0  0  0  0  0  0  0  0
    0.5060   13.4700   -0.4080 C   0  0  0  0  0  0  0  0  0  0  0  0
   -0.5960   14.0040   -2.5980 C   0  0  0  0  0  0  0  0  0  0  0  0
   -0.4870   14.0010   -4.1350 C   0  0  0  0  0  0  0  0  0  0  0  0
    0.9770   13.9230   -4.5810 C   0  0  2  0  0  0  0  0  0  0  0  0
    1.7030   15.2120   -4.0660 C   0  0  0  0  0  0  0  0  0  0  0  0
   -1.0741   15.0913   -6.8537 H   0  0  0  0  0  0  0  0  0  0  0  0
   -0.3732   15.9804   -8.2483 H   0  0  0  0  0  0  0  0  0  0  0  0
   -0.3968   14.1842   -8.2483 H   0  0  0  0  0  0  0  0  0  0  0  0
    1.1463   15.9498   -6.2949 H   0  0  0  0  0  0  0  0  0  0  0  0
    3.1903   15.0425   -7.4214 H   0  0  0  0  0  0  0  0  0  0  0  0
    2.0792   14.3581   -8.7021 H   0  0  0  0  0  0  0  0  0  0  0  0
    1.5796   17.1865   -8.2558 H   0  0  0  0  0  0  0  0  0  0  0  0
    3.3058   16.8621   -8.7058 H   0  0  0  0  0  0  0  0  0  0  0  0
    1.7409   17.3824  -10.2877 H   0  0  0  0  0  0  0  0  0  0  0  0
    3.5289   14.2894   -9.4780 H   0  0  0  0  0  0  0  0  0  0  0  0
    3.3071   13.2789  -10.9465 H   0  0  0  0  0  0  0  0  0  0  0  0
    4.5121   14.6111  -10.9465 H   0  0  0  0  0  0  0  0  0  0  0  0
    2.0367   16.4550  -12.7677 H   0  0  0  0  0  0  0  0  0  0  0  0
    3.4065   15.3145  -12.9900 H   0  0  0  0  0  0  0  0  0  0  0  0
    1.7181   14.7013  -12.9900 H   0  0  0  0  0  0  0  0  0  0  0  0
    0.4544   13.1768   -6.5667 H   0  0  0  0  0  0  0  0  0  0  0  0
    2.7200   12.4214   -6.9332 H   0  0  0  0  0  0  0  0  0  0  0  0
    3.4042   13.9798   -6.4241 H   0  0  0  0  0  0  0  0  0  0  0  0
    3.3740   11.5888   -4.8595 H   0  0  0  0  0  0  0  0  0  0  0  0
    3.7040   13.1917   -4.2069 H   0  0  0  0  0  0  0  0  0  0  0  0
    0.5465   10.6693   -3.7578 H   0  0  0  0  0  0  0  0  0  0  0  0
    0.0189   11.5762   -5.2158 H   0  0  0  0  0  0  0  0  0  0  0  0
    1.5947   10.7140   -5.2158 H   0  0  0  0  0  0  0  0  0  0  0  0
    2.2578   13.4626   -2.2841 H   0  0  0  0  0  0  0  0  0  0  0  0
    3.0939   11.0357   -2.5159 H   0  0  0  0  0  0  0  0  0  0  0  0
    2.6882   11.7499   -0.8683 H   0  0  0  0  0  0  0  0  0  0  0  0
    1.8953    9.2734   -1.2924 H   0  0  0  0  0  0  0  0  0  0  0  0
   -1.1462   11.5218   -2.7042 H   0  0  0  0  0  0  0  0  0  0  0  0
   -1.3177   11.8361    0.3566 H   0  0  0  0  0  0  0  0  0  0  0  0
   -2.4026   12.6084   -0.8834 H   0  0  0  0  0  0  0  0  0  0  0  0
   -3.4694   10.6625    0.2118 H   0  0  0  0  0  0  0  0  0  0  0  0
   -3.2278   10.4285   -1.5637 H   0  0  0  0  0  0  0  0  0  0  0  0
   -2.6455    8.3945   -0.4320 H   0  0  0  0  0  0  0  0  0  0  0  0
   -0.7800   10.0290    1.0390 H   0  0  0  0  0  0  0  0  0  0  0  0
   -2.3289    8.0758   -2.5836 H   0  0  0  0  0  0  0  0  0  0  0  0
   -1.5989    9.5608   -3.2826 H   0  0  0  0  0  0  0  0  0  0  0  0
   -0.6751    8.0202   -3.2826 H   0  0  0  0  0  0  0  0  0  0  0  0
    0.0220    7.7140    0.2263 H   0  0  0  0  0  0  0  0  0  0  0  0
   -0.4841    6.8378   -1.2579 H   0  0  0  0  0  0  0  0  0  0  0  0
    1.0299    7.8046   -1.2579 H   0  0  0  0  0  0  0  0  0  0  0  0
    0.1450   12.7663    0.3566 H   0  0  0  0  0  0  0  0  0  0  0  0
    1.5900   13.6153   -0.2900 H   0  0  0  0  0  0  0  0  0  0  0  0
   -0.0083   14.4352   -0.2900 H   0  0  0  0  0  0  0  0  0  0  0  0
   -1.6585   13.8841   -2.3395 H   0  0  0  0  0  0  0  0  0  0  0  0
   -0.1488   14.9572   -2.2796 H   0  0  0  0  0  0  0  0  0  0  0  0
   -1.0311   13.1316   -4.5326 H   0  0  0  0  0  0  0  0  0  0  0  0
   -0.9213   14.9357   -4.5192 H   0  0  0  0  0  0  0  0  0  0  0  0
    1.7056   15.2166   -2.9660 H   0  0  0  0  0  0  0  0  0  0  0  0
    2.7392   15.2215   -4.4352 H   0  0  0  0  0  0  0  0  0  0  0  0
    1.1740   16.1030   -4.4352 H   0  0  0  0  0  0  0  0  0  0  0  0
  1  2  1  0
  2  3  1  0
  3  4  1  0
  4  5  1  0
  5  6  1  0
  6  7  1  0
  7  8  1  0
  7  9  1  0
  2 10  1  0
 10 11  1  0
 11 12  1  0
 12 13  1  0
 13 14  1  1
 13 15  1  0
 15 16  1  0
 16 17  1  0
 17 18  2  0
 18 19  1  0
 19 20  1  0
 20 21  1  0
 21 22  1  0
 22 23  1  0
 22 24  1  0
 24 25  1  0
 24 26  1  0
 19 27  1  0
 27 28  1  1
 27 29  1  0
 29 30  1  0
 30 31  1  0
 31 32  1  1
  7  5  1  0
 31 10  1  0
 31 13  1  0
 27 15  1  0
 24 18  1  0
  1 33  1  0
  1 34  1  0
  1 35  1  0
  2 36  1  1
  3 37  1  0
  3 38  1  0
  4 39  1  0
  4 40  1  0
  5 41  1  6
  8 42  1  0
  8 43  1  0
  8 44  1  0
  9 45  1  0
  9 46  1  0
  9 47  1  0
 10 48  1  6
 11 49  1  0
 11 50  1  0
 12 51  1  0
 12 52  1  0
 14 53  1  0
 14 54  1  0
 14 55  1  0
 15 56  1  6
 16 57  1  0
 16 58  1  0
 17 59  1  0
 19 60  1  6
 20 61  1  0
 20 62  1  0
 21 63  1  0
 21 64  1  0
 22 65  1  1
 23 66  1  0
 25 67  1  0
 25 68  1  0
 25 69  1  0
 26 70  1  0
 26 71  1  0
 26 72  1  0
 28 73  1  0
 28 74  1  0
 28 75  1  0
 29 76  1  0
 29 77  1  0
 30 78  1  0
 30 79  1  0
 32 80  1  0
 32 81  1  0
 32 82  1  0
M  END
>  <meeko>  (11) 
{"is_sidechain": [false], "intermolecular_energy": 2.731, "internal_energy": -0.839}

$$$$
EPH_relaxed_0001_pdb2pqr_Repair_54_r2_0001_out
     RDKit          3D

 82 86  0  0  0  0  0  0  0  0999 V2000
    0.1610    9.3720   -2.4620 C   0  0  0  0  0  0  0  0  0  0  0  0
    1.2200   10.3950   -2.8830 C   0  0  2  0  0  0  0  0  0  0  0  0
    2.6300    9.7750   -2.9550 C   0  0  0  0  0  0  0  0  0  0  0  0
    3.5790   10.5130   -3.9030 C   0  0  0  0  0  0  0  0  0  0  0  0
    4.9590   10.6280   -3.3280 C   0  0  2  0  0  0  0  0  0  0  0  0
    5.6070   11.8830   -3.5740 O   0  0  0  0  0  0  0  0  0  0  0  0
    6.2130   10.7280   -4.1770 C   0  0  0  0  0  0  0  0  0  0  0  0
    6.1470   10.7160   -5.6720 C   0  0  0  0  0  0  0  0  0  0  0  0
    7.5240   10.3460   -3.5630 C   0  0  0  0  0  0  0  0  0  0  0  0
    1.2180   11.5730   -1.9160 C   0  0  1  0  0  0  0  0  0  0  0  0
    2.2810   11.4270   -0.7940 C   0  0  0  0  0  0  0  0  0  0  0  0
    2.8040   12.8540   -0.4850 C   0  0  0  0  0  0  0  0  0  0  0  0
    1.8020   13.7980   -1.1910 C   0  0  1  0  0  0  0  0  0  0  0  0
    0.5870   13.8950   -0.2150 C   0  0  0  0  0  0  0  0  0  0  0  0
    2.3430   15.2110   -1.5820 C   0  0  2  0  0  0  0  0  0  0  0  0
    2.7840   16.0920   -0.4000 C   0  0  0  0  0  0  0  0  0  0  0  0
    1.7210   16.9670    0.1750 C   0  0  0  0  0  0  0  0  0  0  0  0
    0.5450   17.2580   -0.4130 C   0  0  0  0  0  0  0  0  0  0  0  0
    0.2290   16.7630   -1.8300 C   0  0  1  0  0  0  0  0  0  0  0  0
   -0.3590   17.9300   -2.6660 C   0  0  0  0  0  0  0  0  0  0  0  0
   -1.5630   18.5830   -1.9940 C   0  0  0  0  0  0  0  0  0  0  0  0
   -1.1940   19.1140   -0.6110 C   0  0  2  0  0  0  0  0  0  0  0  0
   -0.2690   20.1940   -0.7640 O   0  0  0  0  0  0  0  0  0  0  0  0
   -0.5820   18.0290    0.3180 C   0  0  0  0  0  0  0  0  0  0  0  0
   -1.6780   17.0140    0.7270 C   0  0  0  0  0  0  0  0  0  0  0  0
   -0.1250   18.7250    1.6280 C   0  0  0  0  0  0  0  0  0  0  0  0
    1.4100   16.0090   -2.5800 C   0  0  1  0  0  0  0  0  0  0  0  0
    2.3200   17.0420   -3.3130 C   0  0  0  0  0  0  0  0  0  0  0  0
    0.8000   15.0840   -3.6980 C   0  0  0  0  0  0  0  0  0  0  0  0
    0.3950   13.6580   -3.2760 C   0  0  0  0  0  0  0  0  0  0  0  0
    1.5250   12.9740   -2.5010 C   0  0  2  0  0  0  0  0  0  0  0  0
    2.7540   12.8420   -3.4640 C   0  0  0  0  0  0  0  0  0  0  0  0
    0.1125    9.3252   -1.3641 H   0  0  0  0  0  0  0  0  0  0  0  0
   -0.8191    9.6740   -2.8598 H   0  0  0  0  0  0  0  0  0  0  0  0
    0.4289    8.3821   -2.8598 H   0  0  0  0  0  0  0  0  0  0  0  0
    0.9604   10.7431   -3.8937 H   0  0  0  0  0  0  0  0  0  0  0  0
    3.0673    9.7886   -1.9458 H   0  0  0  0  0  0  0  0  0  0  0  0
    2.5127    8.7542   -3.3478 H   0  0  0  0  0  0  0  0  0  0  0  0
    3.6336    9.9616   -4.8532 H   0  0  0  0  0  0  0  0  0  0  0  0
    3.1867   11.5288   -4.0586 H   0  0  0  0  0  0  0  0  0  0  0  0
    4.6885    9.9745   -2.4856 H   0  0  0  0  0  0  0  0  0  0  0  0
    5.1115   10.5277   -5.9918 H   0  0  0  0  0  0  0  0  0  0  0  0
    6.4798   11.6894   -6.0615 H   0  0  0  0  0  0  0  0  0  0  0  0
    6.8012    9.9221   -6.0615 H   0  0  0  0  0  0  0  0  0  0  0  0
    7.4367   10.3714   -2.4668 H   0  0  0  0  0  0  0  0  0  0  0  0
    7.7980    9.3307   -3.8856 H   0  0  0  0  0  0  0  0  0  0  0  0
    8.3005   11.0552   -3.8856 H   0  0  0  0  0  0  0  0  0  0  0  0
    0.1734   11.5287   -1.5741 H   0  0  0  0  0  0  0  0  0  0  0  0
    1.8247   10.9878    0.1054 H   0  0  0  0  0  0  0  0  0  0  0  0
    3.1010   10.7656   -1.1104 H   0  0  0  0  0  0  0  0  0  0  0  0
    2.8129   13.0380    0.5995 H   0  0  0  0  0  0  0  0  0  0  0  0
    3.8362   13.0048   -0.8340 H   0  0  0  0  0  0  0  0  0  0  0  0
    0.9479   13.8662    0.8237 H   0  0  0  0  0  0  0  0  0  0  0  0
    0.0501   14.8389   -0.3906 H   0  0  0  0  0  0  0  0  0  0  0  0
   -0.0929   13.0483   -0.3906 H   0  0  0  0  0  0  0  0  0  0  0  0
    3.2638   14.9661   -2.1317 H   0  0  0  0  0  0  0  0  0  0  0  0
    3.1486   15.4303    0.3995 H   0  0  0  0  0  0  0  0  0  0  0  0
    3.5540   16.7699   -0.7968 H   0  0  0  0  0  0  0  0  0  0  0  0
    1.9142   17.4118    1.1623 H   0  0  0  0  0  0  0  0  0  0  0  0
   -0.5242   15.9696   -1.7150 H   0  0  0  0  0  0  0  0  0  0  0  0
    0.4222   18.6915   -2.8066 H   0  0  0  0  0  0  0  0  0  0  0  0
   -0.6976   17.5148   -3.6267 H   0  0  0  0  0  0  0  0  0  0  0  0
   -1.9149   19.4177   -2.6181 H   0  0  0  0  0  0  0  0  0  0  0  0
   -2.3545   17.8276   -1.8805 H   0  0  0  0  0  0  0  0  0  0  0  0
   -2.1229   19.4522   -0.1285 H   0  0  0  0  0  0  0  0  0  0  0  0
    0.6260   19.8160   -0.7750 H   0  0  0  0  0  0  0  0  0  0  0  0
   -1.7365   16.9598    1.8241 H   0  0  0  0  0  0  0  0  0  0  0  0
   -2.6482   17.3396    0.3237 H   0  0  0  0  0  0  0  0  0  0  0  0
   -1.4277   16.0217    0.3237 H   0  0  0  0  0  0  0  0  0  0  0  0
   -0.4974   18.1578    2.4938 H   0  0  0  0  0  0  0  0  0  0  0  0
    0.9739   18.7623    1.6593 H   0  0  0  0  0  0  0  0  0  0  0  0
   -0.5276   19.7482    1.6593 H   0  0  0  0  0  0  0  0  0  0  0  0
    2.8561   17.6506   -2.5699 H   0  0  0  0  0  0  0  0  0  0  0  0
    3.0468   16.5083   -3.9430 H   0  0  0  0  0  0  0  0  0  0  0  0
    1.6989   17.6957   -3.9430 H   0  0  0  0  0  0  0  0  0  0  0  0
   -0.0988   15.5832   -4.0890 H   0  0  0  0  0  0  0  0  0  0  0  0
    1.6082   14.9483   -4.4318 H   0  0  0  0  0  0  0  0  0  0  0  0
   -0.4985   13.7120   -2.6367 H   0  0  0  0  0  0  0  0  0  0  0  0
    0.1852   13.0704   -4.1819 H   0  0  0  0  0  0  0  0  0  0  0  0
    3.6753   12.7430   -2.8712 H   0  0  0  0  0  0  0  0  0  0  0  0
    2.6288   11.9521   -4.0984 H   0  0  0  0  0  0  0  0  0  0  0  0
    2.8206   13.7382   -4.0984 H   0  0  0  0  0  0  0  0  0  0  0  0
  1  2  1  0
  2  3  1  0
  3  4  1  0
  4  5  1  0
  5  6  1  0
  6  7  1  0
  7  8  1  0
  7  9  1  0
  2 10  1  0
 10 11  1  0
 11 12  1  0
 12 13  1  0
 13 14  1  1
 13 15  1  0
 15 16  1  0
 16 17  1  0
 17 18  2  0
 18 19  1  0
 19 20  1  0
 20 21  1  0
 21 22  1  0
 22 23  1  0
 22 24  1  0
 24 25  1  0
 24 26  1  0
 19 27  1  0
 27 28  1  6
 27 29  1  0
 29 30  1  0
 30 31  1  0
 31 32  1  6
  7  5  1  0
 31 10  1  0
 31 13  1  0
 27 15  1  0
 24 18  1  0
  1 33  1  0
  1 34  1  0
  1 35  1  0
  2 36  1  6
  3 37  1  0
  3 38  1  0
  4 39  1  0
  4 40  1  0
  5 41  1  1
  8 42  1  0
  8 43  1  0
  8 44  1  0
  9 45  1  0
  9 46  1  0
  9 47  1  0
 10 48  1  1
 11 49  1  0
 11 50  1  0
 12 51  1  0
 12 52  1  0
 14 53  1  0
 14 54  1  0
 14 55  1  0
 15 56  1  6
 16 57  1  0
 16 58  1  0
 17 59  1  0
 19 60  1  1
 20 61  1  0
 20 62  1  0
 21 63  1  0
 21 64  1  0
 22 65  1  1
 23 66  1  0
 25 67  1  0
 25 68  1  0
 25 69  1  0
 26 70  1  0
 26 71  1  0
 26 72  1  0
 28 73  1  0
 28 74  1  0
 28 75  1  0
 29 76  1  0
 29 77  1  0
 30 78  1  0
 30 79  1  0
 32 80  1  0
 32 81  1  0
 32 82  1  0
M  END
>  <meeko>  (12) 
{"is_sidechain": [false], "intermolecular_energy": 2.731, "internal_energy": -0.839}

$$$$
EPH_relaxed_0001_pdb2pqr_Repair_54_r2_0001_out
     RDKit          3D

 82 86  0  0  0  0  0  0  0  0999 V2000
   -2.3080    7.8390   -2.1600 C   0  0  0  0  0  0  0  0  0  0  0  0
   -2.2530    8.4430   -0.7530 C   0  0  2  0  0  0  0  0  0  0  0  0
   -3.6290    8.4200   -0.0570 C   0  0  0  0  0  0  0  0  0  0  0  0
   -4.8110    8.5080   -1.0260 C   0  0  0  0  0  0  0  0  0  0  0  0
   -5.5300    7.1980   -1.1430 C   0  0  2  0  0  0  0  0  0  0  0  0
   -5.6510    6.6980   -2.4810 O   0  0  0  0  0  0  0  0  0  0  0  0
   -6.8790    7.0420   -1.8190 C   0  0  0  0  0  0  0  0  0  0  0  0
   -7.5890    8.2120   -2.4230 C   0  0  0  0  0  0  0  0  0  0  0  0
   -7.7250    5.8580   -1.4650 C   0  0  0  0  0  0  0  0  0  0  0  0
   -1.7280    9.8720   -0.8220 C   0  0  1  0  0  0  0  0  0  0  0  0
   -1.3020   10.4200    0.5670 C   0  0  0  0  0  0  0  0  0  0  0  0
   -0.0800   11.3430    0.3280 C   0  0  0  0  0  0  0  0  0  0  0  0
   -0.0480   11.5600   -1.2030 C   0  0  1  0  0  0  0  0  0  0  0  0
   -1.1040   12.6780   -1.4720 C   0  0  0  0  0  0  0  0  0  0  0  0
    1.3420   11.9190   -1.8210 C   0  0  2  0  0  0  0  0  0  0  0  0
    1.9530   13.2430   -1.3300 C   0  0  0  0  0  0  0  0  0  0  0  0
    1.5970   14.4480   -2.1370 C   0  0  0  0  0  0  0  0  0  0  0  0
    1.0570   14.4310   -3.3700 C   0  0  0  0  0  0  0  0  0  0  0  0
    0.8390   13.1090   -4.1170 C   0  0  1  0  0  0  0  0  0  0  0  0
    1.3470   13.2500   -5.5760 C   0  0  0  0  0  0  0  0  0  0  0  0
    0.7230   14.4390   -6.3010 C   0  0  0  0  0  0  0  0  0  0  0  0
    1.0110   15.7410   -5.5590 C   0  0  2  0  0  0  0  0  0  0  0  0
    2.4150   16.0080   -5.6230 O   0  0  0  0  0  0  0  0  0  0  0  0
    0.5520   15.7150   -4.0740 C   0  0  0  0  0  0  0  0  0  0  0  0
   -0.9950   15.7290   -4.0070 C   0  0  0  0  0  0  0  0  0  0  0  0
    1.0270   17.0320   -3.4040 C   0  0  0  0  0  0  0  0  0  0  0  0
    1.3990   11.8070   -3.3990 C   0  0  1  0  0  0  0  0  0  0  0  0
    2.8960   11.5920   -3.7770 C   0  0  0  0  0  0  0  0  0  0  0  0
    0.6200   10.5480   -3.9370 C   0  0  0  0  0  0  0  0  0  0  0  0
   -0.6850   10.1740   -3.2090 C   0  0  0  0  0  0  0  0  0  0  0  0
   -0.4720   10.1280   -1.6930 C   0  0  2  0  0  0  0  0  0  0  0  0
    0.5690    8.9970   -1.3900 C   0  0  0  0  0  0  0  0  0  0  0  0
   -2.4075    6.7460   -2.0862 H   0  0  0  0  0  0  0  0  0  0  0  0
   -3.1724    8.2501   -2.7020 H   0  0  0  0  0  0  0  0  0  0  0  0
   -1.3835    8.0872   -2.7020 H   0  0  0  0  0  0  0  0  0  0  0  0
   -1.5696    7.8241   -0.1531 H   0  0  0  0  0  0  0  0  0  0  0  0
   -3.7150    7.4821    0.5112 H   0  0  0  0  0  0  0  0  0  0  0  0
   -3.6768    9.3087    0.5895 H   0  0  0  0  0  0  0  0  0  0  0  0
   -5.5154    9.2700   -0.6610 H   0  0  0  0  0  0  0  0  0  0  0  0
   -4.4212    8.7754   -2.0193 H   0  0  0  0  0  0  0  0  0  0  0  0
   -5.1563    6.8786   -0.1590 H   0  0  0  0  0  0  0  0  0  0  0  0
   -7.9803    8.8568   -1.6222 H   0  0  0  0  0  0  0  0  0  0  0  0
   -6.8866    8.7857   -3.0454 H   0  0  0  0  0  0  0  0  0  0  0  0
   -8.4222    7.8538   -3.0454 H   0  0  0  0  0  0  0  0  0  0  0  0
   -7.7896    5.7676   -0.3706 H   0  0  0  0  0  0  0  0  0  0  0  0
   -8.7342    5.9905   -1.8822 H   0  0  0  0  0  0  0  0  0  0  0  0
   -7.2726    4.9462   -1.8822 H   0  0  0  0  0  0  0  0  0  0  0  0
   -2.6027   10.3677   -1.2683 H   0  0  0  0  0  0  0  0  0  0  0  0
   -2.1264   10.9921    1.0176 H   0  0  0  0  0  0  0  0  0  0  0  0
   -1.0487    9.5995    1.2545 H   0  0  0  0  0  0  0  0  0  0  0  0
   -0.2083   12.3009    0.8533 H   0  0  0  0  0  0  0  0  0  0  0  0
    0.8547   10.9037    0.7065 H   0  0  0  0  0  0  0  0  0  0  0  0
   -1.4747   13.0705   -0.5136 H   0  0  0  0  0  0  0  0  0  0  0  0
   -0.6377   13.4923   -2.0460 H   0  0  0  0  0  0  0  0  0  0  0  0
   -1.9436   12.2589   -2.0460 H   0  0  0  0  0  0  0  0  0  0  0  0
    1.9890   11.1247   -1.4206 H   0  0  0  0  0  0  0  0  0  0  0  0
    1.6124   13.4124   -0.2979 H   0  0  0  0  0  0  0  0  0  0  0  0
    3.0431   13.1272   -1.4208 H   0  0  0  0  0  0  0  0  0  0  0  0
    1.7924   15.4321   -1.6861 H   0  0  0  0  0  0  0  0  0  0  0  0
   -0.2468   12.9331   -4.1149 H   0  0  0  0  0  0  0  0  0  0  0  0
    2.4389   13.3816   -5.5579 H   0  0  0  0  0  0  0  0  0  0  0  0
    1.0578   12.3385   -6.1196 H   0  0  0  0  0  0  0  0  0  0  0  0
    1.1423   14.5025   -7.3160 H   0  0  0  0  0  0  0  0  0  0  0  0
   -0.3663   14.2924   -6.3440 H   0  0  0  0  0  0  0  0  0  0  0  0
    0.4324   16.5358   -6.0525 H   0  0  0  0  0  0  0  0  0  0  0  0
    2.5440   16.7630   -6.2220 H   0  0  0  0  0  0  0  0  0  0  0  0
   -1.3164   15.7319   -2.9550 H   0  0  0  0  0  0  0  0  0  0  0  0
   -1.3756   16.6306   -4.5092 H   0  0  0  0  0  0  0  0  0  0  0  0
   -1.3919   14.8344   -4.5092 H   0  0  0  0  0  0  0  0  0  0  0  0
    0.9873   16.9220   -2.3102 H   0  0  0  0  0  0  0  0  0  0  0  0
    2.0600   17.2490   -3.7135 H   0  0  0  0  0  0  0  0  0  0  0  0
    0.3703   17.8584   -3.7135 H   0  0  0  0  0  0  0  0  0  0  0  0
    3.4970   11.5057   -2.8598 H   0  0  0  0  0  0  0  0  0  0  0  0
    2.9960   10.6703   -4.3690 H   0  0  0  0  0  0  0  0  0  0  0  0
    3.2513   12.4483   -4.3690 H   0  0  0  0  0  0  0  0  0  0  0  0
    0.3701   10.7371   -4.9914 H   0  0  0  0  0  0  0  0  0  0  0  0
    1.2970    9.6976   -3.7684 H   0  0  0  0  0  0  0  0  0  0  0  0
   -1.4549   10.9244   -3.4418 H   0  0  0  0  0  0  0  0  0  0  0  0
   -1.0038    9.1777   -3.5492 H   0  0  0  0  0  0  0  0  0  0  0  0
    0.6768    8.8799   -0.3016 H   0  0  0  0  0  0  0  0  0  0  0  0
    0.2197    8.0503   -1.8278 H   0  0  0  0  0  0  0  0  0  0  0  0
    1.5414    9.2668   -1.8278 H   0  0  0  0  0  0  0  0  0  0  0  0
  1  2  1  0
  2  3  1  0
  3  4  1  0
  4  5  1  0
  5  6  1  0
  6  7  1  0
  7  8  1  0
  7  9  1  0
  2 10  1  0
 10 11  1  0
 11 12  1  0
 12 13  1  0
 13 14  1  1
 13 15  1  0
 15 16  1  0
 16 17  1  0
 17 18  2  0
 18 19  1  0
 19 20  1  0
 20 21  1  0
 21 22  1  0
 22 23  1  0
 22 24  1  0
 24 25  1  0
 24 26  1  0
 19 27  1  0
 27 28  1  1
 27 29  1  0
 29 30  1  0
 30 31  1  0
 31 32  1  6
  7  5  1  0
 31 10  1  0
 31 13  1  0
 27 15  1  0
 24 18  1  0
  1 33  1  0
  1 34  1  0
  1 35  1  0
  2 36  1  1
  3 37  1  0
  3 38  1  0
  4 39  1  0
  4 40  1  0
  5 41  1  1
  8 42  1  0
  8 43  1  0
  8 44  1  0
  9 45  1  0
  9 46  1  0
  9 47  1  0
 10 48  1  6
 11 49  1  0
 11 50  1  0
 12 51  1  0
 12 52  1  0
 14 53  1  0
 14 54  1  0
 14 55  1  0
 15 56  1  1
 16 57  1  0
 16 58  1  0
 17 59  1  0
 19 60  1  6
 20 61  1  0
 20 62  1  0
 21 63  1  0
 21 64  1  0
 22 65  1  6
 23 66  1  0
 25 67  1  0
 25 68  1  0
 25 69  1  0
 26 70  1  0
 26 71  1  0
 26 72  1  0
 28 73  1  0
 28 74  1  0
 28 75  1  0
 29 76  1  0
 29 77  1  0
 30 78  1  0
 30 79  1  0
 32 80  1  0
 32 81  1  0
 32 82  1  0
M  END
>  <meeko>  (13) 
{"is_sidechain": [false], "intermolecular_energy": 2.731, "internal_energy": -0.839}

$$$$
EPH_relaxed_0001_pdb2pqr_Repair_54_r2_0001_out
     RDKit          3D

 82 86  0  0  0  0  0  0  0  0999 V2000
    3.4860   18.4860   -2.0360 C   0  0  0  0  0  0  0  0  0  0  0  0
    2.3620   17.5820   -2.5500 C   0  0  2  0  0  0  0  0  0  0  0  0
    0.9760   18.2460   -2.4160 C   0  0  0  0  0  0  0  0  0  0  0  0
    0.9920   19.5440   -1.6050 C   0  0  0  0  0  0  0  0  0  0  0  0
    0.0480   19.4820   -0.4420 C   0  0  2  0  0  0  0  0  0  0  0  0
   -0.9370   18.4440   -0.5250 O   0  0  0  0  0  0  0  0  0  0  0  0
   -1.4330   19.7930   -0.5490 C   0  0  0  0  0  0  0  0  0  0  0  0
   -2.0550   20.1890   -1.8510 C   0  0  0  0  0  0  0  0  0  0  0  0
   -2.1730   20.1850    0.6920 C   0  0  0  0  0  0  0  0  0  0  0  0
    2.3780   16.2550   -1.8000 C   0  0  1  0  0  0  0  0  0  0  0  0
    2.6700   16.4280   -0.2860 C   0  0  0  0  0  0  0  0  0  0  0  0
    1.8440   15.3460    0.4560 C   0  0  0  0  0  0  0  0  0  0  0  0
    1.3700   14.3850   -0.6600 C   0  0  1  0  0  0  0  0  0  0  0  0
    2.5900   13.4490   -0.9270 C   0  0  0  0  0  0  0  0  0  0  0  0
    0.0710   13.5680   -0.3620 C   0  0  2  0  0  0  0  0  0  0  0  0
    0.1670   12.6010    0.8310 C   0  0  0  0  0  0  0  0  0  0  0  0
    0.6220   11.2190    0.4960 C   0  0  0  0  0  0  0  0  0  0  0  0
    0.6680   10.6890   -0.7410 C   0  0  0  0  0  0  0  0  0  0  0  0
    0.1430   11.4690   -1.9530 C   0  0  1  0  0  0  0  0  0  0  0  0
   -0.7480   10.5410   -2.8190 C   0  0  0  0  0  0  0  0  0  0  0  0
   -0.0360    9.2530   -3.2190 C   0  0  0  0  0  0  0  0  0  0  0  0
    0.4200    8.4760   -1.9860 C   0  0  2  0  0  0  0  0  0  0  0  0
   -0.7350    8.0150   -1.2790 O   0  0  0  0  0  0  0  0  0  0  0  0
    1.3170    9.3130   -1.0320 C   0  0  0  0  0  0  0  0  0  0  0  0
    2.6960    9.5570   -1.6950 C   0  0  0  0  0  0  0  0  0  0  0  0
    1.5900    8.4610    0.2370 C   0  0  0  0  0  0  0  0  0  0  0  0
   -0.5550   12.8600   -1.6320 C   0  0  1  0  0  0  0  0  0  0  0  0
   -2.0660   12.6370   -1.3180 C   0  0  0  0  0  0  0  0  0  0  0  0
   -0.4980   13.7720   -2.9140 C   0  0  0  0  0  0  0  0  0  0  0  0
    0.7590   14.6450   -3.0900 C   0  0  0  0  0  0  0  0  0  0  0  0
    1.0740   15.4190   -1.8060 C   0  0  2  0  0  0  0  0  0  0  0  0
   -0.1260   16.3850   -1.5240 C   0  0  0  0  0  0  0  0  0  0  0  0
    3.4839   18.4843   -0.9360 H   0  0  0  0  0  0  0  0  0  0  0  0
    4.4537   18.1117   -2.4014 H   0  0  0  0  0  0  0  0  0  0  0  0
    3.3279   19.5114   -2.4014 H   0  0  0  0  0  0  0  0  0  0  0  0
    2.5422   17.4061   -3.6208 H   0  0  0  0  0  0  0  0  0  0  0  0
    0.5998   18.4713   -3.4248 H   0  0  0  0  0  0  0  0  0  0  0  0
    0.3306   17.5374   -1.8762 H   0  0  0  0  0  0  0  0  0  0  0  0
    2.0110   19.7167   -1.2284 H   0  0  0  0  0  0  0  0  0  0  0  0
    0.6714   20.3644   -2.2639 H   0  0  0  0  0  0  0  0  0  0  0  0
    0.8300   19.8435    0.2420 H   0  0  0  0  0  0  0  0  0  0  0  0
   -2.9687   20.7707   -1.6590 H   0  0  0  0  0  0  0  0  0  0  0  0
   -1.3445   20.8013   -2.4256 H   0  0  0  0  0  0  0  0  0  0  0  0
   -2.3092   19.2861   -2.4256 H   0  0  0  0  0  0  0  0  0  0  0  0
   -1.5946   19.8786    1.5760 H   0  0  0  0  0  0  0  0  0  0  0  0
   -2.3136   21.2759    0.7059 H   0  0  0  0  0  0  0  0  0  0  0  0
   -3.1545   19.6886    0.7059 H   0  0  0  0  0  0  0  0  0  0  0  0
    3.1626   15.7325   -2.3669 H   0  0  0  0  0  0  0  0  0  0  0  0
    3.7429   16.2868   -0.0887 H   0  0  0  0  0  0  0  0  0  0  0  0
    2.3963   17.4370    0.0560 H   0  0  0  0  0  0  0  0  0  0  0  0
    2.4695   14.8135    1.1875 H   0  0  0  0  0  0  0  0  0  0  0  0
    1.0041   15.7764    1.0211 H   0  0  0  0  0  0  0  0  0  0  0  0
    3.0174   13.1211    0.0321 H   0  0  0  0  0  0  0  0  0  0  0  0
    2.2595   12.5705   -1.5006 H   0  0  0  0  0  0  0  0  0  0  0  0
    3.3529   13.9957   -1.5006 H   0  0  0  0  0  0  0  0  0  0  0  0
   -0.6354   14.3527   -0.0534 H   0  0  0  0  0  0  0  0  0  0  0  0
    0.8760   13.0258    1.5568 H   0  0  0  0  0  0  0  0  0  0  0  0
   -0.8557   12.4983    1.2229 H   0  0  0  0  0  0  0  0  0  0  0  0
    0.9471   10.5798    1.3301 H   0  0  0  0  0  0  0  0  0  0  0  0
    1.0306   11.7750   -2.5262 H   0  0  0  0  0  0  0  0  0  0  0  0
   -1.6497   10.2817   -2.2448 H   0  0  0  0  0  0  0  0  0  0  0  0
   -0.9981   11.0846   -3.7420 H   0  0  0  0  0  0  0  0  0  0  0  0
   -0.7258    8.6271   -3.8042 H   0  0  0  0  0  0  0  0  0  0  0  0
    0.8495    9.5127   -3.8177 H   0  0  0  0  0  0  0  0  0  0  0  0
    1.0346    7.6333   -2.3354 H   0  0  0  0  0  0  0  0  0  0  0  0
   -0.4420    7.3380   -0.6460 H   0  0  0  0  0  0  0  0  0  0  0  0
    3.4593    9.6921   -0.9145 H   0  0  0  0  0  0  0  0  0  0  0  0
    2.9603    8.6917   -2.3206 H   0  0  0  0  0  0  0  0  0  0  0  0
    2.6474   10.4605   -2.3206 H   0  0  0  0  0  0  0  0  0  0  0  0
    1.3958    9.0670    1.1343 H   0  0  0  0  0  0  0  0  0  0  0  0
    0.9285    7.5821    0.2379 H   0  0  0  0  0  0  0  0  0  0  0  0
    2.6391    8.1303    0.2379 H   0  0  0  0  0  0  0  0  0  0  0  0
   -2.2147   12.6151   -0.2283 H   0  0  0  0  0  0  0  0  0  0  0  0
   -2.6557   13.4578   -1.7521 H   0  0  0  0  0  0  0  0  0  0  0  0
   -2.3935   11.6808   -1.7521 H   0  0  0  0  0  0  0  0  0  0  0  0
   -0.5728   13.1152   -3.7932 H   0  0  0  0  0  0  0  0  0  0  0  0
   -1.3288   14.4836   -2.7982 H   0  0  0  0  0  0  0  0  0  0  0  0
    1.6136   13.9989   -3.3394 H   0  0  0  0  0  0  0  0  0  0  0  0
    0.5734   15.3677   -3.8983 H   0  0  0  0  0  0  0  0  0  0  0  0
   -0.2615   16.4941   -0.4378 H   0  0  0  0  0  0  0  0  0  0  0  0
    0.0835   17.3693   -1.9680 H   0  0  0  0  0  0  0  0  0  0  0  0
   -1.0429   15.9701   -1.9680 H   0  0  0  0  0  0  0  0  0  0  0  0
  1  2  1  0
  2  3  1  0
  3  4  1  0
  4  5  1  0
  5  6  1  0
  6  7  1  0
  7  8  1  0
  7  9  1  0
  2 10  1  0
 10 11  1  0
 11 12  1  0
 12 13  1  0
 13 14  1  6
 13 15  1  0
 15 16  1  0
 16 17  1  0
 17 18  2  0
 18 19  1  0
 19 20  1  0
 20 21  1  0
 21 22  1  0
 22 23  1  0
 22 24  1  0
 24 25  1  0
 24 26  1  0
 19 27  1  0
 27 28  1  1
 27 29  1  0
 29 30  1  0
 30 31  1  0
 31 32  1  1
  7  5  1  0
 31 10  1  0
 31 13  1  0
 27 15  1  0
 24 18  1  0
  1 33  1  0
  1 34  1  0
  1 35  1  0
  2 36  1  6
  3 37  1  0
  3 38  1  0
  4 39  1  0
  4 40  1  0
  5 41  1  1
  8 42  1  0
  8 43  1  0
  8 44  1  0
  9 45  1  0
  9 46  1  0
  9 47  1  0
 10 48  1  6
 11 49  1  0
 11 50  1  0
 12 51  1  0
 12 52  1  0
 14 53  1  0
 14 54  1  0
 14 55  1  0
 15 56  1  1
 16 57  1  0
 16 58  1  0
 17 59  1  0
 19 60  1  6
 20 61  1  0
 20 62  1  0
 21 63  1  0
 21 64  1  0
 22 65  1  6
 23 66  1  0
 25 67  1  0
 25 68  1  0
 25 69  1  0
 26 70  1  0
 26 71  1  0
 26 72  1  0
 28 73  1  0
 28 74  1  0
 28 75  1  0
 29 76  1  0
 29 77  1  0
 30 78  1  0
 30 79  1  0
 32 80  1  0
 32 81  1  0
 32 82  1  0
M  END
>  <meeko>  (14) 
{"is_sidechain": [false], "intermolecular_energy": 2.731, "internal_energy": -0.839}

$$$$
EPH_relaxed_0001_pdb2pqr_Repair_54_r2_0001_out
     RDKit          3D

 82 86  0  0  0  0  0  0  0  0999 V2000
   -1.6630    9.4510   -0.1770 C   0  0  0  0  0  0  0  0  0  0  0  0
   -1.5290   10.5370   -1.2490 C   0  0  2  0  0  0  0  0  0  0  0  0
   -0.7620   10.0370   -2.4890 C   0  0  0  0  0  0  0  0  0  0  0  0
    0.5300    9.2870   -2.1530 C   0  0  0  0  0  0  0  0  0  0  0  0
    1.7160    9.8890   -2.8450 C   0  0  2  0  0  0  0  0  0  0  0  0
    2.8860    9.0600   -2.8570 O   0  0  0  0  0  0  0  0  0  0  0  0
    2.9890   10.2920   -2.1240 C   0  0  0  0  0  0  0  0  0  0  0  0
    3.1400   10.1100   -0.6460 C   0  0  0  0  0  0  0  0  0  0  0  0
    3.8860   11.3020   -2.7670 C   0  0  0  0  0  0  0  0  0  0  0  0
   -0.8350   11.7610   -0.6640 C   0  0  1  0  0  0  0  0  0  0  0  0
    0.3250   11.3880    0.2970 C   0  0  0  0  0  0  0  0  0  0  0  0
    1.4220   12.4680    0.1150 C   0  0  0  0  0  0  0  0  0  0  0  0
    0.7310   13.5950   -0.6860 C   0  0  1  0  0  0  0  0  0  0  0  0
   -0.0710   14.4090    0.3780 C   0  0  0  0  0  0  0  0  0  0  0  0
    1.6680   14.5170   -1.5320 C   0  0  2  0  0  0  0  0  0  0  0  0
    2.6920   15.3280   -0.7190 C   0  0  0  0  0  0  0  0  0  0  0  0
    2.2310   16.6770   -0.2770 C   0  0  0  0  0  0  0  0  0  0  0  0
    1.1580   17.3330   -0.7570 C   0  0  0  0  0  0  0  0  0  0  0  0
    0.3390   16.7590   -1.9190 C   0  0  1  0  0  0  0  0  0  0  0  0
    0.0690   17.8730   -2.9630 C   0  0  0  0  0  0  0  0  0  0  0  0
   -0.5800   19.1090   -2.3460 C   0  0  0  0  0  0  0  0  0  0  0  0
    0.2920   19.6850   -1.2340 C   0  0  2  0  0  0  0  0  0  0  0  0
    1.4980   20.1940   -1.8110 O   0  0  0  0  0  0  0  0  0  0  0  0
    0.6380   18.6490   -0.1280 C   0  0  0  0  0  0  0  0  0  0  0  0
   -0.6320   18.3250    0.6970 C   0  0  0  0  0  0  0  0  0  0  0  0
    1.6360   19.3180    0.8560 C   0  0  0  0  0  0  0  0  0  0  0  0
    0.9080   15.4290   -2.5780 C   0  0  1  0  0  0  0  0  0  0  0  0
    1.9410   15.7870   -3.6900 C   0  0  0  0  0  0  0  0  0  0  0  0
   -0.2680   14.6660   -3.2940 C   0  0  0  0  0  0  0  0  0  0  0  0
   -1.0820   13.6800   -2.4350 C   0  0  0  0  0  0  0  0  0  0  0  0
   -0.1570   12.7370   -1.6590 C   0  0  2  0  0  0  0  0  0  0  0  0
    0.6460   11.8890   -2.7030 C   0  0  0  0  0  0  0  0  0  0  0  0
   -1.6062    9.9114    0.8204 H   0  0  0  0  0  0  0  0  0  0  0  0
   -2.6309    8.9409   -0.2908 H   0  0  0  0  0  0  0  0  0  0  0  0
   -0.8481    8.7209   -0.2908 H   0  0  0  0  0  0  0  0  0  0  0  0
   -2.5439   10.8068   -1.5764 H   0  0  0  0  0  0  0  0  0  0  0  0
   -1.4194    9.3601   -3.0543 H   0  0  0  0  0  0  0  0  0  0  0  0
   -0.4756   10.9262   -3.0698 H   0  0  0  0  0  0  0  0  0  0  0  0
    0.6932    9.3271   -1.0659 H   0  0  0  0  0  0  0  0  0  0  0  0
    0.4229    8.2477   -2.4972 H   0  0  0  0  0  0  0  0  0  0  0  0
    1.0631   10.4288   -3.5467 H   0  0  0  0  0  0  0  0  0  0  0  0
    2.5231   10.8535   -0.1201 H   0  0  0  0  0  0  0  0  0  0  0  0
    2.8127    9.0979   -0.3659 H   0  0  0  0  0  0  0  0  0  0  0  0
    4.1952   10.2448   -0.3659 H   0  0  0  0  0  0  0  0  0  0  0  0
    4.4018   11.8828   -1.9882 H   0  0  0  0  0  0  0  0  0  0  0  0
    4.6294   10.7865   -3.3928 H   0  0  0  0  0  0  0  0  0  0  0  0
    3.2863   11.9793   -3.3928 H   0  0  0  0  0  0  0  0  0  0  0  0
   -1.6959   12.2495   -0.1841 H   0  0  0  0  0  0  0  0  0  0  0  0
   -0.0321   11.3825    1.3374 H   0  0  0  0  0  0  0  0  0  0  0  0
    0.7171   10.3852    0.0720 H   0  0  0  0  0  0  0  0  0  0  0  0
    1.7661   12.8403    1.0912 H   0  0  0  0  0  0  0  0  0  0  0  0
    2.3118   12.0760   -0.3994 H   0  0  0  0  0  0  0  0  0  0  0  0
    0.2367   14.0967    1.3869 H   0  0  0  0  0  0  0  0  0  0  0  0
    0.1324   15.4822    0.2484 H   0  0  0  0  0  0  0  0  0  0  0  0
   -1.1471   14.2215    0.2484 H   0  0  0  0  0  0  0  0  0  0  0  0
    2.2550   13.7889   -2.1110 H   0  0  0  0  0  0  0  0  0  0  0  0
    2.9509   14.7465    0.1781 H   0  0  0  0  0  0  0  0  0  0  0  0
    3.5444   15.5032   -1.3918 H   0  0  0  0  0  0  0  0  0  0  0  0
    2.8177   17.1775    0.5074 H   0  0  0  0  0  0  0  0  0  0  0  0
   -0.6118   16.4197   -1.4820 H   0  0  0  0  0  0  0  0  0  0  0  0
    1.0255   18.1677   -3.4194 H   0  0  0  0  0  0  0  0  0  0  0  0
   -0.6287   17.4677   -3.7106 H   0  0  0  0  0  0  0  0  0  0  0  0
   -0.7175   19.8713   -3.1271 H   0  0  0  0  0  0  0  0  0  0  0  0
   -1.5503   18.8189   -1.9167 H   0  0  0  0  0  0  0  0  0  0  0  0
   -0.2828   20.4853   -0.7449 H   0  0  0  0  0  0  0  0  0  0  0  0
    1.7860   19.5640   -2.4940 H   0  0  0  0  0  0  0  0  0  0  0  0
   -0.3974   18.3849    1.7700 H   0  0  0  0  0  0  0  0  0  0  0  0
   -1.4224   19.0503    0.4535 H   0  0  0  0  0  0  0  0  0  0  0  0
   -0.9783   17.3097    0.4535 H   0  0  0  0  0  0  0  0  0  0  0  0
    1.3258   19.1101    1.8907 H   0  0  0  0  0  0  0  0  0  0  0  0
    2.6446   18.9129    0.6872 H   0  0  0  0  0  0  0  0  0  0  0  0
    1.6444   20.4049    0.6872 H   0  0  0  0  0  0  0  0  0  0  0  0
    2.8826   16.1133   -3.2244 H   0  0  0  0  0  0  0  0  0  0  0  0
    2.1286   14.9015   -4.3150 H   0  0  0  0  0  0  0  0  0  0  0  0
    1.5404   16.5987   -4.3150 H   0  0  0  0  0  0  0  0  0  0  0  0
   -0.9657   15.4215   -3.6844 H   0  0  0  0  0  0  0  0  0  0  0  0
    0.2173   14.0455   -4.0618 H   0  0  0  0  0  0  0  0  0  0  0  0
   -1.6980   14.2474   -1.7219 H   0  0  0  0  0  0  0  0  0  0  0  0
   -1.7191   13.0783   -3.0999 H   0  0  0  0  0  0  0  0  0  0  0  0
    1.3092   11.1886   -2.1742 H   0  0  0  0  0  0  0  0  0  0  0  0
   -0.0558   11.3239   -3.3340 H   0  0  0  0  0  0  0  0  0  0  0  0
    1.2485   12.5590   -3.3340 H   0  0  0  0  0  0  0  0  0  0  0  0
  1  2  1  0
  2  3  1  0
  3  4  1  0
  4  5  1  0
  5  6  1  0
  6  7  1  0
  7  8  1  0
  7  9  1  0
  2 10  1  0
 10 11  1  0
 11 12  1  0
 12 13  1  0
 13 14  1  1
 13 15  1  0
 15 16  1  0
 16 17  1  0
 17 18  2  0
 18 19  1  0
 19 20  1  0
 20 21  1  0
 21 22  1  0
 22 23  1  0
 22 24  1  0
 24 25  1  0
 24 26  1  0
 19 27  1  0
 27 28  1  6
 27 29  1  0
 29 30  1  0
 30 31  1  0
 31 32  1  6
  7  5  1  0
 31 10  1  0
 31 13  1  0
 27 15  1  0
 24 18  1  0
  1 33  1  0
  1 34  1  0
  1 35  1  0
  2 36  1  6
  3 37  1  0
  3 38  1  0
  4 39  1  0
  4 40  1  0
  5 41  1  6
  8 42  1  0
  8 43  1  0
  8 44  1  0
  9 45  1  0
  9 46  1  0
  9 47  1  0
 10 48  1  1
 11 49  1  0
 11 50  1  0
 12 51  1  0
 12 52  1  0
 14 53  1  0
 14 54  1  0
 14 55  1  0
 15 56  1  6
 16 57  1  0
 16 58  1  0
 17 59  1  0
 19 60  1  1
 20 61  1  0
 20 62  1  0
 21 63  1  0
 21 64  1  0
 22 65  1  1
 23 66  1  0
 25 67  1  0
 25 68  1  0
 25 69  1  0
 26 70  1  0
 26 71  1  0
 26 72  1  0
 28 73  1  0
 28 74  1  0
 28 75  1  0
 29 76  1  0
 29 77  1  0
 30 78  1  0
 30 79  1  0
 32 80  1  0
 32 81  1  0
 32 82  1  0
M  END
>  <meeko>  (15) 
{"is_sidechain": [false], "intermolecular_energy": 2.731, "internal_energy": -0.839}

$$$$
EPH_relaxed_0001_pdb2pqr_Repair_54_r2_0001_out
     RDKit          3D

 82 86  0  0  0  0  0  0  0  0999 V2000
    0.1730    9.8070   -4.5200 C   0  0  0  0  0  0  0  0  0  0  0  0
    1.2620   10.5540   -3.7440 C   0  0  2  0  0  0  0  0  0  0  0  0
    1.7520    9.7570   -2.5180 C   0  0  0  0  0  0  0  0  0  0  0  0
    0.7790    8.6650   -2.0650 C   0  0  0  0  0  0  0  0  0  0  0  0
   -0.1000    9.1350   -0.9460 C   0  0  2  0  0  0  0  0  0  0  0  0
   -0.7040    8.0860   -0.1780 O   0  0  0  0  0  0  0  0  0  0  0  0
   -1.6030    8.9270   -0.9190 C   0  0  0  0  0  0  0  0  0  0  0  0
   -2.3140    8.2250   -2.0330 C   0  0  0  0  0  0  0  0  0  0  0  0
   -2.4340    9.8260   -0.0580 C   0  0  0  0  0  0  0  0  0  0  0  0
    0.7450   11.9190   -3.3060 C   0  0  1  0  0  0  0  0  0  0  0  0
   -0.7600   11.8950   -2.9310 C   0  0  0  0  0  0  0  0  0  0  0  0
   -0.9470   12.8990   -1.7640 C   0  0  0  0  0  0  0  0  0  0  0  0
    0.3740   13.7040   -1.7270 C   0  0  1  0  0  0  0  0  0  0  0  0
    0.2180   14.7810   -2.8460 C   0  0  0  0  0  0  0  0  0  0  0  0
    0.7520   14.3480   -0.3540 C   0  0  2  0  0  0  0  0  0  0  0  0
   -0.2410   15.4000    0.1690 C   0  0  0  0  0  0  0  0  0  0  0  0
    0.0400   16.8050   -0.2490 C   0  0  0  0  0  0  0  0  0  0  0  0
    1.1980   17.2490   -0.7720 C   0  0  0  0  0  0  0  0  0  0  0  0
    2.4110   16.3200   -0.9010 C   0  0  1  0  0  0  0  0  0  0  0  0
    3.6790   17.0500   -0.3850 C   0  0  0  0  0  0  0  0  0  0  0  0
    3.8990   18.3950   -1.0710 C   0  0  0  0  0  0  0  0  0  0  0  0
    2.6950   19.3120   -0.8710 C   0  0  2  0  0  0  0  0  0  0  0  0
    2.6010   19.6540    0.5150 O   0  0  0  0  0  0  0  0  0  0  0  0
    1.3580   18.6790   -1.3460 C   0  0  0  0  0  0  0  0  0  0  0  0
    1.3450   18.5860   -2.8920 C   0  0  0  0  0  0  0  0  0  0  0  0
    0.2070   19.6470   -0.9600 C   0  0  0  0  0  0  0  0  0  0  0  0
    2.2440   14.8700   -0.2720 C   0  0  1  0  0  0  0  0  0  0  0  0
    2.6230   14.8990    1.2410 C   0  0  0  0  0  0  0  0  0  0  0  0
    3.2600   13.8880   -0.9660 C   0  0  0  0  0  0  0  0  0  0  0  0
    2.7830   13.1910   -2.2540 C   0  0  0  0  0  0  0  0  0  0  0  0
    1.4010   12.5610   -2.0570 C   0  0  2  0  0  0  0  0  0  0  0  0
    1.5310   11.4570   -0.9530 C   0  0  0  0  0  0  0  0  0  0  0  0
   -0.5210    9.3310   -3.8116 H   0  0  0  0  0  0  0  0  0  0  0  0
   -0.3791   10.5174   -5.1528 H   0  0  0  0  0  0  0  0  0  0  0  0
    0.6370    9.0361   -5.1528 H   0  0  0  0  0  0  0  0  0  0  0  0
    2.1210   10.6816   -4.4192 H   0  0  0  0  0  0  0  0  0  0  0  0
    2.7116    9.2833   -2.7726 H   0  0  0  0  0  0  0  0  0  0  0  0
    1.8440   10.4709   -1.6862 H   0  0  0  0  0  0  0  0  0  0  0  0
    0.1468    8.3750   -2.9172 H   0  0  0  0  0  0  0  0  0  0  0  0
    1.3682    7.8099   -1.7021 H   0  0  0  0  0  0  0  0  0  0  0  0
    0.5239   10.0291   -0.7999 H   0  0  0  0  0  0  0  0  0  0  0  0
   -3.0376    7.5106   -1.6135 H   0  0  0  0  0  0  0  0  0  0  0  0
   -2.8445    8.9633   -2.6522 H   0  0  0  0  0  0  0  0  0  0  0  0
   -1.5825    7.6851   -2.6522 H   0  0  0  0  0  0  0  0  0  0  0  0
   -2.2326    9.6081    1.0012 H   0  0  0  0  0  0  0  0  0  0  0  0
   -2.1805   10.8749   -0.2712 H   0  0  0  0  0  0  0  0  0  0  0  0
   -3.4996    9.6556   -0.2712 H   0  0  0  0  0  0  0  0  0  0  0  0
    0.9903   12.5058   -4.2035 H   0  0  0  0  0  0  0  0  0  0  0  0
   -1.3702   12.1996   -3.7941 H   0  0  0  0  0  0  0  0  0  0  0  0
   -1.0773   10.8838   -2.6364 H   0  0  0  0  0  0  0  0  0  0  0  0
   -1.8018   13.5639   -1.9569 H   0  0  0  0  0  0  0  0  0  0  0  0
   -1.1554   12.3947   -0.8089 H   0  0  0  0  0  0  0  0  0  0  0  0
    0.0748   15.7698   -2.3858 H   0  0  0  0  0  0  0  0  0  0  0  0
    1.1235   14.7948   -3.4704 H   0  0  0  0  0  0  0  0  0  0  0  0
   -0.6542   14.5373   -3.4704 H   0  0  0  0  0  0  0  0  0  0  0  0
    0.6737   13.4950    0.3361 H   0  0  0  0  0  0  0  0  0  0  0  0
   -1.2438   15.1313   -0.1946 H   0  0  0  0  0  0  0  0  0  0  0  0
   -0.1512   15.3848    1.2652 H   0  0  0  0  0  0  0  0  0  0  0  0
   -0.7679   17.5400   -0.1186 H   0  0  0  0  0  0  0  0  0  0  0  0
    2.5152   16.1032   -1.9744 H   0  0  0  0  0  0  0  0  0  0  0  0
    3.5731   17.2189    0.6968 H   0  0  0  0  0  0  0  0  0  0  0  0
    4.5468   16.4132   -0.6120 H   0  0  0  0  0  0  0  0  0  0  0  0
    4.7921   18.8750   -0.6444 H   0  0  0  0  0  0  0  0  0  0  0  0
    4.0336   18.2219   -2.1489 H   0  0  0  0  0  0  0  0  0  0  0  0
    2.8551   20.2070   -1.4902 H   0  0  0  0  0  0  0  0  0  0  0  0
    3.1250   19.0050    1.0140 H   0  0  0  0  0  0  0  0  0  0  0  0
    1.1986   17.5388   -3.1951 H   0  0  0  0  0  0  0  0  0  0  0  0
    0.5241   19.2009   -3.2894 H   0  0  0  0  0  0  0  0  0  0  0  0
    2.3031   18.9523   -3.2894 H   0  0  0  0  0  0  0  0  0  0  0  0
    0.1325   19.7096    0.1357 H   0  0  0  0  0  0  0  0  0  0  0  0
    0.4146   20.6459   -1.3711 H   0  0  0  0  0  0  0  0  0  0  0  0
   -0.7416   19.2712   -1.3711 H   0  0  0  0  0  0  0  0  0  0  0  0
    1.7092   14.8291    1.8493 H   0  0  0  0  0  0  0  0  0  0  0  0
    3.2821   14.0487    1.4703 H   0  0  0  0  0  0  0  0  0  0  0  0
    3.1450   15.8397    1.4703 H   0  0  0  0  0  0  0  0  0  0  0  0
    4.1631   14.4647   -1.2147 H   0  0  0  0  0  0  0  0  0  0  0  0
    3.4165   13.0761   -0.2406 H   0  0  0  0  0  0  0  0  0  0  0  0
    2.7283   13.9321   -3.0650 H   0  0  0  0  0  0  0  0  0  0  0  0
    3.4984   12.3948   -2.5074 H   0  0  0  0  0  0  0  0  0  0  0  0
    1.4760   11.9244    0.0412 H   0  0  0  0  0  0  0  0  0  0  0  0
    0.7122   10.7307   -1.0625 H   0  0  0  0  0  0  0  0  0  0  0  0
    2.4961   10.9408   -1.0625 H   0  0  0  0  0  0  0  0  0  0  0  0
  1  2  1  0
  2  3  1  0
  3  4  1  0
  4  5  1  0
  5  6  1  0
  6  7  1  0
  7  8  1  0
  7  9  1  0
  2 10  1  0
 10 11  1  0
 11 12  1  0
 12 13  1  0
 13 14  1  6
 13 15  1  0
 15 16  1  0
 16 17  1  0
 17 18  2  0
 18 19  1  0
 19 20  1  0
 20 21  1  0
 21 22  1  0
 22 23  1  0
 22 24  1  0
 24 25  1  0
 24 26  1  0
 19 27  1  0
 27 28  1  1
 27 29  1  0
 29 30  1  0
 30 31  1  0
 31 32  1  1
  7  5  1  0
 31 10  1  0
 31 13  1  0
 27 15  1  0
 24 18  1  0
  1 33  1  0
  1 34  1  0
  1 35  1  0
  2 36  1  6
  3 37  1  0
  3 38  1  0
  4 39  1  0
  4 40  1  0
  5 41  1  1
  8 42  1  0
  8 43  1  0
  8 44  1  0
  9 45  1  0
  9 46  1  0
  9 47  1  0
 10 48  1  6
 11 49  1  0
 11 50  1  0
 12 51  1  0
 12 52  1  0
 14 53  1  0
 14 54  1  0
 14 55  1  0
 15 56  1  1
 16 57  1  0
 16 58  1  0
 17 59  1  0
 19 60  1  6
 20 61  1  0
 20 62  1  0
 21 63  1  0
 21 64  1  0
 22 65  1  6
 23 66  1  0
 25 67  1  0
 25 68  1  0
 25 69  1  0
 26 70  1  0
 26 71  1  0
 26 72  1  0
 28 73  1  0
 28 74  1  0
 28 75  1  0
 29 76  1  0
 29 77  1  0
 30 78  1  0
 30 79  1  0
 32 80  1  0
 32 81  1  0
 32 82  1  0
M  END
>  <meeko>  (16) 
{"is_sidechain": [false], "intermolecular_energy": 2.731, "internal_energy": -0.839}

$$$$
EPH_relaxed_0001_pdb2pqr_Repair_54_r2_0001_out
     RDKit          3D

 82 86  0  0  0  0  0  0  0  0999 V2000
    0.8980   14.8990   -2.6350 C   0  0  0  0  0  0  0  0  0  0  0  0
    1.1630   14.2260   -3.9840 C   0  0  2  0  0  0  0  0  0  0  0  0
    0.4580   14.9560   -5.1450 C   0  0  0  0  0  0  0  0  0  0  0  0
    0.9880   14.5680   -6.5280 C   0  0  0  0  0  0  0  0  0  0  0  0
    0.7660   15.6570   -7.5330 C   0  0  2  0  0  0  0  0  0  0  0  0
    0.4160   15.1990   -8.8460 O   0  0  0  0  0  0  0  0  0  0  0  0
    1.6700   15.8900   -8.7290 C   0  0  0  0  0  0  0  0  0  0  0  0
    2.8660   15.0270   -8.9820 C   0  0  0  0  0  0  0  0  0  0  0  0
    1.6750   17.2430   -9.3700 C   0  0  0  0  0  0  0  0  0  0  0  0
    0.7160   12.7700   -3.9360 C   0  0  1  0  0  0  0  0  0  0  0  0
    1.8480   11.7840   -4.3290 C   0  0  0  0  0  0  0  0  0  0  0  0
    1.6550   10.5140   -3.4610 C   0  0  0  0  0  0  0  0  0  0  0  0
    0.2440   10.6710   -2.8470 C   0  0  1  0  0  0  0  0  0  0  0  0
   -0.7360   10.2060   -3.9690 C   0  0  0  0  0  0  0  0  0  0  0  0
   -0.0140    9.9120   -1.5040 C   0  0  2  0  0  0  0  0  0  0  0  0
    0.0930    8.3800   -1.5900 C   0  0  0  0  0  0  0  0  0  0  0  0
   -1.1790    7.6680   -1.9110 C   0  0  0  0  0  0  0  0  0  0  0  0
   -2.4130    8.2030   -1.8420 C   0  0  0  0  0  0  0  0  0  0  0  0
   -2.6260    9.6270   -1.3130 C   0  0  1  0  0  0  0  0  0  0  0  0
   -3.8010    9.6330   -0.3000 C   0  0  0  0  0  0  0  0  0  0  0  0
   -5.0760    9.0290   -0.8800 C   0  0  0  0  0  0  0  0  0  0  0  0
   -4.8390    7.5940   -1.3420 C   0  0  2  0  0  0  0  0  0  0  0  0
   -4.5740    6.7790   -0.1960 O   0  0  0  0  0  0  0  0  0  0  0  0
   -3.6710    7.4620   -2.3590 C   0  0  0  0  0  0  0  0  0  0  0  0
   -4.0850    8.0920   -3.7120 C   0  0  0  0  0  0  0  0  0  0  0  0
   -3.4460    5.9510   -2.6340 C   0  0  0  0  0  0  0  0  0  0  0  0
   -1.3320   10.3580   -0.7500 C   0  0  1  0  0  0  0  0  0  0  0  0
   -1.1280    9.9980    0.7530 C   0  0  0  0  0  0  0  0  0  0  0  0
   -1.5550   11.9160   -0.8070 C   0  0  0  0  0  0  0  0  0  0  0  0
   -1.1700   12.6260   -2.1190 C   0  0  0  0  0  0  0  0  0  0  0  0
    0.2360   12.2190   -2.5700 C   0  0  2  0  0  0  0  0  0  0  0  0
    1.2470   12.6930   -1.4710 C   0  0  0  0  0  0  0  0  0  0  0  0
    1.1694   14.2098   -1.8218 H   0  0  0  0  0  0  0  0  0  0  0  0
    1.5028   15.8145   -2.5569 H   0  0  0  0  0  0  0  0  0  0  0  0
   -0.1686   15.1564   -2.5569 H   0  0  0  0  0  0  0  0  0  0  0  0
    2.2458   14.2757   -4.1715 H   0  0  0  0  0  0  0  0  0  0  0  0
   -0.6150   14.7173   -5.1048 H   0  0  0  0  0  0  0  0  0  0  0  0
    0.6540   16.0306   -5.0154 H   0  0  0  0  0  0  0  0  0  0  0  0
    2.0669   14.3672   -6.4527 H   0  0  0  0  0  0  0  0  0  0  0  0
    0.4428   13.6742   -6.8654 H   0  0  0  0  0  0  0  0  0  0  0  0
    0.3878   16.3323   -6.7513 H   0  0  0  0  0  0  0  0  0  0  0  0
    3.3012   14.7129   -8.0218 H   0  0  0  0  0  0  0  0  0  0  0  0
    2.5624   14.1385   -9.5551 H   0  0  0  0  0  0  0  0  0  0  0  0
    3.6135   15.5952   -9.5551 H   0  0  0  0  0  0  0  0  0  0  0  0
    1.6779   18.0184   -8.5898 H   0  0  0  0  0  0  0  0  0  0  0  0
    2.5735   17.3490   -9.9956 H   0  0  0  0  0  0  0  0  0  0  0  0
    0.7773   17.3557   -9.9956 H   0  0  0  0  0  0  0  0  0  0  0  0
   -0.1268   12.8121   -4.6417 H   0  0  0  0  0  0  0  0  0  0  0  0
    1.7743   11.5283   -5.3963 H   0  0  0  0  0  0  0  0  0  0  0  0
    2.8385   12.2316   -4.1600 H   0  0  0  0  0  0  0  0  0  0  0  0
    1.7096    9.6075   -4.0817 H   0  0  0  0  0  0  0  0  0  0  0  0
    2.4352   10.4119   -2.6923 H   0  0  0  0  0  0  0  0  0  0  0  0
   -1.6399    9.7771   -3.5118 H   0  0  0  0  0  0  0  0  0  0  0  0
   -1.0145   11.0680   -4.5930 H   0  0  0  0  0  0  0  0  0  0  0  0
   -0.2444    9.4451   -4.5930 H   0  0  0  0  0  0  0  0  0  0  0  0
    0.8340   10.2365   -0.8830 H   0  0  0  0  0  0  0  0  0  0  0  0
    0.8266    8.1341   -2.3719 H   0  0  0  0  0  0  0  0  0  0  0  0
    0.3870    8.0392   -0.5863 H   0  0  0  0  0  0  0  0  0  0  0  0
   -1.1020    6.6183   -2.2307 H   0  0  0  0  0  0  0  0  0  0  0  0
   -2.8846   10.2409   -2.1884 H   0  0  0  0  0  0  0  0  0  0  0  0
   -3.5062    9.0509    0.5856 H   0  0  0  0  0  0  0  0  0  0  0  0
   -4.0148   10.6809   -0.0427 H   0  0  0  0  0  0  0  0  0  0  0  0
   -5.8599    9.0339   -0.1084 H   0  0  0  0  0  0  0  0  0  0  0  0
   -5.3861    9.6302   -1.7474 H   0  0  0  0  0  0  0  0  0  0  0  0
   -5.7480    7.2614   -1.8647 H   0  0  0  0  0  0  0  0  0  0  0  0
   -3.7440    6.3000   -0.3610 H   0  0  0  0  0  0  0  0  0  0  0  0
   -4.6805    8.9983   -3.5275 H   0  0  0  0  0  0  0  0  0  0  0  0
   -3.1837    8.3558   -4.2847 H   0  0  0  0  0  0  0  0  0  0  0  0
   -4.6848    7.3693   -4.2847 H   0  0  0  0  0  0  0  0  0  0  0  0
   -3.3658    5.4123   -1.6783 H   0  0  0  0  0  0  0  0  0  0  0  0
   -4.2947    5.5527   -3.2093 H   0  0  0  0  0  0  0  0  0  0  0  0
   -2.5180    5.8172   -3.2093 H   0  0  0  0  0  0  0  0  0  0  0  0
   -1.5730   10.7833    1.3818 H   0  0  0  0  0  0  0  0  0  0  0  0
   -1.6149    9.0356    0.9689 H   0  0  0  0  0  0  0  0  0  0  0  0
   -0.0521    9.9212    0.9689 H   0  0  0  0  0  0  0  0  0  0  0  0
   -2.6235   12.1059   -0.6271 H   0  0  0  0  0  0  0  0  0  0  0  0
   -0.8781   12.3314   -0.0459 H   0  0  0  0  0  0  0  0  0  0  0  0
   -1.8925   12.3520   -2.9019 H   0  0  0  0  0  0  0  0  0  0  0  0
   -1.1825   13.7124   -1.9468 H   0  0  0  0  0  0  0  0  0  0  0  0
    0.8249   12.4951   -0.4747 H   0  0  0  0  0  0  0  0  0  0  0  0
    2.1942   12.1451   -1.5834 H   0  0  0  0  0  0  0  0  0  0  0  0
    1.4317   13.7715   -1.5834 H   0  0  0  0  0  0  0  0  0  0  0  0
  1  2  1  0
  2  3  1  0
  3  4  1  0
  4  5  1  0
  5  6  1  0
  6  7  1  0
  7  8  1  0
  7  9  1  0
  2 10  1  0
 10 11  1  0
 11 12  1  0
 12 13  1  0
 13 14  1  6
 13 15  1  0
 15 16  1  0
 16 17  1  0
 17 18  2  0
 18 19  1  0
 19 20  1  0
 20 21  1  0
 21 22  1  0
 22 23  1  0
 22 24  1  0
 24 25  1  0
 24 26  1  0
 19 27  1  0
 27 28  1  1
 27 29  1  0
 29 30  1  0
 30 31  1  0
 31 32  1  1
  7  5  1  0
 31 10  1  0
 31 13  1  0
 27 15  1  0
 24 18  1  0
  1 33  1  0
  1 34  1  0
  1 35  1  0
  2 36  1  6
  3 37  1  0
  3 38  1  0
  4 39  1  0
  4 40  1  0
  5 41  1  1
  8 42  1  0
  8 43  1  0
  8 44  1  0
  9 45  1  0
  9 46  1  0
  9 47  1  0
 10 48  1  6
 11 49  1  0
 11 50  1  0
 12 51  1  0
 12 52  1  0
 14 53  1  0
 14 54  1  0
 14 55  1  0
 15 56  1  1
 16 57  1  0
 16 58  1  0
 17 59  1  0
 19 60  1  6
 20 61  1  0
 20 62  1  0
 21 63  1  0
 21 64  1  0
 22 65  1  6
 23 66  1  0
 25 67  1  0
 25 68  1  0
 25 69  1  0
 26 70  1  0
 26 71  1  0
 26 72  1  0
 28 73  1  0
 28 74  1  0
 28 75  1  0
 29 76  1  0
 29 77  1  0
 30 78  1  0
 30 79  1  0
 32 80  1  0
 32 81  1  0
 32 82  1  0
M  END
>  <meeko>  (17) 
{"is_sidechain": [false], "intermolecular_energy": 2.731, "internal_energy": -0.839}

$$$$
EPH_relaxed_0001_pdb2pqr_Repair_54_r2_0001_out
     RDKit          3D

 82 86  0  0  0  0  0  0  0  0999 V2000
   -1.7300   14.8120    0.4990 C   0  0  0  0  0  0  0  0  0  0  0  0
   -0.3880   15.5160    0.2830 C   0  0  2  0  0  0  0  0  0  0  0  0
   -0.4440   16.5300   -0.8760 C   0  0  0  0  0  0  0  0  0  0  0  0
   -0.0450   17.9520   -0.4700 C   0  0  0  0  0  0  0  0  0  0  0  0
    1.3870   18.0220   -0.0310 C   0  0  2  0  0  0  0  0  0  0  0  0
    2.0560   19.2440   -0.3650 O   0  0  0  0  0  0  0  0  0  0  0  0
    2.5570   18.0540   -0.9960 C   0  0  0  0  0  0  0  0  0  0  0  0
    2.3480   18.0170   -2.4770 C   0  0  0  0  0  0  0  0  0  0  0  0
    3.9050   17.6310   -0.5010 C   0  0  0  0  0  0  0  0  0  0  0  0
    0.7030   14.4840    0.0210 C   0  0  1  0  0  0  0  0  0  0  0  0
    0.8310   13.4450    1.1660 C   0  0  0  0  0  0  0  0  0  0  0  0
    1.2080   12.0940    0.5050 C   0  0  0  0  0  0  0  0  0  0  0  0
    1.6080   12.4670   -0.9420 C   0  0  1  0  0  0  0  0  0  0  0  0
    3.0820   12.9690   -0.8350 C   0  0  0  0  0  0  0  0  0  0  0  0
    1.4600   11.3370   -2.0120 C   0  0  2  0  0  0  0  0  0  0  0  0
    2.3430   10.0980   -1.7800 C   0  0  0  0  0  0  0  0  0  0  0  0
    3.6890   10.1440   -2.4230 C   0  0  0  0  0  0  0  0  0  0  0  0
    4.0660   11.0040   -3.3880 C   0  0  0  0  0  0  0  0  0  0  0  0
    3.0630   11.9920   -3.9980 C   0  0  1  0  0  0  0  0  0  0  0  0
    3.1910   11.9720   -5.5440 C   0  0  0  0  0  0  0  0  0  0  0  0
    4.6200   12.2250   -6.0160 C   0  0  0  0  0  0  0  0  0  0  0  0
    5.5770   11.1880   -5.4340 C   0  0  2  0  0  0  0  0  0  0  0  0
    5.2630    9.9070   -5.9900 O   0  0  0  0  0  0  0  0  0  0  0  0
    5.5290   11.1110   -3.8830 C   0  0  0  0  0  0  0  0  0  0  0  0
    6.1550   12.3920   -3.2780 C   0  0  0  0  0  0  0  0  0  0  0  0
    6.4350    9.9320   -3.4350 C   0  0  0  0  0  0  0  0  0  0  0  0
    1.5580   11.8430   -3.5080 C   0  0  1  0  0  0  0  0  0  0  0  0
    0.8150   10.7900   -4.3850 C   0  0  0  0  0  0  0  0  0  0  0  0
    0.8090   13.2110   -3.7270 C   0  0  0  0  0  0  0  0  0  0  0  0
    0.8930   14.2400   -2.5830 C   0  0  0  0  0  0  0  0  0  0  0  0
    0.5520   13.5930   -1.2380 C   0  0  2  0  0  0  0  0  0  0  0  0
   -0.9330   13.0980   -1.3080 C   0  0  0  0  0  0  0  0  0  0  0  0
   -1.9219   14.7114    1.5775 H   0  0  0  0  0  0  0  0  0  0  0  0
   -2.5335   15.4047    0.0374 H   0  0  0  0  0  0  0  0  0  0  0  0
   -1.6990   13.8140    0.0374 H   0  0  0  0  0  0  0  0  0  0  0  0
   -0.1567   16.0771    1.2004 H   0  0  0  0  0  0  0  0  0  0  0  0
    0.2396   16.1903   -1.6680 H   0  0  0  0  0  0  0  0  0  0  0  0
   -1.4897   16.5738   -1.2144 H   0  0  0  0  0  0  0  0  0  0  0  0
   -0.1871   18.6217   -1.3310 H   0  0  0  0  0  0  0  0  0  0  0  0
   -0.6784   18.2577    0.3758 H   0  0  0  0  0  0  0  0  0  0  0  0
    1.1728   17.3962    0.8479 H   0  0  0  0  0  0  0  0  0  0  0  0
    1.2859   17.8290   -2.6928 H   0  0  0  0  0  0  0  0  0  0  0  0
    2.6457   18.9818   -2.9135 H   0  0  0  0  0  0  0  0  0  0  0  0
    2.9588   17.2130   -2.9135 H   0  0  0  0  0  0  0  0  0  0  0  0
    3.9080   17.6301    0.5990 H   0  0  0  0  0  0  0  0  0  0  0  0
    4.1299   16.6191   -0.8691 H   0  0  0  0  0  0  0  0  0  0  0  0
    4.6677   18.3330   -0.8691 H   0  0  0  0  0  0  0  0  0  0  0  0
    1.5668   15.1552   -0.0943 H   0  0  0  0  0  0  0  0  0  0  0  0
    1.6166   13.7537    1.8714 H   0  0  0  0  0  0  0  0  0  0  0  0
   -0.1103   13.3599    1.7288 H   0  0  0  0  0  0  0  0  0  0  0  0
    2.0517   11.6253    1.0327 H   0  0  0  0  0  0  0  0  0  0  0  0
    0.3814   11.3689    0.5360 H   0  0  0  0  0  0  0  0  0  0  0  0
    3.3610   13.0640    0.2248 H   0  0  0  0  0  0  0  0  0  0  0  0
    3.7515   12.2482   -1.3272 H   0  0  0  0  0  0  0  0  0  0  0  0
    3.1724   13.9486   -1.3272 H   0  0  0  0  0  0  0  0  0  0  0  0
    0.4246   11.0002   -1.8557 H   0  0  0  0  0  0  0  0  0  0  0  0
    2.4882    9.9825   -0.6958 H   0  0  0  0  0  0  0  0  0  0  0  0
    1.8121    9.2549   -2.2461 H   0  0  0  0  0  0  0  0  0  0  0  0
    4.4363    9.4135   -2.0795 H   0  0  0  0  0  0  0  0  0  0  0  0
    3.3413   12.9844   -3.6136 H   0  0  0  0  0  0  0  0  0  0  0  0
    2.8672   10.9872   -5.9120 H   0  0  0  0  0  0  0  0  0  0  0  0
    2.5598   12.7803   -5.9419 H   0  0  0  0  0  0  0  0  0  0  0  0
    4.6520   12.1685   -7.1141 H   0  0  0  0  0  0  0  0  0  0  0  0
    4.9320   13.2227   -5.6736 H   0  0  0  0  0  0  0  0  0  0  0  0
    6.5987   11.4968   -5.7002 H   0  0  0  0  0  0  0  0  0  0  0  0
    5.0690    9.3060   -5.2510 H   0  0  0  0  0  0  0  0  0  0  0  0
    6.1253   12.3313   -2.1801 H   0  0  0  0  0  0  0  0  0  0  0  0
    7.1991   12.4829   -3.6121 H   0  0  0  0  0  0  0  0  0  0  0  0
    5.5852   13.2716   -3.6121 H   0  0  0  0  0  0  0  0  0  0  0  0
    6.4666    9.8909   -2.3362 H   0  0  0  0  0  0  0  0  0  0  0  0
    6.0279    8.9877   -3.8257 H   0  0  0  0  0  0  0  0  0  0  0  0
    7.4522   10.0823   -3.8257 H   0  0  0  0  0  0  0  0  0  0  0  0
    0.3039   10.0656   -3.7339 H   0  0  0  0  0  0  0  0  0  0  0  0
    0.0746   11.2985   -5.0200 H   0  0  0  0  0  0  0  0  0  0  0  0
    1.5423   10.2629   -5.0200 H   0  0  0  0  0  0  0  0  0  0  0  0
    1.2300   13.6804   -4.6283 H   0  0  0  0  0  0  0  0  0  0  0  0
   -0.2565   12.9474   -3.7994 H   0  0  0  0  0  0  0  0  0  0  0  0
    1.9144   14.6459   -2.5384 H   0  0  0  0  0  0  0  0  0  0  0  0
    0.1677   15.0433   -2.7798 H   0  0  0  0  0  0  0  0  0  0  0  0
   -1.3245   12.9675   -0.2883 H   0  0  0  0  0  0  0  0  0  0  0  0
   -1.5425   13.8415   -1.8424 H   0  0  0  0  0  0  0  0  0  0  0  0
   -0.9745   12.1374   -1.8424 H   0  0  0  0  0  0  0  0  0  0  0  0
  1  2  1  0
  2  3  1  0
  3  4  1  0
  4  5  1  0
  5  6  1  0
  6  7  1  0
  7  8  1  0
  7  9  1  0
  2 10  1  0
 10 11  1  0
 11 12  1  0
 12 13  1  0
 13 14  1  1
 13 15  1  0
 15 16  1  0
 16 17  1  0
 17 18  2  0
 18 19  1  0
 19 20  1  0
 20 21  1  0
 21 22  1  0
 22 23  1  0
 22 24  1  0
 24 25  1  0
 24 26  1  0
 19 27  1  0
 27 28  1  6
 27 29  1  0
 29 30  1  0
 30 31  1  0
 31 32  1  6
  7  5  1  0
 31 10  1  0
 31 13  1  0
 27 15  1  0
 24 18  1  0
  1 33  1  0
  1 34  1  0
  1 35  1  0
  2 36  1  1
  3 37  1  0
  3 38  1  0
  4 39  1  0
  4 40  1  0
  5 41  1  1
  8 42  1  0
  8 43  1  0
  8 44  1  0
  9 45  1  0
  9 46  1  0
  9 47  1  0
 10 48  1  6
 11 49  1  0
 11 50  1  0
 12 51  1  0
 12 52  1  0
 14 53  1  0
 14 54  1  0
 14 55  1  0
 15 56  1  6
 16 57  1  0
 16 58  1  0
 17 59  1  0
 19 60  1  1
 20 61  1  0
 20 62  1  0
 21 63  1  0
 21 64  1  0
 22 65  1  1
 23 66  1  0
 25 67  1  0
 25 68  1  0
 25 69  1  0
 26 70  1  0
 26 71  1  0
 26 72  1  0
 28 73  1  0
 28 74  1  0
 28 75  1  0
 29 76  1  0
 29 77  1  0
 30 78  1  0
 30 79  1  0
 32 80  1  0
 32 81  1  0
 32 82  1  0
M  END
>  <meeko>  (18) 
{"is_sidechain": [false], "intermolecular_energy": 2.731, "internal_energy": -0.839}

$$$$
