EPH_relaxed_0001_pdb2pqr_Repair_92_r2_0001_out
     RDKit          3D

 82 86  0  0  0  0  0  0  0  0999 V2000
   -1.4700    8.5670   -1.7960 C   0  0  0  0  0  0  0  0  0  0  0  0
   -1.8750    9.1560   -0.4420 C   0  0  2  0  0  0  0  0  0  0  0  0
   -3.3650    9.5500   -0.4020 C   0  0  0  0  0  0  0  0  0  0  0  0
   -4.3130    8.3580   -0.2480 C   0  0  0  0  0  0  0  0  0  0  0  0
   -5.0510    8.0680   -1.5200 C   0  0  2  0  0  0  0  0  0  0  0  0
   -6.4620    8.3150   -1.4630 O   0  0  0  0  0  0  0  0  0  0  0  0
   -6.0640    6.9490   -1.6620 C   0  0  0  0  0  0  0  0  0  0  0  0
   -6.3950    6.0450   -0.5160 C   0  0  0  0  0  0  0  0  0  0  0  0
   -6.3670    6.4270   -3.0330 C   0  0  0  0  0  0  0  0  0  0  0  0
   -1.0070   10.3680   -0.1230 C   0  0  1  0  0  0  0  0  0  0  0  0
    0.1020   10.0510    0.9160 C   0  0  0  0  0  0  0  0  0  0  0  0
    1.3380   10.9020    0.5250 C   0  0  0  0  0  0  0  0  0  0  0  0
    0.8010   11.9160   -0.5110 C   0  0  1  0  0  0  0  0  0  0  0  0
    0.1360   13.0440    0.3390 C   0  0  0  0  0  0  0  0  0  0  0  0
    1.8470   12.4930   -1.5190 C   0  0  2  0  0  0  0  0  0  0  0  0
    2.9860   13.3080   -0.8820 C   0  0  0  0  0  0  0  0  0  0  0  0
    2.7260   14.7720   -0.7480 C   0  0  0  0  0  0  0  0  0  0  0  0
    1.7490   15.4530   -1.3760 C   0  0  0  0  0  0  0  0  0  0  0  0
    0.8410   14.7630   -2.4020 C   0  0  1  0  0  0  0  0  0  0  0  0
    0.7170   15.6530   -3.6660 C   0  0  0  0  0  0  0  0  0  0  0  0
    0.2570   17.0710   -3.3400 C   0  0  0  0  0  0  0  0  0  0  0  0
    1.2160   17.7450   -2.3630 C   0  0  2  0  0  0  0  0  0  0  0  0
    2.4740   17.9430   -3.0150 O   0  0  0  0  0  0  0  0  0  0  0  0
    1.4280   16.9340   -1.0540 C   0  0  0  0  0  0  0  0  0  0  0  0
    0.1360   16.9760   -0.2010 C   0  0  0  0  0  0  0  0  0  0  0  0
    2.5230   17.6510   -0.2200 C   0  0  0  0  0  0  0  0  0  0  0  0
    1.2090   13.2560   -2.7500 C   0  0  1  0  0  0  0  0  0  0  0  0
    2.2670   13.2180   -3.8950 C   0  0  0  0  0  0  0  0  0  0  0  0
   -0.0720   12.5290   -3.3060 C   0  0  0  0  0  0  0  0  0  0  0  0
   -1.0050   11.8760   -2.2680 C   0  0  0  0  0  0  0  0  0  0  0  0
   -0.2120   11.0020   -1.2920 C   0  0  2  0  0  0  0  0  0  0  0  0
    0.4500    9.8450   -2.1150 C   0  0  0  0  0  0  0  0  0  0  0  0
   -0.8534    7.6702   -1.6361 H   0  0  0  0  0  0  0  0  0  0  0  0
   -2.3729    8.2949   -2.3623 H   0  0  0  0  0  0  0  0  0  0  0  0
   -0.8928    9.3127   -2.3623 H   0  0  0  0  0  0  0  0  0  0  0  0
   -1.7198    8.3762    0.3182 H   0  0  0  0  0  0  0  0  0  0  0  0
   -3.5216   10.2303    0.4481 H   0  0  0  0  0  0  0  0  0  0  0  0
   -3.5982   10.0235   -1.3671 H   0  0  0  0  0  0  0  0  0  0  0  0
   -3.7271    7.4708    0.0343 H   0  0  0  0  0  0  0  0  0  0  0  0
   -5.0521    8.6060    0.5281 H   0  0  0  0  0  0  0  0  0  0  0  0
   -4.1738    8.3496   -2.1210 H   0  0  0  0  0  0  0  0  0  0  0  0
   -6.2031    6.5692    0.4318 H   0  0  0  0  0  0  0  0  0  0  0  0
   -7.4560    5.7595   -0.5688 H   0  0  0  0  0  0  0  0  0  0  0  0
   -5.7692    5.1419   -0.5688 H   0  0  0  0  0  0  0  0  0  0  0  0
   -6.9177    5.4783   -2.9507 H   0  0  0  0  0  0  0  0  0  0  0  0
   -6.9797    7.1606   -3.5775 H   0  0  0  0  0  0  0  0  0  0  0  0
   -5.4261    6.2588   -3.5775 H   0  0  0  0  0  0  0  0  0  0  0  0
   -1.7841   11.0646    0.2247 H   0  0  0  0  0  0  0  0  0  0  0  0
   -0.2382   10.3195    1.9270 H   0  0  0  0  0  0  0  0  0  0  0  0
    0.3458    8.9784    0.9185 H   0  0  0  0  0  0  0  0  0  0  0  0
    1.7444   11.4234    1.4042 H   0  0  0  0  0  0  0  0  0  0  0  0
    2.1569   10.2879    0.1221 H   0  0  0  0  0  0  0  0  0  0  0  0
    0.2666   12.8225    1.4085 H   0  0  0  0  0  0  0  0  0  0  0  0
    0.6101   14.0083    0.1037 H   0  0  0  0  0  0  0  0  0  0  0  0
   -0.9373   13.0960    0.1037 H   0  0  0  0  0  0  0  0  0  0  0  0
    2.3177   11.5821   -1.9174 H   0  0  0  0  0  0  0  0  0  0  0  0
    3.1727   12.9027    0.1234 H   0  0  0  0  0  0  0  0  0  0  0  0
    3.8451   13.2129   -1.5623 H   0  0  0  0  0  0  0  0  0  0  0  0
    3.3883   15.3422   -0.0800 H   0  0  0  0  0  0  0  0  0  0  0  0
   -0.1423   14.6628   -1.9191 H   0  0  0  0  0  0  0  0  0  0  0  0
    1.6993   15.7053   -4.1582 H   0  0  0  0  0  0  0  0  0  0  0  0
   -0.0405   15.1985   -4.3215 H   0  0  0  0  0  0  0  0  0  0  0  0
    0.2174   17.6590   -4.2688 H   0  0  0  0  0  0  0  0  0  0  0  0
   -0.7384   17.0187   -2.8748 H   0  0  0  0  0  0  0  0  0  0  0  0
    0.7658   18.7043   -2.0678 H   0  0  0  0  0  0  0  0  0  0  0  0
    3.1190   17.3450   -2.5990 H   0  0  0  0  0  0  0  0  0  0  0  0
    0.4010   16.9674    0.8666 H   0  0  0  0  0  0  0  0  0  0  0  0
   -0.4261   17.8929   -0.4319 H   0  0  0  0  0  0  0  0  0  0  0  0
   -0.4845   16.0976   -0.4319 H   0  0  0  0  0  0  0  0  0  0  0  0
    2.3155   17.5151    0.8517 H   0  0  0  0  0  0  0  0  0  0  0  0
    3.5068   17.2216   -0.4603 H   0  0  0  0  0  0  0  0  0  0  0  0
    2.5228   18.7244   -0.4603 H   0  0  0  0  0  0  0  0  0  0  0  0
    3.2767   13.1817   -3.4601 H   0  0  0  0  0  0  0  0  0  0  0  0
    2.1030   12.3252   -4.5163 H   0  0  0  0  0  0  0  0  0  0  0  0
    2.1675   14.1203   -4.5163 H   0  0  0  0  0  0  0  0  0  0  0  0
   -0.6616   13.2725   -3.8624 H   0  0  0  0  0  0  0  0  0  0  0  0
    0.3106   11.6959   -3.9139 H   0  0  0  0  0  0  0  0  0  0  0  0
   -1.5244   12.6649   -1.7043 H   0  0  0  0  0  0  0  0  0  0  0  0
   -1.7300   11.2410   -2.7982 H   0  0  0  0  0  0  0  0  0  0  0  0
    0.8755    9.1013   -1.4252 H   0  0  0  0  0  0  0  0  0  0  0  0
   -0.3099    9.3646   -2.7489 H   0  0  0  0  0  0  0  0  0  0  0  0
    1.2492   10.2567   -2.7489 H   0  0  0  0  0  0  0  0  0  0  0  0
  1  2  1  0
  2  3  1  0
  3  4  1  0
  4  5  1  0
  5  6  1  0
  6  7  1  0
  7  8  1  0
  7  9  1  0
  2 10  1  0
 10 11  1  0
 11 12  1  0
 12 13  1  0
 13 14  1  1
 13 15  1  0
 15 16  1  0
 16 17  1  0
 17 18  2  0
 18 19  1  0
 19 20  1  0
 20 21  1  0
 21 22  1  0
 22 23  1  0
 22 24  1  0
 24 25  1  0
 24 26  1  0
 19 27  1  0
 27 28  1  6
 27 29  1  0
 29 30  1  0
 30 31  1  0
 31 32  1  6
  7  5  1  0
 31 10  1  0
 31 13  1  0
 27 15  1  0
 24 18  1  0
  1 33  1  0
  1 34  1  0
  1 35  1  0
  2 36  1  1
  3 37  1  0
  3 38  1  0
  4 39  1  0
  4 40  1  0
  5 41  1  6
  8 42  1  0
  8 43  1  0
  8 44  1  0
  9 45  1  0
  9 46  1  0
  9 47  1  0
 10 48  1  1
 11 49  1  0
 11 50  1  0
 12 51  1  0
 12 52  1  0
 14 53  1  0
 14 54  1  0
 14 55  1  0
 15 56  1  6
 16 57  1  0
 16 58  1  0
 17 59  1  0
 19 60  1  1
 20 61  1  0
 20 62  1  0
 21 63  1  0
 21 64  1  0
 22 65  1  1
 23 66  1  0
 25 67  1  0
 25 68  1  0
 25 69  1  0
 26 70  1  0
 26 71  1  0
 26 72  1  0
 28 73  1  0
 28 74  1  0
 28 75  1  0
 29 76  1  0
 29 77  1  0
 30 78  1  0
 30 79  1  0
 32 80  1  0
 32 81  1  0
 32 82  1  0
M  END
>  <meeko>  (1) 
{"is_sidechain": [false], "intermolecular_energy": 2.731, "internal_energy": -0.839}

$$$$
EPH_relaxed_0001_pdb2pqr_Repair_92_r2_0001_out
     RDKit          3D

 82 86  0  0  0  0  0  0  0  0999 V2000
    1.9870   19.6530   -0.5780 C   0  0  0  0  0  0  0  0  0  0  0  0
    2.3850   18.4260    0.2470 C   0  0  2  0  0  0  0  0  0  0  0  0
    3.8370   17.9860   -0.0320 C   0  0  0  0  0  0  0  0  0  0  0  0
    4.7890   18.2270    1.1420 C   0  0  0  0  0  0  0  0  0  0  0  0
    4.1160   18.9650    2.2600 C   0  0  2  0  0  0  0  0  0  0  0  0
    4.7530   20.1930    2.6350 O   0  0  0  0  0  0  0  0  0  0  0  0
    4.7380   19.1570    3.6300 C   0  0  0  0  0  0  0  0  0  0  0  0
    6.0920   18.6070    3.9560 C   0  0  0  0  0  0  0  0  0  0  0  0
    3.8380   19.4470    4.7900 C   0  0  0  0  0  0  0  0  0  0  0  0
    1.4280   17.2750   -0.0380 C   0  0  1  0  0  0  0  0  0  0  0  0
    0.1530   17.7320   -0.7950 C   0  0  0  0  0  0  0  0  0  0  0  0
   -0.2390   16.5770   -1.7520 C   0  0  0  0  0  0  0  0  0  0  0  0
    0.6140   15.3750   -1.2810 C   0  0  1  0  0  0  0  0  0  0  0  0
   -0.1580   14.7910   -0.0560 C   0  0  0  0  0  0  0  0  0  0  0  0
    0.9110   14.2760   -2.3530 C   0  0  2  0  0  0  0  0  0  0  0  0
   -0.3280   13.5510   -2.9050 C   0  0  0  0  0  0  0  0  0  0  0  0
   -0.7300   12.3200   -2.1620 C   0  0  0  0  0  0  0  0  0  0  0  0
    0.0350   11.6570   -1.2750 C   0  0  0  0  0  0  0  0  0  0  0  0
    1.4860   12.0820   -1.0140 C   0  0  1  0  0  0  0  0  0  0  0  0
    2.4020   10.8300   -1.0230 C   0  0  0  0  0  0  0  0  0  0  0  0
    1.9270    9.7500   -0.0560 C   0  0  0  0  0  0  0  0  0  0  0  0
    0.5010    9.3120   -0.3840 C   0  0  2  0  0  0  0  0  0  0  0  0
    0.5030    8.6490   -1.6520 O   0  0  0  0  0  0  0  0  0  0  0  0
   -0.5100   10.4920   -0.4130 C   0  0  0  0  0  0  0  0  0  0  0  0
   -0.7380   11.0170    1.0260 C   0  0  0  0  0  0  0  0  0  0  0  0
   -1.8780    9.9360   -0.8930 C   0  0  0  0  0  0  0  0  0  0  0  0
    2.0420   13.2520   -1.9340 C   0  0  1  0  0  0  0  0  0  0  0  0
    2.6180   12.6600   -3.2570 C   0  0  0  0  0  0  0  0  0  0  0  0
    3.2450   13.9550   -1.2010 C   0  0  0  0  0  0  0  0  0  0  0  0
    2.8960   15.1120   -0.2460 C   0  0  0  0  0  0  0  0  0  0  0  0
    1.9540   16.1140   -0.9190 C   0  0  2  0  0  0  0  0  0  0  0  0
    2.7110   16.7340   -2.1430 C   0  0  0  0  0  0  0  0  0  0  0  0
    1.7193   20.4783    0.0981 H   0  0  0  0  0  0  0  0  0  0  0  0
    2.8322   19.9582   -1.2124 H   0  0  0  0  0  0  0  0  0  0  0  0
    1.1236   19.4039   -1.2124 H   0  0  0  0  0  0  0  0  0  0  0  0
    2.3226   18.7062    1.3089 H   0  0  0  0  0  0  0  0  0  0  0  0
    3.8357   16.9105   -0.2630 H   0  0  0  0  0  0  0  0  0  0  0  0
    4.2018   18.5952   -0.8721 H   0  0  0  0  0  0  0  0  0  0  0  0
    5.1435   17.2561    1.5184 H   0  0  0  0  0  0  0  0  0  0  0  0
    5.6279   18.8409    0.7824 H   0  0  0  0  0  0  0  0  0  0  0  0
    3.1303   18.5936    1.9430 H   0  0  0  0  0  0  0  0  0  0  0  0
    6.2144   18.5573    5.0480 H   0  0  0  0  0  0  0  0  0  0  0  0
    6.1902   17.5977    3.5297 H   0  0  0  0  0  0  0  0  0  0  0  0
    6.8662   19.2619    3.5297 H   0  0  0  0  0  0  0  0  0  0  0  0
    4.3826   19.2715    5.7295 H   0  0  0  0  0  0  0  0  0  0  0  0
    3.5104   20.4962    4.7466 H   0  0  0  0  0  0  0  0  0  0  0  0
    2.9595   18.7865    4.7466 H   0  0  0  0  0  0  0  0  0  0  0  0
    1.2558   16.9200    0.9888 H   0  0  0  0  0  0  0  0  0  0  0  0
   -0.6617   17.9256   -0.0817 H   0  0  0  0  0  0  0  0  0  0  0  0
    0.3379   18.6614   -1.3536 H   0  0  0  0  0  0  0  0  0  0  0  0
   -1.3118   16.3492   -1.6670 H   0  0  0  0  0  0  0  0  0  0  0  0
   -0.0582   16.8294   -2.8073 H   0  0  0  0  0  0  0  0  0  0  0  0
    0.3096   15.1448    0.8747 H   0  0  0  0  0  0  0  0  0  0  0  0
   -1.2056   15.1247   -0.0898 H   0  0  0  0  0  0  0  0  0  0  0  0
   -0.1219   13.6921   -0.0898 H   0  0  0  0  0  0  0  0  0  0  0  0
    1.3091   14.8657   -3.1919 H   0  0  0  0  0  0  0  0  0  0  0  0
   -1.1731   14.2547   -2.8795 H   0  0  0  0  0  0  0  0  0  0  0  0
   -0.0605   13.2205   -3.9195 H   0  0  0  0  0  0  0  0  0  0  0  0
   -1.7366   11.9211   -2.3559 H   0  0  0  0  0  0  0  0  0  0  0  0
    1.4930   12.5421   -0.0149 H   0  0  0  0  0  0  0  0  0  0  0  0
    2.4164   10.4110   -2.0400 H   0  0  0  0  0  0  0  0  0  0  0  0
    3.4048   11.1480   -0.7016 H   0  0  0  0  0  0  0  0  0  0  0  0
    2.5967    8.8805   -0.1303 H   0  0  0  0  0  0  0  0  0  0  0  0
    1.9420   10.1611    0.9642 H   0  0  0  0  0  0  0  0  0  0  0  0
    0.1705    8.6351    0.4176 H   0  0  0  0  0  0  0  0  0  0  0  0
   -0.4220    8.5560   -1.9370 H   0  0  0  0  0  0  0  0  0  0  0  0
   -0.4081   10.2574    1.7500 H   0  0  0  0  0  0  0  0  0  0  0  0
   -0.1601   11.9410    1.1751 H   0  0  0  0  0  0  0  0  0  0  0  0
   -1.8077   11.2255    1.1751 H   0  0  0  0  0  0  0  0  0  0  0  0
   -2.4980    9.6840   -0.0201 H   0  0  0  0  0  0  0  0  0  0  0  0
   -2.3907   10.6971   -1.4995 H   0  0  0  0  0  0  0  0  0  0  0  0
   -1.7144    9.0330   -1.4995 H   0  0  0  0  0  0  0  0  0  0  0  0
    3.3669   11.8903   -3.0188 H   0  0  0  0  0  0  0  0  0  0  0  0
    1.8030   12.2098   -3.8426 H   0  0  0  0  0  0  0  0  0  0  0  0
    3.0904   13.4624   -3.8426 H   0  0  0  0  0  0  0  0  0  0  0  0
    3.7721   13.1875   -0.6152 H   0  0  0  0  0  0  0  0  0  0  0  0
    3.8421   14.4138   -2.0029 H   0  0  0  0  0  0  0  0  0  0  0  0
    2.4059   14.7034    0.6500 H   0  0  0  0  0  0  0  0  0  0  0  0
    3.8253   15.6335    0.0269 H   0  0  0  0  0  0  0  0  0  0  0  0
    3.5148   17.3923   -1.7818 H   0  0  0  0  0  0  0  0  0  0  0  0
    3.1439   15.9276   -2.7532 H   0  0  0  0  0  0  0  0  0  0  0  0
    2.0057   17.3173   -2.7532 H   0  0  0  0  0  0  0  0  0  0  0  0
  1  2  1  0
  2  3  1  0
  3  4  1  0
  4  5  1  0
  5  6  1  0
  6  7  1  0
  7  8  1  0
  7  9  1  0
  2 10  1  0
 10 11  1  0
 11 12  1  0
 12 13  1  0
 13 14  1  1
 13 15  1  0
 15 16  1  0
 16 17  1  0
 17 18  2  0
 18 19  1  0
 19 20  1  0
 20 21  1  0
 21 22  1  0
 22 23  1  0
 22 24  1  0
 24 25  1  0
 24 26  1  0
 19 27  1  0
 27 28  1  6
 27 29  1  0
 29 30  1  0
 30 31  1  0
 31 32  1  6
  7  5  1  0
 31 10  1  0
 31 13  1  0
 27 15  1  0
 24 18  1  0
  1 33  1  0
  1 34  1  0
  1 35  1  0
  2 36  1  1
  3 37  1  0
  3 38  1  0
  4 39  1  0
  4 40  1  0
  5 41  1  1
  8 42  1  0
  8 43  1  0
  8 44  1  0
  9 45  1  0
  9 46  1  0
  9 47  1  0
 10 48  1  1
 11 49  1  0
 11 50  1  0
 12 51  1  0
 12 52  1  0
 14 53  1  0
 14 54  1  0
 14 55  1  0
 15 56  1  6
 16 57  1  0
 16 58  1  0
 17 59  1  0
 19 60  1  1
 20 61  1  0
 20 62  1  0
 21 63  1  0
 21 64  1  0
 22 65  1  1
 23 66  1  0
 25 67  1  0
 25 68  1  0
 25 69  1  0
 26 70  1  0
 26 71  1  0
 26 72  1  0
 28 73  1  0
 28 74  1  0
 28 75  1  0
 29 76  1  0
 29 77  1  0
 30 78  1  0
 30 79  1  0
 32 80  1  0
 32 81  1  0
 32 82  1  0
M  END
>  <meeko>  (2) 
{"is_sidechain": [false], "intermolecular_energy": 2.731, "internal_energy": -0.839}

$$$$
EPH_relaxed_0001_pdb2pqr_Repair_92_r2_0001_out
     RDKit          3D

 82 86  0  0  0  0  0  0  0  0999 V2000
    0.3970   18.4800   -0.0410 C   0  0  0  0  0  0  0  0  0  0  0  0
    1.4840   17.4200   -0.2410 C   0  0  2  0  0  0  0  0  0  0  0  0
    2.7100   17.9790   -0.9900 C   0  0  0  0  0  0  0  0  0  0  0  0
    3.9460   18.1520   -0.1050 C   0  0  0  0  0  0  0  0  0  0  0  0
    3.5820   18.6230    1.2710 C   0  0  2  0  0  0  0  0  0  0  0  0
    3.8340   20.0130    1.5140 O   0  0  0  0  0  0  0  0  0  0  0  0
    4.6020   19.0830    2.2950 C   0  0  0  0  0  0  0  0  0  0  0  0
    6.0660   19.0940    1.9880 C   0  0  0  0  0  0  0  0  0  0  0  0
    4.2240   19.0560    3.7440 C   0  0  0  0  0  0  0  0  0  0  0  0
    0.9130   16.2250   -0.9950 C   0  0  1  0  0  0  0  0  0  0  0  0
    0.7560   16.4970   -2.5150 C   0  0  0  0  0  0  0  0  0  0  0  0
    1.0500   15.1600   -3.2420 C   0  0  0  0  0  0  0  0  0  0  0  0
    1.0390   14.0950   -2.1200 C   0  0  1  0  0  0  0  0  0  0  0  0
   -0.4710   13.7790   -1.8820 C   0  0  0  0  0  0  0  0  0  0  0  0
    1.8650   12.7960   -2.3920 C   0  0  2  0  0  0  0  0  0  0  0  0
    1.3860   11.9570   -3.5890 C   0  0  0  0  0  0  0  0  0  0  0  0
    0.3720   10.9090   -3.2690 C   0  0  0  0  0  0  0  0  0  0  0  0
    0.0760   10.4590   -2.0360 C   0  0  0  0  0  0  0  0  0  0  0  0
    0.8610   10.9440   -0.8100 C   0  0  1  0  0  0  0  0  0  0  0  0
    1.2460    9.7280    0.0730 C   0  0  0  0  0  0  0  0  0  0  0  0
    0.0400    8.8750    0.4530 C   0  0  0  0  0  0  0  0  0  0  0  0
   -0.6800    8.3630   -0.7920 C   0  0  2  0  0  0  0  0  0  0  0  0
    0.1770    7.4440   -1.4760 O   0  0  0  0  0  0  0  0  0  0  0  0
   -1.1090    9.4990   -1.7630 C   0  0  0  0  0  0  0  0  0  0  0  0
   -2.2610   10.3180   -1.1300 C   0  0  0  0  0  0  0  0  0  0  0  0
   -1.6960    8.8400   -3.0400 C   0  0  0  0  0  0  0  0  0  0  0  0
    2.0970   11.8960   -1.1110 C   0  0  1  0  0  0  0  0  0  0  0  0
    3.3710   11.0410   -1.3930 C   0  0  0  0  0  0  0  0  0  0  0  0
    2.4120   12.7510    0.1730 C   0  0  0  0  0  0  0  0  0  0  0  0
    1.6510   14.0820    0.3240 C   0  0  0  0  0  0  0  0  0  0  0  0
    1.7280   14.9080   -0.9630 C   0  0  2  0  0  0  0  0  0  0  0  0
    3.2330   15.2600   -1.2170 C   0  0  0  0  0  0  0  0  0  0  0  0
    0.2337   18.6392    1.0351 H   0  0  0  0  0  0  0  0  0  0  0  0
    0.7153   19.4241   -0.5072 H   0  0  0  0  0  0  0  0  0  0  0  0
   -0.5388   18.1381   -0.5072 H   0  0  0  0  0  0  0  0  0  0  0  0
    1.8232   17.1025    0.7561 H   0  0  0  0  0  0  0  0  0  0  0  0
    2.9624   17.2876   -1.8074 H   0  0  0  0  0  0  0  0  0  0  0  0
    2.4344   18.9791   -1.3558 H   0  0  0  0  0  0  0  0  0  0  0  0
    4.4652   17.1855   -0.0251 H   0  0  0  0  0  0  0  0  0  0  0  0
    4.5944   18.9112   -0.5667 H   0  0  0  0  0  0  0  0  0  0  0  0
    2.7568   17.8978    1.3263 H   0  0  0  0  0  0  0  0  0  0  0  0
    6.6377   19.0983    2.9278 H   0  0  0  0  0  0  0  0  0  0  0  0
    6.3252   18.1978    1.4052 H   0  0  0  0  0  0  0  0  0  0  0  0
    6.3117   19.9940    1.4052 H   0  0  0  0  0  0  0  0  0  0  0  0
    5.1323   19.1209    4.3611 H   0  0  0  0  0  0  0  0  0  0  0  0
    3.5671   19.9095    3.9675 H   0  0  0  0  0  0  0  0  0  0  0  0
    3.6951   18.1178    3.9675 H   0  0  0  0  0  0  0  0  0  0  0  0
   -0.0319   16.0960   -0.4468 H   0  0  0  0  0  0  0  0  0  0  0  0
   -0.2685   16.8309   -2.7361 H   0  0  0  0  0  0  0  0  0  0  0  0
    1.4452   17.2871   -2.8478 H   0  0  0  0  0  0  0  0  0  0  0  0
    0.2718   14.9450   -3.9891 H   0  0  0  0  0  0  0  0  0  0  0  0
    2.0056   15.1825   -3.7864 H   0  0  0  0  0  0  0  0  0  0  0  0
   -0.6709   13.7372   -0.8011 H   0  0  0  0  0  0  0  0  0  0  0  0
   -1.0871   14.5677   -2.3386 H   0  0  0  0  0  0  0  0  0  0  0  0
   -0.7191   12.8095   -2.3386 H   0  0  0  0  0  0  0  0  0  0  0  0
    2.8471   13.1971   -2.6828 H   0  0  0  0  0  0  0  0  0  0  0  0
    0.9454   12.6413   -4.3290 H   0  0  0  0  0  0  0  0  0  0  0  0
    2.2723   11.4199   -3.9579 H   0  0  0  0  0  0  0  0  0  0  0  0
   -0.1795   10.4676   -4.1122 H   0  0  0  0  0  0  0  0  0  0  0  0
    0.1803   11.6066   -0.2553 H   0  0  0  0  0  0  0  0  0  0  0  0
    1.9601    9.1016   -0.4817 H   0  0  0  0  0  0  0  0  0  0  0  0
    1.6857   10.1171    1.0032 H   0  0  0  0  0  0  0  0  0  0  0  0
    0.3802    8.0165    1.0507 H   0  0  0  0  0  0  0  0  0  0  0  0
   -0.6595    9.4946    1.0333 H   0  0  0  0  0  0  0  0  0  0  0  0
   -1.6048    7.8700   -0.4579 H   0  0  0  0  0  0  0  0  0  0  0  0
    0.3020    6.6730   -0.8980 H   0  0  0  0  0  0  0  0  0  0  0  0
   -2.1883   10.2663   -0.0336 H   0  0  0  0  0  0  0  0  0  0  0  0
   -2.1861   11.3667   -1.4534 H   0  0  0  0  0  0  0  0  0  0  0  0
   -3.2269    9.9027   -1.4534 H   0  0  0  0  0  0  0  0  0  0  0  0
   -2.4021    8.0473   -2.7520 H   0  0  0  0  0  0  0  0  0  0  0  0
   -2.2216    9.6003   -3.6365 H   0  0  0  0  0  0  0  0  0  0  0  0
   -0.8803    8.4055   -3.6365 H   0  0  0  0  0  0  0  0  0  0  0  0
    3.8261   10.7356   -0.4393 H   0  0  0  0  0  0  0  0  0  0  0  0
    3.0921   10.1465   -1.9693 H   0  0  0  0  0  0  0  0  0  0  0  0
    4.0931   11.6380   -1.9693 H   0  0  0  0  0  0  0  0  0  0  0  0
    2.1772   12.1317    1.0513 H   0  0  0  0  0  0  0  0  0  0  0  0
    3.4709   13.0335    0.0786 H   0  0  0  0  0  0  0  0  0  0  0  0
    0.5962   13.8692    0.5522 H   0  0  0  0  0  0  0  0  0  0  0  0
    2.1130   14.6590    1.1386 H   0  0  0  0  0  0  0  0  0  0  0  0
    3.7491   15.3807   -0.2531 H   0  0  0  0  0  0  0  0  0  0  0  0
    3.7080   14.4487   -1.7881 H   0  0  0  0  0  0  0  0  0  0  0  0
    3.2989   16.1978   -1.7881 H   0  0  0  0  0  0  0  0  0  0  0  0
  1  2  1  0
  2  3  1  0
  3  4  1  0
  4  5  1  0
  5  6  1  0
  6  7  1  0
  7  8  1  0
  7  9  1  0
  2 10  1  0
 10 11  1  0
 11 12  1  0
 12 13  1  0
 13 14  1  1
 13 15  1  0
 15 16  1  0
 16 17  1  0
 17 18  2  0
 18 19  1  0
 19 20  1  0
 20 21  1  0
 21 22  1  0
 22 23  1  0
 22 24  1  0
 24 25  1  0
 24 26  1  0
 19 27  1  0
 27 28  1  6
 27 29  1  0
 29 30  1  0
 30 31  1  0
 31 32  1  6
  7  5  1  0
 31 10  1  0
 31 13  1  0
 27 15  1  0
 24 18  1  0
  1 33  1  0
  1 34  1  0
  1 35  1  0
  2 36  1  1
  3 37  1  0
  3 38  1  0
  4 39  1  0
  4 40  1  0
  5 41  1  1
  8 42  1  0
  8 43  1  0
  8 44  1  0
  9 45  1  0
  9 46  1  0
  9 47  1  0
 10 48  1  1
 11 49  1  0
 11 50  1  0
 12 51  1  0
 12 52  1  0
 14 53  1  0
 14 54  1  0
 14 55  1  0
 15 56  1  6
 16 57  1  0
 16 58  1  0
 17 59  1  0
 19 60  1  1
 20 61  1  0
 20 62  1  0
 21 63  1  0
 21 64  1  0
 22 65  1  1
 23 66  1  0
 25 67  1  0
 25 68  1  0
 25 69  1  0
 26 70  1  0
 26 71  1  0
 26 72  1  0
 28 73  1  0
 28 74  1  0
 28 75  1  0
 29 76  1  0
 29 77  1  0
 30 78  1  0
 30 79  1  0
 32 80  1  0
 32 81  1  0
 32 82  1  0
M  END
>  <meeko>  (3) 
{"is_sidechain": [false], "intermolecular_energy": 2.731, "internal_energy": -0.839}

$$$$
EPH_relaxed_0001_pdb2pqr_Repair_92_r2_0001_out
     RDKit          3D

 82 86  0  0  0  0  0  0  0  0999 V2000
    2.3770   18.0410   -2.6770 C   0  0  0  0  0  0  0  0  0  0  0  0
    1.0540   17.6700   -2.0010 C   0  0  2  0  0  0  0  0  0  0  0  0
    1.1470   17.7450   -0.4640 C   0  0  0  0  0  0  0  0  0  0  0  0
    0.8100   19.1260    0.1060 C   0  0  0  0  0  0  0  0  0  0  0  0
   -0.6300   19.2240    0.5080 C   0  0  2  0  0  0  0  0  0  0  0  0
   -1.4950   18.2750   -0.1290 O   0  0  0  0  0  0  0  0  0  0  0  0
   -1.7350   19.6580   -0.4370 C   0  0  0  0  0  0  0  0  0  0  0  0
   -1.4470   20.0230   -1.8590 C   0  0  0  0  0  0  0  0  0  0  0  0
   -3.0060   20.1930    0.1460 C   0  0  0  0  0  0  0  0  0  0  0  0
    0.6270   16.2710   -2.4290 C   0  0  1  0  0  0  0  0  0  0  0  0
    0.7380   16.0550   -3.9620 C   0  0  0  0  0  0  0  0  0  0  0  0
    1.1580   14.5780   -4.1770 C   0  0  0  0  0  0  0  0  0  0  0  0
    0.9540   13.9100   -2.7970 C   0  0  1  0  0  0  0  0  0  0  0  0
   -0.5740   13.5960   -2.7260 C   0  0  0  0  0  0  0  0  0  0  0  0
    1.8180   12.6390   -2.5100 C   0  0  2  0  0  0  0  0  0  0  0  0
    1.5590   11.4480   -3.4480 C   0  0  0  0  0  0  0  0  0  0  0  0
    0.5070   10.4920   -2.9890 C   0  0  0  0  0  0  0  0  0  0  0  0
    0.0000   10.4250   -1.7440 C   0  0  0  0  0  0  0  0  0  0  0  0
    0.5570   11.3060   -0.6190 C   0  0  1  0  0  0  0  0  0  0  0  0
    0.7850   10.4430    0.6500 C   0  0  0  0  0  0  0  0  0  0  0  0
   -0.4670    9.6810    1.0710 C   0  0  0  0  0  0  0  0  0  0  0  0
   -0.9560    8.7720   -0.0530 C   0  0  2  0  0  0  0  0  0  0  0  0
    0.0100    7.7380   -0.2640 O   0  0  0  0  0  0  0  0  0  0  0  0
   -1.2110    9.5300   -1.3860 C   0  0  0  0  0  0  0  0  0  0  0  0
   -2.4590   10.4360   -1.2390 C   0  0  0  0  0  0  0  0  0  0  0  0
   -1.5640    8.4790   -2.4730 C   0  0  0  0  0  0  0  0  0  0  0  0
    1.8250   12.1890   -0.9920 C   0  0  1  0  0  0  0  0  0  0  0  0
    3.1300   11.3630   -0.7790 C   0  0  0  0  0  0  0  0  0  0  0  0
    1.9080   13.4130   -0.0060 C   0  0  0  0  0  0  0  0  0  0  0  0
    1.1280   14.6810   -0.4040 C   0  0  0  0  0  0  0  0  0  0  0  0
    1.4280   15.0750   -1.8540 C   0  0  2  0  0  0  0  0  0  0  0  0
    2.9530   15.4180   -1.9510 C   0  0  0  0  0  0  0  0  0  0  0  0
    3.1346   18.2534   -1.9083 H   0  0  0  0  0  0  0  0  0  0  0  0
    2.7159   17.2032   -3.3041 H   0  0  0  0  0  0  0  0  0  0  0  0
    2.2309   18.9328   -3.3041 H   0  0  0  0  0  0  0  0  0  0  0  0
    0.3002   18.4038   -2.3225 H   0  0  0  0  0  0  0  0  0  0  0  0
    0.4459   17.0126   -0.0374 H   0  0  0  0  0  0  0  0  0  0  0  0
    2.1919   17.5318   -0.1942 H   0  0  0  0  0  0  0  0  0  0  0  0
    1.4398   19.3105    0.9888 H   0  0  0  0  0  0  0  0  0  0  0  0
    0.9989   19.8752   -0.6770 H   0  0  0  0  0  0  0  0  0  0  0  0
   -0.3497   19.5578    1.5180 H   0  0  0  0  0  0  0  0  0  0  0  0
   -0.7658   20.8863   -1.8852 H   0  0  0  0  0  0  0  0  0  0  0  0
   -0.9766   19.1692   -2.3687 H   0  0  0  0  0  0  0  0  0  0  0  0
   -2.3868   20.2819   -2.3687 H   0  0  0  0  0  0  0  0  0  0  0  0
   -2.9451   20.1673    1.2440 H   0  0  0  0  0  0  0  0  0  0  0  0
   -3.1549   21.2302   -0.1888 H   0  0  0  0  0  0  0  0  0  0  0  0
   -3.8518   19.5746   -0.1888 H   0  0  0  0  0  0  0  0  0  0  0  0
   -0.3989   16.2625   -2.0322 H   0  0  0  0  0  0  0  0  0  0  0  0
   -0.2327   16.2465   -4.4427 H   0  0  0  0  0  0  0  0  0  0  0  0
    1.4730   16.7429   -4.4053 H   0  0  0  0  0  0  0  0  0  0  0  0
    0.5228   14.1003   -4.9374 H   0  0  0  0  0  0  0  0  0  0  0  0
    2.1938   14.4867   -4.5358 H   0  0  0  0  0  0  0  0  0  0  0  0
   -0.8866   13.5318   -1.6733 H   0  0  0  0  0  0  0  0  0  0  0  0
   -1.1367   14.3973   -3.2273 H   0  0  0  0  0  0  0  0  0  0  0  0
   -0.7751   12.6378   -3.2273 H   0  0  0  0  0  0  0  0  0  0  0  0
    2.8346   12.9875   -2.7445 H   0  0  0  0  0  0  0  0  0  0  0  0
    1.2529   11.8463   -4.4266 H   0  0  0  0  0  0  0  0  0  0  0  0
    2.4978   10.8756   -3.4797 H   0  0  0  0  0  0  0  0  0  0  0  0
    0.1132    9.7825   -3.7316 H   0  0  0  0  0  0  0  0  0  0  0  0
   -0.2122   12.0668   -0.4202 H   0  0  0  0  0  0  0  0  0  0  0  0
    1.5865    9.7183    0.4444 H   0  0  0  0  0  0  0  0  0  0  0  0
    1.0549   11.1223    1.4720 H   0  0  0  0  0  0  0  0  0  0  0  0
   -0.2353    9.0681    1.9546 H   0  0  0  0  0  0  0  0  0  0  0  0
   -1.2588   10.4081    1.3041 H   0  0  0  0  0  0  0  0  0  0  0  0
   -1.9237    8.3525    0.2594 H   0  0  0  0  0  0  0  0  0  0  0  0
   -0.3460    7.1360   -0.9400 H   0  0  0  0  0  0  0  0  0  0  0  0
   -2.6747   10.5926   -0.1718 H   0  0  0  0  0  0  0  0  0  0  0  0
   -2.2666   11.4062   -1.7204 H   0  0  0  0  0  0  0  0  0  0  0  0
   -3.3218    9.9525   -1.7204 H   0  0  0  0  0  0  0  0  0  0  0  0
   -1.8785    7.5425   -1.9892 H   0  0  0  0  0  0  0  0  0  0  0  0
   -2.3832    8.8609   -3.1000 H   0  0  0  0  0  0  0  0  0  0  0  0
   -0.6804    8.2890   -3.1000 H   0  0  0  0  0  0  0  0  0  0  0  0
    3.3172   11.2445    0.2985 H   0  0  0  0  0  0  0  0  0  0  0  0
    3.0164   10.3719   -1.2426 H   0  0  0  0  0  0  0  0  0  0  0  0
    3.9771   11.8897   -1.2426 H   0  0  0  0  0  0  0  0  0  0  0  0
    1.5259   13.0801    0.9703 H   0  0  0  0  0  0  0  0  0  0  0  0
    2.9661   13.7135   -0.0093 H   0  0  0  0  0  0  0  0  0  0  0  0
    0.0501   14.4886   -0.2987 H   0  0  0  0  0  0  0  0  0  0  0  0
    1.4374   15.5053    0.2553 H   0  0  0  0  0  0  0  0  0  0  0  0
    3.3727   15.5124   -0.9386 H   0  0  0  0  0  0  0  0  0  0  0  0
    3.4758   14.6150   -2.4913 H   0  0  0  0  0  0  0  0  0  0  0  0
    3.0816   16.3675   -2.4913 H   0  0  0  0  0  0  0  0  0  0  0  0
  1  2  1  0
  2  3  1  0
  3  4  1  0
  4  5  1  0
  5  6  1  0
  6  7  1  0
  7  8  1  0
  7  9  1  0
  2 10  1  0
 10 11  1  0
 11 12  1  0
 12 13  1  0
 13 14  1  1
 13 15  1  0
 15 16  1  0
 16 17  1  0
 17 18  2  0
 18 19  1  0
 19 20  1  0
 20 21  1  0
 21 22  1  0
 22 23  1  0
 22 24  1  0
 24 25  1  0
 24 26  1  0
 19 27  1  0
 27 28  1  6
 27 29  1  0
 29 30  1  0
 30 31  1  0
 31 32  1  1
  7  5  1  0
 31 10  1  0
 31 13  1  0
 27 15  1  0
 24 18  1  0
  1 33  1  0
  1 34  1  0
  1 35  1  0
  2 36  1  6
  3 37  1  0
  3 38  1  0
  4 39  1  0
  4 40  1  0
  5 41  1  1
  8 42  1  0
  8 43  1  0
  8 44  1  0
  9 45  1  0
  9 46  1  0
  9 47  1  0
 10 48  1  1
 11 49  1  0
 11 50  1  0
 12 51  1  0
 12 52  1  0
 14 53  1  0
 14 54  1  0
 14 55  1  0
 15 56  1  6
 16 57  1  0
 16 58  1  0
 17 59  1  0
 19 60  1  1
 20 61  1  0
 20 62  1  0
 21 63  1  0
 21 64  1  0
 22 65  1  1
 23 66  1  0
 25 67  1  0
 25 68  1  0
 25 69  1  0
 26 70  1  0
 26 71  1  0
 26 72  1  0
 28 73  1  0
 28 74  1  0
 28 75  1  0
 29 76  1  0
 29 77  1  0
 30 78  1  0
 30 79  1  0
 32 80  1  0
 32 81  1  0
 32 82  1  0
M  END
>  <meeko>  (4) 
{"is_sidechain": [false], "intermolecular_energy": 2.731, "internal_energy": -0.839}

$$$$
EPH_relaxed_0001_pdb2pqr_Repair_92_r2_0001_out
     RDKit          3D

 82 86  0  0  0  0  0  0  0  0999 V2000
    3.8440   17.5720    0.3360 C   0  0  0  0  0  0  0  0  0  0  0  0
    2.8020   17.9080   -0.7350 C   0  0  2  0  0  0  0  0  0  0  0  0
    2.1500   19.2850   -0.4980 C   0  0  0  0  0  0  0  0  0  0  0  0
    1.1450   19.3000    0.6570 C   0  0  0  0  0  0  0  0  0  0  0  0
   -0.1370   19.9720    0.2680 C   0  0  2  0  0  0  0  0  0  0  0  0
   -1.0490   20.1940    1.3510 O   0  0  0  0  0  0  0  0  0  0  0  0
   -1.4910   19.2890    0.3260 C   0  0  0  0  0  0  0  0  0  0  0  0
   -1.6310   17.8720    0.7850 C   0  0  0  0  0  0  0  0  0  0  0  0
   -2.6020   19.8310   -0.5180 C   0  0  0  0  0  0  0  0  0  0  0  0
    1.7310   16.8250   -0.7760 C   0  0  1  0  0  0  0  0  0  0  0  0
    0.4060   17.3180   -1.4170 C   0  0  0  0  0  0  0  0  0  0  0  0
   -0.1930   16.1140   -2.1890 C   0  0  0  0  0  0  0  0  0  0  0  0
    0.6200   14.8930   -1.6990 C   0  0  1  0  0  0  0  0  0  0  0  0
   -0.0270   14.5020   -0.3340 C   0  0  0  0  0  0  0  0  0  0  0  0
    0.6910   13.6740   -2.6750 C   0  0  2  0  0  0  0  0  0  0  0  0
   -0.6610   13.0110   -2.9910 C   0  0  0  0  0  0  0  0  0  0  0  0
   -1.0550   11.8980   -2.0770 C   0  0  0  0  0  0  0  0  0  0  0  0
   -0.2330   11.2590   -1.2240 C   0  0  0  0  0  0  0  0  0  0  0  0
    1.2670   11.5770   -1.1880 C   0  0  1  0  0  0  0  0  0  0  0  0
    2.0760   10.2530   -1.1750 C   0  0  0  0  0  0  0  0  0  0  0  0
    1.6510    9.3190   -0.0460 C   0  0  0  0  0  0  0  0  0  0  0  0
    0.1660    8.9800   -0.1500 C   0  0  2  0  0  0  0  0  0  0  0  0
   -0.0480    8.1990   -1.3300 O   0  0  0  0  0  0  0  0  0  0  0  0
   -0.7480   10.2360   -0.1810 C   0  0  0  0  0  0  0  0  0  0  0  0
   -0.7460   10.9170    1.2100 C   0  0  0  0  0  0  0  0  0  0  0  0
   -2.2050    9.7600   -0.4300 C   0  0  0  0  0  0  0  0  0  0  0  0
    1.7860   12.5980   -2.2900 C   0  0  1  0  0  0  0  0  0  0  0  0
    2.1390   11.8320   -3.6010 C   0  0  0  0  0  0  0  0  0  0  0  0
    3.1240   13.2590   -1.7880 C   0  0  0  0  0  0  0  0  0  0  0  0
    2.9910   14.5300   -0.9270 C   0  0  0  0  0  0  0  0  0  0  0  0
    2.0480   15.5420   -1.5850 C   0  0  2  0  0  0  0  0  0  0  0  0
    2.6840   15.9710   -2.9510 C   0  0  0  0  0  0  0  0  0  0  0  0
    3.4032   17.7141    1.3338 H   0  0  0  0  0  0  0  0  0  0  0  0
    4.1629   16.5255    0.2217 H   0  0  0  0  0  0  0  0  0  0  0  0
    4.7142   18.2351    0.2217 H   0  0  0  0  0  0  0  0  0  0  0  0
    3.3236   17.9514   -1.7025 H   0  0  0  0  0  0  0  0  0  0  0  0
    2.9451   20.0120   -0.2759 H   0  0  0  0  0  0  0  0  0  0  0  0
    1.5928   19.5382   -1.4120 H   0  0  0  0  0  0  0  0  0  0  0  0
    0.9281   18.2634    0.9542 H   0  0  0  0  0  0  0  0  0  0  0  0
    1.5888   19.8645    1.4903 H   0  0  0  0  0  0  0  0  0  0  0  0
    0.3721   20.5343   -0.5287 H   0  0  0  0  0  0  0  0  0  0  0  0
   -1.6340   17.8414    1.8846 H   0  0  0  0  0  0  0  0  0  0  0  0
   -2.5747   17.4547    0.4040 H   0  0  0  0  0  0  0  0  0  0  0  0
   -0.7872   17.2781    0.4040 H   0  0  0  0  0  0  0  0  0  0  0  0
   -3.3997   20.2202    0.1317 H   0  0  0  0  0  0  0  0  0  0  0  0
   -2.2176   20.6428   -1.1530 H   0  0  0  0  0  0  0  0  0  0  0  0
   -3.0052   19.0284   -1.1530 H   0  0  0  0  0  0  0  0  0  0  0  0
    1.6674   16.5884    0.2964 H   0  0  0  0  0  0  0  0  0  0  0  0
   -0.2919   17.6515   -0.6349 H   0  0  0  0  0  0  0  0  0  0  0  0
    0.5859   18.1689   -2.0906 H   0  0  0  0  0  0  0  0  0  0  0  0
   -1.2597   15.9914   -1.9502 H   0  0  0  0  0  0  0  0  0  0  0  0
   -0.1319   16.2455   -3.2794 H   0  0  0  0  0  0  0  0  0  0  0  0
    0.5974   14.8794    0.4892 H   0  0  0  0  0  0  0  0  0  0  0  0
   -1.0318   14.9442   -0.2645 H   0  0  0  0  0  0  0  0  0  0  0  0
   -0.1027   13.4068   -0.2645 H   0  0  0  0  0  0  0  0  0  0  0  0
    1.0203   14.1432   -3.6138 H   0  0  0  0  0  0  0  0  0  0  0  0
   -1.4400   13.7858   -2.9384 H   0  0  0  0  0  0  0  0  0  0  0  0
   -0.5533   12.5613   -3.9891 H   0  0  0  0  0  0  0  0  0  0  0  0
   -2.1055   11.5729   -2.1030 H   0  0  0  0  0  0  0  0  0  0  0  0
    1.4388   12.1294   -0.2524 H   0  0  0  0  0  0  0  0  0  0  0  0
    1.9244    9.7377   -2.1349 H   0  0  0  0  0  0  0  0  0  0  0  0
    3.1338   10.5095   -1.0159 H   0  0  0  0  0  0  0  0  0  0  0  0
    2.2376    8.3904   -0.1066 H   0  0  0  0  0  0  0  0  0  0  0  0
    1.8300    9.8242    0.9146 H   0  0  0  0  0  0  0  0  0  0  0  0
   -0.1074    8.4157    0.7538 H   0  0  0  0  0  0  0  0  0  0  0  0
   -0.9810    8.3000   -1.5840 H   0  0  0  0  0  0  0  0  0  0  0  0
   -0.7483   10.1468    1.9953 H   0  0  0  0  0  0  0  0  0  0  0  0
    0.1540   11.5413    1.3113 H   0  0  0  0  0  0  0  0  0  0  0  0
   -1.6423   11.5466    1.3113 H   0  0  0  0  0  0  0  0  0  0  0  0
   -2.7071    9.5960    0.5349 H   0  0  0  0  0  0  0  0  0  0  0  0
   -2.7489   10.5272   -1.0006 H   0  0  0  0  0  0  0  0  0  0  0  0
   -2.1911    8.8197   -1.0006 H   0  0  0  0  0  0  0  0  0  0  0  0
    2.5871   10.8597   -3.3482 H   0  0  0  0  0  0  0  0  0  0  0  0
    1.2238   11.6720   -4.1899 H   0  0  0  0  0  0  0  0  0  0  0  0
    2.8552   12.4238   -4.1899 H   0  0  0  0  0  0  0  0  0  0  0  0
    3.6628   12.5080   -1.1916 H   0  0  0  0  0  0  0  0  0  0  0  0
    3.6449   13.5832   -2.7010 H   0  0  0  0  0  0  0  0  0  0  0  0
    2.5918   14.2555    0.0605 H   0  0  0  0  0  0  0  0  0  0  0  0
    3.9847   14.9908   -0.8261 H   0  0  0  0  0  0  0  0  0  0  0  0
    3.5825   16.5771   -2.7629 H   0  0  0  0  0  0  0  0  0  0  0  0
    2.9603   15.0740   -3.5246 H   0  0  0  0  0  0  0  0  0  0  0  0
    1.9558   16.5632   -3.5246 H   0  0  0  0  0  0  0  0  0  0  0  0
  1  2  1  0
  2  3  1  0
  3  4  1  0
  4  5  1  0
  5  6  1  0
  6  7  1  0
  7  8  1  0
  7  9  1  0
  2 10  1  0
 10 11  1  0
 11 12  1  0
 12 13  1  0
 13 14  1  1
 13 15  1  0
 15 16  1  0
 16 17  1  0
 17 18  2  0
 18 19  1  0
 19 20  1  0
 20 21  1  0
 21 22  1  0
 22 23  1  0
 22 24  1  0
 24 25  1  0
 24 26  1  0
 19 27  1  0
 27 28  1  6
 27 29  1  0
 29 30  1  0
 30 31  1  0
 31 32  1  6
  7  5  1  0
 31 10  1  0
 31 13  1  0
 27 15  1  0
 24 18  1  0
  1 33  1  0
  1 34  1  0
  1 35  1  0
  2 36  1  6
  3 37  1  0
  3 38  1  0
  4 39  1  0
  4 40  1  0
  5 41  1  6
  8 42  1  0
  8 43  1  0
  8 44  1  0
  9 45  1  0
  9 46  1  0
  9 47  1  0
 10 48  1  1
 11 49  1  0
 11 50  1  0
 12 51  1  0
 12 52  1  0
 14 53  1  0
 14 54  1  0
 14 55  1  0
 15 56  1  6
 16 57  1  0
 16 58  1  0
 17 59  1  0
 19 60  1  1
 20 61  1  0
 20 62  1  0
 21 63  1  0
 21 64  1  0
 22 65  1  1
 23 66  1  0
 25 67  1  0
 25 68  1  0
 25 69  1  0
 26 70  1  0
 26 71  1  0
 26 72  1  0
 28 73  1  0
 28 74  1  0
 28 75  1  0
 29 76  1  0
 29 77  1  0
 30 78  1  0
 30 79  1  0
 32 80  1  0
 32 81  1  0
 32 82  1  0
M  END
>  <meeko>  (5) 
{"is_sidechain": [false], "intermolecular_energy": 2.731, "internal_energy": -0.839}

$$$$
EPH_relaxed_0001_pdb2pqr_Repair_92_r2_0001_out
     RDKit          3D

 82 86  0  0  0  0  0  0  0  0999 V2000
   -5.5610    6.0570   -0.3350 C   0  0  0  0  0  0  0  0  0  0  0  0
   -5.4530    7.0830   -1.4670 C   0  0  2  0  0  0  0  0  0  0  0  0
   -4.7640    8.3840   -1.0080 C   0  0  0  0  0  0  0  0  0  0  0  0
   -3.2520    8.3970   -1.2490 C   0  0  0  0  0  0  0  0  0  0  0  0
   -2.5620    9.4090   -0.3860 C   0  0  2  0  0  0  0  0  0  0  0  0
   -2.1460   10.5970   -1.0710 O   0  0  0  0  0  0  0  0  0  0  0  0
   -1.0970    9.7750   -0.5340 C   0  0  0  0  0  0  0  0  0  0  0  0
   -0.2330    9.1330   -1.5750 C   0  0  0  0  0  0  0  0  0  0  0  0
   -0.3900   10.3870    0.6350 C   0  0  0  0  0  0  0  0  0  0  0  0
   -6.8390    7.3950   -2.0190 C   0  0  1  0  0  0  0  0  0  0  0  0
   -7.0920    6.7410   -3.4030 C   0  0  0  0  0  0  0  0  0  0  0  0
   -8.5910    6.3480   -3.4450 C   0  0  0  0  0  0  0  0  0  0  0  0
   -9.2200    7.0790   -2.2360 C   0  0  1  0  0  0  0  0  0  0  0  0
   -9.4600    8.5400   -2.7310 C   0  0  0  0  0  0  0  0  0  0  0  0
  -10.5240    6.4470   -1.6490 C   0  0  2  0  0  0  0  0  0  0  0  0
  -11.7210    6.4050   -2.6140 C   0  0  0  0  0  0  0  0  0  0  0  0
  -12.6160    7.6000   -2.5720 C   0  0  0  0  0  0  0  0  0  0  0  0
  -12.6330    8.5310   -1.6010 C   0  0  0  0  0  0  0  0  0  0  0  0
  -11.7560    8.3810   -0.3510 C   0  0  1  0  0  0  0  0  0  0  0  0
  -12.6020    8.6790    0.9150 C   0  0  0  0  0  0  0  0  0  0  0  0
  -13.2960   10.0370    0.8480 C   0  0  0  0  0  0  0  0  0  0  0  0
  -14.2030   10.1260   -0.3760 C   0  0  2  0  0  0  0  0  0  0  0  0
  -15.2860    9.2040   -0.2150 O   0  0  0  0  0  0  0  0  0  0  0  0
  -13.4620    9.8340   -1.7110 C   0  0  0  0  0  0  0  0  0  0  0  0
  -12.4960   10.9990   -2.0350 C   0  0  0  0  0  0  0  0  0  0  0  0
  -14.5180    9.8170   -2.8490 C   0  0  0  0  0  0  0  0  0  0  0  0
  -10.9420    7.0210   -0.2340 C   0  0  1  0  0  0  0  0  0  0  0  0
  -11.8240    5.9300    0.4460 C   0  0  0  0  0  0  0  0  0  0  0  0
   -9.7030    7.2430    0.7110 C   0  0  0  0  0  0  0  0  0  0  0  0
   -8.4080    7.7550    0.0510 C   0  0  0  0  0  0  0  0  0  0  0  0
   -8.0590    6.9240   -1.1870 C   0  0  2  0  0  0  0  0  0  0  0  0
   -7.7910    5.4540   -0.7180 C   0  0  0  0  0  0  0  0  0  0  0  0
   -5.5066    6.5737    0.6346 H   0  0  0  0  0  0  0  0  0  0  0  0
   -6.5202    5.5242   -0.4133 H   0  0  0  0  0  0  0  0  0  0  0  0
   -4.7338    5.3362   -0.4133 H   0  0  0  0  0  0  0  0  0  0  0  0
   -4.8288    6.6398   -2.2569 H   0  0  0  0  0  0  0  0  0  0  0  0
   -5.2106    9.2260   -1.5571 H   0  0  0  0  0  0  0  0  0  0  0  0
   -4.9174    8.4633    0.0784 H   0  0  0  0  0  0  0  0  0  0  0  0
   -2.8464    7.3998   -1.0229 H   0  0  0  0  0  0  0  0  0  0  0  0
   -3.0747    8.6654   -2.3009 H   0  0  0  0  0  0  0  0  0  0  0  0
   -3.1637    9.1103    0.4851 H   0  0  0  0  0  0  0  0  0  0  0  0
    0.5573    8.5458   -1.0844 H   0  0  0  0  0  0  0  0  0  0  0  0
   -0.8465    8.4699   -2.2026 H   0  0  0  0  0  0  0  0  0  0  0  0
    0.2249    9.9117   -2.2026 H   0  0  0  0  0  0  0  0  0  0  0  0
   -0.8292   10.0069    1.5691 H   0  0  0  0  0  0  0  0  0  0  0  0
    0.6772   10.1229    0.5974 H   0  0  0  0  0  0  0  0  0  0  0  0
   -0.4985   11.4810    0.5974 H   0  0  0  0  0  0  0  0  0  0  0  0
   -6.7908    8.4939   -2.0272 H   0  0  0  0  0  0  0  0  0  0  0  0
   -6.8654    7.4565   -4.2071 H   0  0  0  0  0  0  0  0  0  0  0  0
   -6.4488    5.8604   -3.5471 H   0  0  0  0  0  0  0  0  0  0  0  0
   -9.0540    6.6827   -4.3850 H   0  0  0  0  0  0  0  0  0  0  0  0
   -8.7382    5.2590   -3.3967 H   0  0  0  0  0  0  0  0  0  0  0  0
   -9.5697    9.2076   -1.8637 H   0  0  0  0  0  0  0  0  0  0  0  0
   -8.6035    8.8665   -3.3391 H   0  0  0  0  0  0  0  0  0  0  0  0
  -10.3760    8.5753   -3.3391 H   0  0  0  0  0  0  0  0  0  0  0  0
  -10.2288    5.3987   -1.4944 H   0  0  0  0  0  0  0  0  0  0  0  0
  -11.3294    6.3093   -3.6375 H   0  0  0  0  0  0  0  0  0  0  0  0
  -12.3379    5.5512   -2.2970 H   0  0  0  0  0  0  0  0  0  0  0  0
  -13.3213    7.7299   -3.4060 H   0  0  0  0  0  0  0  0  0  0  0  0
  -10.9561    9.1296   -0.4501 H   0  0  0  0  0  0  0  0  0  0  0  0
  -13.3678    7.8963    1.0198 H   0  0  0  0  0  0  0  0  0  0  0  0
  -11.9191    8.6948    1.7772 H   0  0  0  0  0  0  0  0  0  0  0  0
  -13.9014   10.1771    1.7557 H   0  0  0  0  0  0  0  0  0  0  0  0
  -12.5277   10.8207    0.7735 H   0  0  0  0  0  0  0  0  0  0  0  0
  -14.5687   11.1614   -0.4409 H   0  0  0  0  0  0  0  0  0  0  0  0
  -15.0440    8.5870    0.4960 H   0  0  0  0  0  0  0  0  0  0  0  0
  -12.1286   11.4421   -1.0976 H   0  0  0  0  0  0  0  0  0  0  0  0
  -11.6450   10.6182   -2.6188 H   0  0  0  0  0  0  0  0  0  0  0  0
  -13.0278   11.7647   -2.6188 H   0  0  0  0  0  0  0  0  0  0  0  0
  -15.5275    9.8008   -2.4123 H   0  0  0  0  0  0  0  0  0  0  0  0
  -14.4018   10.7171   -3.4705 H   0  0  0  0  0  0  0  0  0  0  0  0
  -14.3729    8.9211   -3.4705 H   0  0  0  0  0  0  0  0  0  0  0  0
  -11.7471    6.0252    1.5392 H   0  0  0  0  0  0  0  0  0  0  0  0
  -12.8721    6.0622    0.1393 H   0  0  0  0  0  0  0  0  0  0  0  0
  -11.4752    4.9329    0.1393 H   0  0  0  0  0  0  0  0  0  0  0  0
   -9.9968    7.9742    1.4785 H   0  0  0  0  0  0  0  0  0  0  0  0
   -9.4533    6.2438    1.0973 H   0  0  0  0  0  0  0  0  0  0  0  0
   -8.5467    8.8046   -0.2474 H   0  0  0  0  0  0  0  0  0  0  0  0
   -7.5857    7.6667    0.7763 H   0  0  0  0  0  0  0  0  0  0  0  0
   -7.7840    5.4154    0.3813 H   0  0  0  0  0  0  0  0  0  0  0  0
   -8.5840    4.7960   -1.1029 H   0  0  0  0  0  0  0  0  0  0  0  0
   -6.8168    5.1182   -1.1029 H   0  0  0  0  0  0  0  0  0  0  0  0
  1  2  1  0
  2  3  1  0
  3  4  1  0
  4  5  1  0
  5  6  1  0
  6  7  1  0
  7  8  1  0
  7  9  1  0
  2 10  1  0
 10 11  1  0
 11 12  1  0
 12 13  1  0
 13 14  1  6
 13 15  1  0
 15 16  1  0
 16 17  1  0
 17 18  2  0
 18 19  1  0
 19 20  1  0
 20 21  1  0
 21 22  1  0
 22 23  1  0
 22 24  1  0
 24 25  1  0
 24 26  1  0
 19 27  1  0
 27 28  1  1
 27 29  1  0
 29 30  1  0
 30 31  1  0
 31 32  1  1
  7  5  1  0
 31 10  1  0
 31 13  1  0
 27 15  1  0
 24 18  1  0
  1 33  1  0
  1 34  1  0
  1 35  1  0
  2 36  1  6
  3 37  1  0
  3 38  1  0
  4 39  1  0
  4 40  1  0
  5 41  1  1
  8 42  1  0
  8 43  1  0
  8 44  1  0
  9 45  1  0
  9 46  1  0
  9 47  1  0
 10 48  1  6
 11 49  1  0
 11 50  1  0
 12 51  1  0
 12 52  1  0
 14 53  1  0
 14 54  1  0
 14 55  1  0
 15 56  1  1
 16 57  1  0
 16 58  1  0
 17 59  1  0
 19 60  1  6
 20 61  1  0
 20 62  1  0
 21 63  1  0
 21 64  1  0
 22 65  1  6
 23 66  1  0
 25 67  1  0
 25 68  1  0
 25 69  1  0
 26 70  1  0
 26 71  1  0
 26 72  1  0
 28 73  1  0
 28 74  1  0
 28 75  1  0
 29 76  1  0
 29 77  1  0
 30 78  1  0
 30 79  1  0
 32 80  1  0
 32 81  1  0
 32 82  1  0
M  END
>  <meeko>  (6) 
{"is_sidechain": [false], "intermolecular_energy": 2.731, "internal_energy": -0.839}

$$$$
EPH_relaxed_0001_pdb2pqr_Repair_92_r2_0001_out
     RDKit          3D

 82 86  0  0  0  0  0  0  0  0999 V2000
    0.4000    8.8820   -2.5310 C   0  0  0  0  0  0  0  0  0  0  0  0
    1.1670   10.0400   -3.1780 C   0  0  2  0  0  0  0  0  0  0  0  0
    2.6590   10.0370   -2.7910 C   0  0  0  0  0  0  0  0  0  0  0  0
    3.5760   10.6180   -3.8710 C   0  0  0  0  0  0  0  0  0  0  0  0
    4.9690   10.8310   -3.3590 C   0  0  2  0  0  0  0  0  0  0  0  0
    5.5840   12.0520   -3.7900 O   0  0  0  0  0  0  0  0  0  0  0  0
    6.1960   10.8360   -4.2510 C   0  0  0  0  0  0  0  0  0  0  0  0
    6.0880   10.6230   -5.7280 C   0  0  0  0  0  0  0  0  0  0  0  0
    7.5310   10.5610   -3.6330 C   0  0  0  0  0  0  0  0  0  0  0  0
    0.5300   11.3680   -2.7870 C   0  0  1  0  0  0  0  0  0  0  0  0
   -0.8460   11.1890   -2.0910 C   0  0  0  0  0  0  0  0  0  0  0  0
   -0.9580   12.3100   -1.0260 C   0  0  0  0  0  0  0  0  0  0  0  0
    0.1920   13.2870   -1.3670 C   0  0  1  0  0  0  0  0  0  0  0  0
   -0.3600   14.1650   -2.5330 C   0  0  0  0  0  0  0  0  0  0  0  0
    0.7260   14.1640   -0.1870 C   0  0  2  0  0  0  0  0  0  0  0  0
   -0.3030   15.1310    0.4240 C   0  0  0  0  0  0  0  0  0  0  0  0
   -0.3470   16.4890   -0.1940 C   0  0  0  0  0  0  0  0  0  0  0  0
    0.5940   17.0110   -1.0030 C   0  0  0  0  0  0  0  0  0  0  0  0
    1.8940   16.2500   -1.2930 C   0  0  1  0  0  0  0  0  0  0  0  0
    3.1010   17.2140   -1.1500 C   0  0  0  0  0  0  0  0  0  0  0  0
    2.9540   18.4670   -2.0080 C   0  0  0  0  0  0  0  0  0  0  0  0
    1.6800   19.2270   -1.6490 C   0  0  2  0  0  0  0  0  0  0  0  0
    1.8090   19.7430   -0.3210 O   0  0  0  0  0  0  0  0  0  0  0  0
    0.3980   18.3540   -1.7480 C   0  0  0  0  0  0  0  0  0  0  0  0
    0.0920   18.0450   -3.2350 C   0  0  0  0  0  0  0  0  0  0  0  0
   -0.7960   19.1990   -1.2260 C   0  0  0  0  0  0  0  0  0  0  0  0
    2.0970   14.8930   -0.4910 C   0  0  1  0  0  0  0  0  0  0  0  0
    2.7600   15.1860    0.8900 C   0  0  0  0  0  0  0  0  0  0  0  0
    3.1020   13.9740   -1.2800 C   0  0  0  0  0  0  0  0  0  0  0  0
    2.4980   13.0440   -2.3500 C   0  0  0  0  0  0  0  0  0  0  0  0
    1.3070   12.2630   -1.7890 C   0  0  2  0  0  0  0  0  0  0  0  0
    1.8350   11.3530   -0.6280 C   0  0  0  0  0  0  0  0  0  0  0  0
    0.4583    8.9700   -1.4361 H   0  0  0  0  0  0  0  0  0  0  0  0
   -0.6532    8.9183   -2.8462 H   0  0  0  0  0  0  0  0  0  0  0  0
    0.8443    7.9264   -2.8462 H   0  0  0  0  0  0  0  0  0  0  0  0
    1.1091    9.9066   -4.2683 H   0  0  0  0  0  0  0  0  0  0  0  0
    2.7812   10.6326   -1.8743 H   0  0  0  0  0  0  0  0  0  0  0  0
    2.9528    8.9862   -2.6509 H   0  0  0  0  0  0  0  0  0  0  0  0
    3.6113    9.9212   -4.7215 H   0  0  0  0  0  0  0  0  0  0  0  0
    3.1701   11.5934   -4.1775 H   0  0  0  0  0  0  0  0  0  0  0  0
    4.7356   10.2920   -2.4290 H   0  0  0  0  0  0  0  0  0  0  0  0
    5.5985    9.6577   -5.9244 H   0  0  0  0  0  0  0  0  0  0  0  0
    5.4920   11.4335   -6.1727 H   0  0  0  0  0  0  0  0  0  0  0  0
    7.0941   10.6212   -6.1727 H   0  0  0  0  0  0  0  0  0  0  0  0
    7.4386   10.5800   -2.5371 H   0  0  0  0  0  0  0  0  0  0  0  0
    7.8866    9.5707   -3.9539 H   0  0  0  0  0  0  0  0  0  0  0  0
    8.2490   11.3301   -3.9539 H   0  0  0  0  0  0  0  0  0  0  0  0
    0.4909   11.8513   -3.7744 H   0  0  0  0  0  0  0  0  0  0  0  0
   -1.6579   11.2834   -2.8271 H   0  0  0  0  0  0  0  0  0  0  0  0
   -0.9278   10.1947   -1.6278 H   0  0  0  0  0  0  0  0  0  0  0  0
   -1.9319   12.8166   -1.0961 H   0  0  0  0  0  0  0  0  0  0  0  0
   -0.8843   11.9202   -0.0000 H   0  0  0  0  0  0  0  0  0  0  0  0
   -0.9021   15.0273   -2.1177 H   0  0  0  0  0  0  0  0  0  0  0  0
    0.4769   14.5213   -3.1516 H   0  0  0  0  0  0  0  0  0  0  0  0
   -1.0438   13.5652   -3.1516 H   0  0  0  0  0  0  0  0  0  0  0  0
    0.9297   13.4146    0.5920 H   0  0  0  0  0  0  0  0  0  0  0  0
   -1.2997   14.6774    0.3193 H   0  0  0  0  0  0  0  0  0  0  0  0
    0.0046   15.2821    1.4692 H   0  0  0  0  0  0  0  0  0  0  0  0
   -1.2223   17.1163    0.0306 H   0  0  0  0  0  0  0  0  0  0  0  0
    1.8168   15.9010   -2.3333 H   0  0  0  0  0  0  0  0  0  0  0  0
    3.1876   17.5166   -0.0960 H   0  0  0  0  0  0  0  0  0  0  0  0
    3.9986   16.6782   -1.4926 H   0  0  0  0  0  0  0  0  0  0  0  0
    3.8225   19.1212   -1.8417 H   0  0  0  0  0  0  0  0  0  0  0  0
    2.8970   18.1648   -3.0642 H   0  0  0  0  0  0  0  0  0  0  0  0
    1.5637   20.0398   -2.3810 H   0  0  0  0  0  0  0  0  0  0  0  0
    1.0260   19.4630    0.1810 H   0  0  0  0  0  0  0  0  0  0  0  0
   -0.6808   17.2646   -3.2958 H   0  0  0  0  0  0  0  0  0  0  0  0
   -0.2684   18.9575   -3.7325 H   0  0  0  0  0  0  0  0  0  0  0  0
    1.0080   17.6935   -3.7325 H   0  0  0  0  0  0  0  0  0  0  0  0
   -0.7934   19.1971   -0.1260 H   0  0  0  0  0  0  0  0  0  0  0  0
   -0.7013   20.2323   -1.5911 H   0  0  0  0  0  0  0  0  0  0  0  0
   -1.7390   18.7660   -1.5911 H   0  0  0  0  0  0  0  0  0  0  0  0
    2.0759   14.8837    1.6966 H   0  0  0  0  0  0  0  0  0  0  0  0
    3.6989   14.6190    0.9737 H   0  0  0  0  0  0  0  0  0  0  0  0
    2.9728   16.2620    0.9737 H   0  0  0  0  0  0  0  0  0  0  0  0
    3.8296   14.6295   -1.7809 H   0  0  0  0  0  0  0  0  0  0  0  0
    3.5326   13.3016   -0.5234 H   0  0  0  0  0  0  0  0  0  0  0  0
    2.1608   13.6496   -3.2041 H   0  0  0  0  0  0  0  0  0  0  0  0
    3.2695   12.3268   -2.6668 H   0  0  0  0  0  0  0  0  0  0  0  0
    1.5729   11.8047    0.3401 H   0  0  0  0  0  0  0  0  0  0  0  0
    1.3746   10.3569   -0.7045 H   0  0  0  0  0  0  0  0  0  0  0  0
    2.9283   11.2584   -0.7045 H   0  0  0  0  0  0  0  0  0  0  0  0
  1  2  1  0
  2  3  1  0
  3  4  1  0
  4  5  1  0
  5  6  1  0
  6  7  1  0
  7  8  1  0
  7  9  1  0
  2 10  1  0
 10 11  1  0
 11 12  1  0
 12 13  1  0
 13 14  1  6
 13 15  1  0
 15 16  1  0
 16 17  1  0
 17 18  2  0
 18 19  1  0
 19 20  1  0
 20 21  1  0
 21 22  1  0
 22 23  1  0
 22 24  1  0
 24 25  1  0
 24 26  1  0
 19 27  1  0
 27 28  1  1
 27 29  1  0
 29 30  1  0
 30 31  1  0
 31 32  1  1
  7  5  1  0
 31 10  1  0
 31 13  1  0
 27 15  1  0
 24 18  1  0
  1 33  1  0
  1 34  1  0
  1 35  1  0
  2 36  1  6
  3 37  1  0
  3 38  1  0
  4 39  1  0
  4 40  1  0
  5 41  1  1
  8 42  1  0
  8 43  1  0
  8 44  1  0
  9 45  1  0
  9 46  1  0
  9 47  1  0
 10 48  1  6
 11 49  1  0
 11 50  1  0
 12 51  1  0
 12 52  1  0
 14 53  1  0
 14 54  1  0
 14 55  1  0
 15 56  1  1
 16 57  1  0
 16 58  1  0
 17 59  1  0
 19 60  1  6
 20 61  1  0
 20 62  1  0
 21 63  1  0
 21 64  1  0
 22 65  1  6
 23 66  1  0
 25 67  1  0
 25 68  1  0
 25 69  1  0
 26 70  1  0
 26 71  1  0
 26 72  1  0
 28 73  1  0
 28 74  1  0
 28 75  1  0
 29 76  1  0
 29 77  1  0
 30 78  1  0
 30 79  1  0
 32 80  1  0
 32 81  1  0
 32 82  1  0
M  END
>  <meeko>  (7) 
{"is_sidechain": [false], "intermolecular_energy": 2.731, "internal_energy": -0.839}

$$$$
EPH_relaxed_0001_pdb2pqr_Repair_92_r2_0001_out
     RDKit          3D

 82 86  0  0  0  0  0  0  0  0999 V2000
    0.1250   17.7640   -2.5620 C   0  0  0  0  0  0  0  0  0  0  0  0
   -0.1210   16.8740   -1.3410 C   0  0  2  0  0  0  0  0  0  0  0  0
   -0.1760   17.6870   -0.0320 C   0  0  0  0  0  0  0  0  0  0  0  0
    0.4490   19.0800   -0.1450 C   0  0  0  0  0  0  0  0  0  0  0  0
    1.6030   19.2490    0.7970 C   0  0  2  0  0  0  0  0  0  0  0  0
    2.5910   20.1940    0.3690 O   0  0  0  0  0  0  0  0  0  0  0  0
    3.0220   18.8270    0.4650 C   0  0  0  0  0  0  0  0  0  0  0  0
    3.3630   18.2020   -0.8510 C   0  0  0  0  0  0  0  0  0  0  0  0
    3.9740   18.5730    1.5920 C   0  0  0  0  0  0  0  0  0  0  0  0
    0.9640   15.8080   -1.2480 C   0  0  1  0  0  0  0  0  0  0  0  0
    1.1620   15.2820    0.1990 C   0  0  0  0  0  0  0  0  0  0  0  0
    1.5170   13.7780    0.0830 C   0  0  0  0  0  0  0  0  0  0  0  0
    1.8360   13.5660   -1.4150 C   0  0  1  0  0  0  0  0  0  0  0  0
    3.3080   14.0550   -1.5850 C   0  0  0  0  0  0  0  0  0  0  0  0
    1.6420   12.1150   -1.9650 C   0  0  2  0  0  0  0  0  0  0  0  0
    2.5480   11.0490   -1.3250 C   0  0  0  0  0  0  0  0  0  0  0  0
    3.8580   10.8310   -2.0070 C   0  0  0  0  0  0  0  0  0  0  0  0
    4.1750   11.2550   -3.2450 C   0  0  0  0  0  0  0  0  0  0  0  0
    3.1320   11.9470   -4.1320 C   0  0  1  0  0  0  0  0  0  0  0  0
    3.1780   11.3380   -5.5580 C   0  0  0  0  0  0  0  0  0  0  0  0
    4.5770   11.3750   -6.1640 C   0  0  0  0  0  0  0  0  0  0  0  0
    5.5740   10.6270   -5.2830 C   0  0  2  0  0  0  0  0  0  0  0  0
    5.2430    9.2350   -5.2920 O   0  0  0  0  0  0  0  0  0  0  0  0
    5.6090   11.1480   -3.8190 C   0  0  0  0  0  0  0  0  0  0  0  0
    6.2540   12.5550   -3.7820 C   0  0  0  0  0  0  0  0  0  0  0  0
    6.5480   10.2180   -3.0040 C   0  0  0  0  0  0  0  0  0  0  0  0
    1.6560   12.0130   -3.5440 C   0  0  1  0  0  0  0  0  0  0  0  0
    0.8780   10.7130   -3.9130 C   0  0  0  0  0  0  0  0  0  0  0  0
    0.8840   13.2020   -4.2280 C   0  0  0  0  0  0  0  0  0  0  0  0
    1.0180   14.5880   -3.5680 C   0  0  0  0  0  0  0  0  0  0  0  0
    0.7550   14.5070   -2.0620 C   0  0  2  0  0  0  0  0  0  0  0  0
   -0.7270   14.0390   -1.8600 C   0  0  0  0  0  0  0  0  0  0  0  0
    0.4043   18.7745   -2.2289 H   0  0  0  0  0  0  0  0  0  0  0  0
    0.9394   17.3392   -3.1672 H   0  0  0  0  0  0  0  0  0  0  0  0
   -0.7919   17.8178   -3.1672 H   0  0  0  0  0  0  0  0  0  0  0  0
   -1.1022   16.3944   -1.4727 H   0  0  0  0  0  0  0  0  0  0  0  0
   -1.2300   17.8022    0.2611 H   0  0  0  0  0  0  0  0  0  0  0  0
    0.4097   17.1320    0.7156 H   0  0  0  0  0  0  0  0  0  0  0  0
    0.8053   19.2282   -1.1751 H   0  0  0  0  0  0  0  0  0  0  0  0
   -0.3191   19.8224    0.1176 H   0  0  0  0  0  0  0  0  0  0  0  0
    0.9564   19.0458    1.6634 H   0  0  0  0  0  0  0  0  0  0  0  0
    3.8834   17.2481   -0.6800 H   0  0  0  0  0  0  0  0  0  0  0  0
    2.4397   18.0190   -1.4202 H   0  0  0  0  0  0  0  0  0  0  0  0
    4.0166   18.8794   -1.4202 H   0  0  0  0  0  0  0  0  0  0  0  0
    3.4528   18.7121    2.5506 H   0  0  0  0  0  0  0  0  0  0  0  0
    4.3528   17.5424    1.5267 H   0  0  0  0  0  0  0  0  0  0  0  0
    4.8159   19.2779    1.5267 H   0  0  0  0  0  0  0  0  0  0  0  0
    1.8140   16.3743   -1.6563 H   0  0  0  0  0  0  0  0  0  0  0  0
    1.9803   15.8275    0.6917 H   0  0  0  0  0  0  0  0  0  0  0  0
    0.2526   15.4280    0.8004 H   0  0  0  0  0  0  0  0  0  0  0  0
    2.3922   13.5367    0.7042 H   0  0  0  0  0  0  0  0  0  0  0  0
    0.7000   13.1289    0.4311 H   0  0  0  0  0  0  0  0  0  0  0  0
    3.7611   14.2055   -0.5940 H   0  0  0  0  0  0  0  0  0  0  0  0
    3.8834   13.2998   -2.1404 H   0  0  0  0  0  0  0  0  0  0  0  0
    3.3171   15.0044   -2.1404 H   0  0  0  0  0  0  0  0  0  0  0  0
    0.6196   11.8735   -1.6390 H   0  0  0  0  0  0  0  0  0  0  0  0
    2.7516   11.3544   -0.2880 H   0  0  0  0  0  0  0  0  0  0  0  0
    2.0015   10.0977   -1.4056 H   0  0  0  0  0  0  0  0  0  0  0  0
    4.6292   10.2774   -1.4513 H   0  0  0  0  0  0  0  0  0  0  0  0
    3.4211   13.0076   -4.1700 H   0  0  0  0  0  0  0  0  0  0  0  0
    2.8439   10.2913   -5.5055 H   0  0  0  0  0  0  0  0  0  0  0  0
    2.5194   11.9410   -6.2004 H   0  0  0  0  0  0  0  0  0  0  0  0
    4.5512   10.9043   -7.1579 H   0  0  0  0  0  0  0  0  0  0  0  0
    4.8973   12.4244   -6.2431 H   0  0  0  0  0  0  0  0  0  0  0  0
    6.5773   10.7988   -5.7001 H   0  0  0  0  0  0  0  0  0  0  0  0
    5.9990    8.7550   -5.6700 H   0  0  0  0  0  0  0  0  0  0  0  0
    6.3964   12.8657   -2.7364 H   0  0  0  0  0  0  0  0  0  0  0  0
    7.2284   12.5252   -4.2916 H   0  0  0  0  0  0  0  0  0  0  0  0
    5.5955   13.2738   -4.2916 H   0  0  0  0  0  0  0  0  0  0  0  0
    6.3830   10.3815   -1.9288 H   0  0  0  0  0  0  0  0  0  0  0  0
    6.3311    9.1687   -3.2529 H   0  0  0  0  0  0  0  0  0  0  0  0
    7.5952   10.4450   -3.2529 H   0  0  0  0  0  0  0  0  0  0  0  0
    0.5690   10.1967   -2.9921 H   0  0  0  0  0  0  0  0  0  0  0  0
   -0.0126   10.9738   -4.5036 H   0  0  0  0  0  0  0  0  0  0  0  0
    1.5287   10.0514   -4.5036 H   0  0  0  0  0  0  0  0  0  0  0  0
    1.2529   13.2880   -5.2607 H   0  0  0  0  0  0  0  0  0  0  0  0
   -0.1813   12.9426   -4.1393 H   0  0  0  0  0  0  0  0  0  0  0  0
    2.0363   14.9690   -3.7352 H   0  0  0  0  0  0  0  0  0  0  0  0
    0.2749   15.2632   -4.0174 H   0  0  0  0  0  0  0  0  0  0  0  0
   -0.9463   13.9698   -0.7843 H   0  0  0  0  0  0  0  0  0  0  0  0
   -1.4079   14.7658   -2.3270 H   0  0  0  0  0  0  0  0  0  0  0  0
   -0.8670   13.0529   -2.3270 H   0  0  0  0  0  0  0  0  0  0  0  0
  1  2  1  0
  2  3  1  0
  3  4  1  0
  4  5  1  0
  5  6  1  0
  6  7  1  0
  7  8  1  0
  7  9  1  0
  2 10  1  0
 10 11  1  0
 11 12  1  0
 12 13  1  0
 13 14  1  1
 13 15  1  0
 15 16  1  0
 16 17  1  0
 17 18  2  0
 18 19  1  0
 19 20  1  0
 20 21  1  0
 21 22  1  0
 22 23  1  0
 22 24  1  0
 24 25  1  0
 24 26  1  0
 19 27  1  0
 27 28  1  1
 27 29  1  0
 29 30  1  0
 30 31  1  0
 31 32  1  6
  7  5  1  0
 31 10  1  0
 31 13  1  0
 27 15  1  0
 24 18  1  0
  1 33  1  0
  1 34  1  0
  1 35  1  0
  2 36  1  6
  3 37  1  0
  3 38  1  0
  4 39  1  0
  4 40  1  0
  5 41  1  1
  8 42  1  0
  8 43  1  0
  8 44  1  0
  9 45  1  0
  9 46  1  0
  9 47  1  0
 10 48  1  6
 11 49  1  0
 11 50  1  0
 12 51  1  0
 12 52  1  0
 14 53  1  0
 14 54  1  0
 14 55  1  0
 15 56  1  1
 16 57  1  0
 16 58  1  0
 17 59  1  0
 19 60  1  6
 20 61  1  0
 20 62  1  0
 21 63  1  0
 21 64  1  0
 22 65  1  6
 23 66  1  0
 25 67  1  0
 25 68  1  0
 25 69  1  0
 26 70  1  0
 26 71  1  0
 26 72  1  0
 28 73  1  0
 28 74  1  0
 28 75  1  0
 29 76  1  0
 29 77  1  0
 30 78  1  0
 30 79  1  0
 32 80  1  0
 32 81  1  0
 32 82  1  0
M  END
>  <meeko>  (8) 
{"is_sidechain": [false], "intermolecular_energy": 2.731, "internal_energy": -0.839}

$$$$
EPH_relaxed_0001_pdb2pqr_Repair_92_r2_0001_out
     RDKit          3D

 82 86  0  0  0  0  0  0  0  0999 V2000
   -1.0300   16.4310   -5.8390 C   0  0  0  0  0  0  0  0  0  0  0  0
    0.0910   15.7540   -6.6320 C   0  0  2  0  0  0  0  0  0  0  0  0
   -0.2830   15.5600   -8.1150 C   0  0  0  0  0  0  0  0  0  0  0  0
    0.3930   16.5610   -9.0570 C   0  0  0  0  0  0  0  0  0  0  0  0
    1.8010   16.1580   -9.3750 C   0  0  2  0  0  0  0  0  0  0  0  0
    2.3370   16.7480  -10.5670 O   0  0  0  0  0  0  0  0  0  0  0  0
    2.1790   15.3200  -10.5820 C   0  0  0  0  0  0  0  0  0  0  0  0
    1.1450   14.8330  -11.5480 C   0  0  0  0  0  0  0  0  0  0  0  0
    3.4740   14.5700  -10.5550 C   0  0  0  0  0  0  0  0  0  0  0  0
    0.4360   14.4100   -6.0020 C   0  0  1  0  0  0  0  0  0  0  0  0
    1.6460   13.7220   -6.6870 C   0  0  0  0  0  0  0  0  0  0  0  0
    2.4230   12.9710   -5.5740 C   0  0  0  0  0  0  0  0  0  0  0  0
    1.4640   12.9730   -4.3600 C   0  0  1  0  0  0  0  0  0  0  0  0
    0.4700   11.8010   -4.6320 C   0  0  0  0  0  0  0  0  0  0  0  0
    2.1320   12.8490   -2.9520 C   0  0  2  0  0  0  0  0  0  0  0  0
    2.9020   11.5390   -2.7090 C   0  0  0  0  0  0  0  0  0  0  0  0
    2.1000   10.4290   -2.1160 C   0  0  0  0  0  0  0  0  0  0  0  0
    0.8960   10.5600   -1.5290 C   0  0  0  0  0  0  0  0  0  0  0  0
    0.2630   11.9440   -1.3310 C   0  0  1  0  0  0  0  0  0  0  0  0
   -0.2830   12.0610    0.1160 C   0  0  0  0  0  0  0  0  0  0  0  0
   -1.2380   10.9260    0.4750 C   0  0  0  0  0  0  0  0  0  0  0  0
   -0.5550    9.5700    0.3210 C   0  0  2  0  0  0  0  0  0  0  0  0
    0.4790    9.4600    1.3040 O   0  0  0  0  0  0  0  0  0  0  0  0
    0.0440    9.3420   -1.0950 C   0  0  0  0  0  0  0  0  0  0  0  0
   -1.1020    9.1600   -2.1210 C   0  0  0  0  0  0  0  0  0  0  0  0
    0.8240    8.0000   -1.0740 C   0  0  0  0  0  0  0  0  0  0  0  0
    1.1660   13.1850   -1.7450 C   0  0  1  0  0  0  0  0  0  0  0  0
    2.0760   13.6020   -0.5490 C   0  0  0  0  0  0  0  0  0  0  0  0
    0.2370   14.4190   -2.0470 C   0  0  0  0  0  0  0  0  0  0  0  0
   -0.2950   14.5520   -3.4870 C   0  0  0  0  0  0  0  0  0  0  0  0
    0.8400   14.4090   -4.5060 C   0  0  2  0  0  0  0  0  0  0  0  0
    1.8450   15.5880   -4.2710 C   0  0  0  0  0  0  0  0  0  0  0  0
   -0.8386   16.3154   -4.7620 H   0  0  0  0  0  0  0  0  0  0  0  0
   -1.0641   17.5008   -6.0926 H   0  0  0  0  0  0  0  0  0  0  0  0
   -1.9927   15.9632   -6.0926 H   0  0  0  0  0  0  0  0  0  0  0  0
    0.9681   16.4168   -6.5962 H   0  0  0  0  0  0  0  0  0  0  0  0
    0.0123   14.5445   -8.4176 H   0  0  0  0  0  0  0  0  0  0  0  0
   -1.3676   15.7238   -8.1969 H   0  0  0  0  0  0  0  0  0  0  0  0
   -0.1826   16.6147   -9.9929 H   0  0  0  0  0  0  0  0  0  0  0  0
    0.4211   17.5395   -8.5552 H   0  0  0  0  0  0  0  0  0  0  0  0
    2.0403   16.0612   -8.3057 H   0  0  0  0  0  0  0  0  0  0  0  0
    0.2860   14.4284  -10.9926 H   0  0  0  0  0  0  0  0  0  0  0  0
    0.8118   15.6688  -12.1807 H   0  0  0  0  0  0  0  0  0  0  0  0
    1.5772   14.0438  -12.1807 H   0  0  0  0  0  0  0  0  0  0  0  0
    3.7751   14.3956   -9.5115 H   0  0  0  0  0  0  0  0  0  0  0  0
    3.3492   13.6044  -11.0668 H   0  0  0  0  0  0  0  0  0  0  0  0
    4.2495   15.1588  -11.0668 H   0  0  0  0  0  0  0  0  0  0  0  0
   -0.5260   13.8928   -6.1325 H   0  0  0  0  0  0  0  0  0  0  0  0
    1.2956   13.0112   -7.4499 H   0  0  0  0  0  0  0  0  0  0  0  0
    2.2889   14.4608   -7.1877 H   0  0  0  0  0  0  0  0  0  0  0  0
    2.6515   11.9415   -5.8868 H   0  0  0  0  0  0  0  0  0  0  0  0
    3.3877   13.4470   -5.3446 H   0  0  0  0  0  0  0  0  0  0  0  0
    0.1196   11.3878   -3.6747 H   0  0  0  0  0  0  0  0  0  0  0  0
   -0.3900   12.1755   -5.2065 H   0  0  0  0  0  0  0  0  0  0  0  0
    0.9799   11.0136   -5.2065 H   0  0  0  0  0  0  0  0  0  0  0  0
    2.8938   13.6420   -2.9806 H   0  0  0  0  0  0  0  0  0  0  0  0
    3.2984   11.1935   -3.6752 H   0  0  0  0  0  0  0  0  0  0  0  0
    3.6833   11.7773   -1.9722 H   0  0  0  0  0  0  0  0  0  0  0  0
    2.5295    9.4174   -2.1626 H   0  0  0  0  0  0  0  0  0  0  0  0
   -0.5678   12.0044   -2.0494 H   0  0  0  0  0  0  0  0  0  0  0  0
    0.5656   12.0423    0.8156 H   0  0  0  0  0  0  0  0  0  0  0  0
   -0.8446   13.0043    0.1856 H   0  0  0  0  0  0  0  0  0  0  0  0
   -1.5660   11.0476    1.5179 H   0  0  0  0  0  0  0  0  0  0  0  0
   -2.1009   10.9642   -0.2062 H   0  0  0  0  0  0  0  0  0  0  0  0
   -1.3235    8.7962    0.4643 H   0  0  0  0  0  0  0  0  0  0  0  0
    0.6580   10.3530    1.6440 H   0  0  0  0  0  0  0  0  0  0  0  0
   -2.0518    9.0092   -1.5869 H   0  0  0  0  0  0  0  0  0  0  0  0
   -1.1749   10.0578   -2.7523 H   0  0  0  0  0  0  0  0  0  0  0  0
   -0.8932    8.2838   -2.7523 H   0  0  0  0  0  0  0  0  0  0  0  0
    1.0012    7.6952   -0.0320 H   0  0  0  0  0  0  0  0  0  0  0  0
    0.2353    7.2256   -1.5875 H   0  0  0  0  0  0  0  0  0  0  0  0
    1.7883    8.1283   -1.5875 H   0  0  0  0  0  0  0  0  0  0  0  0
    1.5669   13.3687    0.3978 H   0  0  0  0  0  0  0  0  0  0  0  0
    3.0256   13.0492   -0.6006 H   0  0  0  0  0  0  0  0  0  0  0  0
    2.2773   14.6822   -0.6006 H   0  0  0  0  0  0  0  0  0  0  0  0
   -0.6321   14.3534   -1.3759 H   0  0  0  0  0  0  0  0  0  0  0  0
    0.8732   15.3030   -1.8923 H   0  0  0  0  0  0  0  0  0  0  0  0
   -1.0427   13.7659   -3.6685 H   0  0  0  0  0  0  0  0  0  0  0  0
   -0.7475   15.5479   -3.6033 H   0  0  0  0  0  0  0  0  0  0  0  0
    1.9793   15.7455   -3.1906 H   0  0  0  0  0  0  0  0  0  0  0  0
    2.8141   15.3404   -4.7287 H   0  0  0  0  0  0  0  0  0  0  0  0
    1.4471   16.5057   -4.7287 H   0  0  0  0  0  0  0  0  0  0  0  0
  1  2  1  0
  2  3  1  0
  3  4  1  0
  4  5  1  0
  5  6  1  0
  6  7  1  0
  7  8  1  0
  7  9  1  0
  2 10  1  0
 10 11  1  0
 11 12  1  0
 12 13  1  0
 13 14  1  6
 13 15  1  0
 15 16  1  0
 16 17  1  0
 17 18  2  0
 18 19  1  0
 19 20  1  0
 20 21  1  0
 21 22  1  0
 22 23  1  0
 22 24  1  0
 24 25  1  0
 24 26  1  0
 19 27  1  0
 27 28  1  1
 27 29  1  0
 29 30  1  0
 30 31  1  0
 31 32  1  6
  7  5  1  0
 31 10  1  0
 31 13  1  0
 27 15  1  0
 24 18  1  0
  1 33  1  0
  1 34  1  0
  1 35  1  0
  2 36  1  6
  3 37  1  0
  3 38  1  0
  4 39  1  0
  4 40  1  0
  5 41  1  1
  8 42  1  0
  8 43  1  0
  8 44  1  0
  9 45  1  0
  9 46  1  0
  9 47  1  0
 10 48  1  1
 11 49  1  0
 11 50  1  0
 12 51  1  0
 12 52  1  0
 14 53  1  0
 14 54  1  0
 14 55  1  0
 15 56  1  6
 16 57  1  0
 16 58  1  0
 17 59  1  0
 19 60  1  6
 20 61  1  0
 20 62  1  0
 21 63  1  0
 21 64  1  0
 22 65  1  1
 23 66  1  0
 25 67  1  0
 25 68  1  0
 25 69  1  0
 26 70  1  0
 26 71  1  0
 26 72  1  0
 28 73  1  0
 28 74  1  0
 28 75  1  0
 29 76  1  0
 29 77  1  0
 30 78  1  0
 30 79  1  0
 32 80  1  0
 32 81  1  0
 32 82  1  0
M  END
>  <meeko>  (9) 
{"is_sidechain": [false], "intermolecular_energy": 2.731, "internal_energy": -0.839}

$$$$
EPH_relaxed_0001_pdb2pqr_Repair_92_r2_0001_out
     RDKit          3D

 82 86  0  0  0  0  0  0  0  0999 V2000
    3.2710   18.5230   -2.9900 C   0  0  0  0  0  0  0  0  0  0  0  0
    1.9700   17.7170   -2.9360 C   0  0  2  0  0  0  0  0  0  0  0  0
    0.8300   18.4990   -2.2550 C   0  0  0  0  0  0  0  0  0  0  0  0
    1.2520   19.8770   -1.7370 C   0  0  0  0  0  0  0  0  0  0  0  0
    1.5000   19.8620   -0.2590 C   0  0  2  0  0  0  0  0  0  0  0  0
    1.2290   18.6080    0.3810 O   0  0  0  0  0  0  0  0  0  0  0  0
    0.3980   19.7130    0.7730 C   0  0  0  0  0  0  0  0  0  0  0  0
   -1.0350   19.5700    0.3680 C   0  0  0  0  0  0  0  0  0  0  0  0
    0.6540   20.1940    2.1670 C   0  0  0  0  0  0  0  0  0  0  0  0
    2.2050   16.3990   -2.2080 C   0  0  1  0  0  0  0  0  0  0  0  0
    2.8500   16.5950   -0.8100 C   0  0  0  0  0  0  0  0  0  0  0  0
    2.2590   15.4990    0.1130 C   0  0  0  0  0  0  0  0  0  0  0  0
    1.5570   14.5140   -0.8510 C   0  0  1  0  0  0  0  0  0  0  0  0
    2.7020   13.6080   -1.4030 C   0  0  0  0  0  0  0  0  0  0  0  0
    0.3920   13.6660   -0.2440 C   0  0  2  0  0  0  0  0  0  0  0  0
    0.8010   12.7130    0.8930 C   0  0  0  0  0  0  0  0  0  0  0  0
    1.2010   11.3410    0.4620 C   0  0  0  0  0  0  0  0  0  0  0  0
    0.9620   10.8000   -0.7460 C   0  0  0  0  0  0  0  0  0  0  0  0
    0.1370   11.5530   -1.7980 C   0  0  1  0  0  0  0  0  0  0  0  0
   -0.9110   10.5930   -2.4190 C   0  0  0  0  0  0  0  0  0  0  0  0
   -0.2810    9.3200   -2.9750 C   0  0  0  0  0  0  0  0  0  0  0  0
    0.4820    8.5690   -1.8870 C   0  0  2  0  0  0  0  0  0  0  0  0
   -0.4540    8.0840   -0.9190 O   0  0  0  0  0  0  0  0  0  0  0  0
    1.5590    9.4390   -1.1820 C   0  0  0  0  0  0  0  0  0  0  0  0
    2.7290    9.7120   -2.1590 C   0  0  0  0  0  0  0  0  0  0  0  0
    2.1550    8.6080   -0.0140 C   0  0  0  0  0  0  0  0  0  0  0  0
   -0.5020   12.9280   -1.3220 C   0  0  1  0  0  0  0  0  0  0  0  0
   -1.8860   12.6680   -0.6510 C   0  0  0  0  0  0  0  0  0  0  0  0
   -0.7830   13.8280   -2.5830 C   0  0  0  0  0  0  0  0  0  0  0  0
    0.3690   14.7330   -3.0620 C   0  0  0  0  0  0  0  0  0  0  0  0
    0.9630   15.5280   -1.8950 C   0  0  2  0  0  0  0  0  0  0  0  0
   -0.1610   16.4640   -1.3340 C   0  0  0  0  0  0  0  0  0  0  0  0
    3.6136   18.7352   -1.9665 H   0  0  0  0  0  0  0  0  0  0  0  0
    4.0400   17.9429   -3.5212 H   0  0  0  0  0  0  0  0  0  0  0  0
    3.0940   19.4699   -3.5212 H   0  0  0  0  0  0  0  0  0  0  0  0
    1.6605   17.5190   -3.9728 H   0  0  0  0  0  0  0  0  0  0  0  0
    0.0186   18.6360   -2.9850 H   0  0  0  0  0  0  0  0  0  0  0  0
    0.5138   17.9103   -1.3812 H   0  0  0  0  0  0  0  0  0  0  0  0
    2.1755   20.1832   -2.2502 H   0  0  0  0  0  0  0  0  0  0  0  0
    0.4346   20.5846   -1.9402 H   0  0  0  0  0  0  0  0  0  0  0  0
    2.3175   20.5903   -0.3652 H   0  0  0  0  0  0  0  0  0  0  0  0
   -1.6656   19.5071    1.2671 H   0  0  0  0  0  0  0  0  0  0  0  0
   -1.3357   20.4426   -0.2304 H   0  0  0  0  0  0  0  0  0  0  0  0
   -1.1574   18.6552   -0.2304 H   0  0  0  0  0  0  0  0  0  0  0  0
    0.2629   19.4592    2.8861 H   0  0  0  0  0  0  0  0  0  0  0  0
    1.7365   20.3162    2.3197 H   0  0  0  0  0  0  0  0  0  0  0  0
    0.1508   21.1601    2.3197 H   0  0  0  0  0  0  0  0  0  0  0  0
    2.8436   15.8923   -2.9466 H   0  0  0  0  0  0  0  0  0  0  0  0
    3.9423   16.4844   -0.8780 H   0  0  0  0  0  0  0  0  0  0  0  0
    2.6390   17.5998   -0.4151 H   0  0  0  0  0  0  0  0  0  0  0  0
    3.0577   14.9911    0.6734 H   0  0  0  0  0  0  0  0  0  0  0  0
    1.5683   15.9127    0.8626 H   0  0  0  0  0  0  0  0  0  0  0  0
    3.2586   13.1676   -0.5626 H   0  0  0  0  0  0  0  0  0  0  0  0
    2.2699   12.8046   -2.0177 H   0  0  0  0  0  0  0  0  0  0  0  0
    3.3845   14.2133   -2.0177 H   0  0  0  0  0  0  0  0  0  0  0  0
   -0.2399   14.4353    0.2239 H   0  0  0  0  0  0  0  0  0  0  0  0
    1.6518   13.1638    1.4248 H   0  0  0  0  0  0  0  0  0  0  0  0
   -0.0936   12.5862    1.5205 H   0  0  0  0  0  0  0  0  0  0  0  0
    1.7368   10.7196    1.1946 H   0  0  0  0  0  0  0  0  0  0  0  0
    0.8505   11.8760   -2.5704 H   0  0  0  0  0  0  0  0  0  0  0  0
   -1.6392   10.3160   -1.6425 H   0  0  0  0  0  0  0  0  0  0  0  0
   -1.3924   11.1203   -3.2558 H   0  0  0  0  0  0  0  0  0  0  0  0
   -1.0741    8.6698   -3.3727 H   0  0  0  0  0  0  0  0  0  0  0  0
    0.4250    9.5967   -3.7718 H   0  0  0  0  0  0  0  0  0  0  0  0
    1.0177    7.7398   -2.3723 H   0  0  0  0  0  0  0  0  0  0  0  0
   -1.0870    7.5100   -1.3830 H   0  0  0  0  0  0  0  0  0  0  0  0
    3.6432    9.9253   -1.5857 H   0  0  0  0  0  0  0  0  0  0  0  0
    2.8915    8.8277   -2.7927 H   0  0  0  0  0  0  0  0  0  0  0  0
    2.4834   10.5770   -2.7927 H   0  0  0  0  0  0  0  0  0  0  0  0
    1.8410    9.0458    0.9450 H   0  0  0  0  0  0  0  0  0  0  0  0
    1.7933    7.5712   -0.0797 H   0  0  0  0  0  0  0  0  0  0  0  0
    3.2530    8.6181   -0.0797 H   0  0  0  0  0  0  0  0  0  0  0  0
   -1.7729   12.6893    0.4430 H   0  0  0  0  0  0  0  0  0  0  0  0
   -2.5964   13.4484   -0.9614 H   0  0  0  0  0  0  0  0  0  0  0  0
   -2.2647   11.6830   -0.9614 H   0  0  0  0  0  0  0  0  0  0  0  0
   -1.0498   13.1603   -3.4155 H   0  0  0  0  0  0  0  0  0  0  0  0
   -1.5808   14.5184   -2.2716 H   0  0  0  0  0  0  0  0  0  0  0  0
    1.1559   14.1077   -3.5090 H   0  0  0  0  0  0  0  0  0  0  0  0
   -0.0271   15.4420   -3.8039 H   0  0  0  0  0  0  0  0  0  0  0  0
   -0.1387   16.4454   -0.2344 H   0  0  0  0  0  0  0  0  0  0  0  0
    0.0080   17.4921   -1.6869 H   0  0  0  0  0  0  0  0  0  0  0  0
   -1.1415   16.1117   -1.6869 H   0  0  0  0  0  0  0  0  0  0  0  0
  1  2  1  0
  2  3  1  0
  3  4  1  0
  4  5  1  0
  5  6  1  0
  6  7  1  0
  7  8  1  0
  7  9  1  0
  2 10  1  0
 10 11  1  0
 11 12  1  0
 12 13  1  0
 13 14  1  6
 13 15  1  0
 15 16  1  0
 16 17  1  0
 17 18  2  0
 18 19  1  0
 19 20  1  0
 20 21  1  0
 21 22  1  0
 22 23  1  0
 22 24  1  0
 24 25  1  0
 24 26  1  0
 19 27  1  0
 27 28  1  1
 27 29  1  0
 29 30  1  0
 30 31  1  0
 31 32  1  1
  7  5  1  0
 31 10  1  0
 31 13  1  0
 27 15  1  0
 24 18  1  0
  1 33  1  0
  1 34  1  0
  1 35  1  0
  2 36  1  6
  3 37  1  0
  3 38  1  0
  4 39  1  0
  4 40  1  0
  5 41  1  1
  8 42  1  0
  8 43  1  0
  8 44  1  0
  9 45  1  0
  9 46  1  0
  9 47  1  0
 10 48  1  6
 11 49  1  0
 11 50  1  0
 12 51  1  0
 12 52  1  0
 14 53  1  0
 14 54  1  0
 14 55  1  0
 15 56  1  1
 16 57  1  0
 16 58  1  0
 17 59  1  0
 19 60  1  6
 20 61  1  0
 20 62  1  0
 21 63  1  0
 21 64  1  0
 22 65  1  6
 23 66  1  0
 25 67  1  0
 25 68  1  0
 25 69  1  0
 26 70  1  0
 26 71  1  0
 26 72  1  0
 28 73  1  0
 28 74  1  0
 28 75  1  0
 29 76  1  0
 29 77  1  0
 30 78  1  0
 30 79  1  0
 32 80  1  0
 32 81  1  0
 32 82  1  0
M  END
>  <meeko>  (10) 
{"is_sidechain": [false], "intermolecular_energy": 2.731, "internal_energy": -0.839}

$$$$
EPH_relaxed_0001_pdb2pqr_Repair_92_r2_0001_out
     RDKit          3D

 82 86  0  0  0  0  0  0  0  0999 V2000
   -4.0570    7.3710   -3.5160 C   0  0  0  0  0  0  0  0  0  0  0  0
   -3.6710    7.2880   -2.0360 C   0  0  2  0  0  0  0  0  0  0  0  0
   -4.8500    6.8350   -1.1530 C   0  0  0  0  0  0  0  0  0  0  0  0
   -6.0230    6.2510   -1.9450 C   0  0  0  0  0  0  0  0  0  0  0  0
   -7.3410    6.6000   -1.3220 C   0  0  2  0  0  0  0  0  0  0  0  0
   -8.2480    5.4980   -1.1830 O   0  0  0  0  0  0  0  0  0  0  0  0
   -8.6600    6.5500   -2.0710 C   0  0  0  0  0  0  0  0  0  0  0  0
   -8.7250    6.1420   -3.5090 C   0  0  0  0  0  0  0  0  0  0  0  0
   -9.8070    7.3610   -1.5540 C   0  0  0  0  0  0  0  0  0  0  0  0
   -3.1510    8.6390   -1.5580 C   0  0  1  0  0  0  0  0  0  0  0  0
   -3.8190    9.1020   -0.2360 C   0  0  0  0  0  0  0  0  0  0  0  0
   -2.7350    9.8640    0.5690 C   0  0  0  0  0  0  0  0  0  0  0  0
   -1.5910   10.1030   -0.4450 C   0  0  1  0  0  0  0  0  0  0  0  0
   -2.0380   11.3520   -1.2670 C   0  0  0  0  0  0  0  0  0  0  0  0
   -0.1610   10.2910    0.1590 C   0  0  2  0  0  0  0  0  0  0  0  0
    0.0050   11.5160    1.0740 C   0  0  0  0  0  0  0  0  0  0  0  0
    0.4350   12.7700    0.3880 C   0  0  0  0  0  0  0  0  0  0  0  0
    0.9520   12.8460   -0.8530 C   0  0  0  0  0  0  0  0  0  0  0  0
    1.2410   11.5760   -1.6640 C   0  0  1  0  0  0  0  0  0  0  0  0
    2.6540   11.6750   -2.2960 C   0  0  0  0  0  0  0  0  0  0  0  0
    2.8390   12.9480   -3.1180 C   0  0  0  0  0  0  0  0  0  0  0  0
    2.6010   14.1890   -2.2620 C   0  0  2  0  0  0  0  0  0  0  0  0
    3.6340   14.2740   -1.2760 O   0  0  0  0  0  0  0  0  0  0  0  0
    1.2110   14.1960   -1.5660 C   0  0  0  0  0  0  0  0  0  0  0  0
    0.1000   14.4080   -2.6240 C   0  0  0  0  0  0  0  0  0  0  0  0
    1.1550   15.4290   -0.6240 C   0  0  0  0  0  0  0  0  0  0  0  0
    1.0080   10.2000   -0.9040 C   0  0  1  0  0  0  0  0  0  0  0  0
    2.2940    9.8010   -0.1180 C   0  0  0  0  0  0  0  0  0  0  0  0
    0.7650    9.0620   -1.9650 C   0  0  0  0  0  0  0  0  0  0  0  0
   -0.6870    8.8460   -2.4320 C   0  0  0  0  0  0  0  0  0  0  0  0
   -1.6390    8.7450   -1.2360 C   0  0  2  0  0  0  0  0  0  0  0  0
   -1.2280    7.4850   -0.4020 C   0  0  0  0  0  0  0  0  0  0  0  0
   -5.1291    7.6015   -3.6030 H   0  0  0  0  0  0  0  0  0  0  0  0
   -3.4708    8.1636   -4.0039 H   0  0  0  0  0  0  0  0  0  0  0  0
   -3.8484    6.4075   -4.0039 H   0  0  0  0  0  0  0  0  0  0  0  0
   -2.8789    6.5305   -1.9426 H   0  0  0  0  0  0  0  0  0  0  0  0
   -4.4859    6.0671   -0.4546 H   0  0  0  0  0  0  0  0  0  0  0  0
   -5.2257    7.7295   -0.6345 H   0  0  0  0  0  0  0  0  0  0  0  0
   -5.9958    6.6510   -2.9693 H   0  0  0  0  0  0  0  0  0  0  0  0
   -5.9239    5.1555   -1.9469 H   0  0  0  0  0  0  0  0  0  0  0  0
   -6.8704    7.3820   -0.7079 H   0  0  0  0  0  0  0  0  0  0  0  0
   -8.8978    5.0577   -3.5750 H   0  0  0  0  0  0  0  0  0  0  0  0
   -9.5495    6.6755   -4.0046 H   0  0  0  0  0  0  0  0  0  0  0  0
   -7.7756    6.3929   -4.0046 H   0  0  0  0  0  0  0  0  0  0  0  0
   -9.7955    7.3529   -0.4541 H   0  0  0  0  0  0  0  0  0  0  0  0
   -9.7157    8.3964   -1.9140 H   0  0  0  0  0  0  0  0  0  0  0  0
  -10.7527    6.9297   -1.9140 H   0  0  0  0  0  0  0  0  0  0  0  0
   -3.3921    9.2522   -2.4388 H   0  0  0  0  0  0  0  0  0  0  0  0
   -4.6676    9.7674   -0.4530 H   0  0  0  0  0  0  0  0  0  0  0  0
   -4.2042    8.2437    0.3340 H   0  0  0  0  0  0  0  0  0  0  0  0
   -3.1293   10.8207    0.9421 H   0  0  0  0  0  0  0  0  0  0  0  0
   -2.3986    9.3009    1.4520 H   0  0  0  0  0  0  0  0  0  0  0  0
   -2.3271   12.1598   -0.5786 H   0  0  0  0  0  0  0  0  0  0  0  0
   -1.2054   11.6909   -1.9009 H   0  0  0  0  0  0  0  0  0  0  0  0
   -2.8966   11.0857   -1.9009 H   0  0  0  0  0  0  0  0  0  0  0  0
   -0.0646    9.4136    0.8155 H   0  0  0  0  0  0  0  0  0  0  0  0
   -0.9618   11.7096    1.5617 H   0  0  0  0  0  0  0  0  0  0  0  0
    0.8107   11.2628    1.7787 H   0  0  0  0  0  0  0  0  0  0  0  0
    0.3197   13.7124    0.9436 H   0  0  0  0  0  0  0  0  0  0  0  0
    0.4792   11.5421   -2.4567 H   0  0  0  0  0  0  0  0  0  0  0  0
    3.4025   11.6637   -1.4900 H   0  0  0  0  0  0  0  0  0  0  0  0
    2.7773   10.8181   -2.9746 H   0  0  0  0  0  0  0  0  0  0  0  0
    3.8649   12.9750   -3.5139 H   0  0  0  0  0  0  0  0  0  0  0  0
    2.1093   12.9438   -3.9411 H   0  0  0  0  0  0  0  0  0  0  0  0
    2.6198   15.0609   -2.9325 H   0  0  0  0  0  0  0  0  0  0  0  0
    3.9940   15.1770   -1.3040 H   0  0  0  0  0  0  0  0  0  0  0  0
   -0.8589   14.5910   -2.1171 H   0  0  0  0  0  0  0  0  0  0  0  0
    0.3533   15.2740   -3.2532 H   0  0  0  0  0  0  0  0  0  0  0  0
    0.0166   13.5096   -3.2532 H   0  0  0  0  0  0  0  0  0  0  0  0
    1.1703   15.0916    0.4229 H   0  0  0  0  0  0  0  0  0  0  0  0
    2.0247   16.0752   -0.8138 H   0  0  0  0  0  0  0  0  0  0  0  0
    0.2303   15.9937   -0.8138 H   0  0  0  0  0  0  0  0  0  0  0  0
    2.0971    9.8621    0.9625 H   0  0  0  0  0  0  0  0  0  0  0  0
    2.5800    8.7719   -0.3810 H   0  0  0  0  0  0  0  0  0  0  0  0
    3.1123   10.4875   -0.3810 H   0  0  0  0  0  0  0  0  0  0  0  0
    1.3682    9.3010   -2.8533 H   0  0  0  0  0  0  0  0  0  0  0  0
    1.0451    8.1285   -1.4550 H   0  0  0  0  0  0  0  0  0  0  0  0
   -0.9916    9.6935   -3.0637 H   0  0  0  0  0  0  0  0  0  0  0  0
   -0.7363    7.9051   -2.9996 H   0  0  0  0  0  0  0  0  0  0  0  0
   -1.3031    7.7151    0.6710 H   0  0  0  0  0  0  0  0  0  0  0  0
   -1.9000    6.6489   -0.6456 H   0  0  0  0  0  0  0  0  0  0  0  0
   -0.1922    7.2059   -0.6456 H   0  0  0  0  0  0  0  0  0  0  0  0
  1  2  1  0
  2  3  1  0
  3  4  1  0
  4  5  1  0
  5  6  1  0
  6  7  1  0
  7  8  1  0
  7  9  1  0
  2 10  1  0
 10 11  1  0
 11 12  1  0
 12 13  1  0
 13 14  1  6
 13 15  1  0
 15 16  1  0
 16 17  1  0
 17 18  2  0
 18 19  1  0
 19 20  1  0
 20 21  1  0
 21 22  1  0
 22 23  1  0
 22 24  1  0
 24 25  1  0
 24 26  1  0
 19 27  1  0
 27 28  1  1
 27 29  1  0
 29 30  1  0
 30 31  1  0
 31 32  1  1
  7  5  1  0
 31 10  1  0
 31 13  1  0
 27 15  1  0
 24 18  1  0
  1 33  1  0
  1 34  1  0
  1 35  1  0
  2 36  1  6
  3 37  1  0
  3 38  1  0
  4 39  1  0
  4 40  1  0
  5 41  1  1
  8 42  1  0
  8 43  1  0
  8 44  1  0
  9 45  1  0
  9 46  1  0
  9 47  1  0
 10 48  1  6
 11 49  1  0
 11 50  1  0
 12 51  1  0
 12 52  1  0
 14 53  1  0
 14 54  1  0
 14 55  1  0
 15 56  1  1
 16 57  1  0
 16 58  1  0
 17 59  1  0
 19 60  1  6
 20 61  1  0
 20 62  1  0
 21 63  1  0
 21 64  1  0
 22 65  1  6
 23 66  1  0
 25 67  1  0
 25 68  1  0
 25 69  1  0
 26 70  1  0
 26 71  1  0
 26 72  1  0
 28 73  1  0
 28 74  1  0
 28 75  1  0
 29 76  1  0
 29 77  1  0
 30 78  1  0
 30 79  1  0
 32 80  1  0
 32 81  1  0
 32 82  1  0
M  END
>  <meeko>  (11) 
{"is_sidechain": [false], "intermolecular_energy": 2.731, "internal_energy": -0.839}

$$$$
EPH_relaxed_0001_pdb2pqr_Repair_92_r2_0001_out
     RDKit          3D

 82 86  0  0  0  0  0  0  0  0999 V2000
   -0.3650   18.2460   -2.8100 C   0  0  0  0  0  0  0  0  0  0  0  0
    0.6830   17.6850   -1.8450 C   0  0  2  0  0  0  0  0  0  0  0  0
    1.9990   18.4880   -1.8860 C   0  0  0  0  0  0  0  0  0  0  0  0
    2.0180   19.6880   -0.9360 C   0  0  0  0  0  0  0  0  0  0  0  0
    3.1340   19.5900    0.0590 C   0  0  2  0  0  0  0  0  0  0  0  0
    3.0140   18.5050    0.9880 O   0  0  0  0  0  0  0  0  0  0  0  0
    2.9520   19.8270    1.5470 C   0  0  0  0  0  0  0  0  0  0  0  0
    1.6180   20.1830    2.1230 C   0  0  0  0  0  0  0  0  0  0  0  0
    4.1520   20.1920    2.3650 C   0  0  0  0  0  0  0  0  0  0  0  0
    0.9560   16.2210   -2.1680 C   0  0  1  0  0  0  0  0  0  0  0  0
    2.3320   16.0060   -2.8530 C   0  0  0  0  0  0  0  0  0  0  0  0
    2.8760   14.6460   -2.3480 C   0  0  0  0  0  0  0  0  0  0  0  0
    1.6660   13.9730   -1.6580 C   0  0  1  0  0  0  0  0  0  0  0  0
    0.8350   13.3510   -2.8240 C   0  0  0  0  0  0  0  0  0  0  0  0
    1.9980   12.9150   -0.5570 C   0  0  2  0  0  0  0  0  0  0  0  0
    2.7710   11.6790   -1.0510 C   0  0  0  0  0  0  0  0  0  0  0  0
    1.9240   10.5340   -1.4990 C   0  0  0  0  0  0  0  0  0  0  0  0
    0.6110   10.3850   -1.2410 C   0  0  0  0  0  0  0  0  0  0  0  0
   -0.1340   11.3820   -0.3440 C   0  0  1  0  0  0  0  0  0  0  0  0
   -1.0050   10.6070    0.6790 C   0  0  0  0  0  0  0  0  0  0  0  0
   -1.9450    9.6090    0.0110 C   0  0  0  0  0  0  0  0  0  0  0  0
   -1.1620    8.5990   -0.8250 C   0  0  2  0  0  0  0  0  0  0  0  0
   -0.3770    7.7850    0.0510 O   0  0  0  0  0  0  0  0  0  0  0  0
   -0.2410    9.2640   -1.8860 C   0  0  0  0  0  0  0  0  0  0  0  0
   -1.1070    9.8940   -3.0050 C   0  0  0  0  0  0  0  0  0  0  0  0
    0.5950    8.1440   -2.5620 C   0  0  0  0  0  0  0  0  0  0  0  0
    0.7620   12.5020    0.3410 C   0  0  1  0  0  0  0  0  0  0  0  0
    1.3450   11.9690    1.6850 C   0  0  0  0  0  0  0  0  0  0  0  0
   -0.1480   13.7340    0.7090 C   0  0  0  0  0  0  0  0  0  0  0  0
   -0.3410   14.8050   -0.3810 C   0  0  0  0  0  0  0  0  0  0  0  0
    1.0040   15.2280   -0.9790 C   0  0  2  0  0  0  0  0  0  0  0  0
    1.8540   15.8780    0.1650 C   0  0  0  0  0  0  0  0  0  0  0  0
   -1.1922   18.6888   -2.2359 H   0  0  0  0  0  0  0  0  0  0  0  0
    0.0960   19.0179   -3.4437 H   0  0  0  0  0  0  0  0  0  0  0  0
   -0.7517   17.4343   -3.4437 H   0  0  0  0  0  0  0  0  0  0  0  0
    0.2752   17.7713   -0.8270 H   0  0  0  0  0  0  0  0  0  0  0  0
    2.8250   17.8152   -1.6120 H   0  0  0  0  0  0  0  0  0  0  0  0
    2.1016   18.8848   -2.9068 H   0  0  0  0  0  0  0  0  0  0  0  0
    2.1462   20.6076   -1.5259 H   0  0  0  0  0  0  0  0  0  0  0  0
    1.0668   19.7030   -0.3838 H   0  0  0  0  0  0  0  0  0  0  0  0
    3.8511   19.9948   -0.6703 H   0  0  0  0  0  0  0  0  0  0  0  0
    1.6768   20.1673    3.2213 H   0  0  0  0  0  0  0  0  0  0  0  0
    1.3297   21.1895    1.7856 H   0  0  0  0  0  0  0  0  0  0  0  0
    0.8666   19.4540    1.7856 H   0  0  0  0  0  0  0  0  0  0  0  0
    3.9038   20.1165    3.4340 H   0  0  0  0  0  0  0  0  0  0  0  0
    4.9782   19.5045    2.1310 H   0  0  0  0  0  0  0  0  0  0  0  0
    4.4555   21.2231    2.1310 H   0  0  0  0  0  0  0  0  0  0  0  0
    0.0839   16.0066   -2.8032 H   0  0  0  0  0  0  0  0  0  0  0  0
    2.2114   15.9832   -3.9461 H   0  0  0  0  0  0  0  0  0  0  0  0
    3.0262   16.8237   -2.6093 H   0  0  0  0  0  0  0  0  0  0  0  0
    3.2329   14.0340   -3.1895 H   0  0  0  0  0  0  0  0  0  0  0  0
    3.7309   14.7661   -1.6664 H   0  0  0  0  0  0  0  0  0  0  0  0
    0.0197   12.7407   -2.4083 H   0  0  0  0  0  0  0  0  0  0  0  0
    0.4117   14.1560   -3.4427 H   0  0  0  0  0  0  0  0  0  0  0  0
    1.4881   12.7180   -3.4427 H   0  0  0  0  0  0  0  0  0  0  0  0
    2.6951   13.4640    0.0931 H   0  0  0  0  0  0  0  0  0  0  0  0
    3.4005   11.9881   -1.8985 H   0  0  0  0  0  0  0  0  0  0  0  0
    3.3445   11.3133   -0.1865 H   0  0  0  0  0  0  0  0  0  0  0  0
    2.4139    9.7458   -2.0896 H   0  0  0  0  0  0  0  0  0  0  0  0
   -0.7791   11.9704   -1.0130 H   0  0  0  0  0  0  0  0  0  0  0  0
   -0.3409   10.0608    1.3650 H   0  0  0  0  0  0  0  0  0  0  0  0
   -1.6245   11.3420    1.2138 H   0  0  0  0  0  0  0  0  0  0  0  0
   -2.5112    9.0726    0.7867 H   0  0  0  0  0  0  0  0  0  0  0  0
   -2.6287   10.1594   -0.6520 H   0  0  0  0  0  0  0  0  0  0  0  0
   -1.8935    7.9937   -1.3804 H   0  0  0  0  0  0  0  0  0  0  0  0
    0.5580    7.9900   -0.1160 H   0  0  0  0  0  0  0  0  0  0  0  0
   -1.9179   10.4839   -2.5528 H   0  0  0  0  0  0  0  0  0  0  0  0
   -0.4807   10.5490   -3.6284 H   0  0  0  0  0  0  0  0  0  0  0  0
   -1.5374    9.0965   -3.6284 H   0  0  0  0  0  0  0  0  0  0  0  0
    1.0626    7.5176   -1.7880 H   0  0  0  0  0  0  0  0  0  0  0  0
   -0.0624    7.5232   -3.1885 H   0  0  0  0  0  0  0  0  0  0  0  0
    1.3771    8.5977   -3.1885 H   0  0  0  0  0  0  0  0  0  0  0  0
    0.8222   12.4469    2.5266 H   0  0  0  0  0  0  0  0  0  0  0  0
    1.2060   10.8791    1.7384 H   0  0  0  0  0  0  0  0  0  0  0  0
    2.4181   12.2049    1.7384 H   0  0  0  0  0  0  0  0  0  0  0  0
   -1.1425   13.3458    0.9739 H   0  0  0  0  0  0  0  0  0  0  0  0
    0.3793   14.2472    1.5267 H   0  0  0  0  0  0  0  0  0  0  0  0
   -0.9767   14.3950   -1.1796 H   0  0  0  0  0  0  0  0  0  0  0  0
   -0.8150   15.6870    0.0743 H   0  0  0  0  0  0  0  0  0  0  0  0
    1.4513   15.5701    1.1412 H   0  0  0  0  0  0  0  0  0  0  0  0
    2.8994   15.5467    0.0786 H   0  0  0  0  0  0  0  0  0  0  0  0
    1.8082   16.9736    0.0786 H   0  0  0  0  0  0  0  0  0  0  0  0
  1  2  1  0
  2  3  1  0
  3  4  1  0
  4  5  1  0
  5  6  1  0
  6  7  1  0
  7  8  1  0
  7  9  1  0
  2 10  1  0
 10 11  1  0
 11 12  1  0
 12 13  1  0
 13 14  1  6
 13 15  1  0
 15 16  1  0
 16 17  1  0
 17 18  2  0
 18 19  1  0
 19 20  1  0
 20 21  1  0
 21 22  1  0
 22 23  1  0
 22 24  1  0
 24 25  1  0
 24 26  1  0
 19 27  1  0
 27 28  1  1
 27 29  1  0
 29 30  1  0
 30 31  1  0
 31 32  1  1
  7  5  1  0
 31 10  1  0
 31 13  1  0
 27 15  1  0
 24 18  1  0
  1 33  1  0
  1 34  1  0
  1 35  1  0
  2 36  1  1
  3 37  1  0
  3 38  1  0
  4 39  1  0
  4 40  1  0
  5 41  1  6
  8 42  1  0
  8 43  1  0
  8 44  1  0
  9 45  1  0
  9 46  1  0
  9 47  1  0
 10 48  1  6
 11 49  1  0
 11 50  1  0
 12 51  1  0
 12 52  1  0
 14 53  1  0
 14 54  1  0
 14 55  1  0
 15 56  1  1
 16 57  1  0
 16 58  1  0
 17 59  1  0
 19 60  1  6
 20 61  1  0
 20 62  1  0
 21 63  1  0
 21 64  1  0
 22 65  1  6
 23 66  1  0
 25 67  1  0
 25 68  1  0
 25 69  1  0
 26 70  1  0
 26 71  1  0
 26 72  1  0
 28 73  1  0
 28 74  1  0
 28 75  1  0
 29 76  1  0
 29 77  1  0
 30 78  1  0
 30 79  1  0
 32 80  1  0
 32 81  1  0
 32 82  1  0
M  END
>  <meeko>  (12) 
{"is_sidechain": [false], "intermolecular_energy": 2.731, "internal_energy": -0.839}

$$$$
EPH_relaxed_0001_pdb2pqr_Repair_92_r2_0001_out
     RDKit          3D

 82 86  0  0  0  0  0  0  0  0999 V2000
   -0.2770   15.1160   -7.7090 C   0  0  0  0  0  0  0  0  0  0  0  0
    1.0880   15.1060   -7.0140 C   0  0  2  0  0  0  0  0  0  0  0  0
    2.2520   15.2070   -8.0200 C   0  0  0  0  0  0  0  0  0  0  0  0
    2.2680   16.5160   -8.8140 C   0  0  0  0  0  0  0  0  0  0  0  0
    1.8740   16.3020  -10.2440 C   0  0  2  0  0  0  0  0  0  0  0  0
    1.2120   15.0570  -10.5030 O   0  0  0  0  0  0  0  0  0  0  0  0
    2.4920   15.2370  -11.1320 C   0  0  0  0  0  0  0  0  0  0  0  0
    3.5550   14.3160  -10.6210 C   0  0  0  0  0  0  0  0  0  0  0  0
    2.4150   15.4110  -12.6160 C   0  0  0  0  0  0  0  0  0  0  0  0
    1.2340   13.8430   -6.1740 C   0  0  1  0  0  0  0  0  0  0  0  0
    2.6650   13.2450   -6.2360 C   0  0  0  0  0  0  0  0  0  0  0  0
    2.9600   12.6440   -4.8380 C   0  0  0  0  0  0  0  0  0  0  0  0
    1.5860   12.6160   -4.1280 C   0  0  1  0  0  0  0  0  0  0  0  0
    0.8800   11.3330   -4.6700 C   0  0  0  0  0  0  0  0  0  0  0  0
    1.6160   12.6410   -2.5650 C   0  0  2  0  0  0  0  0  0  0  0  0
    2.3050   11.4340   -1.9050 C   0  0  0  0  0  0  0  0  0  0  0  0
    1.4100   10.2820   -1.5900 C   0  0  0  0  0  0  0  0  0  0  0  0
    0.0650   10.3220   -1.5620 C   0  0  0  0  0  0  0  0  0  0  0  0
   -0.6890   11.6420   -1.7710 C   0  0  1  0  0  0  0  0  0  0  0  0
   -1.7940   11.7830   -0.6910 C   0  0  0  0  0  0  0  0  0  0  0  0
   -2.7280   10.5780   -0.6490 C   0  0  0  0  0  0  0  0  0  0  0  0
   -1.9490    9.2930   -0.3810 C   0  0  2  0  0  0  0  0  0  0  0  0
   -1.4120    9.3480    0.9440 O   0  0  0  0  0  0  0  0  0  0  0  0
   -0.8020    9.0490   -1.4010 C   0  0  0  0  0  0  0  0  0  0  0  0
   -1.4010    8.6910   -2.7830 C   0  0  0  0  0  0  0  0  0  0  0  0
   -0.0080    7.7980   -0.9350 C   0  0  0  0  0  0  0  0  0  0  0  0
    0.2140   12.9440   -1.8950 C   0  0  1  0  0  0  0  0  0  0  0  0
    0.5130   13.5200   -0.4770 C   0  0  0  0  0  0  0  0  0  0  0  0
   -0.5900   14.0560   -2.6660 C   0  0  0  0  0  0  0  0  0  0  0  0
   -0.4840   14.0510   -4.2030 C   0  0  0  0  0  0  0  0  0  0  0  0
    0.9790   13.9680   -4.6510 C   0  0  2  0  0  0  0  0  0  0  0  0
    1.7090   15.2560   -4.1390 C   0  0  0  0  0  0  0  0  0  0  0  0
   -1.0743   15.1218   -6.9512 H   0  0  0  0  0  0  0  0  0  0  0  0
   -0.3619   16.0148   -8.3375 H   0  0  0  0  0  0  0  0  0  0  0  0
   -0.3751   14.2185   -8.3375 H   0  0  0  0  0  0  0  0  0  0  0  0
    1.1352   15.9922   -6.3641 H   0  0  0  0  0  0  0  0  0  0  0  0
    3.1984   15.1258   -7.4652 H   0  0  0  0  0  0  0  0  0  0  0  0
    2.1201   14.3920   -8.7468 H   0  0  0  0  0  0  0  0  0  0  0  0
    1.5624   17.2220   -8.3517 H   0  0  0  0  0  0  0  0  0  0  0  0
    3.2930   16.9148   -8.7968 H   0  0  0  0  0  0  0  0  0  0  0  0
    1.7165   17.3813  -10.3866 H   0  0  0  0  0  0  0  0  0  0  0  0
    3.5478   14.3222   -9.5210 H   0  0  0  0  0  0  0  0  0  0  0  0
    3.3612   13.2956  -10.9832 H   0  0  0  0  0  0  0  0  0  0  0  0
    4.5374   14.6532  -10.9832 H   0  0  0  0  0  0  0  0  0  0  0  0
    1.9799   16.3943  -12.8478 H   0  0  0  0  0  0  0  0  0  0  0  0
    3.4256   15.3468  -13.0456 H   0  0  0  0  0  0  0  0  0  0  0  0
    1.7830   14.6198  -13.0456 H   0  0  0  0  0  0  0  0  0  0  0  0
    0.4520   13.2233   -6.6372 H   0  0  0  0  0  0  0  0  0  0  0  0
    2.7141   12.4591   -7.0041 H   0  0  0  0  0  0  0  0  0  0  0  0
    3.4042   14.0163   -6.4981 H   0  0  0  0  0  0  0  0  0  0  0  0
    3.3700   11.6275   -4.9309 H   0  0  0  0  0  0  0  0  0  0  0  0
    3.7058   13.2299   -4.2808 H   0  0  0  0  0  0  0  0  0  0  0  0
    0.5407   10.7164   -3.8247 H   0  0  0  0  0  0  0  0  0  0  0  0
    0.0141   11.6224   -5.2836 H   0  0  0  0  0  0  0  0  0  0  0  0
    1.5879   10.7564   -5.2836 H   0  0  0  0  0  0  0  0  0  0  0  0
    2.2641   13.5049   -2.3558 H   0  0  0  0  0  0  0  0  0  0  0  0
    3.0912   11.0770   -2.5865 H   0  0  0  0  0  0  0  0  0  0  0  0
    2.6889   11.7938   -0.9390 H   0  0  0  0  0  0  0  0  0  0  0  0
    1.8901    9.3190   -1.3614 H   0  0  0  0  0  0  0  0  0  0  0  0
   -1.1483   11.5761   -2.7683 H   0  0  0  0  0  0  0  0  0  0  0  0
   -1.3138   11.8914    0.2927 H   0  0  0  0  0  0  0  0  0  0  0  0
   -2.3990   12.6657   -0.9457 H   0  0  0  0  0  0  0  0  0  0  0  0
   -3.4681   10.7239    0.1516 H   0  0  0  0  0  0  0  0  0  0  0  0
   -3.2289   10.4880   -1.6242 H   0  0  0  0  0  0  0  0  0  0  0  0
   -2.6499    8.4523   -0.4905 H   0  0  0  0  0  0  0  0  0  0  0  0
   -2.1530    9.2570    1.5660 H   0  0  0  0  0  0  0  0  0  0  0  0
   -2.3375    8.1313   -2.6428 H   0  0  0  0  0  0  0  0  0  0  0  0
   -1.6063    9.6146   -3.3440 H   0  0  0  0  0  0  0  0  0  0  0  0
   -0.6848    8.0727   -3.3440 H   0  0  0  0  0  0  0  0  0  0  0  0
    0.0127    7.7654    0.1643 H   0  0  0  0  0  0  0  0  0  0  0  0
   -0.4955    6.8900   -1.3197 H   0  0  0  0  0  0  0  0  0  0  0  0
    1.0211    7.8526   -1.3197 H   0  0  0  0  0  0  0  0  0  0  0  0
    0.1488   12.8185    0.2880 H   0  0  0  0  0  0  0  0  0  0  0  0
    1.5977   13.6601   -0.3594 H   0  0  0  0  0  0  0  0  0  0  0  0
    0.0034   14.4877   -0.3594 H   0  0  0  0  0  0  0  0  0  0  0  0
   -1.6523   13.9395   -2.4054 H   0  0  0  0  0  0  0  0  0  0  0  0
   -0.1392   15.0082   -2.3497 H   0  0  0  0  0  0  0  0  0  0  0  0
   -1.0314   13.1828   -4.5987 H   0  0  0  0  0  0  0  0  0  0  0  0
   -0.9163   14.9865   -4.5877 H   0  0  0  0  0  0  0  0  0  0  0  0
    1.7127   15.2626   -3.0390 H   0  0  0  0  0  0  0  0  0  0  0  0
    2.7448   15.2621   -4.5092 H   0  0  0  0  0  0  0  0  0  0  0  0
    1.1821   16.1478   -4.5092 H   0  0  0  0  0  0  0  0  0  0  0  0
  1  2  1  0
  2  3  1  0
  3  4  1  0
  4  5  1  0
  5  6  1  0
  6  7  1  0
  7  8  1  0
  7  9  1  0
  2 10  1  0
 10 11  1  0
 11 12  1  0
 12 13  1  0
 13 14  1  1
 13 15  1  0
 15 16  1  0
 16 17  1  0
 17 18  2  0
 18 19  1  0
 19 20  1  0
 20 21  1  0
 21 22  1  0
 22 23  1  0
 22 24  1  0
 24 25  1  0
 24 26  1  0
 19 27  1  0
 27 28  1  1
 27 29  1  0
 29 30  1  0
 30 31  1  0
 31 32  1  1
  7  5  1  0
 31 10  1  0
 31 13  1  0
 27 15  1  0
 24 18  1  0
  1 33  1  0
  1 34  1  0
  1 35  1  0
  2 36  1  1
  3 37  1  0
  3 38  1  0
  4 39  1  0
  4 40  1  0
  5 41  1  6
  8 42  1  0
  8 43  1  0
  8 44  1  0
  9 45  1  0
  9 46  1  0
  9 47  1  0
 10 48  1  6
 11 49  1  0
 11 50  1  0
 12 51  1  0
 12 52  1  0
 14 53  1  0
 14 54  1  0
 14 55  1  0
 15 56  1  6
 16 57  1  0
 16 58  1  0
 17 59  1  0
 19 60  1  6
 20 61  1  0
 20 62  1  0
 21 63  1  0
 21 64  1  0
 22 65  1  1
 23 66  1  0
 25 67  1  0
 25 68  1  0
 25 69  1  0
 26 70  1  0
 26 71  1  0
 26 72  1  0
 28 73  1  0
 28 74  1  0
 28 75  1  0
 29 76  1  0
 29 77  1  0
 30 78  1  0
 30 79  1  0
 32 80  1  0
 32 81  1  0
 32 82  1  0
M  END
>  <meeko>  (13) 
{"is_sidechain": [false], "intermolecular_energy": 2.731, "internal_energy": -0.839}

$$$$
EPH_relaxed_0001_pdb2pqr_Repair_92_r2_0001_out
     RDKit          3D

 82 86  0  0  0  0  0  0  0  0999 V2000
   -2.2380    7.7770   -2.3640 C   0  0  0  0  0  0  0  0  0  0  0  0
   -2.2250    8.3710   -0.9520 C   0  0  2  0  0  0  0  0  0  0  0  0
   -3.6160    8.3180   -0.2880 C   0  0  0  0  0  0  0  0  0  0  0  0
   -4.7550    8.0220   -1.2670 C   0  0  0  0  0  0  0  0  0  0  0  0
   -5.8870    7.3010   -0.6000 C   0  0  2  0  0  0  0  0  0  0  0  0
   -5.9000    5.8830   -0.8100 O   0  0  0  0  0  0  0  0  0  0  0  0
   -7.0070    6.6170   -1.3610 C   0  0  0  0  0  0  0  0  0  0  0  0
   -7.0510    6.6210   -2.8560 C   0  0  0  0  0  0  0  0  0  0  0  0
   -8.3040    6.3690   -0.6550 C   0  0  0  0  0  0  0  0  0  0  0  0
   -1.7240    9.8090   -0.9980 C   0  0  1  0  0  0  0  0  0  0  0  0
   -1.3440   10.3540    0.4040 C   0  0  0  0  0  0  0  0  0  0  0  0
   -0.1320   11.3010    0.2030 C   0  0  0  0  0  0  0  0  0  0  0  0
   -0.0650   11.5280   -1.3250 C   0  0  1  0  0  0  0  0  0  0  0  0
   -1.1330   12.6290   -1.6140 C   0  0  0  0  0  0  0  0  0  0  0  0
    1.3350   11.9160   -1.9050 C   0  0  2  0  0  0  0  0  0  0  0  0
    1.9090   13.2470   -1.3890 C   0  0  0  0  0  0  0  0  0  0  0  0
    1.5530   14.4500   -2.1980 C   0  0  0  0  0  0  0  0  0  0  0  0
    1.0450   14.4330   -3.4450 C   0  0  0  0  0  0  0  0  0  0  0  0
    0.8700   13.1120   -4.2050 C   0  0  1  0  0  0  0  0  0  0  0  0
    1.4130   13.2710   -5.6500 C   0  0  0  0  0  0  0  0  0  0  0  0
    0.7880   14.4540   -6.3830 C   0  0  0  0  0  0  0  0  0  0  0  0
    1.0330   15.7560   -5.6250 C   0  0  2  0  0  0  0  0  0  0  0  0
    2.4340   16.0480   -5.6520 O   0  0  0  0  0  0  0  0  0  0  0  0
    0.5360   15.7120   -4.1530 C   0  0  0  0  0  0  0  0  0  0  0  0
   -1.0120   15.6990   -4.1270 C   0  0  0  0  0  0  0  0  0  0  0  0
    0.9700   17.0330   -3.4630 C   0  0  0  0  0  0  0  0  0  0  0  0
    1.4340   11.8150   -3.4810 C   0  0  1  0  0  0  0  0  0  0  0  0
    2.9440   11.6290   -3.8210 C   0  0  0  0  0  0  0  0  0  0  0  0
    0.6920   10.5470   -4.0470 C   0  0  0  0  0  0  0  0  0  0  0  0
   -0.6250   10.1450   -3.3550 C   0  0  0  0  0  0  0  0  0  0  0  0
   -0.4510   10.0920   -1.8340 C   0  0  2  0  0  0  0  0  0  0  0  0
    0.6020    8.9770   -1.5120 C   0  0  0  0  0  0  0  0  0  0  0  0
   -2.2620    6.6791   -2.2997 H   0  0  0  0  0  0  0  0  0  0  0  0
   -3.1286    8.1323   -2.9031 H   0  0  0  0  0  0  0  0  0  0  0  0
   -1.3327    8.0930   -2.9031 H   0  0  0  0  0  0  0  0  0  0  0  0
   -1.5440    7.7600   -0.3414 H   0  0  0  0  0  0  0  0  0  0  0  0
   -3.6045    7.5302    0.4796 H   0  0  0  0  0  0  0  0  0  0  0  0
   -3.8077    9.3148    0.1359 H   0  0  0  0  0  0  0  0  0  0  0  0
   -5.1293    8.9721   -1.6759 H   0  0  0  0  0  0  0  0  0  0  0  0
   -4.3610    7.3765   -2.0658 H   0  0  0  0  0  0  0  0  0  0  0  0
   -5.8930    8.0264    0.2269 H   0  0  0  0  0  0  0  0  0  0  0  0
   -8.0942    6.7158   -3.1919 H   0  0  0  0  0  0  0  0  0  0  0  0
   -6.4643    7.4695   -3.2378 H   0  0  0  0  0  0  0  0  0  0  0  0
   -6.6269    5.6806   -3.2378 H   0  0  0  0  0  0  0  0  0  0  0  0
   -8.1413    6.4001    0.4325 H   0  0  0  0  0  0  0  0  0  0  0  0
   -9.0304    7.1445   -0.9394 H   0  0  0  0  0  0  0  0  0  0  0  0
   -8.6931    5.3802   -0.9394 H   0  0  0  0  0  0  0  0  0  0  0  0
   -2.5953   10.2930   -1.4634 H   0  0  0  0  0  0  0  0  0  0  0  0
   -2.1899   10.9081    0.8370 H   0  0  0  0  0  0  0  0  0  0  0  0
   -1.0938    9.5331    1.0922 H   0  0  0  0  0  0  0  0  0  0  0  0
   -0.2911   12.2530    0.7306 H   0  0  0  0  0  0  0  0  0  0  0  0
    0.8005   10.8766    0.6034 H   0  0  0  0  0  0  0  0  0  0  0  0
   -1.5176   13.0255   -0.6627 H   0  0  0  0  0  0  0  0  0  0  0  0
   -0.6724   13.4441   -2.1915 H   0  0  0  0  0  0  0  0  0  0  0  0
   -1.9617   12.1934   -2.1915 H   0  0  0  0  0  0  0  0  0  0  0  0
    1.9868   11.1311   -1.4937 H   0  0  0  0  0  0  0  0  0  0  0  0
    1.5378   13.4034   -0.3654 H   0  0  0  0  0  0  0  0  0  0  0  0
    3.0031   13.1513   -1.4503 H   0  0  0  0  0  0  0  0  0  0  0  0
    1.7199   15.4343   -1.7361 H   0  0  0  0  0  0  0  0  0  0  0  0
   -0.2123   12.9174   -4.2313 H   0  0  0  0  0  0  0  0  0  0  0  0
    2.5018   13.4206   -5.6031 H   0  0  0  0  0  0  0  0  0  0  0  0
    1.1533   12.3584   -6.2065 H   0  0  0  0  0  0  0  0  0  0  0  0
    1.2330   14.5320   -7.3859 H   0  0  0  0  0  0  0  0  0  0  0  0
   -0.2971   14.2887   -6.4557 H   0  0  0  0  0  0  0  0  0  0  0  0
    0.4529   16.5442   -6.1273 H   0  0  0  0  0  0  0  0  0  0  0  0
    2.5740   16.7600   -6.2990 H   0  0  0  0  0  0  0  0  0  0  0  0
   -1.3612   15.6961   -3.0839 H   0  0  0  0  0  0  0  0  0  0  0  0
   -1.3949   16.5940   -4.6393 H   0  0  0  0  0  0  0  0  0  0  0  0
   -1.3798   14.7977   -4.6393 H   0  0  0  0  0  0  0  0  0  0  0  0
    0.9286   16.9071   -2.3710 H   0  0  0  0  0  0  0  0  0  0  0  0
    1.9977   17.2837   -3.7645 H   0  0  0  0  0  0  0  0  0  0  0  0
    0.2912   17.8444   -3.7645 H   0  0  0  0  0  0  0  0  0  0  0  0
    3.5236   11.5576   -2.8888 H   0  0  0  0  0  0  0  0  0  0  0  0
    3.0771   10.7077   -4.4070 H   0  0  0  0  0  0  0  0  0  0  0  0
    3.2967   12.4905   -4.4070 H   0  0  0  0  0  0  0  0  0  0  0  0
    0.4660   10.7391   -5.1063 H   0  0  0  0  0  0  0  0  0  0  0  0
    1.3794    9.7074   -3.8667 H   0  0  0  0  0  0  0  0  0  0  0  0
   -1.4017   10.8834   -3.6029 H   0  0  0  0  0  0  0  0  0  0  0  0
   -0.9168    9.1455   -3.7098 H   0  0  0  0  0  0  0  0  0  0  0  0
    0.7021    8.8710   -0.4217 H   0  0  0  0  0  0  0  0  0  0  0  0
    0.2686    8.0220   -1.9441 H   0  0  0  0  0  0  0  0  0  0  0  0
    1.5745    9.2553   -1.9441 H   0  0  0  0  0  0  0  0  0  0  0  0
  1  2  1  0
  2  3  1  0
  3  4  1  0
  4  5  1  0
  5  6  1  0
  6  7  1  0
  7  8  1  0
  7  9  1  0
  2 10  1  0
 10 11  1  0
 11 12  1  0
 12 13  1  0
 13 14  1  6
 13 15  1  0
 15 16  1  0
 16 17  1  0
 17 18  2  0
 18 19  1  0
 19 20  1  0
 20 21  1  0
 21 22  1  0
 22 23  1  0
 22 24  1  0
 24 25  1  0
 24 26  1  0
 19 27  1  0
 27 28  1  1
 27 29  1  0
 29 30  1  0
 30 31  1  0
 31 32  1  6
  7  5  1  0
 31 10  1  0
 31 13  1  0
 27 15  1  0
 24 18  1  0
  1 33  1  0
  1 34  1  0
  1 35  1  0
  2 36  1  1
  3 37  1  0
  3 38  1  0
  4 39  1  0
  4 40  1  0
  5 41  1  1
  8 42  1  0
  8 43  1  0
  8 44  1  0
  9 45  1  0
  9 46  1  0
  9 47  1  0
 10 48  1  6
 11 49  1  0
 11 50  1  0
 12 51  1  0
 12 52  1  0
 14 53  1  0
 14 54  1  0
 14 55  1  0
 15 56  1  1
 16 57  1  0
 16 58  1  0
 17 59  1  0
 19 60  1  6
 20 61  1  0
 20 62  1  0
 21 63  1  0
 21 64  1  0
 22 65  1  6
 23 66  1  0
 25 67  1  0
 25 68  1  0
 25 69  1  0
 26 70  1  0
 26 71  1  0
 26 72  1  0
 28 73  1  0
 28 74  1  0
 28 75  1  0
 29 76  1  0
 29 77  1  0
 30 78  1  0
 30 79  1  0
 32 80  1  0
 32 81  1  0
 32 82  1  0
M  END
>  <meeko>  (14) 
{"is_sidechain": [false], "intermolecular_energy": 2.731, "internal_energy": -0.839}

$$$$
EPH_relaxed_0001_pdb2pqr_Repair_92_r2_0001_out
     RDKit          3D

 82 86  0  0  0  0  0  0  0  0999 V2000
  -14.6480    5.5590    0.3660 C   0  0  0  0  0  0  0  0  0  0  0  0
  -14.0370    6.9590    0.2680 C   0  0  2  0  0  0  0  0  0  0  0  0
  -15.0940    8.0330   -0.0570 C   0  0  0  0  0  0  0  0  0  0  0  0
  -14.5720    9.4680    0.0640 C   0  0  0  0  0  0  0  0  0  0  0  0
  -15.2830   10.3970   -0.8730 C   0  0  2  0  0  0  0  0  0  0  0  0
  -15.1520   10.0620   -2.2610 O   0  0  0  0  0  0  0  0  0  0  0  0
  -14.5650   11.3080   -1.8510 C   0  0  0  0  0  0  0  0  0  0  0  0
  -13.0720   11.3360   -1.9400 C   0  0  0  0  0  0  0  0  0  0  0  0
  -15.2870   12.5140   -2.3670 C   0  0  0  0  0  0  0  0  0  0  0  0
  -12.9380    6.9740   -0.7880 C   0  0  1  0  0  0  0  0  0  0  0  0
  -13.2470    7.9450   -1.9580 C   0  0  0  0  0  0  0  0  0  0  0  0
  -11.8920    8.5450   -2.4120 C   0  0  0  0  0  0  0  0  0  0  0  0
  -10.8240    7.6630   -1.7230 C   0  0  1  0  0  0  0  0  0  0  0  0
  -10.7090    6.3950   -2.6260 C   0  0  0  0  0  0  0  0  0  0  0  0
   -9.4300    8.3280   -1.4800 C   0  0  2  0  0  0  0  0  0  0  0  0
   -8.6770    8.7480   -2.7550 C   0  0  0  0  0  0  0  0  0  0  0  0
   -7.7690    7.7120   -3.3300 C   0  0  0  0  0  0  0  0  0  0  0  0
   -7.3470    6.6030   -2.6960 C   0  0  0  0  0  0  0  0  0  0  0  0
   -7.7080    6.3500   -1.2260 C   0  0  1  0  0  0  0  0  0  0  0  0
   -6.4410    5.9040   -0.4510 C   0  0  0  0  0  0  0  0  0  0  0  0
   -5.7520    4.7060   -1.0960 C   0  0  0  0  0  0  0  0  0  0  0  0
   -5.3560    5.0160   -2.5380 C   0  0  2  0  0  0  0  0  0  0  0  0
   -4.3390    6.0240   -2.5300 O   0  0  0  0  0  0  0  0  0  0  0  0
   -6.5500    5.4860   -3.4140 C   0  0  0  0  0  0  0  0  0  0  0  0
   -7.5070    4.2950   -3.6710 C   0  0  0  0  0  0  0  0  0  0  0  0
   -5.9910    5.9010   -4.8010 C   0  0  0  0  0  0  0  0  0  0  0  0
   -8.4910    7.5230   -0.4930 C   0  0  1  0  0  0  0  0  0  0  0  0
   -7.4780    8.5520    0.0960 C   0  0  0  0  0  0  0  0  0  0  0  0
   -9.2810    6.9270    0.7310 C   0  0  0  0  0  0  0  0  0  0  0  0
  -10.7000    6.3950    0.4500 C   0  0  0  0  0  0  0  0  0  0  0  0
  -11.5240    7.4190   -0.3360 C   0  0  2  0  0  0  0  0  0  0  0  0
  -11.6760    8.6980    0.5560 C   0  0  0  0  0  0  0  0  0  0  0  0
  -14.7678    5.2845    1.4244 H   0  0  0  0  0  0  0  0  0  0  0  0
  -15.6308    5.5525   -0.1280 H   0  0  0  0  0  0  0  0  0  0  0  0
  -13.9845    4.8340   -0.1280 H   0  0  0  0  0  0  0  0  0  0  0  0
  -13.6105    7.2029    1.2522 H   0  0  0  0  0  0  0  0  0  0  0  0
  -15.4425    7.8762   -1.0885 H   0  0  0  0  0  0  0  0  0  0  0  0
  -15.9022    7.9219    0.6809 H   0  0  0  0  0  0  0  0  0  0  0  0
  -14.7244    9.8170    1.0960 H   0  0  0  0  0  0  0  0  0  0  0  0
  -13.5037    9.4677   -0.1982 H   0  0  0  0  0  0  0  0  0  0  0  0
  -16.0682   10.5882   -0.1267 H   0  0  0  0  0  0  0  0  0  0  0  0
  -12.6444   11.3440   -0.9266 H   0  0  0  0  0  0  0  0  0  0  0  0
  -12.7200   10.4443   -2.4794 H   0  0  0  0  0  0  0  0  0  0  0  0
  -12.7537   12.2403   -2.4794 H   0  0  0  0  0  0  0  0  0  0  0  0
  -15.6474   13.1160   -1.5198 H   0  0  0  0  0  0  0  0  0  0  0  0
  -14.6014   13.1173   -2.9801 H   0  0  0  0  0  0  0  0  0  0  0  0
  -16.1426   12.1947   -2.9801 H   0  0  0  0  0  0  0  0  0  0  0  0
  -12.9288    5.9082   -1.0599 H   0  0  0  0  0  0  0  0  0  0  0  0
  -13.7168    7.3989   -2.7893 H   0  0  0  0  0  0  0  0  0  0  0  0
  -13.9425    8.7361   -1.6411 H   0  0  0  0  0  0  0  0  0  0  0  0
  -11.7915    8.4931   -3.5062 H   0  0  0  0  0  0  0  0  0  0  0  0
  -11.7942    9.6066   -2.1410 H   0  0  0  0  0  0  0  0  0  0  0  0
  -10.6278    5.4996   -1.9922 H   0  0  0  0  0  0  0  0  0  0  0  0
  -11.6036    6.3148   -3.2611 H   0  0  0  0  0  0  0  0  0  0  0  0
   -9.8146    6.4770   -3.2611 H   0  0  0  0  0  0  0  0  0  0  0  0
   -9.7006    9.2644   -0.9701 H   0  0  0  0  0  0  0  0  0  0  0  0
   -9.4231    9.0084   -3.5201 H   0  0  0  0  0  0  0  0  0  0  0  0
   -8.0320    9.5901   -2.4639 H   0  0  0  0  0  0  0  0  0  0  0  0
   -7.4149    7.8687   -4.3596 H   0  0  0  0  0  0  0  0  0  0  0  0
   -8.4482    5.5363   -1.2301 H   0  0  0  0  0  0  0  0  0  0  0  0
   -5.7320    6.7445   -0.4210 H   0  0  0  0  0  0  0  0  0  0  0  0
   -6.7561    5.6037    0.5592 H   0  0  0  0  0  0  0  0  0  0  0  0
   -4.8485    4.4571   -0.5200 H   0  0  0  0  0  0  0  0  0  0  0  0
   -6.4520    3.8575   -1.0986 H   0  0  0  0  0  0  0  0  0  0  0  0
   -4.9868    4.0820   -2.9867 H   0  0  0  0  0  0  0  0  0  0  0  0
   -4.1850    6.2790   -1.6040 H   0  0  0  0  0  0  0  0  0  0  0  0
   -7.8412    3.8790   -2.7091 H   0  0  0  0  0  0  0  0  0  0  0  0
   -8.3797    4.6428   -4.2432 H   0  0  0  0  0  0  0  0  0  0  0  0
   -6.9795    3.5176   -4.2432 H   0  0  0  0  0  0  0  0  0  0  0  0
   -5.1147    6.5515   -4.6634 H   0  0  0  0  0  0  0  0  0  0  0  0
   -5.6957    5.0017   -5.3613 H   0  0  0  0  0  0  0  0  0  0  0  0
   -6.7664    6.4439   -5.3613 H   0  0  0  0  0  0  0  0  0  0  0  0
   -7.5146    8.5148    1.1948 H   0  0  0  0  0  0  0  0  0  0  0  0
   -6.4624    8.3034   -0.2456 H   0  0  0  0  0  0  0  0  0  0  0  0
   -7.7425    9.5636   -0.2456 H   0  0  0  0  0  0  0  0  0  0  0  0
   -8.6876    6.0942    1.1363 H   0  0  0  0  0  0  0  0  0  0  0  0
   -9.4219    7.7717    1.4214 H   0  0  0  0  0  0  0  0  0  0  0  0
  -10.6268    5.4665   -0.1353 H   0  0  0  0  0  0  0  0  0  0  0  0
  -11.2003    6.2059    1.4112 H   0  0  0  0  0  0  0  0  0  0  0  0
  -11.6419    8.4110    1.6173 H   0  0  0  0  0  0  0  0  0  0  0  0
  -10.8545    9.3965    0.3385 H   0  0  0  0  0  0  0  0  0  0  0  0
  -12.6383    9.1845    0.3385 H   0  0  0  0  0  0  0  0  0  0  0  0
  1  2  1  0
  2  3  1  0
  3  4  1  0
  4  5  1  0
  5  6  1  0
  6  7  1  0
  7  8  1  0
  7  9  1  0
  2 10  1  0
 10 11  1  0
 11 12  1  0
 12 13  1  0
 13 14  1  6
 13 15  1  0
 15 16  1  0
 16 17  1  0
 17 18  2  0
 18 19  1  0
 19 20  1  0
 20 21  1  0
 21 22  1  0
 22 23  1  0
 22 24  1  0
 24 25  1  0
 24 26  1  0
 19 27  1  0
 27 28  1  1
 27 29  1  0
 29 30  1  0
 30 31  1  0
 31 32  1  1
  7  5  1  0
 31 10  1  0
 31 13  1  0
 27 15  1  0
 24 18  1  0
  1 33  1  0
  1 34  1  0
  1 35  1  0
  2 36  1  1
  3 37  1  0
  3 38  1  0
  4 39  1  0
  4 40  1  0
  5 41  1  1
  8 42  1  0
  8 43  1  0
  8 44  1  0
  9 45  1  0
  9 46  1  0
  9 47  1  0
 10 48  1  6
 11 49  1  0
 11 50  1  0
 12 51  1  0
 12 52  1  0
 14 53  1  0
 14 54  1  0
 14 55  1  0
 15 56  1  1
 16 57  1  0
 16 58  1  0
 17 59  1  0
 19 60  1  6
 20 61  1  0
 20 62  1  0
 21 63  1  0
 21 64  1  0
 22 65  1  6
 23 66  1  0
 25 67  1  0
 25 68  1  0
 25 69  1  0
 26 70  1  0
 26 71  1  0
 26 72  1  0
 28 73  1  0
 28 74  1  0
 28 75  1  0
 29 76  1  0
 29 77  1  0
 30 78  1  0
 30 79  1  0
 32 80  1  0
 32 81  1  0
 32 82  1  0
M  END
>  <meeko>  (15) 
{"is_sidechain": [false], "intermolecular_energy": 2.731, "internal_energy": -0.839}

$$$$
EPH_relaxed_0001_pdb2pqr_Repair_92_r2_0001_out
     RDKit          3D

 82 86  0  0  0  0  0  0  0  0999 V2000
    0.1910    9.8500   -4.6230 C   0  0  0  0  0  0  0  0  0  0  0  0
    1.2720   10.5660   -3.8080 C   0  0  2  0  0  0  0  0  0  0  0  0
    1.7170    9.7430   -2.5830 C   0  0  0  0  0  0  0  0  0  0  0  0
    0.7050    8.6770   -2.1570 C   0  0  0  0  0  0  0  0  0  0  0  0
   -0.1820    9.1650   -1.0510 C   0  0  2  0  0  0  0  0  0  0  0  0
   -0.7460    8.1300   -0.2350 O   0  0  0  0  0  0  0  0  0  0  0  0
   -1.6770    8.9100   -1.0030 C   0  0  0  0  0  0  0  0  0  0  0  0
   -2.3720    8.1400   -2.0810 C   0  0  0  0  0  0  0  0  0  0  0  0
   -2.5310    9.8170   -0.1730 C   0  0  0  0  0  0  0  0  0  0  0  0
    0.7650   11.9330   -3.3620 C   0  0  1  0  0  0  0  0  0  0  0  0
   -0.7470   11.9240   -3.0130 C   0  0  0  0  0  0  0  0  0  0  0  0
   -0.9400   12.9160   -1.8370 C   0  0  0  0  0  0  0  0  0  0  0  0
    0.3890   13.7030   -1.7670 C   0  0  1  0  0  0  0  0  0  0  0  0
    0.2670   14.7960   -2.8750 C   0  0  0  0  0  0  0  0  0  0  0  0
    0.7530   14.3240   -0.3800 C   0  0  2  0  0  0  0  0  0  0  0  0
   -0.2360   15.3830    0.1390 C   0  0  0  0  0  0  0  0  0  0  0  0
    0.0710   16.7900   -0.2560 C   0  0  0  0  0  0  0  0  0  0  0  0
    1.2430   17.2250   -0.7540 C   0  0  0  0  0  0  0  0  0  0  0  0
    2.4470   16.2810   -0.8730 C   0  0  1  0  0  0  0  0  0  0  0  0
    3.7150   16.9870   -0.3270 C   0  0  0  0  0  0  0  0  0  0  0  0
    3.9650   18.3380   -0.9910 C   0  0  0  0  0  0  0  0  0  0  0  0
    2.7700   19.2680   -0.8010 C   0  0  2  0  0  0  0  0  0  0  0  0
    2.6560   19.5940    0.5870 O   0  0  0  0  0  0  0  0  0  0  0  0
    1.4320   18.6590   -1.3070 C   0  0  0  0  0  0  0  0  0  0  0  0
    1.4450   18.5860   -2.8540 C   0  0  0  0  0  0  0  0  0  0  0  0
    0.2880   19.6380   -0.9280 C   0  0  0  0  0  0  0  0  0  0  0  0
    2.2490   14.8250   -0.2650 C   0  0  1  0  0  0  0  0  0  0  0  0
    2.6020   14.8310    1.2530 C   0  0  0  0  0  0  0  0  0  0  0  0
    3.2650   13.8390   -0.9540 C   0  0  0  0  0  0  0  0  0  0  0  0
    2.8010   13.1640   -2.2590 C   0  0  0  0  0  0  0  0  0  0  0  0
    1.4080   12.5500   -2.0940 C   0  0  2  0  0  0  0  0  0  0  0  0
    1.5040   11.4310   -1.0020 C   0  0  0  0  0  0  0  0  0  0  0  0
   -0.5279    9.3738   -3.9401 H   0  0  0  0  0  0  0  0  0  0  0  0
   -0.3337   10.5797   -5.2572 H   0  0  0  0  0  0  0  0  0  0  0  0
    0.6582    9.0822   -5.2572 H   0  0  0  0  0  0  0  0  0  0  0  0
    2.1505   10.6889   -4.4585 H   0  0  0  0  0  0  0  0  0  0  0  0
    2.6660    9.2431   -2.8267 H   0  0  0  0  0  0  0  0  0  0  0  0
    1.8163   10.4458   -1.7426 H   0  0  0  0  0  0  0  0  0  0  0  0
    0.0813    8.4112   -3.0232 H   0  0  0  0  0  0  0  0  0  0  0  0
    1.2621    7.8027   -1.7893 H   0  0  0  0  0  0  0  0  0  0  0  0
    0.4133   10.0842   -0.9475 H   0  0  0  0  0  0  0  0  0  0  0  0
   -3.0431    7.3965   -1.6261 H   0  0  0  0  0  0  0  0  0  0  0  0
   -2.9587    8.8304   -2.7048 H   0  0  0  0  0  0  0  0  0  0  0  0
   -1.6253    7.6269   -2.7048 H   0  0  0  0  0  0  0  0  0  0  0  0
   -2.3460    9.6205    0.8934 H   0  0  0  0  0  0  0  0  0  0  0  0
   -2.2834   10.8642   -0.4012 H   0  0  0  0  0  0  0  0  0  0  0  0
   -3.5912    9.6328   -0.4012 H   0  0  0  0  0  0  0  0  0  0  0  0
    1.0328   12.5280   -4.2476 H   0  0  0  0  0  0  0  0  0  0  0  0
   -1.3384   12.2473   -3.8823 H   0  0  0  0  0  0  0  0  0  0  0  0
   -1.0828   10.9136   -2.7368 H   0  0  0  0  0  0  0  0  0  0  0  0
   -1.7828   13.5944   -2.0358 H   0  0  0  0  0  0  0  0  0  0  0  0
   -1.1703   12.4023   -0.8920 H   0  0  0  0  0  0  0  0  0  0  0  0
    0.1567   15.7842   -2.4046 H   0  0  0  0  0  0  0  0  0  0  0  0
    1.1718   14.7866   -3.5005 H   0  0  0  0  0  0  0  0  0  0  0  0
   -0.6134   14.5873   -3.5005 H   0  0  0  0  0  0  0  0  0  0  0  0
    0.6534   13.4629    0.2972 H   0  0  0  0  0  0  0  0  0  0  0  0
   -1.2355   15.1323   -0.2459 H   0  0  0  0  0  0  0  0  0  0  0  0
   -0.1662   15.3528    1.2364 H   0  0  0  0  0  0  0  0  0  0  0  0
   -0.7290   17.5342   -0.1291 H   0  0  0  0  0  0  0  0  0  0  0  0
    2.5678   16.0762   -1.9470 H   0  0  0  0  0  0  0  0  0  0  0  0
    3.5932   17.1432    0.7550 H   0  0  0  0  0  0  0  0  0  0  0  0
    4.5778   16.3416   -0.5486 H   0  0  0  0  0  0  0  0  0  0  0  0
    4.8562   18.8005   -0.5419 H   0  0  0  0  0  0  0  0  0  0  0  0
    4.1171   18.1771   -2.0685 H   0  0  0  0  0  0  0  0  0  0  0  0
    2.9530   20.1678   -1.4067 H   0  0  0  0  0  0  0  0  0  0  0  0
    2.2550   18.8310    1.0370 H   0  0  0  0  0  0  0  0  0  0  0  0
    1.6297   17.5489   -3.1706 H   0  0  0  0  0  0  0  0  0  0  0  0
    0.4730   18.9212   -3.2451 H   0  0  0  0  0  0  0  0  0  0  0  0
    2.2415   19.2361   -3.2451 H   0  0  0  0  0  0  0  0  0  0  0  0
    0.2102   19.7046    0.1672 H   0  0  0  0  0  0  0  0  0  0  0  0
    0.5056   20.6339   -1.3414 H   0  0  0  0  0  0  0  0  0  0  0  0
   -0.6623   19.2691   -1.3414 H   0  0  0  0  0  0  0  0  0  0  0  0
    1.6751   14.8152    1.8451 H   0  0  0  0  0  0  0  0  0  0  0  0
    3.2053   13.9430    1.4927 H   0  0  0  0  0  0  0  0  0  0  0  0
    3.1748   15.7390    1.4927 H   0  0  0  0  0  0  0  0  0  0  0  0
    4.1792   14.4075   -1.1801 H   0  0  0  0  0  0  0  0  0  0  0  0
    3.3996   13.0163   -0.2363 H   0  0  0  0  0  0  0  0  0  0  0  0
    2.7700   13.9157   -3.0615 H   0  0  0  0  0  0  0  0  0  0  0  0
    3.5102   12.3615   -2.5098 H   0  0  0  0  0  0  0  0  0  0  0  0
    1.4647   11.8894   -0.0028 H   0  0  0  0  0  0  0  0  0  0  0  0
    0.6625   10.7321   -1.1182 H   0  0  0  0  0  0  0  0  0  0  0  0
    2.4522   10.8857   -1.1182 H   0  0  0  0  0  0  0  0  0  0  0  0
  1  2  1  0
  2  3  1  0
  3  4  1  0
  4  5  1  0
  5  6  1  0
  6  7  1  0
  7  8  1  0
  7  9  1  0
  2 10  1  0
 10 11  1  0
 11 12  1  0
 12 13  1  0
 13 14  1  6
 13 15  1  0
 15 16  1  0
 16 17  1  0
 17 18  2  0
 18 19  1  0
 19 20  1  0
 20 21  1  0
 21 22  1  0
 22 23  1  0
 22 24  1  0
 24 25  1  0
 24 26  1  0
 19 27  1  0
 27 28  1  1
 27 29  1  0
 29 30  1  0
 30 31  1  0
 31 32  1  1
  7  5  1  0
 31 10  1  0
 31 13  1  0
 27 15  1  0
 24 18  1  0
  1 33  1  0
  1 34  1  0
  1 35  1  0
  2 36  1  6
  3 37  1  0
  3 38  1  0
  4 39  1  0
  4 40  1  0
  5 41  1  1
  8 42  1  0
  8 43  1  0
  8 44  1  0
  9 45  1  0
  9 46  1  0
  9 47  1  0
 10 48  1  6
 11 49  1  0
 11 50  1  0
 12 51  1  0
 12 52  1  0
 14 53  1  0
 14 54  1  0
 14 55  1  0
 15 56  1  1
 16 57  1  0
 16 58  1  0
 17 59  1  0
 19 60  1  6
 20 61  1  0
 20 62  1  0
 21 63  1  0
 21 64  1  0
 22 65  1  6
 23 66  1  0
 25 67  1  0
 25 68  1  0
 25 69  1  0
 26 70  1  0
 26 71  1  0
 26 72  1  0
 28 73  1  0
 28 74  1  0
 28 75  1  0
 29 76  1  0
 29 77  1  0
 30 78  1  0
 30 79  1  0
 32 80  1  0
 32 81  1  0
 32 82  1  0
M  END
>  <meeko>  (16) 
{"is_sidechain": [false], "intermolecular_energy": 2.731, "internal_energy": -0.839}

$$$$
EPH_relaxed_0001_pdb2pqr_Repair_92_r2_0001_out
     RDKit          3D

 82 86  0  0  0  0  0  0  0  0999 V2000
    0.9810   14.8650   -2.6830 C   0  0  0  0  0  0  0  0  0  0  0  0
    1.2260   14.1770   -4.0290 C   0  0  2  0  0  0  0  0  0  0  0  0
    0.5120   14.9000   -5.1890 C   0  0  0  0  0  0  0  0  0  0  0  0
    1.0980   14.5810   -6.5670 C   0  0  0  0  0  0  0  0  0  0  0  0
    0.8780   15.7030   -7.5360 C   0  0  2  0  0  0  0  0  0  0  0  0
    0.4340   15.2930   -8.8360 O   0  0  0  0  0  0  0  0  0  0  0  0
    1.7270   15.9170   -8.7750 C   0  0  0  0  0  0  0  0  0  0  0  0
    2.8620   15.0010   -9.1110 C   0  0  0  0  0  0  0  0  0  0  0  0
    1.7670   17.2820   -9.3880 C   0  0  0  0  0  0  0  0  0  0  0  0
    0.7690   12.7250   -3.9610 C   0  0  1  0  0  0  0  0  0  0  0  0
    1.9010   11.7250   -4.3200 C   0  0  0  0  0  0  0  0  0  0  0  0
    1.6890   10.4720   -3.4320 C   0  0  0  0  0  0  0  0  0  0  0  0
    0.2710   10.6480   -2.8410 C   0  0  1  0  0  0  0  0  0  0  0  0
   -0.6960   10.1680   -3.9690 C   0  0  0  0  0  0  0  0  0  0  0  0
   -0.0100    9.9150   -1.4890 C   0  0  2  0  0  0  0  0  0  0  0  0
    0.0900    8.3800   -1.5460 C   0  0  0  0  0  0  0  0  0  0  0  0
   -1.1820    7.6700   -1.8720 C   0  0  0  0  0  0  0  0  0  0  0  0
   -2.4130    8.2120   -1.8310 C   0  0  0  0  0  0  0  0  0  0  0  0
   -2.6260    9.6460   -1.3300 C   0  0  1  0  0  0  0  0  0  0  0  0
   -3.8150    9.6760   -0.3340 C   0  0  0  0  0  0  0  0  0  0  0  0
   -5.0850    9.0690   -0.9220 C   0  0  0  0  0  0  0  0  0  0  0  0
   -4.8500    7.6240   -1.3540 C   0  0  2  0  0  0  0  0  0  0  0  0
   -4.6050    6.8290   -0.1900 O   0  0  0  0  0  0  0  0  0  0  0  0
   -3.6680    7.4680   -2.3510 C   0  0  0  0  0  0  0  0  0  0  0  0
   -4.0590    8.0760   -3.7210 C   0  0  0  0  0  0  0  0  0  0  0  0
   -3.4470    5.9510   -2.5970 C   0  0  0  0  0  0  0  0  0  0  0  0
   -1.3360   10.3810   -0.7620 C   0  0  1  0  0  0  0  0  0  0  0  0
   -1.1550   10.0470    0.7500 C   0  0  0  0  0  0  0  0  0  0  0  0
   -1.5500   11.9380   -0.8500 C   0  0  0  0  0  0  0  0  0  0  0  0
   -1.1420   12.6220   -2.1690 C   0  0  0  0  0  0  0  0  0  0  0  0
    0.2680   12.2000   -2.5920 C   0  0  2  0  0  0  0  0  0  0  0  0
    1.2650   12.6890   -1.4880 C   0  0  0  0  0  0  0  0  0  0  0  0
    1.2281   14.1710   -1.8661 H   0  0  0  0  0  0  0  0  0  0  0  0
    1.6155   15.7604   -2.6080 H   0  0  0  0  0  0  0  0  0  0  0  0
   -0.0767   15.1578   -2.6080 H   0  0  0  0  0  0  0  0  0  0  0  0
    2.3068   14.2178   -4.2297 H   0  0  0  0  0  0  0  0  0  0  0  0
   -0.5469   14.6021   -5.1845 H   0  0  0  0  0  0  0  0  0  0  0  0
    0.6451   15.9796   -5.0253 H   0  0  0  0  0  0  0  0  0  0  0  0
    2.1791   14.4066   -6.4630 H   0  0  0  0  0  0  0  0  0  0  0  0
    0.5902   13.6865   -6.9569 H   0  0  0  0  0  0  0  0  0  0  0  0
    0.5780   16.3788   -6.7215 H   0  0  0  0  0  0  0  0  0  0  0  0
    3.3212   14.6304   -8.1827 H   0  0  0  0  0  0  0  0  0  0  0  0
    2.4854   14.1508   -9.6986 H   0  0  0  0  0  0  0  0  0  0  0  0
    3.6135   15.5486   -9.6986 H   0  0  0  0  0  0  0  0  0  0  0  0
    1.7892   18.0409   -8.5920 H   0  0  0  0  0  0  0  0  0  0  0  0
    2.6683   17.3778  -10.0112 H   0  0  0  0  0  0  0  0  0  0  0  0
    0.8728   17.4304  -10.0112 H   0  0  0  0  0  0  0  0  0  0  0  0
   -0.0641   12.7604   -4.6784 H   0  0  0  0  0  0  0  0  0  0  0  0
    1.8406   11.4503   -5.3834 H   0  0  0  0  0  0  0  0  0  0  0  0
    2.8915   12.1702   -4.1449 H   0  0  0  0  0  0  0  0  0  0  0  0
    1.7470    9.5541   -4.0354 H   0  0  0  0  0  0  0  0  0  0  0  0
    2.4579   10.3794   -2.6508 H   0  0  0  0  0  0  0  0  0  0  0  0
   -1.5942    9.7222   -3.5168 H   0  0  0  0  0  0  0  0  0  0  0  0
   -0.9869   11.0263   -4.5924 H   0  0  0  0  0  0  0  0  0  0  0  0
   -0.1882    9.4174   -4.5924 H   0  0  0  0  0  0  0  0  0  0  0  0
    0.8308   10.2464   -0.8620 H   0  0  0  0  0  0  0  0  0  0  0  0
    0.8329    8.1160   -2.3131 H   0  0  0  0  0  0  0  0  0  0  0  0
    0.3688    8.0553   -0.5327 H   0  0  0  0  0  0  0  0  0  0  0  0
   -1.1067    6.6141   -2.1711 H   0  0  0  0  0  0  0  0  0  0  0  0
   -2.8693   10.2454   -2.2197 H   0  0  0  0  0  0  0  0  0  0  0  0
   -3.5361    9.1076    0.5655 H   0  0  0  0  0  0  0  0  0  0  0  0
   -4.0264   10.7293   -0.0975 H   0  0  0  0  0  0  0  0  0  0  0  0
   -5.8804    9.0928   -0.1625 H   0  0  0  0  0  0  0  0  0  0  0  0
   -5.3783    9.6560   -1.8049 H   0  0  0  0  0  0  0  0  0  0  0  0
   -5.7536    7.2864   -1.8827 H   0  0  0  0  0  0  0  0  0  0  0  0
   -4.1320    7.3840    0.4520 H   0  0  0  0  0  0  0  0  0  0  0  0
   -4.6477    8.9914   -3.5613 H   0  0  0  0  0  0  0  0  0  0  0  0
   -3.1481    8.3200   -4.2873 H   0  0  0  0  0  0  0  0  0  0  0  0
   -4.6589    7.3484   -4.2873 H   0  0  0  0  0  0  0  0  0  0  0  0
   -3.3711    5.4301   -1.6311 H   0  0  0  0  0  0  0  0  0  0  0  0
   -4.2954    5.5446   -3.1671 H   0  0  0  0  0  0  0  0  0  0  0  0
   -2.5179    5.8035   -3.1671 H   0  0  0  0  0  0  0  0  0  0  0  0
   -1.5917   10.8528    1.3583 H   0  0  0  0  0  0  0  0  0  0  0  0
   -1.6625    9.0984    0.9793 H   0  0  0  0  0  0  0  0  0  0  0  0
   -0.0832    9.9542    0.9793 H   0  0  0  0  0  0  0  0  0  0  0  0
   -2.6200   12.1364   -0.6894 H   0  0  0  0  0  0  0  0  0  0  0  0
   -0.8824   12.3638   -0.0865 H   0  0  0  0  0  0  0  0  0  0  0  0
   -1.8545   12.3374   -2.9573 H   0  0  0  0  0  0  0  0  0  0  0  0
   -1.1512   13.7114   -2.0166 H   0  0  0  0  0  0  0  0  0  0  0  0
    0.8420   12.4815   -0.4940 H   0  0  0  0  0  0  0  0  0  0  0  0
    2.2222   12.1581   -1.5972 H   0  0  0  0  0  0  0  0  0  0  0  0
    1.4312   13.7709   -1.5972 H   0  0  0  0  0  0  0  0  0  0  0  0
  1  2  1  0
  2  3  1  0
  3  4  1  0
  4  5  1  0
  5  6  1  0
  6  7  1  0
  7  8  1  0
  7  9  1  0
  2 10  1  0
 10 11  1  0
 11 12  1  0
 12 13  1  0
 13 14  1  6
 13 15  1  0
 15 16  1  0
 16 17  1  0
 17 18  2  0
 18 19  1  0
 19 20  1  0
 20 21  1  0
 21 22  1  0
 22 23  1  0
 22 24  1  0
 24 25  1  0
 24 26  1  0
 19 27  1  0
 27 28  1  1
 27 29  1  0
 29 30  1  0
 30 31  1  0
 31 32  1  1
  7  5  1  0
 31 10  1  0
 31 13  1  0
 27 15  1  0
 24 18  1  0
  1 33  1  0
  1 34  1  0
  1 35  1  0
  2 36  1  6
  3 37  1  0
  3 38  1  0
  4 39  1  0
  4 40  1  0
  5 41  1  1
  8 42  1  0
  8 43  1  0
  8 44  1  0
  9 45  1  0
  9 46  1  0
  9 47  1  0
 10 48  1  6
 11 49  1  0
 11 50  1  0
 12 51  1  0
 12 52  1  0
 14 53  1  0
 14 54  1  0
 14 55  1  0
 15 56  1  1
 16 57  1  0
 16 58  1  0
 17 59  1  0
 19 60  1  6
 20 61  1  0
 20 62  1  0
 21 63  1  0
 21 64  1  0
 22 65  1  6
 23 66  1  0
 25 67  1  0
 25 68  1  0
 25 69  1  0
 26 70  1  0
 26 71  1  0
 26 72  1  0
 28 73  1  0
 28 74  1  0
 28 75  1  0
 29 76  1  0
 29 77  1  0
 30 78  1  0
 30 79  1  0
 32 80  1  0
 32 81  1  0
 32 82  1  0
M  END
>  <meeko>  (17) 
{"is_sidechain": [false], "intermolecular_energy": 2.731, "internal_energy": -0.839}

$$$$
EPH_relaxed_0001_pdb2pqr_Repair_92_r2_0001_out
     RDKit          3D

 82 86  0  0  0  0  0  0  0  0999 V2000
  -14.6890    9.2460    1.0360 C   0  0  0  0  0  0  0  0  0  0  0  0
  -13.8530    9.1980   -0.2460 C   0  0  2  0  0  0  0  0  0  0  0  0
  -14.3450    8.1090   -1.2200 C   0  0  0  0  0  0  0  0  0  0  0  0
  -14.5000    8.5970   -2.6620 C   0  0  0  0  0  0  0  0  0  0  0  0
  -15.2230    9.9090   -2.7290 C   0  0  2  0  0  0  0  0  0  0  0  0
  -15.0130   10.6470   -3.9390 O   0  0  0  0  0  0  0  0  0  0  0  0
  -14.5190   11.2530   -2.7340 C   0  0  0  0  0  0  0  0  0  0  0  0
  -13.0270   11.3520   -2.6700 C   0  0  0  0  0  0  0  0  0  0  0  0
  -15.2870   12.4650   -2.3090 C   0  0  0  0  0  0  0  0  0  0  0  0
  -12.3870    8.9650    0.0980 C   0  0  1  0  0  0  0  0  0  0  0  0
  -12.1530    8.7770    1.6210 C   0  0  0  0  0  0  0  0  0  0  0  0
  -11.0030    7.7480    1.7730 C   0  0  0  0  0  0  0  0  0  0  0  0
  -10.3940    7.6310    0.3560 C   0  0  1  0  0  0  0  0  0  0  0  0
   -9.4440    8.8620    0.2240 C   0  0  0  0  0  0  0  0  0  0  0  0
   -9.6540    6.2930    0.0300 C   0  0  2  0  0  0  0  0  0  0  0  0
   -8.4170    6.0030    0.8990 C   0  0  0  0  0  0  0  0  0  0  0  0
   -7.1250    6.5230    0.3620 C   0  0  0  0  0  0  0  0  0  0  0  0
   -6.9140    6.9430   -0.8990 C   0  0  0  0  0  0  0  0  0  0  0  0
   -8.0140    6.8280   -1.9620 C   0  0  1  0  0  0  0  0  0  0  0  0
   -7.4160    6.2380   -3.2650 C   0  0  0  0  0  0  0  0  0  0  0  0
   -6.2050    7.0230   -3.7610 C   0  0  0  0  0  0  0  0  0  0  0  0
   -5.1100    7.0650   -2.6990 C   0  0  2  0  0  0  0  0  0  0  0  0
   -4.5980    5.7420   -2.5120 O   0  0  0  0  0  0  0  0  0  0  0  0
   -5.5990    7.6340   -1.3370 C   0  0  0  0  0  0  0  0  0  0  0  0
   -5.8690    9.1520   -1.4740 C   0  0  0  0  0  0  0  0  0  0  0  0
   -4.4390    7.4900   -0.3160 C   0  0  0  0  0  0  0  0  0  0  0  0
   -9.3420    6.0820   -1.5070 C   0  0  1  0  0  0  0  0  0  0  0  0
   -9.1900    4.5460   -1.7240 C   0  0  0  0  0  0  0  0  0  0  0  0
  -10.5330    6.5450   -2.4280 C   0  0  0  0  0  0  0  0  0  0  0  0
  -11.3020    7.8060   -1.9890 C   0  0  0  0  0  0  0  0  0  0  0  0
  -11.7020    7.7170   -0.5130 C   0  0  2  0  0  0  0  0  0  0  0  0
  -12.6760    6.5000   -0.3540 C   0  0  0  0  0  0  0  0  0  0  0  0
  -14.0223    9.2077    1.9101 H   0  0  0  0  0  0  0  0  0  0  0  0
  -15.2711   10.1790    1.0594 H   0  0  0  0  0  0  0  0  0  0  0  0
  -15.3741    8.3857    1.0594 H   0  0  0  0  0  0  0  0  0  0  0  0
  -13.9667   10.1684   -0.7514 H   0  0  0  0  0  0  0  0  0  0  0  0
  -13.6208    7.2811   -1.2096 H   0  0  0  0  0  0  0  0  0  0  0  0
  -15.3430    7.7985   -0.8770 H   0  0  0  0  0  0  0  0  0  0  0  0
  -13.5012    8.7173   -3.1069 H   0  0  0  0  0  0  0  0  0  0  0  0
  -15.0906    7.8515   -3.2146 H   0  0  0  0  0  0  0  0  0  0  0  0
  -16.0494    9.5112   -2.1216 H   0  0  0  0  0  0  0  0  0  0  0  0
  -12.7057   11.3733   -1.6182 H   0  0  0  0  0  0  0  0  0  0  0  0
  -12.5799   10.4815   -3.1724 H   0  0  0  0  0  0  0  0  0  0  0  0
  -12.6988   12.2739   -3.1724 H   0  0  0  0  0  0  0  0  0  0  0  0
  -15.3175   12.5132   -1.2105 H   0  0  0  0  0  0  0  0  0  0  0  0
  -14.7953   13.3671   -2.7021 H   0  0  0  0  0  0  0  0  0  0  0  0
  -16.3127   12.4056   -2.7021 H   0  0  0  0  0  0  0  0  0  0  0  0
  -11.9504    9.8800   -0.3288 H   0  0  0  0  0  0  0  0  0  0  0  0
  -11.8680    9.7344    2.0815 H   0  0  0  0  0  0  0  0  0  0  0  0
  -13.0673    8.4243    2.1206 H   0  0  0  0  0  0  0  0  0  0  0  0
  -10.2511    8.1091    2.4902 H   0  0  0  0  0  0  0  0  0  0  0  0
  -11.3577    6.7797    2.1558 H   0  0  0  0  0  0  0  0  0  0  0  0
   -9.1672    9.2207    1.2264 H   0  0  0  0  0  0  0  0  0  0  0  0
   -8.5366    8.5678   -0.3237 H   0  0  0  0  0  0  0  0  0  0  0  0
   -9.9586    9.6652   -0.3237 H   0  0  0  0  0  0  0  0  0  0  0  0
  -10.4013    5.5362    0.3108 H   0  0  0  0  0  0  0  0  0  0  0  0
   -8.5818    6.4570    1.8873 H   0  0  0  0  0  0  0  0  0  0  0  0
   -8.3157    4.9081    0.9288 H   0  0  0  0  0  0  0  0  0  0  0  0
   -6.2728    6.5666    1.0561 H   0  0  0  0  0  0  0  0  0  0  0  0
   -8.3678    7.8532   -2.1455 H   0  0  0  0  0  0  0  0  0  0  0  0
   -7.1085    5.1994   -3.0731 H   0  0  0  0  0  0  0  0  0  0  0  0
   -8.1914    6.2935   -4.0432 H   0  0  0  0  0  0  0  0  0  0  0  0
   -5.8096    6.5404   -4.6669 H   0  0  0  0  0  0  0  0  0  0  0  0
   -6.5206    8.0536   -3.9808 H   0  0  0  0  0  0  0  0  0  0  0  0
   -4.3259    7.7467   -3.0603 H   0  0  0  0  0  0  0  0  0  0  0  0
   -3.6280    5.7920   -2.5670 H   0  0  0  0  0  0  0  0  0  0  0  0
   -5.9490    9.6020   -0.4734 H   0  0  0  0  0  0  0  0  0  0  0  0
   -5.0407    9.6237   -2.0230 H   0  0  0  0  0  0  0  0  0  0  0  0
   -6.8092    9.3091   -2.0230 H   0  0  0  0  0  0  0  0  0  0  0  0
   -4.8420    7.5400    0.7063 H   0  0  0  0  0  0  0  0  0  0  0  0
   -3.9371    6.5227   -0.4653 H   0  0  0  0  0  0  0  0  0  0  0  0
   -3.7158    8.3053   -0.4653 H   0  0  0  0  0  0  0  0  0  0  0  0
   -9.1400    4.0410   -0.7481 H   0  0  0  0  0  0  0  0  0  0  0  0
  -10.0551    4.1681   -2.2885 H   0  0  0  0  0  0  0  0  0  0  0  0
   -8.2676    4.3450   -2.2885 H   0  0  0  0  0  0  0  0  0  0  0  0
  -10.1229    6.7376   -3.4304 H   0  0  0  0  0  0  0  0  0  0  0  0
  -11.2683    5.7283   -2.3794 H   0  0  0  0  0  0  0  0  0  0  0  0
  -10.6611    8.6879   -2.1358 H   0  0  0  0  0  0  0  0  0  0  0  0
  -12.2156    7.8893   -2.5960 H   0  0  0  0  0  0  0  0  0  0  0  0
  -12.8382    6.2974    0.7149 H   0  0  0  0  0  0  0  0  0  0  0  0
  -13.6380    6.7353   -0.8327 H   0  0  0  0  0  0  0  0  0  0  0  0
  -12.2356    5.6129   -0.8327 H   0  0  0  0  0  0  0  0  0  0  0  0
  1  2  1  0
  2  3  1  0
  3  4  1  0
  4  5  1  0
  5  6  1  0
  6  7  1  0
  7  8  1  0
  7  9  1  0
  2 10  1  0
 10 11  1  0
 11 12  1  0
 12 13  1  0
 13 14  1  6
 13 15  1  0
 15 16  1  0
 16 17  1  0
 17 18  2  0
 18 19  1  0
 19 20  1  0
 20 21  1  0
 21 22  1  0
 22 23  1  0
 22 24  1  0
 24 25  1  0
 24 26  1  0
 19 27  1  0
 27 28  1  1
 27 29  1  0
 29 30  1  0
 30 31  1  0
 31 32  1  6
  7  5  1  0
 31 10  1  0
 31 13  1  0
 27 15  1  0
 24 18  1  0
  1 33  1  0
  1 34  1  0
  1 35  1  0
  2 36  1  6
  3 37  1  0
  3 38  1  0
  4 39  1  0
  4 40  1  0
  5 41  1  1
  8 42  1  0
  8 43  1  0
  8 44  1  0
  9 45  1  0
  9 46  1  0
  9 47  1  0
 10 48  1  6
 11 49  1  0
 11 50  1  0
 12 51  1  0
 12 52  1  0
 14 53  1  0
 14 54  1  0
 14 55  1  0
 15 56  1  1
 16 57  1  0
 16 58  1  0
 17 59  1  0
 19 60  1  6
 20 61  1  0
 20 62  1  0
 21 63  1  0
 21 64  1  0
 22 65  1  6
 23 66  1  0
 25 67  1  0
 25 68  1  0
 25 69  1  0
 26 70  1  0
 26 71  1  0
 26 72  1  0
 28 73  1  0
 28 74  1  0
 28 75  1  0
 29 76  1  0
 29 77  1  0
 30 78  1  0
 30 79  1  0
 32 80  1  0
 32 81  1  0
 32 82  1  0
M  END
>  <meeko>  (18) 
{"is_sidechain": [false], "intermolecular_energy": 2.731, "internal_energy": -0.839}

$$$$
