EPH_relaxed_0001_pdb2pqr_Repair_152_r2_0001_out
     RDKit          3D

 82 86  0  0  0  0  0  0  0  0999 V2000
    3.8300   17.9880    0.6400 C   0  0  0  0  0  0  0  0  0  0  0  0
    2.9500   18.3780   -0.5510 C   0  0  2  0  0  0  0  0  0  0  0  0
    2.2040   19.7060   -0.3120 C   0  0  0  0  0  0  0  0  0  0  0  0
    1.1760   19.6390    0.8200 C   0  0  0  0  0  0  0  0  0  0  0  0
   -0.1530   20.1870    0.3960 C   0  0  2  0  0  0  0  0  0  0  0  0
   -1.1540   20.1940    1.4220 O   0  0  0  0  0  0  0  0  0  0  0  0
   -1.4110   19.3460    0.2920 C   0  0  0  0  0  0  0  0  0  0  0  0
   -1.4010   17.8840    0.6130 C   0  0  0  0  0  0  0  0  0  0  0  0
   -2.5250   19.8290   -0.5840 C   0  0  0  0  0  0  0  0  0  0  0  0
    1.9510   17.2650   -0.8460 C   0  0  1  0  0  0  0  0  0  0  0  0
    0.8180   17.7180   -1.8040 C   0  0  0  0  0  0  0  0  0  0  0  0
    0.4620   16.4930   -2.6860 C   0  0  0  0  0  0  0  0  0  0  0  0
    1.1570   15.2980   -1.9920 C   0  0  1  0  0  0  0  0  0  0  0  0
    0.1980   14.8970   -0.8280 C   0  0  0  0  0  0  0  0  0  0  0  0
    1.5010   14.0750   -2.9040 C   0  0  2  0  0  0  0  0  0  0  0  0
    0.2880   13.3740   -3.5400 C   0  0  0  0  0  0  0  0  0  0  0  0
   -0.2940   12.2560   -2.7400 C   0  0  0  0  0  0  0  0  0  0  0  0
    0.3030   11.6450   -1.6990 C   0  0  0  0  0  0  0  0  0  0  0  0
    1.7390   12.0040   -1.2930 C   0  0  1  0  0  0  0  0  0  0  0  0
    2.5520   10.7030   -1.0600 C   0  0  0  0  0  0  0  0  0  0  0  0
    1.8800    9.7640   -0.0630 C   0  0  0  0  0  0  0  0  0  0  0  0
    0.4780    9.3840   -0.5300 C   0  0  2  0  0  0  0  0  0  0  0  0
    0.5870    8.5910   -1.7160 O   0  0  0  0  0  0  0  0  0  0  0  0
   -0.4310   10.6150   -0.8060 C   0  0  0  0  0  0  0  0  0  0  0  0
   -0.7950   11.3030    0.5320 C   0  0  0  0  0  0  0  0  0  0  0  0
   -1.7660   10.0970   -1.4050 C   0  0  0  0  0  0  0  0  0  0  0  0
    2.4910   13.0330   -2.2430 C   0  0  1  0  0  0  0  0  0  0  0  0
    3.1810   12.2690   -3.4140 C   0  0  0  0  0  0  0  0  0  0  0  0
    3.6430   13.7340   -1.4300 C   0  0  0  0  0  0  0  0  0  0  0  0
    3.2670   15.0050   -0.6460 C   0  0  0  0  0  0  0  0  0  0  0  0
    2.4930   15.9870   -1.5330 C   0  0  2  0  0  0  0  0  0  0  0  0
    3.4410   16.4250   -2.7010 C   0  0  0  0  0  0  0  0  0  0  0  0
    3.3033   18.2214    1.5771 H   0  0  0  0  0  0  0  0  0  0  0  0
    4.0455   16.9101    0.5992 H   0  0  0  0  0  0  0  0  0  0  0  0
    4.7733   18.5523    0.5992 H   0  0  0  0  0  0  0  0  0  0  0  0
    3.6118   18.5228   -1.4176 H   0  0  0  0  0  0  0  0  0  0  0  0
    2.9445   20.4804   -0.0633 H   0  0  0  0  0  0  0  0  0  0  0  0
    1.6513   19.9349   -1.2351 H   0  0  0  0  0  0  0  0  0  0  0  0
    1.0482   18.5895    1.1237 H   0  0  0  0  0  0  0  0  0  0  0  0
    1.5472   20.2494    1.6564 H   0  0  0  0  0  0  0  0  0  0  0  0
    0.3320   20.8795   -0.3077 H   0  0  0  0  0  0  0  0  0  0  0  0
   -1.4001   17.7483    1.7046 H   0  0  0  0  0  0  0  0  0  0  0  0
   -2.2959   17.4085    0.1851 H   0  0  0  0  0  0  0  0  0  0  0  0
   -0.4997   17.4208    0.1851 H   0  0  0  0  0  0  0  0  0  0  0  0
   -3.3545   20.1887    0.0425 H   0  0  0  0  0  0  0  0  0  0  0  0
   -2.1622   20.6506   -1.2191 H   0  0  0  0  0  0  0  0  0  0  0  0
   -2.8767   19.0026   -1.2191 H   0  0  0  0  0  0  0  0  0  0  0  0
    1.6262   17.0323    0.1789 H   0  0  0  0  0  0  0  0  0  0  0  0
   -0.0618   18.0372   -1.2261 H   0  0  0  0  0  0  0  0  0  0  0  0
    1.1396   18.5695   -2.4216 H   0  0  0  0  0  0  0  0  0  0  0  0
   -0.6271   16.3424   -2.7203 H   0  0  0  0  0  0  0  0  0  0  0  0
    0.7909   16.6193   -3.7281 H   0  0  0  0  0  0  0  0  0  0  0  0
    0.6863   15.1012    0.1363 H   0  0  0  0  0  0  0  0  0  0  0  0
   -0.7306   15.4822   -0.8999 H   0  0  0  0  0  0  0  0  0  0  0  0
   -0.0377   13.8250   -0.8999 H   0  0  0  0  0  0  0  0  0  0  0  0
    2.0434   14.5460   -3.7371 H   0  0  0  0  0  0  0  0  0  0  0  0
   -0.4984   14.1277   -3.6932 H   0  0  0  0  0  0  0  0  0  0  0  0
    0.6529   12.9221   -4.4741 H   0  0  0  0  0  0  0  0  0  0  0  0
   -1.2954   11.9012   -3.0251 H   0  0  0  0  0  0  0  0  0  0  0  0
    1.6577   12.5662   -0.3510 H   0  0  0  0  0  0  0  0  0  0  0  0
    2.6606   10.1782   -2.0206 H   0  0  0  0  0  0  0  0  0  0  0  0
    3.5286   10.9897   -0.6427 H   0  0  0  0  0  0  0  0  0  0  0  0
    2.4859    8.8513    0.0363 H   0  0  0  0  0  0  0  0  0  0  0  0
    1.7993   10.2799    0.9051 H   0  0  0  0  0  0  0  0  0  0  0  0
    0.0009    8.8185    0.2840 H   0  0  0  0  0  0  0  0  0  0  0  0
    0.4760    7.6600   -1.4580 H   0  0  0  0  0  0  0  0  0  0  0  0
   -0.4620   10.6736    1.3704 H   0  0  0  0  0  0  0  0  0  0  0  0
   -0.2970   12.2822    0.5882 H   0  0  0  0  0  0  0  0  0  0  0  0
   -1.8847   11.4421    0.5882 H   0  0  0  0  0  0  0  0  0  0  0  0
   -2.4545    9.8299   -0.5897 H   0  0  0  0  0  0  0  0  0  0  0  0
   -2.2197   10.8843   -2.0249 H   0  0  0  0  0  0  0  0  0  0  0  0
   -1.5699    9.2097   -2.0249 H   0  0  0  0  0  0  0  0  0  0  0  0
    3.8653   11.5113   -3.0046 H   0  0  0  0  0  0  0  0  0  0  0  0
    2.4157   11.7764   -4.0318 H   0  0  0  0  0  0  0  0  0  0  0  0
    3.7488   12.9803   -4.0318 H   0  0  0  0  0  0  0  0  0  0  0  0
    4.0339   13.0016   -0.7084 H   0  0  0  0  0  0  0  0  0  0  0  0
    4.3674   14.0675   -2.1876 H   0  0  0  0  0  0  0  0  0  0  0  0
    2.6402   14.7255    0.2137 H   0  0  0  0  0  0  0  0  0  0  0  0
    4.1917   15.4936   -0.3051 H   0  0  0  0  0  0  0  0  0  0  0  0
    4.3647   16.8518   -2.2831 H   0  0  0  0  0  0  0  0  0  0  0  0
    3.6886   15.5500   -3.3200 H   0  0  0  0  0  0  0  0  0  0  0  0
    2.9352   17.1807   -3.3200 H   0  0  0  0  0  0  0  0  0  0  0  0
  1  2  1  0
  2  3  1  0
  3  4  1  0
  4  5  1  0
  5  6  1  0
  6  7  1  0
  7  8  1  0
  7  9  1  0
  2 10  1  0
 10 11  1  0
 11 12  1  0
 12 13  1  0
 13 14  1  1
 13 15  1  0
 15 16  1  0
 16 17  1  0
 17 18  2  0
 18 19  1  0
 19 20  1  0
 20 21  1  0
 21 22  1  0
 22 23  1  0
 22 24  1  0
 24 25  1  0
 24 26  1  0
 19 27  1  0
 27 28  1  6
 27 29  1  0
 29 30  1  0
 30 31  1  0
 31 32  1  6
  7  5  1  0
 31 10  1  0
 31 13  1  0
 27 15  1  0
 24 18  1  0
  1 33  1  0
  1 34  1  0
  1 35  1  0
  2 36  1  6
  3 37  1  0
  3 38  1  0
  4 39  1  0
  4 40  1  0
  5 41  1  6
  8 42  1  0
  8 43  1  0
  8 44  1  0
  9 45  1  0
  9 46  1  0
  9 47  1  0
 10 48  1  1
 11 49  1  0
 11 50  1  0
 12 51  1  0
 12 52  1  0
 14 53  1  0
 14 54  1  0
 14 55  1  0
 15 56  1  6
 16 57  1  0
 16 58  1  0
 17 59  1  0
 19 60  1  1
 20 61  1  0
 20 62  1  0
 21 63  1  0
 21 64  1  0
 22 65  1  1
 23 66  1  0
 25 67  1  0
 25 68  1  0
 25 69  1  0
 26 70  1  0
 26 71  1  0
 26 72  1  0
 28 73  1  0
 28 74  1  0
 28 75  1  0
 29 76  1  0
 29 77  1  0
 30 78  1  0
 30 79  1  0
 32 80  1  0
 32 81  1  0
 32 82  1  0
M  END
>  <meeko>  (1) 
{"is_sidechain": [false], "intermolecular_energy": 2.731, "internal_energy": -0.839}

$$$$
EPH_relaxed_0001_pdb2pqr_Repair_152_r2_0001_out
     RDKit          3D

 82 86  0  0  0  0  0  0  0  0999 V2000
    4.5070   17.7370   -0.7220 C   0  0  0  0  0  0  0  0  0  0  0  0
    3.1280   18.3110   -0.3830 C   0  0  2  0  0  0  0  0  0  0  0  0
    3.0880   18.9300    1.0290 C   0  0  0  0  0  0  0  0  0  0  0  0
    4.3590   18.6810    1.8460 C   0  0  0  0  0  0  0  0  0  0  0  0
    4.2320   19.2090    3.2430 C   0  0  2  0  0  0  0  0  0  0  0  0
    5.2090   20.1940    3.6030 O   0  0  0  0  0  0  0  0  0  0  0  0
    5.2600   18.9560    4.3300 C   0  0  0  0  0  0  0  0  0  0  0  0
    6.4900   18.1450    4.0660 C   0  0  0  0  0  0  0  0  0  0  0  0
    4.8350   19.0790    5.7600 C   0  0  0  0  0  0  0  0  0  0  0  0
    2.0680   17.2220   -0.5040 C   0  0  1  0  0  0  0  0  0  0  0  0
    0.7220   17.7590   -1.0600 C   0  0  0  0  0  0  0  0  0  0  0  0
    0.1160   16.6290   -1.9310 C   0  0  0  0  0  0  0  0  0  0  0  0
    0.9550   15.3770   -1.5860 C   0  0  1  0  0  0  0  0  0  0  0  0
    0.3480   14.8440   -0.2500 C   0  0  0  0  0  0  0  0  0  0  0  0
    1.0130   14.2600   -2.6790 C   0  0  2  0  0  0  0  0  0  0  0  0
   -0.3390   13.6140   -3.0250 C   0  0  0  0  0  0  0  0  0  0  0  0
   -0.6970   12.4110   -2.2160 C   0  0  0  0  0  0  0  0  0  0  0  0
    0.1540   11.7020   -1.4510 C   0  0  0  0  0  0  0  0  0  0  0  0
    1.6510   12.0350   -1.4220 C   0  0  1  0  0  0  0  0  0  0  0  0
    2.4750   10.7270   -1.5600 C   0  0  0  0  0  0  0  0  0  0  0  0
    2.0890    9.6800   -0.5190 C   0  0  0  0  0  0  0  0  0  0  0  0
    0.6060    9.3340   -0.6180 C   0  0  2  0  0  0  0  0  0  0  0  0
    0.3690    8.6700   -1.8640 O   0  0  0  0  0  0  0  0  0  0  0  0
   -0.3230   10.5750   -0.5020 C   0  0  0  0  0  0  0  0  0  0  0  0
   -0.2920   11.1150    0.9490 C   0  0  0  0  0  0  0  0  0  0  0  0
   -1.7800   10.1060   -0.7600 C   0  0  0  0  0  0  0  0  0  0  0  0
    2.1300   13.1670   -2.4290 C   0  0  1  0  0  0  0  0  0  0  0  0
    2.4560   12.5390   -3.8190 C   0  0  0  0  0  0  0  0  0  0  0  0
    3.4730   13.7930   -1.8990 C   0  0  0  0  0  0  0  0  0  0  0  0
    3.3490   14.9710   -0.9130 C   0  0  0  0  0  0  0  0  0  0  0  0
    2.3780   16.0300   -1.4440 C   0  0  2  0  0  0  0  0  0  0  0  0
    2.9730   16.6000   -2.7760 C   0  0  0  0  0  0  0  0  0  0  0  0
    5.0490   17.5114    0.2082 H   0  0  0  0  0  0  0  0  0  0  0  0
    4.3860   16.8145   -1.3088 H   0  0  0  0  0  0  0  0  0  0  0  0
    5.0763   18.4729   -1.3088 H   0  0  0  0  0  0  0  0  0  0  0  0
    2.9184   19.1160   -1.1027 H   0  0  0  0  0  0  0  0  0  0  0  0
    2.9471   20.0163    0.9282 H   0  0  0  0  0  0  0  0  0  0  0  0
    2.2593   18.4478    1.5683 H   0  0  0  0  0  0  0  0  0  0  0  0
    4.5482   17.5983    1.8899 H   0  0  0  0  0  0  0  0  0  0  0  0
    5.1910   19.2069    1.3549 H   0  0  0  0  0  0  0  0  0  0  0  0
    3.1397   19.0817    3.2161 H   0  0  0  0  0  0  0  0  0  0  0  0
    6.9440   17.8456    5.0222 H   0  0  0  0  0  0  0  0  0  0  0  0
    6.2206   17.2468    3.4909 H   0  0  0  0  0  0  0  0  0  0  0  0
    7.2094   18.7465    3.4909 H   0  0  0  0  0  0  0  0  0  0  0  0
    5.6826   18.8337    6.4168 H   0  0  0  0  0  0  0  0  0  0  0  0
    4.5047   20.1096    5.9570 H   0  0  0  0  0  0  0  0  0  0  0  0
    4.0054   18.3841    5.9570 H   0  0  0  0  0  0  0  0  0  0  0  0
    2.0347   16.8788    0.5406 H   0  0  0  0  0  0  0  0  0  0  0  0
    0.0413   18.0055   -0.2318 H   0  0  0  0  0  0  0  0  0  0  0  0
    0.8754   18.6742   -1.6507 H   0  0  0  0  0  0  0  0  0  0  0  0
   -0.9424   16.4689   -1.6777 H   0  0  0  0  0  0  0  0  0  0  0  0
    0.1462   16.8683   -3.0042 H   0  0  0  0  0  0  0  0  0  0  0  0
    0.8723   15.3044    0.6004 H   0  0  0  0  0  0  0  0  0  0  0  0
   -0.7206   15.1009   -0.2045 H   0  0  0  0  0  0  0  0  0  0  0  0
    0.4646   13.7511   -0.2045 H   0  0  0  0  0  0  0  0  0  0  0  0
    1.3117   14.8226   -3.5758 H   0  0  0  0  0  0  0  0  0  0  0  0
   -1.1246   14.3695   -2.8765 H   0  0  0  0  0  0  0  0  0  0  0  0
   -0.2528   13.2665   -4.0651 H   0  0  0  0  0  0  0  0  0  0  0  0
   -1.7443   12.0760   -2.2479 H   0  0  0  0  0  0  0  0  0  0  0  0
    1.8410   12.4947   -0.4409 H   0  0  0  0  0  0  0  0  0  0  0  0
    2.3049   10.3071   -2.5624 H   0  0  0  0  0  0  0  0  0  0  0  0
    3.5336   10.9808   -1.4019 H   0  0  0  0  0  0  0  0  0  0  0  0
    2.6831    8.7695   -0.6866 H   0  0  0  0  0  0  0  0  0  0  0  0
    2.2880   10.0900    0.4821 H   0  0  0  0  0  0  0  0  0  0  0  0
    0.3631    8.6806    0.2329 H   0  0  0  0  0  0  0  0  0  0  0  0
    0.5190    7.7200   -1.7240 H   0  0  0  0  0  0  0  0  0  0  0  0
   -0.3404   10.2727    1.6548 H   0  0  0  0  0  0  0  0  0  0  0  0
    0.6399   11.6765    1.1115 H   0  0  0  0  0  0  0  0  0  0  0  0
   -1.1535   11.7794    1.1115 H   0  0  0  0  0  0  0  0  0  0  0  0
   -2.2883    9.9424    0.2017 H   0  0  0  0  0  0  0  0  0  0  0  0
   -2.3173   10.8766   -1.3323 H   0  0  0  0  0  0  0  0  0  0  0  0
   -1.7669    9.1667   -1.3323 H   0  0  0  0  0  0  0  0  0  0  0  0
    2.9585   11.5711   -3.6753 H   0  0  0  0  0  0  0  0  0  0  0  0
    1.5226   12.3877   -4.3810 H   0  0  0  0  0  0  0  0  0  0  0  0
    3.1169   13.2153   -4.3810 H   0  0  0  0  0  0  0  0  0  0  0  0
    4.0360   12.9942   -1.3940 H   0  0  0  0  0  0  0  0  0  0  0  0
    3.9656   14.2127   -2.7884 H   0  0  0  0  0  0  0  0  0  0  0  0
    2.9789   14.5950    0.0522 H   0  0  0  0  0  0  0  0  0  0  0  0
    4.3399   15.4329   -0.7917 H   0  0  0  0  0  0  0  0  0  0  0  0
    3.7492   17.3436   -2.5422 H   0  0  0  0  0  0  0  0  0  0  0  0
    3.4152   15.7798   -3.3606 H   0  0  0  0  0  0  0  0  0  0  0  0
    2.1725   17.0769   -3.3606 H   0  0  0  0  0  0  0  0  0  0  0  0
  1  2  1  0
  2  3  1  0
  3  4  1  0
  4  5  1  0
  5  6  1  0
  6  7  1  0
  7  8  1  0
  7  9  1  0
  2 10  1  0
 10 11  1  0
 11 12  1  0
 12 13  1  0
 13 14  1  1
 13 15  1  0
 15 16  1  0
 16 17  1  0
 17 18  2  0
 18 19  1  0
 19 20  1  0
 20 21  1  0
 21 22  1  0
 22 23  1  0
 22 24  1  0
 24 25  1  0
 24 26  1  0
 19 27  1  0
 27 28  1  6
 27 29  1  0
 29 30  1  0
 30 31  1  0
 31 32  1  6
  7  5  1  0
 31 10  1  0
 31 13  1  0
 27 15  1  0
 24 18  1  0
  1 33  1  0
  1 34  1  0
  1 35  1  0
  2 36  1  6
  3 37  1  0
  3 38  1  0
  4 39  1  0
  4 40  1  0
  5 41  1  1
  8 42  1  0
  8 43  1  0
  8 44  1  0
  9 45  1  0
  9 46  1  0
  9 47  1  0
 10 48  1  1
 11 49  1  0
 11 50  1  0
 12 51  1  0
 12 52  1  0
 14 53  1  0
 14 54  1  0
 14 55  1  0
 15 56  1  6
 16 57  1  0
 16 58  1  0
 17 59  1  0
 19 60  1  1
 20 61  1  0
 20 62  1  0
 21 63  1  0
 21 64  1  0
 22 65  1  1
 23 66  1  0
 25 67  1  0
 25 68  1  0
 25 69  1  0
 26 70  1  0
 26 71  1  0
 26 72  1  0
 28 73  1  0
 28 74  1  0
 28 75  1  0
 29 76  1  0
 29 77  1  0
 30 78  1  0
 30 79  1  0
 32 80  1  0
 32 81  1  0
 32 82  1  0
M  END
>  <meeko>  (2) 
{"is_sidechain": [false], "intermolecular_energy": 2.731, "internal_energy": -0.839}

$$$$
EPH_relaxed_0001_pdb2pqr_Repair_152_r2_0001_out
     RDKit          3D

 82 86  0  0  0  0  0  0  0  0999 V2000
    3.0930   17.1600    0.3650 C   0  0  0  0  0  0  0  0  0  0  0  0
    2.5740   17.3760   -1.0600 C   0  0  2  0  0  0  0  0  0  0  0  0
    1.8630   18.7350   -1.2180 C   0  0  0  0  0  0  0  0  0  0  0  0
    1.3210   19.3030    0.0960 C   0  0  0  0  0  0  0  0  0  0  0  0
    0.0120   20.0050   -0.1010 C   0  0  2  0  0  0  0  0  0  0  0  0
   -0.7520   20.1940    1.0970 O   0  0  0  0  0  0  0  0  0  0  0  0
   -1.3350   19.3360    0.1020 C   0  0  0  0  0  0  0  0  0  0  0  0
   -1.4390   17.9030    0.5210 C   0  0  0  0  0  0  0  0  0  0  0  0
   -2.5350   19.9240   -0.5730 C   0  0  0  0  0  0  0  0  0  0  0  0
    1.6290   16.2450   -1.4460 C   0  0  1  0  0  0  0  0  0  0  0  0
    0.8390   16.5450   -2.7470 C   0  0  0  0  0  0  0  0  0  0  0  0
    0.6660   15.1930   -3.4880 C   0  0  0  0  0  0  0  0  0  0  0  0
    1.0640   14.1230   -2.4440 C   0  0  1  0  0  0  0  0  0  0  0  0
   -0.2050   13.9410   -1.5530 C   0  0  0  0  0  0  0  0  0  0  0  0
    1.5710   12.7580   -3.0130 C   0  0  2  0  0  0  0  0  0  0  0  0
    0.5420   11.9770   -3.8480 C   0  0  0  0  0  0  0  0  0  0  0  0
   -0.3100   11.0210   -3.0800 C   0  0  0  0  0  0  0  0  0  0  0  0
   -0.0660   10.5870   -1.8300 C   0  0  0  0  0  0  0  0  0  0  0  0
    1.2190   10.9880   -1.0930 C   0  0  1  0  0  0  0  0  0  0  0  0
    1.8510    9.7340   -0.4350 C   0  0  0  0  0  0  0  0  0  0  0  0
    0.8710    8.9890    0.4660 C   0  0  0  0  0  0  0  0  0  0  0  0
   -0.3670    8.5560   -0.3160 C   0  0  2  0  0  0  0  0  0  0  0  0
    0.0180    7.5700   -1.2790 O   0  0  0  0  0  0  0  0  0  0  0  0
   -1.0830    9.7350   -1.0310 C   0  0  0  0  0  0  0  0  0  0  0  0
   -1.7620   10.6470    0.0200 C   0  0  0  0  0  0  0  0  0  0  0  0
   -2.2290    9.1430   -1.8960 C   0  0  0  0  0  0  0  0  0  0  0  0
    2.2690   11.8280   -1.9390 C   0  0  1  0  0  0  0  0  0  0  0  0
    3.2090   10.8660   -2.7290 C   0  0  0  0  0  0  0  0  0  0  0  0
    3.1910   12.6400   -0.9540 C   0  0  0  0  0  0  0  0  0  0  0  0
    2.6920   14.0320   -0.5230 C   0  0  0  0  0  0  0  0  0  0  0  0
    2.2600   14.8600   -1.7370 C   0  0  2  0  0  0  0  0  0  0  0  0
    3.5210   15.0780   -2.6410 C   0  0  0  0  0  0  0  0  0  0  0  0
    2.3265   17.4790    1.0867 H   0  0  0  0  0  0  0  0  0  0  0  0
    3.3175   16.0938    0.5158 H   0  0  0  0  0  0  0  0  0  0  0  0
    4.0077   17.7522    0.5158 H   0  0  0  0  0  0  0  0  0  0  0  0
    3.4441   17.3783   -1.7330 H   0  0  0  0  0  0  0  0  0  0  0  0
    2.5804   19.4554   -1.6379 H   0  0  0  0  0  0  0  0  0  0  0  0
    0.9983   18.5703   -1.8777 H   0  0  0  0  0  0  0  0  0  0  0  0
    1.1790   18.4777    0.8093 H   0  0  0  0  0  0  0  0  0  0  0  0
    2.0479   20.0346    0.4787 H   0  0  0  0  0  0  0  0  0  0  0  0
    0.4256   20.5929   -0.9336 H   0  0  0  0  0  0  0  0  0  0  0  0
   -1.4435   17.8415    1.6193 H   0  0  0  0  0  0  0  0  0  0  0  0
   -2.3708   17.4721    0.1258 H   0  0  0  0  0  0  0  0  0  0  0  0
   -0.5792   17.3421    0.1258 H   0  0  0  0  0  0  0  0  0  0  0  0
   -3.2488   20.2738    0.1874 H   0  0  0  0  0  0  0  0  0  0  0  0
   -2.2238   20.7717   -1.2012 H   0  0  0  0  0  0  0  0  0  0  0  0
   -3.0142   19.1586   -1.2012 H   0  0  0  0  0  0  0  0  0  0  0  0
    1.0171   16.1955   -0.5332 H   0  0  0  0  0  0  0  0  0  0  0  0
   -0.1450   16.9716   -2.5027 H   0  0  0  0  0  0  0  0  0  0  0  0
    1.3736   17.2734   -3.3744 H   0  0  0  0  0  0  0  0  0  0  0  0
   -0.3778   15.0555   -3.8067 H   0  0  0  0  0  0  0  0  0  0  0  0
    1.2789   15.1351   -4.3996 H   0  0  0  0  0  0  0  0  0  0  0  0
    0.0829   13.9823   -0.4921 H   0  0  0  0  0  0  0  0  0  0  0  0
   -0.9235   14.7453   -1.7695 H   0  0  0  0  0  0  0  0  0  0  0  0
   -0.6685   12.9672   -1.7695 H   0  0  0  0  0  0  0  0  0  0  0  0
    2.3527   13.0724   -3.7201 H   0  0  0  0  0  0  0  0  0  0  0  0
   -0.1212   12.7052   -4.3378 H   0  0  0  0  0  0  0  0  0  0  0  0
    1.1239   11.3662   -4.5539 H   0  0  0  0  0  0  0  0  0  0  0  0
   -1.2134   10.6393   -3.5782 H   0  0  0  0  0  0  0  0  0  0  0  0
    0.9135   11.7033   -0.3152 H   0  0  0  0  0  0  0  0  0  0  0  0
    2.1886    9.0516   -1.2289 H   0  0  0  0  0  0  0  0  0  0  0  0
    2.6893   10.0726    0.1917 H   0  0  0  0  0  0  0  0  0  0  0  0
    1.3667    8.0976    0.8780 H   0  0  0  0  0  0  0  0  0  0  0  0
    0.5568    9.6630    1.2765 H   0  0  0  0  0  0  0  0  0  0  0  0
   -1.0872    8.1448    0.4066 H   0  0  0  0  0  0  0  0  0  0  0  0
    0.4510    8.0330   -2.0170 H   0  0  0  0  0  0  0  0  0  0  0  0
   -1.5024   10.2983    1.0305 H   0  0  0  0  0  0  0  0  0  0  0  0
   -1.4126   11.6817   -0.1119 H   0  0  0  0  0  0  0  0  0  0  0  0
   -2.8534   10.6089   -0.1119 H   0  0  0  0  0  0  0  0  0  0  0  0
   -3.0128    8.7381   -1.2389 H   0  0  0  0  0  0  0  0  0  0  0  0
   -2.6552    9.9337   -2.5309 H   0  0  0  0  0  0  0  0  0  0  0  0
   -1.8308    8.3378   -2.5309 H   0  0  0  0  0  0  0  0  0  0  0  0
    3.7970   10.2642   -2.0205 H   0  0  0  0  0  0  0  0  0  0  0  0
    2.6040   10.2000   -3.3618 H   0  0  0  0  0  0  0  0  0  0  0  0
    3.8888   11.4554   -3.3618 H   0  0  0  0  0  0  0  0  0  0  0  0
    3.3187   12.0358   -0.0437 H   0  0  0  0  0  0  0  0  0  0  0  0
    4.1173   12.8281   -1.5166 H   0  0  0  0  0  0  0  0  0  0  0  0
    1.8339   13.9126    0.1548 H   0  0  0  0  0  0  0  0  0  0  0  0
    3.5141   14.5573   -0.0149 H   0  0  0  0  0  0  0  0  0  0  0  0
    4.4057   15.2310   -2.0055 H   0  0  0  0  0  0  0  0  0  0  0  0
    3.6743   14.1930   -3.2761 H   0  0  0  0  0  0  0  0  0  0  0  0
    3.3683   15.9631   -3.2761 H   0  0  0  0  0  0  0  0  0  0  0  0
  1  2  1  0
  2  3  1  0
  3  4  1  0
  4  5  1  0
  5  6  1  0
  6  7  1  0
  7  8  1  0
  7  9  1  0
  2 10  1  0
 10 11  1  0
 11 12  1  0
 12 13  1  0
 13 14  1  1
 13 15  1  0
 15 16  1  0
 16 17  1  0
 17 18  2  0
 18 19  1  0
 19 20  1  0
 20 21  1  0
 21 22  1  0
 22 23  1  0
 22 24  1  0
 24 25  1  0
 24 26  1  0
 19 27  1  0
 27 28  1  6
 27 29  1  0
 29 30  1  0
 30 31  1  0
 31 32  1  6
  7  5  1  0
 31 10  1  0
 31 13  1  0
 27 15  1  0
 24 18  1  0
  1 33  1  0
  1 34  1  0
  1 35  1  0
  2 36  1  6
  3 37  1  0
  3 38  1  0
  4 39  1  0
  4 40  1  0
  5 41  1  6
  8 42  1  0
  8 43  1  0
  8 44  1  0
  9 45  1  0
  9 46  1  0
  9 47  1  0
 10 48  1  1
 11 49  1  0
 11 50  1  0
 12 51  1  0
 12 52  1  0
 14 53  1  0
 14 54  1  0
 14 55  1  0
 15 56  1  6
 16 57  1  0
 16 58  1  0
 17 59  1  0
 19 60  1  1
 20 61  1  0
 20 62  1  0
 21 63  1  0
 21 64  1  0
 22 65  1  1
 23 66  1  0
 25 67  1  0
 25 68  1  0
 25 69  1  0
 26 70  1  0
 26 71  1  0
 26 72  1  0
 28 73  1  0
 28 74  1  0
 28 75  1  0
 29 76  1  0
 29 77  1  0
 30 78  1  0
 30 79  1  0
 32 80  1  0
 32 81  1  0
 32 82  1  0
M  END
>  <meeko>  (3) 
{"is_sidechain": [false], "intermolecular_energy": 2.731, "internal_energy": -0.839}

$$$$
EPH_relaxed_0001_pdb2pqr_Repair_152_r2_0001_out
     RDKit          3D

 82 86  0  0  0  0  0  0  0  0999 V2000
    2.3730   18.1380   -2.2880 C   0  0  0  0  0  0  0  0  0  0  0  0
    1.7880   17.3670   -1.1010 C   0  0  2  0  0  0  0  0  0  0  0  0
    2.8730   16.9440   -0.0910 C   0  0  0  0  0  0  0  0  0  0  0  0
    3.8730   18.0550    0.2390 C   0  0  0  0  0  0  0  0  0  0  0  0
    3.5940   18.6730    1.5760 C   0  0  2  0  0  0  0  0  0  0  0  0
    3.9580   20.0560    1.6840 O   0  0  0  0  0  0  0  0  0  0  0  0
    4.6820   19.1430    2.5240 C   0  0  0  0  0  0  0  0  0  0  0  0
    6.1310   19.0130    2.1750 C   0  0  0  0  0  0  0  0  0  0  0  0
    4.3550   19.2740    3.9790 C   0  0  0  0  0  0  0  0  0  0  0  0
    1.0330   16.1410   -1.5990 C   0  0  1  0  0  0  0  0  0  0  0  0
    0.5100   16.3090   -3.0510 C   0  0  0  0  0  0  0  0  0  0  0  0
    0.5990   14.9150   -3.7230 C   0  0  0  0  0  0  0  0  0  0  0  0
    0.8510   13.9340   -2.5550 C   0  0  1  0  0  0  0  0  0  0  0  0
   -0.5580   13.6820   -1.9320 C   0  0  0  0  0  0  0  0  0  0  0  0
    1.5680   12.5940   -2.9200 C   0  0  2  0  0  0  0  0  0  0  0  0
    0.7990   11.6870   -3.8970 C   0  0  0  0  0  0  0  0  0  0  0  0
   -0.1180   10.6970   -3.2600 C   0  0  0  0  0  0  0  0  0  0  0  0
   -0.1080   10.3440   -1.9610 C   0  0  0  0  0  0  0  0  0  0  0  0
    0.9600   10.8900   -1.0050 C   0  0  1  0  0  0  0  0  0  0  0  0
    1.5360    9.7280   -0.1530 C   0  0  0  0  0  0  0  0  0  0  0  0
    0.4490    8.9420    0.5740 C   0  0  0  0  0  0  0  0  0  0  0  0
   -0.5620    8.3670   -0.4140 C   0  0  2  0  0  0  0  0  0  0  0  0
    0.0890    7.3750   -1.2140 O   0  0  0  0  0  0  0  0  0  0  0  0
   -1.2010    9.4440   -1.3340 C   0  0  0  0  0  0  0  0  0  0  0  0
   -2.1520   10.3410   -0.5030 C   0  0  0  0  0  0  0  0  0  0  0  0
   -2.0930    8.7150   -2.3750 C   0  0  0  0  0  0  0  0  0  0  0  0
    2.0970   11.7790   -1.6710 C   0  0  1  0  0  0  0  0  0  0  0  0
    3.2510   10.8670   -2.1890 C   0  0  0  0  0  0  0  0  0  0  0  0
    2.7290   12.7130   -0.5720 C   0  0  0  0  0  0  0  0  0  0  0  0
    2.0460   14.0750   -0.3410 C   0  0  0  0  0  0  0  0  0  0  0  0
    1.8140   14.8040   -1.6670 C   0  0  2  0  0  0  0  0  0  0  0  0
    3.2150   15.0910   -2.3070 C   0  0  0  0  0  0  0  0  0  0  0  0
    2.9989   18.9629   -1.9168 H   0  0  0  0  0  0  0  0  0  0  0  0
    2.9856   17.4595   -2.8999 H   0  0  0  0  0  0  0  0  0  0  0  0
    1.5546   18.5453   -2.8999 H   0  0  0  0  0  0  0  0  0  0  0  0
    1.0956   18.0423   -0.5770 H   0  0  0  0  0  0  0  0  0  0  0  0
    2.3779   16.6342    0.8412 H   0  0  0  0  0  0  0  0  0  0  0  0
    3.4431   16.1258   -0.5553 H   0  0  0  0  0  0  0  0  0  0  0  0
    4.8877   17.6304    0.2473 H   0  0  0  0  0  0  0  0  0  0  0  0
    3.7799   18.8388   -0.5272 H   0  0  0  0  0  0  0  0  0  0  0  0
    2.7196   18.0216    1.7211 H   0  0  0  0  0  0  0  0  0  0  0  0
    6.7271   18.9595    3.0979 H   0  0  0  0  0  0  0  0  0  0  0  0
    6.2854   18.0974    1.5852 H   0  0  0  0  0  0  0  0  0  0  0  0
    6.4459   19.8865    1.5852 H   0  0  0  0  0  0  0  0  0  0  0  0
    5.2106   18.9312    4.5794 H   0  0  0  0  0  0  0  0  0  0  0  0
    4.1411   20.3272    4.2134 H   0  0  0  0  0  0  0  0  0  0  0  0
    3.4731   18.6598    4.2134 H   0  0  0  0  0  0  0  0  0  0  0  0
    0.2503   16.0816   -0.8284 H   0  0  0  0  0  0  0  0  0  0  0  0
   -0.5331   16.6581   -3.0398 H   0  0  0  0  0  0  0  0  0  0  0  0
    1.1060   17.0515   -3.6018 H   0  0  0  0  0  0  0  0  0  0  0  0
   -0.3418   14.6716   -4.2383 H   0  0  0  0  0  0  0  0  0  0  0  0
    1.3914   14.8690   -4.4846 H   0  0  0  0  0  0  0  0  0  0  0  0
   -0.4815   13.6957   -0.8347 H   0  0  0  0  0  0  0  0  0  0  0  0
   -1.2508   14.4705   -2.2611 H   0  0  0  0  0  0  0  0  0  0  0  0
   -0.9345   12.7023   -2.2611 H   0  0  0  0  0  0  0  0  0  0  0  0
    2.4535   12.9445   -3.4705 H   0  0  0  0  0  0  0  0  0  0  0  0
    0.1989   12.3303   -4.5573 H   0  0  0  0  0  0  0  0  0  0  0  0
    1.5606   11.0980   -4.4291 H   0  0  0  0  0  0  0  0  0  0  0  0
   -0.8656   10.2147   -3.9069 H   0  0  0  0  0  0  0  0  0  0  0  0
    0.4444   11.6108   -0.3533 H   0  0  0  0  0  0  0  0  0  0  0  0
    2.0836    9.0421   -0.8161 H   0  0  0  0  0  0  0  0  0  0  0  0
    2.1967   10.1677    0.6087 H   0  0  0  0  0  0  0  0  0  0  0  0
    0.9144    8.1173    1.1337 H   0  0  0  0  0  0  0  0  0  0  0  0
   -0.0778    9.6227    1.2589 H   0  0  0  0  0  0  0  0  0  0  0  0
   -1.3834    7.9289    0.1719 H   0  0  0  0  0  0  0  0  0  0  0  0
   -0.0670    7.6010   -2.1470 H   0  0  0  0  0  0  0  0  0  0  0  0
   -1.9724   10.1716    0.5689 H   0  0  0  0  0  0  0  0  0  0  0  0
   -1.9632   11.3976   -0.7439 H   0  0  0  0  0  0  0  0  0  0  0  0
   -3.1957   10.0908   -0.7439 H   0  0  0  0  0  0  0  0  0  0  0  0
   -2.8420    8.1028   -1.8514 H   0  0  0  0  0  0  0  0  0  0  0  0
   -2.6028    9.4583   -3.0056 H   0  0  0  0  0  0  0  0  0  0  0  0
   -1.4661    8.0674   -3.0056 H   0  0  0  0  0  0  0  0  0  0  0  0
    3.7926   10.4390   -1.3326 H   0  0  0  0  0  0  0  0  0  0  0  0
    2.8303   10.0547   -2.7999 H   0  0  0  0  0  0  0  0  0  0  0  0
    3.9441   11.4640   -2.7999 H   0  0  0  0  0  0  0  0  0  0  0  0
    2.7096   12.1650    0.3816 H   0  0  0  0  0  0  0  0  0  0  0  0
    3.7354   12.9552   -0.9442 H   0  0  0  0  0  0  0  0  0  0  0  0
    1.0774   13.9123    0.1544 H   0  0  0  0  0  0  0  0  0  0  0  0
    2.7019   14.6937    0.2891 H   0  0  0  0  0  0  0  0  0  0  0  0
    3.9579   15.2432   -1.5102 H   0  0  0  0  0  0  0  0  0  0  0  0
    3.5156   14.2358   -2.9301 H   0  0  0  0  0  0  0  0  0  0  0  0
    3.1551   15.9955   -2.9301 H   0  0  0  0  0  0  0  0  0  0  0  0
  1  2  1  0
  2  3  1  0
  3  4  1  0
  4  5  1  0
  5  6  1  0
  6  7  1  0
  7  8  1  0
  7  9  1  0
  2 10  1  0
 10 11  1  0
 11 12  1  0
 12 13  1  0
 13 14  1  1
 13 15  1  0
 15 16  1  0
 16 17  1  0
 17 18  2  0
 18 19  1  0
 19 20  1  0
 20 21  1  0
 21 22  1  0
 22 23  1  0
 22 24  1  0
 24 25  1  0
 24 26  1  0
 19 27  1  0
 27 28  1  6
 27 29  1  0
 29 30  1  0
 30 31  1  0
 31 32  1  6
  7  5  1  0
 31 10  1  0
 31 13  1  0
 27 15  1  0
 24 18  1  0
  1 33  1  0
  1 34  1  0
  1 35  1  0
  2 36  1  1
  3 37  1  0
  3 38  1  0
  4 39  1  0
  4 40  1  0
  5 41  1  1
  8 42  1  0
  8 43  1  0
  8 44  1  0
  9 45  1  0
  9 46  1  0
  9 47  1  0
 10 48  1  1
 11 49  1  0
 11 50  1  0
 12 51  1  0
 12 52  1  0
 14 53  1  0
 14 54  1  0
 14 55  1  0
 15 56  1  6
 16 57  1  0
 16 58  1  0
 17 59  1  0
 19 60  1  1
 20 61  1  0
 20 62  1  0
 21 63  1  0
 21 64  1  0
 22 65  1  1
 23 66  1  0
 25 67  1  0
 25 68  1  0
 25 69  1  0
 26 70  1  0
 26 71  1  0
 26 72  1  0
 28 73  1  0
 28 74  1  0
 28 75  1  0
 29 76  1  0
 29 77  1  0
 30 78  1  0
 30 79  1  0
 32 80  1  0
 32 81  1  0
 32 82  1  0
M  END
>  <meeko>  (4) 
{"is_sidechain": [false], "intermolecular_energy": 2.731, "internal_energy": -0.839}

$$$$
EPH_relaxed_0001_pdb2pqr_Repair_152_r2_0001_out
     RDKit          3D

 82 86  0  0  0  0  0  0  0  0999 V2000
   -1.6030    8.6890   -1.8870 C   0  0  0  0  0  0  0  0  0  0  0  0
   -2.0120    9.1610   -0.4890 C   0  0  2  0  0  0  0  0  0  0  0  0
   -3.5190    9.4740   -0.3990 C   0  0  0  0  0  0  0  0  0  0  0  0
   -4.4030    8.2280   -0.3080 C   0  0  0  0  0  0  0  0  0  0  0  0
   -5.1080    7.9530   -1.6010 C   0  0  2  0  0  0  0  0  0  0  0  0
   -6.3090    8.7090   -1.8010 O   0  0  0  0  0  0  0  0  0  0  0  0
   -6.4680    7.2860   -1.6870 C   0  0  0  0  0  0  0  0  0  0  0  0
   -7.2030    6.8520   -0.4580 C   0  0  0  0  0  0  0  0  0  0  0  0
   -6.8580    6.6180   -2.9690 C   0  0  0  0  0  0  0  0  0  0  0  0
   -1.1990   10.3890   -0.0970 C   0  0  1  0  0  0  0  0  0  0  0  0
   -0.2280   10.1130    1.0810 C   0  0  0  0  0  0  0  0  0  0  0  0
    1.0410   10.9650    0.8240 C   0  0  0  0  0  0  0  0  0  0  0  0
    0.6310   11.9460   -0.2990 C   0  0  1  0  0  0  0  0  0  0  0  0
   -0.1430   13.0890    0.4290 C   0  0  0  0  0  0  0  0  0  0  0  0
    1.7920   12.5070   -1.1840 C   0  0  2  0  0  0  0  0  0  0  0  0
    2.8360   13.3510   -0.4330 C   0  0  0  0  0  0  0  0  0  0  0  0
    2.5500   14.8150   -0.3730 C   0  0  0  0  0  0  0  0  0  0  0  0
    1.6560   15.4690   -1.1380 C   0  0  0  0  0  0  0  0  0  0  0  0
    0.8880   14.7410   -2.2490 C   0  0  1  0  0  0  0  0  0  0  0  0
    0.9170   15.5960   -3.5430 C   0  0  0  0  0  0  0  0  0  0  0  0
    0.4090   17.0170   -3.3170 C   0  0  0  0  0  0  0  0  0  0  0  0
    1.2340   17.7270   -2.2470 C   0  0  2  0  0  0  0  0  0  0  0  0
    2.5630   17.9210   -2.7420 O   0  0  0  0  0  0  0  0  0  0  0  0
    1.2860   16.9530   -0.9000 C   0  0  0  0  0  0  0  0  0  0  0  0
   -0.1030   17.0050   -0.2160 C   0  0  0  0  0  0  0  0  0  0  0  0
    2.2620   17.7050    0.0450 C   0  0  0  0  0  0  0  0  0  0  0  0
    1.3080   13.2300   -2.5060 C   0  0  1  0  0  0  0  0  0  0  0  0
    2.5010   13.1720   -3.5080 C   0  0  0  0  0  0  0  0  0  0  0  0
    0.1110   12.4750   -3.1970 C   0  0  0  0  0  0  0  0  0  0  0  0
   -0.9390   11.8390   -2.2670 C   0  0  0  0  0  0  0  0  0  0  0  0
   -0.2690   11.0000   -1.1750 C   0  0  2  0  0  0  0  0  0  0  0  0
    0.4990    9.8280   -1.8760 C   0  0  0  0  0  0  0  0  0  0  0  0
   -0.8850    7.8604   -1.7988 H   0  0  0  0  0  0  0  0  0  0  0  0
   -2.4939    8.3456   -2.4333 H   0  0  0  0  0  0  0  0  0  0  0  0
   -1.1363    9.5219   -2.4333 H   0  0  0  0  0  0  0  0  0  0  0  0
   -1.8045    8.3391    0.2120 H   0  0  0  0  0  0  0  0  0  0  0  0
   -3.6929   10.0890    0.4963 H   0  0  0  0  0  0  0  0  0  0  0  0
   -3.7944    9.9958   -1.3274 H   0  0  0  0  0  0  0  0  0  0  0  0
   -3.7737    7.3623   -0.0540 H   0  0  0  0  0  0  0  0  0  0  0  0
   -5.1639    8.4033    0.4668 H   0  0  0  0  0  0  0  0  0  0  0  0
   -4.1522    7.7477   -2.1053 H   0  0  0  0  0  0  0  0  0  0  0  0
   -6.6496    7.1788    0.4348 H   0  0  0  0  0  0  0  0  0  0  0  0
   -8.2065    7.3025   -0.4526 H   0  0  0  0  0  0  0  0  0  0  0  0
   -7.2932    5.7557   -0.4526 H   0  0  0  0  0  0  0  0  0  0  0  0
   -7.4012    5.6876   -2.7472 H   0  0  0  0  0  0  0  0  0  0  0  0
   -7.5053    7.2907   -3.5508 H   0  0  0  0  0  0  0  0  0  0  0  0
   -5.9540    6.3850   -3.5508 H   0  0  0  0  0  0  0  0  0  0  0  0
   -2.0185   11.0861    0.1321 H   0  0  0  0  0  0  0  0  0  0  0  0
   -0.6946   10.4061    2.0330 H   0  0  0  0  0  0  0  0  0  0  0  0
    0.0209    9.0435    1.1452 H   0  0  0  0  0  0  0  0  0  0  0  0
    1.3309   11.5136    1.7323 H   0  0  0  0  0  0  0  0  0  0  0  0
    1.9078   10.3485    0.5436 H   0  0  0  0  0  0  0  0  0  0  0  0
   -0.0536   12.9570    1.5174 H   0  0  0  0  0  0  0  0  0  0  0  0
    0.2832   14.0614    0.1414 H   0  0  0  0  0  0  0  0  0  0  0  0
   -1.2042   13.0542    0.1414 H   0  0  0  0  0  0  0  0  0  0  0  0
    2.3155   11.5906   -1.4940 H   0  0  0  0  0  0  0  0  0  0  0  0
    2.8988   12.9745    0.5987 H   0  0  0  0  0  0  0  0  0  0  0  0
    3.7741   13.2475   -0.9981 H   0  0  0  0  0  0  0  0  0  0  0  0
    3.1177   15.4095    0.3580 H   0  0  0  0  0  0  0  0  0  0  0  0
   -0.1470   14.6421   -1.8900 H   0  0  0  0  0  0  0  0  0  0  0  0
    1.9530   15.6460   -3.9094 H   0  0  0  0  0  0  0  0  0  0  0  0
    0.2512   15.1160   -4.2753 H   0  0  0  0  0  0  0  0  0  0  0  0
    0.4813   17.5794   -4.2596 H   0  0  0  0  0  0  0  0  0  0  0  0
   -0.6365   16.9667   -2.9786 H   0  0  0  0  0  0  0  0  0  0  0  0
    0.7440   18.6893   -2.0374 H   0  0  0  0  0  0  0  0  0  0  0  0
    2.9670   18.6380   -2.2260 H   0  0  0  0  0  0  0  0  0  0  0  0
    0.0258   17.0002    0.8764 H   0  0  0  0  0  0  0  0  0  0  0  0
   -0.6270   17.9234   -0.5194 H   0  0  0  0  0  0  0  0  0  0  0  0
   -0.6942   16.1284   -0.5194 H   0  0  0  0  0  0  0  0  0  0  0  0
    1.9925   17.4974    1.0911 H   0  0  0  0  0  0  0  0  0  0  0  0
    3.2906   17.3637   -0.1433 H   0  0  0  0  0  0  0  0  0  0  0  0
    2.1943   18.7866   -0.1433 H   0  0  0  0  0  0  0  0  0  0  0  0
    3.4473   13.1260   -2.9491 H   0  0  0  0  0  0  0  0  0  0  0  0
    2.4051   12.2775   -4.1409 H   0  0  0  0  0  0  0  0  0  0  0  0
    2.4923   14.0716   -4.1409 H   0  0  0  0  0  0  0  0  0  0  0  0
   -0.4101   13.1977   -3.8421 H   0  0  0  0  0  0  0  0  0  0  0  0
    0.5727   11.6305   -3.7295 H   0  0  0  0  0  0  0  0  0  0  0  0
   -1.5316   12.6365   -1.7950 H   0  0  0  0  0  0  0  0  0  0  0  0
   -1.5857   11.1816   -2.8666 H   0  0  0  0  0  0  0  0  0  0  0  0
    0.9331    9.1656   -1.1126 H   0  0  0  0  0  0  0  0  0  0  0  0
   -0.1997    9.2555   -2.5038 H   0  0  0  0  0  0  0  0  0  0  0  0
    1.3028   10.2400   -2.5038 H   0  0  0  0  0  0  0  0  0  0  0  0
  1  2  1  0
  2  3  1  0
  3  4  1  0
  4  5  1  0
  5  6  1  0
  6  7  1  0
  7  8  1  0
  7  9  1  0
  2 10  1  0
 10 11  1  0
 11 12  1  0
 12 13  1  0
 13 14  1  1
 13 15  1  0
 15 16  1  0
 16 17  1  0
 17 18  2  0
 18 19  1  0
 19 20  1  0
 20 21  1  0
 21 22  1  0
 22 23  1  0
 22 24  1  0
 24 25  1  0
 24 26  1  0
 19 27  1  0
 27 28  1  6
 27 29  1  0
 29 30  1  0
 30 31  1  0
 31 32  1  6
  7  5  1  0
 31 10  1  0
 31 13  1  0
 27 15  1  0
 24 18  1  0
  1 33  1  0
  1 34  1  0
  1 35  1  0
  2 36  1  1
  3 37  1  0
  3 38  1  0
  4 39  1  0
  4 40  1  0
  5 41  1  6
  8 42  1  0
  8 43  1  0
  8 44  1  0
  9 45  1  0
  9 46  1  0
  9 47  1  0
 10 48  1  1
 11 49  1  0
 11 50  1  0
 12 51  1  0
 12 52  1  0
 14 53  1  0
 14 54  1  0
 14 55  1  0
 15 56  1  6
 16 57  1  0
 16 58  1  0
 17 59  1  0
 19 60  1  1
 20 61  1  0
 20 62  1  0
 21 63  1  0
 21 64  1  0
 22 65  1  1
 23 66  1  0
 25 67  1  0
 25 68  1  0
 25 69  1  0
 26 70  1  0
 26 71  1  0
 26 72  1  0
 28 73  1  0
 28 74  1  0
 28 75  1  0
 29 76  1  0
 29 77  1  0
 30 78  1  0
 30 79  1  0
 32 80  1  0
 32 81  1  0
 32 82  1  0
M  END
>  <meeko>  (5) 
{"is_sidechain": [false], "intermolecular_energy": 2.731, "internal_energy": -0.839}

$$$$
EPH_relaxed_0001_pdb2pqr_Repair_152_r2_0001_out
     RDKit          3D

 82 86  0  0  0  0  0  0  0  0999 V2000
    3.6820   17.9030   -1.3640 C   0  0  0  0  0  0  0  0  0  0  0  0
    2.6460   17.4430   -2.3930 C   0  0  2  0  0  0  0  0  0  0  0  0
    1.2280   17.9480   -2.0570 C   0  0  0  0  0  0  0  0  0  0  0  0
    1.1710   18.8340   -0.8100 C   0  0  0  0  0  0  0  0  0  0  0  0
   -0.0750   19.6660   -0.7780 C   0  0  2  0  0  0  0  0  0  0  0  0
   -0.4210   20.1780    0.5150 O   0  0  0  0  0  0  0  0  0  0  0  0
   -1.3460   19.2440   -0.0650 C   0  0  0  0  0  0  0  0  0  0  0  0
   -1.4340   17.9410    0.6660 C   0  0  0  0  0  0  0  0  0  0  0  0
   -2.6430   19.8620   -0.4870 C   0  0  0  0  0  0  0  0  0  0  0  0
    2.6480   15.9220   -2.4880 C   0  0  1  0  0  0  0  0  0  0  0  0
    4.0740   15.3370   -2.6760 C   0  0  0  0  0  0  0  0  0  0  0  0
    4.1090   13.9890   -1.9110 C   0  0  0  0  0  0  0  0  0  0  0  0
    2.6260   13.6830   -1.5920 C   0  0  1  0  0  0  0  0  0  0  0  0
    2.0520   13.0660   -2.9060 C   0  0  0  0  0  0  0  0  0  0  0  0
    2.3610   12.7600   -0.3580 C   0  0  2  0  0  0  0  0  0  0  0  0
    2.9310   11.3360   -0.4740 C   0  0  0  0  0  0  0  0  0  0  0  0
    2.0080   10.3260   -1.0720 C   0  0  0  0  0  0  0  0  0  0  0  0
    0.6810   10.4810   -1.2380 C   0  0  0  0  0  0  0  0  0  0  0  0
   -0.0370   11.7310   -0.7130 C   0  0  1  0  0  0  0  0  0  0  0  0
   -1.3270   11.3090    0.0380 C   0  0  0  0  0  0  0  0  0  0  0  0
   -2.2370   10.4260   -0.8110 C   0  0  0  0  0  0  0  0  0  0  0  0
   -1.5050    9.1660   -1.2640 C   0  0  2  0  0  0  0  0  0  0  0  0
   -1.2270    8.3560   -0.1180 O   0  0  0  0  0  0  0  0  0  0  0  0
   -0.1830    9.4660   -2.0250 C   0  0  0  0  0  0  0  0  0  0  0  0
   -0.5070   10.0760   -3.4110 C   0  0  0  0  0  0  0  0  0  0  0  0
    0.5260    8.1130   -2.3020 C   0  0  0  0  0  0  0  0  0  0  0  0
    0.8550   12.7430    0.1270 C   0  0  1  0  0  0  0  0  0  0  0  0
    0.8750   12.3160    1.6260 C   0  0  0  0  0  0  0  0  0  0  0  0
    0.1950   14.1710    0.0800 C   0  0  0  0  0  0  0  0  0  0  0  0
    0.5880   15.0800   -1.1000 C   0  0  0  0  0  0  0  0  0  0  0  0
    2.1100   15.1320   -1.2690 C   0  0  2  0  0  0  0  0  0  0  0  0
    2.7140   15.7690    0.0290 C   0  0  0  0  0  0  0  0  0  0  0  0
    3.2930   17.7303   -0.3497 H   0  0  0  0  0  0  0  0  0  0  0  0
    4.6132   17.3337   -1.5015 H   0  0  0  0  0  0  0  0  0  0  0  0
    3.8842   18.9755   -1.5015 H   0  0  0  0  0  0  0  0  0  0  0  0
    2.9290   17.8770   -3.3634 H   0  0  0  0  0  0  0  0  0  0  0  0
    0.8539   18.5286   -2.9132 H   0  0  0  0  0  0  0  0  0  0  0  0
    0.6109   17.0611   -1.8503 H   0  0  0  0  0  0  0  0  0  0  0  0
    1.1950   18.1934    0.0839 H   0  0  0  0  0  0  0  0  0  0  0  0
    2.0363   19.5128   -0.8317 H   0  0  0  0  0  0  0  0  0  0  0  0
    0.1125   20.0263   -1.8003 H   0  0  0  0  0  0  0  0  0  0  0  0
   -1.4214   18.1272    1.7501 H   0  0  0  0  0  0  0  0  0  0  0  0
   -2.3687   17.4296    0.3926 H   0  0  0  0  0  0  0  0  0  0  0  0
   -0.5765   17.3086    0.3926 H   0  0  0  0  0  0  0  0  0  0  0  0
   -3.2244   20.1390    0.4047 H   0  0  0  0  0  0  0  0  0  0  0  0
   -2.4423   20.7613   -1.0879 H   0  0  0  0  0  0  0  0  0  0  0  0
   -3.2150   19.1397   -1.0879 H   0  0  0  0  0  0  0  0  0  0  0  0
    1.9750   15.7905   -3.3481 H   0  0  0  0  0  0  0  0  0  0  0  0
    4.2778   15.1717   -3.7442 H   0  0  0  0  0  0  0  0  0  0  0  0
    4.8384   16.0288   -2.2924 H   0  0  0  0  0  0  0  0  0  0  0  0
    4.5425   13.1970   -2.5393 H   0  0  0  0  0  0  0  0  0  0  0  0
    4.7290   14.0400   -1.0038 H   0  0  0  0  0  0  0  0  0  0  0  0
    1.3226   12.2819   -2.6548 H   0  0  0  0  0  0  0  0  0  0  0  0
    1.5569   13.8524   -3.4946 H   0  0  0  0  0  0  0  0  0  0  0  0
    2.8721   12.6289   -3.4946 H   0  0  0  0  0  0  0  0  0  0  0  0
    2.9453   13.2513    0.4340 H   0  0  0  0  0  0  0  0  0  0  0  0
    3.8353   11.3818   -1.0986 H   0  0  0  0  0  0  0  0  0  0  0  0
    3.1231   11.0004    0.5558 H   0  0  0  0  0  0  0  0  0  0  0  0
    2.4495    9.3751   -1.4050 H   0  0  0  0  0  0  0  0  0  0  0  0
   -0.2986   12.3264   -1.6002 H   0  0  0  0  0  0  0  0  0  0  0  0
   -1.0419   10.7535    0.9436 H   0  0  0  0  0  0  0  0  0  0  0  0
   -1.8850   12.2248    0.2831 H   0  0  0  0  0  0  0  0  0  0  0  0
   -3.1161   10.1375   -0.2160 H   0  0  0  0  0  0  0  0  0  0  0  0
   -2.5452   10.9929   -1.7019 H   0  0  0  0  0  0  0  0  0  0  0  0
   -2.1623    8.6396   -1.9717 H   0  0  0  0  0  0  0  0  0  0  0  0
   -1.2000    8.9430    0.6570 H   0  0  0  0  0  0  0  0  0  0  0  0
   -1.0191   11.0402   -3.2766 H   0  0  0  0  0  0  0  0  0  0  0  0
    0.4272   10.2319   -3.9705 H   0  0  0  0  0  0  0  0  0  0  0  0
   -1.1592    9.3893   -3.9705 H   0  0  0  0  0  0  0  0  0  0  0  0
    0.7793    7.6295   -1.3470 H   0  0  0  0  0  0  0  0  0  0  0  0
   -0.1450    7.4585   -2.8776 H   0  0  0  0  0  0  0  0  0  0  0  0
    1.4461    8.2923   -2.8776 H   0  0  0  0  0  0  0  0  0  0  0  0
    0.8330   13.2118    2.2630 H   0  0  0  0  0  0  0  0  0  0  0  0
    0.0059   11.6754    1.8364 H   0  0  0  0  0  0  0  0  0  0  0  0
    1.8002   11.7595    1.8364 H   0  0  0  0  0  0  0  0  0  0  0  0
   -0.8956   14.0324    0.0443 H   0  0  0  0  0  0  0  0  0  0  0  0
    0.5651   14.6885    0.9773 H   0  0  0  0  0  0  0  0  0  0  0  0
    0.1367   14.6869   -2.0229 H   0  0  0  0  0  0  0  0  0  0  0  0
    0.2228   16.0973   -0.8958 H   0  0  0  0  0  0  0  0  0  0  0  0
    2.2642   15.2947    0.9137 H   0  0  0  0  0  0  0  0  0  0  0  0
    3.8026   15.6118    0.0422 H   0  0  0  0  0  0  0  0  0  0  0  0
    2.4991   16.8477    0.0422 H   0  0  0  0  0  0  0  0  0  0  0  0
  1  2  1  0
  2  3  1  0
  3  4  1  0
  4  5  1  0
  5  6  1  0
  6  7  1  0
  7  8  1  0
  7  9  1  0
  2 10  1  0
 10 11  1  0
 11 12  1  0
 12 13  1  0
 13 14  1  6
 13 15  1  0
 15 16  1  0
 16 17  1  0
 17 18  2  0
 18 19  1  0
 19 20  1  0
 20 21  1  0
 21 22  1  0
 22 23  1  0
 22 24  1  0
 24 25  1  0
 24 26  1  0
 19 27  1  0
 27 28  1  1
 27 29  1  0
 29 30  1  0
 30 31  1  0
 31 32  1  1
  7  5  1  0
 31 10  1  0
 31 13  1  0
 27 15  1  0
 24 18  1  0
  1 33  1  0
  1 34  1  0
  1 35  1  0
  2 36  1  6
  3 37  1  0
  3 38  1  0
  4 39  1  0
  4 40  1  0
  5 41  1  6
  8 42  1  0
  8 43  1  0
  8 44  1  0
  9 45  1  0
  9 46  1  0
  9 47  1  0
 10 48  1  6
 11 49  1  0
 11 50  1  0
 12 51  1  0
 12 52  1  0
 14 53  1  0
 14 54  1  0
 14 55  1  0
 15 56  1  1
 16 57  1  0
 16 58  1  0
 17 59  1  0
 19 60  1  6
 20 61  1  0
 20 62  1  0
 21 63  1  0
 21 64  1  0
 22 65  1  6
 23 66  1  0
 25 67  1  0
 25 68  1  0
 25 69  1  0
 26 70  1  0
 26 71  1  0
 26 72  1  0
 28 73  1  0
 28 74  1  0
 28 75  1  0
 29 76  1  0
 29 77  1  0
 30 78  1  0
 30 79  1  0
 32 80  1  0
 32 81  1  0
 32 82  1  0
M  END
>  <meeko>  (6) 
{"is_sidechain": [false], "intermolecular_energy": 2.731, "internal_energy": -0.839}

$$$$
EPH_relaxed_0001_pdb2pqr_Repair_152_r2_0001_out
     RDKit          3D

 82 86  0  0  0  0  0  0  0  0999 V2000
   -2.6140    7.6190   -3.0480 C   0  0  0  0  0  0  0  0  0  0  0  0
   -2.8860    7.8740   -1.5620 C   0  0  2  0  0  0  0  0  0  0  0  0
   -4.3910    7.8370   -1.2330 C   0  0  0  0  0  0  0  0  0  0  0  0
   -5.1330    6.6610   -1.8750 C   0  0  0  0  0  0  0  0  0  0  0  0
   -6.3330    7.1180   -2.6480 C   0  0  2  0  0  0  0  0  0  0  0  0
   -6.8910    8.3630   -2.2070 O   0  0  0  0  0  0  0  0  0  0  0  0
   -7.7270    7.2040   -2.0560 C   0  0  0  0  0  0  0  0  0  0  0  0
   -7.9940    6.8290   -0.6320 C   0  0  0  0  0  0  0  0  0  0  0  0
   -8.9010    7.1820   -2.9840 C   0  0  0  0  0  0  0  0  0  0  0  0
   -2.2950    9.2180   -1.1490 C   0  0  1  0  0  0  0  0  0  0  0  0
   -2.7980    9.6890    0.2410 C   0  0  0  0  0  0  0  0  0  0  0  0
   -1.6180   10.4360    0.9140 C   0  0  0  0  0  0  0  0  0  0  0  0
   -0.5970   10.6590   -0.2260 C   0  0  1  0  0  0  0  0  0  0  0  0
   -1.1200   11.9150   -0.9920 C   0  0  0  0  0  0  0  0  0  0  0  0
    0.8960   10.8270    0.2060 C   0  0  2  0  0  0  0  0  0  0  0  0
    1.1850   12.0500    1.0940 C   0  0  0  0  0  0  0  0  0  0  0  0
    1.5490   13.2990    0.3620 C   0  0  0  0  0  0  0  0  0  0  0  0
    1.9180   13.3680   -0.9300 C   0  0  0  0  0  0  0  0  0  0  0  0
    2.0930   12.0960   -1.7690 C   0  0  1  0  0  0  0  0  0  0  0  0
    3.4240   12.1770   -2.5620 C   0  0  0  0  0  0  0  0  0  0  0  0
    3.5290   13.4470   -3.4000 C   0  0  0  0  0  0  0  0  0  0  0  0
    3.4090   14.6910   -2.5240 C   0  0  2  0  0  0  0  0  0  0  0  0
    4.5510   14.7610   -1.6640 O   0  0  0  0  0  0  0  0  0  0  0  0
    2.1100   14.7150   -1.6700 C   0  0  0  0  0  0  0  0  0  0  0  0
    0.8860   14.9430   -2.5910 C   0  0  0  0  0  0  0  0  0  0  0  0
    2.1810   15.9480   -0.7290 C   0  0  0  0  0  0  0  0  0  0  0  0
    1.9320   10.7220   -0.9860 C   0  0  1  0  0  0  0  0  0  0  0  0
    3.2960   10.3050   -0.3560 C   0  0  0  0  0  0  0  0  0  0  0  0
    1.5510    9.5880   -2.0110 C   0  0  0  0  0  0  0  0  0  0  0  0
    0.0520    9.3920   -2.3050 C   0  0  0  0  0  0  0  0  0  0  0  0
   -0.7550    9.3040   -1.0060 C   0  0  2  0  0  0  0  0  0  0  0  0
   -0.2660    8.0370   -0.2250 C   0  0  0  0  0  0  0  0  0  0  0  0
   -1.8151    6.8700   -3.1513 H   0  0  0  0  0  0  0  0  0  0  0  0
   -3.5301    7.2467   -3.5298 H   0  0  0  0  0  0  0  0  0  0  0  0
   -2.3015    8.5572   -3.5298 H   0  0  0  0  0  0  0  0  0  0  0  0
   -2.4040    7.0651   -0.9933 H   0  0  0  0  0  0  0  0  0  0  0  0
   -4.5062    7.7659   -0.1414 H   0  0  0  0  0  0  0  0  0  0  0  0
   -4.8323    8.7576   -1.6426 H   0  0  0  0  0  0  0  0  0  0  0  0
   -4.4477    6.1370   -2.5575 H   0  0  0  0  0  0  0  0  0  0  0  0
   -5.4768    5.9928   -1.0716 H   0  0  0  0  0  0  0  0  0  0  0  0
   -5.9491    6.6490   -3.5660 H   0  0  0  0  0  0  0  0  0  0  0  0
   -7.4871    7.5410    0.0359 H   0  0  0  0  0  0  0  0  0  0  0  0
   -9.0772    6.8561   -0.4426 H   0  0  0  0  0  0  0  0  0  0  0  0
   -7.6140    5.8143   -0.4426 H   0  0  0  0  0  0  0  0  0  0  0  0
   -9.8316    7.1646   -2.3977 H   0  0  0  0  0  0  0  0  0  0  0  0
   -8.8840    8.0806   -3.6182 H   0  0  0  0  0  0  0  0  0  0  0  0
   -8.8503    6.2846   -3.6182 H   0  0  0  0  0  0  0  0  0  0  0  0
   -2.6287    9.8347   -1.9965 H   0  0  0  0  0  0  0  0  0  0  0  0
   -3.6572   10.3658    0.1236 H   0  0  0  0  0  0  0  0  0  0  0  0
   -3.1254    8.8354    0.8526 H   0  0  0  0  0  0  0  0  0  0  0  0
   -1.9533   11.3980    1.3288 H   0  0  0  0  0  0  0  0  0  0  0  0
   -1.1892    9.8686    1.7532 H   0  0  0  0  0  0  0  0  0  0  0  0
   -1.4384   12.6797   -0.2682 H   0  0  0  0  0  0  0  0  0  0  0  0
   -0.3159   12.3204   -1.6237 H   0  0  0  0  0  0  0  0  0  0  0  0
   -1.9742   11.6299   -1.6237 H   0  0  0  0  0  0  0  0  0  0  0  0
    1.0556    9.9473    0.8468 H   0  0  0  0  0  0  0  0  0  0  0  0
    0.2847   12.2565    1.6913 H   0  0  0  0  0  0  0  0  0  0  0  0
    2.0646   11.7851    1.6991 H   0  0  0  0  0  0  0  0  0  0  0  0
    1.5125   14.2424    0.9265 H   0  0  0  0  0  0  0  0  0  0  0  0
    1.2436   12.0733   -2.4676 H   0  0  0  0  0  0  0  0  0  0  0  0
    4.2613   12.1548   -1.8489 H   0  0  0  0  0  0  0  0  0  0  0  0
    3.4555   11.3193   -3.2501 H   0  0  0  0  0  0  0  0  0  0  0  0
    4.5021   13.4604   -3.9127 H   0  0  0  0  0  0  0  0  0  0  0  0
    2.7080   13.4530   -4.1321 H   0  0  0  0  0  0  0  0  0  0  0  0
    3.3614   15.5628   -3.1931 H   0  0  0  0  0  0  0  0  0  0  0  0
    5.0210   13.9130   -1.7300 H   0  0  0  0  0  0  0  0  0  0  0  0
   -0.0101   15.1099   -1.9753 H   0  0  0  0  0  0  0  0  0  0  0  0
    1.0638   15.8235   -3.2259 H   0  0  0  0  0  0  0  0  0  0  0  0
    0.7349   14.0576   -3.2259 H   0  0  0  0  0  0  0  0  0  0  0  0
    2.1616   15.6117    0.3181 H   0  0  0  0  0  0  0  0  0  0  0  0
    3.1125   16.5013   -0.9192 H   0  0  0  0  0  0  0  0  0  0  0  0
    1.3192   16.6046   -0.9192 H   0  0  0  0  0  0  0  0  0  0  0  0
    3.2160   10.3294    0.7408 H   0  0  0  0  0  0  0  0  0  0  0  0
    3.5545    9.2868   -0.6822 H   0  0  0  0  0  0  0  0  0  0  0  0
    4.0797   11.0046   -0.6822 H   0  0  0  0  0  0  0  0  0  0  0  0
    2.0494    9.8197   -2.9639 H   0  0  0  0  0  0  0  0  0  0  0  0
    1.8760    8.6504   -1.5365 H   0  0  0  0  0  0  0  0  0  0  0  0
   -0.3127   10.2436   -2.8981 H   0  0  0  0  0  0  0  0  0  0  0  0
   -0.0761    8.4519   -2.8616 H   0  0  0  0  0  0  0  0  0  0  0  0
   -0.3377    8.2228    0.8568 H   0  0  0  0  0  0  0  0  0  0  0  0
   -0.8964    7.1759   -0.4917 H   0  0  0  0  0  0  0  0  0  0  0  0
    0.7794    7.8227   -0.4917 H   0  0  0  0  0  0  0  0  0  0  0  0
  1  2  1  0
  2  3  1  0
  3  4  1  0
  4  5  1  0
  5  6  1  0
  6  7  1  0
  7  8  1  0
  7  9  1  0
  2 10  1  0
 10 11  1  0
 11 12  1  0
 12 13  1  0
 13 14  1  6
 13 15  1  0
 15 16  1  0
 16 17  1  0
 17 18  2  0
 18 19  1  0
 19 20  1  0
 20 21  1  0
 21 22  1  0
 22 23  1  0
 22 24  1  0
 24 25  1  0
 24 26  1  0
 19 27  1  0
 27 28  1  1
 27 29  1  0
 29 30  1  0
 30 31  1  0
 31 32  1  1
  7  5  1  0
 31 10  1  0
 31 13  1  0
 27 15  1  0
 24 18  1  0
  1 33  1  0
  1 34  1  0
  1 35  1  0
  2 36  1  1
  3 37  1  0
  3 38  1  0
  4 39  1  0
  4 40  1  0
  5 41  1  6
  8 42  1  0
  8 43  1  0
  8 44  1  0
  9 45  1  0
  9 46  1  0
  9 47  1  0
 10 48  1  6
 11 49  1  0
 11 50  1  0
 12 51  1  0
 12 52  1  0
 14 53  1  0
 14 54  1  0
 14 55  1  0
 15 56  1  1
 16 57  1  0
 16 58  1  0
 17 59  1  0
 19 60  1  6
 20 61  1  0
 20 62  1  0
 21 63  1  0
 21 64  1  0
 22 65  1  6
 23 66  1  0
 25 67  1  0
 25 68  1  0
 25 69  1  0
 26 70  1  0
 26 71  1  0
 26 72  1  0
 28 73  1  0
 28 74  1  0
 28 75  1  0
 29 76  1  0
 29 77  1  0
 30 78  1  0
 30 79  1  0
 32 80  1  0
 32 81  1  0
 32 82  1  0
M  END
>  <meeko>  (7) 
{"is_sidechain": [false], "intermolecular_energy": 2.731, "internal_energy": -0.839}

$$$$
EPH_relaxed_0001_pdb2pqr_Repair_152_r2_0001_out
     RDKit          3D

 82 86  0  0  0  0  0  0  0  0999 V2000
    0.4100   17.8080   -0.1910 C   0  0  0  0  0  0  0  0  0  0  0  0
    1.3130   17.1140   -1.2150 C   0  0  2  0  0  0  0  0  0  0  0  0
    1.6630   18.0350   -2.4000 C   0  0  0  0  0  0  0  0  0  0  0  0
    3.1650   18.2840   -2.5630 C   0  0  0  0  0  0  0  0  0  0  0  0
    3.9690   17.0660   -2.2220 C   0  0  2  0  0  0  0  0  0  0  0  0
    5.1250   17.3200   -1.4140 O   0  0  0  0  0  0  0  0  0  0  0  0
    5.3740   16.8210   -2.7380 C   0  0  0  0  0  0  0  0  0  0  0  0
    6.0570   17.8010   -3.6390 C   0  0  0  0  0  0  0  0  0  0  0  0
    5.8910   15.4160   -2.7650 C   0  0  0  0  0  0  0  0  0  0  0  0
    0.6400   15.8440   -1.7230 C   0  0  1  0  0  0  0  0  0  0  0  0
    0.2050   15.9520   -3.2080 C   0  0  0  0  0  0  0  0  0  0  0  0
    0.3910   14.5450   -3.8330 C   0  0  0  0  0  0  0  0  0  0  0  0
    0.6060   13.6060   -2.6220 C   0  0  1  0  0  0  0  0  0  0  0  0
   -0.8280   13.3140   -2.0810 C   0  0  0  0  0  0  0  0  0  0  0  0
    1.3970   12.2870   -2.9020 C   0  0  2  0  0  0  0  0  0  0  0  0
    0.7280   11.3240   -3.8980 C   0  0  0  0  0  0  0  0  0  0  0  0
   -0.1880   10.3140   -3.2900 C   0  0  0  0  0  0  0  0  0  0  0  0
   -0.2470    9.9980   -1.9830 C   0  0  0  0  0  0  0  0  0  0  0  0
    0.7360   10.6130   -0.9790 C   0  0  1  0  0  0  0  0  0  0  0  0
    1.3010    9.4990   -0.0590 C   0  0  0  0  0  0  0  0  0  0  0  0
    0.2020    8.6890    0.6220 C   0  0  0  0  0  0  0  0  0  0  0  0
   -0.7210    8.0460   -0.4110 C   0  0  2  0  0  0  0  0  0  0  0  0
    0.0190    7.0610   -1.1390 O   0  0  0  0  0  0  0  0  0  0  0  0
   -1.3420    9.0710   -1.4000 C   0  0  0  0  0  0  0  0  0  0  0  0
   -2.3780    9.9500   -0.6570 C   0  0  0  0  0  0  0  0  0  0  0  0
   -2.1360    8.2770   -2.4730 C   0  0  0  0  0  0  0  0  0  0  0  0
    1.8770   11.5300   -1.5980 C   0  0  1  0  0  0  0  0  0  0  0  0
    3.0960   10.6520   -2.0160 C   0  0  0  0  0  0  0  0  0  0  0  0
    2.4000   12.5180   -0.4900 C   0  0  0  0  0  0  0  0  0  0  0  0
    1.6510   13.8560   -0.3430 C   0  0  0  0  0  0  0  0  0  0  0  0
    1.4760   14.5390   -1.7020 C   0  0  2  0  0  0  0  0  0  0  0  0
    2.9030   14.8660   -2.2610 C   0  0  0  0  0  0  0  0  0  0  0  0
    0.7436   17.5516    0.8254 H   0  0  0  0  0  0  0  0  0  0  0  0
    0.4662   18.8975   -0.3314 H   0  0  0  0  0  0  0  0  0  0  0  0
   -0.6284   17.4733   -0.3314 H   0  0  0  0  0  0  0  0  0  0  0  0
    2.2548   16.8590   -0.7071 H   0  0  0  0  0  0  0  0  0  0  0  0
    1.2856   17.5715   -3.3234 H   0  0  0  0  0  0  0  0  0  0  0  0
    1.1954   19.0101   -2.1985 H   0  0  0  0  0  0  0  0  0  0  0  0
    3.3686   18.5648   -3.6069 H   0  0  0  0  0  0  0  0  0  0  0  0
    3.4556   19.0907   -1.8740 H   0  0  0  0  0  0  0  0  0  0  0  0
    3.0646   16.4399   -2.2190 H   0  0  0  0  0  0  0  0  0  0  0  0
    6.5815   18.5535   -3.0318 H   0  0  0  0  0  0  0  0  0  0  0  0
    6.7827   17.2714   -4.2738 H   0  0  0  0  0  0  0  0  0  0  0  0
    5.3090   18.2985   -4.2738 H   0  0  0  0  0  0  0  0  0  0  0  0
    6.0241   15.0544   -1.7347 H   0  0  0  0  0  0  0  0  0  0  0  0
    5.1715   14.7706   -3.2901 H   0  0  0  0  0  0  0  0  0  0  0  0
    6.8573   15.3909   -3.2901 H   0  0  0  0  0  0  0  0  0  0  0  0
   -0.1874   15.7722   -1.0017 H   0  0  0  0  0  0  0  0  0  0  0  0
   -0.8495   16.2585   -3.2723 H   0  0  0  0  0  0  0  0  0  0  0  0
    0.8057   16.7034   -3.7415 H   0  0  0  0  0  0  0  0  0  0  0  0
   -0.5048   14.2499   -4.3991 H   0  0  0  0  0  0  0  0  0  0  0  0
    1.2314   14.5110   -4.5420 H   0  0  0  0  0  0  0  0  0  0  0  0
   -0.8126   13.3171   -0.9811 H   0  0  0  0  0  0  0  0  0  0  0  0
   -1.5204   14.0896   -2.4402 H   0  0  0  0  0  0  0  0  0  0  0  0
   -1.1620   12.3294   -2.4402 H   0  0  0  0  0  0  0  0  0  0  0  0
    2.3016   12.6568   -3.4069 H   0  0  0  0  0  0  0  0  0  0  0  0
    0.1459   11.9243   -4.6127 H   0  0  0  0  0  0  0  0  0  0  0  0
    1.5442   10.7531   -4.3648 H   0  0  0  0  0  0  0  0  0  0  0  0
   -0.8728    9.7831   -3.9676 H   0  0  0  0  0  0  0  0  0  0  0  0
    0.1525   11.3298   -0.3826 H   0  0  0  0  0  0  0  0  0  0  0  0
    1.9158    8.8184   -0.6662 H   0  0  0  0  0  0  0  0  0  0  0  0
    1.8940    9.9859    0.7292 H   0  0  0  0  0  0  0  0  0  0  0  0
    0.6630    7.8996    1.2338 H   0  0  0  0  0  0  0  0  0  0  0  0
   -0.3936    9.3655    1.2526 H   0  0  0  0  0  0  0  0  0  0  0  0
   -1.5604    7.5897    0.1342 H   0  0  0  0  0  0  0  0  0  0  0  0
    0.7400    6.7510   -0.5660 H   0  0  0  0  0  0  0  0  0  0  0  0
   -2.2439    9.8362    0.4288 H   0  0  0  0  0  0  0  0  0  0  0  0
   -2.2320   11.0040   -0.9360 H   0  0  0  0  0  0  0  0  0  0  0  0
   -3.3941    9.6342   -0.9360 H   0  0  0  0  0  0  0  0  0  0  0  0
   -2.8301    7.5829   -1.9765 H   0  0  0  0  0  0  0  0  0  0  0  0
   -2.7052    8.9780   -3.1012 H   0  0  0  0  0  0  0  0  0  0  0  0
   -1.4350    7.7078   -3.1012 H   0  0  0  0  0  0  0  0  0  0  0  0
    3.6082   10.2831   -1.1152 H   0  0  0  0  0  0  0  0  0  0  0  0
    2.7449    9.7980   -2.6139 H   0  0  0  0  0  0  0  0  0  0  0  0
    3.7948   11.2556   -2.6139 H   0  0  0  0  0  0  0  0  0  0  0  0
    2.3410   11.9957    0.4763 H   0  0  0  0  0  0  0  0  0  0  0  0
    3.4179   12.7910   -0.8051 H   0  0  0  0  0  0  0  0  0  0  0  0
    0.6598   13.6671    0.0950 H   0  0  0  0  0  0  0  0  0  0  0  0
    2.2404   14.5179    0.3085 H   0  0  0  0  0  0  0  0  0  0  0  0
    3.5975   15.0251   -1.4229 H   0  0  0  0  0  0  0  0  0  0  0  0
    3.2572   14.0257   -2.8762 H   0  0  0  0  0  0  0  0  0  0  0  0
    2.8560   15.7767   -2.8762 H   0  0  0  0  0  0  0  0  0  0  0  0
  1  2  1  0
  2  3  1  0
  3  4  1  0
  4  5  1  0
  5  6  1  0
  6  7  1  0
  7  8  1  0
  7  9  1  0
  2 10  1  0
 10 11  1  0
 11 12  1  0
 12 13  1  0
 13 14  1  1
 13 15  1  0
 15 16  1  0
 16 17  1  0
 17 18  2  0
 18 19  1  0
 19 20  1  0
 20 21  1  0
 21 22  1  0
 22 23  1  0
 22 24  1  0
 24 25  1  0
 24 26  1  0
 19 27  1  0
 27 28  1  6
 27 29  1  0
 29 30  1  0
 30 31  1  0
 31 32  1  6
  7  5  1  0
 31 10  1  0
 31 13  1  0
 27 15  1  0
 24 18  1  0
  1 33  1  0
  1 34  1  0
  1 35  1  0
  2 36  1  1
  3 37  1  0
  3 38  1  0
  4 39  1  0
  4 40  1  0
  5 41  1  1
  8 42  1  0
  8 43  1  0
  8 44  1  0
  9 45  1  0
  9 46  1  0
  9 47  1  0
 10 48  1  1
 11 49  1  0
 11 50  1  0
 12 51  1  0
 12 52  1  0
 14 53  1  0
 14 54  1  0
 14 55  1  0
 15 56  1  6
 16 57  1  0
 16 58  1  0
 17 59  1  0
 19 60  1  1
 20 61  1  0
 20 62  1  0
 21 63  1  0
 21 64  1  0
 22 65  1  1
 23 66  1  0
 25 67  1  0
 25 68  1  0
 25 69  1  0
 26 70  1  0
 26 71  1  0
 26 72  1  0
 28 73  1  0
 28 74  1  0
 28 75  1  0
 29 76  1  0
 29 77  1  0
 30 78  1  0
 30 79  1  0
 32 80  1  0
 32 81  1  0
 32 82  1  0
M  END
>  <meeko>  (8) 
{"is_sidechain": [false], "intermolecular_energy": 2.731, "internal_energy": -0.839}

$$$$
EPH_relaxed_0001_pdb2pqr_Repair_152_r2_0001_out
     RDKit          3D

 82 86  0  0  0  0  0  0  0  0999 V2000
    3.9780   17.8010   -2.6850 C   0  0  0  0  0  0  0  0  0  0  0  0
    2.6790   17.2440   -2.0950 C   0  0  2  0  0  0  0  0  0  0  0  0
    2.5160   17.6040   -0.6050 C   0  0  0  0  0  0  0  0  0  0  0  0
    3.7590   18.2530    0.0100 C   0  0  0  0  0  0  0  0  0  0  0  0
    3.4750   18.8160    1.3700 C   0  0  2  0  0  0  0  0  0  0  0  0
    3.8510   20.1890    1.5400 O   0  0  0  0  0  0  0  0  0  0  0  0
    4.5580   19.2340    2.3460 C   0  0  0  0  0  0  0  0  0  0  0  0
    6.0090   19.1040    2.0040 C   0  0  0  0  0  0  0  0  0  0  0  0
    4.2200   19.3060    3.8030 C   0  0  0  0  0  0  0  0  0  0  0  0
    2.6350   15.7310   -2.2740 C   0  0  1  0  0  0  0  0  0  0  0  0
    4.0340   15.1220   -2.5570 C   0  0  0  0  0  0  0  0  0  0  0  0
    4.0640   13.7320   -1.8700 C   0  0  0  0  0  0  0  0  0  0  0  0
    2.5890   13.4470   -1.5020 C   0  0  1  0  0  0  0  0  0  0  0  0
    1.9420   12.9200   -2.8210 C   0  0  0  0  0  0  0  0  0  0  0  0
    2.3520   12.4640   -0.3100 C   0  0  2  0  0  0  0  0  0  0  0  0
    2.8760   11.0340   -0.5290 C   0  0  0  0  0  0  0  0  0  0  0  0
    1.9000   10.0830   -1.1400 C   0  0  0  0  0  0  0  0  0  0  0  0
    0.5720   10.2810   -1.2370 C   0  0  0  0  0  0  0  0  0  0  0  0
   -0.0880   11.5170   -0.6130 C   0  0  1  0  0  0  0  0  0  0  0  0
   -1.3550   11.0870    0.1720 C   0  0  0  0  0  0  0  0  0  0  0  0
   -2.3250   10.2770   -0.6830 C   0  0  0  0  0  0  0  0  0  0  0  0
   -1.6480    9.0260   -1.2370 C   0  0  2  0  0  0  0  0  0  0  0  0
   -1.3440    8.1460   -0.1500 O   0  0  0  0  0  0  0  0  0  0  0  0
   -0.3530    9.3340   -2.0390 C   0  0  0  0  0  0  0  0  0  0  0  0
   -0.7200   10.0290   -3.3740 C   0  0  0  0  0  0  0  0  0  0  0  0
    0.3050    7.9810   -2.4210 C   0  0  0  0  0  0  0  0  0  0  0  0
    0.8690   12.4570    0.2400 C   0  0  1  0  0  0  0  0  0  0  0  0
    0.9410   11.9470    1.7120 C   0  0  0  0  0  0  0  0  0  0  0  0
    0.2470   13.9030    0.3020 C   0  0  0  0  0  0  0  0  0  0  0  0
    0.6140   14.8660   -0.8430 C   0  0  0  0  0  0  0  0  0  0  0  0
    2.1280   14.8880   -1.0760 C   0  0  2  0  0  0  0  0  0  0  0  0
    2.8050   15.4350    0.2260 C   0  0  0  0  0  0  0  0  0  0  0  0
    4.6562   18.0918   -1.8692 H   0  0  0  0  0  0  0  0  0  0  0  0
    4.4593   17.0302   -3.3048 H   0  0  0  0  0  0  0  0  0  0  0  0
    3.7514   18.6811   -3.3048 H   0  0  0  0  0  0  0  0  0  0  0  0
    1.8427   17.7075   -2.6388 H   0  0  0  0  0  0  0  0  0  0  0  0
    1.6737   18.3046   -0.5070 H   0  0  0  0  0  0  0  0  0  0  0  0
    2.3432   16.6623   -0.0634 H   0  0  0  0  0  0  0  0  0  0  0  0
    4.5513   17.4948    0.0963 H   0  0  0  0  0  0  0  0  0  0  0  0
    4.0738   19.0793   -0.6443 H   0  0  0  0  0  0  0  0  0  0  0  0
    2.5934   18.1674    1.4797 H   0  0  0  0  0  0  0  0  0  0  0  0
    6.6006   19.0510    2.9298 H   0  0  0  0  0  0  0  0  0  0  0  0
    6.1664   18.1882    1.4154 H   0  0  0  0  0  0  0  0  0  0  0  0
    6.3266   19.9773    1.4154 H   0  0  0  0  0  0  0  0  0  0  0  0
    5.1242   19.1134    4.3991 H   0  0  0  0  0  0  0  0  0  0  0  0
    3.8309   20.3072    4.0401 H   0  0  0  0  0  0  0  0  0  0  0  0
    3.4566   18.5503    4.0401 H   0  0  0  0  0  0  0  0  0  0  0  0
    1.9228   15.6644   -3.1097 H   0  0  0  0  0  0  0  0  0  0  0  0
    4.1872   15.0123   -3.6407 H   0  0  0  0  0  0  0  0  0  0  0  0
    4.8331   15.7713   -2.1699 H   0  0  0  0  0  0  0  0  0  0  0  0
    4.4471   12.9659   -2.5601 H   0  0  0  0  0  0  0  0  0  0  0  0
    4.7242   13.7155   -0.9903 H   0  0  0  0  0  0  0  0  0  0  0  0
    1.1105   12.2427   -2.5764 H   0  0  0  0  0  0  0  0  0  0  0  0
    1.5626   13.7693   -3.4081 H   0  0  0  0  0  0  0  0  0  0  0  0
    2.6970   12.3766   -3.4081 H   0  0  0  0  0  0  0  0  0  0  0  0
    2.9836   12.8964    0.4801 H   0  0  0  0  0  0  0  0  0  0  0  0
    3.7537   11.0912   -1.1896 H   0  0  0  0  0  0  0  0  0  0  0  0
    3.1023   10.6365    0.4714 H   0  0  0  0  0  0  0  0  0  0  0  0
    2.2999    9.1416   -1.5448 H   0  0  0  0  0  0  0  0  0  0  0  0
   -0.3729   12.1670   -1.4535 H   0  0  0  0  0  0  0  0  0  0  0  0
   -1.0463   10.4743    1.0318 H   0  0  0  0  0  0  0  0  0  0  0  0
   -1.8756   12.0012    0.4931 H   0  0  0  0  0  0  0  0  0  0  0  0
   -3.1854    9.9779   -0.0664 H   0  0  0  0  0  0  0  0  0  0  0  0
   -2.6556   10.9008   -1.5266 H   0  0  0  0  0  0  0  0  0  0  0  0
   -2.3492    8.5570   -1.9430 H   0  0  0  0  0  0  0  0  0  0  0  0
   -1.0770    7.2910   -0.5290 H   0  0  0  0  0  0  0  0  0  0  0  0
   -1.2242   10.9838   -3.1638 H   0  0  0  0  0  0  0  0  0  0  0  0
    0.1960   10.2177   -3.9531 H   0  0  0  0  0  0  0  0  0  0  0  0
   -1.3924    9.3790   -3.9531 H   0  0  0  0  0  0  0  0  0  0  0  0
    0.5720    7.4319   -1.5060 H   0  0  0  0  0  0  0  0  0  0  0  0
   -0.4031    7.3834   -3.0138 H   0  0  0  0  0  0  0  0  0  0  0  0
    1.2123    8.1690   -3.0138 H   0  0  0  0  0  0  0  0  0  0  0  0
    0.8211   12.7964    2.4006 H   0  0  0  0  0  0  0  0  0  0  0  0
    0.1370   11.2169    1.8868 H   0  0  0  0  0  0  0  0  0  0  0  0
    1.9157   11.4680    1.8868 H   0  0  0  0  0  0  0  0  0  0  0  0
   -0.8476   13.7946    0.3078 H   0  0  0  0  0  0  0  0  0  0  0  0
    0.6695   14.3597    1.2091 H   0  0  0  0  0  0  0  0  0  0  0  0
    0.1126   14.5366   -1.7650 H   0  0  0  0  0  0  0  0  0  0  0  0
    0.2864   15.8794   -0.5680 H   0  0  0  0  0  0  0  0  0  0  0  0
    2.2929   15.0212    1.1072 H   0  0  0  0  0  0  0  0  0  0  0  0
    3.8633   15.1354    0.2427 H   0  0  0  0  0  0  0  0  0  0  0  0
    2.7344   16.5326    0.2427 H   0  0  0  0  0  0  0  0  0  0  0  0
  1  2  1  0
  2  3  1  0
  3  4  1  0
  4  5  1  0
  5  6  1  0
  6  7  1  0
  7  8  1  0
  7  9  1  0
  2 10  1  0
 10 11  1  0
 11 12  1  0
 12 13  1  0
 13 14  1  6
 13 15  1  0
 15 16  1  0
 16 17  1  0
 17 18  2  0
 18 19  1  0
 19 20  1  0
 20 21  1  0
 21 22  1  0
 22 23  1  0
 22 24  1  0
 24 25  1  0
 24 26  1  0
 19 27  1  0
 27 28  1  1
 27 29  1  0
 29 30  1  0
 30 31  1  0
 31 32  1  1
  7  5  1  0
 31 10  1  0
 31 13  1  0
 27 15  1  0
 24 18  1  0
  1 33  1  0
  1 34  1  0
  1 35  1  0
  2 36  1  6
  3 37  1  0
  3 38  1  0
  4 39  1  0
  4 40  1  0
  5 41  1  1
  8 42  1  0
  8 43  1  0
  8 44  1  0
  9 45  1  0
  9 46  1  0
  9 47  1  0
 10 48  1  6
 11 49  1  0
 11 50  1  0
 12 51  1  0
 12 52  1  0
 14 53  1  0
 14 54  1  0
 14 55  1  0
 15 56  1  1
 16 57  1  0
 16 58  1  0
 17 59  1  0
 19 60  1  6
 20 61  1  0
 20 62  1  0
 21 63  1  0
 21 64  1  0
 22 65  1  6
 23 66  1  0
 25 67  1  0
 25 68  1  0
 25 69  1  0
 26 70  1  0
 26 71  1  0
 26 72  1  0
 28 73  1  0
 28 74  1  0
 28 75  1  0
 29 76  1  0
 29 77  1  0
 30 78  1  0
 30 79  1  0
 32 80  1  0
 32 81  1  0
 32 82  1  0
M  END
>  <meeko>  (9) 
{"is_sidechain": [false], "intermolecular_energy": 2.731, "internal_energy": -0.839}

$$$$
EPH_relaxed_0001_pdb2pqr_Repair_152_r2_0001_out
     RDKit          3D

 82 86  0  0  0  0  0  0  0  0999 V2000
    2.2820   19.2970   -0.0810 C   0  0  0  0  0  0  0  0  0  0  0  0
    2.9350   17.9310   -0.3120 C   0  0  2  0  0  0  0  0  0  0  0  0
    3.7480   17.8900   -1.6220 C   0  0  0  0  0  0  0  0  0  0  0  0
    5.2300   17.5650   -1.4170 C   0  0  0  0  0  0  0  0  0  0  0  0
    6.0170   17.7480   -2.6790 C   0  0  2  0  0  0  0  0  0  0  0  0
    5.2800   17.5100   -3.8850 O   0  0  0  0  0  0  0  0  0  0  0  0
    6.3680   16.6100   -3.6190 C   0  0  0  0  0  0  0  0  0  0  0  0
    5.9390   15.2040   -3.3360 C   0  0  0  0  0  0  0  0  0  0  0  0
    7.5310   16.7800   -4.5460 C   0  0  0  0  0  0  0  0  0  0  0  0
    1.8700   16.8410   -0.3260 C   0  0  1  0  0  0  0  0  0  0  0  0
    0.4570   17.3900   -0.6620 C   0  0  0  0  0  0  0  0  0  0  0  0
   -0.2660   16.2930   -1.4830 C   0  0  0  0  0  0  0  0  0  0  0  0
    0.6150   15.0330   -1.3120 C   0  0  1  0  0  0  0  0  0  0  0  0
    0.2060   14.4430    0.0740 C   0  0  0  0  0  0  0  0  0  0  0  0
    0.5190   13.9620   -2.4470 C   0  0  2  0  0  0  0  0  0  0  0  0
   -0.8690   13.3210   -2.6230 C   0  0  0  0  0  0  0  0  0  0  0  0
   -1.1060   12.0840   -1.8210 C   0  0  0  0  0  0  0  0  0  0  0  0
   -0.1540   11.3510   -1.2140 C   0  0  0  0  0  0  0  0  0  0  0  0
    1.3310   11.6920   -1.3850 C   0  0  1  0  0  0  0  0  0  0  0  0
    2.1280   10.3970   -1.6920 C   0  0  0  0  0  0  0  0  0  0  0  0
    1.8960    9.3070   -0.6510 C   0  0  0  0  0  0  0  0  0  0  0  0
    0.4140    8.9540   -0.5510 C   0  0  2  0  0  0  0  0  0  0  0  0
    0.0040    8.3400   -1.7770 O   0  0  0  0  0  0  0  0  0  0  0  0
   -0.4900   10.1830   -0.2540 C   0  0  0  0  0  0  0  0  0  0  0  0
   -0.2520   10.6640    1.1990 C   0  0  0  0  0  0  0  0  0  0  0  0
   -1.9690    9.7150   -0.3200 C   0  0  0  0  0  0  0  0  0  0  0  0
    1.6600   12.8670   -2.4040 C   0  0  1  0  0  0  0  0  0  0  0  0
    1.7860   12.2980   -3.8500 C   0  0  0  0  0  0  0  0  0  0  0  0
    3.0650   13.4810   -2.0440 C   0  0  0  0  0  0  0  0  0  0  0  0
    3.0810   14.6170   -1.0040 C   0  0  0  0  0  0  0  0  0  0  0  0
    2.0430   15.6900   -1.3470 C   0  0  2  0  0  0  0  0  0  0  0  0
    2.4420   16.3170   -2.7260 C   0  0  0  0  0  0  0  0  0  0  0  0
    2.1931   19.4829    0.9995 H   0  0  0  0  0  0  0  0  0  0  0  0
    2.9023   20.0820   -0.5383 H   0  0  0  0  0  0  0  0  0  0  0  0
    1.2816   19.3072   -0.5383 H   0  0  0  0  0  0  0  0  0  0  0  0
    3.6359   17.7551    0.5174 H   0  0  0  0  0  0  0  0  0  0  0  0
    3.3116   17.1221   -2.2776 H   0  0  0  0  0  0  0  0  0  0  0  0
    3.6978   18.8965   -2.0630 H   0  0  0  0  0  0  0  0  0  0  0  0
    5.6375   18.2318   -0.6429 H   0  0  0  0  0  0  0  0  0  0  0  0
    5.3111   16.5113   -1.1119 H   0  0  0  0  0  0  0  0  0  0  0  0
    6.6284   18.5335   -2.2108 H   0  0  0  0  0  0  0  0  0  0  0  0
    5.8911   15.0471   -2.2483 H   0  0  0  0  0  0  0  0  0  0  0  0
    4.9463   15.0280   -3.7759 H   0  0  0  0  0  0  0  0  0  0  0  0
    6.6644   14.5037   -3.7759 H   0  0  0  0  0  0  0  0  0  0  0  0
    8.4514   16.9145   -3.9588 H   0  0  0  0  0  0  0  0  0  0  0  0
    7.6280   15.8865   -5.1802 H   0  0  0  0  0  0  0  0  0  0  0  0
    7.3682   17.6639   -5.1802 H   0  0  0  0  0  0  0  0  0  0  0  0
    1.9875   16.4565    0.6979 H   0  0  0  0  0  0  0  0  0  0  0  0
   -0.0987   17.5977    0.2643 H   0  0  0  0  0  0  0  0  0  0  0  0
    0.5235   18.3292   -1.2308 H   0  0  0  0  0  0  0  0  0  0  0  0
   -1.2775   16.1160   -1.0885 H   0  0  0  0  0  0  0  0  0  0  0  0
   -0.3893   16.5755   -2.5389 H   0  0  0  0  0  0  0  0  0  0  0  0
    0.6346   15.0612    0.8766 H   0  0  0  0  0  0  0  0  0  0  0  0
   -0.8905   14.4377    0.1611 H   0  0  0  0  0  0  0  0  0  0  0  0
    0.5857   13.4143    0.1611 H   0  0  0  0  0  0  0  0  0  0  0  0
    0.6881   14.5628   -3.3528 H   0  0  0  0  0  0  0  0  0  0  0  0
   -1.6261   14.0645   -2.3330 H   0  0  0  0  0  0  0  0  0  0  0  0
   -0.9323   13.0167   -3.6782 H   0  0  0  0  0  0  0  0  0  0  0  0
   -2.1466   11.7428   -1.7174 H   0  0  0  0  0  0  0  0  0  0  0  0
    1.6588   12.1127   -0.4229 H   0  0  0  0  0  0  0  0  0  0  0  0
    1.8171   10.0166   -2.6762 H   0  0  0  0  0  0  0  0  0  0  0  0
    3.1980   10.6517   -1.6760 H   0  0  0  0  0  0  0  0  0  0  0  0
    2.4614    8.4084   -0.9387 H   0  0  0  0  0  0  0  0  0  0  0  0
    2.2351    9.6782    0.3274 H   0  0  0  0  0  0  0  0  0  0  0  0
    0.2948    8.2652    0.2983 H   0  0  0  0  0  0  0  0  0  0  0  0
   -0.0730    9.0410   -2.4460 H   0  0  0  0  0  0  0  0  0  0  0  0
   -0.6271    9.9059    1.9023 H   0  0  0  0  0  0  0  0  0  0  0  0
    0.8251   10.8155    1.3633 H   0  0  0  0  0  0  0  0  0  0  0  0
   -0.7849   11.6122    1.3633 H   0  0  0  0  0  0  0  0  0  0  0  0
   -2.3603    9.5912    0.7006 H   0  0  0  0  0  0  0  0  0  0  0  0
   -2.5682   10.4674   -0.8537 H   0  0  0  0  0  0  0  0  0  0  0  0
   -2.0263    8.7548   -0.8537 H   0  0  0  0  0  0  0  0  0  0  0  0
    2.0236   11.2250   -3.8024 H   0  0  0  0  0  0  0  0  0  0  0  0
    0.8347   12.4396   -4.3839 H   0  0  0  0  0  0  0  0  0  0  0  0
    2.5886   12.8279   -4.3839 H   0  0  0  0  0  0  0  0  0  0  0  0
    3.6947   12.6665   -1.6567 H   0  0  0  0  0  0  0  0  0  0  0  0
    3.4260   13.9395   -2.9764 H   0  0  0  0  0  0  0  0  0  0  0  0
    2.8528   14.1998   -0.0121 H   0  0  0  0  0  0  0  0  0  0  0  0
    4.0785   15.0807   -1.0069 H   0  0  0  0  0  0  0  0  0  0  0  0
    3.0255   17.2340   -2.5568 H   0  0  0  0  0  0  0  0  0  0  0  0
    3.0481   15.5965   -3.2948 H   0  0  0  0  0  0  0  0  0  0  0  0
    1.5326   16.5608   -3.2948 H   0  0  0  0  0  0  0  0  0  0  0  0
  1  2  1  0
  2  3  1  0
  3  4  1  0
  4  5  1  0
  5  6  1  0
  6  7  1  0
  7  8  1  0
  7  9  1  0
  2 10  1  0
 10 11  1  0
 11 12  1  0
 12 13  1  0
 13 14  1  1
 13 15  1  0
 15 16  1  0
 16 17  1  0
 17 18  2  0
 18 19  1  0
 19 20  1  0
 20 21  1  0
 21 22  1  0
 22 23  1  0
 22 24  1  0
 24 25  1  0
 24 26  1  0
 19 27  1  0
 27 28  1  6
 27 29  1  0
 29 30  1  0
 30 31  1  0
 31 32  1  6
  7  5  1  0
 31 10  1  0
 31 13  1  0
 27 15  1  0
 24 18  1  0
  1 33  1  0
  1 34  1  0
  1 35  1  0
  2 36  1  1
  3 37  1  0
  3 38  1  0
  4 39  1  0
  4 40  1  0
  5 41  1  6
  8 42  1  0
  8 43  1  0
  8 44  1  0
  9 45  1  0
  9 46  1  0
  9 47  1  0
 10 48  1  1
 11 49  1  0
 11 50  1  0
 12 51  1  0
 12 52  1  0
 14 53  1  0
 14 54  1  0
 14 55  1  0
 15 56  1  6
 16 57  1  0
 16 58  1  0
 17 59  1  0
 19 60  1  1
 20 61  1  0
 20 62  1  0
 21 63  1  0
 21 64  1  0
 22 65  1  1
 23 66  1  0
 25 67  1  0
 25 68  1  0
 25 69  1  0
 26 70  1  0
 26 71  1  0
 26 72  1  0
 28 73  1  0
 28 74  1  0
 28 75  1  0
 29 76  1  0
 29 77  1  0
 30 78  1  0
 30 79  1  0
 32 80  1  0
 32 81  1  0
 32 82  1  0
M  END
>  <meeko>  (10) 
{"is_sidechain": [false], "intermolecular_energy": 2.731, "internal_energy": -0.839}

$$$$
EPH_relaxed_0001_pdb2pqr_Repair_152_r2_0001_out
     RDKit          3D

 82 86  0  0  0  0  0  0  0  0999 V2000
    0.9440    8.6850   -0.3160 C   0  0  0  0  0  0  0  0  0  0  0  0
   -0.1180    9.4570   -1.1040 C   0  0  2  0  0  0  0  0  0  0  0  0
   -0.8400    8.5650   -2.1330 C   0  0  0  0  0  0  0  0  0  0  0  0
   -2.3340    8.3870   -1.8540 C   0  0  0  0  0  0  0  0  0  0  0  0
   -2.9050    7.2240   -2.6080 C   0  0  2  0  0  0  0  0  0  0  0  0
   -3.9510    7.5620   -3.5270 O   0  0  0  0  0  0  0  0  0  0  0  0
   -4.3250    6.7230   -2.4230 C   0  0  0  0  0  0  0  0  0  0  0  0
   -5.2620    7.3730   -1.4540 C   0  0  0  0  0  0  0  0  0  0  0  0
   -4.6440    5.3140   -2.8170 C   0  0  0  0  0  0  0  0  0  0  0  0
    0.5200   10.6510   -1.8050 C   0  0  1  0  0  0  0  0  0  0  0  0
    0.1780   10.7080   -3.3180 C   0  0  0  0  0  0  0  0  0  0  0  0
    0.0600   12.2070   -3.6930 C   0  0  0  0  0  0  0  0  0  0  0  0
    0.6580   12.9610   -2.4820 C   0  0  1  0  0  0  0  0  0  0  0  0
    2.2030   12.8990   -2.6950 C   0  0  0  0  0  0  0  0  0  0  0  0
    0.1630   14.4280   -2.2690 C   0  0  2  0  0  0  0  0  0  0  0  0
    0.5000   15.4040   -3.4100 C   0  0  0  0  0  0  0  0  0  0  0  0
    1.8020   16.1210   -3.2720 C   0  0  0  0  0  0  0  0  0  0  0  0
    2.5330   16.2060   -2.1450 C   0  0  0  0  0  0  0  0  0  0  0  0
    2.0140   15.6240   -0.8240 C   0  0  1  0  0  0  0  0  0  0  0  0
    2.2200   16.6570    0.3140 C   0  0  0  0  0  0  0  0  0  0  0  0
    3.6650   17.1360    0.4160 C   0  0  0  0  0  0  0  0  0  0  0  0
    4.1260   17.7610   -0.8980 C   0  0  2  0  0  0  0  0  0  0  0  0
    3.3880   18.9670   -1.1180 O   0  0  0  0  0  0  0  0  0  0  0  0
    3.9570   16.8150   -2.1200 C   0  0  0  0  0  0  0  0  0  0  0  0
    4.9790   15.6550   -2.0260 C   0  0  0  0  0  0  0  0  0  0  0  0
    4.3240   17.6150   -3.3980 C   0  0  0  0  0  0  0  0  0  0  0  0
    0.5360   15.0390   -0.8570 C   0  0  1  0  0  0  0  0  0  0  0  0
   -0.4930   16.1770   -0.5780 C   0  0  0  0  0  0  0  0  0  0  0  0
    0.3700   13.9950    0.3100 C   0  0  0  0  0  0  0  0  0  0  0  0
    0.7640   12.5380   -0.0010 C   0  0  0  0  0  0  0  0  0  0  0  0
    0.1220   12.0630   -1.3080 C   0  0  2  0  0  0  0  0  0  0  0  0
   -1.4320   12.0930   -1.1170 C   0  0  0  0  0  0  0  0  0  0  0  0
    0.7666    8.8140    0.7619 H   0  0  0  0  0  0  0  0  0  0  0  0
    0.8860    7.6168   -0.5719 H   0  0  0  0  0  0  0  0  0  0  0  0
    1.9422    9.0697   -0.5719 H   0  0  0  0  0  0  0  0  0  0  0  0
   -0.8729    9.8085   -0.3852 H   0  0  0  0  0  0  0  0  0  0  0  0
   -0.7246    9.0197   -3.1279 H   0  0  0  0  0  0  0  0  0  0  0  0
   -0.3809    7.5673   -2.0708 H   0  0  0  0  0  0  0  0  0  0  0  0
   -2.4776    8.2183   -0.7766 H   0  0  0  0  0  0  0  0  0  0  0  0
   -2.8549    9.2980   -2.1837 H   0  0  0  0  0  0  0  0  0  0  0  0
   -1.9333    6.7087   -2.5955 H   0  0  0  0  0  0  0  0  0  0  0  0
   -4.9398    7.1495   -0.4263 H   0  0  0  0  0  0  0  0  0  0  0  0
   -5.2555    8.4616   -1.6117 H   0  0  0  0  0  0  0  0  0  0  0  0
   -6.2794    6.9857   -1.6117 H   0  0  0  0  0  0  0  0  0  0  0  0
   -4.7824    4.7028   -1.9129 H   0  0  0  0  0  0  0  0  0  0  0  0
   -5.5680    5.3004   -3.4138 H   0  0  0  0  0  0  0  0  0  0  0  0
   -3.8160    4.9037   -3.4138 H   0  0  0  0  0  0  0  0  0  0  0  0
    1.5780   10.4560   -1.5758 H   0  0  0  0  0  0  0  0  0  0  0  0
    0.9772   10.2323   -3.9053 H   0  0  0  0  0  0  0  0  0  0  0  0
   -0.7586   10.1722   -3.5319 H   0  0  0  0  0  0  0  0  0  0  0  0
    0.6321   12.4247   -4.6070 H   0  0  0  0  0  0  0  0  0  0  0  0
   -0.9788   12.5049   -3.8981 H   0  0  0  0  0  0  0  0  0  0  0  0
    2.7074   12.8788   -1.7176 H   0  0  0  0  0  0  0  0  0  0  0  0
    2.4592   11.9898   -3.2587 H   0  0  0  0  0  0  0  0  0  0  0  0
    2.5313   13.7847   -3.2587 H   0  0  0  0  0  0  0  0  0  0  0  0
   -0.9307   14.3124   -2.2891 H   0  0  0  0  0  0  0  0  0  0  0  0
    0.5244   14.8328   -4.3498 H   0  0  0  0  0  0  0  0  0  0  0  0
   -0.2789   16.1803   -3.3864 H   0  0  0  0  0  0  0  0  0  0  0  0
    2.1977   16.6225   -4.1675 H   0  0  0  0  0  0  0  0  0  0  0  0
    2.6205   14.7275   -0.6281 H   0  0  0  0  0  0  0  0  0  0  0  0
    1.5733   17.5260    0.1225 H   0  0  0  0  0  0  0  0  0  0  0  0
    1.9646   16.1630    1.2631 H   0  0  0  0  0  0  0  0  0  0  0  0
    3.7401   17.8859    1.2173 H   0  0  0  0  0  0  0  0  0  0  0  0
    4.3071   16.2708    0.6378 H   0  0  0  0  0  0  0  0  0  0  0  0
    5.2031   17.9646   -0.8062 H   0  0  0  0  0  0  0  0  0  0  0  0
    3.1100   18.9760   -2.0500 H   0  0  0  0  0  0  0  0  0  0  0  0
    5.1793   15.4276   -0.9686 H   0  0  0  0  0  0  0  0  0  0  0  0
    4.5678   14.7630   -2.5213 H   0  0  0  0  0  0  0  0  0  0  0  0
    5.9157   15.9505   -2.5213 H   0  0  0  0  0  0  0  0  0  0  0  0
    4.7669   18.5804   -3.1117 H   0  0  0  0  0  0  0  0  0  0  0  0
    5.0490   17.0414   -3.9941 H   0  0  0  0  0  0  0  0  0  0  0  0
    3.4163   17.7904   -3.9941 H   0  0  0  0  0  0  0  0  0  0  0  0
   -0.6105   16.3069    0.5080 H   0  0  0  0  0  0  0  0  0  0  0  0
   -0.1310   17.1158   -1.0226 H   0  0  0  0  0  0  0  0  0  0  0  0
   -1.4634   15.9110   -1.0226 H   0  0  0  0  0  0  0  0  0  0  0  0
    0.9907   14.3353    1.1519 H   0  0  0  0  0  0  0  0  0  0  0  0
   -0.7099   13.9636    0.5172 H   0  0  0  0  0  0  0  0  0  0  0  0
    1.8582   12.4731   -0.0933 H   0  0  0  0  0  0  0  0  0  0  0  0
    0.4077   11.8961    0.8181 H   0  0  0  0  0  0  0  0  0  0  0  0
   -1.6694   12.0976   -0.0429 H   0  0  0  0  0  0  0  0  0  0  0  0
   -1.8418   12.9992   -1.5870 H   0  0  0  0  0  0  0  0  0  0  0  0
   -1.8764   11.2033   -1.5870 H   0  0  0  0  0  0  0  0  0  0  0  0
  1  2  1  0
  2  3  1  0
  3  4  1  0
  4  5  1  0
  5  6  1  0
  6  7  1  0
  7  8  1  0
  7  9  1  0
  2 10  1  0
 10 11  1  0
 11 12  1  0
 12 13  1  0
 13 14  1  6
 13 15  1  0
 15 16  1  0
 16 17  1  0
 17 18  2  0
 18 19  1  0
 19 20  1  0
 20 21  1  0
 21 22  1  0
 22 23  1  0
 22 24  1  0
 24 25  1  0
 24 26  1  0
 19 27  1  0
 27 28  1  1
 27 29  1  0
 29 30  1  0
 30 31  1  0
 31 32  1  1
  7  5  1  0
 31 10  1  0
 31 13  1  0
 27 15  1  0
 24 18  1  0
  1 33  1  0
  1 34  1  0
  1 35  1  0
  2 36  1  1
  3 37  1  0
  3 38  1  0
  4 39  1  0
  4 40  1  0
  5 41  1  6
  8 42  1  0
  8 43  1  0
  8 44  1  0
  9 45  1  0
  9 46  1  0
  9 47  1  0
 10 48  1  6
 11 49  1  0
 11 50  1  0
 12 51  1  0
 12 52  1  0
 14 53  1  0
 14 54  1  0
 14 55  1  0
 15 56  1  1
 16 57  1  0
 16 58  1  0
 17 59  1  0
 19 60  1  1
 20 61  1  0
 20 62  1  0
 21 63  1  0
 21 64  1  0
 22 65  1  1
 23 66  1  0
 25 67  1  0
 25 68  1  0
 25 69  1  0
 26 70  1  0
 26 71  1  0
 26 72  1  0
 28 73  1  0
 28 74  1  0
 28 75  1  0
 29 76  1  0
 29 77  1  0
 30 78  1  0
 30 79  1  0
 32 80  1  0
 32 81  1  0
 32 82  1  0
M  END
>  <meeko>  (11) 
{"is_sidechain": [false], "intermolecular_energy": 2.731, "internal_energy": -0.839}

$$$$
EPH_relaxed_0001_pdb2pqr_Repair_152_r2_0001_out
     RDKit          3D

 82 86  0  0  0  0  0  0  0  0999 V2000
   -5.2120    5.8440   -1.7100 C   0  0  0  0  0  0  0  0  0  0  0  0
   -5.4780    7.3450   -1.8580 C   0  0  2  0  0  0  0  0  0  0  0  0
   -5.2050    8.1160   -0.5510 C   0  0  0  0  0  0  0  0  0  0  0  0
   -4.2210    9.2770   -0.7150 C   0  0  0  0  0  0  0  0  0  0  0  0
   -2.8260    8.8790   -0.3360 C   0  0  2  0  0  0  0  0  0  0  0  0
   -2.2600    9.6360    0.7420 O   0  0  0  0  0  0  0  0  0  0  0  0
   -1.6180    9.7740   -0.5360 C   0  0  0  0  0  0  0  0  0  0  0  0
   -1.7480   11.1380   -1.1380 C   0  0  0  0  0  0  0  0  0  0  0  0
   -0.2620    9.1420   -0.6000 C   0  0  0  0  0  0  0  0  0  0  0  0
   -6.9150    7.5760   -2.3090 C   0  0  1  0  0  0  0  0  0  0  0  0
   -7.2350    6.8850   -3.6620 C   0  0  0  0  0  0  0  0  0  0  0  0
   -8.7110    6.4160   -3.5860 C   0  0  0  0  0  0  0  0  0  0  0  0
   -9.2860    7.1350   -2.3430 C   0  0  1  0  0  0  0  0  0  0  0  0
   -9.6370    8.5730   -2.8380 C   0  0  0  0  0  0  0  0  0  0  0  0
  -10.5080    6.4480   -1.6500 C   0  0  2  0  0  0  0  0  0  0  0  0
  -11.7690    6.3280   -2.5230 C   0  0  0  0  0  0  0  0  0  0  0  0
  -12.7200    7.4760   -2.4300 C   0  0  0  0  0  0  0  0  0  0  0  0
  -12.7130    8.4220   -1.4730 C   0  0  0  0  0  0  0  0  0  0  0  0
  -11.7390    8.3390   -0.2910 C   0  0  1  0  0  0  0  0  0  0  0  0
  -12.5030    8.6160    1.0300 C   0  0  0  0  0  0  0  0  0  0  0  0
  -13.2700    9.9350    0.9970 C   0  0  0  0  0  0  0  0  0  0  0  0
  -14.2690    9.9560   -0.1570 C   0  0  2  0  0  0  0  0  0  0  0  0
  -15.2870    8.9830    0.0980 O   0  0  0  0  0  0  0  0  0  0  0  0
  -13.6150    9.6790   -1.5390 C   0  0  0  0  0  0  0  0  0  0  0  0
  -12.7370   10.8860   -1.9510 C   0  0  0  0  0  0  0  0  0  0  0  0
  -14.7500    9.5870   -2.5940 C   0  0  0  0  0  0  0  0  0  0  0  0
  -10.8490    7.0250   -0.2170 C   0  0  1  0  0  0  0  0  0  0  0  0
  -11.6200    5.9020    0.5430 C   0  0  0  0  0  0  0  0  0  0  0  0
   -9.5560    7.3260    0.6300 C   0  0  0  0  0  0  0  0  0  0  0  0
   -8.3430    7.8920   -0.1320 C   0  0  0  0  0  0  0  0  0  0  0  0
   -8.0430    7.0590   -1.3820 C   0  0  2  0  0  0  0  0  0  0  0  0
   -7.6650    5.6120   -0.9140 C   0  0  0  0  0  0  0  0  0  0  0  0
   -5.1658    5.5833   -0.6423 H   0  0  0  0  0  0  0  0  0  0  0  0
   -6.0239    5.2786   -2.1907 H   0  0  0  0  0  0  0  0  0  0  0  0
   -4.2552    5.5920   -2.1907 H   0  0  0  0  0  0  0  0  0  0  0  0
   -4.7830    7.7303   -2.6187 H   0  0  0  0  0  0  0  0  0  0  0  0
   -6.1589    8.5191   -0.1800 H   0  0  0  0  0  0  0  0  0  0  0  0
   -4.7479    7.4044    0.1523 H   0  0  0  0  0  0  0  0  0  0  0  0
   -4.2258    9.6027   -1.7657 H   0  0  0  0  0  0  0  0  0  0  0  0
   -4.5382   10.0923   -0.0482 H   0  0  0  0  0  0  0  0  0  0  0  0
   -3.0232    7.8330   -0.6136 H   0  0  0  0  0  0  0  0  0  0  0  0
   -1.8194   11.8875   -0.3360 H   0  0  0  0  0  0  0  0  0  0  0  0
   -0.8660   11.3498   -1.7602 H   0  0  0  0  0  0  0  0  0  0  0  0
   -2.6542   11.1793   -1.7602 H   0  0  0  0  0  0  0  0  0  0  0  0
    0.1102    8.9685    0.4205 H   0  0  0  0  0  0  0  0  0  0  0  0
   -0.3295    8.1825   -1.1337 H   0  0  0  0  0  0  0  0  0  0  0  0
    0.4294    9.8107   -1.1337 H   0  0  0  0  0  0  0  0  0  0  0  0
   -6.9253    8.6756   -2.3362 H   0  0  0  0  0  0  0  0  0  0  0  0
   -7.1057    7.5966   -4.4908 H   0  0  0  0  0  0  0  0  0  0  0  0
   -6.5592    6.0358   -3.8416 H   0  0  0  0  0  0  0  0  0  0  0  0
   -9.2591    6.7106   -4.4931 H   0  0  0  0  0  0  0  0  0  0  0  0
   -8.7975    5.3219   -3.5120 H   0  0  0  0  0  0  0  0  0  0  0  0
   -9.7975    9.2303   -1.9707 H   0  0  0  0  0  0  0  0  0  0  0  0
   -8.8079    8.9640   -3.4461 H   0  0  0  0  0  0  0  0  0  0  0  0
  -10.5530    8.5381   -3.4461 H   0  0  0  0  0  0  0  0  0  0  0  0
  -10.1483    5.4191   -1.5015 H   0  0  0  0  0  0  0  0  0  0  0  0
  -11.4492    6.2354   -3.5714 H   0  0  0  0  0  0  0  0  0  0  0  0
  -12.3152    5.4490   -2.1502 H   0  0  0  0  0  0  0  0  0  0  0  0
  -13.4916    7.5548   -3.2100 H   0  0  0  0  0  0  0  0  0  0  0  0
  -10.9884    9.1252   -0.4599 H   0  0  0  0  0  0  0  0  0  0  0  0
  -13.2169    7.7972    1.2028 H   0  0  0  0  0  0  0  0  0  0  0  0
  -11.7596    8.6822    1.8380 H   0  0  0  0  0  0  0  0  0  0  0  0
  -13.8129   10.0596    1.9455 H   0  0  0  0  0  0  0  0  0  0  0  0
  -12.5515   10.7557    0.8546 H   0  0  0  0  0  0  0  0  0  0  0  0
  -14.6923   10.9700   -0.2090 H   0  0  0  0  0  0  0  0  0  0  0  0
  -14.9890    8.1390   -0.2820 H   0  0  0  0  0  0  0  0  0  0  0  0
  -12.3668   11.3950   -1.0489 H   0  0  0  0  0  0  0  0  0  0  0  0
  -11.8839   10.5319   -2.5484 H   0  0  0  0  0  0  0  0  0  0  0  0
  -13.3366   11.5886   -2.5484 H   0  0  0  0  0  0  0  0  0  0  0  0
  -15.7206    9.5083   -2.0824 H   0  0  0  0  0  0  0  0  0  0  0  0
  -14.7394   10.4890   -3.2236 H   0  0  0  0  0  0  0  0  0  0  0  0
  -14.5943    8.6985   -3.2236 H   0  0  0  0  0  0  0  0  0  0  0  0
  -11.5152    6.0546    1.6273 H   0  0  0  0  0  0  0  0  0  0  0  0
  -12.6847    5.9381    0.2688 H   0  0  0  0  0  0  0  0  0  0  0  0
  -11.2038    4.9214    0.2688 H   0  0  0  0  0  0  0  0  0  0  0  0
   -9.8297    8.0541    1.4078 H   0  0  0  0  0  0  0  0  0  0  0  0
   -9.2265    6.3477    1.0099 H   0  0  0  0  0  0  0  0  0  0  0  0
   -8.5586    8.9278   -0.4331 H   0  0  0  0  0  0  0  0  0  0  0  0
   -7.4657    7.8582    0.5307 H   0  0  0  0  0  0  0  0  0  0  0  0
   -7.6548    5.5731    0.1853 H   0  0  0  0  0  0  0  0  0  0  0  0
   -8.4064    4.8966   -1.2994 H   0  0  0  0  0  0  0  0  0  0  0  0
   -6.6684    5.3506   -1.2994 H   0  0  0  0  0  0  0  0  0  0  0  0
  1  2  1  0
  2  3  1  0
  3  4  1  0
  4  5  1  0
  5  6  1  0
  6  7  1  0
  7  8  1  0
  7  9  1  0
  2 10  1  0
 10 11  1  0
 11 12  1  0
 12 13  1  0
 13 14  1  6
 13 15  1  0
 15 16  1  0
 16 17  1  0
 17 18  2  0
 18 19  1  0
 19 20  1  0
 20 21  1  0
 21 22  1  0
 22 23  1  0
 22 24  1  0
 24 25  1  0
 24 26  1  0
 19 27  1  0
 27 28  1  1
 27 29  1  0
 29 30  1  0
 30 31  1  0
 31 32  1  1
  7  5  1  0
 31 10  1  0
 31 13  1  0
 27 15  1  0
 24 18  1  0
  1 33  1  0
  1 34  1  0
  1 35  1  0
  2 36  1  6
  3 37  1  0
  3 38  1  0
  4 39  1  0
  4 40  1  0
  5 41  1  1
  8 42  1  0
  8 43  1  0
  8 44  1  0
  9 45  1  0
  9 46  1  0
  9 47  1  0
 10 48  1  6
 11 49  1  0
 11 50  1  0
 12 51  1  0
 12 52  1  0
 14 53  1  0
 14 54  1  0
 14 55  1  0
 15 56  1  1
 16 57  1  0
 16 58  1  0
 17 59  1  0
 19 60  1  6
 20 61  1  0
 20 62  1  0
 21 63  1  0
 21 64  1  0
 22 65  1  6
 23 66  1  0
 25 67  1  0
 25 68  1  0
 25 69  1  0
 26 70  1  0
 26 71  1  0
 26 72  1  0
 28 73  1  0
 28 74  1  0
 28 75  1  0
 29 76  1  0
 29 77  1  0
 30 78  1  0
 30 79  1  0
 32 80  1  0
 32 81  1  0
 32 82  1  0
M  END
>  <meeko>  (12) 
{"is_sidechain": [false], "intermolecular_energy": 2.731, "internal_energy": -0.839}

$$$$
EPH_relaxed_0001_pdb2pqr_Repair_152_r2_0001_out
     RDKit          3D

 82 86  0  0  0  0  0  0  0  0999 V2000
   -0.2270   10.3100   -2.1950 C   0  0  0  0  0  0  0  0  0  0  0  0
    0.6800   10.2030   -0.9650 C   0  0  2  0  0  0  0  0  0  0  0  0
   -0.1270   10.1020    0.3450 C   0  0  0  0  0  0  0  0  0  0  0  0
    0.6280   10.6170    1.5730 C   0  0  0  0  0  0  0  0  0  0  0  0
   -0.1120   11.7300    2.2520 C   0  0  2  0  0  0  0  0  0  0  0  0
    0.5170   13.0140    2.1550 O   0  0  0  0  0  0  0  0  0  0  0  0
    0.4120   12.4590    3.4750 C   0  0  0  0  0  0  0  0  0  0  0  0
    1.7280   12.1020    4.0930 C   0  0  0  0  0  0  0  0  0  0  0  0
   -0.5650   13.1750    4.3540 C   0  0  0  0  0  0  0  0  0  0  0  0
    1.6190   11.4020   -0.9080 C   0  0  1  0  0  0  0  0  0  0  0  0
    2.9920   11.1180   -1.5740 C   0  0  0  0  0  0  0  0  0  0  0  0
    3.4490   12.4420   -2.2390 C   0  0  0  0  0  0  0  0  0  0  0  0
    2.5010   13.5170   -1.6590 C   0  0  1  0  0  0  0  0  0  0  0  0
    3.0990   13.8660   -0.2600 C   0  0  0  0  0  0  0  0  0  0  0  0
    2.2910   14.7970   -2.5320 C   0  0  2  0  0  0  0  0  0  0  0  0
    3.5580   15.6330   -2.7800 C   0  0  0  0  0  0  0  0  0  0  0  0
    3.8210   16.7050   -1.7750 C   0  0  0  0  0  0  0  0  0  0  0  0
    2.9310   17.1730   -0.8800 C   0  0  0  0  0  0  0  0  0  0  0  0
    1.4770   16.6840   -0.8850 C   0  0  1  0  0  0  0  0  0  0  0  0
    0.5220   17.9010   -0.7710 C   0  0  0  0  0  0  0  0  0  0  0  0
    0.8370   18.7820    0.4340 C   0  0  0  0  0  0  0  0  0  0  0  0
    2.2730   19.2960    0.3730 C   0  0  2  0  0  0  0  0  0  0  0  0
    2.3960   20.1900   -0.7370 O   0  0  0  0  0  0  0  0  0  0  0  0
    3.3260   18.1590    0.2480 C   0  0  0  0  0  0  0  0  0  0  0  0
    3.4020   17.3710    1.5790 C   0  0  0  0  0  0  0  0  0  0  0  0
    4.7180   18.8170    0.0530 C   0  0  0  0  0  0  0  0  0  0  0  0
    1.0790   15.7050   -2.0710 C   0  0  1  0  0  0  0  0  0  0  0  0
    0.6410   16.5300   -3.3190 C   0  0  0  0  0  0  0  0  0  0  0  0
   -0.1740   14.8560   -1.6380 C   0  0  0  0  0  0  0  0  0  0  0  0
    0.1040   13.5420   -0.8820 C   0  0  0  0  0  0  0  0  0  0  0  0
    1.1570   12.7020   -1.6120 C   0  0  2  0  0  0  0  0  0  0  0  0
    0.5750   12.3170   -3.0140 C   0  0  0  0  0  0  0  0  0  0  0  0
   -1.2710   10.4332   -1.8711 H   0  0  0  0  0  0  0  0  0  0  0  0
    0.0746   11.1788   -2.7985 H   0  0  0  0  0  0  0  0  0  0  0  0
   -0.1358    9.3949   -2.7985 H   0  0  0  0  0  0  0  0  0  0  0  0
    1.2647    9.2765   -1.0635 H   0  0  0  0  0  0  0  0  0  0  0  0
   -1.0489   10.6913    0.2315 H   0  0  0  0  0  0  0  0  0  0  0  0
   -0.3302    9.0346    0.5164 H   0  0  0  0  0  0  0  0  0  0  0  0
    0.7578    9.7887    2.2850 H   0  0  0  0  0  0  0  0  0  0  0  0
    1.6013   11.0058    1.2391 H   0  0  0  0  0  0  0  0  0  0  0  0
   -1.0782   11.2506    2.0361 H   0  0  0  0  0  0  0  0  0  0  0  0
    1.6371   12.1267    5.1890 H   0  0  0  0  0  0  0  0  0  0  0  0
    2.0218   11.0917    3.7721 H   0  0  0  0  0  0  0  0  0  0  0  0
    2.4921   12.8253    3.7721 H   0  0  0  0  0  0  0  0  0  0  0  0
   -0.3131   12.9904    5.4087 H   0  0  0  0  0  0  0  0  0  0  0  0
   -0.5191   14.2549    4.1497 H   0  0  0  0  0  0  0  0  0  0  0  0
   -1.5809   12.8060    4.1497 H   0  0  0  0  0  0  0  0  0  0  0  0
    1.6543   11.5561    0.1806 H   0  0  0  0  0  0  0  0  0  0  0  0
    3.7233   10.8032   -0.8150 H   0  0  0  0  0  0  0  0  0  0  0  0
    2.9113   10.3104   -2.3165 H   0  0  0  0  0  0  0  0  0  0  0  0
    4.4945   12.6658   -1.9804 H   0  0  0  0  0  0  0  0  0  0  0  0
    3.4040   12.3946   -3.3371 H   0  0  0  0  0  0  0  0  0  0  0  0
    2.4367   13.4795    0.5286 H   0  0  0  0  0  0  0  0  0  0  0  0
    4.0936   13.4065   -0.1614 H   0  0  0  0  0  0  0  0  0  0  0  0
    3.1881   14.9579   -0.1614 H   0  0  0  0  0  0  0  0  0  0  0  0
    2.0177   14.3731   -3.5096 H   0  0  0  0  0  0  0  0  0  0  0  0
    4.4206   14.9504   -2.7826 H   0  0  0  0  0  0  0  0  0  0  0  0
    3.4005   16.1472   -3.7396 H   0  0  0  0  0  0  0  0  0  0  0  0
    4.8269   17.1501   -1.7649 H   0  0  0  0  0  0  0  0  0  0  0  0
    1.3691   16.0402    0.0004 H   0  0  0  0  0  0  0  0  0  0  0  0
    0.6131   18.5073   -1.6843 H   0  0  0  0  0  0  0  0  0  0  0  0
   -0.4991   17.5128   -0.6425 H   0  0  0  0  0  0  0  0  0  0  0  0
    0.1478   19.6393    0.4432 H   0  0  0  0  0  0  0  0  0  0  0  0
    0.7171   18.1824    1.3484 H   0  0  0  0  0  0  0  0  0  0  0  0
    2.4794   19.8114    1.3226 H   0  0  0  0  0  0  0  0  0  0  0  0
    1.4980   20.4200   -1.0300 H   0  0  0  0  0  0  0  0  0  0  0  0
    3.3344   18.0717    2.4243 H   0  0  0  0  0  0  0  0  0  0  0  0
    2.5688   16.6546    1.6291 H   0  0  0  0  0  0  0  0  0  0  0  0
    4.3568   16.8270    1.6291 H   0  0  0  0  0  0  0  0  0  0  0  0
    5.1647   19.0281    1.0358 H   0  0  0  0  0  0  0  0  0  0  0  0
    5.3718   18.1326   -0.5075 H   0  0  0  0  0  0  0  0  0  0  0  0
    4.6041   19.7566   -0.5075 H   0  0  0  0  0  0  0  0  0  0  0  0
    0.1486   17.4574   -2.9911 H   0  0  0  0  0  0  0  0  0  0  0  0
    1.5259   16.7785   -3.9233 H   0  0  0  0  0  0  0  0  0  0  0  0
   -0.0606   15.9362   -3.9233 H   0  0  0  0  0  0  0  0  0  0  0  0
   -0.7960   15.4887   -0.9878 H   0  0  0  0  0  0  0  0  0  0  0  0
   -0.6536   14.5502   -2.5795 H   0  0  0  0  0  0  0  0  0  0  0  0
    0.4693   13.7784    0.1283 H   0  0  0  0  0  0  0  0  0  0  0  0
   -0.8303   12.9639   -0.8279 H   0  0  0  0  0  0  0  0  0  0  0  0
   -0.3356   11.7146   -2.8801 H   0  0  0  0  0  0  0  0  0  0  0  0
    0.3304   13.2321   -3.5733 H   0  0  0  0  0  0  0  0  0  0  0  0
    1.3214   11.7339   -3.5733 H   0  0  0  0  0  0  0  0  0  0  0  0
  1  2  1  0
  2  3  1  0
  3  4  1  0
  4  5  1  0
  5  6  1  0
  6  7  1  0
  7  8  1  0
  7  9  1  0
  2 10  1  0
 10 11  1  0
 11 12  1  0
 12 13  1  0
 13 14  1  1
 13 15  1  0
 15 16  1  0
 16 17  1  0
 17 18  2  0
 18 19  1  0
 19 20  1  0
 20 21  1  0
 21 22  1  0
 22 23  1  0
 22 24  1  0
 24 25  1  0
 24 26  1  0
 19 27  1  0
 27 28  1  6
 27 29  1  0
 29 30  1  0
 30 31  1  0
 31 32  1  6
  7  5  1  0
 31 10  1  0
 31 13  1  0
 27 15  1  0
 24 18  1  0
  1 33  1  0
  1 34  1  0
  1 35  1  0
  2 36  1  6
  3 37  1  0
  3 38  1  0
  4 39  1  0
  4 40  1  0
  5 41  1  1
  8 42  1  0
  8 43  1  0
  8 44  1  0
  9 45  1  0
  9 46  1  0
  9 47  1  0
 10 48  1  1
 11 49  1  0
 11 50  1  0
 12 51  1  0
 12 52  1  0
 14 53  1  0
 14 54  1  0
 14 55  1  0
 15 56  1  6
 16 57  1  0
 16 58  1  0
 17 59  1  0
 19 60  1  1
 20 61  1  0
 20 62  1  0
 21 63  1  0
 21 64  1  0
 22 65  1  1
 23 66  1  0
 25 67  1  0
 25 68  1  0
 25 69  1  0
 26 70  1  0
 26 71  1  0
 26 72  1  0
 28 73  1  0
 28 74  1  0
 28 75  1  0
 29 76  1  0
 29 77  1  0
 30 78  1  0
 30 79  1  0
 32 80  1  0
 32 81  1  0
 32 82  1  0
M  END
>  <meeko>  (13) 
{"is_sidechain": [false], "intermolecular_energy": 2.731, "internal_energy": -0.839}

$$$$
EPH_relaxed_0001_pdb2pqr_Repair_152_r2_0001_out
     RDKit          3D

 82 86  0  0  0  0  0  0  0  0999 V2000
   -0.9180    8.2100   -1.8540 C   0  0  0  0  0  0  0  0  0  0  0  0
   -0.4740    8.7680   -0.4990 C   0  0  2  0  0  0  0  0  0  0  0  0
   -1.6450    9.4000    0.2800 C   0  0  0  0  0  0  0  0  0  0  0  0
   -1.3900   10.8490    0.7050 C   0  0  0  0  0  0  0  0  0  0  0  0
   -0.4320   10.9290    1.8550 C   0  0  2  0  0  0  0  0  0  0  0  0
   -0.7700   11.9040    2.8500 O   0  0  0  0  0  0  0  0  0  0  0  0
    0.4500   12.1330    2.1270 C   0  0  0  0  0  0  0  0  0  0  0  0
    0.4170   13.3400    1.2430 C   0  0  0  0  0  0  0  0  0  0  0  0
    1.6850   11.9440    2.9530 C   0  0  0  0  0  0  0  0  0  0  0  0
    0.6340    9.7950   -0.6980 C   0  0  1  0  0  0  0  0  0  0  0  0
    1.9980    9.1420   -1.0470 C   0  0  0  0  0  0  0  0  0  0  0  0
    2.7160   10.1040   -2.0290 C   0  0  0  0  0  0  0  0  0  0  0  0
    1.9020   11.4170   -1.9540 C   0  0  1  0  0  0  0  0  0  0  0  0
    2.4220   12.1380   -0.6700 C   0  0  0  0  0  0  0  0  0  0  0  0
    1.9750   12.3480   -3.2080 C   0  0  2  0  0  0  0  0  0  0  0  0
    3.3750   12.8950   -3.5340 C   0  0  0  0  0  0  0  0  0  0  0  0
    3.7150   14.2010   -2.8940 C   0  0  0  0  0  0  0  0  0  0  0  0
    2.8350   15.0440   -2.3230 C   0  0  0  0  0  0  0  0  0  0  0  0
    1.3280   14.7600   -2.3690 C   0  0  1  0  0  0  0  0  0  0  0  0
    0.5700   16.0510   -2.7770 C   0  0  0  0  0  0  0  0  0  0  0  0
    0.9130   17.2380   -1.8830 C   0  0  0  0  0  0  0  0  0  0  0  0
    2.4120   17.5250   -1.9080 C   0  0  2  0  0  0  0  0  0  0  0  0
    2.7720   17.9770   -3.2170 O   0  0  0  0  0  0  0  0  0  0  0  0
    3.2790   16.2940   -1.5240 C   0  0  0  0  0  0  0  0  0  0  0  0
    3.1110   15.9900   -0.0140 C   0  0  0  0  0  0  0  0  0  0  0  0
    4.7700   16.6770   -1.7260 C   0  0  0  0  0  0  0  0  0  0  0  0
    0.8860   13.4970   -3.2260 C   0  0  1  0  0  0  0  0  0  0  0  0
    0.6960   13.9060   -4.7190 C   0  0  0  0  0  0  0  0  0  0  0  0
   -0.5190   12.9980   -2.7200 C   0  0  0  0  0  0  0  0  0  0  0  0
   -0.5200   11.9870   -1.5570 C   0  0  0  0  0  0  0  0  0  0  0  0
    0.4480   10.8330   -1.8330 C   0  0  2  0  0  0  0  0  0  0  0  0
   -0.0620   10.0750   -3.1060 C   0  0  0  0  0  0  0  0  0  0  0  0
   -1.5958    7.3582   -1.6955 H   0  0  0  0  0  0  0  0  0  0  0  0
   -1.4414    8.9947   -2.4200 H   0  0  0  0  0  0  0  0  0  0  0  0
   -0.0358    7.8762   -2.4200 H   0  0  0  0  0  0  0  0  0  0  0  0
   -0.0965    7.9253    0.0988 H   0  0  0  0  0  0  0  0  0  0  0  0
   -2.5398    9.3779   -0.3594 H   0  0  0  0  0  0  0  0  0  0  0  0
   -1.7731    8.8124    1.2010 H   0  0  0  0  0  0  0  0  0  0  0  0
   -0.9699   11.4020   -0.1480 H   0  0  0  0  0  0  0  0  0  0  0  0
   -2.3474   11.2860    1.0252 H   0  0  0  0  0  0  0  0  0  0  0  0
   -0.2100    9.8546    1.7747 H   0  0  0  0  0  0  0  0  0  0  0  0
    0.3922   14.2481    1.8632 H   0  0  0  0  0  0  0  0  0  0  0  0
    1.3151   13.3541    0.6080 H   0  0  0  0  0  0  0  0  0  0  0  0
   -0.4805   13.3050    0.6080 H   0  0  0  0  0  0  0  0  0  0  0  0
    1.4220   11.9843    4.0203 H   0  0  0  0  0  0  0  0  0  0  0  0
    2.1342   10.9667    2.7227 H   0  0  0  0  0  0  0  0  0  0  0  0
    2.4059   12.7423    2.7227 H   0  0  0  0  0  0  0  0  0  0  0  0
    0.5965   10.2973    0.2799 H   0  0  0  0  0  0  0  0  0  0  0  0
    2.6001    9.0122   -0.1356 H   0  0  0  0  0  0  0  0  0  0  0  0
    1.8566    8.1492   -1.4990 H   0  0  0  0  0  0  0  0  0  0  0  0
    3.7565   10.2737   -1.7152 H   0  0  0  0  0  0  0  0  0  0  0  0
    2.7618    9.6993   -3.0508 H   0  0  0  0  0  0  0  0  0  0  0  0
    2.0453   11.6157    0.2218 H   0  0  0  0  0  0  0  0  0  0  0  0
    3.5219   12.1277   -0.6637 H   0  0  0  0  0  0  0  0  0  0  0  0
    2.0650   13.1784   -0.6637 H   0  0  0  0  0  0  0  0  0  0  0  0
    1.7259   11.6590   -4.0285 H   0  0  0  0  0  0  0  0  0  0  0  0
    4.1156   12.1517   -3.2038 H   0  0  0  0  0  0  0  0  0  0  0  0
    3.3858   13.0760   -4.6189 H   0  0  0  0  0  0  0  0  0  0  0  0
    4.7739   14.4989   -2.8890 H   0  0  0  0  0  0  0  0  0  0  0  0
    1.0430   14.4661   -1.3480 H   0  0  0  0  0  0  0  0  0  0  0  0
    0.8353   16.3027   -3.8144 H   0  0  0  0  0  0  0  0  0  0  0  0
   -0.5069   15.8534   -2.6710 H   0  0  0  0  0  0  0  0  0  0  0  0
    0.3705   18.1259   -2.2398 H   0  0  0  0  0  0  0  0  0  0  0  0
    0.6191   16.9965   -0.8509 H   0  0  0  0  0  0  0  0  0  0  0  0
    2.6125   18.2973   -1.1508 H   0  0  0  0  0  0  0  0  0  0  0  0
    1.9560   18.2480   -3.6700 H   0  0  0  0  0  0  0  0  0  0  0  0
    3.5601   16.8027    0.5758 H   0  0  0  0  0  0  0  0  0  0  0  0
    2.0407   15.9102    0.2271 H   0  0  0  0  0  0  0  0  0  0  0  0
    3.6129   15.0413    0.2271 H   0  0  0  0  0  0  0  0  0  0  0  0
    5.2528   16.8010   -0.7454 H   0  0  0  0  0  0  0  0  0  0  0  0
    5.2802   15.8808   -2.2878 H   0  0  0  0  0  0  0  0  0  0  0  0
    4.8333   17.6206   -2.2878 H   0  0  0  0  0  0  0  0  0  0  0  0
    0.2331   14.9025   -4.7701 H   0  0  0  0  0  0  0  0  0  0  0  0
    1.6750   13.9304   -5.2199 H   0  0  0  0  0  0  0  0  0  0  0  0
    0.0459   13.1736   -5.2199 H   0  0  0  0  0  0  0  0  0  0  0  0
   -1.0880   13.8811   -2.3937 H   0  0  0  0  0  0  0  0  0  0  0  0
   -0.9561   12.4568   -3.5721 H   0  0  0  0  0  0  0  0  0  0  0  0
   -0.2138   12.5004   -0.6336 H   0  0  0  0  0  0  0  0  0  0  0  0
   -1.5347   11.5758   -1.4506 H   0  0  0  0  0  0  0  0  0  0  0  0
   -0.6517    9.1986   -2.7992 H   0  0  0  0  0  0  0  0  0  0  0  0
   -0.6913   10.7485   -3.7062 H   0  0  0  0  0  0  0  0  0  0  0  0
    0.7990    9.7458   -3.7062 H   0  0  0  0  0  0  0  0  0  0  0  0
  1  2  1  0
  2  3  1  0
  3  4  1  0
  4  5  1  0
  5  6  1  0
  6  7  1  0
  7  8  1  0
  7  9  1  0
  2 10  1  0
 10 11  1  0
 11 12  1  0
 12 13  1  0
 13 14  1  1
 13 15  1  0
 15 16  1  0
 16 17  1  0
 17 18  2  0
 18 19  1  0
 19 20  1  0
 20 21  1  0
 21 22  1  0
 22 23  1  0
 22 24  1  0
 24 25  1  0
 24 26  1  0
 19 27  1  0
 27 28  1  6
 27 29  1  0
 29 30  1  0
 30 31  1  0
 31 32  1  6
  7  5  1  0
 31 10  1  0
 31 13  1  0
 27 15  1  0
 24 18  1  0
  1 33  1  0
  1 34  1  0
  1 35  1  0
  2 36  1  1
  3 37  1  0
  3 38  1  0
  4 39  1  0
  4 40  1  0
  5 41  1  1
  8 42  1  0
  8 43  1  0
  8 44  1  0
  9 45  1  0
  9 46  1  0
  9 47  1  0
 10 48  1  1
 11 49  1  0
 11 50  1  0
 12 51  1  0
 12 52  1  0
 14 53  1  0
 14 54  1  0
 14 55  1  0
 15 56  1  6
 16 57  1  0
 16 58  1  0
 17 59  1  0
 19 60  1  1
 20 61  1  0
 20 62  1  0
 21 63  1  0
 21 64  1  0
 22 65  1  1
 23 66  1  0
 25 67  1  0
 25 68  1  0
 25 69  1  0
 26 70  1  0
 26 71  1  0
 26 72  1  0
 28 73  1  0
 28 74  1  0
 28 75  1  0
 29 76  1  0
 29 77  1  0
 30 78  1  0
 30 79  1  0
 32 80  1  0
 32 81  1  0
 32 82  1  0
M  END
>  <meeko>  (14) 
{"is_sidechain": [false], "intermolecular_energy": 2.731, "internal_energy": -0.839}

$$$$
EPH_relaxed_0001_pdb2pqr_Repair_152_r2_0001_out
     RDKit          3D

 82 86  0  0  0  0  0  0  0  0999 V2000
    1.3330   17.8000   -2.5940 C   0  0  0  0  0  0  0  0  0  0  0  0
    2.6450   17.1770   -2.1090 C   0  0  2  0  0  0  0  0  0  0  0  0
    3.8710   17.7620   -2.8400 C   0  0  0  0  0  0  0  0  0  0  0  0
    5.2060   17.1910   -2.3560 C   0  0  0  0  0  0  0  0  0  0  0  0
    6.3700   17.8930   -2.9870 C   0  0  2  0  0  0  0  0  0  0  0  0
    6.2610   18.0800   -4.4040 O   0  0  0  0  0  0  0  0  0  0  0  0
    7.3250   17.2240   -3.9570 C   0  0  0  0  0  0  0  0  0  0  0  0
    7.1590   15.7900   -4.3520 C   0  0  0  0  0  0  0  0  0  0  0  0
    8.6890   17.8130   -4.1400 C   0  0  0  0  0  0  0  0  0  0  0  0
    2.6020   15.6640   -2.2940 C   0  0  1  0  0  0  0  0  0  0  0  0
    3.9950   15.0620   -2.6190 C   0  0  0  0  0  0  0  0  0  0  0  0
    4.0490   13.6690   -1.9390 C   0  0  0  0  0  0  0  0  0  0  0  0
    2.5860   13.3760   -1.5340 C   0  0  1  0  0  0  0  0  0  0  0  0
    1.9050   12.8530   -2.8370 C   0  0  0  0  0  0  0  0  0  0  0  0
    2.3840   12.3860   -0.3410 C   0  0  2  0  0  0  0  0  0  0  0  0
    2.9080   10.9590   -0.5810 C   0  0  0  0  0  0  0  0  0  0  0  0
    1.9190   10.0080   -1.1710 C   0  0  0  0  0  0  0  0  0  0  0  0
    0.5880   10.2010   -1.2310 C   0  0  0  0  0  0  0  0  0  0  0  0
   -0.0590   11.4320   -0.5830 C   0  0  1  0  0  0  0  0  0  0  0  0
   -1.3030   10.9930    0.2330 C   0  0  0  0  0  0  0  0  0  0  0  0
   -2.2930   10.1830   -0.5990 C   0  0  0  0  0  0  0  0  0  0  0  0
   -1.6270    8.9370   -1.1780 C   0  0  2  0  0  0  0  0  0  0  0  0
   -1.2900    8.0530   -0.1050 O   0  0  0  0  0  0  0  0  0  0  0  0
   -0.3550    9.2540   -2.0130 C   0  0  0  0  0  0  0  0  0  0  0  0
   -0.7600    9.9550   -3.3340 C   0  0  0  0  0  0  0  0  0  0  0  0
    0.2980    7.9060   -2.4200 C   0  0  0  0  0  0  0  0  0  0  0  0
    0.9160   12.3710    0.2490 C   0  0  1  0  0  0  0  0  0  0  0  0
    1.0300   11.8540    1.7160 C   0  0  0  0  0  0  0  0  0  0  0  0
    0.2910   13.8140    0.3350 C   0  0  0  0  0  0  0  0  0  0  0  0
    0.6240   14.7840   -0.8140 C   0  0  0  0  0  0  0  0  0  0  0  0
    2.1310   14.8130   -1.0880 C   0  0  2  0  0  0  0  0  0  0  0  0
    2.8400   15.3570    0.1980 C   0  0  0  0  0  0  0  0  0  0  0  0
    0.7221   18.0901   -1.7264 H   0  0  0  0  0  0  0  0  0  0  0  0
    1.5524   18.6901   -3.2020 H   0  0  0  0  0  0  0  0  0  0  0  0
    0.7819   17.0674   -3.2020 H   0  0  0  0  0  0  0  0  0  0  0  0
    2.7507   17.4184   -1.0410 H   0  0  0  0  0  0  0  0  0  0  0  0
    3.7702   17.5469   -3.9140 H   0  0  0  0  0  0  0  0  0  0  0  0
    3.8871   18.8412   -2.6279 H   0  0  0  0  0  0  0  0  0  0  0  0
    5.2687   17.3075   -1.2640 H   0  0  0  0  0  0  0  0  0  0  0  0
    5.2492   16.1298   -2.6422 H   0  0  0  0  0  0  0  0  0  0  0  0
    6.5388   18.4825   -2.0737 H   0  0  0  0  0  0  0  0  0  0  0  0
    7.0869   15.1668   -3.4485 H   0  0  0  0  0  0  0  0  0  0  0  0
    6.2419   15.6779   -4.9489 H   0  0  0  0  0  0  0  0  0  0  0  0
    8.0263   15.4713   -4.9489 H   0  0  0  0  0  0  0  0  0  0  0  0
    9.1395   18.0075   -3.1555 H   0  0  0  0  0  0  0  0  0  0  0  0
    9.3210   17.1076   -4.6995 H   0  0  0  0  0  0  0  0  0  0  0  0
    8.6088   18.7567   -4.6995 H   0  0  0  0  0  0  0  0  0  0  0  0
    1.8671   15.5989   -3.1099 H   0  0  0  0  0  0  0  0  0  0  0  0
    4.1182   14.9576   -3.7071 H   0  0  0  0  0  0  0  0  0  0  0  0
    4.8023   15.7127   -2.2519 H   0  0  0  0  0  0  0  0  0  0  0  0
    4.4172   12.9075   -2.6423 H   0  0  0  0  0  0  0  0  0  0  0  0
    4.7320   13.6517   -1.0769 H   0  0  0  0  0  0  0  0  0  0  0  0
    1.0582   12.2027   -2.5725 H   0  0  0  0  0  0  0  0  0  0  0  0
    1.5413   13.7062   -3.4285 H   0  0  0  0  0  0  0  0  0  0  0  0
    2.6354   12.2815   -3.4285 H   0  0  0  0  0  0  0  0  0  0  0  0
    3.0345   12.8169    0.4344 H   0  0  0  0  0  0  0  0  0  0  0  0
    3.7677   11.0228   -1.2642 H   0  0  0  0  0  0  0  0  0  0  0  0
    3.1629   10.5572    0.4107 H   0  0  0  0  0  0  0  0  0  0  0  0
    2.3113    9.0706   -1.5921 H   0  0  0  0  0  0  0  0  0  0  0  0
   -0.3675   12.0855   -1.4123 H   0  0  0  0  0  0  0  0  0  0  0  0
   -0.9690   10.3775    1.0813 H   0  0  0  0  0  0  0  0  0  0  0  0
   -1.8184   11.9039    0.5716 H   0  0  0  0  0  0  0  0  0  0  0  0
   -3.1349    9.8775    0.0397 H   0  0  0  0  0  0  0  0  0  0  0  0
   -2.6488   10.8096   -1.4301 H   0  0  0  0  0  0  0  0  0  0  0  0
   -2.3458    8.4692   -1.8669 H   0  0  0  0  0  0  0  0  0  0  0  0
   -0.8980    7.2530   -0.4940 H   0  0  0  0  0  0  0  0  0  0  0  0
   -1.2982   10.8865   -3.1047 H   0  0  0  0  0  0  0  0  0  0  0  0
    0.1430   10.1874   -3.9176 H   0  0  0  0  0  0  0  0  0  0  0  0
   -1.4124    9.2888   -3.9176 H   0  0  0  0  0  0  0  0  0  0  0  0
    0.5708    7.3428   -1.5153 H   0  0  0  0  0  0  0  0  0  0  0  0
   -0.4153    7.3184   -3.0165 H   0  0  0  0  0  0  0  0  0  0  0  0
    1.2013    8.1015   -3.0165 H   0  0  0  0  0  0  0  0  0  0  0  0
    0.8467   12.6851    2.4129 H   0  0  0  0  0  0  0  0  0  0  0  0
    0.2848   11.0627    1.8849 H   0  0  0  0  0  0  0  0  0  0  0  0
    2.0389   11.4495    1.8849 H   0  0  0  0  0  0  0  0  0  0  0  0
   -0.8027   13.7016    0.3693 H   0  0  0  0  0  0  0  0  0  0  0  0
    0.7359   14.2676    1.2330 H   0  0  0  0  0  0  0  0  0  0  0  0
    0.0991   14.4577   -1.7239 H   0  0  0  0  0  0  0  0  0  0  0  0
    0.3007   15.7948   -0.5244 H   0  0  0  0  0  0  0  0  0  0  0  0
    2.3303   14.9659    1.0909 H   0  0  0  0  0  0  0  0  0  0  0  0
    3.8906   15.0310    0.2032 H   0  0  0  0  0  0  0  0  0  0  0  0
    2.7971   16.4562    0.2032 H   0  0  0  0  0  0  0  0  0  0  0  0
  1  2  1  0
  2  3  1  0
  3  4  1  0
  4  5  1  0
  5  6  1  0
  6  7  1  0
  7  8  1  0
  7  9  1  0
  2 10  1  0
 10 11  1  0
 11 12  1  0
 12 13  1  0
 13 14  1  6
 13 15  1  0
 15 16  1  0
 16 17  1  0
 17 18  2  0
 18 19  1  0
 19 20  1  0
 20 21  1  0
 21 22  1  0
 22 23  1  0
 22 24  1  0
 24 25  1  0
 24 26  1  0
 19 27  1  0
 27 28  1  1
 27 29  1  0
 29 30  1  0
 30 31  1  0
 31 32  1  1
  7  5  1  0
 31 10  1  0
 31 13  1  0
 27 15  1  0
 24 18  1  0
  1 33  1  0
  1 34  1  0
  1 35  1  0
  2 36  1  1
  3 37  1  0
  3 38  1  0
  4 39  1  0
  4 40  1  0
  5 41  1  1
  8 42  1  0
  8 43  1  0
  8 44  1  0
  9 45  1  0
  9 46  1  0
  9 47  1  0
 10 48  1  6
 11 49  1  0
 11 50  1  0
 12 51  1  0
 12 52  1  0
 14 53  1  0
 14 54  1  0
 14 55  1  0
 15 56  1  1
 16 57  1  0
 16 58  1  0
 17 59  1  0
 19 60  1  6
 20 61  1  0
 20 62  1  0
 21 63  1  0
 21 64  1  0
 22 65  1  6
 23 66  1  0
 25 67  1  0
 25 68  1  0
 25 69  1  0
 26 70  1  0
 26 71  1  0
 26 72  1  0
 28 73  1  0
 28 74  1  0
 28 75  1  0
 29 76  1  0
 29 77  1  0
 30 78  1  0
 30 79  1  0
 32 80  1  0
 32 81  1  0
 32 82  1  0
M  END
>  <meeko>  (15) 
{"is_sidechain": [false], "intermolecular_energy": 2.731, "internal_energy": -0.839}

$$$$
EPH_relaxed_0001_pdb2pqr_Repair_152_r2_0001_out
     RDKit          3D

 82 86  0  0  0  0  0  0  0  0999 V2000
   -0.1510    8.4560   -3.3600 C   0  0  0  0  0  0  0  0  0  0  0  0
   -0.6660    8.8760   -1.9800 C   0  0  2  0  0  0  0  0  0  0  0  0
   -2.0120    8.2090   -1.6350 C   0  0  0  0  0  0  0  0  0  0  0  0
   -2.5890    7.3610   -2.7720 C   0  0  0  0  0  0  0  0  0  0  0  0
   -4.0750    7.5180   -2.8820 C   0  0  2  0  0  0  0  0  0  0  0  0
   -4.7960    7.2550   -1.6710 O   0  0  0  0  0  0  0  0  0  0  0  0
   -5.0490    6.3610   -2.7670 C   0  0  0  0  0  0  0  0  0  0  0  0
   -4.5740    4.9610   -2.5320 C   0  0  0  0  0  0  0  0  0  0  0  0
   -6.4130    6.5110   -3.3650 C   0  0  0  0  0  0  0  0  0  0  0  0
   -0.8040   10.3920   -1.9160 C   0  0  1  0  0  0  0  0  0  0  0  0
   -2.1310   10.8430   -1.2500 C   0  0  0  0  0  0  0  0  0  0  0  0
   -1.8190   12.1430   -0.4650 C   0  0  0  0  0  0  0  0  0  0  0  0
   -0.4220   12.5770   -0.9680 C   0  0  1  0  0  0  0  0  0  0  0  0
   -0.6920   13.3090   -2.3200 C   0  0  0  0  0  0  0  0  0  0  0  0
    0.4210   13.4600    0.0080 C   0  0  2  0  0  0  0  0  0  0  0  0
   -0.1980   14.8260    0.3510 C   0  0  0  0  0  0  0  0  0  0  0  0
    0.1910   15.9480   -0.5530 C   0  0  0  0  0  0  0  0  0  0  0  0
    1.2200   15.9320   -1.4210 C   0  0  0  0  0  0  0  0  0  0  0  0
    2.1770   14.7350   -1.4860 C   0  0  1  0  0  0  0  0  0  0  0  0
    3.6420   15.2430   -1.5130 C   0  0  0  0  0  0  0  0  0  0  0  0
    3.8910   16.2510   -2.6310 C   0  0  0  0  0  0  0  0  0  0  0  0
    2.9610   17.4540   -2.4990 C   0  0  2  0  0  0  0  0  0  0  0  0
    3.3080   18.1770   -1.3130 O   0  0  0  0  0  0  0  0  0  0  0  0
    1.4570   17.0640   -2.4510 C   0  0  0  0  0  0  0  0  0  0  0  0
    1.0070   16.5560   -3.8430 C   0  0  0  0  0  0  0  0  0  0  0  0
    0.6380   18.3530   -2.1740 C   0  0  0  0  0  0  0  0  0  0  0  0
    1.9440   13.6010   -0.3970 C   0  0  1  0  0  0  0  0  0  0  0  0
    2.7210   13.9510    0.9090 C   0  0  0  0  0  0  0  0  0  0  0  0
    2.5510   12.2480   -0.9250 C   0  0  0  0  0  0  0  0  0  0  0  0
    1.6290   11.3630   -1.7860 C   0  0  0  0  0  0  0  0  0  0  0  0
    0.2670   11.1710   -1.1110 C   0  0  2  0  0  0  0  0  0  0  0  0
    0.5050   10.4170    0.2410 C   0  0  0  0  0  0  0  0  0  0  0  0
    0.6964    7.7649   -3.2404 H   0  0  0  0  0  0  0  0  0  0  0  0
   -0.9574    7.9547   -3.9153 H   0  0  0  0  0  0  0  0  0  0  0  0
    0.1779    9.3468   -3.9153 H   0  0  0  0  0  0  0  0  0  0  0  0
    0.0698    8.5383   -1.2354 H   0  0  0  0  0  0  0  0  0  0  0  0
   -1.8636    7.5604   -0.7591 H   0  0  0  0  0  0  0  0  0  0  0  0
   -2.7312    9.0185   -1.4413 H   0  0  0  0  0  0  0  0  0  0  0  0
   -2.1265    7.6736   -3.7198 H   0  0  0  0  0  0  0  0  0  0  0  0
   -2.3711    6.3046   -2.5562 H   0  0  0  0  0  0  0  0  0  0  0  0
   -3.9591    8.3128   -3.6336 H   0  0  0  0  0  0  0  0  0  0  0  0
   -4.5100    4.7723   -1.4502 H   0  0  0  0  0  0  0  0  0  0  0  0
   -5.2820    4.2524   -2.9866 H   0  0  0  0  0  0  0  0  0  0  0  0
   -3.5810    4.8296   -2.9866 H   0  0  0  0  0  0  0  0  0  0  0  0
   -7.1590    6.5930   -2.5607 H   0  0  0  0  0  0  0  0  0  0  0  0
   -6.4430    7.4179   -3.9869 H   0  0  0  0  0  0  0  0  0  0  0  0
   -6.6394    5.6323   -3.9869 H   0  0  0  0  0  0  0  0  0  0  0  0
   -0.7172   10.6302   -2.9864 H   0  0  0  0  0  0  0  0  0  0  0  0
   -2.8932   11.0385   -2.0187 H   0  0  0  0  0  0  0  0  0  0  0  0
   -2.5222   10.0623   -0.5811 H   0  0  0  0  0  0  0  0  0  0  0  0
   -2.5684   12.9180   -0.6836 H   0  0  0  0  0  0  0  0  0  0  0  0
   -1.8407   11.9881    0.6238 H   0  0  0  0  0  0  0  0  0  0  0  0
   -1.0663   14.3237   -2.1192 H   0  0  0  0  0  0  0  0  0  0  0  0
    0.2427   13.3704   -2.8968 H   0  0  0  0  0  0  0  0  0  0  0  0
   -1.4426   12.7488   -2.8968 H   0  0  0  0  0  0  0  0  0  0  0  0
    0.3914   12.8760    0.9397 H   0  0  0  0  0  0  0  0  0  0  0  0
   -1.2924   14.7224    0.3124 H   0  0  0  0  0  0  0  0  0  0  0  0
    0.1849   15.0917    1.3474 H   0  0  0  0  0  0  0  0  0  0  0  0
   -0.4141   16.8654   -0.5061 H   0  0  0  0  0  0  0  0  0  0  0  0
    1.9464   14.2127   -2.4262 H   0  0  0  0  0  0  0  0  0  0  0  0
    3.8667   15.7229   -0.5490 H   0  0  0  0  0  0  0  0  0  0  0  0
    4.2931   14.3752   -1.6946 H   0  0  0  0  0  0  0  0  0  0  0  0
    4.9344   16.5954   -2.5792 H   0  0  0  0  0  0  0  0  0  0  0  0
    3.6950   15.7603   -3.5958 H   0  0  0  0  0  0  0  0  0  0  0  0
    3.0956   18.0747   -3.3971 H   0  0  0  0  0  0  0  0  0  0  0  0
    4.2590   18.0460   -1.1570 H   0  0  0  0  0  0  0  0  0  0  0  0
    0.2823   15.7379   -3.7181 H   0  0  0  0  0  0  0  0  0  0  0  0
    0.5372   17.3802   -4.3998 H   0  0  0  0  0  0  0  0  0  0  0  0
    1.8818   16.1891   -4.3998 H   0  0  0  0  0  0  0  0  0  0  0  0
    0.5438   18.5013   -1.0881 H   0  0  0  0  0  0  0  0  0  0  0  0
    1.1530   19.2173   -2.6188 H   0  0  0  0  0  0  0  0  0  0  0  0
   -0.3632   18.2540   -2.6188 H   0  0  0  0  0  0  0  0  0  0  0  0
    2.1118   13.6766    1.7828 H   0  0  0  0  0  0  0  0  0  0  0  0
    3.6685   13.3928    0.9327 H   0  0  0  0  0  0  0  0  0  0  0  0
    2.9308   15.0306    0.9327 H   0  0  0  0  0  0  0  0  0  0  0  0
    3.4363   12.4938   -1.5298 H   0  0  0  0  0  0  0  0  0  0  0  0
    2.7600   11.6544   -0.0228 H   0  0  0  0  0  0  0  0  0  0  0  0
    1.4812   11.8426   -2.7648 H   0  0  0  0  0  0  0  0  0  0  0  0
    2.1023   10.3775   -1.9079 H   0  0  0  0  0  0  0  0  0  0  0  0
    0.2912   11.0942    1.0811 H   0  0  0  0  0  0  0  0  0  0  0  0
   -0.1610    9.5433    0.2957 H   0  0  0  0  0  0  0  0  0  0  0  0
    1.5519   10.0840    0.2957 H   0  0  0  0  0  0  0  0  0  0  0  0
  1  2  1  0
  2  3  1  0
  3  4  1  0
  4  5  1  0
  5  6  1  0
  6  7  1  0
  7  8  1  0
  7  9  1  0
  2 10  1  0
 10 11  1  0
 11 12  1  0
 12 13  1  0
 13 14  1  6
 13 15  1  0
 15 16  1  0
 16 17  1  0
 17 18  2  0
 18 19  1  0
 19 20  1  0
 20 21  1  0
 21 22  1  0
 22 23  1  0
 22 24  1  0
 24 25  1  0
 24 26  1  0
 19 27  1  0
 27 28  1  1
 27 29  1  0
 29 30  1  0
 30 31  1  0
 31 32  1  1
  7  5  1  0
 31 10  1  0
 31 13  1  0
 27 15  1  0
 24 18  1  0
  1 33  1  0
  1 34  1  0
  1 35  1  0
  2 36  1  1
  3 37  1  0
  3 38  1  0
  4 39  1  0
  4 40  1  0
  5 41  1  6
  8 42  1  0
  8 43  1  0
  8 44  1  0
  9 45  1  0
  9 46  1  0
  9 47  1  0
 10 48  1  6
 11 49  1  0
 11 50  1  0
 12 51  1  0
 12 52  1  0
 14 53  1  0
 14 54  1  0
 14 55  1  0
 15 56  1  1
 16 57  1  0
 16 58  1  0
 17 59  1  0
 19 60  1  6
 20 61  1  0
 20 62  1  0
 21 63  1  0
 21 64  1  0
 22 65  1  6
 23 66  1  0
 25 67  1  0
 25 68  1  0
 25 69  1  0
 26 70  1  0
 26 71  1  0
 26 72  1  0
 28 73  1  0
 28 74  1  0
 28 75  1  0
 29 76  1  0
 29 77  1  0
 30 78  1  0
 30 79  1  0
 32 80  1  0
 32 81  1  0
 32 82  1  0
M  END
>  <meeko>  (16) 
{"is_sidechain": [false], "intermolecular_energy": 2.731, "internal_energy": -0.839}

$$$$
EPH_relaxed_0001_pdb2pqr_Repair_152_r2_0001_out
     RDKit          3D

 82 86  0  0  0  0  0  0  0  0999 V2000
   -0.6990   10.4470    0.7080 C   0  0  0  0  0  0  0  0  0  0  0  0
    0.0070   10.5270   -0.6490 C   0  0  2  0  0  0  0  0  0  0  0  0
    0.6070    9.1710   -1.0720 C   0  0  0  0  0  0  0  0  0  0  0  0
   -0.3080    7.9770   -0.7890 C   0  0  0  0  0  0  0  0  0  0  0  0
   -1.2580    7.7260   -1.9210 C   0  0  2  0  0  0  0  0  0  0  0  0
   -1.7980    8.9100   -2.5230 O   0  0  0  0  0  0  0  0  0  0  0  0
   -2.7390    8.0520   -1.8580 C   0  0  0  0  0  0  0  0  0  0  0  0
   -3.3540    8.6560   -0.6350 C   0  0  0  0  0  0  0  0  0  0  0  0
   -3.6680    7.3390   -2.7910 C   0  0  0  0  0  0  0  0  0  0  0  0
    1.1000   11.5890   -0.6040 C   0  0  1  0  0  0  0  0  0  0  0  0
    2.4210   11.1150   -1.2670 C   0  0  0  0  0  0  0  0  0  0  0  0
    3.0510   12.3590   -1.9460 C   0  0  0  0  0  0  0  0  0  0  0  0
    2.2570   13.5580   -1.3770 C   0  0  1  0  0  0  0  0  0  0  0  0
    2.8990   13.8380    0.0180 C   0  0  0  0  0  0  0  0  0  0  0  0
    2.2200   14.8450   -2.2640 C   0  0  2  0  0  0  0  0  0  0  0  0
    3.5880   15.5010   -2.5200 C   0  0  0  0  0  0  0  0  0  0  0  0
    3.9940   16.5380   -1.5260 C   0  0  0  0  0  0  0  0  0  0  0  0
    3.1770   17.1310   -0.6360 C   0  0  0  0  0  0  0  0  0  0  0  0
    1.6700   16.8420   -0.6360 C   0  0  1  0  0  0  0  0  0  0  0  0
    0.8870   18.1770   -0.5350 C   0  0  0  0  0  0  0  0  0  0  0  0
    1.3200   19.0210    0.6600 C   0  0  0  0  0  0  0  0  0  0  0  0
    2.8120   19.3360    0.5940 C   0  0  2  0  0  0  0  0  0  0  0  0
    3.0530   20.1940   -0.5250 O   0  0  0  0  0  0  0  0  0  0  0  0
    3.7020   18.0660    0.4810 C   0  0  0  0  0  0  0  0  0  0  0  0
    3.6730   17.2890    1.8200 C   0  0  0  0  0  0  0  0  0  0  0  0
    5.1700   18.5290    0.2790 C   0  0  0  0  0  0  0  0  0  0  0  0
    1.1420   15.9120   -1.8120 C   0  0  1  0  0  0  0  0  0  0  0  0
    0.8180   16.7770   -3.0690 C   0  0  0  0  0  0  0  0  0  0  0  0
   -0.2130   15.2440   -1.3700 C   0  0  0  0  0  0  0  0  0  0  0  0
   -0.1140   13.9130   -0.6010 C   0  0  0  0  0  0  0  0  0  0  0  0
    0.8160   12.9320   -1.3210 C   0  0  2  0  0  0  0  0  0  0  0  0
    0.1850   12.6140   -2.7200 C   0  0  0  0  0  0  0  0  0  0  0  0
    0.0449   10.5313    1.5139 H   0  0  0  0  0  0  0  0  0  0  0  0
   -1.4256   11.2686    0.7923 H   0  0  0  0  0  0  0  0  0  0  0  0
   -1.2233    9.4837    0.7923 H   0  0  0  0  0  0  0  0  0  0  0  0
   -0.7484   10.8023   -1.3997 H   0  0  0  0  0  0  0  0  0  0  0  0
    0.8109    9.2036   -2.1524 H   0  0  0  0  0  0  0  0  0  0  0  0
    1.5200    9.0241   -0.4763 H   0  0  0  0  0  0  0  0  0  0  0  0
    0.3117    7.0808   -0.6383 H   0  0  0  0  0  0  0  0  0  0  0  0
   -0.8989    8.2035    0.1108 H   0  0  0  0  0  0  0  0  0  0  0  0
   -0.7148    6.8129   -2.2058 H   0  0  0  0  0  0  0  0  0  0  0  0
   -2.8999    8.2100    0.2622 H   0  0  0  0  0  0  0  0  0  0  0  0
   -3.1778    9.7418   -0.6340 H   0  0  0  0  0  0  0  0  0  0  0  0
   -4.4364    8.4602   -0.6340 H   0  0  0  0  0  0  0  0  0  0  0  0
   -4.4081    6.7709   -2.2083 H   0  0  0  0  0  0  0  0  0  0  0  0
   -4.1860    8.0736   -3.4250 H   0  0  0  0  0  0  0  0  0  0  0  0
   -3.0923    6.6486   -3.4250 H   0  0  0  0  0  0  0  0  0  0  0  0
    1.1582   11.7482    0.4829 H   0  0  0  0  0  0  0  0  0  0  0  0
    3.1044   10.7124   -0.5048 H   0  0  0  0  0  0  0  0  0  0  0  0
    2.2313   10.3176   -2.0006 H   0  0  0  0  0  0  0  0  0  0  0  0
    4.1175   12.4428   -1.6899 H   0  0  0  0  0  0  0  0  0  0  0  0
    2.9982   12.3068   -3.0435 H   0  0  0  0  0  0  0  0  0  0  0  0
    2.2003   13.5333    0.8110 H   0  0  0  0  0  0  0  0  0  0  0  0
    3.8336   13.2658    0.1130 H   0  0  0  0  0  0  0  0  0  0  0  0
    3.1155   14.9123    0.1130 H   0  0  0  0  0  0  0  0  0  0  0  0
    1.8915   14.4517   -3.2374 H   0  0  0  0  0  0  0  0  0  0  0  0
    4.3510   14.7087   -2.5155 H   0  0  0  0  0  0  0  0  0  0  0  0
    3.4997   16.0222   -3.4846 H   0  0  0  0  0  0  0  0  0  0  0  0
    5.0507   16.8434   -1.5205 H   0  0  0  0  0  0  0  0  0  0  0  0
    1.4781   16.2282    0.2564 H   0  0  0  0  0  0  0  0  0  0  0  0
    1.0565   18.7555   -1.4551 H   0  0  0  0  0  0  0  0  0  0  0  0
   -0.1767   17.9306   -0.4015 H   0  0  0  0  0  0  0  0  0  0  0  0
    0.7528   19.9635    0.6594 H   0  0  0  0  0  0  0  0  0  0  0  0
    1.1217   18.4531    1.5809 H   0  0  0  0  0  0  0  0  0  0  0  0
    3.0873   19.8285    1.5383 H   0  0  0  0  0  0  0  0  0  0  0  0
    3.6980   20.8660   -0.2480 H   0  0  0  0  0  0  0  0  0  0  0  0
    3.6996   18.0012    2.6579 H   0  0  0  0  0  0  0  0  0  0  0  0
    2.7519   16.6904    1.8767 H   0  0  0  0  0  0  0  0  0  0  0  0
    4.5469   16.6234    1.8767 H   0  0  0  0  0  0  0  0  0  0  0  0
    5.6454   18.6789    1.2596 H   0  0  0  0  0  0  0  0  0  0  0  0
    5.7225   17.7615   -0.2828 H   0  0  0  0  0  0  0  0  0  0  0  0
    5.1822   19.4746   -0.2828 H   0  0  0  0  0  0  0  0  0  0  0  0
    0.4487   17.7629   -2.7504 H   0  0  0  0  0  0  0  0  0  0  0  0
    1.7295   16.9041   -3.6715 H   0  0  0  0  0  0  0  0  0  0  0  0
    0.0473   16.2740   -3.6715 H   0  0  0  0  0  0  0  0  0  0  0  0
   -0.7430   15.9614   -0.7262 H   0  0  0  0  0  0  0  0  0  0  0  0
   -0.7306   14.9959   -2.3084 H   0  0  0  0  0  0  0  0  0  0  0  0
    0.2800   14.1084    0.4073 H   0  0  0  0  0  0  0  0  0  0  0  0
   -1.1175   13.4663   -0.5423 H   0  0  0  0  0  0  0  0  0  0  0  0
   -0.7893   12.1230   -2.5797 H   0  0  0  0  0  0  0  0  0  0  0  0
    0.0465   13.5500   -3.2811 H   0  0  0  0  0  0  0  0  0  0  0  0
    0.8549   11.9459   -3.2811 H   0  0  0  0  0  0  0  0  0  0  0  0
  1  2  1  0
  2  3  1  0
  3  4  1  0
  4  5  1  0
  5  6  1  0
  6  7  1  0
  7  8  1  0
  7  9  1  0
  2 10  1  0
 10 11  1  0
 11 12  1  0
 12 13  1  0
 13 14  1  1
 13 15  1  0
 15 16  1  0
 16 17  1  0
 17 18  2  0
 18 19  1  0
 19 20  1  0
 20 21  1  0
 21 22  1  0
 22 23  1  0
 22 24  1  0
 24 25  1  0
 24 26  1  0
 19 27  1  0
 27 28  1  6
 27 29  1  0
 29 30  1  0
 30 31  1  0
 31 32  1  6
  7  5  1  0
 31 10  1  0
 31 13  1  0
 27 15  1  0
 24 18  1  0
  1 33  1  0
  1 34  1  0
  1 35  1  0
  2 36  1  6
  3 37  1  0
  3 38  1  0
  4 39  1  0
  4 40  1  0
  5 41  1  6
  8 42  1  0
  8 43  1  0
  8 44  1  0
  9 45  1  0
  9 46  1  0
  9 47  1  0
 10 48  1  1
 11 49  1  0
 11 50  1  0
 12 51  1  0
 12 52  1  0
 14 53  1  0
 14 54  1  0
 14 55  1  0
 15 56  1  6
 16 57  1  0
 16 58  1  0
 17 59  1  0
 19 60  1  1
 20 61  1  0
 20 62  1  0
 21 63  1  0
 21 64  1  0
 22 65  1  1
 23 66  1  0
 25 67  1  0
 25 68  1  0
 25 69  1  0
 26 70  1  0
 26 71  1  0
 26 72  1  0
 28 73  1  0
 28 74  1  0
 28 75  1  0
 29 76  1  0
 29 77  1  0
 30 78  1  0
 30 79  1  0
 32 80  1  0
 32 81  1  0
 32 82  1  0
M  END
>  <meeko>  (17) 
{"is_sidechain": [false], "intermolecular_energy": 2.731, "internal_energy": -0.839}

$$$$
EPH_relaxed_0001_pdb2pqr_Repair_152_r2_0001_out
     RDKit          3D

 82 86  0  0  0  0  0  0  0  0999 V2000
    0.8590   10.2280   -4.8600 C   0  0  0  0  0  0  0  0  0  0  0  0
    1.7770   10.9990   -3.9080 C   0  0  2  0  0  0  0  0  0  0  0  0
    2.2880   10.1170   -2.7520 C   0  0  0  0  0  0  0  0  0  0  0  0
    1.2560    9.1040   -2.2480 C   0  0  0  0  0  0  0  0  0  0  0  0
    0.7600    9.4520   -0.8770 C   0  0  2  0  0  0  0  0  0  0  0  0
    0.2900    8.3360   -0.1100 O   0  0  0  0  0  0  0  0  0  0  0  0
   -0.6920    9.3260   -0.4560 C   0  0  0  0  0  0  0  0  0  0  0  0
   -1.7400    8.8380   -1.4050 C   0  0  0  0  0  0  0  0  0  0  0  0
   -1.1710   10.1340    0.7100 C   0  0  0  0  0  0  0  0  0  0  0  0
    1.0460   12.2150   -3.3510 C   0  0  1  0  0  0  0  0  0  0  0  0
   -0.3350   11.8540   -2.7410 C   0  0  0  0  0  0  0  0  0  0  0  0
   -0.5490   12.7970   -1.5300 C   0  0  0  0  0  0  0  0  0  0  0  0
    0.5450   13.8800   -1.6790 C   0  0  1  0  0  0  0  0  0  0  0  0
   -0.0280   14.8870   -2.7250 C   0  0  0  0  0  0  0  0  0  0  0  0
    0.9870   14.6010   -0.3650 C   0  0  2  0  0  0  0  0  0  0  0  0
   -0.1180   15.4050    0.3420 C   0  0  0  0  0  0  0  0  0  0  0  0
   -0.2310   16.8350   -0.0730 C   0  0  0  0  0  0  0  0  0  0  0  0
    0.6970   17.5260   -0.7610 C   0  0  0  0  0  0  0  0  0  0  0  0
    2.0510   16.8940   -1.1090 C   0  0  1  0  0  0  0  0  0  0  0  0
    3.1900   17.8950   -0.7810 C   0  0  0  0  0  0  0  0  0  0  0  0
    2.9880   19.2500   -1.4510 C   0  0  0  0  0  0  0  0  0  0  0  0
    1.6580   19.8730   -1.0350 C   0  0  2  0  0  0  0  0  0  0  0  0
    1.7160   20.1940    0.3590 O   0  0  0  0  0  0  0  0  0  0  0  0
    0.4380   18.9510   -1.3090 C   0  0  0  0  0  0  0  0  0  0  0  0
    0.1950   18.8480   -2.8350 C   0  0  0  0  0  0  0  0  0  0  0  0
   -0.8220   19.6360   -0.7140 C   0  0  0  0  0  0  0  0  0  0  0  0
    2.3170   15.4480   -0.5060 C   0  0  1  0  0  0  0  0  0  0  0  0
    2.9210   15.5710    0.9260 C   0  0  0  0  0  0  0  0  0  0  0  0
    3.4010   14.7160   -1.3830 C   0  0  0  0  0  0  0  0  0  0  0  0
    2.8900   13.9210   -2.6000 C   0  0  0  0  0  0  0  0  0  0  0  0
    1.7350   12.9960   -2.2040 C   0  0  2  0  0  0  0  0  0  0  0  0
    2.2870   11.9580   -1.1690 C   0  0  0  0  0  0  0  0  0  0  0  0
    0.1453    9.6285   -4.2759 H   0  0  0  0  0  0  0  0  0  0  0  0
    0.3084   10.9385   -5.4941 H   0  0  0  0  0  0  0  0  0  0  0  0
    1.4637    9.5630   -5.4941 H   0  0  0  0  0  0  0  0  0  0  0  0
    2.6537   11.3251   -4.4868 H   0  0  0  0  0  0  0  0  0  0  0  0
    3.1738    9.5660   -3.1010 H   0  0  0  0  0  0  0  0  0  0  0  0
    2.5159   10.7890   -1.9115 H   0  0  0  0  0  0  0  0  0  0  0  0
    0.4030    9.0889   -2.9423 H   0  0  0  0  0  0  0  0  0  0  0  0
    1.7407    8.1179   -2.1968 H   0  0  0  0  0  0  0  0  0  0  0  0
    1.4813   10.2789   -0.7998 H   0  0  0  0  0  0  0  0  0  0  0  0
   -2.5934    8.4406   -0.8361 H   0  0  0  0  0  0  0  0  0  0  0  0
   -2.0778    9.6715   -2.0384 H   0  0  0  0  0  0  0  0  0  0  0  0
   -1.3195    8.0431   -2.0384 H   0  0  0  0  0  0  0  0  0  0  0  0
   -0.8765    9.6371    1.6461 H   0  0  0  0  0  0  0  0  0  0  0  0
   -0.7216   11.1372    0.6702 H   0  0  0  0  0  0  0  0  0  0  0  0
   -2.2668   10.2212    0.6702 H   0  0  0  0  0  0  0  0  0  0  0  0
    1.0051   12.8364   -4.2577 H   0  0  0  0  0  0  0  0  0  0  0  0
   -1.1299   12.0075   -3.4857 H   0  0  0  0  0  0  0  0  0  0  0  0
   -0.3661   10.7992   -2.4306 H   0  0  0  0  0  0  0  0  0  0  0  0
   -1.5508   13.2502   -1.5633 H   0  0  0  0  0  0  0  0  0  0  0  0
   -0.4800   12.2645   -0.5700 H   0  0  0  0  0  0  0  0  0  0  0  0
   -0.5063   15.7276   -2.2009 H   0  0  0  0  0  0  0  0  0  0  0  0
    0.7899   15.2657   -3.3556 H   0  0  0  0  0  0  0  0  0  0  0  0
   -0.7714   14.3773   -3.3556 H   0  0  0  0  0  0  0  0  0  0  0  0
    1.2150   13.7562    0.3016 H   0  0  0  0  0  0  0  0  0  0  0  0
   -1.0805   14.9141    0.1357 H   0  0  0  0  0  0  0  0  0  0  0  0
    0.1501   15.4179    1.4087 H   0  0  0  0  0  0  0  0  0  0  0  0
   -1.1508   17.3692    0.2074 H   0  0  0  0  0  0  0  0  0  0  0  0
    2.0258   16.6992   -2.1913 H   0  0  0  0  0  0  0  0  0  0  0  0
    3.2272   18.0423    0.3085 H   0  0  0  0  0  0  0  0  0  0  0  0
    4.1293   17.4696   -1.1641 H   0  0  0  0  0  0  0  0  0  0  0  0
    3.8076   19.9223   -1.1573 H   0  0  0  0  0  0  0  0  0  0  0  0
    2.9810   19.1043   -2.5413 H   0  0  0  0  0  0  0  0  0  0  0  0
    1.5110   20.7765   -1.6449 H   0  0  0  0  0  0  0  0  0  0  0  0
    2.6210   20.0130    0.6650 H   0  0  0  0  0  0  0  0  0  0  0  0
   -0.8034   18.4248   -3.0196 H   0  0  0  0  0  0  0  0  0  0  0  0
    0.2574   19.8499   -3.2847 H   0  0  0  0  0  0  0  0  0  0  0  0
    0.9584   18.1961   -3.2847 H   0  0  0  0  0  0  0  0  0  0  0  0
   -0.7704   19.6079    0.3844 H   0  0  0  0  0  0  0  0  0  0  0  0
   -0.8651   20.6817   -1.0525 H   0  0  0  0  0  0  0  0  0  0  0  0
   -1.7231   19.1036   -1.0525 H   0  0  0  0  0  0  0  0  0  0  0  0
    2.1296   15.4098    1.6728 H   0  0  0  0  0  0  0  0  0  0  0  0
    3.7090   14.8149    1.0578 H   0  0  0  0  0  0  0  0  0  0  0  0
    3.3505   16.5751    1.0578 H   0  0  0  0  0  0  0  0  0  0  0  0
    4.0997   15.4801   -1.7544 H   0  0  0  0  0  0  0  0  0  0  0  0
    3.8502   13.9647   -0.7169 H   0  0  0  0  0  0  0  0  0  0  0  0
    2.5397   14.6254   -3.3688 H   0  0  0  0  0  0  0  0  0  0  0  0
    3.7148   13.3059   -2.9890 H   0  0  0  0  0  0  0  0  0  0  0  0
    2.0945   12.3201   -0.1483 H   0  0  0  0  0  0  0  0  0  0  0  0
    1.7841   10.9908   -1.3159 H   0  0  0  0  0  0  0  0  0  0  0  0
    3.3701   11.8342   -1.3159 H   0  0  0  0  0  0  0  0  0  0  0  0
  1  2  1  0
  2  3  1  0
  3  4  1  0
  4  5  1  0
  5  6  1  0
  6  7  1  0
  7  8  1  0
  7  9  1  0
  2 10  1  0
 10 11  1  0
 11 12  1  0
 12 13  1  0
 13 14  1  6
 13 15  1  0
 15 16  1  0
 16 17  1  0
 17 18  2  0
 18 19  1  0
 19 20  1  0
 20 21  1  0
 21 22  1  0
 22 23  1  0
 22 24  1  0
 24 25  1  0
 24 26  1  0
 19 27  1  0
 27 28  1  1
 27 29  1  0
 29 30  1  0
 30 31  1  0
 31 32  1  1
  7  5  1  0
 31 10  1  0
 31 13  1  0
 27 15  1  0
 24 18  1  0
  1 33  1  0
  1 34  1  0
  1 35  1  0
  2 36  1  6
  3 37  1  0
  3 38  1  0
  4 39  1  0
  4 40  1  0
  5 41  1  1
  8 42  1  0
  8 43  1  0
  8 44  1  0
  9 45  1  0
  9 46  1  0
  9 47  1  0
 10 48  1  6
 11 49  1  0
 11 50  1  0
 12 51  1  0
 12 52  1  0
 14 53  1  0
 14 54  1  0
 14 55  1  0
 15 56  1  1
 16 57  1  0
 16 58  1  0
 17 59  1  0
 19 60  1  6
 20 61  1  0
 20 62  1  0
 21 63  1  0
 21 64  1  0
 22 65  1  6
 23 66  1  0
 25 67  1  0
 25 68  1  0
 25 69  1  0
 26 70  1  0
 26 71  1  0
 26 72  1  0
 28 73  1  0
 28 74  1  0
 28 75  1  0
 29 76  1  0
 29 77  1  0
 30 78  1  0
 30 79  1  0
 32 80  1  0
 32 81  1  0
 32 82  1  0
M  END
>  <meeko>  (18) 
{"is_sidechain": [false], "intermolecular_energy": 2.731, "internal_energy": -0.839}

$$$$
