EPH_relaxed_0001_pdb2pqr_Repair_64_r2_0001_out
     RDKit          3D

 82 86  0  0  0  0  0  0  0  0999 V2000
   -1.0110    8.2310   -1.8310 C   0  0  0  0  0  0  0  0  0  0  0  0
   -1.6730    9.0670   -0.7320 C   0  0  2  0  0  0  0  0  0  0  0  0
   -3.0810    9.5490   -1.1370 C   0  0  0  0  0  0  0  0  0  0  0  0
   -4.2060    8.9290   -0.3050 C   0  0  0  0  0  0  0  0  0  0  0  0
   -4.5750    7.5640   -0.8000 C   0  0  2  0  0  0  0  0  0  0  0  0
   -4.5620    7.4210   -2.2270 O   0  0  0  0  0  0  0  0  0  0  0  0
   -5.8400    7.2730   -1.5870 C   0  0  0  0  0  0  0  0  0  0  0  0
   -6.8170    8.3560   -1.9220 C   0  0  0  0  0  0  0  0  0  0  0  0
   -6.3640    5.8710   -1.6050 C   0  0  0  0  0  0  0  0  0  0  0  0
   -0.7930   10.2630   -0.3880 C   0  0  1  0  0  0  0  0  0  0  0  0
    0.3890    9.8860    0.5450 C   0  0  0  0  0  0  0  0  0  0  0  0
    1.5880   10.7760    0.1300 C   0  0  0  0  0  0  0  0  0  0  0  0
    0.9730   11.8560   -0.7900 C   0  0  1  0  0  0  0  0  0  0  0  0
    0.3620   12.9130    0.1830 C   0  0  0  0  0  0  0  0  0  0  0  0
    1.9410   12.5160   -1.8250 C   0  0  2  0  0  0  0  0  0  0  0  0
    3.1170   13.2960   -1.2130 C   0  0  0  0  0  0  0  0  0  0  0  0
    2.8570   14.7440   -0.9560 C   0  0  0  0  0  0  0  0  0  0  0  0
    1.8340   15.4570   -1.4630 C   0  0  0  0  0  0  0  0  0  0  0  0
    0.8600   14.8310   -2.4690 C   0  0  1  0  0  0  0  0  0  0  0  0
    0.6410   15.8080   -3.6540 C   0  0  0  0  0  0  0  0  0  0  0  0
    0.1950   17.1930   -3.1950 C   0  0  0  0  0  0  0  0  0  0  0  0
    1.2180   17.8060   -2.2420 C   0  0  2  0  0  0  0  0  0  0  0  0
    2.4250   18.0650   -2.9650 O   0  0  0  0  0  0  0  0  0  0  0  0
    1.5270   16.9070   -1.0130 C   0  0  0  0  0  0  0  0  0  0  0  0
    0.2990   16.8730   -0.0700 C   0  0  0  0  0  0  0  0  0  0  0  0
    2.6740   17.5750   -0.2080 C   0  0  0  0  0  0  0  0  0  0  0  0
    1.2120   13.3570   -2.9500 C   0  0  1  0  0  0  0  0  0  0  0  0
    2.1870   13.4130   -4.1660 C   0  0  0  0  0  0  0  0  0  0  0  0
   -0.1000   12.6570   -3.4650 C   0  0  0  0  0  0  0  0  0  0  0  0
   -0.9530   11.9200   -2.4140 C   0  0  0  0  0  0  0  0  0  0  0  0
   -0.0870   10.9880   -1.5620 C   0  0  2  0  0  0  0  0  0  0  0  0
    0.5230    9.9000   -2.5110 C   0  0  0  0  0  0  0  0  0  0  0  0
   -0.3904    7.4473   -1.3719 H   0  0  0  0  0  0  0  0  0  0  0  0
   -1.7876    7.7650   -2.4553 H   0  0  0  0  0  0  0  0  0  0  0  0
   -0.3794    8.8801   -2.4553 H   0  0  0  0  0  0  0  0  0  0  0  0
   -1.7863    8.4216    0.1515 H   0  0  0  0  0  0  0  0  0  0  0  0
   -3.1219   10.6417   -1.0171 H   0  0  0  0  0  0  0  0  0  0  0  0
   -3.2411    9.2351   -2.1790 H   0  0  0  0  0  0  0  0  0  0  0  0
   -3.8743    8.8511    0.7409 H   0  0  0  0  0  0  0  0  0  0  0  0
   -5.0918    9.5755   -0.3910 H   0  0  0  0  0  0  0  0  0  0  0  0
   -4.1381    7.0955    0.0942 H   0  0  0  0  0  0  0  0  0  0  0  0
   -7.2119    8.7937   -0.9933 H   0  0  0  0  0  0  0  0  0  0  0  0
   -6.3117    9.1368   -2.5095 H   0  0  0  0  0  0  0  0  0  0  0  0
   -7.6455    7.9335   -2.5095 H   0  0  0  0  0  0  0  0  0  0  0  0
   -6.4967    5.5159   -0.5724 H   0  0  0  0  0  0  0  0  0  0  0  0
   -7.3315    5.8478   -2.1279 H   0  0  0  0  0  0  0  0  0  0  0  0
   -5.6489    5.2190   -2.1279 H   0  0  0  0  0  0  0  0  0  0  0  0
   -1.5480   10.9238    0.0630 H   0  0  0  0  0  0  0  0  0  0  0  0
    0.1197   10.0784    1.5940 H   0  0  0  0  0  0  0  0  0  0  0  0
    0.6392    8.8187    0.4537 H   0  0  0  0  0  0  0  0  0  0  0  0
    2.0530   11.2376    1.0136 H   0  0  0  0  0  0  0  0  0  0  0  0
    2.3794   10.2011   -0.3732 H   0  0  0  0  0  0  0  0  0  0  0  0
    0.5420   12.6017    1.2226 H   0  0  0  0  0  0  0  0  0  0  0  0
    0.8343   13.8905    0.0060 H   0  0  0  0  0  0  0  0  0  0  0  0
   -0.7208   12.9916    0.0060 H   0  0  0  0  0  0  0  0  0  0  0  0
    2.3884   11.6416   -2.3202 H   0  0  0  0  0  0  0  0  0  0  0  0
    3.3774   12.8221   -0.2551 H   0  0  0  0  0  0  0  0  0  0  0  0
    3.9265   13.2595   -1.9569 H   0  0  0  0  0  0  0  0  0  0  0  0
    3.5611   15.2726   -0.2966 H   0  0  0  0  0  0  0  0  0  0  0  0
   -0.0855   14.6845   -1.9263 H   0  0  0  0  0  0  0  0  0  0  0  0
    1.5859   15.9075   -4.2084 H   0  0  0  0  0  0  0  0  0  0  0  0
   -0.1574   15.3925   -4.2864 H   0  0  0  0  0  0  0  0  0  0  0  0
    0.0849   17.8456   -4.0736 H   0  0  0  0  0  0  0  0  0  0  0  0
   -0.7646   17.0961   -2.6660 H   0  0  0  0  0  0  0  0  0  0  0  0
    0.7842   18.7367   -1.8476 H   0  0  0  0  0  0  0  0  0  0  0  0
    3.1020   18.3330   -2.3210 H   0  0  0  0  0  0  0  0  0  0  0  0
    0.6395   16.8824    0.9759 H   0  0  0  0  0  0  0  0  0  0  0  0
   -0.3322   17.7540   -0.2581 H   0  0  0  0  0  0  0  0  0  0  0  0
   -0.2825   15.9584   -0.2581 H   0  0  0  0  0  0  0  0  0  0  0  0
    2.4802   17.4621    0.8689 H   0  0  0  0  0  0  0  0  0  0  0  0
    3.6293   17.0920   -0.4612 H   0  0  0  0  0  0  0  0  0  0  0  0
    2.7253   18.6442   -0.4612 H   0  0  0  0  0  0  0  0  0  0  0  0
    3.2235   13.4725   -3.8025 H   0  0  0  0  0  0  0  0  0  0  0  0
    2.0641   12.5063   -4.7766 H   0  0  0  0  0  0  0  0  0  0  0  0
    1.9611   14.2997   -4.7766 H   0  0  0  0  0  0  0  0  0  0  0  0
   -0.7325   13.4316   -3.9232 H   0  0  0  0  0  0  0  0  0  0  0  0
    0.2441   11.8740   -4.1568 H   0  0  0  0  0  0  0  0  0  0  0  0
   -1.4366   12.6602   -1.7596 H   0  0  0  0  0  0  0  0  0  0  0  0
   -1.7094   11.3161   -2.9366 H   0  0  0  0  0  0  0  0  0  0  0  0
    0.9728    9.0977   -1.9076 H   0  0  0  0  0  0  0  0  0  0  0  0
   -0.2713    9.4801   -3.1457 H   0  0  0  0  0  0  0  0  0  0  0  0
    1.2956   10.3586   -3.1457 H   0  0  0  0  0  0  0  0  0  0  0  0
  1  2  1  0
  2  3  1  0
  3  4  1  0
  4  5  1  0
  5  6  1  0
  6  7  1  0
  7  8  1  0
  7  9  1  0
  2 10  1  0
 10 11  1  0
 11 12  1  0
 12 13  1  0
 13 14  1  1
 13 15  1  0
 15 16  1  0
 16 17  1  0
 17 18  2  0
 18 19  1  0
 19 20  1  0
 20 21  1  0
 21 22  1  0
 22 23  1  0
 22 24  1  0
 24 25  1  0
 24 26  1  0
 19 27  1  0
 27 28  1  6
 27 29  1  0
 29 30  1  0
 30 31  1  0
 31 32  1  6
  7  5  1  0
 31 10  1  0
 31 13  1  0
 27 15  1  0
 24 18  1  0
  1 33  1  0
  1 34  1  0
  1 35  1  0
  2 36  1  1
  3 37  1  0
  3 38  1  0
  4 39  1  0
  4 40  1  0
  5 41  1  1
  8 42  1  0
  8 43  1  0
  8 44  1  0
  9 45  1  0
  9 46  1  0
  9 47  1  0
 10 48  1  1
 11 49  1  0
 11 50  1  0
 12 51  1  0
 12 52  1  0
 14 53  1  0
 14 54  1  0
 14 55  1  0
 15 56  1  6
 16 57  1  0
 16 58  1  0
 17 59  1  0
 19 60  1  1
 20 61  1  0
 20 62  1  0
 21 63  1  0
 21 64  1  0
 22 65  1  1
 23 66  1  0
 25 67  1  0
 25 68  1  0
 25 69  1  0
 26 70  1  0
 26 71  1  0
 26 72  1  0
 28 73  1  0
 28 74  1  0
 28 75  1  0
 29 76  1  0
 29 77  1  0
 30 78  1  0
 30 79  1  0
 32 80  1  0
 32 81  1  0
 32 82  1  0
M  END
>  <meeko>  (1) 
{"is_sidechain": [false], "intermolecular_energy": 2.731, "internal_energy": -0.839}

$$$$
EPH_relaxed_0001_pdb2pqr_Repair_64_r2_0001_out
     RDKit          3D

 82 86  0  0  0  0  0  0  0  0999 V2000
    2.3710   19.8430   -0.9040 C   0  0  0  0  0  0  0  0  0  0  0  0
    2.1350   18.9260    0.3000 C   0  0  2  0  0  0  0  0  0  0  0  0
    3.4580   18.4380    0.9250 C   0  0  0  0  0  0  0  0  0  0  0  0
    3.7400   19.0300    2.3090 C   0  0  0  0  0  0  0  0  0  0  0  0
    5.2040   19.0210    2.6270 C   0  0  2  0  0  0  0  0  0  0  0  0
    5.6280   17.9390    3.4660 O   0  0  0  0  0  0  0  0  0  0  0  0
    5.7590   19.2580    4.0190 C   0  0  0  0  0  0  0  0  0  0  0  0
    4.8570   19.5210    5.1840 C   0  0  0  0  0  0  0  0  0  0  0  0
    7.1770   19.7170    4.1560 C   0  0  0  0  0  0  0  0  0  0  0  0
    1.2830   17.7330   -0.1140 C   0  0  1  0  0  0  0  0  0  0  0  0
    0.1590   18.1190   -1.1120 C   0  0  0  0  0  0  0  0  0  0  0  0
   -0.0120   16.9200   -2.0800 C   0  0  0  0  0  0  0  0  0  0  0  0
    0.7730   15.7660   -1.4130 C   0  0  1  0  0  0  0  0  0  0  0  0
   -0.1960   15.1930   -0.3320 C   0  0  0  0  0  0  0  0  0  0  0  0
    1.2980   14.6460   -2.3690 C   0  0  2  0  0  0  0  0  0  0  0  0
    0.2060   13.8580   -3.1140 C   0  0  0  0  0  0  0  0  0  0  0  0
   -0.2900   12.6370   -2.4120 C   0  0  0  0  0  0  0  0  0  0  0  0
    0.3150   12.0310   -1.3740 C   0  0  0  0  0  0  0  0  0  0  0  0
    1.6780   12.5170   -0.8640 C   0  0  1  0  0  0  0  0  0  0  0  0
    2.6170   11.2990   -0.6560 C   0  0  0  0  0  0  0  0  0  0  0  0
    2.0020   10.2340    0.2460 C   0  0  0  0  0  0  0  0  0  0  0  0
    0.6770    9.7350   -0.3240 C   0  0  2  0  0  0  0  0  0  0  0  0
    0.9350    9.0320   -1.5430 O   0  0  0  0  0  0  0  0  0  0  0  0
   -0.3470   10.8750   -0.5850 C   0  0  0  0  0  0  0  0  0  0  0  0
   -0.8550   11.4370    0.7660 C   0  0  0  0  0  0  0  0  0  0  0  0
   -1.5830   10.2550   -1.2890 C   0  0  0  0  0  0  0  0  0  0  0  0
    2.3610   13.6770   -1.7090 C   0  0  1  0  0  0  0  0  0  0  0  0
    3.1920   13.0650   -2.8780 C   0  0  0  0  0  0  0  0  0  0  0  0
    3.3840   14.4460   -0.7920 C   0  0  0  0  0  0  0  0  0  0  0  0
    2.8280   15.6190    0.0370 C   0  0  0  0  0  0  0  0  0  0  0  0
    1.9990   16.5640   -0.8380 C   0  0  2  0  0  0  0  0  0  0  0  0
    2.9520   17.1730   -1.9220 C   0  0  0  0  0  0  0  0  0  0  0  0
    2.6307   20.8520   -0.5511 H   0  0  0  0  0  0  0  0  0  0  0  0
    3.1957   19.4439   -1.5128 H   0  0  0  0  0  0  0  0  0  0  0  0
    1.4561   19.8916   -1.5128 H   0  0  0  0  0  0  0  0  0  0  0  0
    1.6048   19.5128    1.0646 H   0  0  0  0  0  0  0  0  0  0  0  0
    3.4151   17.3428    1.0179 H   0  0  0  0  0  0  0  0  0  0  0  0
    4.2694   18.7713    0.2613 H   0  0  0  0  0  0  0  0  0  0  0  0
    3.3761   20.0678    2.3339 H   0  0  0  0  0  0  0  0  0  0  0  0
    3.2223   18.4130    3.0582 H   0  0  0  0  0  0  0  0  0  0  0  0
    5.4426   19.4691    1.6512 H   0  0  0  0  0  0  0  0  0  0  0  0
    5.4110   19.3595    6.1205 H   0  0  0  0  0  0  0  0  0  0  0  0
    4.4999   20.5607    5.1439 H   0  0  0  0  0  0  0  0  0  0  0  0
    3.9971   18.8362    5.1439 H   0  0  0  0  0  0  0  0  0  0  0  0
    7.4341   19.8002    5.2223 H   0  0  0  0  0  0  0  0  0  0  0  0
    7.8461   18.9896    3.6732 H   0  0  0  0  0  0  0  0  0  0  0  0
    7.2929   20.6986    3.6732 H   0  0  0  0  0  0  0  0  0  0  0  0
    0.9325   17.4050    0.8757 H   0  0  0  0  0  0  0  0  0  0  0  0
   -0.7803   18.3056   -0.5708 H   0  0  0  0  0  0  0  0  0  0  0  0
    0.4171   19.0362   -1.6616 H   0  0  0  0  0  0  0  0  0  0  0  0
   -1.0744   16.6559   -2.1874 H   0  0  0  0  0  0  0  0  0  0  0  0
    0.3557   17.1448   -3.0920 H   0  0  0  0  0  0  0  0  0  0  0  0
    0.1947   15.4240    0.6700 H   0  0  0  0  0  0  0  0  0  0  0  0
   -1.1900   15.6487   -0.4521 H   0  0  0  0  0  0  0  0  0  0  0  0
   -0.2757   14.1025   -0.4521 H   0  0  0  0  0  0  0  0  0  0  0  0
    1.8276   15.2241   -3.1406 H   0  0  0  0  0  0  0  0  0  0  0  0
   -0.6500   14.5303   -3.2727 H   0  0  0  0  0  0  0  0  0  0  0  0
    0.6682   13.5057   -4.0480 H   0  0  0  0  0  0  0  0  0  0  0  0
   -1.2300   12.1953   -2.7742 H   0  0  0  0  0  0  0  0  0  0  0  0
    1.4845   13.0084    0.1009 H   0  0  0  0  0  0  0  0  0  0  0  0
    2.8332   10.8490   -1.6362 H   0  0  0  0  0  0  0  0  0  0  0  0
    3.5326   11.6629   -0.1668 H   0  0  0  0  0  0  0  0  0  0  0  0
    2.6992    9.3874    0.3304 H   0  0  0  0  0  0  0  0  0  0  0  0
    1.8139   10.6775    1.2349 H   0  0  0  0  0  0  0  0  0  0  0  0
    0.2235    9.0729    0.4283 H   0  0  0  0  0  0  0  0  0  0  0  0
    0.0770    8.8190   -1.9480 H   0  0  0  0  0  0  0  0  0  0  0  0
   -0.3687   10.8990    1.5931 H   0  0  0  0  0  0  0  0  0  0  0  0
   -0.6123   12.5078    0.8322 H   0  0  0  0  0  0  0  0  0  0  0  0
   -1.9448   11.3033    0.8322 H   0  0  0  0  0  0  0  0  0  0  0  0
   -2.2956    9.8975   -0.5311 H   0  0  0  0  0  0  0  0  0  0  0  0
   -2.0675   11.0168   -1.9175 H   0  0  0  0  0  0  0  0  0  0  0  0
   -1.2621    9.4112   -1.9175 H   0  0  0  0  0  0  0  0  0  0  0  0
    4.0134   12.4601   -2.4665 H   0  0  0  0  0  0  0  0  0  0  0  0
    2.5418   12.4284   -3.4961 H   0  0  0  0  0  0  0  0  0  0  0  0
    3.6070   13.8748   -3.4961 H   0  0  0  0  0  0  0  0  0  0  0  0
    3.8147   13.7170   -0.0899 H   0  0  0  0  0  0  0  0  0  0  0  0
    4.1067   14.9007   -1.4855 H   0  0  0  0  0  0  0  0  0  0  0  0
    2.1912   15.2215    0.8410 H   0  0  0  0  0  0  0  0  0  0  0  0
    3.6734   16.1824    0.4586 H   0  0  0  0  0  0  0  0  0  0  0  0
    3.7798   17.7020   -1.4270 H   0  0  0  0  0  0  0  0  0  0  0  0
    3.3563   16.3655   -2.5501 H   0  0  0  0  0  0  0  0  0  0  0  0
    2.3891   17.8791   -2.5501 H   0  0  0  0  0  0  0  0  0  0  0  0
  1  2  1  0
  2  3  1  0
  3  4  1  0
  4  5  1  0
  5  6  1  0
  6  7  1  0
  7  8  1  0
  7  9  1  0
  2 10  1  0
 10 11  1  0
 11 12  1  0
 12 13  1  0
 13 14  1  1
 13 15  1  0
 15 16  1  0
 16 17  1  0
 17 18  2  0
 18 19  1  0
 19 20  1  0
 20 21  1  0
 21 22  1  0
 22 23  1  0
 22 24  1  0
 24 25  1  0
 24 26  1  0
 19 27  1  0
 27 28  1  6
 27 29  1  0
 29 30  1  0
 30 31  1  0
 31 32  1  6
  7  5  1  0
 31 10  1  0
 31 13  1  0
 27 15  1  0
 24 18  1  0
  1 33  1  0
  1 34  1  0
  1 35  1  0
  2 36  1  1
  3 37  1  0
  3 38  1  0
  4 39  1  0
  4 40  1  0
  5 41  1  6
  8 42  1  0
  8 43  1  0
  8 44  1  0
  9 45  1  0
  9 46  1  0
  9 47  1  0
 10 48  1  1
 11 49  1  0
 11 50  1  0
 12 51  1  0
 12 52  1  0
 14 53  1  0
 14 54  1  0
 14 55  1  0
 15 56  1  6
 16 57  1  0
 16 58  1  0
 17 59  1  0
 19 60  1  1
 20 61  1  0
 20 62  1  0
 21 63  1  0
 21 64  1  0
 22 65  1  1
 23 66  1  0
 25 67  1  0
 25 68  1  0
 25 69  1  0
 26 70  1  0
 26 71  1  0
 26 72  1  0
 28 73  1  0
 28 74  1  0
 28 75  1  0
 29 76  1  0
 29 77  1  0
 30 78  1  0
 30 79  1  0
 32 80  1  0
 32 81  1  0
 32 82  1  0
M  END
>  <meeko>  (2) 
{"is_sidechain": [false], "intermolecular_energy": 2.731, "internal_energy": -0.839}

$$$$
EPH_relaxed_0001_pdb2pqr_Repair_64_r2_0001_out
     RDKit          3D

 82 86  0  0  0  0  0  0  0  0999 V2000
    1.3050   19.7330   -1.6910 C   0  0  0  0  0  0  0  0  0  0  0  0
    1.0820   18.6630   -0.6180 C   0  0  2  0  0  0  0  0  0  0  0  0
    2.3540   18.3990    0.2120 C   0  0  0  0  0  0  0  0  0  0  0  0
    2.6850   19.5180    1.2040 C   0  0  0  0  0  0  0  0  0  0  0  0
    4.1180   19.4650    1.6410 C   0  0  2  0  0  0  0  0  0  0  0  0
    4.4280   18.4000    2.5500 O   0  0  0  0  0  0  0  0  0  0  0  0
    4.5690   19.7340    3.0650 C   0  0  0  0  0  0  0  0  0  0  0  0
    3.5880   20.0770    4.1420 C   0  0  0  0  0  0  0  0  0  0  0  0
    5.9890   20.1430    3.3000 C   0  0  0  0  0  0  0  0  0  0  0  0
    0.6050   17.3690   -1.2660 C   0  0  1  0  0  0  0  0  0  0  0  0
    0.2280   17.5520   -2.7600 C   0  0  0  0  0  0  0  0  0  0  0  0
    0.6250   16.2410   -3.4860 C   0  0  0  0  0  0  0  0  0  0  0  0
    0.9050   15.2340   -2.3470 C   0  0  1  0  0  0  0  0  0  0  0  0
   -0.5020   14.7160   -1.9140 C   0  0  0  0  0  0  0  0  0  0  0  0
    1.8740   14.0550   -2.6890 C   0  0  2  0  0  0  0  0  0  0  0  0
    1.3820   13.1070   -3.7970 C   0  0  0  0  0  0  0  0  0  0  0  0
    0.5790   11.9400   -3.3280 C   0  0  0  0  0  0  0  0  0  0  0  0
    0.5020   11.5040   -2.0560 C   0  0  0  0  0  0  0  0  0  0  0  0
    1.3500   12.1460   -0.9510 C   0  0  1  0  0  0  0  0  0  0  0  0
    2.0130   11.0350   -0.0950 C   0  0  0  0  0  0  0  0  0  0  0  0
    0.9990   10.0360    0.4540 C   0  0  0  0  0  0  0  0  0  0  0  0
    0.2170    9.3760   -0.6790 C   0  0  2  0  0  0  0  0  0  0  0  0
    1.1110    8.5610   -1.4430 O   0  0  0  0  0  0  0  0  0  0  0  0
   -0.4870   10.3980   -1.6140 C   0  0  0  0  0  0  0  0  0  0  0  0
   -1.6620   11.0700   -0.8610 C   0  0  0  0  0  0  0  0  0  0  0  0
   -1.1210    9.6090   -2.7920 C   0  0  0  0  0  0  0  0  0  0  0  0
    2.3880   13.2510   -1.4270 C   0  0  1  0  0  0  0  0  0  0  0  0
    3.7300   12.5760   -1.8460 C   0  0  0  0  0  0  0  0  0  0  0  0
    2.7270   14.1960   -0.2140 C   0  0  0  0  0  0  0  0  0  0  0  0
    1.8030   15.4100    0.0010 C   0  0  0  0  0  0  0  0  0  0  0  0
    1.6020   16.1840   -1.3060 C   0  0  2  0  0  0  0  0  0  0  0  0
    2.9980   16.7360   -1.7540 C   0  0  0  0  0  0  0  0  0  0  0  0
    1.5066   20.7004   -1.2078 H   0  0  0  0  0  0  0  0  0  0  0  0
    2.1635   19.4503   -2.3179 H   0  0  0  0  0  0  0  0  0  0  0  0
    0.4050   19.8168   -2.3179 H   0  0  0  0  0  0  0  0  0  0  0  0
    0.3113   19.0402    0.0703 H   0  0  0  0  0  0  0  0  0  0  0  0
    2.2130   17.4653    0.7761 H   0  0  0  0  0  0  0  0  0  0  0  0
    3.1934   18.3387   -0.4964 H   0  0  0  0  0  0  0  0  0  0  0  0
    2.4946   20.4888    0.7230 H   0  0  0  0  0  0  0  0  0  0  0  0
    2.0502   19.3874    2.0928 H   0  0  0  0  0  0  0  0  0  0  0  0
    4.4526   19.8657    0.6728 H   0  0  0  0  0  0  0  0  0  0  0  0
    4.0521   19.9147    5.1260 H   0  0  0  0  0  0  0  0  0  0  0  0
    3.2919   21.1320    4.0458 H   0  0  0  0  0  0  0  0  0  0  0  0
    2.6990   19.4364    4.0458 H   0  0  0  0  0  0  0  0  0  0  0  0
    6.1804   20.1981    4.3818 H   0  0  0  0  0  0  0  0  0  0  0  0
    6.6638   19.4027    2.8455 H   0  0  0  0  0  0  0  0  0  0  0  0
    6.1666   21.1288    2.8455 H   0  0  0  0  0  0  0  0  0  0  0  0
   -0.2378   17.1302   -0.6007 H   0  0  0  0  0  0  0  0  0  0  0  0
   -0.8535   17.7271   -2.8589 H   0  0  0  0  0  0  0  0  0  0  0  0
    0.7489   18.4175   -3.1953 H   0  0  0  0  0  0  0  0  0  0  0  0
   -0.1975   15.8863   -4.1245 H   0  0  0  0  0  0  0  0  0  0  0  0
    1.4944   16.3765   -4.1461 H   0  0  0  0  0  0  0  0  0  0  0  0
   -0.5625   14.6937   -0.8159 H   0  0  0  0  0  0  0  0  0  0  0  0
   -1.2779   15.3874   -2.3105 H   0  0  0  0  0  0  0  0  0  0  0  0
   -0.6573   13.7017   -2.3105 H   0  0  0  0  0  0  0  0  0  0  0  0
    2.7447   14.5798   -3.1090 H   0  0  0  0  0  0  0  0  0  0  0  0
    0.7599   13.6903   -4.4918 H   0  0  0  0  0  0  0  0  0  0  0  0
    2.2863   12.6869   -4.2614 H   0  0  0  0  0  0  0  0  0  0  0  0
    0.0012   11.3894   -4.0850 H   0  0  0  0  0  0  0  0  0  0  0  0
    0.6516   12.7275   -0.3313 H   0  0  0  0  0  0  0  0  0  0  0  0
    2.7383   10.4937   -0.7203 H   0  0  0  0  0  0  0  0  0  0  0  0
    2.5011   11.5209    0.7627 H   0  0  0  0  0  0  0  0  0  0  0  0
    1.5304    9.2601    1.0247 H   0  0  0  0  0  0  0  0  0  0  0  0
    0.2918   10.5733    1.1030 H   0  0  0  0  0  0  0  0  0  0  0  0
   -0.5789    8.7704   -0.2210 H   0  0  0  0  0  0  0  0  0  0  0  0
    0.9070    7.6320   -1.2420 H   0  0  0  0  0  0  0  0  0  0  0  0
   -1.5025   10.9788    0.2235 H   0  0  0  0  0  0  0  0  0  0  0  0
   -1.7131   12.1339   -1.1359 H   0  0  0  0  0  0  0  0  0  0  0  0
   -2.6049   10.5746   -1.1359 H   0  0  0  0  0  0  0  0  0  0  0  0
   -1.7634    8.8096   -2.3942 H   0  0  0  0  0  0  0  0  0  0  0  0
   -1.7244   10.2919   -3.4080 H   0  0  0  0  0  0  0  0  0  0  0  0
   -0.3242    9.1667   -3.4080 H   0  0  0  0  0  0  0  0  0  0  0  0
    4.2944   12.2921   -0.9456 H   0  0  0  0  0  0  0  0  0  0  0  0
    3.5175   11.6775   -2.4440 H   0  0  0  0  0  0  0  0  0  0  0  0
    4.3246   13.2823   -2.4440 H   0  0  0  0  0  0  0  0  0  0  0  0
    2.6945   13.5869    0.7014 H   0  0  0  0  0  0  0  0  0  0  0  0
    3.7130   14.6232   -0.4491 H   0  0  0  0  0  0  0  0  0  0  0  0
    0.8262   15.0588    0.3652 H   0  0  0  0  0  0  0  0  0  0  0  0
    2.2700   16.0804    0.7375 H   0  0  0  0  0  0  0  0  0  0  0  0
    3.6005   16.9743   -0.8651 H   0  0  0  0  0  0  0  0  0  0  0  0
    3.5171   15.9754   -2.3557 H   0  0  0  0  0  0  0  0  0  0  0  0
    2.8566   17.6459   -2.3557 H   0  0  0  0  0  0  0  0  0  0  0  0
  1  2  1  0
  2  3  1  0
  3  4  1  0
  4  5  1  0
  5  6  1  0
  6  7  1  0
  7  8  1  0
  7  9  1  0
  2 10  1  0
 10 11  1  0
 11 12  1  0
 12 13  1  0
 13 14  1  1
 13 15  1  0
 15 16  1  0
 16 17  1  0
 17 18  2  0
 18 19  1  0
 19 20  1  0
 20 21  1  0
 21 22  1  0
 22 23  1  0
 22 24  1  0
 24 25  1  0
 24 26  1  0
 19 27  1  0
 27 28  1  6
 27 29  1  0
 29 30  1  0
 30 31  1  0
 31 32  1  6
  7  5  1  0
 31 10  1  0
 31 13  1  0
 27 15  1  0
 24 18  1  0
  1 33  1  0
  1 34  1  0
  1 35  1  0
  2 36  1  1
  3 37  1  0
  3 38  1  0
  4 39  1  0
  4 40  1  0
  5 41  1  6
  8 42  1  0
  8 43  1  0
  8 44  1  0
  9 45  1  0
  9 46  1  0
  9 47  1  0
 10 48  1  1
 11 49  1  0
 11 50  1  0
 12 51  1  0
 12 52  1  0
 14 53  1  0
 14 54  1  0
 14 55  1  0
 15 56  1  6
 16 57  1  0
 16 58  1  0
 17 59  1  0
 19 60  1  1
 20 61  1  0
 20 62  1  0
 21 63  1  0
 21 64  1  0
 22 65  1  1
 23 66  1  0
 25 67  1  0
 25 68  1  0
 25 69  1  0
 26 70  1  0
 26 71  1  0
 26 72  1  0
 28 73  1  0
 28 74  1  0
 28 75  1  0
 29 76  1  0
 29 77  1  0
 30 78  1  0
 30 79  1  0
 32 80  1  0
 32 81  1  0
 32 82  1  0
M  END
>  <meeko>  (3) 
{"is_sidechain": [false], "intermolecular_energy": 2.731, "internal_energy": -0.839}

$$$$
EPH_relaxed_0001_pdb2pqr_Repair_64_r2_0001_out
     RDKit          3D

 82 86  0  0  0  0  0  0  0  0999 V2000
   -0.8200    9.3200   -2.4800 C   0  0  0  0  0  0  0  0  0  0  0  0
   -1.1080    9.5260   -0.9900 C   0  0  2  0  0  0  0  0  0  0  0  0
   -2.6200    9.5510   -0.6890 C   0  0  0  0  0  0  0  0  0  0  0  0
   -3.3150    8.2050   -0.9130 C   0  0  0  0  0  0  0  0  0  0  0  0
   -4.8070    8.3350   -0.8550 C   0  0  2  0  0  0  0  0  0  0  0  0
   -5.4910    7.1700   -0.3760 O   0  0  0  0  0  0  0  0  0  0  0  0
   -5.7510    7.5420   -1.7400 C   0  0  0  0  0  0  0  0  0  0  0  0
   -5.2370    6.5610   -2.7460 C   0  0  0  0  0  0  0  0  0  0  0  0
   -7.1320    8.0710   -1.9670 C   0  0  0  0  0  0  0  0  0  0  0  0
   -0.4600   10.8190   -0.5100 C   0  0  1  0  0  0  0  0  0  0  0  0
    0.7050   10.5690    0.4860 C   0  0  0  0  0  0  0  0  0  0  0  0
    1.7660   11.6660    0.2170 C   0  0  0  0  0  0  0  0  0  0  0  0
    1.0430   12.6970   -0.6810 C   0  0  1  0  0  0  0  0  0  0  0  0
    0.2060   13.5710    0.3060 C   0  0  0  0  0  0  0  0  0  0  0  0
    1.9550   13.5750   -1.5980 C   0  0  2  0  0  0  0  0  0  0  0  0
    2.9450   14.4870   -0.8530 C   0  0  0  0  0  0  0  0  0  0  0  0
    2.4360   15.8520   -0.5300 C   0  0  0  0  0  0  0  0  0  0  0  0
    1.3450   16.4280   -1.0690 C   0  0  0  0  0  0  0  0  0  0  0  0
    0.5540   15.7280   -2.1820 C   0  0  1  0  0  0  0  0  0  0  0  0
    0.2550   16.7400   -3.3190 C   0  0  0  0  0  0  0  0  0  0  0  0
   -0.4400   18.0000   -2.8130 C   0  0  0  0  0  0  0  0  0  0  0  0
    0.4030   18.6990   -1.7500 C   0  0  2  0  0  0  0  0  0  0  0  0
    1.5960   19.1970   -2.3630 O   0  0  0  0  0  0  0  0  0  0  0  0
    0.7760   17.7740   -0.5580 C   0  0  0  0  0  0  0  0  0  0  0  0
   -0.4890   17.4780    0.2860 C   0  0  0  0  0  0  0  0  0  0  0  0
    1.7430   18.5580    0.3700 C   0  0  0  0  0  0  0  0  0  0  0  0
    1.1730   14.3680   -2.7220 C   0  0  1  0  0  0  0  0  0  0  0  0
    2.2020   14.6650   -3.8560 C   0  0  0  0  0  0  0  0  0  0  0  0
    0.0290   13.5060   -3.3760 C   0  0  0  0  0  0  0  0  0  0  0  0
   -0.7580   12.5700   -2.4390 C   0  0  0  0  0  0  0  0  0  0  0  0
    0.1920   11.7290   -1.5810 C   0  0  2  0  0  0  0  0  0  0  0  0
    1.0320   10.8230   -2.5450 C   0  0  0  0  0  0  0  0  0  0  0  0
    0.0696    8.6837   -2.5969 H   0  0  0  0  0  0  0  0  0  0  0  0
   -1.6839    8.8337   -2.9566 H   0  0  0  0  0  0  0  0  0  0  0  0
   -0.6389   10.2947   -2.9566 H   0  0  0  0  0  0  0  0  0  0  0  0
   -0.6778    8.6708   -0.4481 H   0  0  0  0  0  0  0  0  0  0  0  0
   -2.7600    9.8433    0.3622 H   0  0  0  0  0  0  0  0  0  0  0  0
   -3.0750   10.2678   -1.3884 H   0  0  0  0  0  0  0  0  0  0  0  0
   -3.0292    7.8164   -1.9016 H   0  0  0  0  0  0  0  0  0  0  0  0
   -2.9993    7.5188   -0.1133 H   0  0  0  0  0  0  0  0  0  0  0  0
   -4.7285    9.4104   -0.6375 H   0  0  0  0  0  0  0  0  0  0  0  0
   -4.7874    5.7029   -2.2249 H   0  0  0  0  0  0  0  0  0  0  0  0
   -6.0684    6.2126   -3.3764 H   0  0  0  0  0  0  0  0  0  0  0  0
   -4.4773    7.0463   -3.3764 H   0  0  0  0  0  0  0  0  0  0  0  0
   -7.6174    8.2569   -0.9975 H   0  0  0  0  0  0  0  0  0  0  0  0
   -7.0757    9.0112   -2.5352 H   0  0  0  0  0  0  0  0  0  0  0  0
   -7.7183    7.3338   -2.5352 H   0  0  0  0  0  0  0  0  0  0  0  0
   -1.3408   11.3175   -0.0790 H   0  0  0  0  0  0  0  0  0  0  0  0
    0.3402   10.6405    1.5213 H   0  0  0  0  0  0  0  0  0  0  0  0
    1.1322    9.5645    0.3502 H   0  0  0  0  0  0  0  0  0  0  0  0
    2.0904   12.1318    1.1593 H   0  0  0  0  0  0  0  0  0  0  0  0
    2.6721   11.2621   -0.2582 H   0  0  0  0  0  0  0  0  0  0  0  0
    0.4628   13.3028    1.3414 H   0  0  0  0  0  0  0  0  0  0  0  0
    0.4315   14.6341    0.1359 H   0  0  0  0  0  0  0  0  0  0  0  0
   -0.8659   13.3917    0.1359 H   0  0  0  0  0  0  0  0  0  0  0  0
    2.5706   12.8202   -2.1092 H   0  0  0  0  0  0  0  0  0  0  0  0
    3.2168   13.9934    0.0917 H   0  0  0  0  0  0  0  0  0  0  0  0
    3.7958   14.6332   -1.5348 H   0  0  0  0  0  0  0  0  0  0  0  0
    2.9999   16.4372    0.2113 H   0  0  0  0  0  0  0  0  0  0  0  0
   -0.3880   15.3940   -1.7225 H   0  0  0  0  0  0  0  0  0  0  0  0
    1.2047   17.0276   -3.7937 H   0  0  0  0  0  0  0  0  0  0  0  0
   -0.4224   16.2491   -4.0332 H   0  0  0  0  0  0  0  0  0  0  0  0
   -0.5976   18.6877   -3.6570 H   0  0  0  0  0  0  0  0  0  0  0  0
   -1.4029   17.7137   -2.3649 H   0  0  0  0  0  0  0  0  0  0  0  0
   -0.2026   19.5178   -1.3342 H   0  0  0  0  0  0  0  0  0  0  0  0
    1.4410   20.1290   -2.5940 H   0  0  0  0  0  0  0  0  0  0  0  0
   -0.2383   17.5367    1.3554 H   0  0  0  0  0  0  0  0  0  0  0  0
   -1.2681   18.2181    0.0509 H   0  0  0  0  0  0  0  0  0  0  0  0
   -0.8588   16.4691    0.0509 H   0  0  0  0  0  0  0  0  0  0  0  0
    1.4899   18.3528    1.4206 H   0  0  0  0  0  0  0  0  0  0  0  0
    2.7777   18.2407    0.1734 H   0  0  0  0  0  0  0  0  0  0  0  0
    1.6465   19.6360    0.1734 H   0  0  0  0  0  0  0  0  0  0  0  0
    3.1683   14.9439   -3.4105 H   0  0  0  0  0  0  0  0  0  0  0  0
    2.3308   13.7674   -4.4786 H   0  0  0  0  0  0  0  0  0  0  0  0
    1.8326   15.4932   -4.4786 H   0  0  0  0  0  0  0  0  0  0  0  0
   -0.6907   14.2007   -3.8336 H   0  0  0  0  0  0  0  0  0  0  0  0
    0.5410   12.8390   -4.0852 H   0  0  0  0  0  0  0  0  0  0  0  0
   -1.3978   13.1752   -1.7800 H   0  0  0  0  0  0  0  0  0  0  0  0
   -1.3697   11.8923   -3.0526 H   0  0  0  0  0  0  0  0  0  0  0  0
    1.6623   10.1432   -1.9529 H   0  0  0  0  0  0  0  0  0  0  0  0
    0.3530   10.2343   -3.1794 H   0  0  0  0  0  0  0  0  0  0  0  0
    1.6703   11.4556   -3.1794 H   0  0  0  0  0  0  0  0  0  0  0  0
  1  2  1  0
  2  3  1  0
  3  4  1  0
  4  5  1  0
  5  6  1  0
  6  7  1  0
  7  8  1  0
  7  9  1  0
  2 10  1  0
 10 11  1  0
 11 12  1  0
 12 13  1  0
 13 14  1  1
 13 15  1  0
 15 16  1  0
 16 17  1  0
 17 18  2  0
 18 19  1  0
 19 20  1  0
 20 21  1  0
 21 22  1  0
 22 23  1  0
 22 24  1  0
 24 25  1  0
 24 26  1  0
 19 27  1  0
 27 28  1  6
 27 29  1  0
 29 30  1  0
 30 31  1  0
 31 32  1  6
  7  5  1  0
 31 10  1  0
 31 13  1  0
 27 15  1  0
 24 18  1  0
  1 33  1  0
  1 34  1  0
  1 35  1  0
  2 36  1  1
  3 37  1  0
  3 38  1  0
  4 39  1  0
  4 40  1  0
  5 41  1  1
  8 42  1  0
  8 43  1  0
  8 44  1  0
  9 45  1  0
  9 46  1  0
  9 47  1  0
 10 48  1  1
 11 49  1  0
 11 50  1  0
 12 51  1  0
 12 52  1  0
 14 53  1  0
 14 54  1  0
 14 55  1  0
 15 56  1  6
 16 57  1  0
 16 58  1  0
 17 59  1  0
 19 60  1  1
 20 61  1  0
 20 62  1  0
 21 63  1  0
 21 64  1  0
 22 65  1  1
 23 66  1  0
 25 67  1  0
 25 68  1  0
 25 69  1  0
 26 70  1  0
 26 71  1  0
 26 72  1  0
 28 73  1  0
 28 74  1  0
 28 75  1  0
 29 76  1  0
 29 77  1  0
 30 78  1  0
 30 79  1  0
 32 80  1  0
 32 81  1  0
 32 82  1  0
M  END
>  <meeko>  (4) 
{"is_sidechain": [false], "intermolecular_energy": 2.731, "internal_energy": -0.839}

$$$$
EPH_relaxed_0001_pdb2pqr_Repair_64_r2_0001_out
     RDKit          3D

 82 86  0  0  0  0  0  0  0  0999 V2000
    3.7140   18.2060    0.8030 C   0  0  0  0  0  0  0  0  0  0  0  0
    2.7130   18.6750   -0.2560 C   0  0  2  0  0  0  0  0  0  0  0  0
    1.9450   19.9360    0.1890 C   0  0  0  0  0  0  0  0  0  0  0  0
    0.7260   19.6360    1.0650 C   0  0  0  0  0  0  0  0  0  0  0  0
   -0.5350   20.1830    0.4670 C   0  0  2  0  0  0  0  0  0  0  0  0
   -1.6620   20.1940    1.3520 O   0  0  0  0  0  0  0  0  0  0  0  0
   -1.7690   19.3400    0.2020 C   0  0  0  0  0  0  0  0  0  0  0  0
   -1.8020   17.8800    0.5290 C   0  0  0  0  0  0  0  0  0  0  0  0
   -2.7580   19.8200   -0.8150 C   0  0  0  0  0  0  0  0  0  0  0  0
    1.7320   17.5540   -0.5780 C   0  0  1  0  0  0  0  0  0  0  0  0
    0.6390   17.9890   -1.5910 C   0  0  0  0  0  0  0  0  0  0  0  0
    0.3270   16.7500   -2.4700 C   0  0  0  0  0  0  0  0  0  0  0  0
    0.9950   15.5680   -1.7300 C   0  0  1  0  0  0  0  0  0  0  0  0
   -0.0120   15.1790   -0.6030 C   0  0  0  0  0  0  0  0  0  0  0  0
    1.3830   14.3340   -2.6080 C   0  0  2  0  0  0  0  0  0  0  0  0
    0.2020   13.6190   -3.2870 C   0  0  0  0  0  0  0  0  0  0  0  0
   -0.4100   12.5090   -2.4970 C   0  0  0  0  0  0  0  0  0  0  0  0
    0.1430   11.9160   -1.4230 C   0  0  0  0  0  0  0  0  0  0  0  0
    1.5580   12.2860   -0.9600 C   0  0  1  0  0  0  0  0  0  0  0  0
    2.3650   10.9930   -0.6740 C   0  0  0  0  0  0  0  0  0  0  0  0
    1.6550   10.0650    0.3060 C   0  0  0  0  0  0  0  0  0  0  0  0
    0.2750    9.6720   -0.2160 C   0  0  2  0  0  0  0  0  0  0  0  0
    0.4380    8.8630   -1.3850 O   0  0  0  0  0  0  0  0  0  0  0  0
   -0.6250   10.8940   -0.5480 C   0  0  0  0  0  0  0  0  0  0  0  0
   -1.0490   11.6000    0.7630 C   0  0  0  0  0  0  0  0  0  0  0  0
   -1.9310   10.3630   -1.1970 C   0  0  0  0  0  0  0  0  0  0  0  0
    2.3470   13.3050   -1.8910 C   0  0  1  0  0  0  0  0  0  0  0  0
    3.0900   12.5280   -3.0200 C   0  0  0  0  0  0  0  0  0  0  0  0
    3.4610   14.0220   -1.0390 C   0  0  0  0  0  0  0  0  0  0  0  0
    3.0460   15.3030   -0.2900 C   0  0  0  0  0  0  0  0  0  0  0  0
    2.3080   16.2680   -1.2230 C   0  0  2  0  0  0  0  0  0  0  0  0
    3.3030   16.6950   -2.3550 C   0  0  0  0  0  0  0  0  0  0  0  0
    3.3041   18.3981    1.8055 H   0  0  0  0  0  0  0  0  0  0  0  0
    3.8975   17.1282    0.6822 H   0  0  0  0  0  0  0  0  0  0  0  0
    4.6597   18.7548    0.6822 H   0  0  0  0  0  0  0  0  0  0  0  0
    3.2851   18.9379   -1.1580 H   0  0  0  0  0  0  0  0  0  0  0  0
    2.6325   20.5786    0.7586 H   0  0  0  0  0  0  0  0  0  0  0  0
    1.5731   20.4250   -0.7234 H   0  0  0  0  0  0  0  0  0  0  0  0
    0.6251   18.5461    1.1742 H   0  0  0  0  0  0  0  0  0  0  0  0
    0.8791   20.1177    2.0420 H   0  0  0  0  0  0  0  0  0  0  0  0
    0.0383   20.8730   -0.1696 H   0  0  0  0  0  0  0  0  0  0  0  0
   -1.8050   17.7488    1.6211 H   0  0  0  0  0  0  0  0  0  0  0  0
   -2.7106   17.4293    0.1031 H   0  0  0  0  0  0  0  0  0  0  0  0
   -0.9147   17.3887    0.1031 H   0  0  0  0  0  0  0  0  0  0  0  0
   -3.6337   20.2450   -0.3027 H   0  0  0  0  0  0  0  0  0  0  0  0
   -2.2912   20.5918   -1.4446 H   0  0  0  0  0  0  0  0  0  0  0  0
   -3.0755   18.9758   -1.4446 H   0  0  0  0  0  0  0  0  0  0  0  0
    1.3642   17.3343    0.4351 H   0  0  0  0  0  0  0  0  0  0  0  0
   -0.2664   18.3121   -1.0563 H   0  0  0  0  0  0  0  0  0  0  0  0
    0.9833   18.8336   -2.2059 H   0  0  0  0  0  0  0  0  0  0  0  0
   -0.7590   16.5942   -2.5499 H   0  0  0  0  0  0  0  0  0  0  0  0
    0.7012   16.8633   -3.4982 H   0  0  0  0  0  0  0  0  0  0  0  0
    0.4500   15.3575    0.3792 H   0  0  0  0  0  0  0  0  0  0  0  0
   -0.9216   15.7905   -0.6969 H   0  0  0  0  0  0  0  0  0  0  0  0
   -0.2743   14.1149   -0.6969 H   0  0  0  0  0  0  0  0  0  0  0  0
    1.9600   14.7967   -3.4223 H   0  0  0  0  0  0  0  0  0  0  0  0
   -0.5800   14.3669   -3.4850 H   0  0  0  0  0  0  0  0  0  0  0  0
    0.6090   13.1562   -4.1981 H   0  0  0  0  0  0  0  0  0  0  0  0
   -1.3965   12.1454   -2.8205 H   0  0  0  0  0  0  0  0  0  0  0  0
    1.4333   12.8602   -0.0301 H   0  0  0  0  0  0  0  0  0  0  0  0
    2.5170   10.4554   -1.6216 H   0  0  0  0  0  0  0  0  0  0  0  0
    3.3214   11.2902   -0.2191 H   0  0  0  0  0  0  0  0  0  0  0  0
    2.2597    9.1566    0.4439 H   0  0  0  0  0  0  0  0  0  0  0  0
    1.5308   10.5936    1.2626 H   0  0  0  0  0  0  0  0  0  0  0  0
   -0.2346    9.1157    0.5846 H   0  0  0  0  0  0  0  0  0  0  0  0
   -0.4460    8.6970   -1.7540 H   0  0  0  0  0  0  0  0  0  0  0  0
   -0.6973   11.0143    1.6251 H   0  0  0  0  0  0  0  0  0  0  0  0
   -0.6055   12.6060    0.7977 H   0  0  0  0  0  0  0  0  0  0  0  0
   -2.1454   11.6812    0.7977 H   0  0  0  0  0  0  0  0  0  0  0  0
   -2.6413   10.0742   -0.4083 H   0  0  0  0  0  0  0  0  0  0  0  0
   -2.3770   11.1512   -1.8214 H   0  0  0  0  0  0  0  0  0  0  0  0
   -1.7004    9.4872   -1.8214 H   0  0  0  0  0  0  0  0  0  0  0  0
    3.7838   11.8024   -2.5704 H   0  0  0  0  0  0  0  0  0  0  0  0
    2.3561   11.9959   -3.6431 H   0  0  0  0  0  0  0  0  0  0  0  0
    3.6543   13.2374   -3.6431 H   0  0  0  0  0  0  0  0  0  0  0  0
    3.8230   13.3015   -0.2908 H   0  0  0  0  0  0  0  0  0  0  0  0
    4.2168   14.3475   -1.7690 H   0  0  0  0  0  0  0  0  0  0  0  0
    2.3836   15.0328    0.5456 H   0  0  0  0  0  0  0  0  0  0  0  0
    3.9530   15.8007    0.0836 H   0  0  0  0  0  0  0  0  0  0  0  0
    4.2246   17.0905   -1.9031 H   0  0  0  0  0  0  0  0  0  0  0  0
    3.5457   15.8218   -2.9784 H   0  0  0  0  0  0  0  0  0  0  0  0
    2.8374   17.4725   -2.9784 H   0  0  0  0  0  0  0  0  0  0  0  0
  1  2  1  0
  2  3  1  0
  3  4  1  0
  4  5  1  0
  5  6  1  0
  6  7  1  0
  7  8  1  0
  7  9  1  0
  2 10  1  0
 10 11  1  0
 11 12  1  0
 12 13  1  0
 13 14  1  1
 13 15  1  0
 15 16  1  0
 16 17  1  0
 17 18  2  0
 18 19  1  0
 19 20  1  0
 20 21  1  0
 21 22  1  0
 22 23  1  0
 22 24  1  0
 24 25  1  0
 24 26  1  0
 19 27  1  0
 27 28  1  6
 27 29  1  0
 29 30  1  0
 30 31  1  0
 31 32  1  6
  7  5  1  0
 31 10  1  0
 31 13  1  0
 27 15  1  0
 24 18  1  0
  1 33  1  0
  1 34  1  0
  1 35  1  0
  2 36  1  6
  3 37  1  0
  3 38  1  0
  4 39  1  0
  4 40  1  0
  5 41  1  6
  8 42  1  0
  8 43  1  0
  8 44  1  0
  9 45  1  0
  9 46  1  0
  9 47  1  0
 10 48  1  1
 11 49  1  0
 11 50  1  0
 12 51  1  0
 12 52  1  0
 14 53  1  0
 14 54  1  0
 14 55  1  0
 15 56  1  6
 16 57  1  0
 16 58  1  0
 17 59  1  0
 19 60  1  1
 20 61  1  0
 20 62  1  0
 21 63  1  0
 21 64  1  0
 22 65  1  1
 23 66  1  0
 25 67  1  0
 25 68  1  0
 25 69  1  0
 26 70  1  0
 26 71  1  0
 26 72  1  0
 28 73  1  0
 28 74  1  0
 28 75  1  0
 29 76  1  0
 29 77  1  0
 30 78  1  0
 30 79  1  0
 32 80  1  0
 32 81  1  0
 32 82  1  0
M  END
>  <meeko>  (5) 
{"is_sidechain": [false], "intermolecular_energy": 2.731, "internal_energy": -0.839}

$$$$
EPH_relaxed_0001_pdb2pqr_Repair_64_r2_0001_out
     RDKit          3D

 82 86  0  0  0  0  0  0  0  0999 V2000
   -0.0200   18.2680    0.2880 C   0  0  0  0  0  0  0  0  0  0  0  0
    1.1700   17.5020   -0.2970 C   0  0  2  0  0  0  0  0  0  0  0  0
    2.0410   18.3900   -1.2080 C   0  0  0  0  0  0  0  0  0  0  0  0
    2.7460   19.5290   -0.4660 C   0  0  0  0  0  0  0  0  0  0  0  0
    3.9210   19.0340    0.3220 C   0  0  2  0  0  0  0  0  0  0  0  0
    3.5980   18.0860    1.3470 O   0  0  0  0  0  0  0  0  0  0  0  0
    4.1320   19.3430    1.7920 C   0  0  0  0  0  0  0  0  0  0  0  0
    3.1590   20.1800    2.5620 C   0  0  0  0  0  0  0  0  0  0  0  0
    5.5170   19.2450    2.3520 C   0  0  0  0  0  0  0  0  0  0  0  0
    0.6750   16.2870   -1.0730 C   0  0  1  0  0  0  0  0  0  0  0  0
    0.5070   16.5740   -2.5890 C   0  0  0  0  0  0  0  0  0  0  0  0
    0.8840   15.2700   -3.3360 C   0  0  0  0  0  0  0  0  0  0  0  0
    0.9350   14.1880   -2.2310 C   0  0  1  0  0  0  0  0  0  0  0  0
   -0.5540   13.7760   -2.0050 C   0  0  0  0  0  0  0  0  0  0  0  0
    1.8390   12.9460   -2.5210 C   0  0  2  0  0  0  0  0  0  0  0  0
    1.4160   12.0990   -3.7340 C   0  0  0  0  0  0  0  0  0  0  0  0
    0.4680   10.9860   -3.4350 C   0  0  0  0  0  0  0  0  0  0  0  0
    0.1950   10.4990   -2.2100 C   0  0  0  0  0  0  0  0  0  0  0  0
    0.9450   11.0100   -0.9740 C   0  0  1  0  0  0  0  0  0  0  0  0
    1.4010    9.8060   -0.1090 C   0  0  0  0  0  0  0  0  0  0  0  0
    0.2480    8.8750    0.2520 C   0  0  0  0  0  0  0  0  0  0  0  0
   -0.4360    8.3410   -1.0040 C   0  0  2  0  0  0  0  0  0  0  0  0
    0.4790    7.4870   -1.6990 O   0  0  0  0  0  0  0  0  0  0  0  0
   -0.9300    9.4640   -1.9580 C   0  0  0  0  0  0  0  0  0  0  0  0
   -2.1320   10.2010   -1.3160 C   0  0  0  0  0  0  0  0  0  0  0  0
   -1.4710    8.7920   -3.2480 C   0  0  0  0  0  0  0  0  0  0  0  0
    2.1220   12.0410   -1.2540 C   0  0  1  0  0  0  0  0  0  0  0  0
    3.4460   11.2700   -1.5440 C   0  0  0  0  0  0  0  0  0  0  0  0
    2.3800   12.8930    0.0450 C   0  0  0  0  0  0  0  0  0  0  0  0
    1.5390   14.1720    0.2150 C   0  0  0  0  0  0  0  0  0  0  0  0
    1.5690   15.0220   -1.0590 C   0  0  2  0  0  0  0  0  0  0  0  0
    3.0510   15.4690   -1.3000 C   0  0  0  0  0  0  0  0  0  0  0  0
    0.0282   18.2370    1.3865 H   0  0  0  0  0  0  0  0  0  0  0  0
    0.0146   19.3138   -0.0511 H   0  0  0  0  0  0  0  0  0  0  0  0
   -0.9576   17.8034   -0.0511 H   0  0  0  0  0  0  0  0  0  0  0  0
    1.7990   17.1751    0.5441 H   0  0  0  0  0  0  0  0  0  0  0  0
    2.8066   17.7571   -1.6805 H   0  0  0  0  0  0  0  0  0  0  0  0
    1.3674   18.8540   -1.9435 H   0  0  0  0  0  0  0  0  0  0  0  0
    3.0957   20.2699   -1.2000 H   0  0  0  0  0  0  0  0  0  0  0  0
    2.0273   19.9777    0.2355 H   0  0  0  0  0  0  0  0  0  0  0  0
    4.5791   19.1305   -0.5542 H   0  0  0  0  0  0  0  0  0  0  0  0
    3.3251   20.0371    3.6400 H   0  0  0  0  0  0  0  0  0  0  0  0
    3.3041   21.2399    2.3060 H   0  0  0  0  0  0  0  0  0  0  0  0
    2.1327   19.8781    2.3060 H   0  0  0  0  0  0  0  0  0  0  0  0
    5.4692   19.2484    3.4510 H   0  0  0  0  0  0  0  0  0  0  0  0
    5.9863   18.3114    2.0082 H   0  0  0  0  0  0  0  0  0  0  0  0
    6.1131   20.1032    2.0082 H   0  0  0  0  0  0  0  0  0  0  0  0
   -0.2623   16.0917   -0.5313 H   0  0  0  0  0  0  0  0  0  0  0  0
   -0.5351   16.8488   -2.8092 H   0  0  0  0  0  0  0  0  0  0  0  0
    1.1481   17.4098   -2.9059 H   0  0  0  0  0  0  0  0  0  0  0  0
    0.1225   15.0200   -4.0894 H   0  0  0  0  0  0  0  0  0  0  0  0
    1.8379   15.3597   -3.8764 H   0  0  0  0  0  0  0  0  0  0  0  0
   -0.7590   13.7193   -0.9258 H   0  0  0  0  0  0  0  0  0  0  0  0
   -1.2155   14.5249   -2.4650 H   0  0  0  0  0  0  0  0  0  0  0  0
   -0.7365   12.7936   -2.4650 H   0  0  0  0  0  0  0  0  0  0  0  0
    2.7956   13.4110   -2.8016 H   0  0  0  0  0  0  0  0  0  0  0  0
    0.9362   12.7671   -4.4644 H   0  0  0  0  0  0  0  0  0  0  0  0
    2.3347   11.6238   -4.1085 H   0  0  0  0  0  0  0  0  0  0  0  0
   -0.0517   10.5245   -4.2876 H   0  0  0  0  0  0  0  0  0  0  0  0
    0.2228   11.6203   -0.4118 H   0  0  0  0  0  0  0  0  0  0  0  0
    2.1539    9.2335   -0.6706 H   0  0  0  0  0  0  0  0  0  0  0  0
    1.8133   10.2060    0.8291 H   0  0  0  0  0  0  0  0  0  0  0  0
    0.6381    8.0289    0.8368 H   0  0  0  0  0  0  0  0  0  0  0  0
   -0.4896    9.4412    0.8396 H   0  0  0  0  0  0  0  0  0  0  0  0
   -1.3306    7.7876   -0.6824 H   0  0  0  0  0  0  0  0  0  0  0  0
    0.6170    6.6960   -1.1510 H   0  0  0  0  0  0  0  0  0  0  0  0
   -2.0501   10.1508   -0.2202 H   0  0  0  0  0  0  0  0  0  0  0  0
   -2.1302   11.2534   -1.6360 H   0  0  0  0  0  0  0  0  0  0  0  0
   -3.0691    9.7221   -1.6360 H   0  0  0  0  0  0  0  0  0  0  0  0
   -2.1394    7.9617   -2.9763 H   0  0  0  0  0  0  0  0  0  0  0  0
   -2.0281    9.5322   -3.8411 H   0  0  0  0  0  0  0  0  0  0  0  0
   -0.6289    8.4058   -3.8411 H   0  0  0  0  0  0  0  0  0  0  0  0
    3.9240   10.9916   -0.5932 H   0  0  0  0  0  0  0  0  0  0  0  0
    3.2220   10.3611   -2.1217 H   0  0  0  0  0  0  0  0  0  0  0  0
    4.1260   11.9134   -2.1217 H   0  0  0  0  0  0  0  0  0  0  0  0
    2.1810   12.2462    0.9122 H   0  0  0  0  0  0  0  0  0  0  0  0
    3.4198   13.2415   -0.0412 H   0  0  0  0  0  0  0  0  0  0  0  0
    0.4985   13.8917    0.4360 H   0  0  0  0  0  0  0  0  0  0  0  0
    1.9625   14.7628    1.0406 H   0  0  0  0  0  0  0  0  0  0  0  0
    3.5506   15.6197   -0.3317 H   0  0  0  0  0  0  0  0  0  0  0  0
    3.5809   14.6907   -1.8688 H   0  0  0  0  0  0  0  0  0  0  0  0
    3.0621   16.4105   -1.8688 H   0  0  0  0  0  0  0  0  0  0  0  0
  1  2  1  0
  2  3  1  0
  3  4  1  0
  4  5  1  0
  5  6  1  0
  6  7  1  0
  7  8  1  0
  7  9  1  0
  2 10  1  0
 10 11  1  0
 11 12  1  0
 12 13  1  0
 13 14  1  1
 13 15  1  0
 15 16  1  0
 16 17  1  0
 17 18  2  0
 18 19  1  0
 19 20  1  0
 20 21  1  0
 21 22  1  0
 22 23  1  0
 22 24  1  0
 24 25  1  0
 24 26  1  0
 19 27  1  0
 27 28  1  6
 27 29  1  0
 29 30  1  0
 30 31  1  0
 31 32  1  6
  7  5  1  0
 31 10  1  0
 31 13  1  0
 27 15  1  0
 24 18  1  0
  1 33  1  0
  1 34  1  0
  1 35  1  0
  2 36  1  1
  3 37  1  0
  3 38  1  0
  4 39  1  0
  4 40  1  0
  5 41  1  6
  8 42  1  0
  8 43  1  0
  8 44  1  0
  9 45  1  0
  9 46  1  0
  9 47  1  0
 10 48  1  1
 11 49  1  0
 11 50  1  0
 12 51  1  0
 12 52  1  0
 14 53  1  0
 14 54  1  0
 14 55  1  0
 15 56  1  6
 16 57  1  0
 16 58  1  0
 17 59  1  0
 19 60  1  1
 20 61  1  0
 20 62  1  0
 21 63  1  0
 21 64  1  0
 22 65  1  1
 23 66  1  0
 25 67  1  0
 25 68  1  0
 25 69  1  0
 26 70  1  0
 26 71  1  0
 26 72  1  0
 28 73  1  0
 28 74  1  0
 28 75  1  0
 29 76  1  0
 29 77  1  0
 30 78  1  0
 30 79  1  0
 32 80  1  0
 32 81  1  0
 32 82  1  0
M  END
>  <meeko>  (6) 
{"is_sidechain": [false], "intermolecular_energy": 2.731, "internal_energy": -0.839}

$$$$
EPH_relaxed_0001_pdb2pqr_Repair_64_r2_0001_out
     RDKit          3D

 82 86  0  0  0  0  0  0  0  0999 V2000
    2.0840   17.0310   -0.0690 C   0  0  0  0  0  0  0  0  0  0  0  0
    1.6820   17.2030   -1.5360 C   0  0  2  0  0  0  0  0  0  0  0  0
    0.8040   18.4520   -1.7550 C   0  0  0  0  0  0  0  0  0  0  0  0
    0.9550   19.5100   -0.6590 C   0  0  0  0  0  0  0  0  0  0  0  0
   -0.3460   20.1910   -0.3620 C   0  0  2  0  0  0  0  0  0  0  0  0
   -0.7180   20.1940    1.0220 O   0  0  0  0  0  0  0  0  0  0  0  0
   -1.5790   19.4600    0.1360 C   0  0  0  0  0  0  0  0  0  0  0  0
   -1.5690   17.9810    0.3660 C   0  0  0  0  0  0  0  0  0  0  0  0
   -2.9190   20.0950   -0.0670 C   0  0  0  0  0  0  0  0  0  0  0  0
    0.9480   15.9590   -2.0230 C   0  0  1  0  0  0  0  0  0  0  0  0
    0.4480   16.0940   -3.4860 C   0  0  0  0  0  0  0  0  0  0  0  0
    0.5630   14.6890   -4.1300 C   0  0  0  0  0  0  0  0  0  0  0  0
    0.8050   13.7330   -2.9380 C   0  0  1  0  0  0  0  0  0  0  0  0
   -0.6110   13.4780   -2.3340 C   0  0  0  0  0  0  0  0  0  0  0  0
    1.5420   12.3930   -3.2660 C   0  0  2  0  0  0  0  0  0  0  0  0
    0.7990   11.4600   -4.2380 C   0  0  0  0  0  0  0  0  0  0  0  0
   -0.1190   10.4720   -3.5970 C   0  0  0  0  0  0  0  0  0  0  0  0
   -0.1270   10.1450   -2.2910 C   0  0  0  0  0  0  0  0  0  0  0  0
    0.9200   10.7200   -1.3280 C   0  0  1  0  0  0  0  0  0  0  0  0
    1.4920    9.5810   -0.4440 C   0  0  0  0  0  0  0  0  0  0  0  0
    0.4020    8.7980    0.2800 C   0  0  0  0  0  0  0  0  0  0  0  0
   -0.5860    8.1930   -0.7140 C   0  0  2  0  0  0  0  0  0  0  0  0
    0.0890    7.1930   -1.4840 O   0  0  0  0  0  0  0  0  0  0  0  0
   -1.2210    9.2450   -1.6650 C   0  0  0  0  0  0  0  0  0  0  0  0
   -2.1950   10.1480   -0.8680 C   0  0  0  0  0  0  0  0  0  0  0  0
   -2.0870    8.4870   -2.7070 C   0  0  0  0  0  0  0  0  0  0  0  0
    2.0580   11.6090   -1.9920 C   0  0  1  0  0  0  0  0  0  0  0  0
    3.2300   10.6990   -2.4730 C   0  0  0  0  0  0  0  0  0  0  0  0
    2.6620   12.5700   -0.9010 C   0  0  0  0  0  0  0  0  0  0  0  0
    1.9610   13.9290   -0.7080 C   0  0  0  0  0  0  0  0  0  0  0  0
    1.7440   14.6300   -2.0520 C   0  0  2  0  0  0  0  0  0  0  0  0
    3.1530   14.9190   -2.6740 C   0  0  0  0  0  0  0  0  0  0  0  0
    1.2665   17.3808    0.5786 H   0  0  0  0  0  0  0  0  0  0  0  0
    2.2839   15.9686    0.1343 H   0  0  0  0  0  0  0  0  0  0  0  0
    2.9905   17.6201    0.1343 H   0  0  0  0  0  0  0  0  0  0  0  0
    2.6051   17.3420   -2.1179 H   0  0  0  0  0  0  0  0  0  0  0  0
    1.0811   18.9069   -2.7174 H   0  0  0  0  0  0  0  0  0  0  0  0
   -0.2433   18.1162   -1.7357 H   0  0  0  0  0  0  0  0  0  0  0  0
    1.3201   19.0238    0.2577 H   0  0  0  0  0  0  0  0  0  0  0  0
    1.6667   20.2705   -1.0127 H   0  0  0  0  0  0  0  0  0  0  0  0
   -0.1919   20.8976   -1.1908 H   0  0  0  0  0  0  0  0  0  0  0  0
   -1.5676   17.7781    1.4471 H   0  0  0  0  0  0  0  0  0  0  0  0
   -2.4641   17.5329   -0.0900 H   0  0  0  0  0  0  0  0  0  0  0  0
   -0.6679   17.5451   -0.0900 H   0  0  0  0  0  0  0  0  0  0  0  0
   -3.3744   20.3108    0.9108 H   0  0  0  0  0  0  0  0  0  0  0  0
   -2.7991   21.0321   -0.6305 H   0  0  0  0  0  0  0  0  0  0  0  0
   -3.5683   19.4088   -0.6305 H   0  0  0  0  0  0  0  0  0  0  0  0
    0.1529   15.9054   -1.2648 H   0  0  0  0  0  0  0  0  0  0  0  0
   -0.5987   16.4319   -3.4988 H   0  0  0  0  0  0  0  0  0  0  0  0
    1.0454   16.8325   -4.0407 H   0  0  0  0  0  0  0  0  0  0  0  0
   -0.3662   14.4258   -4.6566 H   0  0  0  0  0  0  0  0  0  0  0  0
    1.3686   14.6369   -4.8772 H   0  0  0  0  0  0  0  0  0  0  0  0
   -0.5486   13.4892   -1.2358 H   0  0  0  0  0  0  0  0  0  0  0  0
   -1.3005   14.2664   -2.6702 H   0  0  0  0  0  0  0  0  0  0  0  0
   -0.9821   12.4986   -2.6702 H   0  0  0  0  0  0  0  0  0  0  0  0
    2.4329   12.7407   -3.8094 H   0  0  0  0  0  0  0  0  0  0  0  0
    0.2035   12.0844   -4.9203 H   0  0  0  0  0  0  0  0  0  0  0  0
    1.5753   10.8692   -4.7462 H   0  0  0  0  0  0  0  0  0  0  0  0
   -0.8504    9.9689   -4.2466 H   0  0  0  0  0  0  0  0  0  0  0  0
    0.3872   11.4479   -0.6984 H   0  0  0  0  0  0  0  0  0  0  0  0
    2.0575    8.8881   -1.0843 H   0  0  0  0  0  0  0  0  0  0  0  0
    2.1346   10.0426    0.3202 H   0  0  0  0  0  0  0  0  0  0  0  0
    0.8666    7.9894    0.8634 H   0  0  0  0  0  0  0  0  0  0  0  0
   -0.1433    9.4858    0.9429 H   0  0  0  0  0  0  0  0  0  0  0  0
   -1.4124    7.7570   -0.1335 H   0  0  0  0  0  0  0  0  0  0  0  0
    1.0280    7.2130   -1.2340 H   0  0  0  0  0  0  0  0  0  0  0  0
   -2.0342    9.9990    0.2099 H   0  0  0  0  0  0  0  0  0  0  0  0
   -2.0106   11.2018   -1.1240 H   0  0  0  0  0  0  0  0  0  0  0  0
   -3.2318    9.8845   -1.1240 H   0  0  0  0  0  0  0  0  0  0  0  0
   -2.8153    7.8495   -2.1843 H   0  0  0  0  0  0  0  0  0  0  0  0
   -2.6212    9.2130   -3.3375 H   0  0  0  0  0  0  0  0  0  0  0  0
   -1.4381    7.8614   -3.3375 H   0  0  0  0  0  0  0  0  0  0  0  0
    3.7581   10.2890   -1.5995 H   0  0  0  0  0  0  0  0  0  0  0  0
    2.8284    9.8737   -3.0793 H   0  0  0  0  0  0  0  0  0  0  0  0
    3.9300   11.2926   -3.0793 H   0  0  0  0  0  0  0  0  0  0  0  0
    2.6321   12.0402    0.0626 H   0  0  0  0  0  0  0  0  0  0  0  0
    3.6722   12.8154   -1.2607 H   0  0  0  0  0  0  0  0  0  0  0  0
    0.9859   13.7656   -0.2259 H   0  0  0  0  0  0  0  0  0  0  0  0
    2.5996   14.5667   -0.0791 H   0  0  0  0  0  0  0  0  0  0  0  0
    3.8859   15.0693   -1.8676 H   0  0  0  0  0  0  0  0  0  0  0  0
    3.4615   14.0654   -3.2955 H   0  0  0  0  0  0  0  0  0  0  0  0
    3.1006   15.8251   -3.2955 H   0  0  0  0  0  0  0  0  0  0  0  0
  1  2  1  0
  2  3  1  0
  3  4  1  0
  4  5  1  0
  5  6  1  0
  6  7  1  0
  7  8  1  0
  7  9  1  0
  2 10  1  0
 10 11  1  0
 11 12  1  0
 12 13  1  0
 13 14  1  1
 13 15  1  0
 15 16  1  0
 16 17  1  0
 17 18  2  0
 18 19  1  0
 19 20  1  0
 20 21  1  0
 21 22  1  0
 22 23  1  0
 22 24  1  0
 24 25  1  0
 24 26  1  0
 19 27  1  0
 27 28  1  6
 27 29  1  0
 29 30  1  0
 30 31  1  0
 31 32  1  6
  7  5  1  0
 31 10  1  0
 31 13  1  0
 27 15  1  0
 24 18  1  0
  1 33  1  0
  1 34  1  0
  1 35  1  0
  2 36  1  6
  3 37  1  0
  3 38  1  0
  4 39  1  0
  4 40  1  0
  5 41  1  6
  8 42  1  0
  8 43  1  0
  8 44  1  0
  9 45  1  0
  9 46  1  0
  9 47  1  0
 10 48  1  1
 11 49  1  0
 11 50  1  0
 12 51  1  0
 12 52  1  0
 14 53  1  0
 14 54  1  0
 14 55  1  0
 15 56  1  6
 16 57  1  0
 16 58  1  0
 17 59  1  0
 19 60  1  1
 20 61  1  0
 20 62  1  0
 21 63  1  0
 21 64  1  0
 22 65  1  1
 23 66  1  0
 25 67  1  0
 25 68  1  0
 25 69  1  0
 26 70  1  0
 26 71  1  0
 26 72  1  0
 28 73  1  0
 28 74  1  0
 28 75  1  0
 29 76  1  0
 29 77  1  0
 30 78  1  0
 30 79  1  0
 32 80  1  0
 32 81  1  0
 32 82  1  0
M  END
>  <meeko>  (7) 
{"is_sidechain": [false], "intermolecular_energy": 2.731, "internal_energy": -0.839}

$$$$
EPH_relaxed_0001_pdb2pqr_Repair_64_r2_0001_out
     RDKit          3D

 82 86  0  0  0  0  0  0  0  0999 V2000
    0.4270    8.8710   -2.5040 C   0  0  0  0  0  0  0  0  0  0  0  0
    1.1840   10.0250   -3.1660 C   0  0  2  0  0  0  0  0  0  0  0  0
    2.6790   10.0310   -2.7880 C   0  0  0  0  0  0  0  0  0  0  0  0
    3.5830   10.6350   -3.8660 C   0  0  0  0  0  0  0  0  0  0  0  0
    4.9780   10.8500   -3.3620 C   0  0  2  0  0  0  0  0  0  0  0  0
    5.6040   12.0530   -3.8290 O   0  0  0  0  0  0  0  0  0  0  0  0
    6.2040   10.8190   -4.2550 C   0  0  0  0  0  0  0  0  0  0  0  0
    6.0930   10.5640   -5.7260 C   0  0  0  0  0  0  0  0  0  0  0  0
    7.5380   10.5500   -3.6310 C   0  0  0  0  0  0  0  0  0  0  0  0
    0.5440   11.3540   -2.7820 C   0  0  1  0  0  0  0  0  0  0  0  0
   -0.8450   11.1770   -2.1120 C   0  0  0  0  0  0  0  0  0  0  0  0
   -0.9730   12.2960   -1.0460 C   0  0  0  0  0  0  0  0  0  0  0  0
    0.1860   13.2700   -1.3610 C   0  0  1  0  0  0  0  0  0  0  0  0
   -0.3400   14.1540   -2.5340 C   0  0  0  0  0  0  0  0  0  0  0  0
    0.7010   14.1400   -0.1680 C   0  0  2  0  0  0  0  0  0  0  0  0
   -0.3360   15.1090    0.4280 C   0  0  0  0  0  0  0  0  0  0  0  0
   -0.3630   16.4690   -0.1860 C   0  0  0  0  0  0  0  0  0  0  0  0
    0.5950   16.9900   -0.9760 C   0  0  0  0  0  0  0  0  0  0  0  0
    1.8970   16.2260   -1.2440 C   0  0  1  0  0  0  0  0  0  0  0  0
    3.1050   17.1840   -1.0740 C   0  0  0  0  0  0  0  0  0  0  0  0
    2.9790   18.4410   -1.9290 C   0  0  0  0  0  0  0  0  0  0  0  0
    1.7010   19.2050   -1.5930 C   0  0  2  0  0  0  0  0  0  0  0  0
    1.8070   19.7160   -0.2600 O   0  0  0  0  0  0  0  0  0  0  0  0
    0.4180   18.3370   -1.7190 C   0  0  0  0  0  0  0  0  0  0  0  0
    0.1390   18.0350   -3.2130 C   0  0  0  0  0  0  0  0  0  0  0  0
   -0.7820   19.1840   -1.2170 C   0  0  0  0  0  0  0  0  0  0  0  0
    2.0800   14.8650   -0.4430 C   0  0  1  0  0  0  0  0  0  0  0  0
    2.7180   15.1510    0.9510 C   0  0  0  0  0  0  0  0  0  0  0  0
    3.0970   13.9450   -1.2170 C   0  0  0  0  0  0  0  0  0  0  0  0
    2.5110   13.0220   -2.3010 C   0  0  0  0  0  0  0  0  0  0  0  0
    1.3060   12.2420   -1.7660 C   0  0  2  0  0  0  0  0  0  0  0  0
    1.8080   11.3270   -0.5980 C   0  0  0  0  0  0  0  0  0  0  0  0
    0.4917    8.9696   -1.4103 H   0  0  0  0  0  0  0  0  0  0  0  0
   -0.6283    8.8997   -2.8130 H   0  0  0  0  0  0  0  0  0  0  0  0
    0.8736    7.9144   -2.8130 H   0  0  0  0  0  0  0  0  0  0  0  0
    1.1195    9.8822   -4.2548 H   0  0  0  0  0  0  0  0  0  0  0  0
    2.8015   10.6156   -1.8643 H   0  0  0  0  0  0  0  0  0  0  0  0
    2.9837    8.9814   -2.6634 H   0  0  0  0  0  0  0  0  0  0  0  0
    3.6164    9.9517   -4.7274 H   0  0  0  0  0  0  0  0  0  0  0  0
    3.1678   11.6120   -4.1542 H   0  0  0  0  0  0  0  0  0  0  0  0
    4.7408   10.3399   -2.4167 H   0  0  0  0  0  0  0  0  0  0  0  0
    5.6591    9.5672   -5.8936 H   0  0  0  0  0  0  0  0  0  0  0  0
    5.4457   11.3272   -6.1826 H   0  0  0  0  0  0  0  0  0  0  0  0
    7.0927   10.6103   -6.1826 H   0  0  0  0  0  0  0  0  0  0  0  0
    7.4410   10.5696   -2.5355 H   0  0  0  0  0  0  0  0  0  0  0  0
    7.8991    9.5610   -3.9495 H   0  0  0  0  0  0  0  0  0  0  0  0
    8.2541   11.3218   -3.9495 H   0  0  0  0  0  0  0  0  0  0  0  0
    0.5242   11.8414   -3.7679 H   0  0  0  0  0  0  0  0  0  0  0  0
   -1.6430   11.2757   -2.8626 H   0  0  0  0  0  0  0  0  0  0  0  0
   -0.9384   10.1816   -1.6531 H   0  0  0  0  0  0  0  0  0  0  0  0
   -1.9436   12.8063   -1.1334 H   0  0  0  0  0  0  0  0  0  0  0  0
   -0.9199   11.9026   -0.0201 H   0  0  0  0  0  0  0  0  0  0  0  0
   -0.8623   15.0318   -2.1259 H   0  0  0  0  0  0  0  0  0  0  0  0
    0.5076   14.4860   -3.1516 H   0  0  0  0  0  0  0  0  0  0  0  0
   -1.0361   13.5675   -3.1516 H   0  0  0  0  0  0  0  0  0  0  0  0
    0.8873   13.3864    0.6113 H   0  0  0  0  0  0  0  0  0  0  0  0
   -1.3323   14.6597    0.3033 H   0  0  0  0  0  0  0  0  0  0  0  0
   -0.0476   15.2550    1.4794 H   0  0  0  0  0  0  0  0  0  0  0  0
   -1.2397   17.0991    0.0246 H   0  0  0  0  0  0  0  0  0  0  0  0
    1.8378   15.8821   -2.2872 H   0  0  0  0  0  0  0  0  0  0  0  0
    3.1731   17.4816   -0.0172 H   0  0  0  0  0  0  0  0  0  0  0  0
    4.0067   16.6460   -1.4018 H   0  0  0  0  0  0  0  0  0  0  0  0
    3.8464   19.0913   -1.7427 H   0  0  0  0  0  0  0  0  0  0  0  0
    2.9413   18.1429   -2.9872 H   0  0  0  0  0  0  0  0  0  0  0  0
    1.6014   20.0203   -2.3246 H   0  0  0  0  0  0  0  0  0  0  0  0
    1.4660   20.6260   -0.2660 H   0  0  0  0  0  0  0  0  0  0  0  0
   -0.6055   17.2291   -3.2913 H   0  0  0  0  0  0  0  0  0  0  0  0
   -0.2475   18.9402   -3.7041 H   0  0  0  0  0  0  0  0  0  0  0  0
    1.0720   17.7213   -3.7041 H   0  0  0  0  0  0  0  0  0  0  0  0
   -0.7914   19.1907   -0.1171 H   0  0  0  0  0  0  0  0  0  0  0  0
   -0.6846   20.2146   -1.5891 H   0  0  0  0  0  0  0  0  0  0  0  0
   -1.7204   18.7470   -1.5891 H   0  0  0  0  0  0  0  0  0  0  0  0
    2.0221   14.8390    1.7437 H   0  0  0  0  0  0  0  0  0  0  0  0
    3.6584   14.5883    1.0463 H   0  0  0  0  0  0  0  0  0  0  0  0
    2.9236   16.2274    1.0463 H   0  0  0  0  0  0  0  0  0  0  0  0
    3.8362   14.5999   -1.7014 H   0  0  0  0  0  0  0  0  0  0  0  0
    3.5106   13.2680   -0.4550 H   0  0  0  0  0  0  0  0  0  0  0  0
    2.1923   13.6322   -3.1590 H   0  0  0  0  0  0  0  0  0  0  0  0
    3.2861   12.3034   -2.6055 H   0  0  0  0  0  0  0  0  0  0  0  0
    1.5535   11.7908    0.3664 H   0  0  0  0  0  0  0  0  0  0  0  0
    1.3241   10.3418   -0.6701 H   0  0  0  0  0  0  0  0  0  0  0  0
    2.8989   11.2058   -0.6701 H   0  0  0  0  0  0  0  0  0  0  0  0
  1  2  1  0
  2  3  1  0
  3  4  1  0
  4  5  1  0
  5  6  1  0
  6  7  1  0
  7  8  1  0
  7  9  1  0
  2 10  1  0
 10 11  1  0
 11 12  1  0
 12 13  1  0
 13 14  1  6
 13 15  1  0
 15 16  1  0
 16 17  1  0
 17 18  2  0
 18 19  1  0
 19 20  1  0
 20 21  1  0
 21 22  1  0
 22 23  1  0
 22 24  1  0
 24 25  1  0
 24 26  1  0
 19 27  1  0
 27 28  1  1
 27 29  1  0
 29 30  1  0
 30 31  1  0
 31 32  1  1
  7  5  1  0
 31 10  1  0
 31 13  1  0
 27 15  1  0
 24 18  1  0
  1 33  1  0
  1 34  1  0
  1 35  1  0
  2 36  1  6
  3 37  1  0
  3 38  1  0
  4 39  1  0
  4 40  1  0
  5 41  1  1
  8 42  1  0
  8 43  1  0
  8 44  1  0
  9 45  1  0
  9 46  1  0
  9 47  1  0
 10 48  1  6
 11 49  1  0
 11 50  1  0
 12 51  1  0
 12 52  1  0
 14 53  1  0
 14 54  1  0
 14 55  1  0
 15 56  1  1
 16 57  1  0
 16 58  1  0
 17 59  1  0
 19 60  1  6
 20 61  1  0
 20 62  1  0
 21 63  1  0
 21 64  1  0
 22 65  1  6
 23 66  1  0
 25 67  1  0
 25 68  1  0
 25 69  1  0
 26 70  1  0
 26 71  1  0
 26 72  1  0
 28 73  1  0
 28 74  1  0
 28 75  1  0
 29 76  1  0
 29 77  1  0
 30 78  1  0
 30 79  1  0
 32 80  1  0
 32 81  1  0
 32 82  1  0
M  END
>  <meeko>  (8) 
{"is_sidechain": [false], "intermolecular_energy": 2.731, "internal_energy": -0.839}

$$$$
EPH_relaxed_0001_pdb2pqr_Repair_64_r2_0001_out
     RDKit          3D

 82 86  0  0  0  0  0  0  0  0999 V2000
    2.1240   19.2670   -2.0440 C   0  0  0  0  0  0  0  0  0  0  0  0
    1.5330   19.1830   -0.6330 C   0  0  2  0  0  0  0  0  0  0  0  0
    2.4930   19.7480    0.4330 C   0  0  0  0  0  0  0  0  0  0  0  0
    3.5030   18.7230    0.9560 C   0  0  0  0  0  0  0  0  0  0  0  0
    3.7710   18.9060    2.4200 C   0  0  2  0  0  0  0  0  0  0  0  0
    4.2970   20.1910    2.7760 O   0  0  0  0  0  0  0  0  0  0  0  0
    5.1620   19.0660    3.0020 C   0  0  0  0  0  0  0  0  0  0  0  0
    6.3790   19.0510    2.1310 C   0  0  0  0  0  0  0  0  0  0  0  0
    5.3730   18.7490    4.4500 C   0  0  0  0  0  0  0  0  0  0  0  0
    1.1800   17.7380   -0.3030 C   0  0  1  0  0  0  0  0  0  0  0  0
   -0.1340   17.6160    0.5150 C   0  0  0  0  0  0  0  0  0  0  0  0
   -0.8300   16.3110    0.0500 C   0  0  0  0  0  0  0  0  0  0  0  0
    0.2490   15.5620   -0.7660 C   0  0  1  0  0  0  0  0  0  0  0  0
    1.1400   14.8540    0.3020 C   0  0  0  0  0  0  0  0  0  0  0  0
   -0.2730   14.5540   -1.8420 C   0  0  2  0  0  0  0  0  0  0  0  0
   -1.0870   13.3720   -1.2870 C   0  0  0  0  0  0  0  0  0  0  0  0
   -0.2920   12.1570   -0.9410 C   0  0  0  0  0  0  0  0  0  0  0  0
    0.9730   11.9130   -1.3310 C   0  0  0  0  0  0  0  0  0  0  0  0
    1.7010   12.8670   -2.2860 C   0  0  1  0  0  0  0  0  0  0  0  0
    2.4030   12.0490   -3.4010 C   0  0  0  0  0  0  0  0  0  0  0  0
    3.3230   10.9680   -2.8430 C   0  0  0  0  0  0  0  0  0  0  0  0
    2.5510   10.0040   -1.9450 C   0  0  2  0  0  0  0  0  0  0  0  0
    1.6210    9.2710   -2.7480 O   0  0  0  0  0  0  0  0  0  0  0  0
    1.7940   10.7170   -0.7890 C   0  0  0  0  0  0  0  0  0  0  0  0
    2.8130   11.2560    0.2450 C   0  0  0  0  0  0  0  0  0  0  0  0
    0.9440    9.6510   -0.0460 C   0  0  0  0  0  0  0  0  0  0  0  0
    0.8330   14.0660   -2.8630 C   0  0  1  0  0  0  0  0  0  0  0  0
    0.0790   13.6060   -4.1490 C   0  0  0  0  0  0  0  0  0  0  0  0
    1.7950   15.2320   -3.3060 C   0  0  0  0  0  0  0  0  0  0  0  0
    2.1780   16.2630   -2.2280 C   0  0  0  0  0  0  0  0  0  0  0  0
    0.9360   16.7750   -1.4920 C   0  0  2  0  0  0  0  0  0  0  0  0
    0.0310   17.5120   -2.5380 C   0  0  0  0  0  0  0  0  0  0  0  0
    3.2111   19.4215   -1.9776 H   0  0  0  0  0  0  0  0  0  0  0  0
    1.9190   18.3307   -2.5837 H   0  0  0  0  0  0  0  0  0  0  0  0
    1.6662   20.1091   -2.5837 H   0  0  0  0  0  0  0  0  0  0  0  0
    0.6229   19.8006   -0.6178 H   0  0  0  0  0  0  0  0  0  0  0  0
    3.0482   20.5881   -0.0098 H   0  0  0  0  0  0  0  0  0  0  0  0
    1.8763   20.0579    1.2895 H   0  0  0  0  0  0  0  0  0  0  0  0
    3.1030   17.7118    0.7904 H   0  0  0  0  0  0  0  0  0  0  0  0
    4.4492   18.8662    0.4136 H   0  0  0  0  0  0  0  0  0  0  0  0
    2.9348   18.2404    2.6803 H   0  0  0  0  0  0  0  0  0  0  0  0
    7.2807   19.0399    2.7610 H   0  0  0  0  0  0  0  0  0  0  0  0
    6.3643   18.1530    1.4959 H   0  0  0  0  0  0  0  0  0  0  0  0
    6.3865   19.9491    1.4959 H   0  0  0  0  0  0  0  0  0  0  0  0
    4.8689   19.5063    5.0684 H   0  0  0  0  0  0  0  0  0  0  0  0
    4.9549   17.7562    4.6727 H   0  0  0  0  0  0  0  0  0  0  0  0
    6.4502   18.7516    4.6727 H   0  0  0  0  0  0  0  0  0  0  0  0
    2.0923   17.4447    0.2371 H   0  0  0  0  0  0  0  0  0  0  0  0
    0.0925   17.5623    1.5901 H   0  0  0  0  0  0  0  0  0  0  0  0
   -0.7829   18.4893    0.3531 H   0  0  0  0  0  0  0  0  0  0  0  0
   -1.1482   15.7112    0.9154 H   0  0  0  0  0  0  0  0  0  0  0  0
   -1.7363   16.5097   -0.5409 H   0  0  0  0  0  0  0  0  0  0  0  0
    0.7937   15.1292    1.3091 H   0  0  0  0  0  0  0  0  0  0  0  0
    1.0684   13.7637    0.1748 H   0  0  0  0  0  0  0  0  0  0  0  0
    2.1859   15.1701    0.1748 H   0  0  0  0  0  0  0  0  0  0  0  0
   -0.9864   15.1660   -2.4134 H   0  0  0  0  0  0  0  0  0  0  0  0
   -1.6021   13.7118   -0.3764 H   0  0  0  0  0  0  0  0  0  0  0  0
   -1.7713   13.0686   -2.0931 H   0  0  0  0  0  0  0  0  0  0  0  0
   -0.7812   11.3968   -0.3144 H   0  0  0  0  0  0  0  0  0  0  0  0
    2.4537   13.3898   -1.6776 H   0  0  0  0  0  0  0  0  0  0  0  0
    1.6336   11.5698   -4.0242 H   0  0  0  0  0  0  0  0  0  0  0  0
    3.0224   12.7450   -3.9857 H   0  0  0  0  0  0  0  0  0  0  0  0
    3.7655   10.4056   -3.6784 H   0  0  0  0  0  0  0  0  0  0  0  0
    4.1097   11.4511   -2.2448 H   0  0  0  0  0  0  0  0  0  0  0  0
    3.2843    9.3332   -1.4735 H   0  0  0  0  0  0  0  0  0  0  0  0
    1.5720    8.3680   -2.3910 H   0  0  0  0  0  0  0  0  0  0  0  0
    2.4421   11.0598    1.2619 H   0  0  0  0  0  0  0  0  0  0  0  0
    3.7803   10.7516    0.1038 H   0  0  0  0  0  0  0  0  0  0  0  0
    2.9404   12.3394    0.1038 H   0  0  0  0  0  0  0  0  0  0  0  0
    1.0527    9.7873    1.0401 H   0  0  0  0  0  0  0  0  0  0  0  0
   -0.1137    9.7652   -0.3259 H   0  0  0  0  0  0  0  0  0  0  0  0
    1.2908    8.6453   -0.3259 H   0  0  0  0  0  0  0  0  0  0  0  0
   -0.8280   13.0527   -3.8641 H   0  0  0  0  0  0  0  0  0  0  0  0
   -0.2011   14.4872   -4.7448 H   0  0  0  0  0  0  0  0  0  0  0  0
    0.7344   12.9538   -4.7448 H   0  0  0  0  0  0  0  0  0  0  0  0
    2.7250   14.7744   -3.6743 H   0  0  0  0  0  0  0  0  0  0  0  0
    1.2308   15.8000   -4.0603 H   0  0  0  0  0  0  0  0  0  0  0  0
    2.8564   15.7900   -1.5027 H   0  0  0  0  0  0  0  0  0  0  0  0
    2.6712   17.1155   -2.7179 H   0  0  0  0  0  0  0  0  0  0  0  0
   -0.7174   18.1215   -2.0104 H   0  0  0  0  0  0  0  0  0  0  0  0
    0.6548   18.1623   -3.1689 H   0  0  0  0  0  0  0  0  0  0  0  0
   -0.4795   16.7695   -3.1689 H   0  0  0  0  0  0  0  0  0  0  0  0
  1  2  1  0
  2  3  1  0
  3  4  1  0
  4  5  1  0
  5  6  1  0
  6  7  1  0
  7  8  1  0
  7  9  1  0
  2 10  1  0
 10 11  1  0
 11 12  1  0
 12 13  1  0
 13 14  1  1
 13 15  1  0
 15 16  1  0
 16 17  1  0
 17 18  2  0
 18 19  1  0
 19 20  1  0
 20 21  1  0
 21 22  1  0
 22 23  1  0
 22 24  1  0
 24 25  1  0
 24 26  1  0
 19 27  1  0
 27 28  1  6
 27 29  1  0
 29 30  1  0
 30 31  1  0
 31 32  1  6
  7  5  1  0
 31 10  1  0
 31 13  1  0
 27 15  1  0
 24 18  1  0
  1 33  1  0
  1 34  1  0
  1 35  1  0
  2 36  1  6
  3 37  1  0
  3 38  1  0
  4 39  1  0
  4 40  1  0
  5 41  1  1
  8 42  1  0
  8 43  1  0
  8 44  1  0
  9 45  1  0
  9 46  1  0
  9 47  1  0
 10 48  1  1
 11 49  1  0
 11 50  1  0
 12 51  1  0
 12 52  1  0
 14 53  1  0
 14 54  1  0
 14 55  1  0
 15 56  1  6
 16 57  1  0
 16 58  1  0
 17 59  1  0
 19 60  1  1
 20 61  1  0
 20 62  1  0
 21 63  1  0
 21 64  1  0
 22 65  1  1
 23 66  1  0
 25 67  1  0
 25 68  1  0
 25 69  1  0
 26 70  1  0
 26 71  1  0
 26 72  1  0
 28 73  1  0
 28 74  1  0
 28 75  1  0
 29 76  1  0
 29 77  1  0
 30 78  1  0
 30 79  1  0
 32 80  1  0
 32 81  1  0
 32 82  1  0
M  END
>  <meeko>  (9) 
{"is_sidechain": [false], "intermolecular_energy": 2.731, "internal_energy": -0.839}

$$$$
EPH_relaxed_0001_pdb2pqr_Repair_64_r2_0001_out
     RDKit          3D

 82 86  0  0  0  0  0  0  0  0999 V2000
    0.2190   17.8700   -2.6250 C   0  0  0  0  0  0  0  0  0  0  0  0
   -0.0870   16.9320   -1.4530 C   0  0  2  0  0  0  0  0  0  0  0  0
   -0.2210   17.6940   -0.1190 C   0  0  0  0  0  0  0  0  0  0  0  0
    0.3990   19.0930   -0.1450 C   0  0  0  0  0  0  0  0  0  0  0  0
    1.5760   19.1950    0.7770 C   0  0  2  0  0  0  0  0  0  0  0  0
    2.5500   20.1770    0.4000 O   0  0  0  0  0  0  0  0  0  0  0  0
    2.9880   18.8090    0.3770 C   0  0  0  0  0  0  0  0  0  0  0  0
    3.2970   18.2920   -0.9930 C   0  0  0  0  0  0  0  0  0  0  0  0
    3.9710   18.4730    1.4550 C   0  0  0  0  0  0  0  0  0  0  0  0
    1.0000   15.8700   -1.3400 C   0  0  1  0  0  0  0  0  0  0  0  0
    1.2140   15.3880    0.1190 C   0  0  0  0  0  0  0  0  0  0  0  0
    1.5690   13.8800    0.0450 C   0  0  0  0  0  0  0  0  0  0  0  0
    1.8720   13.6240   -1.4500 C   0  0  1  0  0  0  0  0  0  0  0  0
    3.3420   14.1090   -1.6500 C   0  0  0  0  0  0  0  0  0  0  0  0
    1.6750   12.1580   -1.9540 C   0  0  2  0  0  0  0  0  0  0  0  0
    2.5880   11.1110   -1.2920 C   0  0  0  0  0  0  0  0  0  0  0  0
    3.8910   10.8750   -1.9810 C   0  0  0  0  0  0  0  0  0  0  0  0
    4.1940   11.2610   -3.2340 C   0  0  0  0  0  0  0  0  0  0  0  0
    3.1410   11.9260   -4.1300 C   0  0  1  0  0  0  0  0  0  0  0  0
    3.1740   11.2750   -5.5380 C   0  0  0  0  0  0  0  0  0  0  0  0
    4.5660   11.2960   -6.1600 C   0  0  0  0  0  0  0  0  0  0  0  0
    5.5730   10.5750   -5.2680 C   0  0  2  0  0  0  0  0  0  0  0  0
    5.2430    9.1830   -5.2320 O   0  0  0  0  0  0  0  0  0  0  0  0
    5.6230   11.1380   -3.8200 C   0  0  0  0  0  0  0  0  0  0  0  0
    6.2660   12.5470   -3.8320 C   0  0  0  0  0  0  0  0  0  0  0  0
    6.5710   10.2340   -2.9880 C   0  0  0  0  0  0  0  0  0  0  0  0
    1.6720   12.0090   -3.5300 C   0  0  1  0  0  0  0  0  0  0  0  0
    0.8910   10.6980   -3.8520 C   0  0  0  0  0  0  0  0  0  0  0  0
    0.8910   13.1770   -4.2400 C   0  0  0  0  0  0  0  0  0  0  0  0
    1.0310   14.5820   -3.6240 C   0  0  0  0  0  0  0  0  0  0  0  0
    0.7830   14.5450   -2.1130 C   0  0  2  0  0  0  0  0  0  0  0  0
   -0.6950   14.0820   -1.8820 C   0  0  0  0  0  0  0  0  0  0  0  0
    0.5383   18.8488   -2.2376 H   0  0  0  0  0  0  0  0  0  0  0  0
    1.0231   17.4388   -3.2395 H   0  0  0  0  0  0  0  0  0  0  0  0
   -0.6847   17.9959   -3.2395 H   0  0  0  0  0  0  0  0  0  0  0  0
   -1.0555   16.4520   -1.6572 H   0  0  0  0  0  0  0  0  0  0  0  0
   -1.2905   17.7924    0.1189 H   0  0  0  0  0  0  0  0  0  0  0  0
    0.3258   17.1140    0.6390 H   0  0  0  0  0  0  0  0  0  0  0  0
    0.7287   19.3178   -1.1701 H   0  0  0  0  0  0  0  0  0  0  0  0
   -0.3628   19.8119    0.1907 H   0  0  0  0  0  0  0  0  0  0  0  0
    0.9524   18.9208    1.6406 H   0  0  0  0  0  0  0  0  0  0  0  0
    3.8598   17.3504   -0.9113 H   0  0  0  0  0  0  0  0  0  0  0  0
    2.3582   18.1120   -1.5374 H   0  0  0  0  0  0  0  0  0  0  0  0
    3.9001   19.0336   -1.5374 H   0  0  0  0  0  0  0  0  0  0  0  0
    3.5051   18.6322    2.4387 H   0  0  0  0  0  0  0  0  0  0  0  0
    4.2746   17.4201    1.3592 H   0  0  0  0  0  0  0  0  0  0  0  0
    4.8556   19.1198    1.3592 H   0  0  0  0  0  0  0  0  0  0  0  0
    1.8453   16.4242   -1.7740 H   0  0  0  0  0  0  0  0  0  0  0  0
    2.0373   15.9484    0.5861 H   0  0  0  0  0  0  0  0  0  0  0  0
    0.3109   15.5517    0.7253 H   0  0  0  0  0  0  0  0  0  0  0  0
    2.4510   13.6578    0.6637 H   0  0  0  0  0  0  0  0  0  0  0  0
    0.7567   13.2410    0.4216 H   0  0  0  0  0  0  0  0  0  0  0  0
    3.8135   14.2646   -0.6684 H   0  0  0  0  0  0  0  0  0  0  0  0
    3.9056   13.3492   -2.2113 H   0  0  0  0  0  0  0  0  0  0  0  0
    3.3428   15.0550   -2.2113 H   0  0  0  0  0  0  0  0  0  0  0  0
    0.6566   11.9257   -1.6093 H   0  0  0  0  0  0  0  0  0  0  0  0
    2.8016   11.4461   -0.2663 H   0  0  0  0  0  0  0  0  0  0  0  0
    2.0417   10.1574   -1.3389 H   0  0  0  0  0  0  0  0  0  0  0  0
    4.6693   10.3403   -1.4168 H   0  0  0  0  0  0  0  0  0  0  0  0
    3.4280   12.9855   -4.2016 H   0  0  0  0  0  0  0  0  0  0  0  0
    2.8425   10.2297   -5.4509 H   0  0  0  0  0  0  0  0  0  0  0  0
    2.5080   11.8582   -6.1909 H   0  0  0  0  0  0  0  0  0  0  0  0
    4.5302   10.7965   -7.1394 H   0  0  0  0  0  0  0  0  0  0  0  0
    4.8840   12.3429   -6.2736 H   0  0  0  0  0  0  0  0  0  0  0  0
    6.5713   10.7357   -5.7011 H   0  0  0  0  0  0  0  0  0  0  0  0
    6.0710    8.6820   -5.3310 H   0  0  0  0  0  0  0  0  0  0  0  0
    6.4216   12.8879   -2.7978 H   0  0  0  0  0  0  0  0  0  0  0  0
    7.2336   12.5040   -4.3534 H   0  0  0  0  0  0  0  0  0  0  0  0
    5.5995   13.2498   -4.3534 H   0  0  0  0  0  0  0  0  0  0  0  0
    6.3926   10.4041   -1.9160 H   0  0  0  0  0  0  0  0  0  0  0  0
    6.3764    9.1785   -3.2291 H   0  0  0  0  0  0  0  0  0  0  0  0
    7.6160   10.4785   -3.2291 H   0  0  0  0  0  0  0  0  0  0  0  0
    0.5978   10.2058   -2.9130 H   0  0  0  0  0  0  0  0  0  0  0  0
   -0.0094   10.9414   -4.4351 H   0  0  0  0  0  0  0  0  0  0  0  0
    1.5338   10.0221   -4.4351 H   0  0  0  0  0  0  0  0  0  0  0  0
    1.2477   13.2323   -5.2791 H   0  0  0  0  0  0  0  0  0  0  0  0
   -0.1729   12.9197   -4.1306 H   0  0  0  0  0  0  0  0  0  0  0  0
    2.0473   14.9581   -3.8128 H   0  0  0  0  0  0  0  0  0  0  0  0
    0.2837   15.2438   -4.0861 H   0  0  0  0  0  0  0  0  0  0  0  0
   -0.8951   14.0193   -0.8022 H   0  0  0  0  0  0  0  0  0  0  0  0
   -1.3826   14.8078   -2.3408 H   0  0  0  0  0  0  0  0  0  0  0  0
   -0.8456   13.0936   -2.3408 H   0  0  0  0  0  0  0  0  0  0  0  0
  1  2  1  0
  2  3  1  0
  3  4  1  0
  4  5  1  0
  5  6  1  0
  6  7  1  0
  7  8  1  0
  7  9  1  0
  2 10  1  0
 10 11  1  0
 11 12  1  0
 12 13  1  0
 13 14  1  1
 13 15  1  0
 15 16  1  0
 16 17  1  0
 17 18  2  0
 18 19  1  0
 19 20  1  0
 20 21  1  0
 21 22  1  0
 22 23  1  0
 22 24  1  0
 24 25  1  0
 24 26  1  0
 19 27  1  0
 27 28  1  1
 27 29  1  0
 29 30  1  0
 30 31  1  0
 31 32  1  6
  7  5  1  0
 31 10  1  0
 31 13  1  0
 27 15  1  0
 24 18  1  0
  1 33  1  0
  1 34  1  0
  1 35  1  0
  2 36  1  6
  3 37  1  0
  3 38  1  0
  4 39  1  0
  4 40  1  0
  5 41  1  1
  8 42  1  0
  8 43  1  0
  8 44  1  0
  9 45  1  0
  9 46  1  0
  9 47  1  0
 10 48  1  6
 11 49  1  0
 11 50  1  0
 12 51  1  0
 12 52  1  0
 14 53  1  0
 14 54  1  0
 14 55  1  0
 15 56  1  1
 16 57  1  0
 16 58  1  0
 17 59  1  0
 19 60  1  6
 20 61  1  0
 20 62  1  0
 21 63  1  0
 21 64  1  0
 22 65  1  6
 23 66  1  0
 25 67  1  0
 25 68  1  0
 25 69  1  0
 26 70  1  0
 26 71  1  0
 26 72  1  0
 28 73  1  0
 28 74  1  0
 28 75  1  0
 29 76  1  0
 29 77  1  0
 30 78  1  0
 30 79  1  0
 32 80  1  0
 32 81  1  0
 32 82  1  0
M  END
>  <meeko>  (10) 
{"is_sidechain": [false], "intermolecular_energy": 2.731, "internal_energy": -0.839}

$$$$
EPH_relaxed_0001_pdb2pqr_Repair_64_r2_0001_out
     RDKit          3D

 82 86  0  0  0  0  0  0  0  0999 V2000
    2.9650   18.7040   -1.5800 C   0  0  0  0  0  0  0  0  0  0  0  0
    2.4090   17.6100   -2.4960 C   0  0  2  0  0  0  0  0  0  0  0  0
    0.9410   17.8730   -2.8900 C   0  0  0  0  0  0  0  0  0  0  0  0
    0.3880   19.1950   -2.3530 C   0  0  0  0  0  0  0  0  0  0  0  0
   -0.9050   18.9980   -1.6200 C   0  0  2  0  0  0  0  0  0  0  0  0
   -1.4650   20.1940   -1.0610 O   0  0  0  0  0  0  0  0  0  0  0  0
   -1.0550   19.1870   -0.1220 C   0  0  0  0  0  0  0  0  0  0  0  0
    0.1050   19.5900    0.7340 C   0  0  0  0  0  0  0  0  0  0  0  0
   -2.1950   18.5120    0.5740 C   0  0  0  0  0  0  0  0  0  0  0  0
    2.5300   16.2510   -1.8150 C   0  0  1  0  0  0  0  0  0  0  0  0
    3.1320   16.3500   -0.3880 C   0  0  0  0  0  0  0  0  0  0  0  0
    2.4360   15.2590    0.4670 C   0  0  0  0  0  0  0  0  0  0  0  0
    1.7100   14.3610   -0.5630 C   0  0  1  0  0  0  0  0  0  0  0  0
    2.8150   13.4050   -1.1100 C   0  0  0  0  0  0  0  0  0  0  0  0
    0.4700   13.5680   -0.0350 C   0  0  2  0  0  0  0  0  0  0  0  0
    0.7730   12.5470    1.0760 C   0  0  0  0  0  0  0  0  0  0  0  0
    1.1000   11.1690    0.6030 C   0  0  0  0  0  0  0  0  0  0  0  0
    0.8740   10.6930   -0.6350 C   0  0  0  0  0  0  0  0  0  0  0  0
    0.1410   11.5400   -1.6830 C   0  0  1  0  0  0  0  0  0  0  0  0
   -0.9420   10.6760   -2.3820 C   0  0  0  0  0  0  0  0  0  0  0  0
   -0.3730    9.3870   -2.9680 C   0  0  0  0  0  0  0  0  0  0  0  0
    0.2970    8.5450   -1.8850 C   0  0  2  0  0  0  0  0  0  0  0  0
   -0.7050    8.0850   -0.9730 O   0  0  0  0  0  0  0  0  0  0  0  0
    1.4000    9.3140   -1.1050 C   0  0  0  0  0  0  0  0  0  0  0  0
    2.6220    9.5480   -2.0280 C   0  0  0  0  0  0  0  0  0  0  0  0
    1.8950    8.4000    0.0480 C   0  0  0  0  0  0  0  0  0  0  0  0
   -0.4270   12.9340   -1.1740 C   0  0  1  0  0  0  0  0  0  0  0  0
   -1.8490   12.7400   -0.5650 C   0  0  0  0  0  0  0  0  0  0  0  0
   -0.6000   13.9000   -2.4060 C   0  0  0  0  0  0  0  0  0  0  0  0
    0.6250   14.7450   -2.8040 C   0  0  0  0  0  0  0  0  0  0  0  0
    1.2230   15.4520   -1.5840 C   0  0  2  0  0  0  0  0  0  0  0  0
    0.1410   16.4380   -1.0250 C   0  0  0  0  0  0  0  0  0  0  0  0
    2.8171   18.4129   -0.5296 H   0  0  0  0  0  0  0  0  0  0  0  0
    4.0393   18.8355   -1.7762 H   0  0  0  0  0  0  0  0  0  0  0  0
    2.4380   19.6494   -1.7762 H   0  0  0  0  0  0  0  0  0  0  0  0
    3.0053   17.6174   -3.4203 H   0  0  0  0  0  0  0  0  0  0  0  0
    0.8734   17.8885   -3.9878 H   0  0  0  0  0  0  0  0  0  0  0  0
    0.3389   17.0676   -2.4441 H   0  0  0  0  0  0  0  0  0  0  0  0
    1.1242   19.6362   -1.6650 H   0  0  0  0  0  0  0  0  0  0  0  0
    0.1995   19.8606   -3.2082 H   0  0  0  0  0  0  0  0  0  0  0  0
   -1.1871   18.1738   -2.2916 H   0  0  0  0  0  0  0  0  0  0  0  0
   -0.1711   19.4941    1.7945 H   0  0  0  0  0  0  0  0  0  0  0  0
    0.9640   18.9376    0.5183 H   0  0  0  0  0  0  0  0  0  0  0  0
    0.3745   20.6344    0.5183 H   0  0  0  0  0  0  0  0  0  0  0  0
   -2.0593   18.5924    1.6626 H   0  0  0  0  0  0  0  0  0  0  0  0
   -3.1394   18.9966    0.2855 H   0  0  0  0  0  0  0  0  0  0  0  0
   -2.2242   17.4509    0.2855 H   0  0  0  0  0  0  0  0  0  0  0  0
    3.1625   15.7318   -2.5502 H   0  0  0  0  0  0  0  0  0  0  0  0
    4.2168   16.1708   -0.4211 H   0  0  0  0  0  0  0  0  0  0  0  0
    2.9712   17.3503    0.0404 H   0  0  0  0  0  0  0  0  0  0  0  0
    3.1780   14.6779    1.0342 H   0  0  0  0  0  0  0  0  0  0  0  0
    1.7449   15.6872    1.2080 H   0  0  0  0  0  0  0  0  0  0  0  0
    3.3497   12.9424   -0.2673 H   0  0  0  0  0  0  0  0  0  0  0  0
    2.3496   12.6200   -1.7242 H   0  0  0  0  0  0  0  0  0  0  0  0
    3.5248   13.9785   -1.7242 H   0  0  0  0  0  0  0  0  0  0  0  0
   -0.1298   14.3578    0.4409 H   0  0  0  0  0  0  0  0  0  0  0  0
    1.6302   12.9198    1.6559 H   0  0  0  0  0  0  0  0  0  0  0  0
   -0.1510   12.4554    1.6658 H   0  0  0  0  0  0  0  0  0  0  0  0
    1.5651   10.4850    1.3282 H   0  0  0  0  0  0  0  0  0  0  0  0
    0.9041   11.8461   -2.4138 H   0  0  0  0  0  0  0  0  0  0  0  0
   -1.7163   10.4167   -1.6449 H   0  0  0  0  0  0  0  0  0  0  0  0
   -1.3558   11.2666   -3.2127 H   0  0  0  0  0  0  0  0  0  0  0  0
   -1.1898    8.8064   -3.4217 H   0  0  0  0  0  0  0  0  0  0  0  0
    0.3801    9.6482   -3.7260 H   0  0  0  0  0  0  0  0  0  0  0  0
    0.7966    7.7021   -2.3849 H   0  0  0  0  0  0  0  0  0  0  0  0
   -1.5660    8.1590   -1.4190 H   0  0  0  0  0  0  0  0  0  0  0  0
    3.5181    9.7196   -1.4135 H   0  0  0  0  0  0  0  0  0  0  0  0
    2.7767    8.6632   -2.6629 H   0  0  0  0  0  0  0  0  0  0  0  0
    2.4389   10.4274   -2.6629 H   0  0  0  0  0  0  0  0  0  0  0  0
    1.6451    8.8614    1.0148 H   0  0  0  0  0  0  0  0  0  0  0  0
    1.4056    7.4177   -0.0269 H   0  0  0  0  0  0  0  0  0  0  0  0
    2.9851    8.2732   -0.0269 H   0  0  0  0  0  0  0  0  0  0  0  0
   -1.7820   12.7491    0.5329 H   0  0  0  0  0  0  0  0  0  0  0  0
   -2.5055   13.5569   -0.8991 H   0  0  0  0  0  0  0  0  0  0  0  0
   -2.2627   11.7771   -0.8991 H   0  0  0  0  0  0  0  0  0  0  0  0
   -0.8763   13.2847   -3.2750 H   0  0  0  0  0  0  0  0  0  0  0  0
   -1.3633   14.6286   -2.0953 H   0  0  0  0  0  0  0  0  0  0  0  0
    1.3868   14.0874   -3.2481 H   0  0  0  0  0  0  0  0  0  0  0  0
    0.3045   15.5075   -3.5292 H   0  0  0  0  0  0  0  0  0  0  0  0
    0.1613   16.4195    0.0747 H   0  0  0  0  0  0  0  0  0  0  0  0
    0.3560   17.4572   -1.3786 H   0  0  0  0  0  0  0  0  0  0  0  0
   -0.8539   16.1295   -1.3786 H   0  0  0  0  0  0  0  0  0  0  0  0
  1  2  1  0
  2  3  1  0
  3  4  1  0
  4  5  1  0
  5  6  1  0
  6  7  1  0
  7  8  1  0
  7  9  1  0
  2 10  1  0
 10 11  1  0
 11 12  1  0
 12 13  1  0
 13 14  1  6
 13 15  1  0
 15 16  1  0
 16 17  1  0
 17 18  2  0
 18 19  1  0
 19 20  1  0
 20 21  1  0
 21 22  1  0
 22 23  1  0
 22 24  1  0
 24 25  1  0
 24 26  1  0
 19 27  1  0
 27 28  1  1
 27 29  1  0
 29 30  1  0
 30 31  1  0
 31 32  1  1
  7  5  1  0
 31 10  1  0
 31 13  1  0
 27 15  1  0
 24 18  1  0
  1 33  1  0
  1 34  1  0
  1 35  1  0
  2 36  1  6
  3 37  1  0
  3 38  1  0
  4 39  1  0
  4 40  1  0
  5 41  1  6
  8 42  1  0
  8 43  1  0
  8 44  1  0
  9 45  1  0
  9 46  1  0
  9 47  1  0
 10 48  1  6
 11 49  1  0
 11 50  1  0
 12 51  1  0
 12 52  1  0
 14 53  1  0
 14 54  1  0
 14 55  1  0
 15 56  1  1
 16 57  1  0
 16 58  1  0
 17 59  1  0
 19 60  1  6
 20 61  1  0
 20 62  1  0
 21 63  1  0
 21 64  1  0
 22 65  1  6
 23 66  1  0
 25 67  1  0
 25 68  1  0
 25 69  1  0
 26 70  1  0
 26 71  1  0
 26 72  1  0
 28 73  1  0
 28 74  1  0
 28 75  1  0
 29 76  1  0
 29 77  1  0
 30 78  1  0
 30 79  1  0
 32 80  1  0
 32 81  1  0
 32 82  1  0
M  END
>  <meeko>  (11) 
{"is_sidechain": [false], "intermolecular_energy": 2.731, "internal_energy": -0.839}

$$$$
EPH_relaxed_0001_pdb2pqr_Repair_64_r2_0001_out
     RDKit          3D

 82 86  0  0  0  0  0  0  0  0999 V2000
   -5.2120    5.7600   -1.9530 C   0  0  0  0  0  0  0  0  0  0  0  0
   -5.5090    7.2620   -1.9620 C   0  0  2  0  0  0  0  0  0  0  0  0
   -5.2590    7.9120   -0.5870 C   0  0  0  0  0  0  0  0  0  0  0  0
   -4.2390    9.0530   -0.6210 C   0  0  0  0  0  0  0  0  0  0  0  0
   -2.9250    8.6050   -1.1840 C   0  0  2  0  0  0  0  0  0  0  0  0
   -1.8330    8.6370   -0.2550 O   0  0  0  0  0  0  0  0  0  0  0  0
   -1.7380    9.5310   -1.3760 C   0  0  0  0  0  0  0  0  0  0  0  0
   -1.8100   10.9790   -1.0070 C   0  0  0  0  0  0  0  0  0  0  0  0
   -0.6830    9.1450   -2.3660 C   0  0  0  0  0  0  0  0  0  0  0  0
   -6.9490    7.5050   -2.4000 C   0  0  1  0  0  0  0  0  0  0  0  0
   -7.2870    6.8180   -3.7500 C   0  0  0  0  0  0  0  0  0  0  0  0
   -8.7650    6.3600   -3.6610 C   0  0  0  0  0  0  0  0  0  0  0  0
   -9.3230    7.0810   -2.4120 C   0  0  1  0  0  0  0  0  0  0  0  0
   -9.6680    8.5220   -2.9020 C   0  0  0  0  0  0  0  0  0  0  0  0
  -10.5430    6.4020   -1.7090 C   0  0  2  0  0  0  0  0  0  0  0  0
  -11.8140    6.2930   -2.5700 C   0  0  0  0  0  0  0  0  0  0  0  0
  -12.7550    7.4480   -2.4670 C   0  0  0  0  0  0  0  0  0  0  0  0
  -12.7320    8.3920   -1.5080 C   0  0  0  0  0  0  0  0  0  0  0  0
  -11.7480    8.3000   -0.3350 C   0  0  1  0  0  0  0  0  0  0  0  0
  -12.4980    8.5810    0.9930 C   0  0  0  0  0  0  0  0  0  0  0  0
  -13.2550    9.9060    0.9690 C   0  0  0  0  0  0  0  0  0  0  0  0
  -14.2650    9.9360   -0.1750 C   0  0  2  0  0  0  0  0  0  0  0  0
  -15.2870    8.9700    0.0880 O   0  0  0  0  0  0  0  0  0  0  0  0
  -13.6260    9.6560   -1.5640 C   0  0  0  0  0  0  0  0  0  0  0  0
  -12.7420   10.8570   -1.9820 C   0  0  0  0  0  0  0  0  0  0  0  0
  -14.7710    9.5750   -2.6090 C   0  0  0  0  0  0  0  0  0  0  0  0
  -10.8670    6.9790   -0.2710 C   0  0  1  0  0  0  0  0  0  0  0  0
  -11.6390    5.8610    0.4940 C   0  0  0  0  0  0  0  0  0  0  0  0
   -9.5640    7.2700    0.5640 C   0  0  0  0  0  0  0  0  0  0  0  0
   -8.3530    7.8280   -0.2090 C   0  0  0  0  0  0  0  0  0  0  0  0
   -8.0720    6.9940   -1.4630 C   0  0  2  0  0  0  0  0  0  0  0  0
   -7.7000    5.5440   -1.0000 C   0  0  0  0  0  0  0  0  0  0  0  0
   -5.1421    5.4063   -0.9138 H   0  0  0  0  0  0  0  0  0  0  0  0
   -6.0214    5.2231   -2.4694 H   0  0  0  0  0  0  0  0  0  0  0  0
   -4.2592    5.5715   -2.4694 H   0  0  0  0  0  0  0  0  0  0  0  0
   -4.8187    7.7312   -2.6785 H   0  0  0  0  0  0  0  0  0  0  0  0
   -6.2135    8.3107   -0.2129 H   0  0  0  0  0  0  0  0  0  0  0  0
   -4.8448    7.1305    0.0670 H   0  0  0  0  0  0  0  0  0  0  0  0
   -4.6355    9.8671   -1.2456 H   0  0  0  0  0  0  0  0  0  0  0  0
   -4.0714    9.3940    0.4113 H   0  0  0  0  0  0  0  0  0  0  0  0
   -3.4289    7.9007   -1.8623 H   0  0  0  0  0  0  0  0  0  0  0  0
   -1.8149   11.0784    0.0885 H   0  0  0  0  0  0  0  0  0  0  0  0
   -0.9370   11.5062   -1.4191 H   0  0  0  0  0  0  0  0  0  0  0  0
   -2.7310   11.4170   -1.4191 H   0  0  0  0  0  0  0  0  0  0  0  0
    0.2193    8.8149   -1.8303 H   0  0  0  0  0  0  0  0  0  0  0  0
   -1.0552    8.3248   -2.9975 H   0  0  0  0  0  0  0  0  0  0  0  0
   -0.4380   10.0117   -2.9975 H   0  0  0  0  0  0  0  0  0  0  0  0
   -6.9512    8.6047   -2.4262 H   0  0  0  0  0  0  0  0  0  0  0  0
   -7.1602    7.5295   -4.5793 H   0  0  0  0  0  0  0  0  0  0  0  0
   -6.6194    5.9639   -3.9365 H   0  0  0  0  0  0  0  0  0  0  0  0
   -9.3193    6.6600   -4.5625 H   0  0  0  0  0  0  0  0  0  0  0  0
   -8.8589    5.2665   -3.5878 H   0  0  0  0  0  0  0  0  0  0  0  0
   -9.8249    9.1772   -2.0325 H   0  0  0  0  0  0  0  0  0  0  0  0
   -8.8377    8.9113   -3.5094 H   0  0  0  0  0  0  0  0  0  0  0  0
  -10.5846    8.4931   -3.5094 H   0  0  0  0  0  0  0  0  0  0  0  0
  -10.1887    5.3705   -1.5663 H   0  0  0  0  0  0  0  0  0  0  0  0
  -11.5052    6.1989   -3.6216 H   0  0  0  0  0  0  0  0  0  0  0  0
  -12.3634    5.4181   -2.1923 H   0  0  0  0  0  0  0  0  0  0  0  0
  -13.5326    7.5345   -3.2402 H   0  0  0  0  0  0  0  0  0  0  0  0
  -10.9929    9.0807   -0.5094 H   0  0  0  0  0  0  0  0  0  0  0  0
  -13.2167    7.7675    1.1709 H   0  0  0  0  0  0  0  0  0  0  0  0
  -11.7468    8.6403    1.7944 H   0  0  0  0  0  0  0  0  0  0  0  0
  -13.7876   10.0338    1.9230 H   0  0  0  0  0  0  0  0  0  0  0  0
  -12.5316   10.7212    0.8204 H   0  0  0  0  0  0  0  0  0  0  0  0
  -14.6816   10.9530   -0.2212 H   0  0  0  0  0  0  0  0  0  0  0  0
  -16.0750    9.4510    0.3920 H   0  0  0  0  0  0  0  0  0  0  0  0
  -12.3668   11.3668   -1.0824 H   0  0  0  0  0  0  0  0  0  0  0  0
  -11.8923   10.4962   -2.5803 H   0  0  0  0  0  0  0  0  0  0  0  0
  -13.3390   11.5610   -2.5803 H   0  0  0  0  0  0  0  0  0  0  0  0
  -15.7379    9.5066   -2.0889 H   0  0  0  0  0  0  0  0  0  0  0  0
  -14.7566   10.4764   -3.2393 H   0  0  0  0  0  0  0  0  0  0  0  0
  -14.6299    8.6846   -3.2393 H   0  0  0  0  0  0  0  0  0  0  0  0
  -11.5314    6.0168    1.5776 H   0  0  0  0  0  0  0  0  0  0  0  0
  -12.7042    5.8991    0.2221 H   0  0  0  0  0  0  0  0  0  0  0  0
  -11.2260    4.8784    0.2221 H   0  0  0  0  0  0  0  0  0  0  0  0
   -9.8252    7.9995    1.3448 H   0  0  0  0  0  0  0  0  0  0  0  0
   -9.2381    6.2889    0.9399 H   0  0  0  0  0  0  0  0  0  0  0  0
   -8.5631    8.8659   -0.5066 H   0  0  0  0  0  0  0  0  0  0  0  0
   -7.4697    7.7867    0.4452 H   0  0  0  0  0  0  0  0  0  0  0  0
   -7.6891    5.5015    0.0991 H   0  0  0  0  0  0  0  0  0  0  0  0
   -8.4448    4.8331   -1.3870 H   0  0  0  0  0  0  0  0  0  0  0  0
   -6.7049    5.2795   -1.3870 H   0  0  0  0  0  0  0  0  0  0  0  0
  1  2  1  0
  2  3  1  0
  3  4  1  0
  4  5  1  0
  5  6  1  0
  6  7  1  0
  7  8  1  0
  7  9  1  0
  2 10  1  0
 10 11  1  0
 11 12  1  0
 12 13  1  0
 13 14  1  6
 13 15  1  0
 15 16  1  0
 16 17  1  0
 17 18  2  0
 18 19  1  0
 19 20  1  0
 20 21  1  0
 21 22  1  0
 22 23  1  0
 22 24  1  0
 24 25  1  0
 24 26  1  0
 19 27  1  0
 27 28  1  1
 27 29  1  0
 29 30  1  0
 30 31  1  0
 31 32  1  1
  7  5  1  0
 31 10  1  0
 31 13  1  0
 27 15  1  0
 24 18  1  0
  1 33  1  0
  1 34  1  0
  1 35  1  0
  2 36  1  6
  3 37  1  0
  3 38  1  0
  4 39  1  0
  4 40  1  0
  5 41  1  6
  8 42  1  0
  8 43  1  0
  8 44  1  0
  9 45  1  0
  9 46  1  0
  9 47  1  0
 10 48  1  6
 11 49  1  0
 11 50  1  0
 12 51  1  0
 12 52  1  0
 14 53  1  0
 14 54  1  0
 14 55  1  0
 15 56  1  1
 16 57  1  0
 16 58  1  0
 17 59  1  0
 19 60  1  6
 20 61  1  0
 20 62  1  0
 21 63  1  0
 21 64  1  0
 22 65  1  6
 23 66  1  0
 25 67  1  0
 25 68  1  0
 25 69  1  0
 26 70  1  0
 26 71  1  0
 26 72  1  0
 28 73  1  0
 28 74  1  0
 28 75  1  0
 29 76  1  0
 29 77  1  0
 30 78  1  0
 30 79  1  0
 32 80  1  0
 32 81  1  0
 32 82  1  0
M  END
>  <meeko>  (12) 
{"is_sidechain": [false], "intermolecular_energy": 2.731, "internal_energy": -0.839}

$$$$
EPH_relaxed_0001_pdb2pqr_Repair_64_r2_0001_out
     RDKit          3D

 82 86  0  0  0  0  0  0  0  0999 V2000
   -0.0310    9.3170   -2.1830 C   0  0  0  0  0  0  0  0  0  0  0  0
    1.0490   10.2940   -2.6570 C   0  0  2  0  0  0  0  0  0  0  0  0
    2.4400    9.6330   -2.7280 C   0  0  0  0  0  0  0  0  0  0  0  0
    3.3550   10.2360   -3.7970 C   0  0  0  0  0  0  0  0  0  0  0  0
    4.7340   10.4900   -3.2680 C   0  0  2  0  0  0  0  0  0  0  0  0
    5.2490   11.7990   -3.5430 O   0  0  0  0  0  0  0  0  0  0  0  0
    5.9450   10.7020   -4.1570 C   0  0  0  0  0  0  0  0  0  0  0  0
    5.8340   10.6680   -5.6490 C   0  0  0  0  0  0  0  0  0  0  0  0
    7.3060   10.4540   -3.5830 C   0  0  0  0  0  0  0  0  0  0  0  0
    1.0950   11.5060   -1.7330 C   0  0  1  0  0  0  0  0  0  0  0  0
    2.1800   11.3760   -0.6310 C   0  0  0  0  0  0  0  0  0  0  0  0
    2.7410   12.8000   -0.3850 C   0  0  0  0  0  0  0  0  0  0  0  0
    1.7450   13.7410   -1.1020 C   0  0  1  0  0  0  0  0  0  0  0  0
    0.5550   13.9010   -0.1040 C   0  0  0  0  0  0  0  0  0  0  0  0
    2.3080   15.1270   -1.5560 C   0  0  2  0  0  0  0  0  0  0  0  0
    2.7950   16.0380   -0.4160 C   0  0  0  0  0  0  0  0  0  0  0  0
    1.7650   16.9580    0.1500 C   0  0  0  0  0  0  0  0  0  0  0  0
    0.5830   17.2550   -0.4210 C   0  0  0  0  0  0  0  0  0  0  0  0
    0.2230   16.7170   -1.8130 C   0  0  1  0  0  0  0  0  0  0  0  0
   -0.3580   17.8670   -2.6770 C   0  0  0  0  0  0  0  0  0  0  0  0
   -1.5320   18.5700   -2.0030 C   0  0  0  0  0  0  0  0  0  0  0  0
   -1.1200   19.1410   -0.6480 C   0  0  2  0  0  0  0  0  0  0  0  0
   -0.1740   20.1940   -0.8600 O   0  0  0  0  0  0  0  0  0  0  0  0
   -0.5100   18.0760    0.3060 C   0  0  0  0  0  0  0  0  0  0  0  0
   -1.6190   17.1030    0.7750 C   0  0  0  0  0  0  0  0  0  0  0  0
   -0.0080   18.8080    1.5800 C   0  0  0  0  0  0  0  0  0  0  0  0
    1.3690   15.9100   -2.5610 C   0  0  1  0  0  0  0  0  0  0  0  0
    2.2850   16.8950   -3.3500 C   0  0  0  0  0  0  0  0  0  0  0  0
    0.7140   14.9590   -3.6320 C   0  0  0  0  0  0  0  0  0  0  0  0
    0.2870   13.5600   -3.1490 C   0  0  0  0  0  0  0  0  0  0  0  0
    1.4200   12.8780   -2.3750 C   0  0  2  0  0  0  0  0  0  0  0  0
    2.6230   12.6830   -3.3600 C   0  0  0  0  0  0  0  0  0  0  0  0
   -0.0515    9.2984   -1.0833 H   0  0  0  0  0  0  0  0  0  0  0  0
   -1.0111    9.6415   -2.5626 H   0  0  0  0  0  0  0  0  0  0  0  0
    0.1939    8.3094   -2.5626 H   0  0  0  0  0  0  0  0  0  0  0  0
    0.7827   10.6124   -3.6757 H   0  0  0  0  0  0  0  0  0  0  0  0
    2.9285    9.7462   -1.7489 H   0  0  0  0  0  0  0  0  0  0  0  0
    2.2811    8.5788   -2.9989 H   0  0  0  0  0  0  0  0  0  0  0  0
    3.4214    9.5378   -4.6444 H   0  0  0  0  0  0  0  0  0  0  0  0
    2.9260   11.1988   -4.1118 H   0  0  0  0  0  0  0  0  0  0  0  0
    4.5545    9.8218   -2.4128 H   0  0  0  0  0  0  0  0  0  0  0  0
    4.8182   10.3569   -5.9341 H   0  0  0  0  0  0  0  0  0  0  0  0
    6.0381   11.6698   -6.0548 H   0  0  0  0  0  0  0  0  0  0  0  0
    6.5642    9.9523   -6.0548 H   0  0  0  0  0  0  0  0  0  0  0  0
    7.2482   10.4645   -2.4846 H   0  0  0  0  0  0  0  0  0  0  0  0
    7.6737    9.4741   -3.9214 H   0  0  0  0  0  0  0  0  0  0  0  0
    7.9957   11.2413   -3.9214 H   0  0  0  0  0  0  0  0  0  0  0  0
    0.0578   11.4978   -1.3667 H   0  0  0  0  0  0  0  0  0  0  0  0
    1.7352   10.9792    0.2935 H   0  0  0  0  0  0  0  0  0  0  0  0
    2.9779   10.6856   -0.9420 H   0  0  0  0  0  0  0  0  0  0  0  0
    2.7785   13.0219    0.6917 H   0  0  0  0  0  0  0  0  0  0  0  0
    3.7681   12.9145   -0.7618 H   0  0  0  0  0  0  0  0  0  0  0  0
    0.9325   13.8502    0.9279 H   0  0  0  0  0  0  0  0  0  0  0  0
    0.0667   14.8729   -0.2684 H   0  0  0  0  0  0  0  0  0  0  0  0
   -0.1726   13.0926   -0.2684 H   0  0  0  0  0  0  0  0  0  0  0  0
    3.2102   14.8432   -2.1176 H   0  0  0  0  0  0  0  0  0  0  0  0
    3.1618   15.3963    0.3986 H   0  0  0  0  0  0  0  0  0  0  0  0
    3.5716   16.6830   -0.8529 H   0  0  0  0  0  0  0  0  0  0  0  0
    1.9911   17.4336    1.1157 H   0  0  0  0  0  0  0  0  0  0  0  0
   -0.5449   15.9458   -1.6531 H   0  0  0  0  0  0  0  0  0  0  0  0
    0.4363   18.6053   -2.8613 H   0  0  0  0  0  0  0  0  0  0  0  0
   -0.7269   17.4261   -3.6148 H   0  0  0  0  0  0  0  0  0  0  0  0
   -1.8797   19.3899   -2.6487 H   0  0  0  0  0  0  0  0  0  0  0  0
   -2.3371   17.8372   -1.8455 H   0  0  0  0  0  0  0  0  0  0  0  0
   -2.0304   19.5167   -0.1580 H   0  0  0  0  0  0  0  0  0  0  0  0
    0.4920   19.8690   -1.4890 H   0  0  0  0  0  0  0  0  0  0  0  0
   -1.6455   17.0798    1.8744 H   0  0  0  0  0  0  0  0  0  0  0  0
   -2.5921   17.4441    0.3919 H   0  0  0  0  0  0  0  0  0  0  0  0
   -1.4074   16.0938    0.3919 H   0  0  0  0  0  0  0  0  0  0  0  0
   -0.3707   18.2791    2.4737 H   0  0  0  0  0  0  0  0  0  0  0  0
    1.0919   18.8238    1.5844 H   0  0  0  0  0  0  0  0  0  0  0  0
   -0.3895   19.8397    1.5844 H   0  0  0  0  0  0  0  0  0  0  0  0
    2.8577   17.5108   -2.6410 H   0  0  0  0  0  0  0  0  0  0  0  0
    2.9794   16.3228   -3.9828 H   0  0  0  0  0  0  0  0  0  0  0  0
    1.6640   17.5461   -3.9828 H   0  0  0  0  0  0  0  0  0  0  0  0
   -0.1818   15.4642   -4.0223 H   0  0  0  0  0  0  0  0  0  0  0  0
    1.5025   14.7782   -4.3774 H   0  0  0  0  0  0  0  0  0  0  0  0
   -0.5896   13.6582   -2.4918 H   0  0  0  0  0  0  0  0  0  0  0  0
    0.0424   12.9450   -4.0276 H   0  0  0  0  0  0  0  0  0  0  0  0
    3.5480   12.5331   -2.7839 H   0  0  0  0  0  0  0  0  0  0  0  0
    2.4390   11.8030   -3.9938 H   0  0  0  0  0  0  0  0  0  0  0  0
    2.7265   13.5761   -3.9938 H   0  0  0  0  0  0  0  0  0  0  0  0
  1  2  1  0
  2  3  1  0
  3  4  1  0
  4  5  1  0
  5  6  1  0
  6  7  1  0
  7  8  1  0
  7  9  1  0
  2 10  1  0
 10 11  1  0
 11 12  1  0
 12 13  1  0
 13 14  1  1
 13 15  1  0
 15 16  1  0
 16 17  1  0
 17 18  2  0
 18 19  1  0
 19 20  1  0
 20 21  1  0
 21 22  1  0
 22 23  1  0
 22 24  1  0
 24 25  1  0
 24 26  1  0
 19 27  1  0
 27 28  1  6
 27 29  1  0
 29 30  1  0
 30 31  1  0
 31 32  1  6
  7  5  1  0
 31 10  1  0
 31 13  1  0
 27 15  1  0
 24 18  1  0
  1 33  1  0
  1 34  1  0
  1 35  1  0
  2 36  1  6
  3 37  1  0
  3 38  1  0
  4 39  1  0
  4 40  1  0
  5 41  1  1
  8 42  1  0
  8 43  1  0
  8 44  1  0
  9 45  1  0
  9 46  1  0
  9 47  1  0
 10 48  1  1
 11 49  1  0
 11 50  1  0
 12 51  1  0
 12 52  1  0
 14 53  1  0
 14 54  1  0
 14 55  1  0
 15 56  1  6
 16 57  1  0
 16 58  1  0
 17 59  1  0
 19 60  1  1
 20 61  1  0
 20 62  1  0
 21 63  1  0
 21 64  1  0
 22 65  1  1
 23 66  1  0
 25 67  1  0
 25 68  1  0
 25 69  1  0
 26 70  1  0
 26 71  1  0
 26 72  1  0
 28 73  1  0
 28 74  1  0
 28 75  1  0
 29 76  1  0
 29 77  1  0
 30 78  1  0
 30 79  1  0
 32 80  1  0
 32 81  1  0
 32 82  1  0
M  END
>  <meeko>  (13) 
{"is_sidechain": [false], "intermolecular_energy": 2.731, "internal_energy": -0.839}

$$$$
EPH_relaxed_0001_pdb2pqr_Repair_64_r2_0001_out
     RDKit          3D

 82 86  0  0  0  0  0  0  0  0999 V2000
   -0.1930   19.0040   -2.7640 C   0  0  0  0  0  0  0  0  0  0  0  0
    0.3880   18.3730   -1.4960 C   0  0  2  0  0  0  0  0  0  0  0  0
    1.4910   19.2470   -0.8650 C   0  0  0  0  0  0  0  0  0  0  0  0
    1.2940   19.5010    0.6320 C   0  0  0  0  0  0  0  0  0  0  0  0
    2.4790   20.1900    1.2380 C   0  0  2  0  0  0  0  0  0  0  0  0
    3.6550   20.1900    0.4190 O   0  0  0  0  0  0  0  0  0  0  0  0
    3.7450   19.4650    1.6560 C   0  0  0  0  0  0  0  0  0  0  0  0
    3.8890   17.9850    1.4850 C   0  0  0  0  0  0  0  0  0  0  0  0
    4.6380   20.1100    2.6700 C   0  0  0  0  0  0  0  0  0  0  0  0
    0.9390   16.9870   -1.8100 C   0  0  1  0  0  0  0  0  0  0  0  0
    2.4750   16.9900   -2.0320 C   0  0  0  0  0  0  0  0  0  0  0  0
    3.0110   15.6490   -1.4690 C   0  0  0  0  0  0  0  0  0  0  0  0
    1.7460   14.7850   -1.2490 C   0  0  1  0  0  0  0  0  0  0  0  0
    1.4070   14.2040   -2.6580 C   0  0  0  0  0  0  0  0  0  0  0  0
    1.8580   13.6580   -0.1720 C   0  0  2  0  0  0  0  0  0  0  0  0
    2.9020   12.5690   -0.4730 C   0  0  0  0  0  0  0  0  0  0  0  0
    2.3950   11.3940   -1.2430 C   0  0  0  0  0  0  0  0  0  0  0  0
    1.0980   11.0830   -1.4300 C   0  0  0  0  0  0  0  0  0  0  0  0
   -0.0130   11.8970   -0.7550 C   0  0  1  0  0  0  0  0  0  0  0  0
   -1.0470   10.9330   -0.1170 C   0  0  0  0  0  0  0  0  0  0  0  0
   -1.5930    9.9170   -1.1160 C   0  0  0  0  0  0  0  0  0  0  0  0
   -0.4640    9.0870   -1.7220 C   0  0  2  0  0  0  0  0  0  0  0  0
    0.1120    8.2730   -0.6960 O   0  0  0  0  0  0  0  0  0  0  0  0
    0.6440    9.9520   -2.3850 C   0  0  0  0  0  0  0  0  0  0  0  0
    0.0920   10.6020   -3.6790 C   0  0  0  0  0  0  0  0  0  0  0  0
    1.7880    9.0030   -2.8310 C   0  0  0  0  0  0  0  0  0  0  0  0
    0.4710   13.0270    0.2530 C   0  0  1  0  0  0  0  0  0  0  0  0
    0.6740   12.4200    1.6750 C   0  0  0  0  0  0  0  0  0  0  0  0
   -0.6620   14.1120    0.3910 C   0  0  0  0  0  0  0  0  0  0  0  0
   -0.6480   15.2650   -0.6300 C   0  0  0  0  0  0  0  0  0  0  0  0
    0.7480   15.8860   -0.7370 C   0  0  2  0  0  0  0  0  0  0  0  0
    1.1070   16.4990    0.6600 C   0  0  0  0  0  0  0  0  0  0  0  0
   -0.9140   19.7871   -2.4866 H   0  0  0  0  0  0  0  0  0  0  0  0
    0.6195   19.4475   -3.3582 H   0  0  0  0  0  0  0  0  0  0  0  0
   -0.7020   18.2308   -3.3582 H   0  0  0  0  0  0  0  0  0  0  0  0
   -0.4287   18.2915   -0.7636 H   0  0  0  0  0  0  0  0  0  0  0  0
    2.4579   18.7422   -1.0073 H   0  0  0  0  0  0  0  0  0  0  0  0
    1.4509   20.2259   -1.3651 H   0  0  0  0  0  0  0  0  0  0  0  0
    0.4042   20.1324    0.7724 H   0  0  0  0  0  0  0  0  0  0  0  0
    1.1702   18.5287    1.1314 H   0  0  0  0  0  0  0  0  0  0  0  0
    1.8256   20.8989    1.7676 H   0  0  0  0  0  0  0  0  0  0  0  0
    3.9357   17.5045    2.4734 H   0  0  0  0  0  0  0  0  0  0  0  0
    3.0246   17.5944    0.9280 H   0  0  0  0  0  0  0  0  0  0  0  0
    4.8125   17.7684    0.9280 H   0  0  0  0  0  0  0  0  0  0  0  0
    4.2873   19.8567    3.6814 H   0  0  0  0  0  0  0  0  0  0  0  0
    5.6673   19.7455    2.5368 H   0  0  0  0  0  0  0  0  0  0  0  0
    4.6155   21.2017    2.5368 H   0  0  0  0  0  0  0  0  0  0  0  0
    0.3422   16.7499   -2.7031 H   0  0  0  0  0  0  0  0  0  0  0  0
    2.7024   17.0680   -3.1054 H   0  0  0  0  0  0  0  0  0  0  0  0
    2.9453   17.8465   -1.5268 H   0  0  0  0  0  0  0  0  0  0  0  0
    3.6890   15.1685   -2.1897 H   0  0  0  0  0  0  0  0  0  0  0  0
    3.5888   15.7863   -0.5431 H   0  0  0  0  0  0  0  0  0  0  0  0
    0.8557   13.2592   -2.5421 H   0  0  0  0  0  0  0  0  0  0  0  0
    0.7875   14.9244   -3.2123 H   0  0  0  0  0  0  0  0  0  0  0  0
    2.3390   14.0191   -3.2123 H   0  0  0  0  0  0  0  0  0  0  0  0
    2.2407   14.2052    0.7021 H   0  0  0  0  0  0  0  0  0  0  0  0
    3.7159   13.0294   -1.0523 H   0  0  0  0  0  0  0  0  0  0  0  0
    3.2229   12.1772    0.5035 H   0  0  0  0  0  0  0  0  0  0  0  0
    3.1435   10.7268   -1.6952 H   0  0  0  0  0  0  0  0  0  0  0  0
   -0.4917   12.4805   -1.5552 H   0  0  0  0  0  0  0  0  0  0  0  0
   -0.5616   10.3908    0.7079 H   0  0  0  0  0  0  0  0  0  0  0  0
   -1.8930   11.5389    0.2396 H   0  0  0  0  0  0  0  0  0  0  0  0
   -2.2958    9.2464   -0.5998 H   0  0  0  0  0  0  0  0  0  0  0  0
   -2.1034   10.4597   -1.9254 H   0  0  0  0  0  0  0  0  0  0  0  0
   -0.9009    8.4697   -2.5208 H   0  0  0  0  0  0  0  0  0  0  0  0
    1.0770    8.3760   -0.7450 H   0  0  0  0  0  0  0  0  0  0  0  0
   -0.5991   11.4158   -3.4145 H   0  0  0  0  0  0  0  0  0  0  0  0
    0.9263   11.0071   -4.2705 H   0  0  0  0  0  0  0  0  0  0  0  0
   -0.4429    9.8444   -4.2705 H   0  0  0  0  0  0  0  0  0  0  0  0
    2.2877    8.5885   -1.9430 H   0  0  0  0  0  0  0  0  0  0  0  0
    1.3702    8.1827   -3.4330 H   0  0  0  0  0  0  0  0  0  0  0  0
    2.5170    9.5652   -3.4330 H   0  0  0  0  0  0  0  0  0  0  0  0
    0.4218   13.1742    2.4350 H   0  0  0  0  0  0  0  0  0  0  0  0
    0.0199   11.5440    1.7965 H   0  0  0  0  0  0  0  0  0  0  0  0
    1.7235   12.1137    1.7965 H   0  0  0  0  0  0  0  0  0  0  0  0
   -1.6293   13.5966    0.2976 H   0  0  0  0  0  0  0  0  0  0  0  0
   -0.4859   14.5893    1.3663 H   0  0  0  0  0  0  0  0  0  0  0  0
   -0.9455   14.8767   -1.6153 H   0  0  0  0  0  0  0  0  0  0  0  0
   -1.3517   16.0403   -0.2930 H   0  0  0  0  0  0  0  0  0  0  0  0
    0.7238   15.8447    1.4569 H   0  0  0  0  0  0  0  0  0  0  0  0
    2.1996   16.5874    0.7518 H   0  0  0  0  0  0  0  0  0  0  0  0
    0.6496   17.4952    0.7518 H   0  0  0  0  0  0  0  0  0  0  0  0
  1  2  1  0
  2  3  1  0
  3  4  1  0
  4  5  1  0
  5  6  1  0
  6  7  1  0
  7  8  1  0
  7  9  1  0
  2 10  1  0
 10 11  1  0
 11 12  1  0
 12 13  1  0
 13 14  1  6
 13 15  1  0
 15 16  1  0
 16 17  1  0
 17 18  2  0
 18 19  1  0
 19 20  1  0
 20 21  1  0
 21 22  1  0
 22 23  1  0
 22 24  1  0
 24 25  1  0
 24 26  1  0
 19 27  1  0
 27 28  1  1
 27 29  1  0
 29 30  1  0
 30 31  1  0
 31 32  1  1
  7  5  1  0
 31 10  1  0
 31 13  1  0
 27 15  1  0
 24 18  1  0
  1 33  1  0
  1 34  1  0
  1 35  1  0
  2 36  1  1
  3 37  1  0
  3 38  1  0
  4 39  1  0
  4 40  1  0
  5 41  1  1
  8 42  1  0
  8 43  1  0
  8 44  1  0
  9 45  1  0
  9 46  1  0
  9 47  1  0
 10 48  1  6
 11 49  1  0
 11 50  1  0
 12 51  1  0
 12 52  1  0
 14 53  1  0
 14 54  1  0
 14 55  1  0
 15 56  1  1
 16 57  1  0
 16 58  1  0
 17 59  1  0
 19 60  1  6
 20 61  1  0
 20 62  1  0
 21 63  1  0
 21 64  1  0
 22 65  1  6
 23 66  1  0
 25 67  1  0
 25 68  1  0
 25 69  1  0
 26 70  1  0
 26 71  1  0
 26 72  1  0
 28 73  1  0
 28 74  1  0
 28 75  1  0
 29 76  1  0
 29 77  1  0
 30 78  1  0
 30 79  1  0
 32 80  1  0
 32 81  1  0
 32 82  1  0
M  END
>  <meeko>  (14) 
{"is_sidechain": [false], "intermolecular_energy": 2.731, "internal_energy": -0.839}

$$$$
EPH_relaxed_0001_pdb2pqr_Repair_64_r2_0001_out
     RDKit          3D

 82 86  0  0  0  0  0  0  0  0999 V2000
   -1.3500   16.5490   -6.1250 C   0  0  0  0  0  0  0  0  0  0  0  0
   -0.1000   15.8950   -6.7190 C   0  0  2  0  0  0  0  0  0  0  0  0
   -0.2830   15.5370   -8.2070 C   0  0  0  0  0  0  0  0  0  0  0  0
    0.3870   16.5250   -9.1650 C   0  0  0  0  0  0  0  0  0  0  0  0
    1.8000   16.1290   -9.4720 C   0  0  2  0  0  0  0  0  0  0  0  0
    2.3290   16.6880  -10.6820 O   0  0  0  0  0  0  0  0  0  0  0  0
    2.1860   15.2580  -10.6540 C   0  0  0  0  0  0  0  0  0  0  0  0
    1.1570   14.7300  -11.6030 C   0  0  0  0  0  0  0  0  0  0  0  0
    3.4890   14.5230  -10.6050 C   0  0  0  0  0  0  0  0  0  0  0  0
    0.2610   14.6460   -5.9230 C   0  0  1  0  0  0  0  0  0  0  0  0
    1.2830   13.7410   -6.6620 C   0  0  0  0  0  0  0  0  0  0  0  0
    2.1920   13.1120   -5.5750 C   0  0  0  0  0  0  0  0  0  0  0  0
    1.4650   13.4060   -4.2410 C   0  0  1  0  0  0  0  0  0  0  0  0
    0.3630   12.3060   -4.1350 C   0  0  0  0  0  0  0  0  0  0  0  0
    2.3620   13.4510   -2.9610 C   0  0  2  0  0  0  0  0  0  0  0  0
    3.0730   12.1310   -2.6170 C   0  0  0  0  0  0  0  0  0  0  0  0
    2.3160   11.2160   -1.7130 C   0  0  0  0  0  0  0  0  0  0  0  0
    1.2460   11.5570   -0.9710 C   0  0  0  0  0  0  0  0  0  0  0  0
    0.7520   13.0090   -0.9230 C   0  0  1  0  0  0  0  0  0  0  0  0
    0.4790   13.4140    0.5500 C   0  0  0  0  0  0  0  0  0  0  0  0
   -0.4710   12.4510    1.2550 C   0  0  0  0  0  0  0  0  0  0  0  0
    0.0820   11.0280    1.2360 C   0  0  2  0  0  0  0  0  0  0  0  0
    1.2640   10.9830    2.0420 O   0  0  0  0  0  0  0  0  0  0  0  0
    0.4050   10.5140   -0.1950 C   0  0  0  0  0  0  0  0  0  0  0  0
   -0.9140   10.2770   -0.9720 C   0  0  0  0  0  0  0  0  0  0  0  0
    1.0860    9.1250   -0.0610 C   0  0  0  0  0  0  0  0  0  0  0  0
    1.6490   14.0720   -1.6920 C   0  0  1  0  0  0  0  0  0  0  0  0
    2.7810   14.5910   -0.7550 C   0  0  0  0  0  0  0  0  0  0  0  0
    0.7650   15.3230   -2.0550 C   0  0  0  0  0  0  0  0  0  0  0  0
   -0.0030   15.2680   -3.3900 C   0  0  0  0  0  0  0  0  0  0  0  0
    0.9220   14.8510   -4.5370 C   0  0  2  0  0  0  0  0  0  0  0  0
    2.0290   15.9510   -4.6830 C   0  0  0  0  0  0  0  0  0  0  0  0
   -1.2928   16.5191   -5.0269 H   0  0  0  0  0  0  0  0  0  0  0  0
   -1.4114   17.5947   -6.4606 H   0  0  0  0  0  0  0  0  0  0  0  0
   -2.2441   16.0031   -6.4606 H   0  0  0  0  0  0  0  0  0  0  0  0
    0.7187   16.6268   -6.6543 H   0  0  0  0  0  0  0  0  0  0  0  0
    0.1477   14.5397   -8.3796 H   0  0  0  0  0  0  0  0  0  0  0  0
   -1.3627   15.5699   -8.4149 H   0  0  0  0  0  0  0  0  0  0  0  0
   -0.1863   16.5561  -10.1033 H   0  0  0  0  0  0  0  0  0  0  0  0
    0.4054   17.5127   -8.6811 H   0  0  0  0  0  0  0  0  0  0  0  0
    2.0414   16.0684   -8.4005 H   0  0  0  0  0  0  0  0  0  0  0  0
    0.3195   14.3003  -11.0338 H   0  0  0  0  0  0  0  0  0  0  0  0
    0.7874   15.5498  -12.2365 H   0  0  0  0  0  0  0  0  0  0  0  0
    1.6075   13.9517  -12.2365 H   0  0  0  0  0  0  0  0  0  0  0  0
    3.7786   14.3596   -9.5565 H   0  0  0  0  0  0  0  0  0  0  0  0
    3.3817   13.5523  -11.1113 H   0  0  0  0  0  0  0  0  0  0  0  0
    4.2642   15.1169  -11.1113 H   0  0  0  0  0  0  0  0  0  0  0  0
   -0.7416   14.2103   -5.8006 H   0  0  0  0  0  0  0  0  0  0  0  0
    0.7567   12.9517   -7.2188 H   0  0  0  0  0  0  0  0  0  0  0  0
    1.8753   14.3223   -7.3840 H   0  0  0  0  0  0  0  0  0  0  0  0
    2.2921   12.0279   -5.7321 H   0  0  0  0  0  0  0  0  0  0  0  0
    3.2118   13.5239   -5.5942 H   0  0  0  0  0  0  0  0  0  0  0  0
    0.1539   12.0973   -3.0754 H   0  0  0  0  0  0  0  0  0  0  0  0
   -0.5553   12.6583   -4.6274 H   0  0  0  0  0  0  0  0  0  0  0  0
    0.7137   11.3870   -4.6274 H   0  0  0  0  0  0  0  0  0  0  0  0
    3.1580   14.1514   -3.2541 H   0  0  0  0  0  0  0  0  0  0  0  0
    3.2681   11.5949   -3.5575 H   0  0  0  0  0  0  0  0  0  0  0  0
    3.9865   12.4105   -2.0716 H   0  0  0  0  0  0  0  0  0  0  0  0
    2.6621   10.1739   -1.6475 H   0  0  0  0  0  0  0  0  0  0  0  0
   -0.1865   13.0307   -1.4964 H   0  0  0  0  0  0  0  0  0  0  0  0
    1.4346   13.4285    1.0946 H   0  0  0  0  0  0  0  0  0  0  0  0
    0.0031   14.4057    0.5409 H   0  0  0  0  0  0  0  0  0  0  0  0
   -0.6009   12.7729    2.2988 H   0  0  0  0  0  0  0  0  0  0  0  0
   -1.4360   12.4600    0.7270 H   0  0  0  0  0  0  0  0  0  0  0  0
   -0.6988   10.3652    1.6373 H   0  0  0  0  0  0  0  0  0  0  0  0
    1.8720   11.6660    1.7110 H   0  0  0  0  0  0  0  0  0  0  0  0
   -1.7382   10.1289   -0.2587 H   0  0  0  0  0  0  0  0  0  0  0  0
   -1.1290   11.1509   -1.6045 H   0  0  0  0  0  0  0  0  0  0  0  0
   -0.8114    9.3829   -1.6045 H   0  0  0  0  0  0  0  0  0  0  0  0
    1.2074    8.8774    1.0039 H   0  0  0  0  0  0  0  0  0  0  0  0
    0.4601    8.3614   -0.5460 H   0  0  0  0  0  0  0  0  0  0  0  0
    2.0729    9.1522   -0.5460 H   0  0  0  0  0  0  0  0  0  0  0  0
    2.4805   14.4532    0.2942 H   0  0  0  0  0  0  0  0  0  0  0  0
    3.7051   14.0266   -0.9489 H   0  0  0  0  0  0  0  0  0  0  0  0
    2.9564   15.6595   -0.9489 H   0  0  0  0  0  0  0  0  0  0  0  0
    0.0256   15.4525   -1.2509 H   0  0  0  0  0  0  0  0  0  0  0  0
    1.4759   16.1550   -2.1663 H   0  0  0  0  0  0  0  0  0  0  0  0
   -0.8218   14.5384   -3.3045 H   0  0  0  0  0  0  0  0  0  0  0  0
   -0.4017   16.2700   -3.6071 H   0  0  0  0  0  0  0  0  0  0  0  0
    2.3565   16.2764   -3.6846 H   0  0  0  0  0  0  0  0  0  0  0  0
    2.8868   15.5372   -5.2334 H   0  0  0  0  0  0  0  0  0  0  0  0
    1.6206   16.8114   -5.2334 H   0  0  0  0  0  0  0  0  0  0  0  0
  1  2  1  0
  2  3  1  0
  3  4  1  0
  4  5  1  0
  5  6  1  0
  6  7  1  0
  7  8  1  0
  7  9  1  0
  2 10  1  0
 10 11  1  0
 11 12  1  0
 12 13  1  0
 13 14  1  1
 13 15  1  0
 15 16  1  0
 16 17  1  0
 17 18  2  0
 18 19  1  0
 19 20  1  0
 20 21  1  0
 21 22  1  0
 22 23  1  0
 22 24  1  0
 24 25  1  0
 24 26  1  0
 19 27  1  0
 27 28  1  1
 27 29  1  0
 29 30  1  0
 30 31  1  0
 31 32  1  6
  7  5  1  0
 31 10  1  0
 31 13  1  0
 27 15  1  0
 24 18  1  0
  1 33  1  0
  1 34  1  0
  1 35  1  0
  2 36  1  6
  3 37  1  0
  3 38  1  0
  4 39  1  0
  4 40  1  0
  5 41  1  1
  8 42  1  0
  8 43  1  0
  8 44  1  0
  9 45  1  0
  9 46  1  0
  9 47  1  0
 10 48  1  1
 11 49  1  0
 11 50  1  0
 12 51  1  0
 12 52  1  0
 14 53  1  0
 14 54  1  0
 14 55  1  0
 15 56  1  6
 16 57  1  0
 16 58  1  0
 17 59  1  0
 19 60  1  6
 20 61  1  0
 20 62  1  0
 21 63  1  0
 21 64  1  0
 22 65  1  1
 23 66  1  0
 25 67  1  0
 25 68  1  0
 25 69  1  0
 26 70  1  0
 26 71  1  0
 26 72  1  0
 28 73  1  0
 28 74  1  0
 28 75  1  0
 29 76  1  0
 29 77  1  0
 30 78  1  0
 30 79  1  0
 32 80  1  0
 32 81  1  0
 32 82  1  0
M  END
>  <meeko>  (15) 
{"is_sidechain": [false], "intermolecular_energy": 2.731, "internal_energy": -0.839}

$$$$
EPH_relaxed_0001_pdb2pqr_Repair_64_r2_0001_out
     RDKit          3D

 82 86  0  0  0  0  0  0  0  0999 V2000
   -0.1400    9.2890   -4.2250 C   0  0  0  0  0  0  0  0  0  0  0  0
    0.0700    9.4980   -2.7230 C   0  0  2  0  0  0  0  0  0  0  0  0
   -0.6970    8.4600   -1.8790 C   0  0  0  0  0  0  0  0  0  0  0  0
   -2.2160    8.5280   -2.0520 C   0  0  0  0  0  0  0  0  0  0  0  0
   -2.7560    7.2900   -2.7030 C   0  0  2  0  0  0  0  0  0  0  0  0
   -3.7850    7.5240   -3.6730 O   0  0  0  0  0  0  0  0  0  0  0  0
   -4.1740    6.7890   -2.5010 C   0  0  0  0  0  0  0  0  0  0  0  0
   -5.1400    7.5160   -1.6190 C   0  0  0  0  0  0  0  0  0  0  0  0
   -4.4670    5.3450   -2.7640 C   0  0  0  0  0  0  0  0  0  0  0  0
   -0.3570   10.9070   -2.3300 C   0  0  1  0  0  0  0  0  0  0  0  0
   -1.5830   10.9160   -1.3780 C   0  0  0  0  0  0  0  0  0  0  0  0
   -1.3870   12.1080   -0.4070 C   0  0  0  0  0  0  0  0  0  0  0  0
   -0.2410   12.9370   -1.0330 C   0  0  1  0  0  0  0  0  0  0  0  0
   -0.9250   13.7920   -2.1440 C   0  0  0  0  0  0  0  0  0  0  0  0
    0.5870   13.8260   -0.0480 C   0  0  2  0  0  0  0  0  0  0  0  0
   -0.2120   14.9310    0.6620 C   0  0  0  0  0  0  0  0  0  0  0  0
   -0.2520   16.2450   -0.0460 C   0  0  0  0  0  0  0  0  0  0  0  0
    0.5570   16.6140   -1.0550 C   0  0  0  0  0  0  0  0  0  0  0  0
    1.7030   15.7050   -1.5190 C   0  0  1  0  0  0  0  0  0  0  0  0
    2.9970   16.5450   -1.6810 C   0  0  0  0  0  0  0  0  0  0  0  0
    2.8020   17.7500   -2.5960 C   0  0  0  0  0  0  0  0  0  0  0  0
    1.6940   18.6600   -2.0710 C   0  0  2  0  0  0  0  0  0  0  0  0
    2.1230   19.2430   -0.8360 O   0  0  0  0  0  0  0  0  0  0  0  0
    0.3430   17.9210   -1.8580 C   0  0  0  0  0  0  0  0  0  0  0  0
   -0.2700   17.5520   -3.2320 C   0  0  0  0  0  0  0  0  0  0  0  0
   -0.6460   18.9160   -1.1940 C   0  0  0  0  0  0  0  0  0  0  0  0
    1.9340   14.3880   -0.6600 C   0  0  1  0  0  0  0  0  0  0  0  0
    2.8750   14.6970    0.5450 C   0  0  0  0  0  0  0  0  0  0  0  0
    2.6810   13.3220   -1.5450 C   0  0  0  0  0  0  0  0  0  0  0  0
    1.8020   12.3940   -2.4050 C   0  0  0  0  0  0  0  0  0  0  0  0
    0.6750   11.7770   -1.5700 C   0  0  2  0  0  0  0  0  0  0  0  0
    1.3340   10.8930   -0.4570 C   0  0  0  0  0  0  0  0  0  0  0  0
   -0.9115    8.5212   -4.3840 H   0  0  0  0  0  0  0  0  0  0  0  0
   -0.4633   10.2344   -4.6851 H   0  0  0  0  0  0  0  0  0  0  0  0
    0.8039    8.9612   -4.6851 H   0  0  0  0  0  0  0  0  0  0  0  0
    1.1421    9.3632   -2.5169 H   0  0  0  0  0  0  0  0  0  0  0  0
   -0.3587    7.4553   -2.1726 H   0  0  0  0  0  0  0  0  0  0  0  0
   -0.4834    8.6829   -0.8232 H   0  0  0  0  0  0  0  0  0  0  0  0
   -2.6827    8.6430   -1.0626 H   0  0  0  0  0  0  0  0  0  0  0  0
   -2.4493    9.3857   -2.7000 H   0  0  0  0  0  0  0  0  0  0  0  0
   -1.7788    6.7918   -2.6202 H   0  0  0  0  0  0  0  0  0  0  0  0
   -4.8883    7.3266   -0.5651 H   0  0  0  0  0  0  0  0  0  0  0  0
   -5.0808    8.5955   -1.8218 H   0  0  0  0  0  0  0  0  0  0  0  0
   -6.1609    7.1603   -1.8218 H   0  0  0  0  0  0  0  0  0  0  0  0
   -4.5750    4.8127   -1.8075 H   0  0  0  0  0  0  0  0  0  0  0  0
   -5.4009    5.2591   -3.3389 H   0  0  0  0  0  0  0  0  0  0  0  0
   -3.6405    4.9019   -3.3389 H   0  0  0  0  0  0  0  0  0  0  0  0
   -0.5419   11.3288   -3.3290 H   0  0  0  0  0  0  0  0  0  0  0  0
   -2.5100   11.0465   -1.9556 H   0  0  0  0  0  0  0  0  0  0  0  0
   -1.6621    9.9671   -0.8273 H   0  0  0  0  0  0  0  0  0  0  0  0
   -2.3067   12.7074   -0.3374 H   0  0  0  0  0  0  0  0  0  0  0  0
   -1.1528   11.7785    0.6160 H   0  0  0  0  0  0  0  0  0  0  0  0
   -1.5472   14.5698   -1.6772 H   0  0  0  0  0  0  0  0  0  0  0  0
   -0.1537   14.2656   -2.7691 H   0  0  0  0  0  0  0  0  0  0  0  0
   -1.5564   13.1435   -2.7691 H   0  0  0  0  0  0  0  0  0  0  0  0
    0.8677   13.1096    0.7381 H   0  0  0  0  0  0  0  0  0  0  0  0
   -1.2469   14.5782    0.7823 H   0  0  0  0  0  0  0  0  0  0  0  0
    0.3046   15.1150    1.6155 H   0  0  0  0  0  0  0  0  0  0  0  0
   -1.0071   16.9728    0.2858 H   0  0  0  0  0  0  0  0  0  0  0  0
    1.3954   15.3016   -2.4950 H   0  0  0  0  0  0  0  0  0  0  0  0
    3.3117   16.9025   -0.6895 H   0  0  0  0  0  0  0  0  0  0  0  0
    3.7596   15.8981   -2.1391 H   0  0  0  0  0  0  0  0  0  0  0  0
    3.7418   18.3194   -2.6466 H   0  0  0  0  0  0  0  0  0  0  0  0
    2.5164   17.3896   -3.5953 H   0  0  0  0  0  0  0  0  0  0  0  0
    1.5123   19.4319   -2.8334 H   0  0  0  0  0  0  0  0  0  0  0  0
    2.0250   20.2070   -0.9160 H   0  0  0  0  0  0  0  0  0  0  0  0
   -1.2032   16.9903   -3.0782 H   0  0  0  0  0  0  0  0  0  0  0  0
   -0.4843   18.4713   -3.7967 H   0  0  0  0  0  0  0  0  0  0  0  0
    0.4421   16.9324   -3.7967 H   0  0  0  0  0  0  0  0  0  0  0  0
   -0.5669   18.8364   -0.0997 H   0  0  0  0  0  0  0  0  0  0  0  0
   -0.3990   19.9416   -1.5058 H   0  0  0  0  0  0  0  0  0  0  0  0
   -1.6730   18.6752   -1.5058 H   0  0  0  0  0  0  0  0  0  0  0  0
    2.3350   14.5197    1.4868 H   0  0  0  0  0  0  0  0  0  0  0  0
    3.7570   14.0413    0.4990 H   0  0  0  0  0  0  0  0  0  0  0  0
    3.1966   15.7479    0.4990 H   0  0  0  0  0  0  0  0  0  0  0  0
    3.3541   13.8660   -2.2240 H   0  0  0  0  0  0  0  0  0  0  0  0
    3.1867   12.6573   -0.8292 H   0  0  0  0  0  0  0  0  0  0  0  0
    1.3625   12.9761   -3.2284 H   0  0  0  0  0  0  0  0  0  0  0  0
    2.4306   11.5823   -2.7999 H   0  0  0  0  0  0  0  0  0  0  0  0
    1.0479   11.2768    0.5334 H   0  0  0  0  0  0  0  0  0  0  0  0
    0.9883    9.8540   -0.5615 H   0  0  0  0  0  0  0  0  0  0  0  0
    2.4285   10.9276   -0.5615 H   0  0  0  0  0  0  0  0  0  0  0  0
  1  2  1  0
  2  3  1  0
  3  4  1  0
  4  5  1  0
  5  6  1  0
  6  7  1  0
  7  8  1  0
  7  9  1  0
  2 10  1  0
 10 11  1  0
 11 12  1  0
 12 13  1  0
 13 14  1  6
 13 15  1  0
 15 16  1  0
 16 17  1  0
 17 18  2  0
 18 19  1  0
 19 20  1  0
 20 21  1  0
 21 22  1  0
 22 23  1  0
 22 24  1  0
 24 25  1  0
 24 26  1  0
 19 27  1  0
 27 28  1  1
 27 29  1  0
 29 30  1  0
 30 31  1  0
 31 32  1  1
  7  5  1  0
 31 10  1  0
 31 13  1  0
 27 15  1  0
 24 18  1  0
  1 33  1  0
  1 34  1  0
  1 35  1  0
  2 36  1  6
  3 37  1  0
  3 38  1  0
  4 39  1  0
  4 40  1  0
  5 41  1  6
  8 42  1  0
  8 43  1  0
  8 44  1  0
  9 45  1  0
  9 46  1  0
  9 47  1  0
 10 48  1  6
 11 49  1  0
 11 50  1  0
 12 51  1  0
 12 52  1  0
 14 53  1  0
 14 54  1  0
 14 55  1  0
 15 56  1  1
 16 57  1  0
 16 58  1  0
 17 59  1  0
 19 60  1  6
 20 61  1  0
 20 62  1  0
 21 63  1  0
 21 64  1  0
 22 65  1  6
 23 66  1  0
 25 67  1  0
 25 68  1  0
 25 69  1  0
 26 70  1  0
 26 71  1  0
 26 72  1  0
 28 73  1  0
 28 74  1  0
 28 75  1  0
 29 76  1  0
 29 77  1  0
 30 78  1  0
 30 79  1  0
 32 80  1  0
 32 81  1  0
 32 82  1  0
M  END
>  <meeko>  (16) 
{"is_sidechain": [false], "intermolecular_energy": 2.731, "internal_energy": -0.839}

$$$$
EPH_relaxed_0001_pdb2pqr_Repair_64_r2_0001_out
     RDKit          3D

 82 86  0  0  0  0  0  0  0  0999 V2000
   -2.2050    7.8720   -2.3810 C   0  0  0  0  0  0  0  0  0  0  0  0
   -2.1940    8.5000   -0.9850 C   0  0  2  0  0  0  0  0  0  0  0  0
   -3.5840    8.4610   -0.3190 C   0  0  0  0  0  0  0  0  0  0  0  0
   -4.7450    8.4540   -1.3170 C   0  0  0  0  0  0  0  0  0  0  0  0
   -5.5160    7.1700   -1.2630 C   0  0  2  0  0  0  0  0  0  0  0  0
   -5.7560    6.5620   -2.5380 O   0  0  0  0  0  0  0  0  0  0  0  0
   -6.9170    7.0110   -1.8210 C   0  0  0  0  0  0  0  0  0  0  0  0
   -7.6310    8.1530   -2.4740 C   0  0  0  0  0  0  0  0  0  0  0  0
   -7.7730    5.8990   -1.3010 C   0  0  0  0  0  0  0  0  0  0  0  0
   -1.6950    9.9380   -1.0660 C   0  0  1  0  0  0  0  0  0  0  0  0
   -1.3130   10.5170    0.3230 C   0  0  0  0  0  0  0  0  0  0  0  0
   -0.1040   11.4600    0.0960 C   0  0  0  0  0  0  0  0  0  0  0  0
   -0.0400   11.6520   -1.4370 C   0  0  1  0  0  0  0  0  0  0  0  0
   -1.1120   12.7440   -1.7490 C   0  0  0  0  0  0  0  0  0  0  0  0
    1.3570   12.0290   -2.0300 C   0  0  2  0  0  0  0  0  0  0  0  0
    1.9290   13.3730   -1.5470 C   0  0  0  0  0  0  0  0  0  0  0  0
    1.5690   14.5560   -2.3830 C   0  0  0  0  0  0  0  0  0  0  0  0
    1.0580   14.5090   -3.6270 C   0  0  0  0  0  0  0  0  0  0  0  0
    0.8840   13.1700   -4.3560 C   0  0  1  0  0  0  0  0  0  0  0  0
    1.4220   13.2960   -5.8060 C   0  0  0  0  0  0  0  0  0  0  0  0
    0.7930   14.4600   -6.5640 C   0  0  0  0  0  0  0  0  0  0  0  0
    1.0370   15.7810   -5.8380 C   0  0  2  0  0  0  0  0  0  0  0  0
    2.4370   16.0740   -5.8750 O   0  0  0  0  0  0  0  0  0  0  0  0
    0.5440   15.7700   -4.3640 C   0  0  0  0  0  0  0  0  0  0  0  0
   -1.0040   15.7540   -4.3330 C   0  0  0  0  0  0  0  0  0  0  0  0
    0.9780   17.1070   -3.7060 C   0  0  0  0  0  0  0  0  0  0  0  0
    1.4520   11.8910   -3.6030 C   0  0  1  0  0  0  0  0  0  0  0  0
    2.9620   11.7010   -3.9430 C   0  0  0  0  0  0  0  0  0  0  0  0
    0.7110   10.6090   -4.1380 C   0  0  0  0  0  0  0  0  0  0  0  0
   -0.6030   10.2210   -3.4330 C   0  0  0  0  0  0  0  0  0  0  0  0
   -0.4250   10.2040   -1.9120 C   0  0  2  0  0  0  0  0  0  0  0  0
    0.6310    9.0990   -1.5660 C   0  0  0  0  0  0  0  0  0  0  0  0
   -2.2242    6.7760   -2.2898 H   0  0  0  0  0  0  0  0  0  0  0  0
   -3.0974    8.2101   -2.9281 H   0  0  0  0  0  0  0  0  0  0  0  0
   -1.3013    8.1787   -2.9281 H   0  0  0  0  0  0  0  0  0  0  0  0
   -1.5123    7.9045   -0.3599 H   0  0  0  0  0  0  0  0  0  0  0  0
   -3.6491    7.5511    0.2957 H   0  0  0  0  0  0  0  0  0  0  0  0
   -3.6797    9.3794    0.2788 H   0  0  0  0  0  0  0  0  0  0  0  0
   -5.4232    9.2871   -1.0804 H   0  0  0  0  0  0  0  0  0  0  0  0
   -4.3273    8.5603   -2.3290 H   0  0  0  0  0  0  0  0  0  0  0  0
   -5.0795    6.9222   -0.2842 H   0  0  0  0  0  0  0  0  0  0  0  0
   -8.0458    8.8164   -1.7008 H   0  0  0  0  0  0  0  0  0  0  0  0
   -6.9244    8.7171   -3.1006 H   0  0  0  0  0  0  0  0  0  0  0  0
   -8.4475    7.7648   -3.1006 H   0  0  0  0  0  0  0  0  0  0  0  0
   -7.7629    5.9121   -0.2011 H   0  0  0  0  0  0  0  0  0  0  0  0
   -8.8043    6.0316   -1.6598 H   0  0  0  0  0  0  0  0  0  0  0  0
   -7.3809    4.9359   -1.6598 H   0  0  0  0  0  0  0  0  0  0  0  0
   -2.5681   10.4094   -1.5408 H   0  0  0  0  0  0  0  0  0  0  0  0
   -2.1588   11.0799    0.7446 H   0  0  0  0  0  0  0  0  0  0  0  0
   -1.0603    9.7135    1.0304 H   0  0  0  0  0  0  0  0  0  0  0  0
   -0.2633   12.4239    0.6016 H   0  0  0  0  0  0  0  0  0  0  0  0
    0.8300   11.0456    0.5034 H   0  0  0  0  0  0  0  0  0  0  0  0
   -1.5088   13.1482   -0.8061 H   0  0  0  0  0  0  0  0  0  0  0  0
   -0.6502   13.5556   -2.3303 H   0  0  0  0  0  0  0  0  0  0  0  0
   -1.9320   12.2973   -2.3303 H   0  0  0  0  0  0  0  0  0  0  0  0
    2.0118   11.2553   -1.6026 H   0  0  0  0  0  0  0  0  0  0  0  0
    1.5595   13.5527   -0.5266 H   0  0  0  0  0  0  0  0  0  0  0  0
    3.0232   13.2781   -1.6088 H   0  0  0  0  0  0  0  0  0  0  0  0
    1.7356   15.5511   -1.9448 H   0  0  0  0  0  0  0  0  0  0  0  0
   -0.1980   12.9728   -4.3751 H   0  0  0  0  0  0  0  0  0  0  0  0
    2.5107   13.4483   -5.7662 H   0  0  0  0  0  0  0  0  0  0  0  0
    1.1620   12.3702   -6.3402 H   0  0  0  0  0  0  0  0  0  0  0  0
    1.2350   14.5152   -7.5698 H   0  0  0  0  0  0  0  0  0  0  0  0
   -0.2920   14.2908   -6.6288 H   0  0  0  0  0  0  0  0  0  0  0  0
    0.4545   16.5563   -6.3573 H   0  0  0  0  0  0  0  0  0  0  0  0
    2.5490   17.0080   -5.6260 H   0  0  0  0  0  0  0  0  0  0  0  0
   -1.3498   15.7504   -3.2888 H   0  0  0  0  0  0  0  0  0  0  0  0
   -1.3902   16.6482   -4.8441 H   0  0  0  0  0  0  0  0  0  0  0  0
   -1.3717   14.8520   -4.8441 H   0  0  0  0  0  0  0  0  0  0  0  0
    0.9448   17.0047   -2.6113 H   0  0  0  0  0  0  0  0  0  0  0  0
    2.0027   17.3547   -4.0202 H   0  0  0  0  0  0  0  0  0  0  0  0
    0.2941   17.9093   -4.0202 H   0  0  0  0  0  0  0  0  0  0  0  0
    3.5414   11.6281   -3.0108 H   0  0  0  0  0  0  0  0  0  0  0  0
    3.0927   10.7793   -4.5290 H   0  0  0  0  0  0  0  0  0  0  0  0
    3.3170   12.5616   -4.5290 H   0  0  0  0  0  0  0  0  0  0  0  0
    0.4816   10.7764   -5.2007 H   0  0  0  0  0  0  0  0  0  0  0  0
    1.4005    9.7748   -3.9410 H   0  0  0  0  0  0  0  0  0  0  0  0
   -1.3818   10.9519   -3.6960 H   0  0  0  0  0  0  0  0  0  0  0  0
   -0.8937    9.2128   -3.7633 H   0  0  0  0  0  0  0  0  0  0  0  0
    0.7199    9.0060   -0.4735 H   0  0  0  0  0  0  0  0  0  0  0  0
    0.3079    8.1372   -1.9908 H   0  0  0  0  0  0  0  0  0  0  0  0
    1.6065    9.3782   -1.9908 H   0  0  0  0  0  0  0  0  0  0  0  0
  1  2  1  0
  2  3  1  0
  3  4  1  0
  4  5  1  0
  5  6  1  0
  6  7  1  0
  7  8  1  0
  7  9  1  0
  2 10  1  0
 10 11  1  0
 11 12  1  0
 12 13  1  0
 13 14  1  6
 13 15  1  0
 15 16  1  0
 16 17  1  0
 17 18  2  0
 18 19  1  0
 19 20  1  0
 20 21  1  0
 21 22  1  0
 22 23  1  0
 22 24  1  0
 24 25  1  0
 24 26  1  0
 19 27  1  0
 27 28  1  1
 27 29  1  0
 29 30  1  0
 30 31  1  0
 31 32  1  6
  7  5  1  0
 31 10  1  0
 31 13  1  0
 27 15  1  0
 24 18  1  0
  1 33  1  0
  1 34  1  0
  1 35  1  0
  2 36  1  1
  3 37  1  0
  3 38  1  0
  4 39  1  0
  4 40  1  0
  5 41  1  1
  8 42  1  0
  8 43  1  0
  8 44  1  0
  9 45  1  0
  9 46  1  0
  9 47  1  0
 10 48  1  6
 11 49  1  0
 11 50  1  0
 12 51  1  0
 12 52  1  0
 14 53  1  0
 14 54  1  0
 14 55  1  0
 15 56  1  1
 16 57  1  0
 16 58  1  0
 17 59  1  0
 19 60  1  6
 20 61  1  0
 20 62  1  0
 21 63  1  0
 21 64  1  0
 22 65  1  6
 23 66  1  0
 25 67  1  0
 25 68  1  0
 25 69  1  0
 26 70  1  0
 26 71  1  0
 26 72  1  0
 28 73  1  0
 28 74  1  0
 28 75  1  0
 29 76  1  0
 29 77  1  0
 30 78  1  0
 30 79  1  0
 32 80  1  0
 32 81  1  0
 32 82  1  0
M  END
>  <meeko>  (17) 
{"is_sidechain": [false], "intermolecular_energy": 2.731, "internal_energy": -0.839}

$$$$
EPH_relaxed_0001_pdb2pqr_Repair_64_r2_0001_out
     RDKit          3D

 82 86  0  0  0  0  0  0  0  0999 V2000
   -4.2440    7.3440   -3.8210 C   0  0  0  0  0  0  0  0  0  0  0  0
   -3.7890    7.2120   -2.3650 C   0  0  2  0  0  0  0  0  0  0  0  0
   -4.9150    6.6900   -1.4500 C   0  0  0  0  0  0  0  0  0  0  0  0
   -6.2650    6.5440   -2.1560 C   0  0  0  0  0  0  0  0  0  0  0  0
   -7.3800    6.3210   -1.1800 C   0  0  2  0  0  0  0  0  0  0  0  0
   -8.4750    5.5470   -1.6890 O   0  0  0  0  0  0  0  0  0  0  0  0
   -8.7680    6.9110   -1.3460 C   0  0  0  0  0  0  0  0  0  0  0  0
   -9.1140    7.7730   -2.5200 C   0  0  0  0  0  0  0  0  0  0  0  0
   -9.6340    7.0560   -0.1340 C   0  0  0  0  0  0  0  0  0  0  0  0
   -3.2840    8.5560   -1.8550 C   0  0  1  0  0  0  0  0  0  0  0  0
   -3.9580    8.9820   -0.5230 C   0  0  0  0  0  0  0  0  0  0  0  0
   -2.8840    9.7360    0.3010 C   0  0  0  0  0  0  0  0  0  0  0  0
   -1.7420   10.0100   -0.7050 C   0  0  1  0  0  0  0  0  0  0  0  0
   -2.2010   11.2740   -1.4990 C   0  0  0  0  0  0  0  0  0  0  0  0
   -0.3140   10.1990   -0.0950 C   0  0  2  0  0  0  0  0  0  0  0  0
   -0.1620   11.4050    0.8490 C   0  0  0  0  0  0  0  0  0  0  0  0
    0.2560   12.6790    0.1930 C   0  0  0  0  0  0  0  0  0  0  0  0
    0.7730   12.7890   -1.0450 C   0  0  0  0  0  0  0  0  0  0  0  0
    1.0760   11.5420   -1.8850 C   0  0  1  0  0  0  0  0  0  0  0  0
    2.4890   11.6710   -2.5130 C   0  0  0  0  0  0  0  0  0  0  0  0
    2.6620   12.9640   -3.3040 C   0  0  0  0  0  0  0  0  0  0  0  0
    2.4090   14.1830   -2.4200 C   0  0  2  0  0  0  0  0  0  0  0  0
    3.4400   14.2550   -1.4300 O   0  0  0  0  0  0  0  0  0  0  0  0
    1.0180   14.1580   -1.7250 C   0  0  0  0  0  0  0  0  0  0  0  0
   -0.0940   14.3830   -2.7800 C   0  0  0  0  0  0  0  0  0  0  0  0
    0.9480   15.3680   -0.7550 C   0  0  0  0  0  0  0  0  0  0  0  0
    0.8570   10.1460   -1.1580 C   0  0  1  0  0  0  0  0  0  0  0  0
    2.1460    9.7430   -0.3800 C   0  0  0  0  0  0  0  0  0  0  0  0
    0.6270    9.0300   -2.2460 C   0  0  0  0  0  0  0  0  0  0  0  0
   -0.8220    8.8100   -2.7200 C   0  0  0  0  0  0  0  0  0  0  0  0
   -1.7740    8.6720   -1.5290 C   0  0  2  0  0  0  0  0  0  0  0  0
   -1.3500    7.3960   -0.7240 C   0  0  0  0  0  0  0  0  0  0  0  0
   -5.3001    7.6504   -3.8488 H   0  0  0  0  0  0  0  0  0  0  0  0
   -3.6291    8.1008   -4.3301 H   0  0  0  0  0  0  0  0  0  0  0  0
   -4.1296    6.3756   -4.3301 H   0  0  0  0  0  0  0  0  0  0  0  0
   -2.9736    6.4742   -2.3383 H   0  0  0  0  0  0  0  0  0  0  0  0
   -4.6180    5.7046   -1.0618 H   0  0  0  0  0  0  0  0  0  0  0  0
   -5.0496    7.4335   -0.6506 H   0  0  0  0  0  0  0  0  0  0  0  0
   -6.4695    7.4615   -2.7273 H   0  0  0  0  0  0  0  0  0  0  0  0
   -6.2113    5.6693   -2.8208 H   0  0  0  0  0  0  0  0  0  0  0  0
   -6.6738    6.3225   -0.3366 H   0  0  0  0  0  0  0  0  0  0  0  0
   -9.5017    8.7389   -2.1641 H   0  0  0  0  0  0  0  0  0  0  0  0
   -8.2138    7.9413   -3.1293 H   0  0  0  0  0  0  0  0  0  0  0  0
   -9.8808    7.2722   -3.1293 H   0  0  0  0  0  0  0  0  0  0  0  0
   -9.0178    6.9528    0.7714 H   0  0  0  0  0  0  0  0  0  0  0  0
  -10.1120    8.0467   -0.1413 H   0  0  0  0  0  0  0  0  0  0  0  0
  -10.4086    6.2751   -0.1413 H   0  0  0  0  0  0  0  0  0  0  0  0
   -3.5312    9.1858   -2.7223 H   0  0  0  0  0  0  0  0  0  0  0  0
   -4.8131    9.6435   -0.7259 H   0  0  0  0  0  0  0  0  0  0  0  0
   -4.3345    8.1066    0.0265 H   0  0  0  0  0  0  0  0  0  0  0  0
   -3.2888   10.6797    0.6954 H   0  0  0  0  0  0  0  0  0  0  0  0
   -2.5430    9.1564    1.1715 H   0  0  0  0  0  0  0  0  0  0  0  0
   -2.4887   12.0664   -0.7924 H   0  0  0  0  0  0  0  0  0  0  0  0
   -1.3746   11.6295   -2.1319 H   0  0  0  0  0  0  0  0  0  0  0  0
   -3.0630   11.0164   -2.1319 H   0  0  0  0  0  0  0  0  0  0  0  0
   -0.2090    9.3072    0.5404 H   0  0  0  0  0  0  0  0  0  0  0  0
   -1.1315   11.5772    1.3393 H   0  0  0  0  0  0  0  0  0  0  0  0
    0.6453   11.1438    1.5491 H   0  0  0  0  0  0  0  0  0  0  0  0
    0.1309   13.6069    0.7704 H   0  0  0  0  0  0  0  0  0  0  0  0
    0.3152   11.5186   -2.6791 H   0  0  0  0  0  0  0  0  0  0  0  0
    3.2367   11.6483   -1.7065 H   0  0  0  0  0  0  0  0  0  0  0  0
    2.6216   10.8319   -3.2118 H   0  0  0  0  0  0  0  0  0  0  0  0
    3.6884   13.0110   -3.6968 H   0  0  0  0  0  0  0  0  0  0  0  0
    1.9338   12.9711   -4.1284 H   0  0  0  0  0  0  0  0  0  0  0  0
    2.4187   15.0704   -3.0700 H   0  0  0  0  0  0  0  0  0  0  0  0
    3.0110   14.2470   -0.5570 H   0  0  0  0  0  0  0  0  0  0  0  0
   -1.0494   14.5763   -2.2702 H   0  0  0  0  0  0  0  0  0  0  0  0
    0.1670   15.2465   -3.4094 H   0  0  0  0  0  0  0  0  0  0  0  0
   -0.1892   13.4859   -3.4094 H   0  0  0  0  0  0  0  0  0  0  0  0
    0.9689   15.0069    0.2838 H   0  0  0  0  0  0  0  0  0  0  0  0
    1.8094   16.0291   -0.9307 H   0  0  0  0  0  0  0  0  0  0  0  0
    0.0161   15.9254   -0.9307 H   0  0  0  0  0  0  0  0  0  0  0  0
    1.9551    9.8027    0.7017 H   0  0  0  0  0  0  0  0  0  0  0  0
    2.4283    8.7137   -0.6463 H   0  0  0  0  0  0  0  0  0  0  0  0
    2.9643   10.4282   -0.6463 H   0  0  0  0  0  0  0  0  0  0  0  0
    1.2288    9.2958   -3.1276 H   0  0  0  0  0  0  0  0  0  0  0  0
    0.9161    8.0878   -1.7574 H   0  0  0  0  0  0  0  0  0  0  0  0
   -1.1344    9.6686   -3.3326 H   0  0  0  0  0  0  0  0  0  0  0  0
   -0.8609    7.8818   -3.3090 H   0  0  0  0  0  0  0  0  0  0  0  0
   -1.4188    7.6030    0.3542 H   0  0  0  0  0  0  0  0  0  0  0  0
   -2.0191    6.5615   -0.9806 H   0  0  0  0  0  0  0  0  0  0  0  0
   -0.3145    7.1279   -0.9806 H   0  0  0  0  0  0  0  0  0  0  0  0
  1  2  1  0
  2  3  1  0
  3  4  1  0
  4  5  1  0
  5  6  1  0
  6  7  1  0
  7  8  1  0
  7  9  1  0
  2 10  1  0
 10 11  1  0
 11 12  1  0
 12 13  1  0
 13 14  1  6
 13 15  1  0
 15 16  1  0
 16 17  1  0
 17 18  2  0
 18 19  1  0
 19 20  1  0
 20 21  1  0
 21 22  1  0
 22 23  1  0
 22 24  1  0
 24 25  1  0
 24 26  1  0
 19 27  1  0
 27 28  1  1
 27 29  1  0
 29 30  1  0
 30 31  1  0
 31 32  1  1
  7  5  1  0
 31 10  1  0
 31 13  1  0
 27 15  1  0
 24 18  1  0
  1 33  1  0
  1 34  1  0
  1 35  1  0
  2 36  1  6
  3 37  1  0
  3 38  1  0
  4 39  1  0
  4 40  1  0
  5 41  1  1
  8 42  1  0
  8 43  1  0
  8 44  1  0
  9 45  1  0
  9 46  1  0
  9 47  1  0
 10 48  1  6
 11 49  1  0
 11 50  1  0
 12 51  1  0
 12 52  1  0
 14 53  1  0
 14 54  1  0
 14 55  1  0
 15 56  1  1
 16 57  1  0
 16 58  1  0
 17 59  1  0
 19 60  1  6
 20 61  1  0
 20 62  1  0
 21 63  1  0
 21 64  1  0
 22 65  1  6
 23 66  1  0
 25 67  1  0
 25 68  1  0
 25 69  1  0
 26 70  1  0
 26 71  1  0
 26 72  1  0
 28 73  1  0
 28 74  1  0
 28 75  1  0
 29 76  1  0
 29 77  1  0
 30 78  1  0
 30 79  1  0
 32 80  1  0
 32 81  1  0
 32 82  1  0
M  END
>  <meeko>  (18) 
{"is_sidechain": [false], "intermolecular_energy": 2.731, "internal_energy": -0.839}

$$$$
EPH_relaxed_0001_pdb2pqr_Repair_64_r2_0001_out
     RDKit          3D

 82 86  0  0  0  0  0  0  0  0999 V2000
    3.1290   14.8230   -7.5260 C   0  0  0  0  0  0  0  0  0  0  0  0
    1.6050   14.8680   -7.3830 C   0  0  2  0  0  0  0  0  0  0  0  0
    0.9970   16.1210   -8.0450 C   0  0  0  0  0  0  0  0  0  0  0  0
    1.9210   16.7870   -9.0680 C   0  0  0  0  0  0  0  0  0  0  0  0
    1.5770   16.3830  -10.4700 C   0  0  2  0  0  0  0  0  0  0  0  0
    0.9840   15.0830  -10.5910 O   0  0  0  0  0  0  0  0  0  0  0  0
    2.2690   15.2530  -11.2090 C   0  0  0  0  0  0  0  0  0  0  0  0
    3.3630   14.4570  -10.5690 C   0  0  0  0  0  0  0  0  0  0  0  0
    2.2240   15.2440  -12.7060 C   0  0  0  0  0  0  0  0  0  0  0  0
    1.2200   14.8190   -5.9090 C   0  0  1  0  0  0  0  0  0  0  0  0
   -0.0320   15.6790   -5.5900 C   0  0  0  0  0  0  0  0  0  0  0  0
   -0.8140   14.9340   -4.4770 C   0  0  0  0  0  0  0  0  0  0  0  0
    0.1700   13.8570   -3.9630 C   0  0  1  0  0  0  0  0  0  0  0  0
    1.1100   14.6120   -2.9720 C   0  0  0  0  0  0  0  0  0  0  0  0
   -0.4730   12.5940   -3.3020 C   0  0  2  0  0  0  0  0  0  0  0  0
   -1.2900   12.8690   -2.0270 C   0  0  0  0  0  0  0  0  0  0  0  0
   -0.5200   12.8010   -0.7500 C   0  0  0  0  0  0  0  0  0  0  0  0
    0.7010   12.2550   -0.6000 C   0  0  0  0  0  0  0  0  0  0  0  0
    1.3920   11.5400   -1.7680 C   0  0  1  0  0  0  0  0  0  0  0  0
    1.9740   10.1890   -1.2770 C   0  0  0  0  0  0  0  0  0  0  0  0
    2.8890   10.3500   -0.0680 C   0  0  0  0  0  0  0  0  0  0  0  0
    2.1490   11.0110    1.0920 C   0  0  2  0  0  0  0  0  0  0  0  0
    1.1330   10.1190    1.5590 O   0  0  0  0  0  0  0  0  0  0  0  0
    1.5120   12.3770    0.7140 C   0  0  0  0  0  0  0  0  0  0  0  0
    2.6270   13.4310    0.5000 C   0  0  0  0  0  0  0  0  0  0  0  0
    0.6780   12.8680    1.9280 C   0  0  0  0  0  0  0  0  0  0  0  0
    0.5320   11.3890   -3.0950 C   0  0  1  0  0  0  0  0  0  0  0  0
   -0.3350   10.0940   -3.0220 C   0  0  0  0  0  0  0  0  0  0  0  0
    1.5040   11.2030   -4.3200 C   0  0  0  0  0  0  0  0  0  0  0  0
    2.0090   12.4870   -5.0060 C   0  0  0  0  0  0  0  0  0  0  0  0
    0.8480   13.4360   -5.3180 C   0  0  2  0  0  0  0  0  0  0  0  0
   -0.1030   12.7120   -6.3300 C   0  0  0  0  0  0  0  0  0  0  0  0
    3.5907   14.8094   -6.5277 H   0  0  0  0  0  0  0  0  0  0  0  0
    3.4190   13.9159   -8.0765 H   0  0  0  0  0  0  0  0  0  0  0  0
    3.4720   15.7114   -8.0765 H   0  0  0  0  0  0  0  0  0  0  0  0
    1.1972   13.9888   -7.9032 H   0  0  0  0  0  0  0  0  0  0  0  0
    0.0679   15.8276   -8.5556 H   0  0  0  0  0  0  0  0  0  0  0  0
    0.8225   16.8547   -7.2442 H   0  0  0  0  0  0  0  0  0  0  0  0
    1.8248   17.8791   -8.9777 H   0  0  0  0  0  0  0  0  0  0  0  0
    2.9519   16.4642   -8.8608 H   0  0  0  0  0  0  0  0  0  0  0  0
    1.3713   17.4280  -10.7451 H   0  0  0  0  0  0  0  0  0  0  0  0
    3.2724   14.5229   -9.4747 H   0  0  0  0  0  0  0  0  0  0  0  0
    3.2819   13.4053  -10.8810 H   0  0  0  0  0  0  0  0  0  0  0  0
    4.3387   14.8578  -10.8810 H   0  0  0  0  0  0  0  0  0  0  0  0
    1.1965   15.0385  -13.0407 H   0  0  0  0  0  0  0  0  0  0  0  0
    2.5451   16.2241  -13.0884 H   0  0  0  0  0  0  0  0  0  0  0  0
    2.8974   14.4627  -13.0884 H   0  0  0  0  0  0  0  0  0  0  0  0
    2.1571   15.1805   -5.4606 H   0  0  0  0  0  0  0  0  0  0  0  0
    0.2726   16.6753   -5.2371 H   0  0  0  0  0  0  0  0  0  0  0  0
   -0.6551   15.8174   -6.4859 H   0  0  0  0  0  0  0  0  0  0  0  0
   -1.0906   15.6254   -3.6674 H   0  0  0  0  0  0  0  0  0  0  0  0
   -1.7534   14.4980   -4.8476 H   0  0  0  0  0  0  0  0  0  0  0  0
    0.8174   14.3770   -1.9380 H   0  0  0  0  0  0  0  0  0  0  0  0
    2.1500   14.2953   -3.1398 H   0  0  0  0  0  0  0  0  0  0  0  0
    1.0251   15.6958   -3.1398 H   0  0  0  0  0  0  0  0  0  0  0  0
   -1.2024   12.2756   -4.0614 H   0  0  0  0  0  0  0  0  0  0  0  0
   -1.7215   13.8774   -2.1106 H   0  0  0  0  0  0  0  0  0  0  0  0
   -2.0445   12.0706   -1.9706 H   0  0  0  0  0  0  0  0  0  0  0  0
   -0.9907   13.2341    0.1449 H   0  0  0  0  0  0  0  0  0  0  0  0
    2.2090   12.2027   -2.0896 H   0  0  0  0  0  0  0  0  0  0  0  0
    1.1408    9.5254   -1.0025 H   0  0  0  0  0  0  0  0  0  0  0  0
    2.5751    9.7676   -2.0962 H   0  0  0  0  0  0  0  0  0  0  0  0
    3.2437    9.3584    0.2496 H   0  0  0  0  0  0  0  0  0  0  0  0
    3.7378   10.9891   -0.3527 H   0  0  0  0  0  0  0  0  0  0  0  0
    2.8886   11.2176    1.8796 H   0  0  0  0  0  0  0  0  0  0  0  0
    0.3340   10.6460    1.7300 H   0  0  0  0  0  0  0  0  0  0  0  0
    2.9950   13.7789    1.4765 H   0  0  0  0  0  0  0  0  0  0  0  0
    3.4558   12.9786   -0.0642 H   0  0  0  0  0  0  0  0  0  0  0  0
    2.2219   14.2839   -0.0642 H   0  0  0  0  0  0  0  0  0  0  0  0
    1.1799   12.5725    2.8612 H   0  0  0  0  0  0  0  0  0  0  0  0
    0.5873   13.9636    1.8915 H   0  0  0  0  0  0  0  0  0  0  0  0
   -0.3240   12.4157    1.8915 H   0  0  0  0  0  0  0  0  0  0  0  0
   -0.5118    9.8300   -1.9689 H   0  0  0  0  0  0  0  0  0  0  0  0
   -1.2986   10.2691   -3.5228 H   0  0  0  0  0  0  0  0  0  0  0  0
    0.1941    9.2698   -3.5228 H   0  0  0  0  0  0  0  0  0  0  0  0
    2.3842   10.6468   -3.9652 H   0  0  0  0  0  0  0  0  0  0  0  0
    0.9081   10.6829   -5.0845 H   0  0  0  0  0  0  0  0  0  0  0  0
    2.7199   12.9957   -4.3383 H   0  0  0  0  0  0  0  0  0  0  0  0
    2.4986   12.2098   -5.9512 H   0  0  0  0  0  0  0  0  0  0  0  0
   -0.8589   12.1366   -5.7754 H   0  0  0  0  0  0  0  0  0  0  0  0
   -0.6031   13.4601   -6.9627 H   0  0  0  0  0  0  0  0  0  0  0  0
    0.4850   12.0308   -6.9627 H   0  0  0  0  0  0  0  0  0  0  0  0
  1  2  1  0
  2  3  1  0
  3  4  1  0
  4  5  1  0
  5  6  1  0
  6  7  1  0
  7  8  1  0
  7  9  1  0
  2 10  1  0
 10 11  1  0
 11 12  1  0
 12 13  1  0
 13 14  1  1
 13 15  1  0
 15 16  1  0
 16 17  1  0
 17 18  2  0
 18 19  1  0
 19 20  1  0
 20 21  1  0
 21 22  1  0
 22 23  1  0
 22 24  1  0
 24 25  1  0
 24 26  1  0
 19 27  1  0
 27 28  1  1
 27 29  1  0
 29 30  1  0
 30 31  1  0
 31 32  1  6
  7  5  1  0
 31 10  1  0
 31 13  1  0
 27 15  1  0
 24 18  1  0
  1 33  1  0
  1 34  1  0
  1 35  1  0
  2 36  1  6
  3 37  1  0
  3 38  1  0
  4 39  1  0
  4 40  1  0
  5 41  1  6
  8 42  1  0
  8 43  1  0
  8 44  1  0
  9 45  1  0
  9 46  1  0
  9 47  1  0
 10 48  1  1
 11 49  1  0
 11 50  1  0
 12 51  1  0
 12 52  1  0
 14 53  1  0
 14 54  1  0
 14 55  1  0
 15 56  1  6
 16 57  1  0
 16 58  1  0
 17 59  1  0
 19 60  1  6
 20 61  1  0
 20 62  1  0
 21 63  1  0
 21 64  1  0
 22 65  1  1
 23 66  1  0
 25 67  1  0
 25 68  1  0
 25 69  1  0
 26 70  1  0
 26 71  1  0
 26 72  1  0
 28 73  1  0
 28 74  1  0
 28 75  1  0
 29 76  1  0
 29 77  1  0
 30 78  1  0
 30 79  1  0
 32 80  1  0
 32 81  1  0
 32 82  1  0
M  END
>  <meeko>  (19) 
{"is_sidechain": [false], "intermolecular_energy": 2.731, "internal_energy": -0.839}

$$$$
