EPH_relaxed_0001_pdb2pqr_Repair_28_r2_0001_out
     RDKit          3D

 82 86  0  0  0  0  0  0  0  0999 V2000
   -1.4240    8.5390   -1.8050 C   0  0  0  0  0  0  0  0  0  0  0  0
   -1.8480    9.1150   -0.4510 C   0  0  2  0  0  0  0  0  0  0  0  0
   -3.3450    9.4830   -0.4200 C   0  0  0  0  0  0  0  0  0  0  0  0
   -4.2770    8.2680   -0.4210 C   0  0  0  0  0  0  0  0  0  0  0  0
   -4.7530    7.9360   -1.8030 C   0  0  2  0  0  0  0  0  0  0  0  0
   -6.1760    7.9760   -1.9720 O   0  0  0  0  0  0  0  0  0  0  0  0
   -5.5540    6.6910   -2.1350 C   0  0  0  0  0  0  0  0  0  0  0  0
   -5.9240    5.6970   -1.0800 C   0  0  0  0  0  0  0  0  0  0  0  0
   -5.5540    6.1970   -3.5480 C   0  0  0  0  0  0  0  0  0  0  0  0
   -1.0030   10.3400   -0.1200 C   0  0  1  0  0  0  0  0  0  0  0  0
    0.0830   10.0460    0.9480 C   0  0  0  0  0  0  0  0  0  0  0  0
    1.3170   10.9090    0.5810 C   0  0  0  0  0  0  0  0  0  0  0  0
    0.7930   11.9090   -0.4770 C   0  0  1  0  0  0  0  0  0  0  0  0
    0.0930   13.0350    0.3480 C   0  0  0  0  0  0  0  0  0  0  0  0
    1.8570   12.4920   -1.4630 C   0  0  2  0  0  0  0  0  0  0  0  0
    2.9690   13.3260   -0.8050 C   0  0  0  0  0  0  0  0  0  0  0  0
    2.6870   14.7880   -0.6890 C   0  0  0  0  0  0  0  0  0  0  0  0
    1.7180   15.4510   -1.3460 C   0  0  0  0  0  0  0  0  0  0  0  0
    0.8440   14.7410   -2.3880 C   0  0  1  0  0  0  0  0  0  0  0  0
    0.7400   15.6200   -3.6620 C   0  0  0  0  0  0  0  0  0  0  0  0
    0.2530   17.0340   -3.3590 C   0  0  0  0  0  0  0  0  0  0  0  0
    1.1800   17.7280   -2.3640 C   0  0  2  0  0  0  0  0  0  0  0  0
    2.4510   17.9370   -2.9870 O   0  0  0  0  0  0  0  0  0  0  0  0
    1.3700   16.9300   -1.0440 C   0  0  0  0  0  0  0  0  0  0  0  0
    0.0570   16.9620   -0.2230 C   0  0  0  0  0  0  0  0  0  0  0  0
    2.4350   17.6680   -0.1890 C   0  0  0  0  0  0  0  0  0  0  0  0
    1.2400   13.2370   -2.7160 C   0  0  1  0  0  0  0  0  0  0  0  0
    2.3260   13.2040   -3.8330 C   0  0  0  0  0  0  0  0  0  0  0  0
   -0.0180   12.4890   -3.2960 C   0  0  0  0  0  0  0  0  0  0  0  0
   -0.9680   11.8320   -2.2770 C   0  0  0  0  0  0  0  0  0  0  0  0
   -0.1880   10.9750   -1.2750 C   0  0  2  0  0  0  0  0  0  0  0  0
    0.5090    9.8210   -2.0720 C   0  0  0  0  0  0  0  0  0  0  0  0
   -0.7789    7.6626   -1.6448 H   0  0  0  0  0  0  0  0  0  0  0  0
   -2.3176    8.2379   -2.3714 H   0  0  0  0  0  0  0  0  0  0  0  0
   -0.8710    9.3028   -2.3714 H   0  0  0  0  0  0  0  0  0  0  0  0
   -1.6843    8.3348    0.3069 H   0  0  0  0  0  0  0  0  0  0  0  0
   -3.5398   10.0695    0.4900 H   0  0  0  0  0  0  0  0  0  0  0  0
   -3.5558   10.0510   -1.3381 H   0  0  0  0  0  0  0  0  0  0  0  0
   -3.7346    7.4023   -0.0131 H   0  0  0  0  0  0  0  0  0  0  0  0
   -5.1554    8.5089    0.1957 H   0  0  0  0  0  0  0  0  0  0  0  0
   -3.8433    8.3679   -2.2456 H   0  0  0  0  0  0  0  0  0  0  0  0
   -5.7595    6.1388   -0.0861 H   0  0  0  0  0  0  0  0  0  0  0  0
   -6.9840    5.4240   -1.1891 H   0  0  0  0  0  0  0  0  0  0  0  0
   -5.3005    4.7973   -1.1891 H   0  0  0  0  0  0  0  0  0  0  0  0
   -4.5169    6.0760   -3.8941 H   0  0  0  0  0  0  0  0  0  0  0  0
   -6.0725    5.2282   -3.5977 H   0  0  0  0  0  0  0  0  0  0  0  0
   -6.0725    6.9238   -4.1905 H   0  0  0  0  0  0  0  0  0  0  0  0
   -1.7968   11.0293    0.2038 H   0  0  0  0  0  0  0  0  0  0  0  0
   -0.2857   10.3183    1.9480 H   0  0  0  0  0  0  0  0  0  0  0  0
    0.3402    8.9766    0.9654 H   0  0  0  0  0  0  0  0  0  0  0  0
    1.6950   11.4423    1.4657 H   0  0  0  0  0  0  0  0  0  0  0  0
    2.1531   10.3021    0.2034 H   0  0  0  0  0  0  0  0  0  0  0  0
    0.2179   12.8341    1.4223 H   0  0  0  0  0  0  0  0  0  0  0  0
    0.5468   14.0062    0.1014 H   0  0  0  0  0  0  0  0  0  0  0  0
   -0.9788   13.0579    0.1014 H   0  0  0  0  0  0  0  0  0  0  0  0
    2.3495   11.5842   -1.8417 H   0  0  0  0  0  0  0  0  0  0  0  0
    3.1360   12.9308    0.2079 H   0  0  0  0  0  0  0  0  0  0  0  0
    3.8458   13.2368   -1.4632 H   0  0  0  0  0  0  0  0  0  0  0  0
    3.3251   15.3718   -0.0093 H   0  0  0  0  0  0  0  0  0  0  0  0
   -0.1490   14.6311   -1.9278 H   0  0  0  0  0  0  0  0  0  0  0  0
    1.7337   15.6819   -4.1298 H   0  0  0  0  0  0  0  0  0  0  0  0
    0.0054   15.1504   -4.3327 H   0  0  0  0  0  0  0  0  0  0  0  0
    0.2281   17.6143   -4.2932 H   0  0  0  0  0  0  0  0  0  0  0  0
   -0.7529   16.9723   -2.9181 H   0  0  0  0  0  0  0  0  0  0  0  0
    0.7109   18.6838   -2.0875 H   0  0  0  0  0  0  0  0  0  0  0  0
    2.7790   18.8070   -2.7030 H   0  0  0  0  0  0  0  0  0  0  0  0
    0.2957   16.9562    0.8508 H   0  0  0  0  0  0  0  0  0  0  0  0
   -0.5067   17.8742   -0.4683 H   0  0  0  0  0  0  0  0  0  0  0  0
   -0.5505   16.0784   -0.4683 H   0  0  0  0  0  0  0  0  0  0  0  0
    2.2171   17.5170    0.8786 H   0  0  0  0  0  0  0  0  0  0  0  0
    3.4329   17.2668   -0.4199 H   0  0  0  0  0  0  0  0  0  0  0  0
    2.4097   18.7432   -0.4199 H   0  0  0  0  0  0  0  0  0  0  0  0
    3.3246   13.1737   -3.3727 H   0  0  0  0  0  0  0  0  0  0  0  0
    2.1827   12.3098   -4.4574 H   0  0  0  0  0  0  0  0  0  0  0  0
    2.2373   14.1053   -4.4574 H   0  0  0  0  0  0  0  0  0  0  0  0
   -0.6032   13.2205   -3.8726 H   0  0  0  0  0  0  0  0  0  0  0  0
    0.3904   11.6557   -3.8867 H   0  0  0  0  0  0  0  0  0  0  0  0
   -1.5111   12.6183   -1.7322 H   0  0  0  0  0  0  0  0  0  0  0  0
   -1.6718   11.1842   -2.8201 H   0  0  0  0  0  0  0  0  0  0  0  0
    0.9450    9.0991   -1.3658 H   0  0  0  0  0  0  0  0  0  0  0  0
   -0.2330    9.3124   -2.7050 H   0  0  0  0  0  0  0  0  0  0  0  0
    1.3046   10.2410   -2.7050 H   0  0  0  0  0  0  0  0  0  0  0  0
  1  2  1  0
  2  3  1  0
  3  4  1  0
  4  5  1  0
  5  6  1  0
  6  7  1  0
  7  8  1  0
  7  9  1  0
  2 10  1  0
 10 11  1  0
 11 12  1  0
 12 13  1  0
 13 14  1  1
 13 15  1  0
 15 16  1  0
 16 17  1  0
 17 18  2  0
 18 19  1  0
 19 20  1  0
 20 21  1  0
 21 22  1  0
 22 23  1  0
 22 24  1  0
 24 25  1  0
 24 26  1  0
 19 27  1  0
 27 28  1  6
 27 29  1  0
 29 30  1  0
 30 31  1  0
 31 32  1  6
  7  5  1  0
 31 10  1  0
 31 13  1  0
 27 15  1  0
 24 18  1  0
  1 33  1  0
  1 34  1  0
  1 35  1  0
  2 36  1  1
  3 37  1  0
  3 38  1  0
  4 39  1  0
  4 40  1  0
  5 41  1  6
  8 42  1  0
  8 43  1  0
  8 44  1  0
  9 45  1  0
  9 46  1  0
  9 47  1  0
 10 48  1  1
 11 49  1  0
 11 50  1  0
 12 51  1  0
 12 52  1  0
 14 53  1  0
 14 54  1  0
 14 55  1  0
 15 56  1  6
 16 57  1  0
 16 58  1  0
 17 59  1  0
 19 60  1  1
 20 61  1  0
 20 62  1  0
 21 63  1  0
 21 64  1  0
 22 65  1  1
 23 66  1  0
 25 67  1  0
 25 68  1  0
 25 69  1  0
 26 70  1  0
 26 71  1  0
 26 72  1  0
 28 73  1  0
 28 74  1  0
 28 75  1  0
 29 76  1  0
 29 77  1  0
 30 78  1  0
 30 79  1  0
 32 80  1  0
 32 81  1  0
 32 82  1  0
M  END
>  <meeko>  (1) 
{"is_sidechain": [false], "intermolecular_energy": 2.731, "internal_energy": -0.839}

$$$$
EPH_relaxed_0001_pdb2pqr_Repair_28_r2_0001_out
     RDKit          3D

 82 86  0  0  0  0  0  0  0  0999 V2000
    4.2320   17.5740   -0.6150 C   0  0  0  0  0  0  0  0  0  0  0  0
    2.8690   18.1420   -0.2090 C   0  0  2  0  0  0  0  0  0  0  0  0
    2.9170   18.8400    1.1640 C   0  0  0  0  0  0  0  0  0  0  0  0
    4.2550   18.6790    1.8910 C   0  0  0  0  0  0  0  0  0  0  0  0
    4.2010   19.2340    3.2820 C   0  0  2  0  0  0  0  0  0  0  0  0
    5.2210   20.1940    3.5840 O   0  0  0  0  0  0  0  0  0  0  0  0
    5.2640   18.9670    4.3310 C   0  0  0  0  0  0  0  0  0  0  0  0
    6.4580   18.1150    4.0330 C   0  0  0  0  0  0  0  0  0  0  0  0
    4.9020   19.1270    5.7740 C   0  0  0  0  0  0  0  0  0  0  0  0
    1.8270   17.0290   -0.1920 C   0  0  1  0  0  0  0  0  0  0  0  0
    0.3950   17.5470   -0.4890 C   0  0  0  0  0  0  0  0  0  0  0  0
   -0.3270   16.4330   -1.2890 C   0  0  0  0  0  0  0  0  0  0  0  0
    0.5850   15.1930   -1.1410 C   0  0  1  0  0  0  0  0  0  0  0  0
    0.2270   14.5960    0.2560 C   0  0  0  0  0  0  0  0  0  0  0  0
    0.4800   14.1180   -2.2720 C   0  0  2  0  0  0  0  0  0  0  0  0
   -0.8980   13.4480   -2.4080 C   0  0  0  0  0  0  0  0  0  0  0  0
   -1.0870   12.2070   -1.5990 C   0  0  0  0  0  0  0  0  0  0  0  0
   -0.1030   11.4950   -1.0180 C   0  0  0  0  0  0  0  0  0  0  0  0
    1.3700   11.8680   -1.2300 C   0  0  1  0  0  0  0  0  0  0  0  0
    2.1850   10.5900   -1.5580 C   0  0  0  0  0  0  0  0  0  0  0  0
    2.0060    9.4960   -0.5090 C   0  0  0  0  0  0  0  0  0  0  0  0
    0.5350    9.1120   -0.3690 C   0  0  2  0  0  0  0  0  0  0  0  0
    0.1040    8.4870   -1.5820 O   0  0  0  0  0  0  0  0  0  0  0  0
   -0.3860   10.3220   -0.0480 C   0  0  0  0  0  0  0  0  0  0  0  0
   -0.1190   10.8110    1.3970 C   0  0  0  0  0  0  0  0  0  0  0  0
   -1.8560    9.8230   -0.0720 C   0  0  0  0  0  0  0  0  0  0  0  0
    1.6450   13.0480   -2.2590 C   0  0  1  0  0  0  0  0  0  0  0  0
    1.7430   12.4790   -3.7080 C   0  0  0  0  0  0  0  0  0  0  0  0
    3.0460   13.6920   -1.9400 C   0  0  0  0  0  0  0  0  0  0  0  0
    3.0670   14.8300   -0.9010 C   0  0  0  0  0  0  0  0  0  0  0  0
    1.9970   15.8800   -1.2170 C   0  0  2  0  0  0  0  0  0  0  0  0
    2.3440   16.5130   -2.6070 C   0  0  0  0  0  0  0  0  0  0  0  0
    4.8121   17.3322    0.2878 H   0  0  0  0  0  0  0  0  0  0  0  0
    4.0860   16.6618   -1.2122 H   0  0  0  0  0  0  0  0  0  0  0  0
    4.7769   18.3199   -1.2122 H   0  0  0  0  0  0  0  0  0  0  0  0
    2.5905   18.9008   -0.9551 H   0  0  0  0  0  0  0  0  0  0  0  0
    2.7303   19.9137    1.0143 H   0  0  0  0  0  0  0  0  0  0  0  0
    2.1505   18.3639    1.7931 H   0  0  0  0  0  0  0  0  0  0  0  0
    4.5055   17.6092    1.9436 H   0  0  0  0  0  0  0  0  0  0  0  0
    5.0194   19.2360    1.3293 H   0  0  0  0  0  0  0  0  0  0  0  0
    3.1052   19.1405    3.3017 H   0  0  0  0  0  0  0  0  0  0  0  0
    6.9186   17.7864    4.9763 H   0  0  0  0  0  0  0  0  0  0  0  0
    6.1448   17.2352    3.4518 H   0  0  0  0  0  0  0  0  0  0  0  0
    7.1881   18.6973    3.4518 H   0  0  0  0  0  0  0  0  0  0  0  0
    5.7281   18.7619    6.4019 H   0  0  0  0  0  0  0  0  0  0  0  0
    4.7190   20.1899    5.9904 H   0  0  0  0  0  0  0  0  0  0  0  0
    3.9928   18.5469    5.9904 H   0  0  0  0  0  0  0  0  0  0  0  0
    1.9803   16.6486    0.8287 H   0  0  0  0  0  0  0  0  0  0  0  0
   -0.1392   17.7443    0.4521 H   0  0  0  0  0  0  0  0  0  0  0  0
    0.4256   18.4866   -1.0602 H   0  0  0  0  0  0  0  0  0  0  0  0
   -1.3232   16.2350   -0.8666 H   0  0  0  0  0  0  0  0  0  0  0  0
   -0.4855   16.7111   -2.3414 H   0  0  0  0  0  0  0  0  0  0  0  0
    0.6203   15.2518    1.0467 H   0  0  0  0  0  0  0  0  0  0  0  0
   -0.8661   14.5196    0.3529 H   0  0  0  0  0  0  0  0  0  0  0  0
    0.6745   13.5958    0.3529 H   0  0  0  0  0  0  0  0  0  0  0  0
    0.6107   14.7198   -3.1834 H   0  0  0  0  0  0  0  0  0  0  0  0
   -1.6619   14.1759   -2.0972 H   0  0  0  0  0  0  0  0  0  0  0  0
   -0.9843   13.1409   -3.4607 H   0  0  0  0  0  0  0  0  0  0  0  0
   -2.1169   11.8440   -1.4666 H   0  0  0  0  0  0  0  0  0  0  0  0
    1.7156   12.2972   -0.2780 H   0  0  0  0  0  0  0  0  0  0  0  0
    1.8544   10.2015   -2.5325 H   0  0  0  0  0  0  0  0  0  0  0  0
    3.2493   10.8675   -1.5725 H   0  0  0  0  0  0  0  0  0  0  0  0
    2.5826    8.6093   -0.8111 H   0  0  0  0  0  0  0  0  0  0  0  0
    2.3643    9.8752    0.4594 H   0  0  0  0  0  0  0  0  0  0  0  0
    0.4539    8.4217    0.4836 H   0  0  0  0  0  0  0  0  0  0  0  0
    0.8540    7.9810   -1.9350 H   0  0  0  0  0  0  0  0  0  0  0  0
   -0.5195   10.0775    2.1122 H   0  0  0  0  0  0  0  0  0  0  0  0
    0.9644   10.9210    1.5526 H   0  0  0  0  0  0  0  0  0  0  0  0
   -0.6122   11.7818    1.5526 H   0  0  0  0  0  0  0  0  0  0  0  0
   -2.2183    9.7000    0.9593 H   0  0  0  0  0  0  0  0  0  0  0  0
   -2.4843   10.5582   -0.5962 H   0  0  0  0  0  0  0  0  0  0  0  0
   -1.9069    8.8572   -0.5962 H   0  0  0  0  0  0  0  0  0  0  0  0
    1.9296   11.3958   -3.6647 H   0  0  0  0  0  0  0  0  0  0  0  0
    0.7992   12.6675   -4.2406 H   0  0  0  0  0  0  0  0  0  0  0  0
    2.5694   12.9724   -4.2406 H   0  0  0  0  0  0  0  0  0  0  0  0
    3.7038   12.8916   -1.5703 H   0  0  0  0  0  0  0  0  0  0  0  0
    3.3706   14.1567   -2.8827 H   0  0  0  0  0  0  0  0  0  0  0  0
    2.8751   14.4096    0.0972 H   0  0  0  0  0  0  0  0  0  0  0  0
    4.0540   15.3146   -0.9311 H   0  0  0  0  0  0  0  0  0  0  0  0
    2.8677   17.4683   -2.4544 H   0  0  0  0  0  0  0  0  0  0  0  0
    2.9916   15.8259   -3.1714 H   0  0  0  0  0  0  0  0  0  0  0  0
    1.4165   16.6894   -3.1714 H   0  0  0  0  0  0  0  0  0  0  0  0
  1  2  1  0
  2  3  1  0
  3  4  1  0
  4  5  1  0
  5  6  1  0
  6  7  1  0
  7  8  1  0
  7  9  1  0
  2 10  1  0
 10 11  1  0
 11 12  1  0
 12 13  1  0
 13 14  1  1
 13 15  1  0
 15 16  1  0
 16 17  1  0
 17 18  2  0
 18 19  1  0
 19 20  1  0
 20 21  1  0
 21 22  1  0
 22 23  1  0
 22 24  1  0
 24 25  1  0
 24 26  1  0
 19 27  1  0
 27 28  1  6
 27 29  1  0
 29 30  1  0
 30 31  1  0
 31 32  1  6
  7  5  1  0
 31 10  1  0
 31 13  1  0
 27 15  1  0
 24 18  1  0
  1 33  1  0
  1 34  1  0
  1 35  1  0
  2 36  1  6
  3 37  1  0
  3 38  1  0
  4 39  1  0
  4 40  1  0
  5 41  1  1
  8 42  1  0
  8 43  1  0
  8 44  1  0
  9 45  1  0
  9 46  1  0
  9 47  1  0
 10 48  1  1
 11 49  1  0
 11 50  1  0
 12 51  1  0
 12 52  1  0
 14 53  1  0
 14 54  1  0
 14 55  1  0
 15 56  1  6
 16 57  1  0
 16 58  1  0
 17 59  1  0
 19 60  1  1
 20 61  1  0
 20 62  1  0
 21 63  1  0
 21 64  1  0
 22 65  1  1
 23 66  1  0
 25 67  1  0
 25 68  1  0
 25 69  1  0
 26 70  1  0
 26 71  1  0
 26 72  1  0
 28 73  1  0
 28 74  1  0
 28 75  1  0
 29 76  1  0
 29 77  1  0
 30 78  1  0
 30 79  1  0
 32 80  1  0
 32 81  1  0
 32 82  1  0
M  END
>  <meeko>  (2) 
{"is_sidechain": [false], "intermolecular_energy": 2.731, "internal_energy": -0.839}

$$$$
EPH_relaxed_0001_pdb2pqr_Repair_28_r2_0001_out
     RDKit          3D

 82 86  0  0  0  0  0  0  0  0999 V2000
    0.4490   18.4600   -0.0160 C   0  0  0  0  0  0  0  0  0  0  0  0
    1.5280   17.3940   -0.2260 C   0  0  2  0  0  0  0  0  0  0  0  0
    2.7520   17.9480   -0.9820 C   0  0  0  0  0  0  0  0  0  0  0  0
    3.9830   18.1530   -0.0940 C   0  0  0  0  0  0  0  0  0  0  0  0
    3.6040   18.6260    1.2770 C   0  0  2  0  0  0  0  0  0  0  0  0
    3.8460   20.0190    1.5180 O   0  0  0  0  0  0  0  0  0  0  0  0
    4.6130   19.0960    2.3080 C   0  0  0  0  0  0  0  0  0  0  0  0
    6.0800   19.1150    2.0120 C   0  0  0  0  0  0  0  0  0  0  0  0
    4.2240   19.0710    3.7530 C   0  0  0  0  0  0  0  0  0  0  0  0
    0.9440   16.2050   -0.9810 C   0  0  1  0  0  0  0  0  0  0  0  0
    0.7910   16.4790   -2.5010 C   0  0  0  0  0  0  0  0  0  0  0  0
    1.0710   15.1390   -3.2270 C   0  0  0  0  0  0  0  0  0  0  0  0
    1.0480   14.0740   -2.1050 C   0  0  1  0  0  0  0  0  0  0  0  0
   -0.4660   13.7750   -1.8680 C   0  0  0  0  0  0  0  0  0  0  0  0
    1.8600   12.7660   -2.3760 C   0  0  2  0  0  0  0  0  0  0  0  0
    1.3730   11.9320   -3.5740 C   0  0  0  0  0  0  0  0  0  0  0  0
    0.3470   10.8950   -3.2540 C   0  0  0  0  0  0  0  0  0  0  0  0
    0.0450   10.4480   -2.0210 C   0  0  0  0  0  0  0  0  0  0  0  0
    0.8350   10.9250   -0.7950 C   0  0  1  0  0  0  0  0  0  0  0  0
    1.2060    9.7050    0.0890 C   0  0  0  0  0  0  0  0  0  0  0  0
   -0.0100    8.8660    0.4680 C   0  0  0  0  0  0  0  0  0  0  0  0
   -0.7350    8.3620   -0.7770 C   0  0  2  0  0  0  0  0  0  0  0  0
    0.1130    7.4330   -1.4600 O   0  0  0  0  0  0  0  0  0  0  0  0
   -1.1500    9.5020   -1.7480 C   0  0  0  0  0  0  0  0  0  0  0  0
   -2.2940   10.3330   -1.1160 C   0  0  0  0  0  0  0  0  0  0  0  0
   -1.7430    8.8490   -3.0260 C   0  0  0  0  0  0  0  0  0  0  0  0
    2.0820   11.8640   -1.0950 C   0  0  1  0  0  0  0  0  0  0  0  0
    3.3460   10.9950   -1.3760 C   0  0  0  0  0  0  0  0  0  0  0  0
    2.4050   12.7160    0.1890 C   0  0  0  0  0  0  0  0  0  0  0  0
    1.6580   14.0550    0.3400 C   0  0  0  0  0  0  0  0  0  0  0  0
    1.7450   14.8800   -0.9480 C   0  0  2  0  0  0  0  0  0  0  0  0
    3.2540   15.2150   -1.2010 C   0  0  0  0  0  0  0  0  0  0  0  0
    0.2918   18.6153    1.0616 H   0  0  0  0  0  0  0  0  0  0  0  0
    0.7713   19.4042   -0.4794 H   0  0  0  0  0  0  0  0  0  0  0  0
   -0.4912   18.1263   -0.4794 H   0  0  0  0  0  0  0  0  0  0  0  0
    1.8720   17.0711    0.7677 H   0  0  0  0  0  0  0  0  0  0  0  0
    3.0151   17.2409   -1.7825 H   0  0  0  0  0  0  0  0  0  0  0  0
    2.4686   18.9368   -1.3719 H   0  0  0  0  0  0  0  0  0  0  0  0
    4.5219   17.1982   -0.0055 H   0  0  0  0  0  0  0  0  0  0  0  0
    4.6176   18.9217   -0.5591 H   0  0  0  0  0  0  0  0  0  0  0  0
    2.7826   17.8961    1.3277 H   0  0  0  0  0  0  0  0  0  0  0  0
    6.6445   19.1223    2.9561 H   0  0  0  0  0  0  0  0  0  0  0  0
    6.3485   18.2203    1.4312 H   0  0  0  0  0  0  0  0  0  0  0  0
    6.3252   20.0164    1.4312 H   0  0  0  0  0  0  0  0  0  0  0  0
    5.1279   19.1291    4.3771 H   0  0  0  0  0  0  0  0  0  0  0  0
    3.5715   19.9291    3.9720 H   0  0  0  0  0  0  0  0  0  0  0  0
    3.6867   18.1365    3.9720 H   0  0  0  0  0  0  0  0  0  0  0  0
   -0.0030   16.0860   -0.4342 H   0  0  0  0  0  0  0  0  0  0  0  0
   -0.2297   16.8240   -2.7229 H   0  0  0  0  0  0  0  0  0  0  0  0
    1.4887   17.2617   -2.8335 H   0  0  0  0  0  0  0  0  0  0  0  0
    0.2910   14.9322   -3.9746 H   0  0  0  0  0  0  0  0  0  0  0  0
    2.0273   15.1513   -3.7705 H   0  0  0  0  0  0  0  0  0  0  0  0
   -0.6671   13.7353   -0.7873 H   0  0  0  0  0  0  0  0  0  0  0  0
   -1.0728   14.5707   -2.3249 H   0  0  0  0  0  0  0  0  0  0  0  0
   -0.7248   12.8084   -2.3249 H   0  0  0  0  0  0  0  0  0  0  0  0
    2.8467   13.1565   -2.6659 H   0  0  0  0  0  0  0  0  0  0  0  0
    0.9406   12.6210   -4.3145 H   0  0  0  0  0  0  0  0  0  0  0  0
    2.2536   11.3855   -3.9426 H   0  0  0  0  0  0  0  0  0  0  0  0
   -0.2089   10.4597   -4.0975 H   0  0  0  0  0  0  0  0  0  0  0  0
    0.1613   11.5956   -0.2415 H   0  0  0  0  0  0  0  0  0  0  0  0
    1.9135    9.0704   -0.4648 H   0  0  0  0  0  0  0  0  0  0  0  0
    1.6496   10.0894    1.0193 H   0  0  0  0  0  0  0  0  0  0  0  0
    0.3199    8.0038    1.0662 H   0  0  0  0  0  0  0  0  0  0  0  0
   -0.7028    9.4939    1.0474 H   0  0  0  0  0  0  0  0  0  0  0  0
   -1.6658    7.8796   -0.4440 H   0  0  0  0  0  0  0  0  0  0  0  0
    1.0140    7.7990   -1.4550 H   0  0  0  0  0  0  0  0  0  0  0  0
   -2.2224   10.2810   -0.0196 H   0  0  0  0  0  0  0  0  0  0  0  0
   -2.2082   11.3808   -1.4398 H   0  0  0  0  0  0  0  0  0  0  0  0
   -3.2639    9.9274   -1.4398 H   0  0  0  0  0  0  0  0  0  0  0  0
   -2.4568    8.0629   -2.7387 H   0  0  0  0  0  0  0  0  0  0  0  0
   -2.2610    9.6145   -3.6223 H   0  0  0  0  0  0  0  0  0  0  0  0
   -0.9312    8.4069   -3.6223 H   0  0  0  0  0  0  0  0  0  0  0  0
    3.7972   10.6848   -0.4220 H   0  0  0  0  0  0  0  0  0  0  0  0
    3.0574   10.1035   -1.9521 H   0  0  0  0  0  0  0  0  0  0  0  0
    4.0750   11.5837   -1.9521 H   0  0  0  0  0  0  0  0  0  0  0  0
    2.1633   12.0992    1.0672 H   0  0  0  0  0  0  0  0  0  0  0  0
    3.4667   12.9877    0.0947 H   0  0  0  0  0  0  0  0  0  0  0  0
    0.6008   13.8536    0.5675 H   0  0  0  0  0  0  0  0  0  0  0  0
    2.1252   14.6272    1.1551 H   0  0  0  0  0  0  0  0  0  0  0  0
    3.7708   15.3297   -0.2368 H   0  0  0  0  0  0  0  0  0  0  0  0
    3.7201   14.3985   -1.7720 H   0  0  0  0  0  0  0  0  0  0  0  0
    3.3308   16.1521   -1.7720 H   0  0  0  0  0  0  0  0  0  0  0  0
  1  2  1  0
  2  3  1  0
  3  4  1  0
  4  5  1  0
  5  6  1  0
  6  7  1  0
  7  8  1  0
  7  9  1  0
  2 10  1  0
 10 11  1  0
 11 12  1  0
 12 13  1  0
 13 14  1  1
 13 15  1  0
 15 16  1  0
 16 17  1  0
 17 18  2  0
 18 19  1  0
 19 20  1  0
 20 21  1  0
 21 22  1  0
 22 23  1  0
 22 24  1  0
 24 25  1  0
 24 26  1  0
 19 27  1  0
 27 28  1  6
 27 29  1  0
 29 30  1  0
 30 31  1  0
 31 32  1  6
  7  5  1  0
 31 10  1  0
 31 13  1  0
 27 15  1  0
 24 18  1  0
  1 33  1  0
  1 34  1  0
  1 35  1  0
  2 36  1  1
  3 37  1  0
  3 38  1  0
  4 39  1  0
  4 40  1  0
  5 41  1  1
  8 42  1  0
  8 43  1  0
  8 44  1  0
  9 45  1  0
  9 46  1  0
  9 47  1  0
 10 48  1  1
 11 49  1  0
 11 50  1  0
 12 51  1  0
 12 52  1  0
 14 53  1  0
 14 54  1  0
 14 55  1  0
 15 56  1  6
 16 57  1  0
 16 58  1  0
 17 59  1  0
 19 60  1  1
 20 61  1  0
 20 62  1  0
 21 63  1  0
 21 64  1  0
 22 65  1  1
 23 66  1  0
 25 67  1  0
 25 68  1  0
 25 69  1  0
 26 70  1  0
 26 71  1  0
 26 72  1  0
 28 73  1  0
 28 74  1  0
 28 75  1  0
 29 76  1  0
 29 77  1  0
 30 78  1  0
 30 79  1  0
 32 80  1  0
 32 81  1  0
 32 82  1  0
M  END
>  <meeko>  (3) 
{"is_sidechain": [false], "intermolecular_energy": 2.731, "internal_energy": -0.839}

$$$$
EPH_relaxed_0001_pdb2pqr_Repair_28_r2_0001_out
     RDKit          3D

 82 86  0  0  0  0  0  0  0  0999 V2000
    2.1740   18.0350   -2.5270 C   0  0  0  0  0  0  0  0  0  0  0  0
    0.6560   17.8930   -2.6700 C   0  0  2  0  0  0  0  0  0  0  0  0
   -0.0950   18.3930   -1.4200 C   0  0  0  0  0  0  0  0  0  0  0  0
    0.5630   17.9790   -0.1010 C   0  0  0  0  0  0  0  0  0  0  0  0
    1.1400   19.1570    0.6250 C   0  0  2  0  0  0  0  0  0  0  0  0
    2.0630   19.9400   -0.1430 O   0  0  0  0  0  0  0  0  0  0  0  0
    2.6040   19.2690    1.0060 C   0  0  0  0  0  0  0  0  0  0  0  0
    3.5820   18.1860    0.6750 C   0  0  0  0  0  0  0  0  0  0  0  0
    2.9850   20.1940    2.1200 C   0  0  0  0  0  0  0  0  0  0  0  0
    0.2930   16.4390   -2.9480 C   0  0  1  0  0  0  0  0  0  0  0  0
    0.3350   16.0910   -4.4600 C   0  0  0  0  0  0  0  0  0  0  0  0
    0.8340   14.6270   -4.5690 C   0  0  0  0  0  0  0  0  0  0  0  0
    0.7450   14.0770   -3.1260 C   0  0  1  0  0  0  0  0  0  0  0  0
   -0.7540   13.6850   -2.9380 C   0  0  0  0  0  0  0  0  0  0  0  0
    1.7010   12.8880   -2.7800 C   0  0  2  0  0  0  0  0  0  0  0  0
    1.4650   11.6040   -3.5940 C   0  0  0  0  0  0  0  0  0  0  0  0
    0.5010   10.6360   -2.9920 C   0  0  0  0  0  0  0  0  0  0  0  0
    0.0670   10.6540   -1.7180 C   0  0  0  0  0  0  0  0  0  0  0  0
    0.6280   11.6640   -0.7090 C   0  0  1  0  0  0  0  0  0  0  0  0
    0.9760   10.9340    0.6150 C   0  0  0  0  0  0  0  0  0  0  0  0
   -0.2020   10.1430    1.1750 C   0  0  0  0  0  0  0  0  0  0  0  0
   -0.6940    9.1100    0.1650 C   0  0  2  0  0  0  0  0  0  0  0  0
    0.3220    8.1180   -0.0120 O   0  0  0  0  0  0  0  0  0  0  0  0
   -1.0660    9.7270   -1.2120 C   0  0  0  0  0  0  0  0  0  0  0  0
   -2.3580   10.5710   -1.0720 C   0  0  0  0  0  0  0  0  0  0  0  0
   -1.4110    8.5630   -2.1800 C   0  0  0  0  0  0  0  0  0  0  0  0
    1.8160   12.5800   -1.2320 C   0  0  1  0  0  0  0  0  0  0  0  0
    3.1800   11.8520   -1.0240 C   0  0  0  0  0  0  0  0  0  0  0  0
    1.8760   13.8910   -0.3630 C   0  0  0  0  0  0  0  0  0  0  0  0
    1.0000   15.0710   -0.8250 C   0  0  0  0  0  0  0  0  0  0  0  0
    1.1960   15.3480   -2.3190 C   0  0  2  0  0  0  0  0  0  0  0  0
    2.6900   15.7670   -2.5360 C   0  0  0  0  0  0  0  0  0  0  0  0
    2.4410   18.0600   -1.4602 H   0  0  0  0  0  0  0  0  0  0  0  0
    2.6693   17.1793   -3.0090 H   0  0  0  0  0  0  0  0  0  0  0  0
    2.5020   18.9678   -3.0090 H   0  0  0  0  0  0  0  0  0  0  0  0
    0.3441   18.5225   -3.5164 H   0  0  0  0  0  0  0  0  0  0  0  0
   -0.1382   19.4915   -1.4569 H   0  0  0  0  0  0  0  0  0  0  0  0
   -1.0941   17.9332   -1.4395 H   0  0  0  0  0  0  0  0  0  0  0  0
   -0.1926   17.5007    0.5395 H   0  0  0  0  0  0  0  0  0  0  0  0
    1.3830   17.2828   -0.3308 H   0  0  0  0  0  0  0  0  0  0  0  0
    0.2145   19.2823    1.2062 H   0  0  0  0  0  0  0  0  0  0  0  0
    3.9754   17.7504    1.6053 H   0  0  0  0  0  0  0  0  0  0  0  0
    3.0782   17.4038    0.0882 H   0  0  0  0  0  0  0  0  0  0  0  0
    4.4114   18.6077    0.0882 H   0  0  0  0  0  0  0  0  0  0  0  0
    2.7844   19.7071    3.0857 H   0  0  0  0  0  0  0  0  0  0  0  0
    4.0557   20.4352    2.0463 H   0  0  0  0  0  0  0  0  0  0  0  0
    2.3948   21.1193    2.0463 H   0  0  0  0  0  0  0  0  0  0  0  0
   -0.7078   16.4087   -2.4926 H   0  0  0  0  0  0  0  0  0  0  0  0
   -0.6701   16.1821   -4.8976 H   0  0  0  0  0  0  0  0  0  0  0  0
    1.0010   16.7766   -5.0045 H   0  0  0  0  0  0  0  0  0  0  0  0
    0.1903   14.0466   -5.2464 H   0  0  0  0  0  0  0  0  0  0  0  0
    1.8530   14.5626   -4.9783 H   0  0  0  0  0  0  0  0  0  0  0  0
   -0.9853   13.6245   -1.8643 H   0  0  0  0  0  0  0  0  0  0  0  0
   -1.3938   14.4460   -3.4086 H   0  0  0  0  0  0  0  0  0  0  0  0
   -0.9394   12.7082   -3.4086 H   0  0  0  0  0  0  0  0  0  0  0  0
    2.6810   13.2693   -3.1029 H   0  0  0  0  0  0  0  0  0  0  0  0
    1.0821   11.8943   -4.5835 H   0  0  0  0  0  0  0  0  0  0  0  0
    2.4341   11.0850   -3.6318 H   0  0  0  0  0  0  0  0  0  0  0  0
    0.1124    9.8406   -3.6449 H   0  0  0  0  0  0  0  0  0  0  0  0
   -0.1746   12.3952   -0.5322 H   0  0  0  0  0  0  0  0  0  0  0  0
    1.8087   10.2403    0.4267 H   0  0  0  0  0  0  0  0  0  0  0  0
    1.2463   11.6998    1.3569 H   0  0  0  0  0  0  0  0  0  0  0  0
    0.1149    9.6265    2.0930 H   0  0  0  0  0  0  0  0  0  0  0  0
   -1.0235   10.8419    1.3913 H   0  0  0  0  0  0  0  0  0  0  0  0
   -1.6162    8.6674    0.5696 H   0  0  0  0  0  0  0  0  0  0  0  0
    0.9740    8.4730   -0.6390 H   0  0  0  0  0  0  0  0  0  0  0  0
   -2.5853   10.7195   -0.0060 H   0  0  0  0  0  0  0  0  0  0  0  0
   -2.2117   11.5483   -1.5553 H   0  0  0  0  0  0  0  0  0  0  0  0
   -3.1941   10.0444   -1.5553 H   0  0  0  0  0  0  0  0  0  0  0  0
   -1.6762    7.6682   -1.5977 H   0  0  0  0  0  0  0  0  0  0  0  0
   -2.2617    8.8533   -2.8140 H   0  0  0  0  0  0  0  0  0  0  0  0
   -0.5395    8.3428   -2.8140 H   0  0  0  0  0  0  0  0  0  0  0  0
    3.3786   11.7460    0.0527 H   0  0  0  0  0  0  0  0  0  0  0  0
    3.1387   10.8560   -1.4890 H   0  0  0  0  0  0  0  0  0  0  0  0
    3.9845   12.4407   -1.4890 H   0  0  0  0  0  0  0  0  0  0  0  0
    1.5668   13.6272    0.6592 H   0  0  0  0  0  0  0  0  0  0  0  0
    2.9122   14.2490   -0.4532 H   0  0  0  0  0  0  0  0  0  0  0  0
   -0.0568   14.8287   -0.6396 H   0  0  0  0  0  0  0  0  0  0  0  0
    1.2943   15.9681   -0.2606 H   0  0  0  0  0  0  0  0  0  0  0  0
    3.1779   15.9038   -1.5597 H   0  0  0  0  0  0  0  0  0  0  0  0
    3.2130   14.9809   -3.1003 H   0  0  0  0  0  0  0  0  0  0  0  0
    2.7280   16.7104   -3.1003 H   0  0  0  0  0  0  0  0  0  0  0  0
  1  2  1  0
  2  3  1  0
  3  4  1  0
  4  5  1  0
  5  6  1  0
  6  7  1  0
  7  8  1  0
  7  9  1  0
  2 10  1  0
 10 11  1  0
 11 12  1  0
 12 13  1  0
 13 14  1  1
 13 15  1  0
 15 16  1  0
 16 17  1  0
 17 18  2  0
 18 19  1  0
 19 20  1  0
 20 21  1  0
 21 22  1  0
 22 23  1  0
 22 24  1  0
 24 25  1  0
 24 26  1  0
 19 27  1  0
 27 28  1  6
 27 29  1  0
 29 30  1  0
 30 31  1  0
 31 32  1  1
  7  5  1  0
 31 10  1  0
 31 13  1  0
 27 15  1  0
 24 18  1  0
  1 33  1  0
  1 34  1  0
  1 35  1  0
  2 36  1  6
  3 37  1  0
  3 38  1  0
  4 39  1  0
  4 40  1  0
  5 41  1  1
  8 42  1  0
  8 43  1  0
  8 44  1  0
  9 45  1  0
  9 46  1  0
  9 47  1  0
 10 48  1  1
 11 49  1  0
 11 50  1  0
 12 51  1  0
 12 52  1  0
 14 53  1  0
 14 54  1  0
 14 55  1  0
 15 56  1  6
 16 57  1  0
 16 58  1  0
 17 59  1  0
 19 60  1  1
 20 61  1  0
 20 62  1  0
 21 63  1  0
 21 64  1  0
 22 65  1  1
 23 66  1  0
 25 67  1  0
 25 68  1  0
 25 69  1  0
 26 70  1  0
 26 71  1  0
 26 72  1  0
 28 73  1  0
 28 74  1  0
 28 75  1  0
 29 76  1  0
 29 77  1  0
 30 78  1  0
 30 79  1  0
 32 80  1  0
 32 81  1  0
 32 82  1  0
M  END
>  <meeko>  (4) 
{"is_sidechain": [false], "intermolecular_energy": 2.731, "internal_energy": -0.839}

$$$$
EPH_relaxed_0001_pdb2pqr_Repair_28_r2_0001_out
     RDKit          3D

 82 86  0  0  0  0  0  0  0  0999 V2000
    2.0890   18.2530   -2.7430 C   0  0  0  0  0  0  0  0  0  0  0  0
    0.8890   17.7710   -1.9210 C   0  0  2  0  0  0  0  0  0  0  0  0
    1.1790   17.7860   -0.4070 C   0  0  0  0  0  0  0  0  0  0  0  0
    1.1800   19.1880    0.2070 C   0  0  0  0  0  0  0  0  0  0  0  0
   -0.1150   19.9010   -0.0380 C   0  0  2  0  0  0  0  0  0  0  0  0
   -0.8720   20.1910    1.1440 O   0  0  0  0  0  0  0  0  0  0  0  0
   -1.4750   19.2760    0.2140 C   0  0  0  0  0  0  0  0  0  0  0  0
   -1.6070   17.8790    0.7340 C   0  0  0  0  0  0  0  0  0  0  0  0
   -2.6640   19.8390   -0.4990 C   0  0  0  0  0  0  0  0  0  0  0  0
    0.4870   16.3690   -2.3620 C   0  0  1  0  0  0  0  0  0  0  0  0
    0.5720   16.1780   -3.8990 C   0  0  0  0  0  0  0  0  0  0  0  0
    1.0240   14.7150   -4.1450 C   0  0  0  0  0  0  0  0  0  0  0  0
    0.8630   14.0220   -2.7710 C   0  0  1  0  0  0  0  0  0  0  0  0
   -0.6540   13.6700   -2.6740 C   0  0  0  0  0  0  0  0  0  0  0  0
    1.7640   12.7690   -2.5210 C   0  0  2  0  0  0  0  0  0  0  0  0
    1.5140   11.5850   -3.4720 C   0  0  0  0  0  0  0  0  0  0  0  0
    0.4950   10.5980   -3.0070 C   0  0  0  0  0  0  0  0  0  0  0  0
    0.0160   10.5000   -1.7530 C   0  0  0  0  0  0  0  0  0  0  0  0
    0.5740   11.3780   -0.6250 C   0  0  1  0  0  0  0  0  0  0  0  0
    0.8490   10.5030    0.6250 C   0  0  0  0  0  0  0  0  0  0  0  0
   -0.3760    9.7040    1.0600 C   0  0  0  0  0  0  0  0  0  0  0  0
   -0.8660    8.8000   -0.0680 C   0  0  2  0  0  0  0  0  0  0  0  0
    0.1210    7.7930   -0.3140 O   0  0  0  0  0  0  0  0  0  0  0  0
   -1.1660    9.5710   -1.3840 C   0  0  0  0  0  0  0  0  0  0  0  0
   -2.4320   10.4440   -1.1990 C   0  0  0  0  0  0  0  0  0  0  0  0
   -1.5150    8.5270   -2.4790 C   0  0  0  0  0  0  0  0  0  0  0  0
    1.8120   12.2970   -1.0110 C   0  0  1  0  0  0  0  0  0  0  0  0
    3.1410   11.5000   -0.8360 C   0  0  0  0  0  0  0  0  0  0  0  0
    1.8860   13.5090   -0.0080 C   0  0  0  0  0  0  0  0  0  0  0  0
    1.0680   14.7630   -0.3720 C   0  0  0  0  0  0  0  0  0  0  0  0
    1.3280   15.1850   -1.8210 C   0  0  2  0  0  0  0  0  0  0  0  0
    2.8430   15.5670   -1.9440 C   0  0  0  0  0  0  0  0  0  0  0  0
    2.8924   18.5757   -2.0645 H   0  0  0  0  0  0  0  0  0  0  0  0
    2.4528   17.4312   -3.3773 H   0  0  0  0  0  0  0  0  0  0  0  0
    1.7833   19.0981   -3.3773 H   0  0  0  0  0  0  0  0  0  0  0  0
    0.0594   18.4697   -2.1042 H   0  0  0  0  0  0  0  0  0  0  0  0
    0.4089   17.1858    0.0997 H   0  0  0  0  0  0  0  0  0  0  0  0
    2.1901   17.3751   -0.2700 H   0  0  0  0  0  0  0  0  0  0  0  0
    1.3399   19.1020    1.2919 H   0  0  0  0  0  0  0  0  0  0  0  0
    1.9860   19.7687   -0.2653 H   0  0  0  0  0  0  0  0  0  0  0  0
    0.3085   20.4193   -0.9109 H   0  0  0  0  0  0  0  0  0  0  0  0
   -1.6054   17.8955    1.8339 H   0  0  0  0  0  0  0  0  0  0  0  0
   -2.5505   17.4418    0.3752 H   0  0  0  0  0  0  0  0  0  0  0  0
   -0.7621   17.2728    0.3752 H   0  0  0  0  0  0  0  0  0  0  0  0
   -3.4020   20.1884    0.2381 H   0  0  0  0  0  0  0  0  0  0  0  0
   -2.3477   20.6830   -1.1296 H   0  0  0  0  0  0  0  0  0  0  0  0
   -3.1164   19.0595   -1.1296 H   0  0  0  0  0  0  0  0  0  0  0  0
   -0.5305   16.3300   -1.9457 H   0  0  0  0  0  0  0  0  0  0  0  0
   -0.4128   16.3521   -4.3572 H   0  0  0  0  0  0  0  0  0  0  0  0
    1.2808   16.8904   -4.3464 H   0  0  0  0  0  0  0  0  0  0  0  0
    0.3860   14.2330   -4.9004 H   0  0  0  0  0  0  0  0  0  0  0  0
    2.0544   14.6545   -4.5252 H   0  0  0  0  0  0  0  0  0  0  0  0
   -0.9477   13.6019   -1.6161 H   0  0  0  0  0  0  0  0  0  0  0  0
   -1.2449   14.4549   -3.1687 H   0  0  0  0  0  0  0  0  0  0  0  0
   -0.8389   12.7051   -3.1687 H   0  0  0  0  0  0  0  0  0  0  0  0
    2.7669   13.1457   -2.7705 H   0  0  0  0  0  0  0  0  0  0  0  0
    1.1788   11.9900   -4.4382 H   0  0  0  0  0  0  0  0  0  0  0  0
    2.4652   11.0357   -3.5308 H   0  0  0  0  0  0  0  0  0  0  0  0
    0.1023    9.8909   -3.7525 H   0  0  0  0  0  0  0  0  0  0  0  0
   -0.2094   12.1161   -0.3980 H   0  0  0  0  0  0  0  0  0  0  0  0
    1.6634    9.8012    0.3921 H   0  0  0  0  0  0  0  0  0  0  0  0
    1.1195   11.1766    1.4515 H   0  0  0  0  0  0  0  0  0  0  0  0
   -0.1114    9.0839    1.9292 H   0  0  0  0  0  0  0  0  0  0  0  0
   -1.1801   10.4079    1.3204 H   0  0  0  0  0  0  0  0  0  0  0  0
   -1.8169    8.3526    0.2570 H   0  0  0  0  0  0  0  0  0  0  0  0
    0.5500    8.0030   -1.1610 H   0  0  0  0  0  0  0  0  0  0  0  0
   -2.6297   10.5803   -0.1255 H   0  0  0  0  0  0  0  0  0  0  0  0
   -2.2728   11.4252   -1.6700 H   0  0  0  0  0  0  0  0  0  0  0  0
   -3.2925    9.9464   -1.6700 H   0  0  0  0  0  0  0  0  0  0  0  0
   -1.8293    7.5868   -2.0023 H   0  0  0  0  0  0  0  0  0  0  0  0
   -2.3333    8.9120   -3.1052 H   0  0  0  0  0  0  0  0  0  0  0  0
   -0.6297    8.3425   -3.1052 H   0  0  0  0  0  0  0  0  0  0  0  0
    3.3537   11.3725    0.2357 H   0  0  0  0  0  0  0  0  0  0  0  0
    3.0415   10.5124   -1.3101 H   0  0  0  0  0  0  0  0  0  0  0  0
    3.9653   12.0529   -1.3101 H   0  0  0  0  0  0  0  0  0  0  0  0
    1.5317   13.1531    0.9707 H   0  0  0  0  0  0  0  0  0  0  0  0
    2.9364   13.8349   -0.0274 H   0  0  0  0  0  0  0  0  0  0  0  0
   -0.0026   14.5429   -0.2478 H   0  0  0  0  0  0  0  0  0  0  0  0
    1.3715   15.5851    0.2928 H   0  0  0  0  0  0  0  0  0  0  0  0
    3.2764   15.6763   -0.9389 H   0  0  0  0  0  0  0  0  0  0  0  0
    3.3776   14.7755   -2.4897 H   0  0  0  0  0  0  0  0  0  0  0  0
    2.9384   16.5173   -2.4897 H   0  0  0  0  0  0  0  0  0  0  0  0
  1  2  1  0
  2  3  1  0
  3  4  1  0
  4  5  1  0
  5  6  1  0
  6  7  1  0
  7  8  1  0
  7  9  1  0
  2 10  1  0
 10 11  1  0
 11 12  1  0
 12 13  1  0
 13 14  1  1
 13 15  1  0
 15 16  1  0
 16 17  1  0
 17 18  2  0
 18 19  1  0
 19 20  1  0
 20 21  1  0
 21 22  1  0
 22 23  1  0
 22 24  1  0
 24 25  1  0
 24 26  1  0
 19 27  1  0
 27 28  1  6
 27 29  1  0
 29 30  1  0
 30 31  1  0
 31 32  1  1
  7  5  1  0
 31 10  1  0
 31 13  1  0
 27 15  1  0
 24 18  1  0
  1 33  1  0
  1 34  1  0
  1 35  1  0
  2 36  1  1
  3 37  1  0
  3 38  1  0
  4 39  1  0
  4 40  1  0
  5 41  1  6
  8 42  1  0
  8 43  1  0
  8 44  1  0
  9 45  1  0
  9 46  1  0
  9 47  1  0
 10 48  1  1
 11 49  1  0
 11 50  1  0
 12 51  1  0
 12 52  1  0
 14 53  1  0
 14 54  1  0
 14 55  1  0
 15 56  1  6
 16 57  1  0
 16 58  1  0
 17 59  1  0
 19 60  1  1
 20 61  1  0
 20 62  1  0
 21 63  1  0
 21 64  1  0
 22 65  1  1
 23 66  1  0
 25 67  1  0
 25 68  1  0
 25 69  1  0
 26 70  1  0
 26 71  1  0
 26 72  1  0
 28 73  1  0
 28 74  1  0
 28 75  1  0
 29 76  1  0
 29 77  1  0
 30 78  1  0
 30 79  1  0
 32 80  1  0
 32 81  1  0
 32 82  1  0
M  END
>  <meeko>  (5) 
{"is_sidechain": [false], "intermolecular_energy": 2.731, "internal_energy": -0.839}

$$$$
EPH_relaxed_0001_pdb2pqr_Repair_28_r2_0001_out
     RDKit          3D

 82 86  0  0  0  0  0  0  0  0999 V2000
    0.4250    8.8000   -2.3750 C   0  0  0  0  0  0  0  0  0  0  0  0
    1.1630    9.9420   -3.0790 C   0  0  2  0  0  0  0  0  0  0  0  0
    2.6660    9.9610   -2.7350 C   0  0  0  0  0  0  0  0  0  0  0  0
    3.5360   10.6100   -3.8150 C   0  0  0  0  0  0  0  0  0  0  0  0
    4.9360   10.8440   -3.3320 C   0  0  2  0  0  0  0  0  0  0  0  0
    5.5470   12.0440   -3.8250 O   0  0  0  0  0  0  0  0  0  0  0  0
    6.1510   10.8080   -4.2410 C   0  0  0  0  0  0  0  0  0  0  0  0
    6.0220   10.5300   -5.7050 C   0  0  0  0  0  0  0  0  0  0  0  0
    7.4940   10.5590   -3.6290 C   0  0  0  0  0  0  0  0  0  0  0  0
    0.5270   11.2770   -2.7110 C   0  0  1  0  0  0  0  0  0  0  0  0
   -0.8500   11.1110   -2.0150 C   0  0  0  0  0  0  0  0  0  0  0  0
   -0.9630   12.2500   -0.9690 C   0  0  0  0  0  0  0  0  0  0  0  0
    0.1890   13.2200   -1.3230 C   0  0  1  0  0  0  0  0  0  0  0  0
   -0.3590   14.0800   -2.5050 C   0  0  0  0  0  0  0  0  0  0  0  0
    0.7220   14.1150   -0.1560 C   0  0  2  0  0  0  0  0  0  0  0  0
   -0.3070   15.0930    0.4370 C   0  0  0  0  0  0  0  0  0  0  0  0
   -0.3480   16.4410   -0.2030 C   0  0  0  0  0  0  0  0  0  0  0  0
    0.5950   16.9490   -1.0190 C   0  0  0  0  0  0  0  0  0  0  0  0
    1.8950   16.1810   -1.2940 C   0  0  1  0  0  0  0  0  0  0  0  0
    3.1030   17.1460   -1.1640 C   0  0  0  0  0  0  0  0  0  0  0  0
    2.9600   18.3850   -2.0420 C   0  0  0  0  0  0  0  0  0  0  0  0
    1.6860   19.1520   -1.6990 C   0  0  2  0  0  0  0  0  0  0  0  0
    1.8130   19.6900   -0.3800 O   0  0  0  0  0  0  0  0  0  0  0  0
    0.4020   18.2800   -1.7870 C   0  0  0  0  0  0  0  0  0  0  0  0
    0.0990   17.9470   -3.2680 C   0  0  0  0  0  0  0  0  0  0  0  0
   -0.7910   19.1340   -1.2810 C   0  0  0  0  0  0  0  0  0  0  0  0
    2.0940   14.8380   -0.4690 C   0  0  1  0  0  0  0  0  0  0  0  0
    2.7550   15.1520    0.9080 C   0  0  0  0  0  0  0  0  0  0  0  0
    3.1000   13.9050   -1.2420 C   0  0  0  0  0  0  0  0  0  0  0  0
    2.4970   12.9580   -2.2980 C   0  0  0  0  0  0  0  0  0  0  0  0
    1.3040   12.1870   -1.7260 C   0  0  2  0  0  0  0  0  0  0  0  0
    1.8290   11.2960   -0.5490 C   0  0  0  0  0  0  0  0  0  0  0  0
    0.5071    8.9270   -1.2854 H   0  0  0  0  0  0  0  0  0  0  0  0
   -0.6355    8.8138   -2.6669 H   0  0  0  0  0  0  0  0  0  0  0  0
    0.8732    7.8388   -2.6669 H   0  0  0  0  0  0  0  0  0  0  0  0
    1.0746    9.7749   -4.1626 H   0  0  0  0  0  0  0  0  0  0  0  0
    2.8008   10.5207   -1.7977 H   0  0  0  0  0  0  0  0  0  0  0  0
    2.9894    8.9132   -2.6481 H   0  0  0  0  0  0  0  0  0  0  0  0
    3.5676    9.9480   -4.6929 H   0  0  0  0  0  0  0  0  0  0  0  0
    3.0943   11.5841   -4.0719 H   0  0  0  0  0  0  0  0  0  0  0  0
    4.7146   10.3473   -2.3758 H   0  0  0  0  0  0  0  0  0  0  0  0
    5.5631    9.5411   -5.8514 H   0  0  0  0  0  0  0  0  0  0  0  0
    5.3893   11.3003   -6.1701 H   0  0  0  0  0  0  0  0  0  0  0  0
    7.0187   10.5442   -6.1701 H   0  0  0  0  0  0  0  0  0  0  0  0
    7.4061   10.5753   -2.5326 H   0  0  0  0  0  0  0  0  0  0  0  0
    7.8678    9.5763   -3.9523 H   0  0  0  0  0  0  0  0  0  0  0  0
    8.1952   11.3424   -3.9523 H   0  0  0  0  0  0  0  0  0  0  0  0
    0.4900   11.7445   -3.7060 H   0  0  0  0  0  0  0  0  0  0  0  0
   -1.6604   11.1938   -2.7542 H   0  0  0  0  0  0  0  0  0  0  0  0
   -0.9336   10.1246   -1.5353 H   0  0  0  0  0  0  0  0  0  0  0  0
   -1.9360   12.7566   -1.0500 H   0  0  0  0  0  0  0  0  0  0  0  0
   -0.8921   11.8770    0.0634 H   0  0  0  0  0  0  0  0  0  0  0  0
   -0.9097   14.9442   -2.1052 H   0  0  0  0  0  0  0  0  0  0  0  0
    0.4807   14.4335   -3.1214 H   0  0  0  0  0  0  0  0  0  0  0  0
   -1.0342   13.4682   -3.1214 H   0  0  0  0  0  0  0  0  0  0  0  0
    0.9237   13.3777    0.6350 H   0  0  0  0  0  0  0  0  0  0  0  0
   -1.3040   14.6390    0.3375 H   0  0  0  0  0  0  0  0  0  0  0  0
   -0.0014   15.2607    1.4803 H   0  0  0  0  0  0  0  0  0  0  0  0
   -1.2228   17.0729    0.0101 H   0  0  0  0  0  0  0  0  0  0  0  0
    1.8199   15.8147   -2.3285 H   0  0  0  0  0  0  0  0  0  0  0  0
    3.1877   17.4654   -0.1148 H   0  0  0  0  0  0  0  0  0  0  0  0
    4.0005   16.6036   -1.4962 H   0  0  0  0  0  0  0  0  0  0  0  0
    3.8288   19.0408   -1.8835 H   0  0  0  0  0  0  0  0  0  0  0  0
    2.9057   18.0661   -3.0934 H   0  0  0  0  0  0  0  0  0  0  0  0
    1.5723   19.9522   -2.4452 H   0  0  0  0  0  0  0  0  0  0  0  0
    1.1440   19.2600    0.1790 H   0  0  0  0  0  0  0  0  0  0  0  0
   -0.6406   17.1342   -3.3172 H   0  0  0  0  0  0  0  0  0  0  0  0
   -0.3032   18.8395   -3.7696 H   0  0  0  0  0  0  0  0  0  0  0  0
    1.0254   17.6306   -3.7696 H   0  0  0  0  0  0  0  0  0  0  0  0
   -0.7979   19.1389   -0.1810 H   0  0  0  0  0  0  0  0  0  0  0  0
   -0.6875   20.1645   -1.6517 H   0  0  0  0  0  0  0  0  0  0  0  0
   -1.7331   18.7039   -1.6517 H   0  0  0  0  0  0  0  0  0  0  0  0
    2.0832   14.8329    1.7185 H   0  0  0  0  0  0  0  0  0  0  0  0
    3.7094   14.6110    0.9884 H   0  0  0  0  0  0  0  0  0  0  0  0
    2.9387   16.2336    0.9884 H   0  0  0  0  0  0  0  0  0  0  0  0
    3.8289   14.5518   -1.7523 H   0  0  0  0  0  0  0  0  0  0  0  0
    3.5287   13.2445   -0.4739 H   0  0  0  0  0  0  0  0  0  0  0  0
    2.1618   13.5499   -3.1625 H   0  0  0  0  0  0  0  0  0  0  0  0
    3.2684   12.2351   -2.6019 H   0  0  0  0  0  0  0  0  0  0  0  0
    1.5564   11.7587    0.4110 H   0  0  0  0  0  0  0  0  0  0  0  0
    1.3758   10.2959   -0.6158 H   0  0  0  0  0  0  0  0  0  0  0  0
    2.9234   11.2078   -0.6158 H   0  0  0  0  0  0  0  0  0  0  0  0
  1  2  1  0
  2  3  1  0
  3  4  1  0
  4  5  1  0
  5  6  1  0
  6  7  1  0
  7  8  1  0
  7  9  1  0
  2 10  1  0
 10 11  1  0
 11 12  1  0
 12 13  1  0
 13 14  1  6
 13 15  1  0
 15 16  1  0
 16 17  1  0
 17 18  2  0
 18 19  1  0
 19 20  1  0
 20 21  1  0
 21 22  1  0
 22 23  1  0
 22 24  1  0
 24 25  1  0
 24 26  1  0
 19 27  1  0
 27 28  1  1
 27 29  1  0
 29 30  1  0
 30 31  1  0
 31 32  1  1
  7  5  1  0
 31 10  1  0
 31 13  1  0
 27 15  1  0
 24 18  1  0
  1 33  1  0
  1 34  1  0
  1 35  1  0
  2 36  1  6
  3 37  1  0
  3 38  1  0
  4 39  1  0
  4 40  1  0
  5 41  1  1
  8 42  1  0
  8 43  1  0
  8 44  1  0
  9 45  1  0
  9 46  1  0
  9 47  1  0
 10 48  1  6
 11 49  1  0
 11 50  1  0
 12 51  1  0
 12 52  1  0
 14 53  1  0
 14 54  1  0
 14 55  1  0
 15 56  1  1
 16 57  1  0
 16 58  1  0
 17 59  1  0
 19 60  1  6
 20 61  1  0
 20 62  1  0
 21 63  1  0
 21 64  1  0
 22 65  1  6
 23 66  1  0
 25 67  1  0
 25 68  1  0
 25 69  1  0
 26 70  1  0
 26 71  1  0
 26 72  1  0
 28 73  1  0
 28 74  1  0
 28 75  1  0
 29 76  1  0
 29 77  1  0
 30 78  1  0
 30 79  1  0
 32 80  1  0
 32 81  1  0
 32 82  1  0
M  END
>  <meeko>  (6) 
{"is_sidechain": [false], "intermolecular_energy": 2.731, "internal_energy": -0.839}

$$$$
EPH_relaxed_0001_pdb2pqr_Repair_28_r2_0001_out
     RDKit          3D

 82 86  0  0  0  0  0  0  0  0999 V2000
    3.0750   18.3620   -3.8610 C   0  0  0  0  0  0  0  0  0  0  0  0
    2.0220   18.1930   -2.7620 C   0  0  2  0  0  0  0  0  0  0  0  0
    2.0560   19.3490   -1.7420 C   0  0  0  0  0  0  0  0  0  0  0  0
    0.7800   20.1940   -1.7280 C   0  0  0  0  0  0  0  0  0  0  0  0
   -0.0320   19.9520   -0.4920 C   0  0  2  0  0  0  0  0  0  0  0  0
   -0.7820   18.7300   -0.4980 O   0  0  0  0  0  0  0  0  0  0  0  0
   -1.5490   19.9450   -0.4750 C   0  0  0  0  0  0  0  0  0  0  0  0
   -2.3440   20.1870   -1.7200 C   0  0  0  0  0  0  0  0  0  0  0  0
   -2.2520   20.1900    0.8240 C   0  0  0  0  0  0  0  0  0  0  0  0
    2.2250   16.8620   -2.0480 C   0  0  1  0  0  0  0  0  0  0  0  0
    2.5930   17.0370   -0.5510 C   0  0  0  0  0  0  0  0  0  0  0  0
    1.9340   15.8600    0.2130 C   0  0  0  0  0  0  0  0  0  0  0  0
    1.4950   14.8740   -0.8950 C   0  0  1  0  0  0  0  0  0  0  0  0
    2.7870   14.0790   -1.2600 C   0  0  0  0  0  0  0  0  0  0  0  0
    0.3100   13.9180   -0.5390 C   0  0  2  0  0  0  0  0  0  0  0  0
    0.5830   12.9450    0.6210 C   0  0  0  0  0  0  0  0  0  0  0  0
    1.1590   11.6260    0.2250 C   0  0  0  0  0  0  0  0  0  0  0  0
    1.1820   11.1260   -1.0250 C   0  0  0  0  0  0  0  0  0  0  0  0
    0.5020   11.8680   -2.1830 C   0  0  1  0  0  0  0  0  0  0  0  0
   -0.3400   10.8660   -3.0160 C   0  0  0  0  0  0  0  0  0  0  0  0
    0.4770    9.6690   -3.4900 C   0  0  0  0  0  0  0  0  0  0  0  0
    1.0890    8.9230   -2.3080 C   0  0  2  0  0  0  0  0  0  0  0  0
    0.0360    8.3280   -1.5420 O   0  0  0  0  0  0  0  0  0  0  0  0
    1.9520    9.8330   -1.3900 C   0  0  0  0  0  0  0  0  0  0  0  0
    3.2530   10.2340   -2.1290 C   0  0  0  0  0  0  0  0  0  0  0  0
    2.3930    8.9920   -0.1620 C   0  0  0  0  0  0  0  0  0  0  0  0
   -0.3170   13.1710   -1.7850 C   0  0  1  0  0  0  0  0  0  0  0  0
   -1.7730   12.7820   -1.3850 C   0  0  0  0  0  0  0  0  0  0  0  0
   -0.4380   14.1070   -3.0450 C   0  0  0  0  0  0  0  0  0  0  0  0
    0.7070   15.1120   -3.2760 C   0  0  0  0  0  0  0  0  0  0  0  0
    1.0190   15.8910   -1.9950 C   0  0  2  0  0  0  0  0  0  0  0  0
   -0.2560   16.7190   -1.6160 C   0  0  0  0  0  0  0  0  0  0  0  0
    4.0620   18.5204   -3.4019 H   0  0  0  0  0  0  0  0  0  0  0  0
    3.1020   17.4567   -4.4853 H   0  0  0  0  0  0  0  0  0  0  0  0
    2.8174   19.2303   -4.4853 H   0  0  0  0  0  0  0  0  0  0  0  0
    1.0340   18.2086   -3.2453 H   0  0  0  0  0  0  0  0  0  0  0  0
    2.2014   18.9227   -0.7385 H   0  0  0  0  0  0  0  0  0  0  0  0
    2.8798   20.0151   -2.0380 H   0  0  0  0  0  0  0  0  0  0  0  0
    1.0566   21.2578   -1.7701 H   0  0  0  0  0  0  0  0  0  0  0  0
    0.1713   19.9099   -2.5991 H   0  0  0  0  0  0  0  0  0  0  0  0
    0.7101   20.4780    0.1266 H   0  0  0  0  0  0  0  0  0  0  0  0
   -3.3639   20.4975   -1.4492 H   0  0  0  0  0  0  0  0  0  0  0  0
   -1.8646   20.9799   -2.3129 H   0  0  0  0  0  0  0  0  0  0  0  0
   -2.3877   19.2615   -2.3129 H   0  0  0  0  0  0  0  0  0  0  0  0
   -1.5745   19.9539    1.6578 H   0  0  0  0  0  0  0  0  0  0  0  0
   -2.5534   21.2462    0.8843 H   0  0  0  0  0  0  0  0  0  0  0  0
   -3.1446   19.5499    0.8843 H   0  0  0  0  0  0  0  0  0  0  0  0
    3.0224   16.4371   -2.6753 H   0  0  0  0  0  0  0  0  0  0  0  0
    3.6852   17.0070   -0.4235 H   0  0  0  0  0  0  0  0  0  0  0  0
    2.2372   18.0047   -0.1677 H   0  0  0  0  0  0  0  0  0  0  0  0
    2.6569   15.3844    0.8922 H   0  0  0  0  0  0  0  0  0  0  0  0
    1.0905   16.1881    0.8381 H   0  0  0  0  0  0  0  0  0  0  0  0
    3.2972   13.7650   -0.3375 H   0  0  0  0  0  0  0  0  0  0  0  0
    2.5166   13.1908   -1.8499 H   0  0  0  0  0  0  0  0  0  0  0  0
    3.4580   14.7207   -1.8499 H   0  0  0  0  0  0  0  0  0  0  0  0
   -0.4543   14.6172   -0.1688 H   0  0  0  0  0  0  0  0  0  0  0  0
    1.2878   13.4298    1.3125 H   0  0  0  0  0  0  0  0  0  0  0  0
   -0.3964   12.7263    1.0715 H   0  0  0  0  0  0  0  0  0  0  0  0
    1.6021   11.0105    1.0217 H   0  0  0  0  0  0  0  0  0  0  0  0
    1.3142   12.2773   -2.8016 H   0  0  0  0  0  0  0  0  0  0  0  0
   -1.1713   10.5018   -2.3945 H   0  0  0  0  0  0  0  0  0  0  0  0
   -0.7041   11.3964   -3.9082 H   0  0  0  0  0  0  0  0  0  0  0  0
   -0.1786    8.9839   -4.0475 H   0  0  0  0  0  0  0  0  0  0  0  0
    1.2908   10.0328   -4.1345 H   0  0  0  0  0  0  0  0  0  0  0  0
    1.7649    8.1571   -2.7161 H   0  0  0  0  0  0  0  0  0  0  0  0
   -0.2990    7.5670   -2.0450 H   0  0  0  0  0  0  0  0  0  0  0  0
    4.0338   10.4747   -1.3925 H   0  0  0  0  0  0  0  0  0  0  0  0
    3.5891    9.3978   -2.7597 H   0  0  0  0  0  0  0  0  0  0  0  0
    3.0600   11.1144   -2.7597 H   0  0  0  0  0  0  0  0  0  0  0  0
    2.1162    9.5199    0.7625 H   0  0  0  0  0  0  0  0  0  0  0  0
    1.8922    8.0130   -0.1892 H   0  0  0  0  0  0  0  0  0  0  0  0
    3.4831    8.8472   -0.1892 H   0  0  0  0  0  0  0  0  0  0  0  0
   -1.8583   12.7592   -0.2886 H   0  0  0  0  0  0  0  0  0  0  0  0
   -2.4757   13.5239   -1.7921 H   0  0  0  0  0  0  0  0  0  0  0  0
   -2.0121   11.7885   -1.7921 H   0  0  0  0  0  0  0  0  0  0  0  0
   -0.4993   13.4621   -3.9340 H   0  0  0  0  0  0  0  0  0  0  0  0
   -1.3299   14.7239   -2.8609 H   0  0  0  0  0  0  0  0  0  0  0  0
    1.6073   14.5652   -3.5930 H   0  0  0  0  0  0  0  0  0  0  0  0
    0.3962   15.8253   -4.0535 H   0  0  0  0  0  0  0  0  0  0  0  0
   -0.3440   16.7761   -0.5210 H   0  0  0  0  0  0  0  0  0  0  0  0
   -0.1704   17.7343   -2.0305 H   0  0  0  0  0  0  0  0  0  0  0  0
   -1.1487   16.2278   -2.0305 H   0  0  0  0  0  0  0  0  0  0  0  0
  1  2  1  0
  2  3  1  0
  3  4  1  0
  4  5  1  0
  5  6  1  0
  6  7  1  0
  7  8  1  0
  7  9  1  0
  2 10  1  0
 10 11  1  0
 11 12  1  0
 12 13  1  0
 13 14  1  6
 13 15  1  0
 15 16  1  0
 16 17  1  0
 17 18  2  0
 18 19  1  0
 19 20  1  0
 20 21  1  0
 21 22  1  0
 22 23  1  0
 22 24  1  0
 24 25  1  0
 24 26  1  0
 19 27  1  0
 27 28  1  1
 27 29  1  0
 29 30  1  0
 30 31  1  0
 31 32  1  1
  7  5  1  0
 31 10  1  0
 31 13  1  0
 27 15  1  0
 24 18  1  0
  1 33  1  0
  1 34  1  0
  1 35  1  0
  2 36  1  6
  3 37  1  0
  3 38  1  0
  4 39  1  0
  4 40  1  0
  5 41  1  1
  8 42  1  0
  8 43  1  0
  8 44  1  0
  9 45  1  0
  9 46  1  0
  9 47  1  0
 10 48  1  6
 11 49  1  0
 11 50  1  0
 12 51  1  0
 12 52  1  0
 14 53  1  0
 14 54  1  0
 14 55  1  0
 15 56  1  1
 16 57  1  0
 16 58  1  0
 17 59  1  0
 19 60  1  6
 20 61  1  0
 20 62  1  0
 21 63  1  0
 21 64  1  0
 22 65  1  6
 23 66  1  0
 25 67  1  0
 25 68  1  0
 25 69  1  0
 26 70  1  0
 26 71  1  0
 26 72  1  0
 28 73  1  0
 28 74  1  0
 28 75  1  0
 29 76  1  0
 29 77  1  0
 30 78  1  0
 30 79  1  0
 32 80  1  0
 32 81  1  0
 32 82  1  0
M  END
>  <meeko>  (7) 
{"is_sidechain": [false], "intermolecular_energy": 2.731, "internal_energy": -0.839}

$$$$
EPH_relaxed_0001_pdb2pqr_Repair_28_r2_0001_out
     RDKit          3D

 82 86  0  0  0  0  0  0  0  0999 V2000
   -4.9370    8.8330   -0.3840 C   0  0  0  0  0  0  0  0  0  0  0  0
   -5.2660    7.6300   -1.2720 C   0  0  2  0  0  0  0  0  0  0  0  0
   -4.2250    7.4340   -2.3930 C   0  0  0  0  0  0  0  0  0  0  0  0
   -2.7760    7.5020   -1.9050 C   0  0  0  0  0  0  0  0  0  0  0  0
   -2.1120    8.7810   -2.3170 C   0  0  2  0  0  0  0  0  0  0  0  0
   -0.6970    8.6820   -2.5220 O   0  0  0  0  0  0  0  0  0  0  0  0
   -1.1230    9.5300   -1.4430 C   0  0  0  0  0  0  0  0  0  0  0  0
   -0.7430    9.0250   -0.0860 C   0  0  0  0  0  0  0  0  0  0  0  0
   -0.9030   10.9880   -1.6980 C   0  0  0  0  0  0  0  0  0  0  0  0
   -6.6560    7.7940   -1.8750 C   0  0  1  0  0  0  0  0  0  0  0  0
   -6.8050    7.0680   -3.2390 C   0  0  0  0  0  0  0  0  0  0  0  0
   -8.2610    6.5380   -3.3070 C   0  0  0  0  0  0  0  0  0  0  0  0
   -8.9910    7.2530   -2.1460 C   0  0  1  0  0  0  0  0  0  0  0  0
   -9.3450    8.6670   -2.7050 C   0  0  0  0  0  0  0  0  0  0  0  0
  -10.2500    6.5270   -1.5710 C   0  0  2  0  0  0  0  0  0  0  0  0
  -11.4080    6.3410   -2.5670 C   0  0  0  0  0  0  0  0  0  0  0  0
  -12.4080    7.4490   -2.5980 C   0  0  0  0  0  0  0  0  0  0  0  0
  -12.5390    8.4100   -1.6650 C   0  0  0  0  0  0  0  0  0  0  0  0
  -11.6920    8.3870   -0.3860 C   0  0  1  0  0  0  0  0  0  0  0  0
  -12.6010    8.6540    0.8420 C   0  0  0  0  0  0  0  0  0  0  0  0
  -13.4120    9.9390    0.7020 C   0  0  0  0  0  0  0  0  0  0  0  0
  -14.2850    9.8990   -0.5500 C   0  0  2  0  0  0  0  0  0  0  0  0
  -15.2840    8.8880   -0.3830 O   0  0  0  0  0  0  0  0  0  0  0  0
  -13.4790    9.6270   -1.8510 C   0  0  0  0  0  0  0  0  0  0  0  0
  -12.6110   10.8630   -2.1940 C   0  0  0  0  0  0  0  0  0  0  0  0
  -14.4920    9.4710   -3.0160 C   0  0  0  0  0  0  0  0  0  0  0  0
  -10.7630    7.1120   -0.1930 C   0  0  1  0  0  0  0  0  0  0  0  0
  -11.5640    5.9710    0.5050 C   0  0  0  0  0  0  0  0  0  0  0  0
   -9.5790    7.4820    0.7780 C   0  0  0  0  0  0  0  0  0  0  0  0
   -8.3160    8.0850    0.1340 C   0  0  0  0  0  0  0  0  0  0  0  0
   -7.8540    7.2450   -1.0600 C   0  0  2  0  0  0  0  0  0  0  0  0
   -7.4690    5.8230   -0.5250 C   0  0  0  0  0  0  0  0  0  0  0  0
   -5.0169    8.5409    0.6735 H   0  0  0  0  0  0  0  0  0  0  0  0
   -3.9125    9.1743   -0.5937 H   0  0  0  0  0  0  0  0  0  0  0  0
   -5.6452    9.6481   -0.5937 H   0  0  0  0  0  0  0  0  0  0  0  0
   -5.2400    6.7325   -0.6366 H   0  0  0  0  0  0  0  0  0  0  0  0
   -4.3909    6.4485   -2.8527 H   0  0  0  0  0  0  0  0  0  0  0  0
   -4.3628    8.2587   -3.1078 H   0  0  0  0  0  0  0  0  0  0  0  0
   -2.7659    7.4326   -0.8072 H   0  0  0  0  0  0  0  0  0  0  0  0
   -2.2220    6.6665   -2.3578 H   0  0  0  0  0  0  0  0  0  0  0  0
   -3.0166    9.1054   -2.8523 H   0  0  0  0  0  0  0  0  0  0  0  0
   -1.2152    9.6525    0.6842 H   0  0  0  0  0  0  0  0  0  0  0  0
   -1.0850    7.9857    0.0275 H   0  0  0  0  0  0  0  0  0  0  0  0
    0.3504    9.0657    0.0275 H   0  0  0  0  0  0  0  0  0  0  0  0
   -0.8227   11.5200   -0.7386 H   0  0  0  0  0  0  0  0  0  0  0  0
    0.0258   11.1239   -2.2714 H   0  0  0  0  0  0  0  0  0  0  0  0
   -1.7504   11.3919   -2.2714 H   0  0  0  0  0  0  0  0  0  0  0  0
   -6.7067    8.8917   -1.9258 H   0  0  0  0  0  0  0  0  0  0  0  0
   -6.6187    7.7707   -4.0645 H   0  0  0  0  0  0  0  0  0  0  0  0
   -6.0805    6.2453   -3.3298 H   0  0  0  0  0  0  0  0  0  0  0  0
   -8.7227    6.7937   -4.2721 H   0  0  0  0  0  0  0  0  0  0  0  0
   -8.3107    5.4426   -3.2194 H   0  0  0  0  0  0  0  0  0  0  0  0
   -9.5183    9.3593   -1.8680 H   0  0  0  0  0  0  0  0  0  0  0  0
   -8.5118    9.0371   -3.3205 H   0  0  0  0  0  0  0  0  0  0  0  0
  -10.2543    8.6009   -3.3205 H   0  0  0  0  0  0  0  0  0  0  0  0
   -9.8659    5.5168   -1.3665 H   0  0  0  0  0  0  0  0  0  0  0  0
  -10.9772    6.2439   -3.5745 H   0  0  0  0  0  0  0  0  0  0  0  0
  -11.9552    5.4471   -2.2332 H   0  0  0  0  0  0  0  0  0  0  0  0
  -13.0958    7.4828   -3.4558 H   0  0  0  0  0  0  0  0  0  0  0  0
  -10.9595    9.2008   -0.4912 H   0  0  0  0  0  0  0  0  0  0  0  0
  -13.2961    7.8092    0.9564 H   0  0  0  0  0  0  0  0  0  0  0  0
  -11.9497    8.7647    1.7215 H   0  0  0  0  0  0  0  0  0  0  0  0
  -14.0557   10.0567    1.5862 H   0  0  0  0  0  0  0  0  0  0  0  0
  -12.7158   10.7864    0.6179 H   0  0  0  0  0  0  0  0  0  0  0  0
  -14.7410   10.8933   -0.6659 H   0  0  0  0  0  0  0  0  0  0  0  0
  -15.3840    8.7280    0.5710 H   0  0  0  0  0  0  0  0  0  0  0  0
  -12.2735   11.3436   -1.2639 H   0  0  0  0  0  0  0  0  0  0  0  0
  -11.7365   10.5455   -2.7809 H   0  0  0  0  0  0  0  0  0  0  0  0
  -13.2065   11.5778   -2.7809 H   0  0  0  0  0  0  0  0  0  0  0  0
  -15.5009    9.3156   -2.6063 H   0  0  0  0  0  0  0  0  0  0  0  0
  -14.4833   10.3811   -3.6338 H   0  0  0  0  0  0  0  0  0  0  0  0
  -14.2099    8.6057   -3.6338 H   0  0  0  0  0  0  0  0  0  0  0  0
  -11.4856    6.0827    1.5965 H   0  0  0  0  0  0  0  0  0  0  0  0
  -12.6209    6.0287    0.2055 H   0  0  0  0  0  0  0  0  0  0  0  0
  -11.1507    4.9966    0.2055 H   0  0  0  0  0  0  0  0  0  0  0  0
   -9.9618    8.2116    1.5068 H   0  0  0  0  0  0  0  0  0  0  0  0
   -9.2525    6.5254    1.2119 H   0  0  0  0  0  0  0  0  0  0  0  0
   -8.5398    9.1058   -0.2095 H   0  0  0  0  0  0  0  0  0  0  0  0
   -7.5122    8.0984    0.8848 H   0  0  0  0  0  0  0  0  0  0  0  0
   -7.4714    5.8320    0.5750 H   0  0  0  0  0  0  0  0  0  0  0  0
   -8.1996    5.0848   -0.8872 H   0  0  0  0  0  0  0  0  0  0  0  0
   -6.4657    5.5542   -0.8872 H   0  0  0  0  0  0  0  0  0  0  0  0
  1  2  1  0
  2  3  1  0
  3  4  1  0
  4  5  1  0
  5  6  1  0
  6  7  1  0
  7  8  1  0
  7  9  1  0
  2 10  1  0
 10 11  1  0
 11 12  1  0
 12 13  1  0
 13 14  1  6
 13 15  1  0
 15 16  1  0
 16 17  1  0
 17 18  2  0
 18 19  1  0
 19 20  1  0
 20 21  1  0
 21 22  1  0
 22 23  1  0
 22 24  1  0
 24 25  1  0
 24 26  1  0
 19 27  1  0
 27 28  1  1
 27 29  1  0
 29 30  1  0
 30 31  1  0
 31 32  1  1
  7  5  1  0
 31 10  1  0
 31 13  1  0
 27 15  1  0
 24 18  1  0
  1 33  1  0
  1 34  1  0
  1 35  1  0
  2 36  1  1
  3 37  1  0
  3 38  1  0
  4 39  1  0
  4 40  1  0
  5 41  1  6
  8 42  1  0
  8 43  1  0
  8 44  1  0
  9 45  1  0
  9 46  1  0
  9 47  1  0
 10 48  1  6
 11 49  1  0
 11 50  1  0
 12 51  1  0
 12 52  1  0
 14 53  1  0
 14 54  1  0
 14 55  1  0
 15 56  1  1
 16 57  1  0
 16 58  1  0
 17 59  1  0
 19 60  1  6
 20 61  1  0
 20 62  1  0
 21 63  1  0
 21 64  1  0
 22 65  1  6
 23 66  1  0
 25 67  1  0
 25 68  1  0
 25 69  1  0
 26 70  1  0
 26 71  1  0
 26 72  1  0
 28 73  1  0
 28 74  1  0
 28 75  1  0
 29 76  1  0
 29 77  1  0
 30 78  1  0
 30 79  1  0
 32 80  1  0
 32 81  1  0
 32 82  1  0
M  END
>  <meeko>  (8) 
{"is_sidechain": [false], "intermolecular_energy": 2.731, "internal_energy": -0.839}

$$$$
EPH_relaxed_0001_pdb2pqr_Repair_28_r2_0001_out
     RDKit          3D

 82 86  0  0  0  0  0  0  0  0999 V2000
   -0.9120   16.3950   -5.8700 C   0  0  0  0  0  0  0  0  0  0  0  0
    0.1840   15.6950   -6.6780 C   0  0  2  0  0  0  0  0  0  0  0  0
   -0.2190   15.5000   -8.1540 C   0  0  0  0  0  0  0  0  0  0  0  0
    0.4310   16.5060   -9.1080 C   0  0  0  0  0  0  0  0  0  0  0  0
    1.8380   16.1170   -9.4490 C   0  0  2  0  0  0  0  0  0  0  0  0
    2.3360   16.6810  -10.6690 O   0  0  0  0  0  0  0  0  0  0  0  0
    2.2010   15.2500  -10.6410 C   0  0  0  0  0  0  0  0  0  0  0  0
    1.1520   14.7200  -11.5670 C   0  0  0  0  0  0  0  0  0  0  0  0
    3.5080   14.5220  -10.6240 C   0  0  0  0  0  0  0  0  0  0  0  0
    0.5160   14.3480   -6.0470 C   0  0  1  0  0  0  0  0  0  0  0  0
    1.7450   13.6660   -6.7050 C   0  0  0  0  0  0  0  0  0  0  0  0
    2.4950   12.9110   -5.5780 C   0  0  0  0  0  0  0  0  0  0  0  0
    1.5060   12.9050   -4.3880 C   0  0  1  0  0  0  0  0  0  0  0  0
    0.5220   11.7320   -4.6910 C   0  0  0  0  0  0  0  0  0  0  0  0
    2.1390   12.7740   -2.9640 C   0  0  2  0  0  0  0  0  0  0  0  0
    2.9060   11.4650   -2.7090 C   0  0  0  0  0  0  0  0  0  0  0  0
    2.0910   10.3490   -2.1420 C   0  0  0  0  0  0  0  0  0  0  0  0
    0.8730   10.4760   -1.5850 C   0  0  0  0  0  0  0  0  0  0  0  0
    0.2330   11.8570   -1.3950 C   0  0  1  0  0  0  0  0  0  0  0  0
   -0.3500   11.9650    0.0390 C   0  0  0  0  0  0  0  0  0  0  0  0
   -1.3110   10.8260    0.3670 C   0  0  0  0  0  0  0  0  0  0  0  0
   -0.6210    9.4720    0.2230 C   0  0  2  0  0  0  0  0  0  0  0  0
    0.3880    9.3600    1.2310 O   0  0  0  0  0  0  0  0  0  0  0  0
    0.0130    9.2530   -1.1790 C   0  0  0  0  0  0  0  0  0  0  0  0
   -1.1070    9.0740   -2.2340 C   0  0  0  0  0  0  0  0  0  0  0  0
    0.7960    7.9130   -1.1450 C   0  0  0  0  0  0  0  0  0  0  0  0
    1.1430   13.1020   -1.7790 C   0  0  1  0  0  0  0  0  0  0  0  0
    2.0220   13.5150   -0.5590 C   0  0  0  0  0  0  0  0  0  0  0  0
    0.2180   14.3350   -2.0980 C   0  0  0  0  0  0  0  0  0  0  0  0
   -0.2780   14.4750   -3.5500 C   0  0  0  0  0  0  0  0  0  0  0  0
    0.8830   14.3400   -4.5410 C   0  0  2  0  0  0  0  0  0  0  0  0
    1.8790   15.5190   -4.2760 C   0  0  0  0  0  0  0  0  0  0  0  0
   -0.7132   16.2680   -4.7956 H   0  0  0  0  0  0  0  0  0  0  0  0
   -0.9217   17.4669   -6.1169 H   0  0  0  0  0  0  0  0  0  0  0  0
   -1.8886   15.9530   -6.1169 H   0  0  0  0  0  0  0  0  0  0  0  0
    1.0730   16.3425   -6.6602 H   0  0  0  0  0  0  0  0  0  0  0  0
    0.0767   14.4868   -8.4637 H   0  0  0  0  0  0  0  0  0  0  0  0
   -1.3061   15.6568   -8.2136 H   0  0  0  0  0  0  0  0  0  0  0  0
   -0.1605   16.5525  -10.0343 H   0  0  0  0  0  0  0  0  0  0  0  0
    0.4575   17.4853   -8.6078 H   0  0  0  0  0  0  0  0  0  0  0  0
    2.1042   16.0551   -8.3835 H   0  0  0  0  0  0  0  0  0  0  0  0
    0.3221   14.3007  -10.9793 H   0  0  0  0  0  0  0  0  0  0  0  0
    0.7763   15.5365  -12.2012 H   0  0  0  0  0  0  0  0  0  0  0  0
    1.5864   13.9332  -12.2012 H   0  0  0  0  0  0  0  0  0  0  0  0
    3.8180   14.3493   -9.5828 H   0  0  0  0  0  0  0  0  0  0  0  0
    3.3964   13.5561  -11.1383 H   0  0  0  0  0  0  0  0  0  0  0  0
    4.2705   15.1254  -11.1383 H   0  0  0  0  0  0  0  0  0  0  0  0
   -0.4412   13.8295   -6.2047 H   0  0  0  0  0  0  0  0  0  0  0  0
    1.4156   12.9587   -7.4804 H   0  0  0  0  0  0  0  0  0  0  0  0
    2.3987   14.4091   -7.1851 H   0  0  0  0  0  0  0  0  0  0  0  0
    2.7330   11.8835   -5.8905 H   0  0  0  0  0  0  0  0  0  0  0  0
    3.4529   13.3874   -5.3222 H   0  0  0  0  0  0  0  0  0  0  0  0
    0.1614   11.3022   -3.7448 H   0  0  0  0  0  0  0  0  0  0  0  0
   -0.3326   12.1108   -5.2709 H   0  0  0  0  0  0  0  0  0  0  0  0
    1.0436   10.9563   -5.2709 H   0  0  0  0  0  0  0  0  0  0  0  0
    2.8995   13.5688   -2.9698 H   0  0  0  0  0  0  0  0  0  0  0  0
    3.3275   11.1257   -3.6667 H   0  0  0  0  0  0  0  0  0  0  0  0
    3.6681   11.7010   -1.9517 H   0  0  0  0  0  0  0  0  0  0  0  0
    2.5231    9.3383   -2.1834 H   0  0  0  0  0  0  0  0  0  0  0  0
   -0.5794   11.9196   -2.1340 H   0  0  0  0  0  0  0  0  0  0  0  0
    0.4806   11.9442    0.7599 H   0  0  0  0  0  0  0  0  0  0  0  0
   -0.9151   12.9068    0.0997 H   0  0  0  0  0  0  0  0  0  0  0  0
   -1.6659   10.9410    1.4018 H   0  0  0  0  0  0  0  0  0  0  0  0
   -2.1561   10.8661   -0.3359 H   0  0  0  0  0  0  0  0  0  0  0  0
   -1.3903    8.6950    0.3430 H   0  0  0  0  0  0  0  0  0  0  0  0
    1.2330    9.1810    0.7830 H   0  0  0  0  0  0  0  0  0  0  0  0
   -2.0696    8.9202   -1.7244 H   0  0  0  0  0  0  0  0  0  0  0  0
   -1.1651    9.9743   -2.8634 H   0  0  0  0  0  0  0  0  0  0  0  0
   -0.8816    8.2005   -2.8634 H   0  0  0  0  0  0  0  0  0  0  0  0
    0.9695    7.6161   -0.1001 H   0  0  0  0  0  0  0  0  0  0  0  0
    0.2112    7.1336   -1.6554 H   0  0  0  0  0  0  0  0  0  0  0  0
    1.7621    8.0398   -1.6554 H   0  0  0  0  0  0  0  0  0  0  0  0
    1.4943   13.2671    0.3738 H   0  0  0  0  0  0  0  0  0  0  0  0
    2.9778   12.9717   -0.5951 H   0  0  0  0  0  0  0  0  0  0  0  0
    2.2139   14.5975   -0.5951 H   0  0  0  0  0  0  0  0  0  0  0  0
   -0.6676   14.2631   -1.4495 H   0  0  0  0  0  0  0  0  0  0  0  0
    0.8477   15.2198   -1.9227 H   0  0  0  0  0  0  0  0  0  0  0  0
   -1.0192   13.6884   -3.7546 H   0  0  0  0  0  0  0  0  0  0  0  0
   -0.7298   15.4705   -3.6721 H   0  0  0  0  0  0  0  0  0  0  0  0
    1.9990   15.6610   -3.1918 H   0  0  0  0  0  0  0  0  0  0  0  0
    2.8549   15.2825   -4.7250 H   0  0  0  0  0  0  0  0  0  0  0  0
    1.4827   16.4417   -4.7250 H   0  0  0  0  0  0  0  0  0  0  0  0
  1  2  1  0
  2  3  1  0
  3  4  1  0
  4  5  1  0
  5  6  1  0
  6  7  1  0
  7  8  1  0
  7  9  1  0
  2 10  1  0
 10 11  1  0
 11 12  1  0
 12 13  1  0
 13 14  1  6
 13 15  1  0
 15 16  1  0
 16 17  1  0
 17 18  2  0
 18 19  1  0
 19 20  1  0
 20 21  1  0
 21 22  1  0
 22 23  1  0
 22 24  1  0
 24 25  1  0
 24 26  1  0
 19 27  1  0
 27 28  1  1
 27 29  1  0
 29 30  1  0
 30 31  1  0
 31 32  1  6
  7  5  1  0
 31 10  1  0
 31 13  1  0
 27 15  1  0
 24 18  1  0
  1 33  1  0
  1 34  1  0
  1 35  1  0
  2 36  1  6
  3 37  1  0
  3 38  1  0
  4 39  1  0
  4 40  1  0
  5 41  1  1
  8 42  1  0
  8 43  1  0
  8 44  1  0
  9 45  1  0
  9 46  1  0
  9 47  1  0
 10 48  1  1
 11 49  1  0
 11 50  1  0
 12 51  1  0
 12 52  1  0
 14 53  1  0
 14 54  1  0
 14 55  1  0
 15 56  1  6
 16 57  1  0
 16 58  1  0
 17 59  1  0
 19 60  1  6
 20 61  1  0
 20 62  1  0
 21 63  1  0
 21 64  1  0
 22 65  1  1
 23 66  1  0
 25 67  1  0
 25 68  1  0
 25 69  1  0
 26 70  1  0
 26 71  1  0
 26 72  1  0
 28 73  1  0
 28 74  1  0
 28 75  1  0
 29 76  1  0
 29 77  1  0
 30 78  1  0
 30 79  1  0
 32 80  1  0
 32 81  1  0
 32 82  1  0
M  END
>  <meeko>  (9) 
{"is_sidechain": [false], "intermolecular_energy": 2.731, "internal_energy": -0.839}

$$$$
EPH_relaxed_0001_pdb2pqr_Repair_28_r2_0001_out
     RDKit          3D

 82 86  0  0  0  0  0  0  0  0999 V2000
   -4.0070    7.3620   -3.5630 C   0  0  0  0  0  0  0  0  0  0  0  0
   -3.6440    7.2750   -2.0780 C   0  0  2  0  0  0  0  0  0  0  0  0
   -4.8360    6.8150   -1.2150 C   0  0  0  0  0  0  0  0  0  0  0  0
   -6.1170    6.5670   -2.0160 C   0  0  0  0  0  0  0  0  0  0  0  0
   -7.2980    6.3470   -1.1200 C   0  0  2  0  0  0  0  0  0  0  0  0
   -8.3490    5.5610   -1.6960 O   0  0  0  0  0  0  0  0  0  0  0  0
   -8.6730    6.9270   -1.3920 C   0  0  0  0  0  0  0  0  0  0  0  0
   -8.9390    7.7730   -2.5980 C   0  0  0  0  0  0  0  0  0  0  0  0
   -9.6250    7.0800   -0.2460 C   0  0  0  0  0  0  0  0  0  0  0  0
   -3.1360    8.6260   -1.5880 C   0  0  1  0  0  0  0  0  0  0  0  0
   -3.8120    9.0730   -0.2640 C   0  0  0  0  0  0  0  0  0  0  0  0
   -2.7370    9.8370    0.5510 C   0  0  0  0  0  0  0  0  0  0  0  0
   -1.5920   10.0930   -0.4570 C   0  0  1  0  0  0  0  0  0  0  0  0
   -2.0460   11.3450   -1.2710 C   0  0  0  0  0  0  0  0  0  0  0  0
   -0.1650   10.2860    0.1530 C   0  0  2  0  0  0  0  0  0  0  0  0
   -0.0110   11.5060    1.0780 C   0  0  0  0  0  0  0  0  0  0  0  0
    0.4120   12.7690    0.4040 C   0  0  0  0  0  0  0  0  0  0  0  0
    0.9320   12.8580   -0.8340 C   0  0  0  0  0  0  0  0  0  0  0  0
    1.2330   11.5980   -1.6550 C   0  0  1  0  0  0  0  0  0  0  0  0
    2.6470   11.7130   -2.2820 C   0  0  0  0  0  0  0  0  0  0  0  0
    2.8250   12.9930   -3.0920 C   0  0  0  0  0  0  0  0  0  0  0  0
    2.5740   14.2260   -2.2270 C   0  0  2  0  0  0  0  0  0  0  0  0
    3.6030   14.3110   -1.2370 O   0  0  0  0  0  0  0  0  0  0  0  0
    1.1830   14.2160   -1.5360 C   0  0  0  0  0  0  0  0  0  0  0  0
    0.0730   14.4280   -2.5950 C   0  0  0  0  0  0  0  0  0  0  0  0
    1.1140   15.4410   -0.5840 C   0  0  0  0  0  0  0  0  0  0  0  0
    1.0080   10.2130   -0.9070 C   0  0  1  0  0  0  0  0  0  0  0  0
    2.2950    9.8180   -0.1200 C   0  0  0  0  0  0  0  0  0  0  0  0
    0.7770    9.0820   -1.9780 C   0  0  0  0  0  0  0  0  0  0  0  0
   -0.6710    8.8590   -2.4520 C   0  0  0  0  0  0  0  0  0  0  0  0
   -1.6260    8.7410   -1.2600 C   0  0  2  0  0  0  0  0  0  0  0  0
   -1.2080    7.4770   -0.4350 C   0  0  0  0  0  0  0  0  0  0  0  0
   -5.0720    7.6173   -3.6658 H   0  0  0  0  0  0  0  0  0  0  0  0
   -3.3955    8.1390   -4.0450 H   0  0  0  0  0  0  0  0  0  0  0  0
   -3.8142    6.3922   -4.0450 H   0  0  0  0  0  0  0  0  0  0  0  0
   -2.8511    6.5197   -1.9742 H   0  0  0  0  0  0  0  0  0  0  0  0
   -4.5570    5.8795   -0.7080 H   0  0  0  0  0  0  0  0  0  0  0  0
   -5.0525    7.6282   -0.5066 H   0  0  0  0  0  0  0  0  0  0  0  0
   -6.3124    7.4407   -2.6551 H   0  0  0  0  0  0  0  0  0  0  0  0
   -5.9724    5.6599   -2.6212 H   0  0  0  0  0  0  0  0  0  0  0  0
   -6.6539    6.3616   -0.2284 H   0  0  0  0  0  0  0  0  0  0  0  0
   -9.2548    8.7773   -2.2790 H   0  0  0  0  0  0  0  0  0  0  0  0
   -8.0221    7.8511   -3.2006 H   0  0  0  0  0  0  0  0  0  0  0  0
   -9.7356    7.3123   -3.2006 H   0  0  0  0  0  0  0  0  0  0  0  0
   -9.0746    6.9915    0.7023 H   0  0  0  0  0  0  0  0  0  0  0  0
  -10.1073    8.0672   -0.2993 H   0  0  0  0  0  0  0  0  0  0  0  0
  -10.3923    6.2937   -0.2993 H   0  0  0  0  0  0  0  0  0  0  0  0
   -3.3788    9.2444   -2.4647 H   0  0  0  0  0  0  0  0  0  0  0  0
   -4.6652    9.7334   -0.4784 H   0  0  0  0  0  0  0  0  0  0  0  0
   -4.1920    8.2069    0.2976 H   0  0  0  0  0  0  0  0  0  0  0  0
   -3.1401   10.7876    0.9304 H   0  0  0  0  0  0  0  0  0  0  0  0
   -2.3992    9.2697    1.4308 H   0  0  0  0  0  0  0  0  0  0  0  0
   -2.3370   12.1476   -0.5773 H   0  0  0  0  0  0  0  0  0  0  0  0
   -1.2161   11.6911   -1.9047 H   0  0  0  0  0  0  0  0  0  0  0  0
   -2.9048   11.0787   -1.9047 H   0  0  0  0  0  0  0  0  0  0  0  0
   -0.0642    9.4038    0.8022 H   0  0  0  0  0  0  0  0  0  0  0  0
   -0.9809   11.6886    1.5638 H   0  0  0  0  0  0  0  0  0  0  0  0
    0.7947   11.2531    1.7829 H   0  0  0  0  0  0  0  0  0  0  0  0
    0.2882   13.7060    0.9668 H   0  0  0  0  0  0  0  0  0  0  0  0
    0.4740   11.5654   -2.4505 H   0  0  0  0  0  0  0  0  0  0  0  0
    3.3932   11.7004   -1.4739 H   0  0  0  0  0  0  0  0  0  0  0  0
    2.7785   10.8629   -2.9676 H   0  0  0  0  0  0  0  0  0  0  0  0
    3.8522   13.0312   -3.4837 H   0  0  0  0  0  0  0  0  0  0  0  0
    2.0982   12.9897   -3.9177 H   0  0  0  0  0  0  0  0  0  0  0  0
    2.5877   15.1034   -2.8904 H   0  0  0  0  0  0  0  0  0  0  0  0
    3.4530   13.5970   -0.5940 H   0  0  0  0  0  0  0  0  0  0  0  0
   -0.8864   14.6112   -2.0890 H   0  0  0  0  0  0  0  0  0  0  0  0
    0.3270   15.2939   -3.2241 H   0  0  0  0  0  0  0  0  0  0  0  0
   -0.0100   13.5295   -3.2241 H   0  0  0  0  0  0  0  0  0  0  0  0
    1.1335   15.0955    0.4601 H   0  0  0  0  0  0  0  0  0  0  0  0
    1.9766   16.0981   -0.7689 H   0  0  0  0  0  0  0  0  0  0  0  0
    0.1831   15.9971   -0.7689 H   0  0  0  0  0  0  0  0  0  0  0  0
    2.0973    9.8787    0.9604 H   0  0  0  0  0  0  0  0  0  0  0  0
    2.5843    8.7897   -0.3826 H   0  0  0  0  0  0  0  0  0  0  0  0
    3.1113   10.5070   -0.3826 H   0  0  0  0  0  0  0  0  0  0  0  0
    1.3816    9.3326   -2.8621 H   0  0  0  0  0  0  0  0  0  0  0  0
    1.0619    8.1465   -1.4743 H   0  0  0  0  0  0  0  0  0  0  0  0
   -0.9798    9.7094   -3.0777 H   0  0  0  0  0  0  0  0  0  0  0  0
   -0.7113    7.9226   -3.0278 H   0  0  0  0  0  0  0  0  0  0  0  0
   -1.2817    7.6997    0.6397 H   0  0  0  0  0  0  0  0  0  0  0  0
   -1.8771    6.6398   -0.6826 H   0  0  0  0  0  0  0  0  0  0  0  0
   -0.1717    7.2037   -0.6826 H   0  0  0  0  0  0  0  0  0  0  0  0
  1  2  1  0
  2  3  1  0
  3  4  1  0
  4  5  1  0
  5  6  1  0
  6  7  1  0
  7  8  1  0
  7  9  1  0
  2 10  1  0
 10 11  1  0
 11 12  1  0
 12 13  1  0
 13 14  1  6
 13 15  1  0
 15 16  1  0
 16 17  1  0
 17 18  2  0
 18 19  1  0
 19 20  1  0
 20 21  1  0
 21 22  1  0
 22 23  1  0
 22 24  1  0
 24 25  1  0
 24 26  1  0
 19 27  1  0
 27 28  1  1
 27 29  1  0
 29 30  1  0
 30 31  1  0
 31 32  1  1
  7  5  1  0
 31 10  1  0
 31 13  1  0
 27 15  1  0
 24 18  1  0
  1 33  1  0
  1 34  1  0
  1 35  1  0
  2 36  1  6
  3 37  1  0
  3 38  1  0
  4 39  1  0
  4 40  1  0
  5 41  1  1
  8 42  1  0
  8 43  1  0
  8 44  1  0
  9 45  1  0
  9 46  1  0
  9 47  1  0
 10 48  1  6
 11 49  1  0
 11 50  1  0
 12 51  1  0
 12 52  1  0
 14 53  1  0
 14 54  1  0
 14 55  1  0
 15 56  1  1
 16 57  1  0
 16 58  1  0
 17 59  1  0
 19 60  1  6
 20 61  1  0
 20 62  1  0
 21 63  1  0
 21 64  1  0
 22 65  1  6
 23 66  1  0
 25 67  1  0
 25 68  1  0
 25 69  1  0
 26 70  1  0
 26 71  1  0
 26 72  1  0
 28 73  1  0
 28 74  1  0
 28 75  1  0
 29 76  1  0
 29 77  1  0
 30 78  1  0
 30 79  1  0
 32 80  1  0
 32 81  1  0
 32 82  1  0
M  END
>  <meeko>  (10) 
{"is_sidechain": [false], "intermolecular_energy": 2.731, "internal_energy": -0.839}

$$$$
EPH_relaxed_0001_pdb2pqr_Repair_28_r2_0001_out
     RDKit          3D

 82 86  0  0  0  0  0  0  0  0999 V2000
   -0.2760    9.3410   -2.1870 C   0  0  0  0  0  0  0  0  0  0  0  0
    0.8610   10.2550   -2.6520 C   0  0  2  0  0  0  0  0  0  0  0  0
    2.2150    9.5190   -2.7010 C   0  0  0  0  0  0  0  0  0  0  0  0
    3.1400   10.0060   -3.8200 C   0  0  0  0  0  0  0  0  0  0  0  0
    4.4600   10.4720   -3.2830 C   0  0  2  0  0  0  0  0  0  0  0  0
    4.8470   11.7870   -3.7060 O   0  0  0  0  0  0  0  0  0  0  0  0
    5.6810   10.7060   -4.1530 C   0  0  0  0  0  0  0  0  0  0  0  0
    5.6410   10.4780   -5.6320 C   0  0  0  0  0  0  0  0  0  0  0  0
    7.0320   10.6810   -3.5100 C   0  0  0  0  0  0  0  0  0  0  0  0
    0.9610   11.4680   -1.7350 C   0  0  1  0  0  0  0  0  0  0  0  0
    2.0670   11.3130   -0.6570 C   0  0  0  0  0  0  0  0  0  0  0  0
    2.6720   12.7220   -0.4300 C   0  0  0  0  0  0  0  0  0  0  0  0
    1.6850   13.6870   -1.1280 C   0  0  1  0  0  0  0  0  0  0  0  0
    0.5230   13.8830   -0.1040 C   0  0  0  0  0  0  0  0  0  0  0  0
    2.2740   15.0560   -1.6010 C   0  0  2  0  0  0  0  0  0  0  0  0
    2.8120   15.9580   -0.4770 C   0  0  0  0  0  0  0  0  0  0  0  0
    1.8200   16.9070    0.1090 C   0  0  0  0  0  0  0  0  0  0  0  0
    0.6340   17.2340   -0.4360 C   0  0  0  0  0  0  0  0  0  0  0  0
    0.2280   16.7010   -1.8160 C   0  0  1  0  0  0  0  0  0  0  0  0
   -0.3420   17.8630   -2.6720 C   0  0  0  0  0  0  0  0  0  0  0  0
   -1.4800   18.6000   -1.9730 C   0  0  0  0  0  0  0  0  0  0  0  0
   -1.0220   19.1650   -0.6310 C   0  0  2  0  0  0  0  0  0  0  0  0
   -0.0540   20.1910   -0.8690 O   0  0  0  0  0  0  0  0  0  0  0  0
   -0.4190   18.0870    0.3130 C   0  0  0  0  0  0  0  0  0  0  0  0
   -1.5430   17.1450    0.8120 C   0  0  0  0  0  0  0  0  0  0  0  0
    0.1320   18.8100    1.5720 C   0  0  0  0  0  0  0  0  0  0  0  0
    1.3340   15.8610   -2.5870 C   0  0  1  0  0  0  0  0  0  0  0  0
    2.2580   16.8170   -3.4020 C   0  0  0  0  0  0  0  0  0  0  0  0
    0.6280   14.9240   -3.6380 C   0  0  0  0  0  0  0  0  0  0  0  0
    0.1760   13.5380   -3.1410 C   0  0  0  0  0  0  0  0  0  0  0  0
    1.3070   12.8290   -2.3900 C   0  0  2  0  0  0  0  0  0  0  0  0
    2.4810   12.5980   -3.4010 C   0  0  0  0  0  0  0  0  0  0  0  0
   -0.3028    9.3195   -1.0875 H   0  0  0  0  0  0  0  0  0  0  0  0
   -1.2337    9.7235   -2.5697 H   0  0  0  0  0  0  0  0  0  0  0  0
   -0.1083    8.3234   -2.5697 H   0  0  0  0  0  0  0  0  0  0  0  0
    0.6253   10.5811   -3.6758 H   0  0  0  0  0  0  0  0  0  0  0  0
    2.7262    9.6677   -1.7384 H   0  0  0  0  0  0  0  0  0  0  0  0
    1.9980    8.4594   -2.9015 H   0  0  0  0  0  0  0  0  0  0  0  0
    3.3133    9.1793   -4.5247 H   0  0  0  0  0  0  0  0  0  0  0  0
    2.6541   10.8556   -4.3220 H   0  0  0  0  0  0  0  0  0  0  0  0
    4.3134    9.8977   -2.3564 H   0  0  0  0  0  0  0  0  0  0  0  0
    5.4541    9.4130   -5.8339 H   0  0  0  0  0  0  0  0  0  0  0  0
    4.8351   11.0820   -6.0744 H   0  0  0  0  0  0  0  0  0  0  0  0
    6.6044   10.7716   -6.0744 H   0  0  0  0  0  0  0  0  0  0  0  0
    6.9175   10.6831   -2.4160 H   0  0  0  0  0  0  0  0  0  0  0  0
    7.5692    9.7728   -3.8207 H   0  0  0  0  0  0  0  0  0  0  0  0
    7.6024   11.5687   -3.8207 H   0  0  0  0  0  0  0  0  0  0  0  0
   -0.0674   11.4887   -1.3451 H   0  0  0  0  0  0  0  0  0  0  0  0
    1.6326   10.9321    0.2791 H   0  0  0  0  0  0  0  0  0  0  0  0
    2.8386   10.6000   -0.9830 H   0  0  0  0  0  0  0  0  0  0  0  0
    2.7405   12.9468    0.6446 H   0  0  0  0  0  0  0  0  0  0  0  0
    3.6929   12.8073   -0.8307 H   0  0  0  0  0  0  0  0  0  0  0  0
    0.9209   13.8159    0.9193 H   0  0  0  0  0  0  0  0  0  0  0  0
    0.0641   14.8712   -0.2549 H   0  0  0  0  0  0  0  0  0  0  0  0
   -0.2347   13.1000   -0.2549 H   0  0  0  0  0  0  0  0  0  0  0  0
    3.1544   14.7447   -2.1823 H   0  0  0  0  0  0  0  0  0  0  0  0
    3.1811   15.3099    0.3316 H   0  0  0  0  0  0  0  0  0  0  0  0
    3.5949   16.5805   -0.9348 H   0  0  0  0  0  0  0  0  0  0  0  0
    2.0806   17.3791    1.0677 H   0  0  0  0  0  0  0  0  0  0  0  0
   -0.5562   15.9513   -1.6344 H   0  0  0  0  0  0  0  0  0  0  0  0
    0.4673   18.5787   -2.8788 H   0  0  0  0  0  0  0  0  0  0  0  0
   -0.7447   17.4288   -3.5990 H   0  0  0  0  0  0  0  0  0  0  0  0
   -1.8208   19.4265   -2.6139 H   0  0  0  0  0  0  0  0  0  0  0  0
   -2.2999   17.8892   -1.7929 H   0  0  0  0  0  0  0  0  0  0  0  0
   -1.9101   19.5673   -0.1218 H   0  0  0  0  0  0  0  0  0  0  0  0
    0.8220   19.7690   -0.8970 H   0  0  0  0  0  0  0  0  0  0  0  0
   -1.5530   17.1366    1.9119 H   0  0  0  0  0  0  0  0  0  0  0  0
   -2.5140   17.5031    0.4392 H   0  0  0  0  0  0  0  0  0  0  0  0
   -1.3602   16.1264    0.4392 H   0  0  0  0  0  0  0  0  0  0  0  0
   -0.2476   18.3120    2.4764 H   0  0  0  0  0  0  0  0  0  0  0  0
    1.2313   18.7707    1.5657 H   0  0  0  0  0  0  0  0  0  0  0  0
   -0.1974   19.8595    1.5657 H   0  0  0  0  0  0  0  0  0  0  0  0
    2.8519   17.4315   -2.7094 H   0  0  0  0  0  0  0  0  0  0  0  0
    2.9327   16.2227   -4.0357 H   0  0  0  0  0  0  0  0  0  0  0  0
    1.6411   17.4711   -4.0357 H   0  0  0  0  0  0  0  0  0  0  0  0
   -0.2635   15.4516   -4.0080 H   0  0  0  0  0  0  0  0  0  0  0  0
    1.3936   14.7200   -4.4011 H   0  0  0  0  0  0  0  0  0  0  0  0
   -0.6831   13.6607   -2.4651 H   0  0  0  0  0  0  0  0  0  0  0  0
   -0.1034   12.9271   -4.0121 H   0  0  0  0  0  0  0  0  0  0  0  0
    3.4126   12.4147   -2.8455 H   0  0  0  0  0  0  0  0  0  0  0  0
    2.2540   11.7273   -4.0337 H   0  0  0  0  0  0  0  0  0  0  0  0
    2.6008   13.4898   -4.0337 H   0  0  0  0  0  0  0  0  0  0  0  0
  1  2  1  0
  2  3  1  0
  3  4  1  0
  4  5  1  0
  5  6  1  0
  6  7  1  0
  7  8  1  0
  7  9  1  0
  2 10  1  0
 10 11  1  0
 11 12  1  0
 12 13  1  0
 13 14  1  1
 13 15  1  0
 15 16  1  0
 16 17  1  0
 17 18  2  0
 18 19  1  0
 19 20  1  0
 20 21  1  0
 21 22  1  0
 22 23  1  0
 22 24  1  0
 24 25  1  0
 24 26  1  0
 19 27  1  0
 27 28  1  6
 27 29  1  0
 29 30  1  0
 30 31  1  0
 31 32  1  6
  7  5  1  0
 31 10  1  0
 31 13  1  0
 27 15  1  0
 24 18  1  0
  1 33  1  0
  1 34  1  0
  1 35  1  0
  2 36  1  6
  3 37  1  0
  3 38  1  0
  4 39  1  0
  4 40  1  0
  5 41  1  1
  8 42  1  0
  8 43  1  0
  8 44  1  0
  9 45  1  0
  9 46  1  0
  9 47  1  0
 10 48  1  1
 11 49  1  0
 11 50  1  0
 12 51  1  0
 12 52  1  0
 14 53  1  0
 14 54  1  0
 14 55  1  0
 15 56  1  6
 16 57  1  0
 16 58  1  0
 17 59  1  0
 19 60  1  1
 20 61  1  0
 20 62  1  0
 21 63  1  0
 21 64  1  0
 22 65  1  1
 23 66  1  0
 25 67  1  0
 25 68  1  0
 25 69  1  0
 26 70  1  0
 26 71  1  0
 26 72  1  0
 28 73  1  0
 28 74  1  0
 28 75  1  0
 29 76  1  0
 29 77  1  0
 30 78  1  0
 30 79  1  0
 32 80  1  0
 32 81  1  0
 32 82  1  0
M  END
>  <meeko>  (11) 
{"is_sidechain": [false], "intermolecular_energy": 2.731, "internal_energy": -0.839}

$$$$
EPH_relaxed_0001_pdb2pqr_Repair_28_r2_0001_out
     RDKit          3D

 82 86  0  0  0  0  0  0  0  0999 V2000
   -2.2400    7.8200   -2.2160 C   0  0  0  0  0  0  0  0  0  0  0  0
   -2.2320    8.4280   -0.8100 C   0  0  2  0  0  0  0  0  0  0  0  0
   -3.6300    8.4110   -0.1620 C   0  0  0  0  0  0  0  0  0  0  0  0
   -4.7770    8.5400   -1.1680 C   0  0  0  0  0  0  0  0  0  0  0  0
   -5.8600    7.5380   -0.9070 C   0  0  2  0  0  0  0  0  0  0  0  0
   -5.4240    6.1720   -0.9090 O   0  0  0  0  0  0  0  0  0  0  0  0
   -6.3480    6.5440   -1.9440 C   0  0  0  0  0  0  0  0  0  0  0  0
   -5.7650    6.5050   -3.3220 C   0  0  0  0  0  0  0  0  0  0  0  0
   -7.7110    5.9480   -1.7780 C   0  0  0  0  0  0  0  0  0  0  0  0
   -1.6990    9.8550   -0.8640 C   0  0  1  0  0  0  0  0  0  0  0  0
   -1.2580   10.3810    0.5280 C   0  0  0  0  0  0  0  0  0  0  0  0
   -0.0330   11.3010    0.2900 C   0  0  0  0  0  0  0  0  0  0  0  0
   -0.0140   11.5390   -1.2380 C   0  0  1  0  0  0  0  0  0  0  0  0
   -1.0660   12.6660   -1.4820 C   0  0  0  0  0  0  0  0  0  0  0  0
    1.3730   11.8990   -1.8640 C   0  0  2  0  0  0  0  0  0  0  0  0
    1.9950   13.2130   -1.3610 C   0  0  0  0  0  0  0  0  0  0  0  0
    1.6390   14.4300   -2.1480 C   0  0  0  0  0  0  0  0  0  0  0  0
    1.0870   14.4330   -3.3760 C   0  0  0  0  0  0  0  0  0  0  0  0
    0.8550   13.1230   -4.1390 C   0  0  1  0  0  0  0  0  0  0  0  0
    1.3500   13.2800   -5.6010 C   0  0  0  0  0  0  0  0  0  0  0  0
    0.7270   14.4820   -6.3030 C   0  0  0  0  0  0  0  0  0  0  0  0
    1.0280   15.7730   -5.5460 C   0  0  2  0  0  0  0  0  0  0  0  0
    2.4330   16.0330   -5.6200 O   0  0  0  0  0  0  0  0  0  0  0  0
    0.5820   15.7290   -4.0580 C   0  0  0  0  0  0  0  0  0  0  0  0
   -0.9640   15.7500   -3.9770 C   0  0  0  0  0  0  0  0  0  0  0  0
    1.0710   17.0340   -3.3740 C   0  0  0  0  0  0  0  0  0  0  0  0
    1.4140   11.8070   -3.4430 C   0  0  1  0  0  0  0  0  0  0  0  0
    2.9070   11.5900   -3.8380 C   0  0  0  0  0  0  0  0  0  0  0  0
    0.6240   10.5610   -3.9920 C   0  0  0  0  0  0  0  0  0  0  0  0
   -0.6760   10.1840   -3.2560 C   0  0  0  0  0  0  0  0  0  0  0  0
   -0.4500   10.1150   -1.7430 C   0  0  2  0  0  0  0  0  0  0  0  0
    0.5880    8.9750   -1.4650 C   0  0  0  0  0  0  0  0  0  0  0  0
   -2.2544    6.7227   -2.1409 H   0  0  0  0  0  0  0  0  0  0  0  0
   -3.1337    8.1622   -2.7584 H   0  0  0  0  0  0  0  0  0  0  0  0
   -1.3376    8.1386   -2.7584 H   0  0  0  0  0  0  0  0  0  0  0  0
   -1.5720    7.8084   -0.1851 H   0  0  0  0  0  0  0  0  0  0  0  0
   -3.7495    7.4618    0.3809 H   0  0  0  0  0  0  0  0  0  0  0  0
   -3.6863    9.2853    0.5032 H   0  0  0  0  0  0  0  0  0  0  0  0
   -5.2026    9.5517   -1.0952 H   0  0  0  0  0  0  0  0  0  0  0  0
   -4.3728    8.3531   -2.1738 H   0  0  0  0  0  0  0  0  0  0  0  0
   -6.3931    8.2479   -0.2575 H   0  0  0  0  0  0  0  0  0  0  0  0
   -4.6695    6.4317   -3.2547 H   0  0  0  0  0  0  0  0  0  0  0  0
   -6.1585    5.6312   -3.8620 H   0  0  0  0  0  0  0  0  0  0  0  0
   -6.0386    7.4235   -3.8620 H   0  0  0  0  0  0  0  0  0  0  0  0
   -7.9395    5.8481   -0.7066 H   0  0  0  0  0  0  0  0  0  0  0  0
   -8.4574    6.6019   -2.2527 H   0  0  0  0  0  0  0  0  0  0  0  0
   -7.7377    4.9561   -2.2527 H   0  0  0  0  0  0  0  0  0  0  0  0
   -2.5744   10.3626   -1.2953 H   0  0  0  0  0  0  0  0  0  0  0  0
   -2.0752   10.9511    0.9940 H   0  0  0  0  0  0  0  0  0  0  0  0
   -1.0032    9.5499    1.2021 H   0  0  0  0  0  0  0  0  0  0  0  0
   -0.1512   12.2522    0.8296 H   0  0  0  0  0  0  0  0  0  0  0  0
    0.9028   10.8515    0.6536 H   0  0  0  0  0  0  0  0  0  0  0  0
   -1.4237   13.0493   -0.5150 H   0  0  0  0  0  0  0  0  0  0  0  0
   -0.6013   13.4844   -2.0515 H   0  0  0  0  0  0  0  0  0  0  0  0
   -1.9144   12.2586   -2.0515 H   0  0  0  0  0  0  0  0  0  0  0  0
    2.0205   11.0968   -1.4803 H   0  0  0  0  0  0  0  0  0  0  0  0
    1.6641   13.3703   -0.3238 H   0  0  0  0  0  0  0  0  0  0  0  0
    3.0836   13.0926   -1.4632 H   0  0  0  0  0  0  0  0  0  0  0  0
    1.8449   15.4068   -1.6859 H   0  0  0  0  0  0  0  0  0  0  0  0
   -0.2319   12.9540   -4.1296 H   0  0  0  0  0  0  0  0  0  0  0  0
    2.4429   13.4043   -5.5919 H   0  0  0  0  0  0  0  0  0  0  0  0
    1.0500   12.3777   -6.1540 H   0  0  0  0  0  0  0  0  0  0  0  0
    1.1379   14.5573   -7.3206 H   0  0  0  0  0  0  0  0  0  0  0  0
   -0.3635   14.3417   -6.3377 H   0  0  0  0  0  0  0  0  0  0  0  0
    0.4492   16.5779   -6.0226 H   0  0  0  0  0  0  0  0  0  0  0  0
    2.7480   16.2100   -4.7170 H   0  0  0  0  0  0  0  0  0  0  0  0
   -1.2759   15.7542   -2.9221 H   0  0  0  0  0  0  0  0  0  0  0  0
   -1.3451   16.6534   -4.4757 H   0  0  0  0  0  0  0  0  0  0  0  0
   -1.3695   14.8573   -4.4757 H   0  0  0  0  0  0  0  0  0  0  0  0
    1.0262   16.9143   -2.2814 H   0  0  0  0  0  0  0  0  0  0  0  0
    2.1077   17.2410   -3.6779 H   0  0  0  0  0  0  0  0  0  0  0  0
    0.4256   17.8713   -3.6779 H   0  0  0  0  0  0  0  0  0  0  0  0
    3.5180   11.5012   -2.9276 H   0  0  0  0  0  0  0  0  0  0  0  0
    2.9989   10.6691   -4.4325 H   0  0  0  0  0  0  0  0  0  0  0  0
    3.2572   12.4467   -4.4325 H   0  0  0  0  0  0  0  0  0  0  0  0
    0.3649   10.7669   -5.0410 H   0  0  0  0  0  0  0  0  0  0  0  0
    1.2979    9.7044   -3.8435 H   0  0  0  0  0  0  0  0  0  0  0  0
   -1.4437   10.9419   -3.4708 H   0  0  0  0  0  0  0  0  0  0  0  0
   -1.0029    9.1941   -3.6069 H   0  0  0  0  0  0  0  0  0  0  0  0
    0.7070    8.8443   -0.3793 H   0  0  0  0  0  0  0  0  0  0  0  0
    0.2288    8.0355   -1.9103 H   0  0  0  0  0  0  0  0  0  0  0  0
    1.5570    9.2448   -1.9103 H   0  0  0  0  0  0  0  0  0  0  0  0
  1  2  1  0
  2  3  1  0
  3  4  1  0
  4  5  1  0
  5  6  1  0
  6  7  1  0
  7  8  1  0
  7  9  1  0
  2 10  1  0
 10 11  1  0
 11 12  1  0
 12 13  1  0
 13 14  1  1
 13 15  1  0
 15 16  1  0
 16 17  1  0
 17 18  2  0
 18 19  1  0
 19 20  1  0
 20 21  1  0
 21 22  1  0
 22 23  1  0
 22 24  1  0
 24 25  1  0
 24 26  1  0
 19 27  1  0
 27 28  1  1
 27 29  1  0
 29 30  1  0
 30 31  1  0
 31 32  1  6
  7  5  1  0
 31 10  1  0
 31 13  1  0
 27 15  1  0
 24 18  1  0
  1 33  1  0
  1 34  1  0
  1 35  1  0
  2 36  1  1
  3 37  1  0
  3 38  1  0
  4 39  1  0
  4 40  1  0
  5 41  1  1
  8 42  1  0
  8 43  1  0
  8 44  1  0
  9 45  1  0
  9 46  1  0
  9 47  1  0
 10 48  1  6
 11 49  1  0
 11 50  1  0
 12 51  1  0
 12 52  1  0
 14 53  1  0
 14 54  1  0
 14 55  1  0
 15 56  1  1
 16 57  1  0
 16 58  1  0
 17 59  1  0
 19 60  1  6
 20 61  1  0
 20 62  1  0
 21 63  1  0
 21 64  1  0
 22 65  1  6
 23 66  1  0
 25 67  1  0
 25 68  1  0
 25 69  1  0
 26 70  1  0
 26 71  1  0
 26 72  1  0
 28 73  1  0
 28 74  1  0
 28 75  1  0
 29 76  1  0
 29 77  1  0
 30 78  1  0
 30 79  1  0
 32 80  1  0
 32 81  1  0
 32 82  1  0
M  END
>  <meeko>  (12) 
{"is_sidechain": [false], "intermolecular_energy": 2.731, "internal_energy": -0.839}

$$$$
EPH_relaxed_0001_pdb2pqr_Repair_28_r2_0001_out
     RDKit          3D

 82 86  0  0  0  0  0  0  0  0999 V2000
    2.9040   11.4000   -5.3650 C   0  0  0  0  0  0  0  0  0  0  0  0
    1.8980   11.0860   -4.2530 C   0  0  2  0  0  0  0  0  0  0  0  0
    0.7900   10.1250   -4.7280 C   0  0  0  0  0  0  0  0  0  0  0  0
   -0.2920    9.8660   -3.6760 C   0  0  0  0  0  0  0  0  0  0  0  0
    0.2350    9.0650   -2.5240 C   0  0  2  0  0  0  0  0  0  0  0  0
   -0.6100    7.9840   -2.1100 O   0  0  0  0  0  0  0  0  0  0  0  0
   -0.4160    9.0390   -1.1550 C   0  0  0  0  0  0  0  0  0  0  0  0
   -1.6520    9.8310   -0.8640 C   0  0  0  0  0  0  0  0  0  0  0  0
    0.4130    8.6390    0.0250 C   0  0  0  0  0  0  0  0  0  0  0  0
    1.2800   12.3780   -3.7320 C   0  0  1  0  0  0  0  0  0  0  0  0
   -0.2600   12.2800   -3.5680 C   0  0  0  0  0  0  0  0  0  0  0  0
   -0.6330   13.1320   -2.3280 C   0  0  0  0  0  0  0  0  0  0  0  0
    0.6410   13.9530   -2.0210 C   0  0  1  0  0  0  0  0  0  0  0  0
    0.5950   15.1540   -3.0170 C   0  0  0  0  0  0  0  0  0  0  0  0
    0.8140   14.4350   -0.5440 C   0  0  2  0  0  0  0  0  0  0  0  0
   -0.2760   15.3960   -0.0400 C   0  0  0  0  0  0  0  0  0  0  0  0
    0.0060   16.8470   -0.2500 C   0  0  0  0  0  0  0  0  0  0  0  0
    1.2060   17.3740   -0.5580 C   0  0  0  0  0  0  0  0  0  0  0  0
    2.4590   16.4910   -0.6300 C   0  0  1  0  0  0  0  0  0  0  0  0
    3.6210   17.1790    0.1320 C   0  0  0  0  0  0  0  0  0  0  0  0
    3.8810   18.6010   -0.3570 C   0  0  0  0  0  0  0  0  0  0  0  0
    2.6290   19.4630   -0.2150 C   0  0  2  0  0  0  0  0  0  0  0  0
    2.3420   19.6340    1.1760 O   0  0  0  0  0  0  0  0  0  0  0  0
    1.3890   18.8650   -0.9350 C   0  0  0  0  0  0  0  0  0  0  0  0
    1.5810   18.9580   -2.4690 C   0  0  0  0  0  0  0  0  0  0  0  0
    0.1640   19.7570   -0.5960 C   0  0  0  0  0  0  0  0  0  0  0  0
    2.2620   14.9730   -0.2020 C   0  0  1  0  0  0  0  0  0  0  0  0
    2.4390   14.8270    1.3400 C   0  0  0  0  0  0  0  0  0  0  0  0
    3.3950   14.1020   -0.8630 C   0  0  0  0  0  0  0  0  0  0  0  0
    3.1160   13.5550   -2.2760 C   0  0  0  0  0  0  0  0  0  0  0  0
    1.7430   12.8780   -2.3410 C   0  0  2  0  0  0  0  0  0  0  0  0
    1.7680   11.6530   -1.3660 C   0  0  0  0  0  0  0  0  0  0  0  0
    3.8633   11.6994   -4.9177 H   0  0  0  0  0  0  0  0  0  0  0  0
    3.0531   10.5057   -5.9878 H   0  0  0  0  0  0  0  0  0  0  0  0
    2.5179   12.2204   -5.9878 H   0  0  0  0  0  0  0  0  0  0  0  0
    2.4457   10.5831   -3.4424 H   0  0  0  0  0  0  0  0  0  0  0  0
    0.3119   10.5591   -5.6185 H   0  0  0  0  0  0  0  0  0  0  0  0
    1.2711    9.1586   -4.9393 H   0  0  0  0  0  0  0  0  0  0  0  0
   -0.6615   10.8313   -3.2996 H   0  0  0  0  0  0  0  0  0  0  0  0
   -1.1014    9.2920   -4.1508 H   0  0  0  0  0  0  0  0  0  0  0  0
    1.2720    9.2443   -2.8442 H   0  0  0  0  0  0  0  0  0  0  0  0
   -1.7850    9.9162    0.2246 H   0  0  0  0  0  0  0  0  0  0  0  0
   -1.5552   10.8357   -1.3014 H   0  0  0  0  0  0  0  0  0  0  0  0
   -2.5243    9.3232   -1.3014 H   0  0  0  0  0  0  0  0  0  0  0  0
   -0.1204    8.8964    0.9520 H   0  0  0  0  0  0  0  0  0  0  0  0
    0.5940    7.5544   -0.0048 H   0  0  0  0  0  0  0  0  0  0  0  0
    1.3747    9.1722   -0.0048 H   0  0  0  0  0  0  0  0  0  0  0  0
    1.6202   13.0728   -4.5140 H   0  0  0  0  0  0  0  0  0  0  0  0
   -0.7622   12.6746   -4.4636 H   0  0  0  0  0  0  0  0  0  0  0  0
   -0.5776   11.2348   -3.4390 H   0  0  0  0  0  0  0  0  0  0  0  0
   -1.4788   13.7978   -2.5545 H   0  0  0  0  0  0  0  0  0  0  0  0
   -0.9454   12.5121   -1.4747 H   0  0  0  0  0  0  0  0  0  0  0  0
    0.5589   16.0974   -2.4524 H   0  0  0  0  0  0  0  0  0  0  0  0
    1.4943   15.1399   -3.6502 H   0  0  0  0  0  0  0  0  0  0  0  0
   -0.3006   15.0711   -3.6502 H   0  0  0  0  0  0  0  0  0  0  0  0
    0.6780   13.5034    0.0249 H   0  0  0  0  0  0  0  0  0  0  0  0
   -1.2123   15.1525   -0.5635 H   0  0  0  0  0  0  0  0  0  0  0  0
   -0.3295   15.2510    1.0491 H   0  0  0  0  0  0  0  0  0  0  0  0
   -0.8380   17.5444   -0.1441 H   0  0  0  0  0  0  0  0  0  0  0  0
    2.7115   16.4063   -1.6973 H   0  0  0  0  0  0  0  0  0  0  0  0
    3.3686   17.2148    1.2020 H   0  0  0  0  0  0  0  0  0  0  0  0
    4.5332   16.5916   -0.0495 H   0  0  0  0  0  0  0  0  0  0  0  0
    4.6928   19.0440    0.2386 H   0  0  0  0  0  0  0  0  0  0  0  0
    4.1620   18.5615   -1.4198 H   0  0  0  0  0  0  0  0  0  0  0  0
    2.8369   20.4287   -0.6989 H   0  0  0  0  0  0  0  0  0  0  0  0
    2.8850   18.9960    1.6690 H   0  0  0  0  0  0  0  0  0  0  0  0
    2.5509   19.4278   -2.6893 H   0  0  0  0  0  0  0  0  0  0  0  0
    1.5558   17.9478   -2.9036 H   0  0  0  0  0  0  0  0  0  0  0  0
    0.7727   19.5644   -2.9036 H   0  0  0  0  0  0  0  0  0  0  0  0
    0.0578   19.8344    0.4961 H   0  0  0  0  0  0  0  0  0  0  0  0
    0.3119   20.7603   -1.0220 H   0  0  0  0  0  0  0  0  0  0  0  0
   -0.7455   19.3082   -1.0220 H   0  0  0  0  0  0  0  0  0  0  0  0
    1.6893   15.4454    1.8553 H   0  0  0  0  0  0  0  0  0  0  0  0
    2.3048   13.7734    1.6264 H   0  0  0  0  0  0  0  0  0  0  0  0
    3.4478   15.1591    1.6264 H   0  0  0  0  0  0  0  0  0  0  0  0
    4.3015   14.7226   -0.9195 H   0  0  0  0  0  0  0  0  0  0  0  0
    3.4844   13.2122   -0.2225 H   0  0  0  0  0  0  0  0  0  0  0  0
    3.1414   14.3868   -2.9953 H   0  0  0  0  0  0  0  0  0  0  0  0
    3.8866   12.8095   -2.5219 H   0  0  0  0  0  0  0  0  0  0  0  0
    1.7607   12.0118   -0.3262 H   0  0  0  0  0  0  0  0  0  0  0  0
    0.8825   11.0250   -1.5434 H   0  0  0  0  0  0  0  0  0  0  0  0
    2.6784   11.0617   -1.5434 H   0  0  0  0  0  0  0  0  0  0  0  0
  1  2  1  0
  2  3  1  0
  3  4  1  0
  4  5  1  0
  5  6  1  0
  6  7  1  0
  7  8  1  0
  7  9  1  0
  2 10  1  0
 10 11  1  0
 11 12  1  0
 12 13  1  0
 13 14  1  6
 13 15  1  0
 15 16  1  0
 16 17  1  0
 17 18  2  0
 18 19  1  0
 19 20  1  0
 20 21  1  0
 21 22  1  0
 22 23  1  0
 22 24  1  0
 24 25  1  0
 24 26  1  0
 19 27  1  0
 27 28  1  1
 27 29  1  0
 29 30  1  0
 30 31  1  0
 31 32  1  1
  7  5  1  0
 31 10  1  0
 31 13  1  0
 27 15  1  0
 24 18  1  0
  1 33  1  0
  1 34  1  0
  1 35  1  0
  2 36  1  1
  3 37  1  0
  3 38  1  0
  4 39  1  0
  4 40  1  0
  5 41  1  1
  8 42  1  0
  8 43  1  0
  8 44  1  0
  9 45  1  0
  9 46  1  0
  9 47  1  0
 10 48  1  6
 11 49  1  0
 11 50  1  0
 12 51  1  0
 12 52  1  0
 14 53  1  0
 14 54  1  0
 14 55  1  0
 15 56  1  1
 16 57  1  0
 16 58  1  0
 17 59  1  0
 19 60  1  6
 20 61  1  0
 20 62  1  0
 21 63  1  0
 21 64  1  0
 22 65  1  6
 23 66  1  0
 25 67  1  0
 25 68  1  0
 25 69  1  0
 26 70  1  0
 26 71  1  0
 26 72  1  0
 28 73  1  0
 28 74  1  0
 28 75  1  0
 29 76  1  0
 29 77  1  0
 30 78  1  0
 30 79  1  0
 32 80  1  0
 32 81  1  0
 32 82  1  0
M  END
>  <meeko>  (13) 
{"is_sidechain": [false], "intermolecular_energy": 2.731, "internal_energy": -0.839}

$$$$
EPH_relaxed_0001_pdb2pqr_Repair_28_r2_0001_out
     RDKit          3D

 82 86  0  0  0  0  0  0  0  0999 V2000
   -5.2190    5.7560   -1.5790 C   0  0  0  0  0  0  0  0  0  0  0  0
   -5.4580    7.2610   -1.7330 C   0  0  2  0  0  0  0  0  0  0  0  0
   -5.2030    8.0270   -0.4200 C   0  0  0  0  0  0  0  0  0  0  0  0
   -4.1790    9.1570   -0.5560 C   0  0  0  0  0  0  0  0  0  0  0  0
   -2.8000    8.6280   -0.8070 C   0  0  2  0  0  0  0  0  0  0  0  0
   -1.8360    8.9660    0.1990 O   0  0  0  0  0  0  0  0  0  0  0  0
   -1.6060    9.5140   -1.1090 C   0  0  0  0  0  0  0  0  0  0  0  0
   -1.7360   11.0030   -1.1760 C   0  0  0  0  0  0  0  0  0  0  0  0
   -0.4300    8.9140   -1.8140 C   0  0  0  0  0  0  0  0  0  0  0  0
   -6.8820    7.5130   -2.2160 C   0  0  1  0  0  0  0  0  0  0  0  0
   -7.1810    6.8340   -3.5790 C   0  0  0  0  0  0  0  0  0  0  0  0
   -8.6640    6.3830   -3.5380 C   0  0  0  0  0  0  0  0  0  0  0  0
   -9.2570    7.1040   -2.3050 C   0  0  1  0  0  0  0  0  0  0  0  0
   -9.5780    8.5490   -2.8010 C   0  0  0  0  0  0  0  0  0  0  0  0
  -10.5040    6.4310   -1.6450 C   0  0  2  0  0  0  0  0  0  0  0  0
  -11.7460    6.3320   -2.5460 C   0  0  0  0  0  0  0  0  0  0  0  0
  -12.6830    7.4920   -2.4700 C   0  0  0  0  0  0  0  0  0  0  0  0
  -12.6860    8.4330   -1.5080 C   0  0  0  0  0  0  0  0  0  0  0  0
  -11.7400    8.3320   -0.3040 C   0  0  1  0  0  0  0  0  0  0  0  0
  -12.5310    8.6130    1.0010 C   0  0  0  0  0  0  0  0  0  0  0  0
  -13.2790    9.9420    0.9570 C   0  0  0  0  0  0  0  0  0  0  0  0
  -14.2510    9.9820   -0.2190 C   0  0  2  0  0  0  0  0  0  0  0  0
  -15.2880    9.0210    0.0070 O   0  0  0  0  0  0  0  0  0  0  0  0
  -13.5690    9.7020   -1.5880 C   0  0  0  0  0  0  0  0  0  0  0  0
  -12.6660   10.9000   -1.9730 C   0  0  0  0  0  0  0  0  0  0  0  0
  -14.6810    9.6320   -2.6690 C   0  0  0  0  0  0  0  0  0  0  0  0
  -10.8700    7.0050   -0.2160 C   0  0  1  0  0  0  0  0  0  0  0  0
  -11.6730    5.8890    0.5200 C   0  0  0  0  0  0  0  0  0  0  0  0
   -9.5930    7.2850    0.6610 C   0  0  0  0  0  0  0  0  0  0  0  0
   -8.3550    7.8380   -0.0700 C   0  0  0  0  0  0  0  0  0  0  0  0
   -8.0380    7.0070   -1.3170 C   0  0  2  0  0  0  0  0  0  0  0  0
   -7.6890    5.5530   -0.8480 C   0  0  0  0  0  0  0  0  0  0  0  0
   -5.1781    5.4987   -0.5103 H   0  0  0  0  0  0  0  0  0  0  0  0
   -6.0406    5.2033   -2.0581 H   0  0  0  0  0  0  0  0  0  0  0  0
   -4.2666    5.4851   -2.0581 H   0  0  0  0  0  0  0  0  0  0  0  0
   -4.7405    7.6363   -2.4776 H   0  0  0  0  0  0  0  0  0  0  0  0
   -6.1552    8.4602   -0.0801 H   0  0  0  0  0  0  0  0  0  0  0  0
   -4.7905    7.3041    0.2992 H   0  0  0  0  0  0  0  0  0  0  0  0
   -4.4712    9.8036   -1.3965 H   0  0  0  0  0  0  0  0  0  0  0  0
   -4.1633    9.7210    0.3883 H   0  0  0  0  0  0  0  0  0  0  0  0
   -3.2076    7.7409   -1.3139 H   0  0  0  0  0  0  0  0  0  0  0  0
   -1.7719   11.4142   -0.1564 H   0  0  0  0  0  0  0  0  0  0  0  0
   -0.8711   11.4229   -1.7104 H   0  0  0  0  0  0  0  0  0  0  0  0
   -2.6606   11.2667   -1.7104 H   0  0  0  0  0  0  0  0  0  0  0  0
    0.2933    8.5450   -1.0719 H   0  0  0  0  0  0  0  0  0  0  0  0
   -0.7676    8.0780   -2.4441 H   0  0  0  0  0  0  0  0  0  0  0  0
    0.0487    9.6780   -2.4441 H   0  0  0  0  0  0  0  0  0  0  0  0
   -6.8763    8.6128   -2.2381 H   0  0  0  0  0  0  0  0  0  0  0  0
   -7.0249    7.5486   -4.4006 H   0  0  0  0  0  0  0  0  0  0  0  0
   -6.5121    5.9774   -3.7488 H   0  0  0  0  0  0  0  0  0  0  0  0
   -9.1882    6.6882   -4.4556 H   0  0  0  0  0  0  0  0  0  0  0  0
   -8.7659    5.2898   -3.4710 H   0  0  0  0  0  0  0  0  0  0  0  0
   -9.7249    9.2101   -1.9341 H   0  0  0  0  0  0  0  0  0  0  0  0
   -8.7409    8.9223   -3.4092 H   0  0  0  0  0  0  0  0  0  0  0  0
  -10.4944    8.5328   -3.4092 H   0  0  0  0  0  0  0  0  0  0  0  0
  -10.1615    5.3964   -1.4954 H   0  0  0  0  0  0  0  0  0  0  0  0
  -11.4040    6.2390   -3.5873 H   0  0  0  0  0  0  0  0  0  0  0  0
  -12.3124    5.4593   -2.1888 H   0  0  0  0  0  0  0  0  0  0  0  0
  -13.4344    7.5853   -3.2679 H   0  0  0  0  0  0  0  0  0  0  0  0
  -10.9754    9.1089   -0.4517 H   0  0  0  0  0  0  0  0  0  0  0  0
  -13.2597    7.8031    1.1530 H   0  0  0  0  0  0  0  0  0  0  0  0
  -11.8057    8.6652    1.8264 H   0  0  0  0  0  0  0  0  0  0  0  0
  -13.8416   10.0697    1.8936 H   0  0  0  0  0  0  0  0  0  0  0  0
  -12.5464   10.7534    0.8348 H   0  0  0  0  0  0  0  0  0  0  0  0
  -14.6592   11.0019   -0.2747 H   0  0  0  0  0  0  0  0  0  0  0  0
  -15.7460    8.8780   -0.8380 H   0  0  0  0  0  0  0  0  0  0  0  0
  -12.2971   11.3895   -1.0596 H   0  0  0  0  0  0  0  0  0  0  0  0
  -11.8126   10.5401   -2.5664 H   0  0  0  0  0  0  0  0  0  0  0  0
  -13.2470   11.6213   -2.5664 H   0  0  0  0  0  0  0  0  0  0  0  0
  -15.6644    9.5701   -2.1800 H   0  0  0  0  0  0  0  0  0  0  0  0
  -14.6397   10.5345   -3.2965 H   0  0  0  0  0  0  0  0  0  0  0  0
  -14.5269    8.7418   -3.2965 H   0  0  0  0  0  0  0  0  0  0  0  0
  -11.5759    6.0239    1.6074 H   0  0  0  0  0  0  0  0  0  0  0  0
  -12.7338    5.9525    0.2359 H   0  0  0  0  0  0  0  0  0  0  0  0
  -11.2757    4.9034    0.2359 H   0  0  0  0  0  0  0  0  0  0  0  0
   -9.8747    8.0133    1.4357 H   0  0  0  0  0  0  0  0  0  0  0  0
   -9.2852    6.3005    1.0432 H   0  0  0  0  0  0  0  0  0  0  0  0
   -8.5493    8.8781   -0.3706 H   0  0  0  0  0  0  0  0  0  0  0  0
   -7.4937    7.7890    0.6125 H   0  0  0  0  0  0  0  0  0  0  0  0
   -7.6798    5.5146    0.2513 H   0  0  0  0  0  0  0  0  0  0  0  0
   -8.4445    4.8523   -1.2330 H   0  0  0  0  0  0  0  0  0  0  0  0
   -6.6978    5.2715   -1.2330 H   0  0  0  0  0  0  0  0  0  0  0  0
  1  2  1  0
  2  3  1  0
  3  4  1  0
  4  5  1  0
  5  6  1  0
  6  7  1  0
  7  8  1  0
  7  9  1  0
  2 10  1  0
 10 11  1  0
 11 12  1  0
 12 13  1  0
 13 14  1  6
 13 15  1  0
 15 16  1  0
 16 17  1  0
 17 18  2  0
 18 19  1  0
 19 20  1  0
 20 21  1  0
 21 22  1  0
 22 23  1  0
 22 24  1  0
 24 25  1  0
 24 26  1  0
 19 27  1  0
 27 28  1  1
 27 29  1  0
 29 30  1  0
 30 31  1  0
 31 32  1  1
  7  5  1  0
 31 10  1  0
 31 13  1  0
 27 15  1  0
 24 18  1  0
  1 33  1  0
  1 34  1  0
  1 35  1  0
  2 36  1  6
  3 37  1  0
  3 38  1  0
  4 39  1  0
  4 40  1  0
  5 41  1  6
  8 42  1  0
  8 43  1  0
  8 44  1  0
  9 45  1  0
  9 46  1  0
  9 47  1  0
 10 48  1  6
 11 49  1  0
 11 50  1  0
 12 51  1  0
 12 52  1  0
 14 53  1  0
 14 54  1  0
 14 55  1  0
 15 56  1  1
 16 57  1  0
 16 58  1  0
 17 59  1  0
 19 60  1  6
 20 61  1  0
 20 62  1  0
 21 63  1  0
 21 64  1  0
 22 65  1  6
 23 66  1  0
 25 67  1  0
 25 68  1  0
 25 69  1  0
 26 70  1  0
 26 71  1  0
 26 72  1  0
 28 73  1  0
 28 74  1  0
 28 75  1  0
 29 76  1  0
 29 77  1  0
 30 78  1  0
 30 79  1  0
 32 80  1  0
 32 81  1  0
 32 82  1  0
M  END
>  <meeko>  (14) 
{"is_sidechain": [false], "intermolecular_energy": 2.731, "internal_energy": -0.839}

$$$$
EPH_relaxed_0001_pdb2pqr_Repair_28_r2_0001_out
     RDKit          3D

 82 86  0  0  0  0  0  0  0  0999 V2000
    0.9490   14.9440   -2.6780 C   0  0  0  0  0  0  0  0  0  0  0  0
    1.2080   14.2620   -4.0240 C   0  0  2  0  0  0  0  0  0  0  0  0
    0.4920   14.9780   -5.1860 C   0  0  0  0  0  0  0  0  0  0  0  0
    1.0530   14.6250   -6.5660 C   0  0  0  0  0  0  0  0  0  0  0  0
    0.8690   15.7470   -7.5430 C   0  0  2  0  0  0  0  0  0  0  0  0
    0.4560   15.3380   -8.8540 O   0  0  0  0  0  0  0  0  0  0  0  0
    1.7520   15.9500   -8.7600 C   0  0  0  0  0  0  0  0  0  0  0  0
    2.8860   15.0220   -9.0650 C   0  0  0  0  0  0  0  0  0  0  0  0
    1.8220   17.3130   -9.3750 C   0  0  0  0  0  0  0  0  0  0  0  0
    0.7680   12.8040   -3.9610 C   0  0  1  0  0  0  0  0  0  0  0  0
    1.9050   11.8200   -4.3470 C   0  0  0  0  0  0  0  0  0  0  0  0
    1.7210   10.5570   -3.4670 C   0  0  0  0  0  0  0  0  0  0  0  0
    0.3110   10.7130   -2.8510 C   0  0  1  0  0  0  0  0  0  0  0  0
   -0.6700   10.2320   -3.9660 C   0  0  0  0  0  0  0  0  0  0  0  0
    0.0600    9.9650   -1.5010 C   0  0  2  0  0  0  0  0  0  0  0  0
    0.1750    8.4320   -1.5720 C   0  0  0  0  0  0  0  0  0  0  0  0
   -1.0940    7.7110   -1.8830 C   0  0  0  0  0  0  0  0  0  0  0  0
   -2.3310    8.2400   -1.8170 C   0  0  0  0  0  0  0  0  0  0  0  0
   -2.5500    9.6680   -1.3000 C   0  0  1  0  0  0  0  0  0  0  0  0
   -3.7230    9.6770   -0.2850 C   0  0  0  0  0  0  0  0  0  0  0  0
   -4.9960    9.0610   -0.8560 C   0  0  0  0  0  0  0  0  0  0  0  0
   -4.7520    7.6220   -1.3050 C   0  0  2  0  0  0  0  0  0  0  0  0
   -4.4800    6.8200   -0.1520 O   0  0  0  0  0  0  0  0  0  0  0  0
   -3.5860    7.4870   -2.3230 C   0  0  0  0  0  0  0  0  0  0  0  0
   -4.0060    8.1020   -3.6810 C   0  0  0  0  0  0  0  0  0  0  0  0
   -3.3530    5.9750   -2.5850 C   0  0  0  0  0  0  0  0  0  0  0  0
   -1.2580   10.4110   -0.7480 C   0  0  1  0  0  0  0  0  0  0  0  0
   -1.0490   10.0660    0.7590 C   0  0  0  0  0  0  0  0  0  0  0  0
   -1.4910   11.9670   -0.8190 C   0  0  0  0  0  0  0  0  0  0  0  0
   -1.1120   12.6660   -2.1380 C   0  0  0  0  0  0  0  0  0  0  0  0
    0.2950   12.2630   -2.5880 C   0  0  2  0  0  0  0  0  0  0  0  0
    1.3060   12.7530   -1.4960 C   0  0  0  0  0  0  0  0  0  0  0  0
    1.2107   14.2550   -1.8615 H   0  0  0  0  0  0  0  0  0  0  0  0
    1.5648   15.8524   -2.6027 H   0  0  0  0  0  0  0  0  0  0  0  0
   -0.1145   15.2147   -2.6027 H   0  0  0  0  0  0  0  0  0  0  0  0
    2.2892   14.3165   -4.2193 H   0  0  0  0  0  0  0  0  0  0  0  0
   -0.5720   14.6999   -5.1622 H   0  0  0  0  0  0  0  0  0  0  0  0
    0.6472   16.0575   -5.0426 H   0  0  0  0  0  0  0  0  0  0  0  0
    2.1272   14.4090   -6.4695 H   0  0  0  0  0  0  0  0  0  0  0  0
    0.5069   13.7482   -6.9441 H   0  0  0  0  0  0  0  0  0  0  0  0
    0.5539   16.4274   -6.7381 H   0  0  0  0  0  0  0  0  0  0  0  0
    3.3274   14.6608   -8.1244 H   0  0  0  0  0  0  0  0  0  0  0  0
    2.5132   14.1665   -9.6474 H   0  0  0  0  0  0  0  0  0  0  0  0
    3.6508   15.5566   -9.6474 H   0  0  0  0  0  0  0  0  0  0  0  0
    1.8610   18.0724   -8.5801 H   0  0  0  0  0  0  0  0  0  0  0  0
    2.7252   17.3880   -9.9984 H   0  0  0  0  0  0  0  0  0  0  0  0
    0.9313   17.4802   -9.9984 H   0  0  0  0  0  0  0  0  0  0  0  0
   -0.0770   12.8352   -4.6645 H   0  0  0  0  0  0  0  0  0  0  0  0
    1.8306   11.5540   -5.4118 H   0  0  0  0  0  0  0  0  0  0  0  0
    2.8933   12.2746   -4.1838 H   0  0  0  0  0  0  0  0  0  0  0  0
    1.7785    9.6451   -4.0795 H   0  0  0  0  0  0  0  0  0  0  0  0
    2.5038   10.4655   -2.6996 H   0  0  0  0  0  0  0  0  0  0  0  0
   -1.5655    9.7929   -3.5020 H   0  0  0  0  0  0  0  0  0  0  0  0
   -0.9633   11.0885   -4.5908 H   0  0  0  0  0  0  0  0  0  0  0  0
   -0.1725    9.4757   -4.5908 H   0  0  0  0  0  0  0  0  0  0  0  0
    0.9083   10.2997   -0.8858 H   0  0  0  0  0  0  0  0  0  0  0  0
    0.9081    8.1820   -2.3531 H   0  0  0  0  0  0  0  0  0  0  0  0
    0.4733    8.1024   -0.5658 H   0  0  0  0  0  0  0  0  0  0  0  0
   -1.0123    6.6585   -2.1923 H   0  0  0  0  0  0  0  0  0  0  0  0
   -2.8140   10.2733   -2.1797 H   0  0  0  0  0  0  0  0  0  0  0  0
   -3.4231    9.1048    0.6053 H   0  0  0  0  0  0  0  0  0  0  0  0
   -3.9420   10.7262   -0.0375 H   0  0  0  0  0  0  0  0  0  0  0  0
   -5.7781    9.0691   -0.0826 H   0  0  0  0  0  0  0  0  0  0  0  0
   -5.3115    9.6523   -1.7283 H   0  0  0  0  0  0  0  0  0  0  0  0
   -5.6602    7.2791   -1.8224 H   0  0  0  0  0  0  0  0  0  0  0  0
   -3.5170    6.6960   -0.1000 H   0  0  0  0  0  0  0  0  0  0  0  0
   -4.6183    8.9985   -3.5038 H   0  0  0  0  0  0  0  0  0  0  0  0
   -3.1073    8.3787   -4.2518 H   0  0  0  0  0  0  0  0  0  0  0  0
   -4.5907    7.3656   -4.2518 H   0  0  0  0  0  0  0  0  0  0  0  0
   -3.2713    5.4448   -1.6247 H   0  0  0  0  0  0  0  0  0  0  0  0
   -4.1990    5.5675   -3.1580 H   0  0  0  0  0  0  0  0  0  0  0  0
   -2.4236    5.8411   -3.1580 H   0  0  0  0  0  0  0  0  0  0  0  0
   -1.5190   10.8418    1.3813 H   0  0  0  0  0  0  0  0  0  0  0  0
   -1.5085    9.0911    0.9791 H   0  0  0  0  0  0  0  0  0  0  0  0
    0.0278   10.0218    0.9791 H   0  0  0  0  0  0  0  0  0  0  0  0
   -2.5604   12.1520   -0.6396 H   0  0  0  0  0  0  0  0  0  0  0  0
   -0.8163   12.3941   -0.0625 H   0  0  0  0  0  0  0  0  0  0  0  0
   -1.8344   12.3805   -2.9169 H   0  0  0  0  0  0  0  0  0  0  0  0
   -1.1299   13.7538   -1.9759 H   0  0  0  0  0  0  0  0  0  0  0  0
    0.8921   12.5524   -0.4968 H   0  0  0  0  0  0  0  0  0  0  0  0
    2.2596   12.2171   -1.6123 H   0  0  0  0  0  0  0  0  0  0  0  0
    1.4761   13.8335   -1.6123 H   0  0  0  0  0  0  0  0  0  0  0  0
  1  2  1  0
  2  3  1  0
  3  4  1  0
  4  5  1  0
  5  6  1  0
  6  7  1  0
  7  8  1  0
  7  9  1  0
  2 10  1  0
 10 11  1  0
 11 12  1  0
 12 13  1  0
 13 14  1  6
 13 15  1  0
 15 16  1  0
 16 17  1  0
 17 18  2  0
 18 19  1  0
 19 20  1  0
 20 21  1  0
 21 22  1  0
 22 23  1  0
 22 24  1  0
 24 25  1  0
 24 26  1  0
 19 27  1  0
 27 28  1  1
 27 29  1  0
 29 30  1  0
 30 31  1  0
 31 32  1  1
  7  5  1  0
 31 10  1  0
 31 13  1  0
 27 15  1  0
 24 18  1  0
  1 33  1  0
  1 34  1  0
  1 35  1  0
  2 36  1  6
  3 37  1  0
  3 38  1  0
  4 39  1  0
  4 40  1  0
  5 41  1  1
  8 42  1  0
  8 43  1  0
  8 44  1  0
  9 45  1  0
  9 46  1  0
  9 47  1  0
 10 48  1  6
 11 49  1  0
 11 50  1  0
 12 51  1  0
 12 52  1  0
 14 53  1  0
 14 54  1  0
 14 55  1  0
 15 56  1  1
 16 57  1  0
 16 58  1  0
 17 59  1  0
 19 60  1  6
 20 61  1  0
 20 62  1  0
 21 63  1  0
 21 64  1  0
 22 65  1  6
 23 66  1  0
 25 67  1  0
 25 68  1  0
 25 69  1  0
 26 70  1  0
 26 71  1  0
 26 72  1  0
 28 73  1  0
 28 74  1  0
 28 75  1  0
 29 76  1  0
 29 77  1  0
 30 78  1  0
 30 79  1  0
 32 80  1  0
 32 81  1  0
 32 82  1  0
M  END
>  <meeko>  (15) 
{"is_sidechain": [false], "intermolecular_energy": 2.731, "internal_energy": -0.839}

$$$$
EPH_relaxed_0001_pdb2pqr_Repair_28_r2_0001_out
     RDKit          3D

 82 86  0  0  0  0  0  0  0  0999 V2000
   -1.7280   14.8130    0.5330 C   0  0  0  0  0  0  0  0  0  0  0  0
   -0.3910   15.5180    0.2830 C   0  0  2  0  0  0  0  0  0  0  0  0
   -0.4710   16.5120   -0.8930 C   0  0  0  0  0  0  0  0  0  0  0  0
   -0.0600   17.9400   -0.5210 C   0  0  0  0  0  0  0  0  0  0  0  0
    1.3660   18.0050   -0.0640 C   0  0  2  0  0  0  0  0  0  0  0  0
    2.0400   19.2310   -0.3800 O   0  0  0  0  0  0  0  0  0  0  0  0
    2.5480   18.0460   -1.0150 C   0  0  0  0  0  0  0  0  0  0  0  0
    2.3560   18.0210   -2.4990 C   0  0  0  0  0  0  0  0  0  0  0  0
    3.8890   17.6180   -0.5070 C   0  0  0  0  0  0  0  0  0  0  0  0
    0.6990   14.4860    0.0200 C   0  0  1  0  0  0  0  0  0  0  0  0
    0.8290   13.4480    1.1660 C   0  0  0  0  0  0  0  0  0  0  0  0
    1.2050   12.0970    0.5060 C   0  0  0  0  0  0  0  0  0  0  0  0
    1.6020   12.4680   -0.9420 C   0  0  1  0  0  0  0  0  0  0  0  0
    3.0760   12.9700   -0.8370 C   0  0  0  0  0  0  0  0  0  0  0  0
    1.4530   11.3360   -2.0110 C   0  0  2  0  0  0  0  0  0  0  0  0
    2.3360   10.0980   -1.7780 C   0  0  0  0  0  0  0  0  0  0  0  0
    3.6810   10.1430   -2.4230 C   0  0  0  0  0  0  0  0  0  0  0  0
    4.0570   11.0020   -3.3890 C   0  0  0  0  0  0  0  0  0  0  0  0
    3.0530   11.9890   -3.9990 C   0  0  1  0  0  0  0  0  0  0  0  0
    3.1790   11.9670   -5.5450 C   0  0  0  0  0  0  0  0  0  0  0  0
    4.6070   12.2200   -6.0190 C   0  0  0  0  0  0  0  0  0  0  0  0
    5.5660   11.1830   -5.4380 C   0  0  2  0  0  0  0  0  0  0  0  0
    5.2500    9.9020   -5.9920 O   0  0  0  0  0  0  0  0  0  0  0  0
    5.5190   11.1080   -3.8860 C   0  0  0  0  0  0  0  0  0  0  0  0
    6.1460   12.3890   -3.2840 C   0  0  0  0  0  0  0  0  0  0  0  0
    6.4260    9.9290   -3.4380 C   0  0  0  0  0  0  0  0  0  0  0  0
    1.5490   11.8410   -3.5070 C   0  0  1  0  0  0  0  0  0  0  0  0
    0.8050   10.7870   -4.3820 C   0  0  0  0  0  0  0  0  0  0  0  0
    0.8000   13.2090   -3.7270 C   0  0  0  0  0  0  0  0  0  0  0  0
    0.8850   14.2390   -2.5840 C   0  0  0  0  0  0  0  0  0  0  0  0
    0.5460   13.5940   -1.2370 C   0  0  2  0  0  0  0  0  0  0  0  0
   -0.9390   13.0980   -1.3050 C   0  0  0  0  0  0  0  0  0  0  0  0
   -1.8983   14.7232    1.6160 H   0  0  0  0  0  0  0  0  0  0  0  0
   -2.5418   15.3993    0.0812 H   0  0  0  0  0  0  0  0  0  0  0  0
   -1.7039   13.8103    0.0812 H   0  0  0  0  0  0  0  0  0  0  0  0
   -0.1459   16.0949    1.1870 H   0  0  0  0  0  0  0  0  0  0  0  0
    0.1940   16.1567   -1.6939 H   0  0  0  0  0  0  0  0  0  0  0  0
   -1.5239   16.5524   -1.2089 H   0  0  0  0  0  0  0  0  0  0  0  0
   -0.1818   18.5871   -1.4022 H   0  0  0  0  0  0  0  0  0  0  0  0
   -0.7012   18.2768    0.3069 H   0  0  0  0  0  0  0  0  0  0  0  0
    1.1412   17.3713    0.8066 H   0  0  0  0  0  0  0  0  0  0  0  0
    1.2892   17.8821   -2.7284 H   0  0  0  0  0  0  0  0  0  0  0  0
    2.7029   18.9719   -2.9297 H   0  0  0  0  0  0  0  0  0  0  0  0
    2.9348   17.1906   -2.9297 H   0  0  0  0  0  0  0  0  0  0  0  0
    3.8822   17.6202    0.5930 H   0  0  0  0  0  0  0  0  0  0  0  0
    4.1122   16.6040   -0.8703 H   0  0  0  0  0  0  0  0  0  0  0  0
    4.6583   18.3152   -0.8703 H   0  0  0  0  0  0  0  0  0  0  0  0
    1.5625   15.1572   -0.0978 H   0  0  0  0  0  0  0  0  0  0  0  0
    1.6156   13.7575    1.8698 H   0  0  0  0  0  0  0  0  0  0  0  0
   -0.1114   13.3634    1.7304 H   0  0  0  0  0  0  0  0  0  0  0  0
    2.0499   11.6292    1.0327 H   0  0  0  0  0  0  0  0  0  0  0  0
    0.3786   11.3718    0.5394 H   0  0  0  0  0  0  0  0  0  0  0  0
    3.3563   13.0654    0.2224 H   0  0  0  0  0  0  0  0  0  0  0  0
    3.7449   12.2490   -1.3297 H   0  0  0  0  0  0  0  0  0  0  0  0
    3.1658   13.9494   -1.3297 H   0  0  0  0  0  0  0  0  0  0  0  0
    0.4180   10.9982   -1.8539 H   0  0  0  0  0  0  0  0  0  0  0  0
    2.4828    9.9845   -0.6938 H   0  0  0  0  0  0  0  0  0  0  0  0
    1.8045    9.2539   -2.2417 H   0  0  0  0  0  0  0  0  0  0  0  0
    4.4285    9.4124   -2.0801 H   0  0  0  0  0  0  0  0  0  0  0  0
    3.3318   12.9818   -3.6161 H   0  0  0  0  0  0  0  0  0  0  0  0
    2.8552   10.9816   -5.9112 H   0  0  0  0  0  0  0  0  0  0  0  0
    2.5469   12.7744   -5.9432 H   0  0  0  0  0  0  0  0  0  0  0  0
    4.6373   12.1632   -7.1171 H   0  0  0  0  0  0  0  0  0  0  0  0
    4.9192   13.2178   -5.6771 H   0  0  0  0  0  0  0  0  0  0  0  0
    6.5876   11.4903   -5.7063 H   0  0  0  0  0  0  0  0  0  0  0  0
    5.1120   10.0200   -6.9470 H   0  0  0  0  0  0  0  0  0  0  0  0
    6.1172   12.3302   -2.1860 H   0  0  0  0  0  0  0  0  0  0  0  0
    7.1899   12.4787   -3.6191 H   0  0  0  0  0  0  0  0  0  0  0  0
    5.5765   13.2684   -3.6191 H   0  0  0  0  0  0  0  0  0  0  0  0
    6.4577    9.8878   -2.3392 H   0  0  0  0  0  0  0  0  0  0  0  0
    6.0194    8.9846   -3.8288 H   0  0  0  0  0  0  0  0  0  0  0  0
    7.4431   10.0798   -3.8288 H   0  0  0  0  0  0  0  0  0  0  0  0
    0.2943   10.0635   -3.7295 H   0  0  0  0  0  0  0  0  0  0  0  0
    0.0641   11.2948   -5.0170 H   0  0  0  0  0  0  0  0  0  0  0  0
    1.5316   10.2589   -5.0170 H   0  0  0  0  0  0  0  0  0  0  0  0
    1.2206   13.6774   -4.6291 H   0  0  0  0  0  0  0  0  0  0  0  0
   -0.2656   12.9456   -3.7986 H   0  0  0  0  0  0  0  0  0  0  0  0
    1.9063   14.6453   -2.5413 H   0  0  0  0  0  0  0  0  0  0  0  0
    0.1587   15.0413   -2.7808 H   0  0  0  0  0  0  0  0  0  0  0  0
   -1.3291   12.9677   -0.2848 H   0  0  0  0  0  0  0  0  0  0  0  0
   -1.5496   13.8410   -1.8390 H   0  0  0  0  0  0  0  0  0  0  0  0
   -0.9806   12.1372   -1.8390 H   0  0  0  0  0  0  0  0  0  0  0  0
  1  2  1  0
  2  3  1  0
  3  4  1  0
  4  5  1  0
  5  6  1  0
  6  7  1  0
  7  8  1  0
  7  9  1  0
  2 10  1  0
 10 11  1  0
 11 12  1  0
 12 13  1  0
 13 14  1  1
 13 15  1  0
 15 16  1  0
 16 17  1  0
 17 18  2  0
 18 19  1  0
 19 20  1  0
 20 21  1  0
 21 22  1  0
 22 23  1  0
 22 24  1  0
 24 25  1  0
 24 26  1  0
 19 27  1  0
 27 28  1  6
 27 29  1  0
 29 30  1  0
 30 31  1  0
 31 32  1  6
  7  5  1  0
 31 10  1  0
 31 13  1  0
 27 15  1  0
 24 18  1  0
  1 33  1  0
  1 34  1  0
  1 35  1  0
  2 36  1  1
  3 37  1  0
  3 38  1  0
  4 39  1  0
  4 40  1  0
  5 41  1  1
  8 42  1  0
  8 43  1  0
  8 44  1  0
  9 45  1  0
  9 46  1  0
  9 47  1  0
 10 48  1  6
 11 49  1  0
 11 50  1  0
 12 51  1  0
 12 52  1  0
 14 53  1  0
 14 54  1  0
 14 55  1  0
 15 56  1  6
 16 57  1  0
 16 58  1  0
 17 59  1  0
 19 60  1  1
 20 61  1  0
 20 62  1  0
 21 63  1  0
 21 64  1  0
 22 65  1  1
 23 66  1  0
 25 67  1  0
 25 68  1  0
 25 69  1  0
 26 70  1  0
 26 71  1  0
 26 72  1  0
 28 73  1  0
 28 74  1  0
 28 75  1  0
 29 76  1  0
 29 77  1  0
 30 78  1  0
 30 79  1  0
 32 80  1  0
 32 81  1  0
 32 82  1  0
M  END
>  <meeko>  (16) 
{"is_sidechain": [false], "intermolecular_energy": 2.731, "internal_energy": -0.839}

$$$$
EPH_relaxed_0001_pdb2pqr_Repair_28_r2_0001_out
     RDKit          3D

 82 86  0  0  0  0  0  0  0  0999 V2000
  -14.5130    5.5190    0.3730 C   0  0  0  0  0  0  0  0  0  0  0  0
  -13.9330    6.9300    0.2390 C   0  0  2  0  0  0  0  0  0  0  0  0
  -15.0180    7.9750   -0.0900 C   0  0  0  0  0  0  0  0  0  0  0  0
  -14.5520    9.4230    0.0850 C   0  0  0  0  0  0  0  0  0  0  0  0
  -15.2700   10.3530   -0.8450 C   0  0  2  0  0  0  0  0  0  0  0  0
  -15.1540   10.0190   -2.2340 O   0  0  0  0  0  0  0  0  0  0  0  0
  -14.5620   11.2640   -1.8300 C   0  0  0  0  0  0  0  0  0  0  0  0
  -13.0690   11.2890   -1.9340 C   0  0  0  0  0  0  0  0  0  0  0  0
  -15.2870   12.4700   -2.3380 C   0  0  0  0  0  0  0  0  0  0  0  0
  -12.8510    6.9470   -0.8340 C   0  0  1  0  0  0  0  0  0  0  0  0
  -13.1880    7.9060   -2.0070 C   0  0  0  0  0  0  0  0  0  0  0  0
  -11.8450    8.5150   -2.4860 C   0  0  0  0  0  0  0  0  0  0  0  0
  -10.7590    7.6470   -1.8070 C   0  0  1  0  0  0  0  0  0  0  0  0
  -10.6460    6.3740   -2.7020 C   0  0  0  0  0  0  0  0  0  0  0  0
   -9.3670    8.3260   -1.5910 C   0  0  2  0  0  0  0  0  0  0  0  0
   -8.6380    8.7440   -2.8800 C   0  0  0  0  0  0  0  0  0  0  0  0
   -7.7300    7.7120   -3.4620 C   0  0  0  0  0  0  0  0  0  0  0  0
   -7.2880    6.6110   -2.8260 C   0  0  0  0  0  0  0  0  0  0  0  0
   -7.6240    6.3660   -1.3500 C   0  0  1  0  0  0  0  0  0  0  0  0
   -6.3410    5.9360   -0.5910 C   0  0  0  0  0  0  0  0  0  0  0  0
   -5.6510    4.7400   -1.2390 C   0  0  0  0  0  0  0  0  0  0  0  0
   -5.2800    5.0430   -2.6880 C   0  0  2  0  0  0  0  0  0  0  0  0
   -4.2730    6.0590   -2.7030 O   0  0  0  0  0  0  0  0  0  0  0  0
   -6.4930    5.4960   -3.5490 C   0  0  0  0  0  0  0  0  0  0  0  0
   -7.4420    4.2950   -3.7830 C   0  0  0  0  0  0  0  0  0  0  0  0
   -5.9590    5.9050   -4.9480 C   0  0  0  0  0  0  0  0  0  0  0  0
   -8.4060    7.5370   -0.6130 C   0  0  1  0  0  0  0  0  0  0  0  0
   -7.3930    8.5790   -0.0470 C   0  0  0  0  0  0  0  0  0  0  0  0
   -9.1720    6.9430    0.6280 C   0  0  0  0  0  0  0  0  0  0  0  0
  -10.5890    6.3960    0.3730 C   0  0  0  0  0  0  0  0  0  0  0  0
  -11.4340    7.4070   -0.4080 C   0  0  2  0  0  0  0  0  0  0  0  0
  -11.5840    8.6910    0.4770 C   0  0  0  0  0  0  0  0  0  0  0  0
  -14.6174    5.2651    1.4382 H   0  0  0  0  0  0  0  0  0  0  0  0
  -15.4998    5.4807   -0.1115 H   0  0  0  0  0  0  0  0  0  0  0  0
  -13.8384    4.7977   -0.1115 H   0  0  0  0  0  0  0  0  0  0  0  0
  -13.4967    7.2024    1.2114 H   0  0  0  0  0  0  0  0  0  0  0  0
  -15.3296    7.8345   -1.1355 H   0  0  0  0  0  0  0  0  0  0  0  0
  -15.8434    7.8153    0.6194 H   0  0  0  0  0  0  0  0  0  0  0  0
  -14.7447    9.7366    1.1216 H   0  0  0  0  0  0  0  0  0  0  0  0
  -13.4778    9.4678   -0.1474 H   0  0  0  0  0  0  0  0  0  0  0  0
  -16.0468   10.5445   -0.0901 H   0  0  0  0  0  0  0  0  0  0  0  0
  -12.6312   11.2963   -0.9249 H   0  0  0  0  0  0  0  0  0  0  0  0
  -12.7243   10.3965   -2.4768 H   0  0  0  0  0  0  0  0  0  0  0  0
  -12.7543   12.1925   -2.4768 H   0  0  0  0  0  0  0  0  0  0  0  0
  -15.6461   13.0674   -1.4870 H   0  0  0  0  0  0  0  0  0  0  0  0
  -14.6042   13.0774   -2.9502 H   0  0  0  0  0  0  0  0  0  0  0  0
  -16.1437   12.1519   -2.9502 H   0  0  0  0  0  0  0  0  0  0  0  0
  -12.8361    5.8792   -1.0979 H   0  0  0  0  0  0  0  0  0  0  0  0
  -13.6652    7.3489   -2.8267 H   0  0  0  0  0  0  0  0  0  0  0  0
  -13.8866    8.6928   -1.6860 H   0  0  0  0  0  0  0  0  0  0  0  0
  -11.7606    8.4562   -3.5812 H   0  0  0  0  0  0  0  0  0  0  0  0
  -11.7525    9.5794   -2.2241 H   0  0  0  0  0  0  0  0  0  0  0  0
  -10.5668    5.4823   -2.0628 H   0  0  0  0  0  0  0  0  0  0  0  0
  -11.5404    6.2917   -3.3371 H   0  0  0  0  0  0  0  0  0  0  0  0
   -9.7511    6.4505   -3.3371 H   0  0  0  0  0  0  0  0  0  0  0  0
   -9.6380    9.2638   -1.0839 H   0  0  0  0  0  0  0  0  0  0  0  0
   -9.3982    8.9927   -3.6351 H   0  0  0  0  0  0  0  0  0  0  0  0
   -7.9961    9.5939   -2.6048 H   0  0  0  0  0  0  0  0  0  0  0  0
   -7.3936    7.8641   -4.4982 H   0  0  0  0  0  0  0  0  0  0  0  0
   -8.3573    5.5462   -1.3373 H   0  0  0  0  0  0  0  0  0  0  0  0
   -5.6392    6.7829   -0.5769 H   0  0  0  0  0  0  0  0  0  0  0  0
   -6.6382    5.6394    0.4257 H   0  0  0  0  0  0  0  0  0  0  0  0
   -4.7366    4.5032   -0.6753 H   0  0  0  0  0  0  0  0  0  0  0  0
   -6.3436    3.8855   -1.2254 H   0  0  0  0  0  0  0  0  0  0  0  0
   -4.9088    4.1094   -3.1359 H   0  0  0  0  0  0  0  0  0  0  0  0
   -4.7160    6.9110   -2.8580 H   0  0  0  0  0  0  0  0  0  0  0  0
   -7.7639    3.8876   -2.8132 H   0  0  0  0  0  0  0  0  0  0  0  0
   -8.3228    4.6289   -4.3510 H   0  0  0  0  0  0  0  0  0  0  0  0
   -6.9134    3.5153   -4.3510 H   0  0  0  0  0  0  0  0  0  0  0  0
   -5.0908    6.5699   -4.8291 H   0  0  0  0  0  0  0  0  0  0  0  0
   -5.6578    5.0044   -5.5032 H   0  0  0  0  0  0  0  0  0  0  0  0
   -6.7500    6.4305   -5.5032 H   0  0  0  0  0  0  0  0  0  0  0  0
   -7.4172    8.5541    1.0525 H   0  0  0  0  0  0  0  0  0  0  0  0
   -6.3797    8.3329   -0.3971 H   0  0  0  0  0  0  0  0  0  0  0  0
   -7.6676    9.5850   -0.3971 H   0  0  0  0  0  0  0  0  0  0  0  0
   -8.5647    6.1189    1.0306 H   0  0  0  0  0  0  0  0  0  0  0  0
   -9.3103    7.7917    1.3139 H   0  0  0  0  0  0  0  0  0  0  0  0
  -10.5161    5.4639   -0.2065 H   0  0  0  0  0  0  0  0  0  0  0  0
  -11.0729    6.2091    1.3430 H   0  0  0  0  0  0  0  0  0  0  0  0
  -11.5511    8.4096    1.5399 H   0  0  0  0  0  0  0  0  0  0  0  0
  -10.7610    9.3867    0.2562 H   0  0  0  0  0  0  0  0  0  0  0  0
  -12.5452    9.1782    0.2562 H   0  0  0  0  0  0  0  0  0  0  0  0
  1  2  1  0
  2  3  1  0
  3  4  1  0
  4  5  1  0
  5  6  1  0
  6  7  1  0
  7  8  1  0
  7  9  1  0
  2 10  1  0
 10 11  1  0
 11 12  1  0
 12 13  1  0
 13 14  1  6
 13 15  1  0
 15 16  1  0
 16 17  1  0
 17 18  2  0
 18 19  1  0
 19 20  1  0
 20 21  1  0
 21 22  1  0
 22 23  1  0
 22 24  1  0
 24 25  1  0
 24 26  1  0
 19 27  1  0
 27 28  1  1
 27 29  1  0
 29 30  1  0
 30 31  1  0
 31 32  1  1
  7  5  1  0
 31 10  1  0
 31 13  1  0
 27 15  1  0
 24 18  1  0
  1 33  1  0
  1 34  1  0
  1 35  1  0
  2 36  1  1
  3 37  1  0
  3 38  1  0
  4 39  1  0
  4 40  1  0
  5 41  1  1
  8 42  1  0
  8 43  1  0
  8 44  1  0
  9 45  1  0
  9 46  1  0
  9 47  1  0
 10 48  1  6
 11 49  1  0
 11 50  1  0
 12 51  1  0
 12 52  1  0
 14 53  1  0
 14 54  1  0
 14 55  1  0
 15 56  1  1
 16 57  1  0
 16 58  1  0
 17 59  1  0
 19 60  1  6
 20 61  1  0
 20 62  1  0
 21 63  1  0
 21 64  1  0
 22 65  1  6
 23 66  1  0
 25 67  1  0
 25 68  1  0
 25 69  1  0
 26 70  1  0
 26 71  1  0
 26 72  1  0
 28 73  1  0
 28 74  1  0
 28 75  1  0
 29 76  1  0
 29 77  1  0
 30 78  1  0
 30 79  1  0
 32 80  1  0
 32 81  1  0
 32 82  1  0
M  END
>  <meeko>  (17) 
{"is_sidechain": [false], "intermolecular_energy": 2.731, "internal_energy": -0.839}

$$$$
EPH_relaxed_0001_pdb2pqr_Repair_28_r2_0001_out
     RDKit          3D

 82 86  0  0  0  0  0  0  0  0999 V2000
    0.7420    8.1060   -2.4930 C   0  0  0  0  0  0  0  0  0  0  0  0
   -0.6710    8.4180   -1.9910 C   0  0  2  0  0  0  0  0  0  0  0  0
   -1.7580    7.8140   -2.9030 C   0  0  0  0  0  0  0  0  0  0  0  0
   -3.0390    7.4260   -2.1590 C   0  0  0  0  0  0  0  0  0  0  0  0
   -4.1900    7.2350   -3.1000 C   0  0  2  0  0  0  0  0  0  0  0  0
   -5.4790    7.2190   -2.4730 O   0  0  0  0  0  0  0  0  0  0  0  0
   -5.0670    5.9970   -3.1080 C   0  0  0  0  0  0  0  0  0  0  0  0
   -4.8300    4.8670   -2.1560 C   0  0  0  0  0  0  0  0  0  0  0  0
   -5.8370    5.6740   -4.3500 C   0  0  0  0  0  0  0  0  0  0  0  0
   -0.8620    9.9270   -1.8820 C   0  0  1  0  0  0  0  0  0  0  0  0
   -2.3230   10.3200   -1.5370 C   0  0  0  0  0  0  0  0  0  0  0  0
   -2.2460   11.5760   -0.6320 C   0  0  0  0  0  0  0  0  0  0  0  0
   -0.7810   12.0570   -0.7550 C   0  0  1  0  0  0  0  0  0  0  0  0
   -0.7360   12.8630   -2.0910 C   0  0  0  0  0  0  0  0  0  0  0  0
   -0.2250   12.8930    0.4430 C   0  0  2  0  0  0  0  0  0  0  0  0
   -0.9460   14.2290    0.6970 C   0  0  0  0  0  0  0  0  0  0  0  0
   -0.3800   15.4070   -0.0240 C   0  0  0  0  0  0  0  0  0  0  0  0
    0.8290   15.4550   -0.6140 C   0  0  0  0  0  0  0  0  0  0  0  0
    1.8050   14.2770   -0.5080 C   0  0  1  0  0  0  0  0  0  0  0  0
    3.2190   14.8060   -0.1500 C   0  0  0  0  0  0  0  0  0  0  0  0
    3.7040   15.8800   -1.1180 C   0  0  0  0  0  0  0  0  0  0  0  0
    2.7370   17.0610   -1.1520 C   0  0  2  0  0  0  0  0  0  0  0  0
    2.7660   17.7180    0.1190 O   0  0  0  0  0  0  0  0  0  0  0  0
    1.2780   16.6480   -1.4940 C   0  0  0  0  0  0  0  0  0  0  0  0
    1.1930   16.2160   -2.9790 C   0  0  0  0  0  0  0  0  0  0  0  0
    0.3810   17.9080   -1.3560 C   0  0  0  0  0  0  0  0  0  0  0  0
    1.3460   13.0790    0.4300 C   0  0  1  0  0  0  0  0  0  0  0  0
    1.7730   13.3620    1.9020 C   0  0  0  0  0  0  0  0  0  0  0  0
    2.1000   11.7670   -0.0060 C   0  0  0  0  0  0  0  0  0  0  0  0
    1.4390   10.9210   -1.1120 C   0  0  0  0  0  0  0  0  0  0  0  0
   -0.0400   10.6710   -0.8010 C   0  0  2  0  0  0  0  0  0  0  0  0
   -0.1170    9.8430    0.5270 C   0  0  0  0  0  0  0  0  0  0  0  0
    1.4122    7.9580   -1.6334 H   0  0  0  0  0  0  0  0  0  0  0  0
    0.7207    7.1909   -3.1031 H   0  0  0  0  0  0  0  0  0  0  0  0
    1.1080    8.9450   -3.1031 H   0  0  0  0  0  0  0  0  0  0  0  0
   -0.7792    7.9564   -0.9984 H   0  0  0  0  0  0  0  0  0  0  0  0
   -2.0151    8.5547   -3.6745 H   0  0  0  0  0  0  0  0  0  0  0  0
   -1.3420    6.8900   -3.3309 H   0  0  0  0  0  0  0  0  0  0  0  0
   -2.8642    6.4865   -1.6141 H   0  0  0  0  0  0  0  0  0  0  0  0
   -3.2939    8.2416   -1.4664 H   0  0  0  0  0  0  0  0  0  0  0  0
   -3.6536    7.7641   -3.9015 H   0  0  0  0  0  0  0  0  0  0  0  0
   -4.9074    5.2358   -1.1226 H   0  0  0  0  0  0  0  0  0  0  0  0
   -5.5832    4.0829   -2.3228 H   0  0  0  0  0  0  0  0  0  0  0  0
   -3.8252    4.4516   -2.3228 H   0  0  0  0  0  0  0  0  0  0  0  0
   -6.8193    5.2619   -4.0757 H   0  0  0  0  0  0  0  0  0  0  0  0
   -5.9762    6.5896   -4.9436 H   0  0  0  0  0  0  0  0  0  0  0  0
   -5.2814    4.9331   -4.9436 H   0  0  0  0  0  0  0  0  0  0  0  0
   -0.5249   10.2291   -2.8846 H   0  0  0  0  0  0  0  0  0  0  0  0
   -2.8809   10.5494   -2.4568 H   0  0  0  0  0  0  0  0  0  0  0  0
   -2.8436    9.4964   -1.0264 H   0  0  0  0  0  0  0  0  0  0  0  0
   -2.9405   12.3524   -0.9855 H   0  0  0  0  0  0  0  0  0  0  0  0
   -2.5272   11.3578    0.4088 H   0  0  0  0  0  0  0  0  0  0  0  0
   -0.6759   13.9386   -1.8685 H   0  0  0  0  0  0  0  0  0  0  0  0
    0.1466   12.5591   -2.6730 H   0  0  0  0  0  0  0  0  0  0  0  0
   -1.6469   12.6593   -2.6730 H   0  0  0  0  0  0  0  0  0  0  0  0
   -0.4642   12.2547    1.3064 H   0  0  0  0  0  0  0  0  0  0  0  0
   -1.9951   14.1131    0.3874 H   0  0  0  0  0  0  0  0  0  0  0  0
   -0.8236   14.4414    1.7693 H   0  0  0  0  0  0  0  0  0  0  0  0
   -1.0031   16.3119   -0.0777 H   0  0  0  0  0  0  0  0  0  0  0  0
    1.8235   13.8070   -1.5024 H   0  0  0  0  0  0  0  0  0  0  0  0
    3.1898   15.2321    0.8637 H   0  0  0  0  0  0  0  0  0  0  0  0
    3.9182   13.9592   -0.2132 H   0  0  0  0  0  0  0  0  0  0  0  0
    4.6941   16.2346   -0.7956 H   0  0  0  0  0  0  0  0  0  0  0  0
    3.7611   15.4439   -2.1263 H   0  0  0  0  0  0  0  0  0  0  0  0
    3.0685   17.7358   -1.9550 H   0  0  0  0  0  0  0  0  0  0  0  0
    3.5540   17.4030    0.5940 H   0  0  0  0  0  0  0  0  0  0  0  0
    0.9809   15.1381   -3.0357 H   0  0  0  0  0  0  0  0  0  0  0  0
    0.3876   16.7749   -3.4779 H   0  0  0  0  0  0  0  0  0  0  0  0
    2.1501   16.4281   -3.4779 H   0  0  0  0  0  0  0  0  0  0  0  0
    0.2226   18.1304   -0.2904 H   0  0  0  0  0  0  0  0  0  0  0  0
    0.8741   18.7639   -1.8399 H   0  0  0  0  0  0  0  0  0  0  0  0
   -0.5892   17.7222   -1.8399 H   0  0  0  0  0  0  0  0  0  0  0  0
    1.0570   12.8875    2.5892 H   0  0  0  0  0  0  0  0  0  0  0  0
    2.7779   12.9505    2.0779 H   0  0  0  0  0  0  0  0  0  0  0  0
    1.7855   14.4478    2.0779 H   0  0  0  0  0  0  0  0  0  0  0  0
    3.0984   12.0599   -0.3628 H   0  0  0  0  0  0  0  0  0  0  0  0
    2.0999   11.1245    0.8869 H   0  0  0  0  0  0  0  0  0  0  0  0
    1.5199   11.4550   -2.0703 H   0  0  0  0  0  0  0  0  0  0  0  0
    1.9547    9.9509   -1.1670 H   0  0  0  0  0  0  0  0  0  0  0  0
   -0.0536   10.5244    1.3882 H   0  0  0  0  0  0  0  0  0  0  0  0
   -1.0700    9.2948    0.5626 H   0  0  0  0  0  0  0  0  0  0  0  0
    0.7186    9.1285    0.5626 H   0  0  0  0  0  0  0  0  0  0  0  0
  1  2  1  0
  2  3  1  0
  3  4  1  0
  4  5  1  0
  5  6  1  0
  6  7  1  0
  7  8  1  0
  7  9  1  0
  2 10  1  0
 10 11  1  0
 11 12  1  0
 12 13  1  0
 13 14  1  6
 13 15  1  0
 15 16  1  0
 16 17  1  0
 17 18  2  0
 18 19  1  0
 19 20  1  0
 20 21  1  0
 21 22  1  0
 22 23  1  0
 22 24  1  0
 24 25  1  0
 24 26  1  0
 19 27  1  0
 27 28  1  1
 27 29  1  0
 29 30  1  0
 30 31  1  0
 31 32  1  1
  7  5  1  0
 31 10  1  0
 31 13  1  0
 27 15  1  0
 24 18  1  0
  1 33  1  0
  1 34  1  0
  1 35  1  0
  2 36  1  1
  3 37  1  0
  3 38  1  0
  4 39  1  0
  4 40  1  0
  5 41  1  6
  8 42  1  0
  8 43  1  0
  8 44  1  0
  9 45  1  0
  9 46  1  0
  9 47  1  0
 10 48  1  6
 11 49  1  0
 11 50  1  0
 12 51  1  0
 12 52  1  0
 14 53  1  0
 14 54  1  0
 14 55  1  0
 15 56  1  1
 16 57  1  0
 16 58  1  0
 17 59  1  0
 19 60  1  6
 20 61  1  0
 20 62  1  0
 21 63  1  0
 21 64  1  0
 22 65  1  6
 23 66  1  0
 25 67  1  0
 25 68  1  0
 25 69  1  0
 26 70  1  0
 26 71  1  0
 26 72  1  0
 28 73  1  0
 28 74  1  0
 28 75  1  0
 29 76  1  0
 29 77  1  0
 30 78  1  0
 30 79  1  0
 32 80  1  0
 32 81  1  0
 32 82  1  0
M  END
>  <meeko>  (18) 
{"is_sidechain": [false], "intermolecular_energy": 2.731, "internal_energy": -0.839}

$$$$
EPH_relaxed_0001_pdb2pqr_Repair_28_r2_0001_out
     RDKit          3D

 82 86  0  0  0  0  0  0  0  0999 V2000
    3.6030   18.4810   -3.0100 C   0  0  0  0  0  0  0  0  0  0  0  0
    2.3780   18.1070   -2.1700 C   0  0  2  0  0  0  0  0  0  0  0  0
    2.1270   19.1140   -1.0290 C   0  0  0  0  0  0  0  0  0  0  0  0
    2.2660   18.5060    0.3690 C   0  0  0  0  0  0  0  0  0  0  0  0
    2.6880   19.5300    1.3790 C   0  0  2  0  0  0  0  0  0  0  0  0
    3.9280   20.1860    1.0850 O   0  0  0  0  0  0  0  0  0  0  0  0
    3.9050   19.3740    2.2710 C   0  0  0  0  0  0  0  0  0  0  0  0
    4.7780   18.1610    2.1950 C   0  0  0  0  0  0  0  0  0  0  0  0
    3.9670   20.1620    3.5420 C   0  0  0  0  0  0  0  0  0  0  0  0
    2.5480   16.7040   -1.5990 C   0  0  1  0  0  0  0  0  0  0  0  0
    3.1130   16.7120   -0.1540 C   0  0  0  0  0  0  0  0  0  0  0  0
    2.4490   15.5250    0.5920 C   0  0  0  0  0  0  0  0  0  0  0  0
    1.7890   14.6830   -0.5250 C   0  0  1  0  0  0  0  0  0  0  0  0
    2.9490   13.8250   -1.1200 C   0  0  0  0  0  0  0  0  0  0  0  0
    0.5760   13.7950   -0.0950 C   0  0  2  0  0  0  0  0  0  0  0  0
    0.9020   12.7010    0.9360 C   0  0  0  0  0  0  0  0  0  0  0  0
    1.3030   11.3820    0.3620 C   0  0  0  0  0  0  0  0  0  0  0  0
    1.1260   11.0000   -0.9160 C   0  0  0  0  0  0  0  0  0  0  0  0
    0.3770   11.8960   -1.9110 C   0  0  1  0  0  0  0  0  0  0  0  0
   -0.6480   11.0450   -2.7050 C   0  0  0  0  0  0  0  0  0  0  0  0
   -0.0080    9.8350   -3.3780 C   0  0  0  0  0  0  0  0  0  0  0  0
    0.6770    8.9380   -2.3500 C   0  0  2  0  0  0  0  0  0  0  0  0
   -0.3230    8.3610   -1.5040 O   0  0  0  0  0  0  0  0  0  0  0  0
    1.7250    9.6890   -1.4830 C   0  0  0  0  0  0  0  0  0  0  0  0
    2.9550   10.0520   -2.3510 C   0  0  0  0  0  0  0  0  0  0  0  0
    2.2370    8.7060   -0.3950 C   0  0  0  0  0  0  0  0  0  0  0  0
   -0.2650   13.2180   -1.3050 C   0  0  1  0  0  0  0  0  0  0  0  0
   -1.6900   12.9110   -0.7500 C   0  0  0  0  0  0  0  0  0  0  0  0
   -0.4560   14.2720   -2.4580 C   0  0  0  0  0  0  0  0  0  0  0  0
    0.7370   15.2000   -2.7550 C   0  0  0  0  0  0  0  0  0  0  0  0
    1.2750   15.8320   -1.4670 C   0  0  2  0  0  0  0  0  0  0  0  0
    0.1360   16.7190   -0.8580 C   0  0  0  0  0  0  0  0  0  0  0  0
    4.4402   18.7366   -2.3439 H   0  0  0  0  0  0  0  0  0  0  0  0
    3.8865   17.6285   -3.6447 H   0  0  0  0  0  0  0  0  0  0  0  0
    3.3620   19.3465   -3.6447 H   0  0  0  0  0  0  0  0  0  0  0  0
    1.5008   18.1344   -2.8332 H   0  0  0  0  0  0  0  0  0  0  0  0
    2.8527   19.9352   -1.1244 H   0  0  0  0  0  0  0  0  0  0  0  0
    1.0874   19.4596   -1.1277 H   0  0  0  0  0  0  0  0  0  0  0  0
    1.2964   18.0843    0.6725 H   0  0  0  0  0  0  0  0  0  0  0  0
    3.0397   17.7252    0.3282 H   0  0  0  0  0  0  0  0  0  0  0  0
    1.6393   19.7784    1.5991 H   0  0  0  0  0  0  0  0  0  0  0  0
    5.0227   17.8210    3.2121 H   0  0  0  0  0  0  0  0  0  0  0  0
    4.2475   17.3605    1.6585 H   0  0  0  0  0  0  0  0  0  0  0  0
    5.7055   18.4098    1.6585 H   0  0  0  0  0  0  0  0  0  0  0  0
    3.9131   19.4771    4.4011 H   0  0  0  0  0  0  0  0  0  0  0  0
    4.9121   20.7236    3.5795 H   0  0  0  0  0  0  0  0  0  0  0  0
    3.1214   20.8645    3.5795 H   0  0  0  0  0  0  0  0  0  0  0  0
    3.2204   16.2759   -2.3571 H   0  0  0  0  0  0  0  0  0  0  0  0
    4.2053   16.5839   -0.1735 H   0  0  0  0  0  0  0  0  0  0  0  0
    2.8970   17.6658    0.3496 H   0  0  0  0  0  0  0  0  0  0  0  0
    3.2041   14.9330    1.1299 H   0  0  0  0  0  0  0  0  0  0  0  0
    1.7222   15.8603    1.3466 H   0  0  0  0  0  0  0  0  0  0  0  0
    3.5394   13.3883   -0.3010 H   0  0  0  0  0  0  0  0  0  0  0  0
    2.5285   13.0189   -1.7392 H   0  0  0  0  0  0  0  0  0  0  0  0
    3.5967   14.4631   -1.7392 H   0  0  0  0  0  0  0  0  0  0  0  0
   -0.0706   14.5147    0.4284 H   0  0  0  0  0  0  0  0  0  0  0  0
    1.7282   13.0629    1.5657 H   0  0  0  0  0  0  0  0  0  0  0  0
   -0.0296   12.5200    1.4922 H   0  0  0  0  0  0  0  0  0  0  0  0
    1.7835   10.6622    1.0410 H   0  0  0  0  0  0  0  0  0  0  0  0
    1.1399   12.2944   -2.5961 H   0  0  0  0  0  0  0  0  0  0  0  0
   -1.4257   10.6923   -2.0116 H   0  0  0  0  0  0  0  0  0  0  0  0
   -1.0694   11.6827   -3.4961 H   0  0  0  0  0  0  0  0  0  0  0  0
   -0.7873    9.2577   -3.8971 H   0  0  0  0  0  0  0  0  0  0  0  0
    0.7483   10.1902   -4.0935 H   0  0  0  0  0  0  0  0  0  0  0  0
    1.2265    8.1619   -2.9029 H   0  0  0  0  0  0  0  0  0  0  0  0
   -0.7780    7.6700   -2.0150 H   0  0  0  0  0  0  0  0  0  0  0  0
    3.8038   10.3025   -1.6977 H   0  0  0  0  0  0  0  0  0  0  0  0
    3.2217    9.1943   -2.9860 H   0  0  0  0  0  0  0  0  0  0  0  0
    2.7132   10.9171   -2.9860 H   0  0  0  0  0  0  0  0  0  0  0  0
    2.0223    9.1183    0.6020 H   0  0  0  0  0  0  0  0  0  0  0  0
    1.7291    7.7369   -0.5082 H   0  0  0  0  0  0  0  0  0  0  0  0
    3.3223    8.5667   -0.5082 H   0  0  0  0  0  0  0  0  0  0  0  0
   -1.6642   12.9166    0.3497 H   0  0  0  0  0  0  0  0  0  0  0  0
   -2.3945   13.6780   -1.1041 H   0  0  0  0  0  0  0  0  0  0  0  0
   -2.0162   11.9220   -1.1041 H   0  0  0  0  0  0  0  0  0  0  0  0
   -0.6847   13.7183   -3.3806 H   0  0  0  0  0  0  0  0  0  0  0  0
   -1.2590   14.9380   -2.1092 H   0  0  0  0  0  0  0  0  0  0  0  0
    1.5381   14.6151   -3.2305 H   0  0  0  0  0  0  0  0  0  0  0  0
    0.3974   16.0040   -3.4246 H   0  0  0  0  0  0  0  0  0  0  0  0
    0.1875   16.6789    0.2401 H   0  0  0  0  0  0  0  0  0  0  0  0
    0.2623   17.7590   -1.1933 H   0  0  0  0  0  0  0  0  0  0  0  0
   -0.8414   16.3418   -1.1933 H   0  0  0  0  0  0  0  0  0  0  0  0
  1  2  1  0
  2  3  1  0
  3  4  1  0
  4  5  1  0
  5  6  1  0
  6  7  1  0
  7  8  1  0
  7  9  1  0
  2 10  1  0
 10 11  1  0
 11 12  1  0
 12 13  1  0
 13 14  1  6
 13 15  1  0
 15 16  1  0
 16 17  1  0
 17 18  2  0
 18 19  1  0
 19 20  1  0
 20 21  1  0
 21 22  1  0
 22 23  1  0
 22 24  1  0
 24 25  1  0
 24 26  1  0
 19 27  1  0
 27 28  1  1
 27 29  1  0
 29 30  1  0
 30 31  1  0
 31 32  1  1
  7  5  1  0
 31 10  1  0
 31 13  1  0
 27 15  1  0
 24 18  1  0
  1 33  1  0
  1 34  1  0
  1 35  1  0
  2 36  1  6
  3 37  1  0
  3 38  1  0
  4 39  1  0
  4 40  1  0
  5 41  1  1
  8 42  1  0
  8 43  1  0
  8 44  1  0
  9 45  1  0
  9 46  1  0
  9 47  1  0
 10 48  1  6
 11 49  1  0
 11 50  1  0
 12 51  1  0
 12 52  1  0
 14 53  1  0
 14 54  1  0
 14 55  1  0
 15 56  1  1
 16 57  1  0
 16 58  1  0
 17 59  1  0
 19 60  1  6
 20 61  1  0
 20 62  1  0
 21 63  1  0
 21 64  1  0
 22 65  1  6
 23 66  1  0
 25 67  1  0
 25 68  1  0
 25 69  1  0
 26 70  1  0
 26 71  1  0
 26 72  1  0
 28 73  1  0
 28 74  1  0
 28 75  1  0
 29 76  1  0
 29 77  1  0
 30 78  1  0
 30 79  1  0
 32 80  1  0
 32 81  1  0
 32 82  1  0
M  END
>  <meeko>  (19) 
{"is_sidechain": [false], "intermolecular_energy": 2.731, "internal_energy": -0.839}

$$$$
