EPH_relaxed_0001_pdb2pqr_Repair_278_r2_0001_out
     RDKit          3D

 82 86  0  0  0  0  0  0  0  0999 V2000
   -1.6680    8.5730   -1.8350 C   0  0  0  0  0  0  0  0  0  0  0  0
   -2.0590    9.1240   -0.4610 C   0  0  2  0  0  0  0  0  0  0  0  0
   -3.5510    9.5070   -0.3920 C   0  0  0  0  0  0  0  0  0  0  0  0
   -4.4890    8.3050   -0.2570 C   0  0  0  0  0  0  0  0  0  0  0  0
   -5.1630    7.9800   -1.5560 C   0  0  2  0  0  0  0  0  0  0  0  0
   -6.3640    8.7200   -1.8100 O   0  0  0  0  0  0  0  0  0  0  0  0
   -6.5160    7.3000   -1.6490 C   0  0  0  0  0  0  0  0  0  0  0  0
   -7.2770    6.9040   -0.4220 C   0  0  0  0  0  0  0  0  0  0  0  0
   -6.8720    6.5850   -2.9150 C   0  0  0  0  0  0  0  0  0  0  0  0
   -1.1940   10.3320   -0.1200 C   0  0  1  0  0  0  0  0  0  0  0  0
   -0.1430   10.0240    0.9790 C   0  0  0  0  0  0  0  0  0  0  0  0
    1.1210   10.8540    0.6350 C   0  0  0  0  0  0  0  0  0  0  0  0
    0.6480   11.8540   -0.4460 C   0  0  1  0  0  0  0  0  0  0  0  0
   -0.0450   13.0050    0.3490 C   0  0  0  0  0  0  0  0  0  0  0  0
    1.7500   12.4010   -1.4100 C   0  0  2  0  0  0  0  0  0  0  0  0
    2.8650   13.2160   -0.7320 C   0  0  0  0  0  0  0  0  0  0  0  0
    2.6150   14.6850   -0.6380 C   0  0  0  0  0  0  0  0  0  0  0  0
    1.6790   15.3640   -1.3260 C   0  0  0  0  0  0  0  0  0  0  0  0
    0.8150   14.6640   -2.3830 C   0  0  1  0  0  0  0  0  0  0  0  0
    0.7640   15.5320   -3.6680 C   0  0  0  0  0  0  0  0  0  0  0  0
    0.3050   16.9600   -3.3920 C   0  0  0  0  0  0  0  0  0  0  0  0
    1.2220   17.6420   -2.3800 C   0  0  2  0  0  0  0  0  0  0  0  0
    2.5130   17.8150   -2.9720 O   0  0  0  0  0  0  0  0  0  0  0  0
    1.3590   16.8540   -1.0480 C   0  0  0  0  0  0  0  0  0  0  0  0
    0.0260   16.9260   -0.2610 C   0  0  0  0  0  0  0  0  0  0  0  0
    2.4190   17.5750   -0.1730 C   0  0  0  0  0  0  0  0  0  0  0  0
    1.1830   13.1480   -2.6850 C   0  0  1  0  0  0  0  0  0  0  0  0
    2.2960   13.0770   -3.7750 C   0  0  0  0  0  0  0  0  0  0  0  0
   -0.0770   12.4240   -3.2910 C   0  0  0  0  0  0  0  0  0  0  0  0
   -1.0680   11.8000   -2.2900 C   0  0  0  0  0  0  0  0  0  0  0  0
   -0.3350   10.9360   -1.2590 C   0  0  2  0  0  0  0  0  0  0  0  0
    0.3540    9.7560   -2.0270 C   0  0  0  0  0  0  0  0  0  0  0  0
   -1.0358    7.6821   -1.7064 H   0  0  0  0  0  0  0  0  0  0  0  0
   -2.5761    8.3008   -2.3929 H   0  0  0  0  0  0  0  0  0  0  0  0
   -1.1112    9.3403   -2.3929 H   0  0  0  0  0  0  0  0  0  0  0  0
   -1.8892    8.3256    0.2764 H   0  0  0  0  0  0  0  0  0  0  0  0
   -3.7011   10.1640    0.4774 H   0  0  0  0  0  0  0  0  0  0  0  0
   -3.7997   10.0039   -1.3414 H   0  0  0  0  0  0  0  0  0  0  0  0
   -3.9052    7.4320    0.0700 H   0  0  0  0  0  0  0  0  0  0  0  0
   -5.2663    8.5572    0.4793 H   0  0  0  0  0  0  0  0  0  0  0  0
   -4.1946    7.7645   -2.0311 H   0  0  0  0  0  0  0  0  0  0  0  0
   -6.7094    7.1994    0.4728 H   0  0  0  0  0  0  0  0  0  0  0  0
   -8.2550    7.4076   -0.4186 H   0  0  0  0  0  0  0  0  0  0  0  0
   -7.4258    5.8141   -0.4186 H   0  0  0  0  0  0  0  0  0  0  0  0
   -7.3501    5.6247   -2.6717 H   0  0  0  0  0  0  0  0  0  0  0  0
   -7.5677    7.2028   -3.5018 H   0  0  0  0  0  0  0  0  0  0  0  0
   -5.9597    6.4021   -3.5018 H   0  0  0  0  0  0  0  0  0  0  0  0
   -1.9796   11.0427    0.1763 H   0  0  0  0  0  0  0  0  0  0  0  0
   -0.5306   10.3159    1.9662 H   0  0  0  0  0  0  0  0  0  0  0  0
    0.0880    8.9491    1.0142 H   0  0  0  0  0  0  0  0  0  0  0  0
    1.4889   11.3878    1.5236 H   0  0  0  0  0  0  0  0  0  0  0  0
    1.9519   10.2236    0.2855 H   0  0  0  0  0  0  0  0  0  0  0  0
    0.0647   12.8229    1.4283 H   0  0  0  0  0  0  0  0  0  0  0  0
    0.4255   13.9648    0.0895 H   0  0  0  0  0  0  0  0  0  0  0  0
   -1.1134   13.0383    0.0895 H   0  0  0  0  0  0  0  0  0  0  0  0
    2.2297   11.4777   -1.7669 H   0  0  0  0  0  0  0  0  0  0  0  0
    2.9969   12.8278    0.2887 H   0  0  0  0  0  0  0  0  0  0  0  0
    3.7558   13.0992   -1.3667 H   0  0  0  0  0  0  0  0  0  0  0  0
    3.2495   15.2607    0.0519 H   0  0  0  0  0  0  0  0  0  0  0  0
   -0.1919   14.5825   -1.9478 H   0  0  0  0  0  0  0  0  0  0  0  0
    1.7701   15.5646   -4.1115 H   0  0  0  0  0  0  0  0  0  0  0  0
    0.0345   15.0733   -4.3517 H   0  0  0  0  0  0  0  0  0  0  0  0
    0.3190   17.5307   -4.3323 H   0  0  0  0  0  0  0  0  0  0  0  0
   -0.7132   16.9274   -2.9769 H   0  0  0  0  0  0  0  0  0  0  0  0
    0.7686   18.6111   -2.1247 H   0  0  0  0  0  0  0  0  0  0  0  0
    3.1070   18.1640   -2.2860 H   0  0  0  0  0  0  0  0  0  0  0  0
    0.2365   16.9146    0.8186 H   0  0  0  0  0  0  0  0  0  0  0  0
   -0.5039   17.8541   -0.5215 H   0  0  0  0  0  0  0  0  0  0  0  0
   -0.6008   16.0604   -0.5215 H   0  0  0  0  0  0  0  0  0  0  0  0
    2.1860   17.4165    0.8903 H   0  0  0  0  0  0  0  0  0  0  0  0
    3.4163   17.1671   -0.3946 H   0  0  0  0  0  0  0  0  0  0  0  0
    2.4060   18.6524   -0.3946 H   0  0  0  0  0  0  0  0  0  0  0  0
    3.2811   13.0142   -3.2896 H   0  0  0  0  0  0  0  0  0  0  0  0
    2.1388   12.1871   -4.4021 H   0  0  0  0  0  0  0  0  0  0  0  0
    2.2532   13.9797   -4.4021 H   0  0  0  0  0  0  0  0  0  0  0  0
   -0.6297   13.1631   -3.8895 H   0  0  0  0  0  0  0  0  0  0  0  0
    0.3262   11.5757   -3.8636 H   0  0  0  0  0  0  0  0  0  0  0  0
   -1.6064   12.6045   -1.7677 H   0  0  0  0  0  0  0  0  0  0  0  0
   -1.7722   11.1625   -2.8447 H   0  0  0  0  0  0  0  0  0  0  0  0
    0.7714    9.0412   -1.3026 H   0  0  0  0  0  0  0  0  0  0  0  0
   -0.3885    9.2465   -2.6587 H   0  0  0  0  0  0  0  0  0  0  0  0
    1.1627   10.1522   -2.6587 H   0  0  0  0  0  0  0  0  0  0  0  0
  1  2  1  0
  2  3  1  0
  3  4  1  0
  4  5  1  0
  5  6  1  0
  6  7  1  0
  7  8  1  0
  7  9  1  0
  2 10  1  0
 10 11  1  0
 11 12  1  0
 12 13  1  0
 13 14  1  1
 13 15  1  0
 15 16  1  0
 16 17  1  0
 17 18  2  0
 18 19  1  0
 19 20  1  0
 20 21  1  0
 21 22  1  0
 22 23  1  0
 22 24  1  0
 24 25  1  0
 24 26  1  0
 19 27  1  0
 27 28  1  6
 27 29  1  0
 29 30  1  0
 30 31  1  0
 31 32  1  6
  7  5  1  0
 31 10  1  0
 31 13  1  0
 27 15  1  0
 24 18  1  0
  1 33  1  0
  1 34  1  0
  1 35  1  0
  2 36  1  1
  3 37  1  0
  3 38  1  0
  4 39  1  0
  4 40  1  0
  5 41  1  6
  8 42  1  0
  8 43  1  0
  8 44  1  0
  9 45  1  0
  9 46  1  0
  9 47  1  0
 10 48  1  1
 11 49  1  0
 11 50  1  0
 12 51  1  0
 12 52  1  0
 14 53  1  0
 14 54  1  0
 14 55  1  0
 15 56  1  6
 16 57  1  0
 16 58  1  0
 17 59  1  0
 19 60  1  1
 20 61  1  0
 20 62  1  0
 21 63  1  0
 21 64  1  0
 22 65  1  1
 23 66  1  0
 25 67  1  0
 25 68  1  0
 25 69  1  0
 26 70  1  0
 26 71  1  0
 26 72  1  0
 28 73  1  0
 28 74  1  0
 28 75  1  0
 29 76  1  0
 29 77  1  0
 30 78  1  0
 30 79  1  0
 32 80  1  0
 32 81  1  0
 32 82  1  0
M  END
>  <meeko>  (1) 
{"is_sidechain": [false], "intermolecular_energy": 2.731, "internal_energy": -0.839}

$$$$
EPH_relaxed_0001_pdb2pqr_Repair_278_r2_0001_out
     RDKit          3D

 82 86  0  0  0  0  0  0  0  0999 V2000
    4.2000   17.5760   -0.5960 C   0  0  0  0  0  0  0  0  0  0  0  0
    2.8480   18.1360   -0.1450 C   0  0  2  0  0  0  0  0  0  0  0  0
    2.9260   18.7870    1.2510 C   0  0  0  0  0  0  0  0  0  0  0  0
    4.3100   18.6900    1.8990 C   0  0  0  0  0  0  0  0  0  0  0  0
    4.3340   19.3310    3.2530 C   0  0  2  0  0  0  0  0  0  0  0  0
    5.4540   20.1940    3.4870 O   0  0  0  0  0  0  0  0  0  0  0  0
    5.3780   19.0180    4.3090 C   0  0  0  0  0  0  0  0  0  0  0  0
    6.4700   18.0270    4.0560 C   0  0  0  0  0  0  0  0  0  0  0  0
    5.0540   19.3040    5.7420 C   0  0  0  0  0  0  0  0  0  0  0  0
    1.8010   17.0280   -0.1450 C   0  0  1  0  0  0  0  0  0  0  0  0
    0.3730   17.5570   -0.4450 C   0  0  0  0  0  0  0  0  0  0  0  0
   -0.3500   16.4540   -1.2610 C   0  0  0  0  0  0  0  0  0  0  0  0
    0.5560   15.2080   -1.1200 C   0  0  1  0  0  0  0  0  0  0  0  0
    0.1860   14.5980    0.2680 C   0  0  0  0  0  0  0  0  0  0  0  0
    0.4520   14.1460   -2.2630 C   0  0  2  0  0  0  0  0  0  0  0  0
   -0.9290   13.4830   -2.4150 C   0  0  0  0  0  0  0  0  0  0  0  0
   -1.1280   12.2350   -1.6190 C   0  0  0  0  0  0  0  0  0  0  0  0
   -0.1510   11.5130   -1.0400 C   0  0  0  0  0  0  0  0  0  0  0  0
    1.3250   11.8810   -1.2400 C   0  0  1  0  0  0  0  0  0  0  0  0
    2.1360   10.6020   -1.5770 C   0  0  0  0  0  0  0  0  0  0  0  0
    1.9450    9.4980   -0.5410 C   0  0  0  0  0  0  0  0  0  0  0  0
    0.4720    9.1200   -0.4130 C   0  0  2  0  0  0  0  0  0  0  0  0
    0.0450    8.5100   -1.6340 O   0  0  0  0  0  0  0  0  0  0  0  0
   -0.4450   10.3310   -0.0840 C   0  0  0  0  0  0  0  0  0  0  0  0
   -0.1840   10.8030    1.3670 C   0  0  0  0  0  0  0  0  0  0  0  0
   -1.9170    9.8390   -0.1230 C   0  0  0  0  0  0  0  0  0  0  0  0
    1.6120   13.0700   -2.2550 C   0  0  1  0  0  0  0  0  0  0  0  0
    1.7150   12.5160   -3.7090 C   0  0  0  0  0  0  0  0  0  0  0  0
    3.0140   13.7040   -1.9210 C   0  0  0  0  0  0  0  0  0  0  0  0
    3.0340   14.8310   -0.8700 C   0  0  0  0  0  0  0  0  0  0  0  0
    1.9710   15.8890   -1.1810 C   0  0  2  0  0  0  0  0  0  0  0  0
    2.3290   16.5350   -2.5630 C   0  0  0  0  0  0  0  0  0  0  0  0
    4.8059   17.3250    0.2871 H   0  0  0  0  0  0  0  0  0  0  0  0
    4.0389   16.6706   -1.1995 H   0  0  0  0  0  0  0  0  0  0  0  0
    4.7263   18.3301   -1.1995 H   0  0  0  0  0  0  0  0  0  0  0  0
    2.5593   18.9207   -0.8597 H   0  0  0  0  0  0  0  0  0  0  0  0
    2.6619   19.8504    1.1535 H   0  0  0  0  0  0  0  0  0  0  0  0
    2.2277   18.2390    1.9007 H   0  0  0  0  0  0  0  0  0  0  0  0
    4.5819   17.6291    2.0019 H   0  0  0  0  0  0  0  0  0  0  0  0
    5.0277   19.2202    1.2558 H   0  0  0  0  0  0  0  0  0  0  0  0
    3.2348   19.3551    3.2867 H   0  0  0  0  0  0  0  0  0  0  0  0
    6.8675   17.6663    5.0162 H   0  0  0  0  0  0  0  0  0  0  0  0
    6.0691   17.1780    3.4829 H   0  0  0  0  0  0  0  0  0  0  0  0
    7.2763   18.5082    3.4829 H   0  0  0  0  0  0  0  0  0  0  0  0
    5.7190   18.7170    6.3925 H   0  0  0  0  0  0  0  0  0  0  0  0
    5.1968   20.3760    5.9433 H   0  0  0  0  0  0  0  0  0  0  0  0
    4.0081   19.0293    5.9433 H   0  0  0  0  0  0  0  0  0  0  0  0
    1.9467   16.6358    0.8723 H   0  0  0  0  0  0  0  0  0  0  0  0
   -0.1657   17.7475    0.4950 H   0  0  0  0  0  0  0  0  0  0  0  0
    0.4116   18.5024   -1.0061 H   0  0  0  0  0  0  0  0  0  0  0  0
   -1.3496   16.2564   -0.8465 H   0  0  0  0  0  0  0  0  0  0  0  0
   -0.5013   16.7434   -2.3114 H   0  0  0  0  0  0  0  0  0  0  0  0
    0.5774   15.2433    1.0682 H   0  0  0  0  0  0  0  0  0  0  0  0
   -0.9080   14.5261    0.3571 H   0  0  0  0  0  0  0  0  0  0  0  0
    0.6278   13.5946    0.3571 H   0  0  0  0  0  0  0  0  0  0  0  0
    0.5901   14.7579   -3.1666 H   0  0  0  0  0  0  0  0  0  0  0  0
   -1.6920   14.2111   -2.1022 H   0  0  0  0  0  0  0  0  0  0  0  0
   -1.0100   13.1867   -3.4712 H   0  0  0  0  0  0  0  0  0  0  0  0
   -2.1603   11.8757   -1.4956 H   0  0  0  0  0  0  0  0  0  0  0  0
    1.6668   12.2987   -0.2815 H   0  0  0  0  0  0  0  0  0  0  0  0
    1.8094   10.2256   -2.5577 H   0  0  0  0  0  0  0  0  0  0  0  0
    3.2018   10.8742   -1.5822 H   0  0  0  0  0  0  0  0  0  0  0  0
    2.5188    8.6116   -0.8494 H   0  0  0  0  0  0  0  0  0  0  0  0
    2.2994    9.8654    0.4334 H   0  0  0  0  0  0  0  0  0  0  0  0
    0.3828    8.4213    0.4319 H   0  0  0  0  0  0  0  0  0  0  0  0
   -0.5930    7.8120   -1.4080 H   0  0  0  0  0  0  0  0  0  0  0  0
   -0.5926   10.0641    2.0720 H   0  0  0  0  0  0  0  0  0  0  0  0
    0.8990   10.9055    1.5300 H   0  0  0  0  0  0  0  0  0  0  0  0
   -0.6730   11.7748    1.5300 H   0  0  0  0  0  0  0  0  0  0  0  0
   -2.2894    9.7145    0.9046 H   0  0  0  0  0  0  0  0  0  0  0  0
   -2.5370   10.5788   -0.6506 H   0  0  0  0  0  0  0  0  0  0  0  0
   -1.9676    8.8751   -0.6506 H   0  0  0  0  0  0  0  0  0  0  0  0
    1.9160   11.4350   -3.6761 H   0  0  0  0  0  0  0  0  0  0  0  0
    0.7678   12.6969   -4.2383 H   0  0  0  0  0  0  0  0  0  0  0  0
    2.5339   13.0253   -4.2383 H   0  0  0  0  0  0  0  0  0  0  0  0
    3.6659   12.8967   -1.5558 H   0  0  0  0  0  0  0  0  0  0  0  0
    3.3465   14.1770   -2.8568 H   0  0  0  0  0  0  0  0  0  0  0  0
    2.8343   14.4011    0.1226 H   0  0  0  0  0  0  0  0  0  0  0  0
    4.0234   15.3113   -0.8893 H   0  0  0  0  0  0  0  0  0  0  0  0
    2.8561   17.4862   -2.3976 H   0  0  0  0  0  0  0  0  0  0  0  0
    2.9767   15.8508   -3.1308 H   0  0  0  0  0  0  0  0  0  0  0  0
    1.4055   16.7215   -3.1308 H   0  0  0  0  0  0  0  0  0  0  0  0
  1  2  1  0
  2  3  1  0
  3  4  1  0
  4  5  1  0
  5  6  1  0
  6  7  1  0
  7  8  1  0
  7  9  1  0
  2 10  1  0
 10 11  1  0
 11 12  1  0
 12 13  1  0
 13 14  1  1
 13 15  1  0
 15 16  1  0
 16 17  1  0
 17 18  2  0
 18 19  1  0
 19 20  1  0
 20 21  1  0
 21 22  1  0
 22 23  1  0
 22 24  1  0
 24 25  1  0
 24 26  1  0
 19 27  1  0
 27 28  1  6
 27 29  1  0
 29 30  1  0
 30 31  1  0
 31 32  1  6
  7  5  1  0
 31 10  1  0
 31 13  1  0
 27 15  1  0
 24 18  1  0
  1 33  1  0
  1 34  1  0
  1 35  1  0
  2 36  1  6
  3 37  1  0
  3 38  1  0
  4 39  1  0
  4 40  1  0
  5 41  1  1
  8 42  1  0
  8 43  1  0
  8 44  1  0
  9 45  1  0
  9 46  1  0
  9 47  1  0
 10 48  1  1
 11 49  1  0
 11 50  1  0
 12 51  1  0
 12 52  1  0
 14 53  1  0
 14 54  1  0
 14 55  1  0
 15 56  1  6
 16 57  1  0
 16 58  1  0
 17 59  1  0
 19 60  1  1
 20 61  1  0
 20 62  1  0
 21 63  1  0
 21 64  1  0
 22 65  1  1
 23 66  1  0
 25 67  1  0
 25 68  1  0
 25 69  1  0
 26 70  1  0
 26 71  1  0
 26 72  1  0
 28 73  1  0
 28 74  1  0
 28 75  1  0
 29 76  1  0
 29 77  1  0
 30 78  1  0
 30 79  1  0
 32 80  1  0
 32 81  1  0
 32 82  1  0
M  END
>  <meeko>  (2) 
{"is_sidechain": [false], "intermolecular_energy": 2.731, "internal_energy": -0.839}

$$$$
EPH_relaxed_0001_pdb2pqr_Repair_278_r2_0001_out
     RDKit          3D

 82 86  0  0  0  0  0  0  0  0999 V2000
    2.4010   17.9700   -2.7300 C   0  0  0  0  0  0  0  0  0  0  0  0
    1.1380   17.5860   -1.9540 C   0  0  2  0  0  0  0  0  0  0  0  0
    1.3630   17.6140   -0.4290 C   0  0  0  0  0  0  0  0  0  0  0  0
    1.0850   18.9770    0.2100 C   0  0  0  0  0  0  0  0  0  0  0  0
   -0.3490   19.1130    0.6240 C   0  0  2  0  0  0  0  0  0  0  0  0
   -1.2530   18.2290   -0.0520 O   0  0  0  0  0  0  0  0  0  0  0  0
   -1.4390   19.6330   -0.2950 C   0  0  0  0  0  0  0  0  0  0  0  0
   -1.1410   20.0520   -1.7010 C   0  0  0  0  0  0  0  0  0  0  0  0
   -2.6850   20.1920    0.3180 C   0  0  0  0  0  0  0  0  0  0  0  0
    0.6630   16.2040   -2.3850 C   0  0  1  0  0  0  0  0  0  0  0  0
    0.7220   16.0040   -3.9230 C   0  0  0  0  0  0  0  0  0  0  0  0
    1.0980   14.5200   -4.1680 C   0  0  0  0  0  0  0  0  0  0  0  0
    0.9180   13.8400   -2.7900 C   0  0  1  0  0  0  0  0  0  0  0  0
   -0.6140   13.5640   -2.6770 C   0  0  0  0  0  0  0  0  0  0  0  0
    1.7580   12.5450   -2.5450 C   0  0  2  0  0  0  0  0  0  0  0  0
    1.4410   11.3720   -3.4890 C   0  0  0  0  0  0  0  0  0  0  0  0
    0.3790   10.4370   -3.0100 C   0  0  0  0  0  0  0  0  0  0  0  0
   -0.0910   10.3670   -1.7510 C   0  0  0  0  0  0  0  0  0  0  0  0
    0.5220   11.2200   -0.6320 C   0  0  1  0  0  0  0  0  0  0  0  0
    0.7660   10.3360    0.6190 C   0  0  0  0  0  0  0  0  0  0  0  0
   -0.4920    9.6000    1.0690 C   0  0  0  0  0  0  0  0  0  0  0  0
   -1.0380    8.7180   -0.0510 C   0  0  2  0  0  0  0  0  0  0  0  0
   -0.1050    7.6630   -0.3030 O   0  0  0  0  0  0  0  0  0  0  0  0
   -1.3140    9.4980   -1.3660 C   0  0  0  0  0  0  0  0  0  0  0  0
   -2.5330   10.4330   -1.1710 C   0  0  0  0  0  0  0  0  0  0  0  0
   -1.7250    8.4700   -2.4540 C   0  0  0  0  0  0  0  0  0  0  0  0
    1.7990   12.0760   -1.0340 C   0  0  1  0  0  0  0  0  0  0  0  0
    3.0890   11.2150   -0.8700 C   0  0  0  0  0  0  0  0  0  0  0  0
    1.9430   13.2850   -0.0360 C   0  0  0  0  0  0  0  0  0  0  0  0
    1.1840   14.5770   -0.3950 C   0  0  0  0  0  0  0  0  0  0  0  0
    1.4500   14.9820   -1.8490 C   0  0  2  0  0  0  0  0  0  0  0  0
    2.9800   15.2880   -1.9880 C   0  0  0  0  0  0  0  0  0  0  0  0
    3.2063   18.2148   -2.0218 H   0  0  0  0  0  0  0  0  0  0  0  0
    2.7133   17.1262   -3.3628 H   0  0  0  0  0  0  0  0  0  0  0  0
    2.1908   18.8448   -3.3628 H   0  0  0  0  0  0  0  0  0  0  0  0
    0.3658   18.3338   -2.1877 H   0  0  0  0  0  0  0  0  0  0  0  0
    0.6966   16.8712    0.0339 H   0  0  0  0  0  0  0  0  0  0  0  0
    2.4261   17.3896   -0.2571 H   0  0  0  0  0  0  0  0  0  0  0  0
    1.7247   19.0918    1.0975 H   0  0  0  0  0  0  0  0  0  0  0  0
    1.3020   19.7560   -0.5357 H   0  0  0  0  0  0  0  0  0  0  0  0
   -0.0527   19.3886    1.6469 H   0  0  0  0  0  0  0  0  0  0  0  0
   -0.5035   20.9484   -1.6892 H   0  0  0  0  0  0  0  0  0  0  0  0
   -0.6184   19.2372   -2.2235 H   0  0  0  0  0  0  0  0  0  0  0  0
   -2.0822   20.2783   -2.2235 H   0  0  0  0  0  0  0  0  0  0  0  0
   -2.6027   20.1551    1.4143 H   0  0  0  0  0  0  0  0  0  0  0  0
   -2.8163   21.2353   -0.0049 H   0  0  0  0  0  0  0  0  0  0  0  0
   -3.5516   19.5964   -0.0049 H   0  0  0  0  0  0  0  0  0  0  0  0
   -0.3504   16.2165   -1.9573 H   0  0  0  0  0  0  0  0  0  0  0  0
   -0.2577   16.2254   -4.3715 H   0  0  0  0  0  0  0  0  0  0  0  0
    1.4604   16.6788   -4.3806 H   0  0  0  0  0  0  0  0  0  0  0  0
    0.4287   14.0679   -4.9147 H   0  0  0  0  0  0  0  0  0  0  0  0
    2.1201   14.4073   -4.5588 H   0  0  0  0  0  0  0  0  0  0  0  0
   -0.9000   13.5125   -1.6161 H   0  0  0  0  0  0  0  0  0  0  0  0
   -1.1701   14.3764   -3.1676 H   0  0  0  0  0  0  0  0  0  0  0  0
   -0.8516   12.6086   -3.1676 H   0  0  0  0  0  0  0  0  0  0  0  0
    2.7754   12.8712   -2.8065 H   0  0  0  0  0  0  0  0  0  0  0  0
    1.1163   11.7899   -4.4534 H   0  0  0  0  0  0  0  0  0  0  0  0
    2.3636   10.7766   -3.5553 H   0  0  0  0  0  0  0  0  0  0  0  0
   -0.0555    9.7475   -3.7488 H   0  0  0  0  0  0  0  0  0  0  0  0
   -0.2212   11.9969   -0.3996 H   0  0  0  0  0  0  0  0  0  0  0  0
    1.5424    9.5941    0.3806 H   0  0  0  0  0  0  0  0  0  0  0  0
    1.0775   10.9981    1.4403 H   0  0  0  0  0  0  0  0  0  0  0  0
   -0.2493    8.9700    1.9375 H   0  0  0  0  0  0  0  0  0  0  0  0
   -1.2576   10.3436    1.3352 H   0  0  0  0  0  0  0  0  0  0  0  0
   -2.0066    8.3194    0.2852 H   0  0  0  0  0  0  0  0  0  0  0  0
    0.7750    7.9790   -0.0380 H   0  0  0  0  0  0  0  0  0  0  0  0
   -2.7180   10.5749   -0.0960 H   0  0  0  0  0  0  0  0  0  0  0  0
   -2.3268   11.4068   -1.6392 H   0  0  0  0  0  0  0  0  0  0  0  0
   -3.4201    9.9815   -1.6392 H   0  0  0  0  0  0  0  0  0  0  0  0
   -2.0919    7.5522   -1.9713 H   0  0  0  0  0  0  0  0  0  0  0  0
   -2.5211    8.8981   -3.0809 H   0  0  0  0  0  0  0  0  0  0  0  0
   -0.8532    8.2312   -3.0809 H   0  0  0  0  0  0  0  0  0  0  0  0
    3.3016   11.0731    0.1999 H   0  0  0  0  0  0  0  0  0  0  0  0
    2.9390   10.2353   -1.3471 H   0  0  0  0  0  0  0  0  0  0  0  0
    3.9362   11.7293   -1.3471 H   0  0  0  0  0  0  0  0  0  0  0  0
    1.5820   12.9494    0.9474 H   0  0  0  0  0  0  0  0  0  0  0  0
    3.0079   13.5588   -0.0676 H   0  0  0  0  0  0  0  0  0  0  0  0
    0.1052   14.4104   -0.2592 H   0  0  0  0  0  0  0  0  0  0  0  0
    1.5342   15.3849    0.2643 H   0  0  0  0  0  0  0  0  0  0  0  0
    3.4284   15.3777   -0.9875 H   0  0  0  0  0  0  0  0  0  0  0  0
    3.4692   14.4699   -2.5370 H   0  0  0  0  0  0  0  0  0  0  0  0
    3.1169   16.2313   -2.5370 H   0  0  0  0  0  0  0  0  0  0  0  0
  1  2  1  0
  2  3  1  0
  3  4  1  0
  4  5  1  0
  5  6  1  0
  6  7  1  0
  7  8  1  0
  7  9  1  0
  2 10  1  0
 10 11  1  0
 11 12  1  0
 12 13  1  0
 13 14  1  1
 13 15  1  0
 15 16  1  0
 16 17  1  0
 17 18  2  0
 18 19  1  0
 19 20  1  0
 20 21  1  0
 21 22  1  0
 22 23  1  0
 22 24  1  0
 24 25  1  0
 24 26  1  0
 19 27  1  0
 27 28  1  6
 27 29  1  0
 29 30  1  0
 30 31  1  0
 31 32  1  1
  7  5  1  0
 31 10  1  0
 31 13  1  0
 27 15  1  0
 24 18  1  0
  1 33  1  0
  1 34  1  0
  1 35  1  0
  2 36  1  1
  3 37  1  0
  3 38  1  0
  4 39  1  0
  4 40  1  0
  5 41  1  1
  8 42  1  0
  8 43  1  0
  8 44  1  0
  9 45  1  0
  9 46  1  0
  9 47  1  0
 10 48  1  1
 11 49  1  0
 11 50  1  0
 12 51  1  0
 12 52  1  0
 14 53  1  0
 14 54  1  0
 14 55  1  0
 15 56  1  6
 16 57  1  0
 16 58  1  0
 17 59  1  0
 19 60  1  1
 20 61  1  0
 20 62  1  0
 21 63  1  0
 21 64  1  0
 22 65  1  1
 23 66  1  0
 25 67  1  0
 25 68  1  0
 25 69  1  0
 26 70  1  0
 26 71  1  0
 26 72  1  0
 28 73  1  0
 28 74  1  0
 28 75  1  0
 29 76  1  0
 29 77  1  0
 30 78  1  0
 30 79  1  0
 32 80  1  0
 32 81  1  0
 32 82  1  0
M  END
>  <meeko>  (3) 
{"is_sidechain": [false], "intermolecular_energy": 2.731, "internal_energy": -0.839}

$$$$
EPH_relaxed_0001_pdb2pqr_Repair_278_r2_0001_out
     RDKit          3D

 82 86  0  0  0  0  0  0  0  0999 V2000
    0.3520   18.4600   -0.1020 C   0  0  0  0  0  0  0  0  0  0  0  0
    1.4410   17.4010   -0.2920 C   0  0  2  0  0  0  0  0  0  0  0  0
    2.6640   17.9550   -1.0490 C   0  0  0  0  0  0  0  0  0  0  0  0
    3.8900   18.1790   -0.1600 C   0  0  0  0  0  0  0  0  0  0  0  0
    3.5040   18.6660    1.2040 C   0  0  2  0  0  0  0  0  0  0  0  0
    3.7520   20.0590    1.4350 O   0  0  0  0  0  0  0  0  0  0  0  0
    4.5070   19.1390    2.2390 C   0  0  0  0  0  0  0  0  0  0  0  0
    5.9770   19.1470    1.9540 C   0  0  0  0  0  0  0  0  0  0  0  0
    4.1070   19.1290    3.6810 C   0  0  0  0  0  0  0  0  0  0  0  0
    0.8710   16.1970   -1.0320 C   0  0  1  0  0  0  0  0  0  0  0  0
    0.7410   16.4420   -2.5590 C   0  0  0  0  0  0  0  0  0  0  0  0
    1.0350   15.0880   -3.2560 C   0  0  0  0  0  0  0  0  0  0  0  0
    0.9970   14.0450   -2.1140 C   0  0  1  0  0  0  0  0  0  0  0  0
   -0.5190   13.7460   -1.8950 C   0  0  0  0  0  0  0  0  0  0  0  0
    1.8160   12.7340   -2.3490 C   0  0  2  0  0  0  0  0  0  0  0  0
    1.3480   11.8770   -3.5380 C   0  0  0  0  0  0  0  0  0  0  0  0
    0.3200   10.8430   -3.2140 C   0  0  0  0  0  0  0  0  0  0  0  0
    0.0010   10.4190   -1.9770 C   0  0  0  0  0  0  0  0  0  0  0  0
    0.7710   10.9210   -0.7490 C   0  0  1  0  0  0  0  0  0  0  0  0
    1.1310    9.7190    0.1630 C   0  0  0  0  0  0  0  0  0  0  0  0
   -0.0880    8.8830    0.5400 C   0  0  0  0  0  0  0  0  0  0  0  0
   -0.7930    8.3540   -0.7060 C   0  0  2  0  0  0  0  0  0  0  0  0
    0.0670    7.4150   -1.3590 O   0  0  0  0  0  0  0  0  0  0  0  0
   -1.1960    9.4750   -1.7050 C   0  0  0  0  0  0  0  0  0  0  0  0
   -2.3510   10.3150   -1.1050 C   0  0  0  0  0  0  0  0  0  0  0  0
   -1.7690    8.7970   -2.9790 C   0  0  0  0  0  0  0  0  0  0  0  0
    2.0200   11.8560   -1.0480 C   0  0  1  0  0  0  0  0  0  0  0  0
    3.2900   10.9860   -1.2930 C   0  0  0  0  0  0  0  0  0  0  0  0
    2.3220   12.7340    0.2240 C   0  0  0  0  0  0  0  0  0  0  0  0
    1.5700   14.0730    0.3390 C   0  0  0  0  0  0  0  0  0  0  0  0
    1.6750   14.8740   -0.9630 C   0  0  2  0  0  0  0  0  0  0  0  0
    3.1870   15.2080   -1.1990 C   0  0  0  0  0  0  0  0  0  0  0  0
    0.1834   18.6239    0.9726 H   0  0  0  0  0  0  0  0  0  0  0  0
    0.6712   19.4024   -0.5710 H   0  0  0  0  0  0  0  0  0  0  0  0
   -0.5811   18.1146   -0.5710 H   0  0  0  0  0  0  0  0  0  0  0  0
    1.7833   17.0949    0.7076 H   0  0  0  0  0  0  0  0  0  0  0  0
    2.9351   17.2407   -1.8404 H   0  0  0  0  0  0  0  0  0  0  0  0
    2.3749   18.9375   -1.4504 H   0  0  0  0  0  0  0  0  0  0  0  0
    4.4350   17.2289   -0.0583 H   0  0  0  0  0  0  0  0  0  0  0  0
    4.5206   18.9465   -0.6325 H   0  0  0  0  0  0  0  0  0  0  0  0
    2.6783   17.9410    1.2543 H   0  0  0  0  0  0  0  0  0  0  0  0
    6.5343   19.1500    2.9023 H   0  0  0  0  0  0  0  0  0  0  0  0
    6.2432   18.2503    1.3751 H   0  0  0  0  0  0  0  0  0  0  0  0
    6.2334   20.0466    1.3751 H   0  0  0  0  0  0  0  0  0  0  0  0
    5.0080   19.1515    4.3116 H   0  0  0  0  0  0  0  0  0  0  0  0
    3.4870   20.0119    3.8957 H   0  0  0  0  0  0  0  0  0  0  0  0
    3.5319   18.2162    3.8957 H   0  0  0  0  0  0  0  0  0  0  0  0
   -0.0835   16.0858   -0.4967 H   0  0  0  0  0  0  0  0  0  0  0  0
   -0.2768   16.7805   -2.8030 H   0  0  0  0  0  0  0  0  0  0  0  0
    1.4423   17.2199   -2.8953 H   0  0  0  0  0  0  0  0  0  0  0  0
    0.2669   14.8651   -4.0112 H   0  0  0  0  0  0  0  0  0  0  0  0
    1.9992   15.0920   -3.7854 H   0  0  0  0  0  0  0  0  0  0  0  0
   -0.7324   13.7039   -0.8167 H   0  0  0  0  0  0  0  0  0  0  0  0
   -1.1204   14.5428   -2.3570 H   0  0  0  0  0  0  0  0  0  0  0  0
   -0.7728   12.7805   -2.3570 H   0  0  0  0  0  0  0  0  0  0  0  0
    2.8061   13.1210   -2.6315 H   0  0  0  0  0  0  0  0  0  0  0  0
    0.9244   12.5512   -4.2970 H   0  0  0  0  0  0  0  0  0  0  0  0
    2.2351   11.3261   -3.8837 H   0  0  0  0  0  0  0  0  0  0  0  0
   -0.2220   10.3899   -4.0572 H   0  0  0  0  0  0  0  0  0  0  0  0
    0.0878   11.6006   -0.2186 H   0  0  0  0  0  0  0  0  0  0  0  0
    1.8484    9.0762   -0.3681 H   0  0  0  0  0  0  0  0  0  0  0  0
    1.5587   10.1225    1.0926 H   0  0  0  0  0  0  0  0  0  0  0  0
    0.2357    8.0330    1.1587 H   0  0  0  0  0  0  0  0  0  0  0  0
   -0.7910    9.5190    1.0979 H   0  0  0  0  0  0  0  0  0  0  0  0
   -1.7275    7.8756   -0.3775 H   0  0  0  0  0  0  0  0  0  0  0  0
    0.0020    6.5730   -0.8780 H   0  0  0  0  0  0  0  0  0  0  0  0
   -2.2995   10.2776   -0.0068 H   0  0  0  0  0  0  0  0  0  0  0  0
   -2.2586   11.3583   -1.4410 H   0  0  0  0  0  0  0  0  0  0  0  0
   -3.3151    9.9056   -1.4410 H   0  0  0  0  0  0  0  0  0  0  0  0
   -2.4536    7.9870   -2.6869 H   0  0  0  0  0  0  0  0  0  0  0  0
   -2.3157    9.5416   -3.5763 H   0  0  0  0  0  0  0  0  0  0  0  0
   -0.9437    8.3821   -3.5763 H   0  0  0  0  0  0  0  0  0  0  0  0
    3.7232   10.6892   -0.3264 H   0  0  0  0  0  0  0  0  0  0  0  0
    3.0139   10.0865   -1.8627 H   0  0  0  0  0  0  0  0  0  0  0  0
    4.0291   11.5684   -1.8627 H   0  0  0  0  0  0  0  0  0  0  0  0
    2.0694   12.1335    1.1103 H   0  0  0  0  0  0  0  0  0  0  0  0
    3.3841   13.0072    0.1391 H   0  0  0  0  0  0  0  0  0  0  0  0
    0.5099   13.8731    0.5541 H   0  0  0  0  0  0  0  0  0  0  0  0
    2.0230   14.6614    1.1505 H   0  0  0  0  0  0  0  0  0  0  0  0
    3.6935   15.3199   -0.2290 H   0  0  0  0  0  0  0  0  0  0  0  0
    3.6584   14.3923   -1.7669 H   0  0  0  0  0  0  0  0  0  0  0  0
    3.2709   16.1463   -1.7669 H   0  0  0  0  0  0  0  0  0  0  0  0
  1  2  1  0
  2  3  1  0
  3  4  1  0
  4  5  1  0
  5  6  1  0
  6  7  1  0
  7  8  1  0
  7  9  1  0
  2 10  1  0
 10 11  1  0
 11 12  1  0
 12 13  1  0
 13 14  1  1
 13 15  1  0
 15 16  1  0
 16 17  1  0
 17 18  2  0
 18 19  1  0
 19 20  1  0
 20 21  1  0
 21 22  1  0
 22 23  1  0
 22 24  1  0
 24 25  1  0
 24 26  1  0
 19 27  1  0
 27 28  1  6
 27 29  1  0
 29 30  1  0
 30 31  1  0
 31 32  1  6
  7  5  1  0
 31 10  1  0
 31 13  1  0
 27 15  1  0
 24 18  1  0
  1 33  1  0
  1 34  1  0
  1 35  1  0
  2 36  1  1
  3 37  1  0
  3 38  1  0
  4 39  1  0
  4 40  1  0
  5 41  1  1
  8 42  1  0
  8 43  1  0
  8 44  1  0
  9 45  1  0
  9 46  1  0
  9 47  1  0
 10 48  1  1
 11 49  1  0
 11 50  1  0
 12 51  1  0
 12 52  1  0
 14 53  1  0
 14 54  1  0
 14 55  1  0
 15 56  1  6
 16 57  1  0
 16 58  1  0
 17 59  1  0
 19 60  1  1
 20 61  1  0
 20 62  1  0
 21 63  1  0
 21 64  1  0
 22 65  1  1
 23 66  1  0
 25 67  1  0
 25 68  1  0
 25 69  1  0
 26 70  1  0
 26 71  1  0
 26 72  1  0
 28 73  1  0
 28 74  1  0
 28 75  1  0
 29 76  1  0
 29 77  1  0
 30 78  1  0
 30 79  1  0
 32 80  1  0
 32 81  1  0
 32 82  1  0
M  END
>  <meeko>  (4) 
{"is_sidechain": [false], "intermolecular_energy": 2.731, "internal_energy": -0.839}

$$$$
EPH_relaxed_0001_pdb2pqr_Repair_278_r2_0001_out
     RDKit          3D

 82 86  0  0  0  0  0  0  0  0999 V2000
    3.8490   17.4890    0.4870 C   0  0  0  0  0  0  0  0  0  0  0  0
    2.8210   17.8080   -0.6020 C   0  0  2  0  0  0  0  0  0  0  0  0
    2.1850   19.1990   -0.4110 C   0  0  0  0  0  0  0  0  0  0  0  0
    1.2090   19.2730    0.7670 C   0  0  0  0  0  0  0  0  0  0  0  0
   -0.0570   19.9840    0.3950 C   0  0  2  0  0  0  0  0  0  0  0  0
   -0.9670   20.1940    1.4820 O   0  0  0  0  0  0  0  0  0  0  0  0
   -1.4250   19.3300    0.4300 C   0  0  0  0  0  0  0  0  0  0  0  0
   -1.5970   17.9030    0.8460 C   0  0  0  0  0  0  0  0  0  0  0  0
   -2.5220   19.9200   -0.4010 C   0  0  0  0  0  0  0  0  0  0  0  0
    1.7360   16.7370   -0.6230 C   0  0  1  0  0  0  0  0  0  0  0  0
    0.3910   17.2610   -1.1930 C   0  0  0  0  0  0  0  0  0  0  0  0
   -0.2560   16.0830   -1.9660 C   0  0  0  0  0  0  0  0  0  0  0  0
    0.5630   14.8420   -1.5430 C   0  0  1  0  0  0  0  0  0  0  0  0
   -0.0290   14.4230   -0.1600 C   0  0  0  0  0  0  0  0  0  0  0  0
    0.5770   13.6460   -2.5500 C   0  0  2  0  0  0  0  0  0  0  0  0
   -0.7960   13.0070   -2.8220 C   0  0  0  0  0  0  0  0  0  0  0  0
   -1.1630   11.8760   -1.9190 C   0  0  0  0  0  0  0  0  0  0  0  0
   -0.3120   11.2070   -1.1190 C   0  0  0  0  0  0  0  0  0  0  0  0
    1.1920   11.5070   -1.1420 C   0  0  1  0  0  0  0  0  0  0  0  0
    1.9850   10.1740   -1.1960 C   0  0  0  0  0  0  0  0  0  0  0  0
    1.5980    9.2170   -0.0730 C   0  0  0  0  0  0  0  0  0  0  0  0
    0.1060    8.8970   -0.1190 C   0  0  2  0  0  0  0  0  0  0  0  0
   -0.1680    8.1480   -1.3070 O   0  0  0  0  0  0  0  0  0  0  0  0
   -0.7940   10.1640   -0.0800 C   0  0  0  0  0  0  0  0  0  0  0  0
   -0.7230   10.8100    1.3260 C   0  0  0  0  0  0  0  0  0  0  0  0
   -2.2660    9.7100   -0.2750 C   0  0  0  0  0  0  0  0  0  0  0  0
    1.6740   12.5490   -2.2400 C   0  0  1  0  0  0  0  0  0  0  0  0
    1.9600   11.8130   -3.5840 C   0  0  0  0  0  0  0  0  0  0  0  0
    3.0410   13.1830   -1.7820 C   0  0  0  0  0  0  0  0  0  0  0  0
    2.9610   14.4330   -0.8850 C   0  0  0  0  0  0  0  0  0  0  0  0
    2.0020   15.4720   -1.4760 C   0  0  2  0  0  0  0  0  0  0  0  0
    2.5830   15.9280   -2.8570 C   0  0  0  0  0  0  0  0  0  0  0  0
    3.3907   17.6312    1.4768 H   0  0  0  0  0  0  0  0  0  0  0  0
    4.1812   16.4455    0.3833 H   0  0  0  0  0  0  0  0  0  0  0  0
    4.7136   18.1611    0.3833 H   0  0  0  0  0  0  0  0  0  0  0  0
    3.3521   17.8178   -1.5653 H   0  0  0  0  0  0  0  0  0  0  0  0
    2.9904   19.9288   -0.2412 H   0  0  0  0  0  0  0  0  0  0  0  0
    1.6072   19.4161   -1.3215 H   0  0  0  0  0  0  0  0  0  0  0  0
    0.9620   18.2509    1.0899 H   0  0  0  0  0  0  0  0  0  0  0  0
    1.6930   19.8368    1.5781 H   0  0  0  0  0  0  0  0  0  0  0  0
    0.4666   20.5580   -0.3837 H   0  0  0  0  0  0  0  0  0  0  0  0
   -1.6046   17.8396    1.9441 H   0  0  0  0  0  0  0  0  0  0  0  0
   -2.5481   17.5177    0.4498 H   0  0  0  0  0  0  0  0  0  0  0  0
   -0.7647   17.3027    0.4498 H   0  0  0  0  0  0  0  0  0  0  0  0
   -3.2975   20.3371    0.2582 H   0  0  0  0  0  0  0  0  0  0  0  0
   -2.1118   20.7192   -1.0359 H   0  0  0  0  0  0  0  0  0  0  0  0
   -2.9626   19.1372   -1.0359 H   0  0  0  0  0  0  0  0  0  0  0  0
    1.7163   16.4734    0.4448 H   0  0  0  0  0  0  0  0  0  0  0  0
   -0.2678   17.5836   -0.3733 H   0  0  0  0  0  0  0  0  0  0  0  0
    0.5519   18.1259   -1.8533 H   0  0  0  0  0  0  0  0  0  0  0  0
   -1.3124   15.9661   -1.6825 H   0  0  0  0  0  0  0  0  0  0  0  0
   -0.2420   16.2407   -3.0545 H   0  0  0  0  0  0  0  0  0  0  0  0
    0.5817   14.8552    0.6464 H   0  0  0  0  0  0  0  0  0  0  0  0
   -1.0617   14.7924   -0.0761 H   0  0  0  0  0  0  0  0  0  0  0  0
   -0.0240   13.3262   -0.0761 H   0  0  0  0  0  0  0  0  0  0  0  0
    0.8719   14.1337   -3.4908 H   0  0  0  0  0  0  0  0  0  0  0  0
   -1.5621   13.7892   -2.7157 H   0  0  0  0  0  0  0  0  0  0  0  0
   -0.7385   12.5816   -3.8348 H   0  0  0  0  0  0  0  0  0  0  0  0
   -2.2175   11.5632   -1.9065 H   0  0  0  0  0  0  0  0  0  0  0  0
    1.4118   12.0341   -0.2018 H   0  0  0  0  0  0  0  0  0  0  0  0
    1.7862    9.6843   -2.1607 H   0  0  0  0  0  0  0  0  0  0  0  0
    3.0516   10.4150   -1.0764 H   0  0  0  0  0  0  0  0  0  0  0  0
    2.1699    8.2837   -0.1822 H   0  0  0  0  0  0  0  0  0  0  0  0
    1.8248    9.6964    0.8907 H   0  0  0  0  0  0  0  0  0  0  0  0
   -0.1346    8.3142    0.7823 H   0  0  0  0  0  0  0  0  0  0  0  0
   -0.0100    8.7340   -2.0670 H   0  0  0  0  0  0  0  0  0  0  0  0
   -0.8090   10.0272    2.0940 H   0  0  0  0  0  0  0  0  0  0  0  0
    0.2380   11.3327    1.4413 H   0  0  0  0  0  0  0  0  0  0  0  0
   -1.5475   11.5289    1.4413 H   0  0  0  0  0  0  0  0  0  0  0  0
   -2.7381    9.5644    0.7078 H   0  0  0  0  0  0  0  0  0  0  0  0
   -2.8161   10.4802   -0.8355 H   0  0  0  0  0  0  0  0  0  0  0  0
   -2.2867    8.7637   -0.8355 H   0  0  0  0  0  0  0  0  0  0  0  0
    2.3511   10.8064   -3.3748 H   0  0  0  0  0  0  0  0  0  0  0  0
    1.0282   11.7313   -4.1628 H   0  0  0  0  0  0  0  0  0  0  0  0
    2.7025   12.3819   -4.1628 H   0  0  0  0  0  0  0  0  0  0  0  0
    3.5969   12.4116   -1.2290 H   0  0  0  0  0  0  0  0  0  0  0  0
    3.5249   13.5244   -2.7090 H   0  0  0  0  0  0  0  0  0  0  0  0
    2.6019   14.1380    0.1120 H   0  0  0  0  0  0  0  0  0  0  0  0
    3.9637   14.8802   -0.8165 H   0  0  0  0  0  0  0  0  0  0  0  0
    3.4384   16.5994   -2.6912 H   0  0  0  0  0  0  0  0  0  0  0  0
    2.9138   15.0459   -3.4249 H   0  0  0  0  0  0  0  0  0  0  0  0
    1.8048   16.4590   -3.4249 H   0  0  0  0  0  0  0  0  0  0  0  0
  1  2  1  0
  2  3  1  0
  3  4  1  0
  4  5  1  0
  5  6  1  0
  6  7  1  0
  7  8  1  0
  7  9  1  0
  2 10  1  0
 10 11  1  0
 11 12  1  0
 12 13  1  0
 13 14  1  1
 13 15  1  0
 15 16  1  0
 16 17  1  0
 17 18  2  0
 18 19  1  0
 19 20  1  0
 20 21  1  0
 21 22  1  0
 22 23  1  0
 22 24  1  0
 24 25  1  0
 24 26  1  0
 19 27  1  0
 27 28  1  6
 27 29  1  0
 29 30  1  0
 30 31  1  0
 31 32  1  6
  7  5  1  0
 31 10  1  0
 31 13  1  0
 27 15  1  0
 24 18  1  0
  1 33  1  0
  1 34  1  0
  1 35  1  0
  2 36  1  6
  3 37  1  0
  3 38  1  0
  4 39  1  0
  4 40  1  0
  5 41  1  6
  8 42  1  0
  8 43  1  0
  8 44  1  0
  9 45  1  0
  9 46  1  0
  9 47  1  0
 10 48  1  1
 11 49  1  0
 11 50  1  0
 12 51  1  0
 12 52  1  0
 14 53  1  0
 14 54  1  0
 14 55  1  0
 15 56  1  6
 16 57  1  0
 16 58  1  0
 17 59  1  0
 19 60  1  1
 20 61  1  0
 20 62  1  0
 21 63  1  0
 21 64  1  0
 22 65  1  1
 23 66  1  0
 25 67  1  0
 25 68  1  0
 25 69  1  0
 26 70  1  0
 26 71  1  0
 26 72  1  0
 28 73  1  0
 28 74  1  0
 28 75  1  0
 29 76  1  0
 29 77  1  0
 30 78  1  0
 30 79  1  0
 32 80  1  0
 32 81  1  0
 32 82  1  0
M  END
>  <meeko>  (5) 
{"is_sidechain": [false], "intermolecular_energy": 2.731, "internal_energy": -0.839}

$$$$
EPH_relaxed_0001_pdb2pqr_Repair_278_r2_0001_out
     RDKit          3D

 82 86  0  0  0  0  0  0  0  0999 V2000
   -5.2300    5.7670   -1.4930 C   0  0  0  0  0  0  0  0  0  0  0  0
   -5.4500    7.2600   -1.7480 C   0  0  2  0  0  0  0  0  0  0  0  0
   -5.1670    8.1120   -0.4940 C   0  0  0  0  0  0  0  0  0  0  0  0
   -4.1840    9.2600   -0.7380 C   0  0  0  0  0  0  0  0  0  0  0  0
   -2.7800    8.8710   -0.3860 C   0  0  2  0  0  0  0  0  0  0  0  0
   -2.2030    9.6230    0.6890 O   0  0  0  0  0  0  0  0  0  0  0  0
   -1.5830    9.7790   -0.5980 C   0  0  0  0  0  0  0  0  0  0  0  0
   -1.7350   11.1470   -1.1850 C   0  0  0  0  0  0  0  0  0  0  0  0
   -0.2230    9.1600   -0.6910 C   0  0  0  0  0  0  0  0  0  0  0  0
   -6.8760    7.5010   -2.2300 C   0  0  1  0  0  0  0  0  0  0  0  0
   -7.1730    6.8090   -3.5880 C   0  0  0  0  0  0  0  0  0  0  0  0
   -8.6530    6.3500   -3.5420 C   0  0  0  0  0  0  0  0  0  0  0  0
   -9.2480    7.0760   -2.3130 C   0  0  1  0  0  0  0  0  0  0  0  0
   -9.5790    8.5150   -2.8180 C   0  0  0  0  0  0  0  0  0  0  0  0
  -10.4900    6.3990   -1.6450 C   0  0  2  0  0  0  0  0  0  0  0  0
  -11.7330    6.2860   -2.5440 C   0  0  0  0  0  0  0  0  0  0  0  0
  -12.6780    7.4400   -2.4740 C   0  0  0  0  0  0  0  0  0  0  0  0
  -12.6850    8.3880   -1.5190 C   0  0  0  0  0  0  0  0  0  0  0  0
  -11.7360    8.3010   -0.3160 C   0  0  1  0  0  0  0  0  0  0  0  0
  -12.5260    8.5860    0.9880 C   0  0  0  0  0  0  0  0  0  0  0  0
  -13.2830    9.9100    0.9360 C   0  0  0  0  0  0  0  0  0  0  0  0
  -14.2580    9.9360   -0.2380 C   0  0  2  0  0  0  0  0  0  0  0  0
  -15.2870    8.9700   -0.0040 O   0  0  0  0  0  0  0  0  0  0  0  0
  -13.5760    9.6510   -1.6060 C   0  0  0  0  0  0  0  0  0  0  0  0
  -12.6810   10.8520   -2.0010 C   0  0  0  0  0  0  0  0  0  0  0  0
  -14.6890    9.5660   -2.6850 C   0  0  0  0  0  0  0  0  0  0  0  0
  -10.8570    6.9810   -0.2200 C   0  0  1  0  0  0  0  0  0  0  0  0
  -11.6520    5.8650    0.5250 C   0  0  0  0  0  0  0  0  0  0  0  0
   -9.5810    7.2750    0.6530 C   0  0  0  0  0  0  0  0  0  0  0  0
   -8.3470    7.8310   -0.0840 C   0  0  0  0  0  0  0  0  0  0  0  0
   -8.0270    6.9930   -1.3260 C   0  0  2  0  0  0  0  0  0  0  0  0
   -7.6690    5.5450   -0.8470 C   0  0  0  0  0  0  0  0  0  0  0  0
   -5.2025    5.5803   -0.4093 H   0  0  0  0  0  0  0  0  0  0  0  0
   -6.0532    5.1929   -1.9432 H   0  0  0  0  0  0  0  0  0  0  0  0
   -4.2761    5.4548   -1.9432 H   0  0  0  0  0  0  0  0  0  0  0  0
   -4.7370    7.5706   -2.5259 H   0  0  0  0  0  0  0  0  0  0  0  0
   -6.1180    8.5382   -0.1420 H   0  0  0  0  0  0  0  0  0  0  0  0
   -4.7046    7.4458    0.2492 H   0  0  0  0  0  0  0  0  0  0  0  0
   -4.2204    9.5408   -1.8009 H   0  0  0  0  0  0  0  0  0  0  0  0
   -4.4770   10.1047   -0.0972 H   0  0  0  0  0  0  0  0  0  0  0  0
   -2.9726    7.8258   -0.6698 H   0  0  0  0  0  0  0  0  0  0  0  0
   -1.8172   11.8866   -0.3749 H   0  0  0  0  0  0  0  0  0  0  0  0
   -0.8571   11.3792   -1.8058 H   0  0  0  0  0  0  0  0  0  0  0  0
   -2.6424   11.1809   -1.8058 H   0  0  0  0  0  0  0  0  0  0  0  0
    0.1687    8.9817    0.3213 H   0  0  0  0  0  0  0  0  0  0  0  0
   -0.2913    8.2043   -1.2313 H   0  0  0  0  0  0  0  0  0  0  0  0
    0.4528    9.8392   -1.2313 H   0  0  0  0  0  0  0  0  0  0  0  0
   -6.8774    8.6006   -2.2597 H   0  0  0  0  0  0  0  0  0  0  0  0
   -7.0218    7.5179   -4.4154 H   0  0  0  0  0  0  0  0  0  0  0  0
   -6.4995    5.9548   -3.7516 H   0  0  0  0  0  0  0  0  0  0  0  0
   -9.1802    6.6461   -4.4609 H   0  0  0  0  0  0  0  0  0  0  0  0
   -8.7488    5.2567   -3.4677 H   0  0  0  0  0  0  0  0  0  0  0  0
   -9.7320    9.1802   -1.9554 H   0  0  0  0  0  0  0  0  0  0  0  0
   -8.7439    8.8909   -3.4273 H   0  0  0  0  0  0  0  0  0  0  0  0
  -10.4944    8.4882   -3.4273 H   0  0  0  0  0  0  0  0  0  0  0  0
  -10.1410    5.3678   -1.4876 H   0  0  0  0  0  0  0  0  0  0  0  0
  -11.3917    6.1889   -3.5852 H   0  0  0  0  0  0  0  0  0  0  0  0
  -12.2929    5.4118   -2.1805 H   0  0  0  0  0  0  0  0  0  0  0  0
  -13.4322    7.5221   -3.2705 H   0  0  0  0  0  0  0  0  0  0  0  0
  -10.9766    9.0815   -0.4711 H   0  0  0  0  0  0  0  0  0  0  0  0
  -13.2490    7.7724    1.1472 H   0  0  0  0  0  0  0  0  0  0  0  0
  -11.7995    8.6489    1.8116 H   0  0  0  0  0  0  0  0  0  0  0  0
  -13.8443   10.0406    1.8729 H   0  0  0  0  0  0  0  0  0  0  0  0
  -12.5557   10.7250    0.8061 H   0  0  0  0  0  0  0  0  0  0  0  0
  -14.6738   10.9525   -0.2995 H   0  0  0  0  0  0  0  0  0  0  0  0
  -14.8560    8.1280    0.2190 H   0  0  0  0  0  0  0  0  0  0  0  0
  -12.3111   11.3483   -1.0917 H   0  0  0  0  0  0  0  0  0  0  0  0
  -11.8280   10.4936   -2.5959 H   0  0  0  0  0  0  0  0  0  0  0  0
  -13.2683   11.5669   -2.5959 H   0  0  0  0  0  0  0  0  0  0  0  0
  -15.6706    9.4910   -2.1942 H   0  0  0  0  0  0  0  0  0  0  0  0
  -14.6609   10.4689   -3.3127 H   0  0  0  0  0  0  0  0  0  0  0  0
  -14.5241    8.6778   -3.3127 H   0  0  0  0  0  0  0  0  0  0  0  0
  -11.5515    6.0061    1.6113 H   0  0  0  0  0  0  0  0  0  0  0  0
  -12.7141    5.9220    0.2446 H   0  0  0  0  0  0  0  0  0  0  0  0
  -11.2511    4.8798    0.2446 H   0  0  0  0  0  0  0  0  0  0  0  0
   -9.8662    8.0068    1.4231 H   0  0  0  0  0  0  0  0  0  0  0  0
   -9.2665    6.2952    1.0416 H   0  0  0  0  0  0  0  0  0  0  0  0
   -8.5482    8.8678   -0.3914 H   0  0  0  0  0  0  0  0  0  0  0  0
   -7.4843    7.7922    0.5974 H   0  0  0  0  0  0  0  0  0  0  0  0
   -7.6613    5.5139    0.2525 H   0  0  0  0  0  0  0  0  0  0  0  0
   -8.4190    4.8366   -1.2286 H   0  0  0  0  0  0  0  0  0  0  0  0
   -6.6753    5.2677   -1.2286 H   0  0  0  0  0  0  0  0  0  0  0  0
  1  2  1  0
  2  3  1  0
  3  4  1  0
  4  5  1  0
  5  6  1  0
  6  7  1  0
  7  8  1  0
  7  9  1  0
  2 10  1  0
 10 11  1  0
 11 12  1  0
 12 13  1  0
 13 14  1  6
 13 15  1  0
 15 16  1  0
 16 17  1  0
 17 18  2  0
 18 19  1  0
 19 20  1  0
 20 21  1  0
 21 22  1  0
 22 23  1  0
 22 24  1  0
 24 25  1  0
 24 26  1  0
 19 27  1  0
 27 28  1  1
 27 29  1  0
 29 30  1  0
 30 31  1  0
 31 32  1  1
  7  5  1  0
 31 10  1  0
 31 13  1  0
 27 15  1  0
 24 18  1  0
  1 33  1  0
  1 34  1  0
  1 35  1  0
  2 36  1  6
  3 37  1  0
  3 38  1  0
  4 39  1  0
  4 40  1  0
  5 41  1  1
  8 42  1  0
  8 43  1  0
  8 44  1  0
  9 45  1  0
  9 46  1  0
  9 47  1  0
 10 48  1  6
 11 49  1  0
 11 50  1  0
 12 51  1  0
 12 52  1  0
 14 53  1  0
 14 54  1  0
 14 55  1  0
 15 56  1  1
 16 57  1  0
 16 58  1  0
 17 59  1  0
 19 60  1  6
 20 61  1  0
 20 62  1  0
 21 63  1  0
 21 64  1  0
 22 65  1  6
 23 66  1  0
 25 67  1  0
 25 68  1  0
 25 69  1  0
 26 70  1  0
 26 71  1  0
 26 72  1  0
 28 73  1  0
 28 74  1  0
 28 75  1  0
 29 76  1  0
 29 77  1  0
 30 78  1  0
 30 79  1  0
 32 80  1  0
 32 81  1  0
 32 82  1  0
M  END
>  <meeko>  (6) 
{"is_sidechain": [false], "intermolecular_energy": 2.731, "internal_energy": -0.839}

$$$$
EPH_relaxed_0001_pdb2pqr_Repair_278_r2_0001_out
     RDKit          3D

 82 86  0  0  0  0  0  0  0  0999 V2000
    0.3670    8.9050   -2.5790 C   0  0  0  0  0  0  0  0  0  0  0  0
    1.1420   10.0650   -3.2100 C   0  0  2  0  0  0  0  0  0  0  0  0
    2.6330   10.0480   -2.8190 C   0  0  0  0  0  0  0  0  0  0  0  0
    3.5570   10.6330   -3.8910 C   0  0  0  0  0  0  0  0  0  0  0  0
    4.9450   10.8470   -3.3690 C   0  0  2  0  0  0  0  0  0  0  0  0
    5.5750   12.0530   -3.8220 O   0  0  0  0  0  0  0  0  0  0  0  0
    6.1830   10.8220   -4.2470 C   0  0  0  0  0  0  0  0  0  0  0  0
    6.0890   10.5740   -5.7200 C   0  0  0  0  0  0  0  0  0  0  0  0
    7.5080   10.5510   -3.6070 C   0  0  0  0  0  0  0  0  0  0  0  0
    0.5120   11.3930   -2.8040 C   0  0  1  0  0  0  0  0  0  0  0  0
   -0.8640   11.2130   -2.1100 C   0  0  0  0  0  0  0  0  0  0  0  0
   -0.9700   12.3240   -1.0330 C   0  0  0  0  0  0  0  0  0  0  0  0
    0.1840   13.2990   -1.3630 C   0  0  1  0  0  0  0  0  0  0  0  0
   -0.3630   14.1920   -2.5200 C   0  0  0  0  0  0  0  0  0  0  0  0
    0.7230   14.1590   -0.1750 C   0  0  2  0  0  0  0  0  0  0  0  0
   -0.3000   15.1260    0.4480 C   0  0  0  0  0  0  0  0  0  0  0  0
   -0.3370   16.4900   -0.1560 C   0  0  0  0  0  0  0  0  0  0  0  0
    0.6060   17.0160   -0.9600 C   0  0  0  0  0  0  0  0  0  0  0  0
    1.9020   16.2510   -1.2590 C   0  0  1  0  0  0  0  0  0  0  0  0
    3.1140   17.2070   -1.1060 C   0  0  0  0  0  0  0  0  0  0  0  0
    2.9740   18.4700   -1.9500 C   0  0  0  0  0  0  0  0  0  0  0  0
    1.7040   19.2330   -1.5830 C   0  0  2  0  0  0  0  0  0  0  0  0
    1.8370   19.7340   -0.2500 O   0  0  0  0  0  0  0  0  0  0  0  0
    0.4170   18.3680   -1.6910 C   0  0  0  0  0  0  0  0  0  0  0  0
    0.1090   18.0770   -3.1800 C   0  0  0  0  0  0  0  0  0  0  0  0
   -0.7720   19.2130   -1.1590 C   0  0  0  0  0  0  0  0  0  0  0  0
    2.0980   14.8850   -0.4710 C   0  0  1  0  0  0  0  0  0  0  0  0
    2.7640   15.1590    0.9120 C   0  0  0  0  0  0  0  0  0  0  0  0
    3.0980   13.9690   -1.2710 C   0  0  0  0  0  0  0  0  0  0  0  0
    2.4900   13.0540   -2.3510 C   0  0  0  0  0  0  0  0  0  0  0  0
    1.2940   12.2730   -1.7970 C   0  0  2  0  0  0  0  0  0  0  0  0
    1.8180   11.3480   -0.6460 C   0  0  0  0  0  0  0  0  0  0  0  0
    0.4188    8.9826   -1.4830 H   0  0  0  0  0  0  0  0  0  0  0  0
   -0.6841    8.9485   -2.9004 H   0  0  0  0  0  0  0  0  0  0  0  0
    0.8095    7.9506   -2.9004 H   0  0  0  0  0  0  0  0  0  0  0  0
    1.0858    9.9452   -4.3020 H   0  0  0  0  0  0  0  0  0  0  0  0
    2.7568   10.6340   -1.8963 H   0  0  0  0  0  0  0  0  0  0  0  0
    2.9191    8.9940   -2.6882 H   0  0  0  0  0  0  0  0  0  0  0  0
    3.5996    9.9383   -4.7428 H   0  0  0  0  0  0  0  0  0  0  0  0
    3.1518   11.6085   -4.1980 H   0  0  0  0  0  0  0  0  0  0  0  0
    4.6967   10.3316   -2.4295 H   0  0  0  0  0  0  0  0  0  0  0  0
    5.7042    9.5588   -5.8971 H   0  0  0  0  0  0  0  0  0  0  0  0
    5.4070   11.3088   -6.1728 H   0  0  0  0  0  0  0  0  0  0  0  0
    7.0867   10.6721   -6.1728 H   0  0  0  0  0  0  0  0  0  0  0  0
    7.3981   10.5735   -2.5127 H   0  0  0  0  0  0  0  0  0  0  0  0
    7.8700    9.5602   -3.9189 H   0  0  0  0  0  0  0  0  0  0  0  0
    8.2300   11.3201   -3.9189 H   0  0  0  0  0  0  0  0  0  0  0  0
    0.4753   11.8878   -3.7857 H   0  0  0  0  0  0  0  0  0  0  0  0
   -1.6757   11.3189   -2.8448 H   0  0  0  0  0  0  0  0  0  0  0  0
   -0.9507   10.2142   -1.6573 H   0  0  0  0  0  0  0  0  0  0  0  0
   -1.9414   12.8360   -1.0977 H   0  0  0  0  0  0  0  0  0  0  0  0
   -0.8976   11.9227   -0.0114 H   0  0  0  0  0  0  0  0  0  0  0  0
   -0.8932   15.0575   -2.0959 H   0  0  0  0  0  0  0  0  0  0  0  0
    0.4752   14.5431   -3.1398 H   0  0  0  0  0  0  0  0  0  0  0  0
   -1.0566   13.6048   -3.1398 H   0  0  0  0  0  0  0  0  0  0  0  0
    0.9226   13.3985    0.5943 H   0  0  0  0  0  0  0  0  0  0  0  0
   -1.2994   14.6793    0.3403 H   0  0  0  0  0  0  0  0  0  0  0  0
    0.0100   15.2646    1.4943 H   0  0  0  0  0  0  0  0  0  0  0  0
   -1.2090   17.1193    0.0754 H   0  0  0  0  0  0  0  0  0  0  0  0
    1.8226   15.9134   -2.3029 H   0  0  0  0  0  0  0  0  0  0  0  0
    3.2025   17.4976   -0.0488 H   0  0  0  0  0  0  0  0  0  0  0  0
    4.0084   16.6701   -1.4549 H   0  0  0  0  0  0  0  0  0  0  0  0
    3.8460   19.1176   -1.7763 H   0  0  0  0  0  0  0  0  0  0  0  0
    2.9156   18.1798   -3.0094 H   0  0  0  0  0  0  0  0  0  0  0  0
    1.5911   20.0540   -2.3063 H   0  0  0  0  0  0  0  0  0  0  0  0
    1.0870   19.3950    0.2680 H   0  0  0  0  0  0  0  0  0  0  0  0
   -0.6890   17.3230   -3.2488 H   0  0  0  0  0  0  0  0  0  0  0  0
   -0.2182   19.0034   -3.6746 H   0  0  0  0  0  0  0  0  0  0  0  0
    1.0154   17.6978   -3.6746 H   0  0  0  0  0  0  0  0  0  0  0  0
   -0.7631   19.2067   -0.0591 H   0  0  0  0  0  0  0  0  0  0  0  0
   -0.6773   20.2476   -1.5205 H   0  0  0  0  0  0  0  0  0  0  0  0
   -1.7179   18.7834   -1.5205 H   0  0  0  0  0  0  0  0  0  0  0  0
    2.0699   14.8735    1.7162 H   0  0  0  0  0  0  0  0  0  0  0  0
    3.6877   14.5678    0.9977 H   0  0  0  0  0  0  0  0  0  0  0  0
    3.0042   16.2290    0.9977 H   0  0  0  0  0  0  0  0  0  0  0  0
    3.8289   14.6263   -1.7647 H   0  0  0  0  0  0  0  0  0  0  0  0
    3.5244   13.2857   -0.5218 H   0  0  0  0  0  0  0  0  0  0  0  0
    2.1560   13.6704   -3.1987 H   0  0  0  0  0  0  0  0  0  0  0  0
    3.2577   12.3365   -2.6761 H   0  0  0  0  0  0  0  0  0  0  0  0
    1.5651   11.7944    0.3270 H   0  0  0  0  0  0  0  0  0  0  0  0
    1.3469   10.3574   -0.7285 H   0  0  0  0  0  0  0  0  0  0  0  0
    2.9098   11.2428   -0.7285 H   0  0  0  0  0  0  0  0  0  0  0  0
  1  2  1  0
  2  3  1  0
  3  4  1  0
  4  5  1  0
  5  6  1  0
  6  7  1  0
  7  8  1  0
  7  9  1  0
  2 10  1  0
 10 11  1  0
 11 12  1  0
 12 13  1  0
 13 14  1  6
 13 15  1  0
 15 16  1  0
 16 17  1  0
 17 18  2  0
 18 19  1  0
 19 20  1  0
 20 21  1  0
 21 22  1  0
 22 23  1  0
 22 24  1  0
 24 25  1  0
 24 26  1  0
 19 27  1  0
 27 28  1  1
 27 29  1  0
 29 30  1  0
 30 31  1  0
 31 32  1  1
  7  5  1  0
 31 10  1  0
 31 13  1  0
 27 15  1  0
 24 18  1  0
  1 33  1  0
  1 34  1  0
  1 35  1  0
  2 36  1  6
  3 37  1  0
  3 38  1  0
  4 39  1  0
  4 40  1  0
  5 41  1  1
  8 42  1  0
  8 43  1  0
  8 44  1  0
  9 45  1  0
  9 46  1  0
  9 47  1  0
 10 48  1  6
 11 49  1  0
 11 50  1  0
 12 51  1  0
 12 52  1  0
 14 53  1  0
 14 54  1  0
 14 55  1  0
 15 56  1  1
 16 57  1  0
 16 58  1  0
 17 59  1  0
 19 60  1  6
 20 61  1  0
 20 62  1  0
 21 63  1  0
 21 64  1  0
 22 65  1  6
 23 66  1  0
 25 67  1  0
 25 68  1  0
 25 69  1  0
 26 70  1  0
 26 71  1  0
 26 72  1  0
 28 73  1  0
 28 74  1  0
 28 75  1  0
 29 76  1  0
 29 77  1  0
 30 78  1  0
 30 79  1  0
 32 80  1  0
 32 81  1  0
 32 82  1  0
M  END
>  <meeko>  (7) 
{"is_sidechain": [false], "intermolecular_energy": 2.731, "internal_energy": -0.839}

$$$$
EPH_relaxed_0001_pdb2pqr_Repair_278_r2_0001_out
     RDKit          3D

 82 86  0  0  0  0  0  0  0  0999 V2000
   -0.0480   10.2940   -3.2410 C   0  0  0  0  0  0  0  0  0  0  0  0
    1.0030   10.1400   -2.1380 C   0  0  2  0  0  0  0  0  0  0  0  0
    0.7030    8.9430   -1.2140 C   0  0  0  0  0  0  0  0  0  0  0  0
   -0.1550    9.3030    0.0020 C   0  0  0  0  0  0  0  0  0  0  0  0
   -1.5590    8.7990   -0.1410 C   0  0  2  0  0  0  0  0  0  0  0  0
   -2.0560    8.7830   -1.4860 O   0  0  0  0  0  0  0  0  0  0  0  0
   -2.7220    9.6720   -0.5740 C   0  0  0  0  0  0  0  0  0  0  0  0
   -2.5330   11.1230   -0.8910 C   0  0  0  0  0  0  0  0  0  0  0  0
   -4.1110    9.2420   -0.2200 C   0  0  0  0  0  0  0  0  0  0  0  0
    1.0870   11.4220   -1.3180 C   0  0  1  0  0  0  0  0  0  0  0  0
    2.1590   11.3460   -0.1990 C   0  0  0  0  0  0  0  0  0  0  0  0
    2.7710   12.7640   -0.0680 C   0  0  0  0  0  0  0  0  0  0  0  0
    1.8140   13.6770   -0.8700 C   0  0  1  0  0  0  0  0  0  0  0  0
    0.6250   13.9630    0.1000 C   0  0  0  0  0  0  0  0  0  0  0  0
    2.4310   14.9990   -1.4330 C   0  0  2  0  0  0  0  0  0  0  0  0
    2.9440   15.9850   -0.3690 C   0  0  0  0  0  0  0  0  0  0  0  0
    1.9450   16.9850    0.1080 C   0  0  0  0  0  0  0  0  0  0  0  0
    0.7780   17.2750   -0.4970 C   0  0  0  0  0  0  0  0  0  0  0  0
    0.4080   16.6370   -1.8410 C   0  0  1  0  0  0  0  0  0  0  0  0
   -0.1260   17.7290   -2.8040 C   0  0  0  0  0  0  0  0  0  0  0  0
   -1.2770   18.5290   -2.2020 C   0  0  0  0  0  0  0  0  0  0  0  0
   -0.8520   19.1970   -0.8960 C   0  0  2  0  0  0  0  0  0  0  0  0
    0.1320   20.1930   -1.1870 O   0  0  0  0  0  0  0  0  0  0  0  0
   -0.2890   18.1940    0.1490 C   0  0  0  0  0  0  0  0  0  0  0  0
   -1.4350   17.3040    0.6880 C   0  0  0  0  0  0  0  0  0  0  0  0
    0.2320   19.0120    1.3620 C   0  0  0  0  0  0  0  0  0  0  0  0
    1.5280   15.7280   -2.5090 C   0  0  1  0  0  0  0  0  0  0  0  0
    2.4850   16.6100   -3.3690 C   0  0  0  0  0  0  0  0  0  0  0  0
    0.8450   14.7160   -3.5020 C   0  0  0  0  0  0  0  0  0  0  0  0
    0.3640   13.3780   -2.9090 C   0  0  0  0  0  0  0  0  0  0  0  0
    1.4660   12.7230   -2.0700 C   0  0  2  0  0  0  0  0  0  0  0  0
    2.6670   12.4030   -3.0240 C   0  0  0  0  0  0  0  0  0  0  0  0
   -1.0388   10.4392   -2.7857 H   0  0  0  0  0  0  0  0  0  0  0  0
    0.2001   11.1654   -3.8648 H   0  0  0  0  0  0  0  0  0  0  0  0
   -0.0603    9.3881   -3.8648 H   0  0  0  0  0  0  0  0  0  0  0  0
    1.9696    9.9466   -2.6262 H   0  0  0  0  0  0  0  0  0  0  0  0
    0.1722    8.1774   -1.7989 H   0  0  0  0  0  0  0  0  0  0  0  0
    1.6692    8.5835   -0.8302 H   0  0  0  0  0  0  0  0  0  0  0  0
    0.2946    8.8553    0.9006 H   0  0  0  0  0  0  0  0  0  0  0  0
   -0.1911   10.3994    0.0835 H   0  0  0  0  0  0  0  0  0  0  0  0
   -1.4257    8.1177    0.7123 H   0  0  0  0  0  0  0  0  0  0  0  0
   -2.4584   11.6961    0.0449 H   0  0  0  0  0  0  0  0  0  0  0  0
   -1.6103   11.2535   -1.4754 H   0  0  0  0  0  0  0  0  0  0  0  0
   -3.3915   11.4855   -1.4754 H   0  0  0  0  0  0  0  0  0  0  0  0
   -4.2170    9.2092    0.8744 H   0  0  0  0  0  0  0  0  0  0  0  0
   -4.8341    9.9583   -0.6371 H   0  0  0  0  0  0  0  0  0  0  0  0
   -4.3029    8.2424   -0.6371 H   0  0  0  0  0  0  0  0  0  0  0  0
    0.0481   11.4818   -0.9616 H   0  0  0  0  0  0  0  0  0  0  0  0
    1.6938   11.0451    0.7513 H   0  0  0  0  0  0  0  0  0  0  0  0
    2.9327   10.6033   -0.4434 H   0  0  0  0  0  0  0  0  0  0  0  0
    2.8107   13.0740    0.9867 H   0  0  0  0  0  0  0  0  0  0  0  0
    3.8038   12.8092   -0.4439 H   0  0  0  0  0  0  0  0  0  0  0  0
    0.9723   13.8795    1.1404 H   0  0  0  0  0  0  0  0  0  0  0  0
    0.2424   14.9788   -0.0784 H   0  0  0  0  0  0  0  0  0  0  0  0
   -0.1777   13.2323   -0.0784 H   0  0  0  0  0  0  0  0  0  0  0  0
    3.3261   14.6362   -1.9596 H   0  0  0  0  0  0  0  0  0  0  0  0
    3.2823   15.4015    0.5000 H   0  0  0  0  0  0  0  0  0  0  0  0
    3.7462   16.5628   -0.8514 H   0  0  0  0  0  0  0  0  0  0  0  0
    2.1821   17.5318    1.0326 H   0  0  0  0  0  0  0  0  0  0  0  0
   -0.3888   15.9106   -1.6231 H   0  0  0  0  0  0  0  0  0  0  0  0
    0.6957   18.4198   -3.0440 H   0  0  0  0  0  0  0  0  0  0  0  0
   -0.5061   17.2232   -3.7038 H   0  0  0  0  0  0  0  0  0  0  0  0
   -1.5901   19.3036   -2.9175 H   0  0  0  0  0  0  0  0  0  0  0  0
   -2.1097   17.8420   -1.9906 H   0  0  0  0  0  0  0  0  0  0  0  0
   -1.7500   19.6463   -0.4469 H   0  0  0  0  0  0  0  0  0  0  0  0
   -0.2760   21.0630   -1.0350 H   0  0  0  0  0  0  0  0  0  0  0  0
   -1.4212   17.3147    1.7879 H   0  0  0  0  0  0  0  0  0  0  0  0
   -2.4000   17.6918    0.3296 H   0  0  0  0  0  0  0  0  0  0  0  0
   -1.2982   16.2731    0.3296 H   0  0  0  0  0  0  0  0  0  0  0  0
   -0.0801   18.5219    2.2960 H   0  0  0  0  0  0  0  0  0  0  0  0
    1.3301   19.0642    1.3246 H   0  0  0  0  0  0  0  0  0  0  0  0
   -0.1850   20.0292    1.3246 H   0  0  0  0  0  0  0  0  0  0  0  0
    3.1304   17.2048   -2.7059 H   0  0  0  0  0  0  0  0  0  0  0  0
    3.1084   15.9631   -4.0038 H   0  0  0  0  0  0  0  0  0  0  0  0
    1.8911   17.2840   -4.0038 H   0  0  0  0  0  0  0  0  0  0  0  0
   -0.0294   15.2191   -3.9405 H   0  0  0  0  0  0  0  0  0  0  0  0
    1.6308   14.4453   -4.2226 H   0  0  0  0  0  0  0  0  0  0  0  0
   -0.5131   13.5616   -2.2710 H   0  0  0  0  0  0  0  0  0  0  0  0
    0.1033   12.7011   -3.7359 H   0  0  0  0  0  0  0  0  0  0  0  0
    3.5582   12.1655   -2.4246 H   0  0  0  0  0  0  0  0  0  0  0  0
    2.4117   11.5415   -3.6586 H   0  0  0  0  0  0  0  0  0  0  0  0
    2.8742   13.2773   -3.6586 H   0  0  0  0  0  0  0  0  0  0  0  0
  1  2  1  0
  2  3  1  0
  3  4  1  0
  4  5  1  0
  5  6  1  0
  6  7  1  0
  7  8  1  0
  7  9  1  0
  2 10  1  0
 10 11  1  0
 11 12  1  0
 12 13  1  0
 13 14  1  1
 13 15  1  0
 15 16  1  0
 16 17  1  0
 17 18  2  0
 18 19  1  0
 19 20  1  0
 20 21  1  0
 21 22  1  0
 22 23  1  0
 22 24  1  0
 24 25  1  0
 24 26  1  0
 19 27  1  0
 27 28  1  6
 27 29  1  0
 29 30  1  0
 30 31  1  0
 31 32  1  6
  7  5  1  0
 31 10  1  0
 31 13  1  0
 27 15  1  0
 24 18  1  0
  1 33  1  0
  1 34  1  0
  1 35  1  0
  2 36  1  6
  3 37  1  0
  3 38  1  0
  4 39  1  0
  4 40  1  0
  5 41  1  1
  8 42  1  0
  8 43  1  0
  8 44  1  0
  9 45  1  0
  9 46  1  0
  9 47  1  0
 10 48  1  1
 11 49  1  0
 11 50  1  0
 12 51  1  0
 12 52  1  0
 14 53  1  0
 14 54  1  0
 14 55  1  0
 15 56  1  6
 16 57  1  0
 16 58  1  0
 17 59  1  0
 19 60  1  1
 20 61  1  0
 20 62  1  0
 21 63  1  0
 21 64  1  0
 22 65  1  1
 23 66  1  0
 25 67  1  0
 25 68  1  0
 25 69  1  0
 26 70  1  0
 26 71  1  0
 26 72  1  0
 28 73  1  0
 28 74  1  0
 28 75  1  0
 29 76  1  0
 29 77  1  0
 30 78  1  0
 30 79  1  0
 32 80  1  0
 32 81  1  0
 32 82  1  0
M  END
>  <meeko>  (8) 
{"is_sidechain": [false], "intermolecular_energy": 2.731, "internal_energy": -0.839}

$$$$
EPH_relaxed_0001_pdb2pqr_Repair_278_r2_0001_out
     RDKit          3D

 82 86  0  0  0  0  0  0  0  0999 V2000
    3.3990   18.4940   -2.9670 C   0  0  0  0  0  0  0  0  0  0  0  0
    2.0900   17.7000   -2.9780 C   0  0  2  0  0  0  0  0  0  0  0  0
    0.9180   18.5030   -2.3780 C   0  0  0  0  0  0  0  0  0  0  0  0
    1.3440   19.8240   -1.7330 C   0  0  0  0  0  0  0  0  0  0  0  0
    1.5230   19.6860   -0.2520 C   0  0  2  0  0  0  0  0  0  0  0  0
    0.8480   18.5640    0.3310 O   0  0  0  0  0  0  0  0  0  0  0  0
    0.3960   19.8620    0.7480 C   0  0  0  0  0  0  0  0  0  0  0  0
   -0.9950   20.1940    0.3050 C   0  0  0  0  0  0  0  0  0  0  0  0
    0.7420   20.1940    2.1660 C   0  0  0  0  0  0  0  0  0  0  0  0
    2.2690   16.3920   -2.2150 C   0  0  1  0  0  0  0  0  0  0  0  0
    2.8280   16.6080   -0.7830 C   0  0  0  0  0  0  0  0  0  0  0  0
    2.1720   15.5310    0.1190 C   0  0  0  0  0  0  0  0  0  0  0  0
    1.5240   14.5350   -0.8710 C   0  0  1  0  0  0  0  0  0  0  0  0
    2.6940   13.6120   -1.3350 C   0  0  0  0  0  0  0  0  0  0  0  0
    0.3170   13.7040   -0.3240 C   0  0  2  0  0  0  0  0  0  0  0  0
    0.6480   12.7680    0.8510 C   0  0  0  0  0  0  0  0  0  0  0  0
    1.0630   11.3860    0.4690 C   0  0  0  0  0  0  0  0  0  0  0  0
    0.8950   10.8270   -0.7430 C   0  0  0  0  0  0  0  0  0  0  0  0
    0.1430   11.5680   -1.8560 C   0  0  1  0  0  0  0  0  0  0  0  0
   -0.8710   10.6040   -2.5260 C   0  0  0  0  0  0  0  0  0  0  0  0
   -0.2170    9.3180   -3.0210 C   0  0  0  0  0  0  0  0  0  0  0  0
    0.4710    8.5800   -1.8750 C   0  0  2  0  0  0  0  0  0  0  0  0
   -0.5270    8.1180   -0.9600 O   0  0  0  0  0  0  0  0  0  0  0  0
    1.5090    9.4550   -1.1190 C   0  0  0  0  0  0  0  0  0  0  0  0
    2.7390    9.7050   -2.0260 C   0  0  0  0  0  0  0  0  0  0  0  0
    2.0250    8.6390    0.0970 C   0  0  0  0  0  0  0  0  0  0  0  0
   -0.5140   12.9550   -1.4430 C   0  0  1  0  0  0  0  0  0  0  0  0
   -1.9380   12.7150   -0.8550 C   0  0  0  0  0  0  0  0  0  0  0  0
   -0.7090   13.8360   -2.7340 C   0  0  0  0  0  0  0  0  0  0  0  0
    0.4770   14.7240   -3.1550 C   0  0  0  0  0  0  0  0  0  0  0  0
    1.0030   15.5350   -1.9660 C   0  0  2  0  0  0  0  0  0  0  0  0
   -0.1460   16.4880   -1.4910 C   0  0  0  0  0  0  0  0  0  0  0  0
    3.7061   18.6803   -1.9273 H   0  0  0  0  0  0  0  0  0  0  0  0
    4.1815   17.9182   -3.4829 H   0  0  0  0  0  0  0  0  0  0  0  0
    3.2499   19.4540   -3.4829 H   0  0  0  0  0  0  0  0  0  0  0  0
    1.8412   17.4874   -4.0282 H   0  0  0  0  0  0  0  0  0  0  0  0
    0.2010   18.7245   -3.1823 H   0  0  0  0  0  0  0  0  0  0  0  0
    0.4780   17.8839   -1.5824 H   0  0  0  0  0  0  0  0  0  0  0  0
    2.2964   20.1472   -2.1785 H   0  0  0  0  0  0  0  0  0  0  0  0
    0.5517   20.5651   -1.9147 H   0  0  0  0  0  0  0  0  0  0  0  0
    2.5317   20.1208   -0.3106 H   0  0  0  0  0  0  0  0  0  0  0  0
   -1.6342   20.3466    1.1872 H   0  0  0  0  0  0  0  0  0  0  0  0
   -0.9779   21.1133   -0.2988 H   0  0  0  0  0  0  0  0  0  0  0  0
   -1.3949   19.3661   -0.2988 H   0  0  0  0  0  0  0  0  0  0  0  0
    0.1179   19.5951    2.8456 H   0  0  0  0  0  0  0  0  0  0  0  0
    1.8030   19.9674    2.3472 H   0  0  0  0  0  0  0  0  0  0  0  0
    0.5594   21.2635    2.3472 H   0  0  0  0  0  0  0  0  0  0  0  0
    2.9479   15.8678   -2.9037 H   0  0  0  0  0  0  0  0  0  0  0  0
    3.9216   16.4892   -0.7811 H   0  0  0  0  0  0  0  0  0  0  0  0
    2.6012   17.6208   -0.4185 H   0  0  0  0  0  0  0  0  0  0  0  0
    2.9303   15.0271    0.7363 H   0  0  0  0  0  0  0  0  0  0  0  0
    1.4391   15.9616    0.8172 H   0  0  0  0  0  0  0  0  0  0  0  0
    3.2109   13.2042   -0.4538 H   0  0  0  0  0  0  0  0  0  0  0  0
    2.2916   12.7855   -1.9391 H   0  0  0  0  0  0  0  0  0  0  0  0
    3.4041   14.1958   -1.9391 H   0  0  0  0  0  0  0  0  0  0  0  0
   -0.3374   14.4845    0.0914 H   0  0  0  0  0  0  0  0  0  0  0  0
    1.4681   13.2221    1.4265 H   0  0  0  0  0  0  0  0  0  0  0  0
   -0.2846   12.6579    1.4239 H   0  0  0  0  0  0  0  0  0  0  0  0
    1.5469   10.7731    1.2437 H   0  0  0  0  0  0  0  0  0  0  0  0
    0.9053   11.8743   -2.5875 H   0  0  0  0  0  0  0  0  0  0  0  0
   -1.6483   10.3444   -1.7922 H   0  0  0  0  0  0  0  0  0  0  0  0
   -1.2950   11.1204   -3.3998 H   0  0  0  0  0  0  0  0  0  0  0  0
   -0.9885    8.6664   -3.4571 H   0  0  0  0  0  0  0  0  0  0  0  0
    0.5395    9.5769   -3.7764 H   0  0  0  0  0  0  0  0  0  0  0  0
    1.0293    7.7388   -2.3116 H   0  0  0  0  0  0  0  0  0  0  0  0
   -0.0710    7.6670   -0.2300 H   0  0  0  0  0  0  0  0  0  0  0  0
    3.6255    9.8852   -1.4002 H   0  0  0  0  0  0  0  0  0  0  0  0
    2.9115    8.8236   -2.6611 H   0  0  0  0  0  0  0  0  0  0  0  0
    2.5537   10.5839   -2.6611 H   0  0  0  0  0  0  0  0  0  0  0  0
    1.7128    9.1328    1.0290 H   0  0  0  0  0  0  0  0  0  0  0  0
    1.6048    7.6230    0.0617 H   0  0  0  0  0  0  0  0  0  0  0  0
    3.1230    8.5831    0.0617 H   0  0  0  0  0  0  0  0  0  0  0  0
   -1.8872   12.7236    0.2438 H   0  0  0  0  0  0  0  0  0  0  0  0
   -2.6150   13.5117   -1.1970 H   0  0  0  0  0  0  0  0  0  0  0  0
   -2.3164   11.7404   -1.1970 H   0  0  0  0  0  0  0  0  0  0  0  0
   -0.9291   13.1564   -3.5704 H   0  0  0  0  0  0  0  0  0  0  0  0
   -1.5188   14.5372   -2.4841 H   0  0  0  0  0  0  0  0  0  0  0  0
    1.2854   14.0857   -3.5412 H   0  0  0  0  0  0  0  0  0  0  0  0
    0.1340   15.4227   -3.9323 H   0  0  0  0  0  0  0  0  0  0  0  0
   -0.1729   16.5103   -0.3916 H   0  0  0  0  0  0  0  0  0  0  0  0
    0.0374   17.5027   -1.8740 H   0  0  0  0  0  0  0  0  0  0  0  0
   -1.1093   16.1201   -1.8740 H   0  0  0  0  0  0  0  0  0  0  0  0
  1  2  1  0
  2  3  1  0
  3  4  1  0
  4  5  1  0
  5  6  1  0
  6  7  1  0
  7  8  1  0
  7  9  1  0
  2 10  1  0
 10 11  1  0
 11 12  1  0
 12 13  1  0
 13 14  1  6
 13 15  1  0
 15 16  1  0
 16 17  1  0
 17 18  2  0
 18 19  1  0
 19 20  1  0
 20 21  1  0
 21 22  1  0
 22 23  1  0
 22 24  1  0
 24 25  1  0
 24 26  1  0
 19 27  1  0
 27 28  1  1
 27 29  1  0
 29 30  1  0
 30 31  1  0
 31 32  1  1
  7  5  1  0
 31 10  1  0
 31 13  1  0
 27 15  1  0
 24 18  1  0
  1 33  1  0
  1 34  1  0
  1 35  1  0
  2 36  1  6
  3 37  1  0
  3 38  1  0
  4 39  1  0
  4 40  1  0
  5 41  1  1
  8 42  1  0
  8 43  1  0
  8 44  1  0
  9 45  1  0
  9 46  1  0
  9 47  1  0
 10 48  1  6
 11 49  1  0
 11 50  1  0
 12 51  1  0
 12 52  1  0
 14 53  1  0
 14 54  1  0
 14 55  1  0
 15 56  1  1
 16 57  1  0
 16 58  1  0
 17 59  1  0
 19 60  1  6
 20 61  1  0
 20 62  1  0
 21 63  1  0
 21 64  1  0
 22 65  1  6
 23 66  1  0
 25 67  1  0
 25 68  1  0
 25 69  1  0
 26 70  1  0
 26 71  1  0
 26 72  1  0
 28 73  1  0
 28 74  1  0
 28 75  1  0
 29 76  1  0
 29 77  1  0
 30 78  1  0
 30 79  1  0
 32 80  1  0
 32 81  1  0
 32 82  1  0
M  END
>  <meeko>  (9) 
{"is_sidechain": [false], "intermolecular_energy": 2.731, "internal_energy": -0.839}

$$$$
EPH_relaxed_0001_pdb2pqr_Repair_278_r2_0001_out
     RDKit          3D

 82 86  0  0  0  0  0  0  0  0999 V2000
   -3.7190    7.1930   -3.4100 C   0  0  0  0  0  0  0  0  0  0  0  0
   -3.7560    7.2710   -1.8820 C   0  0  2  0  0  0  0  0  0  0  0  0
   -5.1750    7.0460   -1.3220 C   0  0  0  0  0  0  0  0  0  0  0  0
   -6.2850    7.2600   -2.3550 C   0  0  0  0  0  0  0  0  0  0  0  0
   -7.6160    7.4770   -1.7020 C   0  0  2  0  0  0  0  0  0  0  0  0
   -8.2060    6.2970   -1.1400 O   0  0  0  0  0  0  0  0  0  0  0  0
   -8.9140    6.8990   -2.2360 C   0  0  0  0  0  0  0  0  0  0  0  0
   -8.9430    6.0600   -3.4750 C   0  0  0  0  0  0  0  0  0  0  0  0
  -10.2030    7.5470   -1.8370 C   0  0  0  0  0  0  0  0  0  0  0  0
   -3.2210    8.6210   -1.4180 C   0  0  1  0  0  0  0  0  0  0  0  0
   -3.8330    9.0730   -0.0650 C   0  0  0  0  0  0  0  0  0  0  0  0
   -2.7190    9.8350    0.6970 C   0  0  0  0  0  0  0  0  0  0  0  0
   -1.6210   10.0840   -0.3630 C   0  0  1  0  0  0  0  0  0  0  0  0
   -2.1070   11.3370   -1.1580 C   0  0  0  0  0  0  0  0  0  0  0  0
   -0.1670   10.2740    0.1800 C   0  0  2  0  0  0  0  0  0  0  0  0
    0.0340   11.4950    1.0950 C   0  0  0  0  0  0  0  0  0  0  0  0
    0.4300   12.7550    0.3990 C   0  0  0  0  0  0  0  0  0  0  0  0
    0.8930   12.8400   -0.8620 C   0  0  0  0  0  0  0  0  0  0  0  0
    1.1510   11.5770   -1.6930 C   0  0  1  0  0  0  0  0  0  0  0  0
    2.5350   11.6860   -2.3840 C   0  0  0  0  0  0  0  0  0  0  0  0
    2.6800   12.9640   -3.2050 C   0  0  0  0  0  0  0  0  0  0  0  0
    2.4740   14.1990   -2.3320 C   0  0  2  0  0  0  0  0  0  0  0  0
    3.5480   14.2820   -1.3900 O   0  0  0  0  0  0  0  0  0  0  0  0
    1.1160   14.1960   -1.5770 C   0  0  0  0  0  0  0  0  0  0  0  0
   -0.0410   14.4090   -2.5850 C   0  0  0  0  0  0  0  0  0  0  0  0
    1.0950   15.4230   -0.6260 C   0  0  0  0  0  0  0  0  0  0  0  0
    0.9560   10.1950   -0.9330 C   0  0  1  0  0  0  0  0  0  0  0  0
    2.2760    9.7970   -0.2050 C   0  0  0  0  0  0  0  0  0  0  0  0
    0.6720    9.0620   -1.9890 C   0  0  0  0  0  0  0  0  0  0  0  0
   -0.7980    8.8440   -2.3950 C   0  0  0  0  0  0  0  0  0  0  0  0
   -1.6970    8.7320   -1.1610 C   0  0  2  0  0  0  0  0  0  0  0  0
   -1.2460    7.4680   -0.3530 C   0  0  0  0  0  0  0  0  0  0  0  0
   -3.2664    6.2388   -3.7176 H   0  0  0  0  0  0  0  0  0  0  0  0
   -4.7435    7.2571   -3.8053 H   0  0  0  0  0  0  0  0  0  0  0  0
   -3.1205    8.0270   -3.8053 H   0  0  0  0  0  0  0  0  0  0  0  0
   -3.1171    6.4639   -1.4942 H   0  0  0  0  0  0  0  0  0  0  0  0
   -5.2417    6.0132   -0.9494 H   0  0  0  0  0  0  0  0  0  0  0  0
   -5.3284    7.7897   -0.5262 H   0  0  0  0  0  0  0  0  0  0  0  0
   -6.0392    8.1419   -2.9648 H   0  0  0  0  0  0  0  0  0  0  0  0
   -6.3523    6.3560   -2.9781 H   0  0  0  0  0  0  0  0  0  0  0  0
   -7.3301    8.4962   -1.4029 H   0  0  0  0  0  0  0  0  0  0  0  0
   -8.9798    4.9964   -3.1968 H   0  0  0  0  0  0  0  0  0  0  0  0
   -9.8329    6.3145   -4.0694 H   0  0  0  0  0  0  0  0  0  0  0  0
   -8.0377    6.2524   -4.0694 H   0  0  0  0  0  0  0  0  0  0  0  0
  -10.2718    7.5816   -0.7397 H   0  0  0  0  0  0  0  0  0  0  0  0
  -10.2388    8.5703   -2.2390 H   0  0  0  0  0  0  0  0  0  0  0  0
  -11.0456    6.9654   -2.2390 H   0  0  0  0  0  0  0  0  0  0  0  0
   -3.5025    9.2383   -2.2838 H   0  0  0  0  0  0  0  0  0  0  0  0
   -4.6931    9.7357   -0.2408 H   0  0  0  0  0  0  0  0  0  0  0  0
   -4.1891    8.2093    0.5157 H   0  0  0  0  0  0  0  0  0  0  0  0
   -3.1008   10.7881    1.0918 H   0  0  0  0  0  0  0  0  0  0  0  0
   -2.3430    9.2687    1.5618 H   0  0  0  0  0  0  0  0  0  0  0  0
   -2.4121   12.1235   -0.4521 H   0  0  0  0  0  0  0  0  0  0  0  0
   -1.2883   11.7099   -1.7910 H   0  0  0  0  0  0  0  0  0  0  0  0
   -2.9630   11.0603   -1.7910 H   0  0  0  0  0  0  0  0  0  0  0  0
   -0.0396    9.3927    0.8258 H   0  0  0  0  0  0  0  0  0  0  0  0
   -0.9117   11.6821    1.6248 H   0  0  0  0  0  0  0  0  0  0  0  0
    0.8702   11.2405    1.7629 H   0  0  0  0  0  0  0  0  0  0  0  0
    0.3354   13.6936    0.9647 H   0  0  0  0  0  0  0  0  0  0  0  0
    0.3558   11.5451   -2.4524 H   0  0  0  0  0  0  0  0  0  0  0  0
    3.3172   11.6730   -1.6107 H   0  0  0  0  0  0  0  0  0  0  0  0
    2.6324   10.8338   -3.0727 H   0  0  0  0  0  0  0  0  0  0  0  0
    3.6880   12.9975   -3.6441 H   0  0  0  0  0  0  0  0  0  0  0  0
    1.9159   12.9618   -3.9963 H   0  0  0  0  0  0  0  0  0  0  0  0
    2.4606   15.0747   -2.9975 H   0  0  0  0  0  0  0  0  0  0  0  0
    3.3630   13.6490   -0.6760 H   0  0  0  0  0  0  0  0  0  0  0  0
   -0.9785   14.5816   -2.0360 H   0  0  0  0  0  0  0  0  0  0  0  0
    0.1796   15.2816   -3.2173 H   0  0  0  0  0  0  0  0  0  0  0  0
   -0.1456   13.5150   -3.2173 H   0  0  0  0  0  0  0  0  0  0  0  0
    1.1009   15.0776    0.4184 H   0  0  0  0  0  0  0  0  0  0  0  0
    1.9826   16.0457   -0.8113 H   0  0  0  0  0  0  0  0  0  0  0  0
    0.1866   16.0150   -0.8113 H   0  0  0  0  0  0  0  0  0  0  0  0
    2.1228    9.8432    0.8833 H   0  0  0  0  0  0  0  0  0  0  0  0
    2.5590    8.7736   -0.4923 H   0  0  0  0  0  0  0  0  0  0  0  0
    3.0775   10.4934   -0.4923 H   0  0  0  0  0  0  0  0  0  0  0  0
    1.2362    9.3078   -2.9008 H   0  0  0  0  0  0  0  0  0  0  0  0
    0.9766    8.1266   -1.4967 H   0  0  0  0  0  0  0  0  0  0  0  0
   -1.1320    9.6945   -3.0074 H   0  0  0  0  0  0  0  0  0  0  0  0
   -0.8685    7.9066   -2.9663 H   0  0  0  0  0  0  0  0  0  0  0  0
   -1.3202    7.6760    0.7246 H   0  0  0  0  0  0  0  0  0  0  0  0
   -1.8965    6.6184   -0.6081 H   0  0  0  0  0  0  0  0  0  0  0  0
   -0.2046    7.2221   -0.6081 H   0  0  0  0  0  0  0  0  0  0  0  0
  1  2  1  0
  2  3  1  0
  3  4  1  0
  4  5  1  0
  5  6  1  0
  6  7  1  0
  7  8  1  0
  7  9  1  0
  2 10  1  0
 10 11  1  0
 11 12  1  0
 12 13  1  0
 13 14  1  6
 13 15  1  0
 15 16  1  0
 16 17  1  0
 17 18  2  0
 18 19  1  0
 19 20  1  0
 20 21  1  0
 21 22  1  0
 22 23  1  0
 22 24  1  0
 24 25  1  0
 24 26  1  0
 19 27  1  0
 27 28  1  1
 27 29  1  0
 29 30  1  0
 30 31  1  0
 31 32  1  1
  7  5  1  0
 31 10  1  0
 31 13  1  0
 27 15  1  0
 24 18  1  0
  1 33  1  0
  1 34  1  0
  1 35  1  0
  2 36  1  1
  3 37  1  0
  3 38  1  0
  4 39  1  0
  4 40  1  0
  5 41  1  1
  8 42  1  0
  8 43  1  0
  8 44  1  0
  9 45  1  0
  9 46  1  0
  9 47  1  0
 10 48  1  6
 11 49  1  0
 11 50  1  0
 12 51  1  0
 12 52  1  0
 14 53  1  0
 14 54  1  0
 14 55  1  0
 15 56  1  1
 16 57  1  0
 16 58  1  0
 17 59  1  0
 19 60  1  6
 20 61  1  0
 20 62  1  0
 21 63  1  0
 21 64  1  0
 22 65  1  6
 23 66  1  0
 25 67  1  0
 25 68  1  0
 25 69  1  0
 26 70  1  0
 26 71  1  0
 26 72  1  0
 28 73  1  0
 28 74  1  0
 28 75  1  0
 29 76  1  0
 29 77  1  0
 30 78  1  0
 30 79  1  0
 32 80  1  0
 32 81  1  0
 32 82  1  0
M  END
>  <meeko>  (10) 
{"is_sidechain": [false], "intermolecular_energy": 2.731, "internal_energy": -0.839}

$$$$
EPH_relaxed_0001_pdb2pqr_Repair_278_r2_0001_out
     RDKit          3D

 82 86  0  0  0  0  0  0  0  0999 V2000
   -0.2790   15.0370   -7.6840 C   0  0  0  0  0  0  0  0  0  0  0  0
    1.0840   15.0380   -6.9860 C   0  0  2  0  0  0  0  0  0  0  0  0
    2.2510   15.1300   -7.9890 C   0  0  0  0  0  0  0  0  0  0  0  0
    2.2930   16.4490   -8.7650 C   0  0  0  0  0  0  0  0  0  0  0  0
    1.8870   16.2640  -10.1960 C   0  0  2  0  0  0  0  0  0  0  0  0
    1.2190   15.0270  -10.4730 O   0  0  0  0  0  0  0  0  0  0  0  0
    2.4940   15.2140  -11.1080 C   0  0  0  0  0  0  0  0  0  0  0  0
    3.5580   14.2800  -10.6230 C   0  0  0  0  0  0  0  0  0  0  0  0
    2.4060   15.4160  -12.5890 C   0  0  0  0  0  0  0  0  0  0  0  0
    1.2300   13.7840   -6.1300 C   0  0  1  0  0  0  0  0  0  0  0  0
    2.6650   13.1960   -6.1730 C   0  0  0  0  0  0  0  0  0  0  0  0
    2.9510   12.6110   -4.7660 C   0  0  0  0  0  0  0  0  0  0  0  0
    1.5710   12.5820   -4.0680 C   0  0  1  0  0  0  0  0  0  0  0  0
    0.8780   11.2890   -4.6030 C   0  0  0  0  0  0  0  0  0  0  0  0
    1.5870   12.6240   -2.5050 C   0  0  2  0  0  0  0  0  0  0  0  0
    2.2780   11.4290   -1.8270 C   0  0  0  0  0  0  0  0  0  0  0  0
    1.3870   10.2740   -1.5070 C   0  0  0  0  0  0  0  0  0  0  0  0
    0.0410   10.3060   -1.4920 C   0  0  0  0  0  0  0  0  0  0  0  0
   -0.7190   11.6180   -1.7220 C   0  0  1  0  0  0  0  0  0  0  0  0
   -1.8340   11.7650   -0.6540 C   0  0  0  0  0  0  0  0  0  0  0  0
   -2.7620   10.5540   -0.6070 C   0  0  0  0  0  0  0  0  0  0  0  0
   -1.9770    9.2770   -0.3180 C   0  0  2  0  0  0  0  0  0  0  0  0
   -1.4520    9.3490    1.0110 O   0  0  0  0  0  0  0  0  0  0  0  0
   -0.8190    9.0290   -1.3250 C   0  0  0  0  0  0  0  0  0  0  0  0
   -1.4040    8.6520   -2.7090 C   0  0  0  0  0  0  0  0  0  0  0  0
   -0.0210    7.7880   -0.8390 C   0  0  0  0  0  0  0  0  0  0  0  0
    0.1770   12.9250   -1.8510 C   0  0  1  0  0  0  0  0  0  0  0  0
    0.4600   13.5180   -0.4370 C   0  0  0  0  0  0  0  0  0  0  0  0
   -0.6270   14.0230   -2.6420 C   0  0  0  0  0  0  0  0  0  0  0  0
   -0.5070   14.0030   -4.1770 C   0  0  0  0  0  0  0  0  0  0  0  0
    0.9600   13.9250   -4.6110 C   0  0  2  0  0  0  0  0  0  0  0  0
    1.6780   15.2230   -4.1060 C   0  0  0  0  0  0  0  0  0  0  0  0
   -1.0781   15.0364   -6.9280 H   0  0  0  0  0  0  0  0  0  0  0  0
   -0.3697   15.9351   -8.3127 H   0  0  0  0  0  0  0  0  0  0  0  0
   -0.3683   14.1388   -8.3127 H   0  0  0  0  0  0  0  0  0  0  0  0
    1.1277   15.9323   -6.3470 H   0  0  0  0  0  0  0  0  0  0  0  0
    3.1949   15.0232   -7.4343 H   0  0  0  0  0  0  0  0  0  0  0  0
    2.1047   14.3274   -8.7269 H   0  0  0  0  0  0  0  0  0  0  0  0
    1.6061   17.1644   -8.2893 H   0  0  0  0  0  0  0  0  0  0  0  0
    3.3270   16.8239   -8.7478 H   0  0  0  0  0  0  0  0  0  0  0  0
    1.7323   17.3463  -10.3172 H   0  0  0  0  0  0  0  0  0  0  0  0
    3.5661   14.2729   -9.5231 H   0  0  0  0  0  0  0  0  0  0  0  0
    3.3525   13.2653  -10.9947 H   0  0  0  0  0  0  0  0  0  0  0  0
    4.5375   14.6153  -10.9947 H   0  0  0  0  0  0  0  0  0  0  0  0
    1.9748   16.4059  -12.7991 H   0  0  0  0  0  0  0  0  0  0  0  0
    3.4127   15.3540  -13.0280 H   0  0  0  0  0  0  0  0  0  0  0  0
    1.7659   14.6365  -13.0280 H   0  0  0  0  0  0  0  0  0  0  0  0
    0.4565   13.1532   -6.5924 H   0  0  0  0  0  0  0  0  0  0  0  0
    2.7268   12.4029   -6.9327 H   0  0  0  0  0  0  0  0  0  0  0  0
    3.4012   13.9698   -6.4361 H   0  0  0  0  0  0  0  0  0  0  0  0
    3.3678   11.5961   -4.8447 H   0  0  0  0  0  0  0  0  0  0  0  0
    3.6883   13.2071   -4.2082 H   0  0  0  0  0  0  0  0  0  0  0  0
    0.5474   10.6722   -3.7543 H   0  0  0  0  0  0  0  0  0  0  0  0
    0.0076   11.5662   -5.2158 H   0  0  0  0  0  0  0  0  0  0  0  0
    1.5908   10.7177   -5.2158 H   0  0  0  0  0  0  0  0  0  0  0  0
    2.2273   13.4943   -2.2985 H   0  0  0  0  0  0  0  0  0  0  0  0
    3.0720   11.0699   -2.4983 H   0  0  0  0  0  0  0  0  0  0  0  0
    2.6518   11.8013   -0.8618 H   0  0  0  0  0  0  0  0  0  0  0  0
    1.8710    9.3168   -1.2631 H   0  0  0  0  0  0  0  0  0  0  0  0
   -1.1685   11.5370   -2.7227 H   0  0  0  0  0  0  0  0  0  0  0  0
   -1.3634   11.8873    0.3327 H   0  0  0  0  0  0  0  0  0  0  0  0
   -2.4417   12.6413   -0.9238 H   0  0  0  0  0  0  0  0  0  0  0  0
   -3.5100   10.7040    0.1854 H   0  0  0  0  0  0  0  0  0  0  0  0
   -3.2541   10.4502   -1.5853 H   0  0  0  0  0  0  0  0  0  0  0  0
   -2.6721    8.4311   -0.4247 H   0  0  0  0  0  0  0  0  0  0  0  0
   -2.0430    9.9200    1.5300 H   0  0  0  0  0  0  0  0  0  0  0  0
   -2.3213    8.0609   -2.5707 H   0  0  0  0  0  0  0  0  0  0  0  0
   -1.6396    9.5687   -3.2695 H   0  0  0  0  0  0  0  0  0  0  0  0
   -0.6665    8.0588   -3.2695 H   0  0  0  0  0  0  0  0  0  0  0  0
   -0.0081    7.7680    0.2607 H   0  0  0  0  0  0  0  0  0  0  0  0
   -0.5003    6.8728   -1.2168 H   0  0  0  0  0  0  0  0  0  0  0  0
    1.0105    7.8444   -1.2168 H   0  0  0  0  0  0  0  0  0  0  0  0
    0.1215   12.8086    0.3326 H   0  0  0  0  0  0  0  0  0  0  0  0
    1.5397   13.6950   -0.3230 H   0  0  0  0  0  0  0  0  0  0  0  0
   -0.0815   14.4687   -0.3230 H   0  0  0  0  0  0  0  0  0  0  0  0
   -1.6909   13.9019   -2.3901 H   0  0  0  0  0  0  0  0  0  0  0  0
   -0.1850   14.9814   -2.3320 H   0  0  0  0  0  0  0  0  0  0  0  0
   -1.0452   13.1273   -4.5687 H   0  0  0  0  0  0  0  0  0  0  0  0
   -0.9418   14.9317   -4.5751 H   0  0  0  0  0  0  0  0  0  0  0  0
    1.6842   15.2343   -3.0061 H   0  0  0  0  0  0  0  0  0  0  0  0
    2.7128   15.2382   -4.4787 H   0  0  0  0  0  0  0  0  0  0  0  0
    1.1410   16.1077   -4.4787 H   0  0  0  0  0  0  0  0  0  0  0  0
  1  2  1  0
  2  3  1  0
  3  4  1  0
  4  5  1  0
  5  6  1  0
  6  7  1  0
  7  8  1  0
  7  9  1  0
  2 10  1  0
 10 11  1  0
 11 12  1  0
 12 13  1  0
 13 14  1  1
 13 15  1  0
 15 16  1  0
 16 17  1  0
 17 18  2  0
 18 19  1  0
 19 20  1  0
 20 21  1  0
 21 22  1  0
 22 23  1  0
 22 24  1  0
 24 25  1  0
 24 26  1  0
 19 27  1  0
 27 28  1  1
 27 29  1  0
 29 30  1  0
 30 31  1  0
 31 32  1  1
  7  5  1  0
 31 10  1  0
 31 13  1  0
 27 15  1  0
 24 18  1  0
  1 33  1  0
  1 34  1  0
  1 35  1  0
  2 36  1  1
  3 37  1  0
  3 38  1  0
  4 39  1  0
  4 40  1  0
  5 41  1  6
  8 42  1  0
  8 43  1  0
  8 44  1  0
  9 45  1  0
  9 46  1  0
  9 47  1  0
 10 48  1  6
 11 49  1  0
 11 50  1  0
 12 51  1  0
 12 52  1  0
 14 53  1  0
 14 54  1  0
 14 55  1  0
 15 56  1  6
 16 57  1  0
 16 58  1  0
 17 59  1  0
 19 60  1  6
 20 61  1  0
 20 62  1  0
 21 63  1  0
 21 64  1  0
 22 65  1  1
 23 66  1  0
 25 67  1  0
 25 68  1  0
 25 69  1  0
 26 70  1  0
 26 71  1  0
 26 72  1  0
 28 73  1  0
 28 74  1  0
 28 75  1  0
 29 76  1  0
 29 77  1  0
 30 78  1  0
 30 79  1  0
 32 80  1  0
 32 81  1  0
 32 82  1  0
M  END
>  <meeko>  (11) 
{"is_sidechain": [false], "intermolecular_energy": 2.731, "internal_energy": -0.839}

$$$$
EPH_relaxed_0001_pdb2pqr_Repair_278_r2_0001_out
     RDKit          3D

 82 86  0  0  0  0  0  0  0  0999 V2000
   -2.1960    7.8090   -2.0510 C   0  0  0  0  0  0  0  0  0  0  0  0
   -2.2680    8.4770   -0.6760 C   0  0  2  0  0  0  0  0  0  0  0  0
   -3.7020    8.4890   -0.1100 C   0  0  0  0  0  0  0  0  0  0  0  0
   -4.7890    8.4560   -1.1870 C   0  0  0  0  0  0  0  0  0  0  0  0
   -5.8620    7.4610   -0.8630 C   0  0  2  0  0  0  0  0  0  0  0  0
   -5.4510    6.0900   -0.9450 O   0  0  0  0  0  0  0  0  0  0  0  0
   -6.4550    6.5080   -1.8830 C   0  0  0  0  0  0  0  0  0  0  0  0
   -5.9970    6.5060   -3.3080 C   0  0  0  0  0  0  0  0  0  0  0  0
   -7.8090    5.9270   -1.6170 C   0  0  0  0  0  0  0  0  0  0  0  0
   -1.7300    9.9010   -0.7610 C   0  0  1  0  0  0  0  0  0  0  0  0
   -1.2860   10.4560    0.6190 C   0  0  0  0  0  0  0  0  0  0  0  0
   -0.0570   11.3660    0.3610 C   0  0  0  0  0  0  0  0  0  0  0  0
   -0.0390   11.5700   -1.1720 C   0  0  1  0  0  0  0  0  0  0  0  0
   -1.0870   12.6950   -1.4400 C   0  0  0  0  0  0  0  0  0  0  0  0
    1.3490   11.9110   -1.8070 C   0  0  2  0  0  0  0  0  0  0  0  0
    1.9760   13.2330   -1.3320 C   0  0  0  0  0  0  0  0  0  0  0  0
    1.6240   14.4340   -2.1460 C   0  0  0  0  0  0  0  0  0  0  0  0
    1.0720   14.4130   -3.3730 C   0  0  0  0  0  0  0  0  0  0  0  0
    0.8340   13.0870   -4.1070 C   0  0  1  0  0  0  0  0  0  0  0  0
    1.3290   13.2110   -5.5720 C   0  0  0  0  0  0  0  0  0  0  0  0
    0.7100   14.4000   -6.3000 C   0  0  0  0  0  0  0  0  0  0  0  0
    1.0170   15.7060   -5.5720 C   0  0  2  0  0  0  0  0  0  0  0  0
    2.4230   15.9590   -5.6520 O   0  0  0  0  0  0  0  0  0  0  0  0
    0.5720   15.6960   -4.0830 C   0  0  0  0  0  0  0  0  0  0  0  0
   -0.9750   15.7250   -4.0010 C   0  0  0  0  0  0  0  0  0  0  0  0
    1.0660   17.0140   -3.4280 C   0  0  0  0  0  0  0  0  0  0  0  0
    1.3890   11.7850   -3.3840 C   0  0  1  0  0  0  0  0  0  0  0  0
    2.8810   11.5540   -3.7740 C   0  0  0  0  0  0  0  0  0  0  0  0
    0.5940   10.5300   -3.9040 C   0  0  0  0  0  0  0  0  0  0  0  0
   -0.7070   10.1740   -3.1600 C   0  0  0  0  0  0  0  0  0  0  0  0
   -0.4810   10.1380   -1.6460 C   0  0  2  0  0  0  0  0  0  0  0  0
    0.5530    8.9990   -1.3440 C   0  0  0  0  0  0  0  0  0  0  0  0
   -2.0789    6.7225   -1.9251 H   0  0  0  0  0  0  0  0  0  0  0  0
   -3.1216    8.0159   -2.6081 H   0  0  0  0  0  0  0  0  0  0  0  0
   -1.3357    8.2084   -2.6081 H   0  0  0  0  0  0  0  0  0  0  0  0
   -1.6467    7.8849    0.0120 H   0  0  0  0  0  0  0  0  0  0  0  0
   -3.8273    7.6083    0.5370 H   0  0  0  0  0  0  0  0  0  0  0  0
   -3.8227    9.4342    0.4396 H   0  0  0  0  0  0  0  0  0  0  0  0
   -5.2420    9.4552   -1.2667 H   0  0  0  0  0  0  0  0  0  0  0  0
   -4.3210    8.1578   -2.1368 H   0  0  0  0  0  0  0  0  0  0  0  0
   -6.3244    8.1572   -0.1478 H   0  0  0  0  0  0  0  0  0  0  0  0
   -4.8975    6.5012   -3.3397 H   0  0  0  0  0  0  0  0  0  0  0  0
   -6.3824    5.6095   -3.8158 H   0  0  0  0  0  0  0  0  0  0  0  0
   -6.3746    7.4058   -3.8158 H   0  0  0  0  0  0  0  0  0  0  0  0
   -7.9713    5.8574   -0.5313 H   0  0  0  0  0  0  0  0  0  0  0  0
   -8.5794    6.5738   -2.0622 H   0  0  0  0  0  0  0  0  0  0  0  0
   -7.8711    4.9230   -2.0622 H   0  0  0  0  0  0  0  0  0  0  0  0
   -2.6043   10.4017   -1.2025 H   0  0  0  0  0  0  0  0  0  0  0  0
   -2.1008   11.0395    1.0726 H   0  0  0  0  0  0  0  0  0  0  0  0
   -1.0340    9.6388    1.3108 H   0  0  0  0  0  0  0  0  0  0  0  0
   -0.1711   12.3292    0.8798 H   0  0  0  0  0  0  0  0  0  0  0  0
    0.8774   10.9215    0.7341 H   0  0  0  0  0  0  0  0  0  0  0  0
   -1.4546   13.0896   -0.4813 H   0  0  0  0  0  0  0  0  0  0  0  0
   -0.6153   13.5063   -2.0138 H   0  0  0  0  0  0  0  0  0  0  0  0
   -1.9297   12.2820   -2.0138 H   0  0  0  0  0  0  0  0  0  0  0  0
    1.9938   11.1143   -1.4075 H   0  0  0  0  0  0  0  0  0  0  0  0
    1.6456   13.4140   -0.2985 H   0  0  0  0  0  0  0  0  0  0  0  0
    3.0643   13.1066   -1.4306 H   0  0  0  0  0  0  0  0  0  0  0  0
    1.8337   15.4198   -1.7053 H   0  0  0  0  0  0  0  0  0  0  0  0
   -0.2534   12.9219   -4.0925 H   0  0  0  0  0  0  0  0  0  0  0  0
    2.4223   13.3317   -5.5657 H   0  0  0  0  0  0  0  0  0  0  0  0
    1.0255   12.2981   -6.1054 H   0  0  0  0  0  0  0  0  0  0  0  0
    1.1202   14.4512   -7.3194 H   0  0  0  0  0  0  0  0  0  0  0  0
   -0.3811   14.2634   -6.3306 H   0  0  0  0  0  0  0  0  0  0  0  0
    0.4414   16.5025   -6.0663 H   0  0  0  0  0  0  0  0  0  0  0  0
    2.8840   15.1300   -5.4370 H   0  0  0  0  0  0  0  0  0  0  0  0
   -1.2862   15.7308   -2.9460 H   0  0  0  0  0  0  0  0  0  0  0  0
   -1.3517   16.6304   -4.4994 H   0  0  0  0  0  0  0  0  0  0  0  0
   -1.3854   14.8344   -4.4994 H   0  0  0  0  0  0  0  0  0  0  0  0
    1.0291   16.9156   -2.3330 H   0  0  0  0  0  0  0  0  0  0  0  0
    2.1005   17.2149   -3.7434 H   0  0  0  0  0  0  0  0  0  0  0  0
    0.4184   17.8454   -3.7434 H   0  0  0  0  0  0  0  0  0  0  0  0
    3.4882   11.4600   -2.8616 H   0  0  0  0  0  0  0  0  0  0  0  0
    2.9663   10.6320   -4.3678 H   0  0  0  0  0  0  0  0  0  0  0  0
    3.2411   12.4071   -4.3678 H   0  0  0  0  0  0  0  0  0  0  0  0
    0.3354   10.7131   -4.9574 H   0  0  0  0  0  0  0  0  0  0  0  0
    1.2648    9.6746   -3.7356 H   0  0  0  0  0  0  0  0  0  0  0  0
   -1.4721   10.9296   -3.3916 H   0  0  0  0  0  0  0  0  0  0  0  0
   -1.0374    9.1776   -3.4888 H   0  0  0  0  0  0  0  0  0  0  0  0
    0.6606    8.8805   -0.2557 H   0  0  0  0  0  0  0  0  0  0  0  0
    0.1970    8.0549   -1.7822 H   0  0  0  0  0  0  0  0  0  0  0  0
    1.5270    9.2623   -1.7822 H   0  0  0  0  0  0  0  0  0  0  0  0
  1  2  1  0
  2  3  1  0
  3  4  1  0
  4  5  1  0
  5  6  1  0
  6  7  1  0
  7  8  1  0
  7  9  1  0
  2 10  1  0
 10 11  1  0
 11 12  1  0
 12 13  1  0
 13 14  1  1
 13 15  1  0
 15 16  1  0
 16 17  1  0
 17 18  2  0
 18 19  1  0
 19 20  1  0
 20 21  1  0
 21 22  1  0
 22 23  1  0
 22 24  1  0
 24 25  1  0
 24 26  1  0
 19 27  1  0
 27 28  1  6
 27 29  1  0
 29 30  1  0
 30 31  1  0
 31 32  1  6
  7  5  1  0
 31 10  1  0
 31 13  1  0
 27 15  1  0
 24 18  1  0
  1 33  1  0
  1 34  1  0
  1 35  1  0
  2 36  1  1
  3 37  1  0
  3 38  1  0
  4 39  1  0
  4 40  1  0
  5 41  1  1
  8 42  1  0
  8 43  1  0
  8 44  1  0
  9 45  1  0
  9 46  1  0
  9 47  1  0
 10 48  1  6
 11 49  1  0
 11 50  1  0
 12 51  1  0
 12 52  1  0
 14 53  1  0
 14 54  1  0
 14 55  1  0
 15 56  1  1
 16 57  1  0
 16 58  1  0
 17 59  1  0
 19 60  1  6
 20 61  1  0
 20 62  1  0
 21 63  1  0
 21 64  1  0
 22 65  1  6
 23 66  1  0
 25 67  1  0
 25 68  1  0
 25 69  1  0
 26 70  1  0
 26 71  1  0
 26 72  1  0
 28 73  1  0
 28 74  1  0
 28 75  1  0
 29 76  1  0
 29 77  1  0
 30 78  1  0
 30 79  1  0
 32 80  1  0
 32 81  1  0
 32 82  1  0
M  END
>  <meeko>  (12) 
{"is_sidechain": [false], "intermolecular_energy": 2.731, "internal_energy": -0.839}

$$$$
EPH_relaxed_0001_pdb2pqr_Repair_278_r2_0001_out
     RDKit          3D

 82 86  0  0  0  0  0  0  0  0999 V2000
   -0.3040    9.2540   -2.1210 C   0  0  0  0  0  0  0  0  0  0  0  0
    0.7100   10.2510   -2.6880 C   0  0  2  0  0  0  0  0  0  0  0  0
    2.0960    9.6120   -2.9030 C   0  0  0  0  0  0  0  0  0  0  0  0
    2.9980   10.4040   -3.8530 C   0  0  0  0  0  0  0  0  0  0  0  0
    4.3930   10.5280   -3.3180 C   0  0  2  0  0  0  0  0  0  0  0  0
    5.0050   11.8060   -3.5350 O   0  0  0  0  0  0  0  0  0  0  0  0
    5.6160   10.6890   -4.2010 C   0  0  0  0  0  0  0  0  0  0  0  0
    5.5020   10.7330   -5.6930 C   0  0  0  0  0  0  0  0  0  0  0  0
    6.9550   10.3140   -3.6450 C   0  0  0  0  0  0  0  0  0  0  0  0
    0.8300   11.4540   -1.7600 C   0  0  1  0  0  0  0  0  0  0  0  0
    1.9200   11.2640   -0.6720 C   0  0  0  0  0  0  0  0  0  0  0  0
    2.5570   12.6560   -0.4280 C   0  0  0  0  0  0  0  0  0  0  0  0
    1.6010   13.6500   -1.1280 C   0  0  1  0  0  0  0  0  0  0  0  0
    0.4340   13.8660   -0.1140 C   0  0  0  0  0  0  0  0  0  0  0  0
    2.2280   15.0080   -1.5830 C   0  0  2  0  0  0  0  0  0  0  0  0
    2.7760   15.8870   -0.4460 C   0  0  0  0  0  0  0  0  0  0  0  0
    1.8010   16.8560    0.1380 C   0  0  0  0  0  0  0  0  0  0  0  0
    0.6290   17.2150   -0.4170 C   0  0  0  0  0  0  0  0  0  0  0  0
    0.2250   16.7040   -1.8060 C   0  0  1  0  0  0  0  0  0  0  0  0
   -0.3080   17.8860   -2.6580 C   0  0  0  0  0  0  0  0  0  0  0  0
   -1.4360   18.6450   -1.9650 C   0  0  0  0  0  0  0  0  0  0  0  0
   -0.9770   19.1880   -0.6130 C   0  0  2  0  0  0  0  0  0  0  0  0
    0.0180   20.1920   -0.8330 O   0  0  0  0  0  0  0  0  0  0  0  0
   -0.4110   18.0880    0.3280 C   0  0  0  0  0  0  0  0  0  0  0  0
   -1.5620   17.1700    0.8080 C   0  0  0  0  0  0  0  0  0  0  0  0
    0.1450   18.7870    1.5980 C   0  0  0  0  0  0  0  0  0  0  0  0
    1.3180   15.8430   -2.5730 C   0  0  1  0  0  0  0  0  0  0  0  0
    2.2730   16.7830   -3.3690 C   0  0  0  0  0  0  0  0  0  0  0  0
    0.6010   14.9320   -3.6380 C   0  0  0  0  0  0  0  0  0  0  0  0
    0.1100   13.5540   -3.1560 C   0  0  0  0  0  0  0  0  0  0  0  0
    1.2150   12.8110   -2.4000 C   0  0  2  0  0  0  0  0  0  0  0  0
    2.3940   12.5600   -3.4010 C   0  0  0  0  0  0  0  0  0  0  0  0
   -0.2730    9.2845   -1.0219 H   0  0  0  0  0  0  0  0  0  0  0  0
   -1.3135    9.5210   -2.4669 H   0  0  0  0  0  0  0  0  0  0  0  0
   -0.0541    8.2401   -2.4669 H   0  0  0  0  0  0  0  0  0  0  0  0
    0.3402   10.5750   -3.6720 H   0  0  0  0  0  0  0  0  0  0  0  0
    2.5992    9.5376   -1.9277 H   0  0  0  0  0  0  0  0  0  0  0  0
    1.9281    8.6278   -3.3648 H   0  0  0  0  0  0  0  0  0  0  0  0
    3.0331    9.8884   -4.8241 H   0  0  0  0  0  0  0  0  0  0  0  0
    2.5800   11.4160   -3.9590 H   0  0  0  0  0  0  0  0  0  0  0  0
    4.1642    9.8364   -2.4938 H   0  0  0  0  0  0  0  0  0  0  0  0
    4.5098   11.1160   -5.9738 H   0  0  0  0  0  0  0  0  0  0  0  0
    6.2796   11.3956   -6.1008 H   0  0  0  0  0  0  0  0  0  0  0  0
    5.6328    9.7198   -6.1008 H   0  0  0  0  0  0  0  0  0  0  0  0
    6.9121   10.3260   -2.5459 H   0  0  0  0  0  0  0  0  0  0  0  0
    7.2260    9.3054   -3.9903 H   0  0  0  0  0  0  0  0  0  0  0  0
    7.7104   11.0351   -3.9903 H   0  0  0  0  0  0  0  0  0  0  0  0
   -0.2016   11.4962   -1.3804 H   0  0  0  0  0  0  0  0  0  0  0  0
    1.4665   10.8871    0.2566 H   0  0  0  0  0  0  0  0  0  0  0  0
    2.6773   10.5347   -0.9953 H   0  0  0  0  0  0  0  0  0  0  0  0
    2.6202   12.8709    0.6490 H   0  0  0  0  0  0  0  0  0  0  0  0
    3.5836   12.7194   -0.8179 H   0  0  0  0  0  0  0  0  0  0  0  0
    0.8223   13.7941    0.9127 H   0  0  0  0  0  0  0  0  0  0  0  0
   -0.0079   14.8612   -0.2701 H   0  0  0  0  0  0  0  0  0  0  0  0
   -0.3348   13.0949   -0.2701 H   0  0  0  0  0  0  0  0  0  0  0  0
    3.1073   14.6810   -2.1574 H   0  0  0  0  0  0  0  0  0  0  0  0
    3.1203   15.2234    0.3609 H   0  0  0  0  0  0  0  0  0  0  0  0
    3.5788   16.4937   -0.8904 H   0  0  0  0  0  0  0  0  0  0  0  0
    2.0630   17.3147    1.1028 H   0  0  0  0  0  0  0  0  0  0  0  0
   -0.5791   15.9723   -1.6386 H   0  0  0  0  0  0  0  0  0  0  0  0
    0.5204   18.5837   -2.8503 H   0  0  0  0  0  0  0  0  0  0  0  0
   -0.7112   17.4688   -3.5925 H   0  0  0  0  0  0  0  0  0  0  0  0
   -1.7501   19.4846   -2.6026 H   0  0  0  0  0  0  0  0  0  0  0  0
   -2.2753   17.9535   -1.7996 H   0  0  0  0  0  0  0  0  0  0  0  0
   -1.8598   19.6082   -0.1090 H   0  0  0  0  0  0  0  0  0  0  0  0
   -0.0670   20.8510   -0.1230 H   0  0  0  0  0  0  0  0  0  0  0  0
   -1.5832   17.1531    1.9077 H   0  0  0  0  0  0  0  0  0  0  0  0
   -2.5202   17.5546    0.4287 H   0  0  0  0  0  0  0  0  0  0  0  0
   -1.4002   16.1502    0.4287 H   0  0  0  0  0  0  0  0  0  0  0  0
   -0.2518   18.2882    2.4945 H   0  0  0  0  0  0  0  0  0  0  0  0
    1.2432   18.7249    1.5996 H   0  0  0  0  0  0  0  0  0  0  0  0
   -0.1626   19.8431    1.5996 H   0  0  0  0  0  0  0  0  0  0  0  0
    2.8751   17.3757   -2.6646 H   0  0  0  0  0  0  0  0  0  0  0  0
    2.9390   16.1783   -4.0021 H   0  0  0  0  0  0  0  0  0  0  0  0
    1.6789   17.4585   -4.0021 H   0  0  0  0  0  0  0  0  0  0  0  0
   -0.2733   15.4840   -4.0134 H   0  0  0  0  0  0  0  0  0  0  0  0
    1.3693   14.7150   -4.3947 H   0  0  0  0  0  0  0  0  0  0  0  0
   -0.7523   13.6931   -2.4873 H   0  0  0  0  0  0  0  0  0  0  0  0
   -0.1758   12.9570   -4.0346 H   0  0  0  0  0  0  0  0  0  0  0  0
    3.3179   12.3633   -2.8374 H   0  0  0  0  0  0  0  0  0  0  0  0
    2.1589   11.6918   -4.0342 H   0  0  0  0  0  0  0  0  0  0  0  0
    2.5329   13.4487   -4.0342 H   0  0  0  0  0  0  0  0  0  0  0  0
  1  2  1  0
  2  3  1  0
  3  4  1  0
  4  5  1  0
  5  6  1  0
  6  7  1  0
  7  8  1  0
  7  9  1  0
  2 10  1  0
 10 11  1  0
 11 12  1  0
 12 13  1  0
 13 14  1  1
 13 15  1  0
 15 16  1  0
 16 17  1  0
 17 18  2  0
 18 19  1  0
 19 20  1  0
 20 21  1  0
 21 22  1  0
 22 23  1  0
 22 24  1  0
 24 25  1  0
 24 26  1  0
 19 27  1  0
 27 28  1  6
 27 29  1  0
 29 30  1  0
 30 31  1  0
 31 32  1  6
  7  5  1  0
 31 10  1  0
 31 13  1  0
 27 15  1  0
 24 18  1  0
  1 33  1  0
  1 34  1  0
  1 35  1  0
  2 36  1  6
  3 37  1  0
  3 38  1  0
  4 39  1  0
  4 40  1  0
  5 41  1  1
  8 42  1  0
  8 43  1  0
  8 44  1  0
  9 45  1  0
  9 46  1  0
  9 47  1  0
 10 48  1  1
 11 49  1  0
 11 50  1  0
 12 51  1  0
 12 52  1  0
 14 53  1  0
 14 54  1  0
 14 55  1  0
 15 56  1  6
 16 57  1  0
 16 58  1  0
 17 59  1  0
 19 60  1  1
 20 61  1  0
 20 62  1  0
 21 63  1  0
 21 64  1  0
 22 65  1  1
 23 66  1  0
 25 67  1  0
 25 68  1  0
 25 69  1  0
 26 70  1  0
 26 71  1  0
 26 72  1  0
 28 73  1  0
 28 74  1  0
 28 75  1  0
 29 76  1  0
 29 77  1  0
 30 78  1  0
 30 79  1  0
 32 80  1  0
 32 81  1  0
 32 82  1  0
M  END
>  <meeko>  (13) 
{"is_sidechain": [false], "intermolecular_energy": 2.731, "internal_energy": -0.839}

$$$$
EPH_relaxed_0001_pdb2pqr_Repair_278_r2_0001_out
     RDKit          3D

 82 86  0  0  0  0  0  0  0  0999 V2000
    1.5330   10.6990   -4.8010 C   0  0  0  0  0  0  0  0  0  0  0  0
    0.8000   10.5320   -3.4670 C   0  0  2  0  0  0  0  0  0  0  0  0
   -0.3620    9.5230   -3.5650 C   0  0  0  0  0  0  0  0  0  0  0  0
   -0.2950    8.4050   -2.5210 C   0  0  0  0  0  0  0  0  0  0  0  0
    0.0080    8.9400   -1.1540 C   0  0  2  0  0  0  0  0  0  0  0  0
   -0.3460    8.0640   -0.0760 O   0  0  0  0  0  0  0  0  0  0  0  0
   -1.0610    9.3080   -0.1440 C   0  0  0  0  0  0  0  0  0  0  0  0
   -2.5170    9.1580   -0.4580 C   0  0  0  0  0  0  0  0  0  0  0  0
   -0.7100   10.2650    0.9530 C   0  0  0  0  0  0  0  0  0  0  0  0
    0.2780   11.8820   -2.9890 C   0  0  1  0  0  0  0  0  0  0  0  0
   -1.1120   11.7780   -2.3080 C   0  0  0  0  0  0  0  0  0  0  0  0
   -1.1340   12.8320   -1.1710 C   0  0  0  0  0  0  0  0  0  0  0  0
    0.0990   13.7250   -1.4440 C   0  0  1  0  0  0  0  0  0  0  0  0
   -0.3660   14.7230   -2.5500 C   0  0  0  0  0  0  0  0  0  0  0  0
    0.6990   14.4710   -0.2080 C   0  0  2  0  0  0  0  0  0  0  0  0
   -0.2460   15.4820    0.4650 C   0  0  0  0  0  0  0  0  0  0  0  0
   -0.1670   16.8770   -0.0610 C   0  0  0  0  0  0  0  0  0  0  0  0
    0.8210   17.3670   -0.8330 C   0  0  0  0  0  0  0  0  0  0  0  0
    2.0520   16.5160   -1.1710 C   0  0  1  0  0  0  0  0  0  0  0  0
    3.3370   17.3590   -0.9630 C   0  0  0  0  0  0  0  0  0  0  0  0
    3.3060   18.6740   -1.7350 C   0  0  0  0  0  0  0  0  0  0  0  0
    2.1010   19.5180   -1.3290 C   0  0  2  0  0  0  0  0  0  0  0  0
    2.2650   19.9320    0.0310 O   0  0  0  0  0  0  0  0  0  0  0  0
    0.7480   18.7690   -1.4870 C   0  0  0  0  0  0  0  0  0  0  0  0
    0.4270   18.5870   -2.9910 C   0  0  0  0  0  0  0  0  0  0  0  0
   -0.3710   19.6780   -0.9110 C   0  0  0  0  0  0  0  0  0  0  0  0
    2.1300   15.0970   -0.4610 C   0  0  1  0  0  0  0  0  0  0  0  0
    2.8070   15.2380    0.9370 C   0  0  0  0  0  0  0  0  0  0  0  0
    3.0570   14.1480   -1.3090 C   0  0  0  0  0  0  0  0  0  0  0  0
    2.3830   13.3470   -2.4390 C   0  0  0  0  0  0  0  0  0  0  0  0
    1.1230   12.6370   -1.9330 C   0  0  2  0  0  0  0  0  0  0  0  0
    1.5630   11.6100   -0.8340 C   0  0  0  0  0  0  0  0  0  0  0  0
    2.5894   10.9397   -4.6113 H   0  0  0  0  0  0  0  0  0  0  0  0
    1.4676    9.7629   -5.3750 H   0  0  0  0  0  0  0  0  0  0  0  0
    1.0685   11.5143   -5.3750 H   0  0  0  0  0  0  0  0  0  0  0  0
    1.5227   10.1335   -2.7398 H   0  0  0  0  0  0  0  0  0  0  0  0
   -1.3078   10.0682   -3.4300 H   0  0  0  0  0  0  0  0  0  0  0  0
   -0.2908    9.0452   -4.5532 H   0  0  0  0  0  0  0  0  0  0  0  0
   -1.2637    7.8846   -2.4934 H   0  0  0  0  0  0  0  0  0  0  0  0
    0.5143    7.7170   -2.8070 H   0  0  0  0  0  0  0  0  0  0  0  0
    0.8811    9.4886   -1.5370 H   0  0  0  0  0  0  0  0  0  0  0  0
   -3.0900    9.0990    0.4791 H   0  0  0  0  0  0  0  0  0  0  0  0
   -2.8575   10.0258   -1.0419 H   0  0  0  0  0  0  0  0  0  0  0  0
   -2.6734    8.2390   -1.0419 H   0  0  0  0  0  0  0  0  0  0  0  0
   -0.8857    9.7861    1.9276 H   0  0  0  0  0  0  0  0  0  0  0  0
    0.3500   10.5467    0.8686 H   0  0  0  0  0  0  0  0  0  0  0  0
   -1.3365   11.1652    0.8686 H   0  0  0  0  0  0  0  0  0  0  0  0
    0.2875   12.4313   -3.9420 H   0  0  0  0  0  0  0  0  0  0  0  0
   -1.9077   11.9908   -3.0371 H   0  0  0  0  0  0  0  0  0  0  0  0
   -1.2825   10.7662   -1.9115 H   0  0  0  0  0  0  0  0  0  0  0  0
   -2.0595   13.4253   -1.2092 H   0  0  0  0  0  0  0  0  0  0  0  0
   -1.1023   12.3703   -0.1731 H   0  0  0  0  0  0  0  0  0  0  0  0
   -0.7857   15.6237   -2.0782 H   0  0  0  0  0  0  0  0  0  0  0  0
    0.4941   15.0037   -3.1757 H   0  0  0  0  0  0  0  0  0  0  0  0
   -1.1342   14.2451   -3.1757 H   0  0  0  0  0  0  0  0  0  0  0  0
    0.8314   13.6560    0.5188 H   0  0  0  0  0  0  0  0  0  0  0  0
   -1.2777   15.1254    0.3290 H   0  0  0  0  0  0  0  0  0  0  0  0
    0.0664   15.5359    1.5183 H   0  0  0  0  0  0  0  0  0  0  0  0
   -0.9853   17.5624    0.2047 H   0  0  0  0  0  0  0  0  0  0  0  0
    1.9523   16.2445   -2.2323 H   0  0  0  0  0  0  0  0  0  0  0  0
    3.4426   17.5820    0.1090 H   0  0  0  0  0  0  0  0  0  0  0  0
    4.1865   16.7707   -1.3401 H   0  0  0  0  0  0  0  0  0  0  0  0
    4.2271   19.2370   -1.5238 H   0  0  0  0  0  0  0  0  0  0  0  0
    3.2301   18.4483   -2.8089 H   0  0  0  0  0  0  0  0  0  0  0  0
    2.0617   20.3841   -2.0060 H   0  0  0  0  0  0  0  0  0  0  0  0
    1.3820   20.1260    0.3880 H   0  0  0  0  0  0  0  0  0  0  0  0
   -0.5252   18.0471   -3.1000 H   0  0  0  0  0  0  0  0  0  0  0  0
    0.3461   19.5736   -3.4707 H   0  0  0  0  0  0  0  0  0  0  0  0
    1.2321   18.0110   -3.4707 H   0  0  0  0  0  0  0  0  0  0  0  0
   -0.3366   19.6501    0.1881 H   0  0  0  0  0  0  0  0  0  0  0  0
   -0.2183   20.7111   -1.2565 H   0  0  0  0  0  0  0  0  0  0  0  0
   -1.3509   19.3169   -1.2565 H   0  0  0  0  0  0  0  0  0  0  0  0
    2.0561   15.0816    1.7255 H   0  0  0  0  0  0  0  0  0  0  0  0
    3.6043   14.4866    1.0357 H   0  0  0  0  0  0  0  0  0  0  0  0
    3.2381   16.2452    1.0357 H   0  0  0  0  0  0  0  0  0  0  0  0
    3.8421   14.7696   -1.7643 H   0  0  0  0  0  0  0  0  0  0  0  0
    3.4219   13.3918   -0.5983 H   0  0  0  0  0  0  0  0  0  0  0  0
    2.1065   14.0347   -3.2518 H   0  0  0  0  0  0  0  0  0  0  0  0
    3.0917   12.5875   -2.8009 H   0  0  0  0  0  0  0  0  0  0  0  0
    1.3795   12.0382    0.1625 H   0  0  0  0  0  0  0  0  0  0  0  0
    0.9836   10.6818   -0.9466 H   0  0  0  0  0  0  0  0  0  0  0  0
    2.6347   11.3892   -0.9466 H   0  0  0  0  0  0  0  0  0  0  0  0
  1  2  1  0
  2  3  1  0
  3  4  1  0
  4  5  1  0
  5  6  1  0
  6  7  1  0
  7  8  1  0
  7  9  1  0
  2 10  1  0
 10 11  1  0
 11 12  1  0
 12 13  1  0
 13 14  1  6
 13 15  1  0
 15 16  1  0
 16 17  1  0
 17 18  2  0
 18 19  1  0
 19 20  1  0
 20 21  1  0
 21 22  1  0
 22 23  1  0
 22 24  1  0
 24 25  1  0
 24 26  1  0
 19 27  1  0
 27 28  1  1
 27 29  1  0
 29 30  1  0
 30 31  1  0
 31 32  1  1
  7  5  1  0
 31 10  1  0
 31 13  1  0
 27 15  1  0
 24 18  1  0
  1 33  1  0
  1 34  1  0
  1 35  1  0
  2 36  1  1
  3 37  1  0
  3 38  1  0
  4 39  1  0
  4 40  1  0
  5 41  1  6
  8 42  1  0
  8 43  1  0
  8 44  1  0
  9 45  1  0
  9 46  1  0
  9 47  1  0
 10 48  1  6
 11 49  1  0
 11 50  1  0
 12 51  1  0
 12 52  1  0
 14 53  1  0
 14 54  1  0
 14 55  1  0
 15 56  1  1
 16 57  1  0
 16 58  1  0
 17 59  1  0
 19 60  1  6
 20 61  1  0
 20 62  1  0
 21 63  1  0
 21 64  1  0
 22 65  1  6
 23 66  1  0
 25 67  1  0
 25 68  1  0
 25 69  1  0
 26 70  1  0
 26 71  1  0
 26 72  1  0
 28 73  1  0
 28 74  1  0
 28 75  1  0
 29 76  1  0
 29 77  1  0
 30 78  1  0
 30 79  1  0
 32 80  1  0
 32 81  1  0
 32 82  1  0
M  END
>  <meeko>  (14) 
{"is_sidechain": [false], "intermolecular_energy": 2.731, "internal_energy": -0.839}

$$$$
EPH_relaxed_0001_pdb2pqr_Repair_278_r2_0001_out
     RDKit          3D

 82 86  0  0  0  0  0  0  0  0999 V2000
    0.7350   18.8710   -2.5530 C   0  0  0  0  0  0  0  0  0  0  0  0
    0.3570   17.9150   -1.4180 C   0  0  2  0  0  0  0  0  0  0  0  0
    0.9740   18.3400   -0.0710 C   0  0  0  0  0  0  0  0  0  0  0  0
    2.0230   19.4480   -0.1970 C   0  0  0  0  0  0  0  0  0  0  0  0
    3.3690   18.9940    0.2820 C   0  0  2  0  0  0  0  0  0  0  0  0
    3.3350   18.0710    1.3780 O   0  0  0  0  0  0  0  0  0  0  0  0
    3.9360   19.3490    1.6440 C   0  0  0  0  0  0  0  0  0  0  0  0
    3.1690   20.1930    2.6120 C   0  0  0  0  0  0  0  0  0  0  0  0
    5.4190   19.2880    1.8390 C   0  0  0  0  0  0  0  0  0  0  0  0
    0.7930   16.4960   -1.7670 C   0  0  1  0  0  0  0  0  0  0  0  0
    2.2730   16.4230   -2.2300 C   0  0  0  0  0  0  0  0  0  0  0  0
    2.8370   15.0750   -1.7130 C   0  0  0  0  0  0  0  0  0  0  0  0
    1.5900   14.2760   -1.2640 C   0  0  1  0  0  0  0  0  0  0  0  0
    1.0060   13.6720   -2.5800 C   0  0  0  0  0  0  0  0  0  0  0  0
    1.8270   13.1760   -0.1790 C   0  0  2  0  0  0  0  0  0  0  0  0
    2.7640   12.0320   -0.6040 C   0  0  0  0  0  0  0  0  0  0  0  0
    2.0930   10.8610   -1.2410 C   0  0  0  0  0  0  0  0  0  0  0  0
    0.7720   10.6040   -1.2090 C   0  0  0  0  0  0  0  0  0  0  0  0
   -0.1830   11.4870   -0.3950 C   0  0  1  0  0  0  0  0  0  0  0  0
   -1.1400   10.5900    0.4320 C   0  0  0  0  0  0  0  0  0  0  0  0
   -1.8800    9.5720   -0.4310 C   0  0  0  0  0  0  0  0  0  0  0  0
   -0.8970    8.6750   -1.1790 C   0  0  2  0  0  0  0  0  0  0  0  0
   -0.1980    7.8640   -0.2290 O   0  0  0  0  0  0  0  0  0  0  0  0
    0.1240    9.4690   -2.0400 C   0  0  0  0  0  0  0  0  0  0  0  0
   -0.6000   10.1060   -3.2510 C   0  0  0  0  0  0  0  0  0  0  0  0
    1.1430    8.4550   -2.6280 C   0  0  0  0  0  0  0  0  0  0  0  0
    0.5010   12.6220    0.4830 C   0  0  1  0  0  0  0  0  0  0  0  0
    0.9050   12.0470    1.8750 C   0  0  0  0  0  0  0  0  0  0  0  0
   -0.5500   13.7610    0.7600 C   0  0  0  0  0  0  0  0  0  0  0  0
   -0.6530   14.8830   -0.2900 C   0  0  0  0  0  0  0  0  0  0  0  0
    0.7320   15.4360   -0.6390 C   0  0  2  0  0  0  0  0  0  0  0  0
    1.3350   16.0710    0.6600 C   0  0  0  0  0  0  0  0  0  0  0  0
    1.1081   19.8147   -2.1285 H   0  0  0  0  0  0  0  0  0  0  0  0
    1.5194   18.4123   -3.1729 H   0  0  0  0  0  0  0  0  0  0  0  0
   -0.1510   19.0727   -3.1729 H   0  0  0  0  0  0  0  0  0  0  0  0
   -0.7366   17.9508   -1.3053 H   0  0  0  0  0  0  0  0  0  0  0  0
    0.1660   18.6995    0.5831 H   0  0  0  0  0  0  0  0  0  0  0  0
    1.4860   17.4578    0.3407 H   0  0  0  0  0  0  0  0  0  0  0  0
    2.1021   19.7456   -1.2530 H   0  0  0  0  0  0  0  0  0  0  0  0
    1.7041   20.2949    0.4283 H   0  0  0  0  0  0  0  0  0  0  0  0
    3.7835   19.0751   -0.7337 H   0  0  0  0  0  0  0  0  0  0  0  0
    3.4323   19.9032    3.6399 H   0  0  0  0  0  0  0  0  0  0  0  0
    3.4200   21.2523    2.4539 H   0  0  0  0  0  0  0  0  0  0  0  0
    2.0906   20.0442    2.4539 H   0  0  0  0  0  0  0  0  0  0  0  0
    5.6473   19.2786    2.9150 H   0  0  0  0  0  0  0  0  0  0  0  0
    5.8128   18.3729    1.3726 H   0  0  0  0  0  0  0  0  0  0  0  0
    5.8866   20.1677    1.3726 H   0  0  0  0  0  0  0  0  0  0  0  0
    0.0515   16.2608   -2.5448 H   0  0  0  0  0  0  0  0  0  0  0  0
    2.3288   16.4609   -3.3279 H   0  0  0  0  0  0  0  0  0  0  0  0
    2.8525   17.2709   -1.8359 H   0  0  0  0  0  0  0  0  0  0  0  0
    3.3702   14.5440   -2.5153 H   0  0  0  0  0  0  0  0  0  0  0  0
    3.5609   15.2117   -0.8962 H   0  0  0  0  0  0  0  0  0  0  0  0
    0.2612   12.9017   -2.3310 H   0  0  0  0  0  0  0  0  0  0  0  0
    0.5270   14.4687   -3.1681 H   0  0  0  0  0  0  0  0  0  0  0  0
    1.8183   13.2201   -3.1681 H   0  0  0  0  0  0  0  0  0  0  0  0
    2.3669   13.7290    0.6037 H   0  0  0  0  0  0  0  0  0  0  0  0
    3.4923   12.4380   -1.3215 H   0  0  0  0  0  0  0  0  0  0  0  0
    3.2214   11.6536    0.3221 H   0  0  0  0  0  0  0  0  0  0  0  0
    2.7318   10.1477   -1.7824 H   0  0  0  0  0  0  0  0  0  0  0  0
   -0.7591   12.0690   -1.1294 H   0  0  0  0  0  0  0  0  0  0  0  0
   -0.5515   10.0497    1.1881 H   0  0  0  0  0  0  0  0  0  0  0  0
   -1.8928   11.2441    0.8962 H   0  0  0  0  0  0  0  0  0  0  0  0
   -2.5173    8.9489    0.2137 H   0  0  0  0  0  0  0  0  0  0  0  0
   -2.4916   10.1140   -1.1674 H   0  0  0  0  0  0  0  0  0  0  0  0
   -1.4805    8.0561   -1.8765 H   0  0  0  0  0  0  0  0  0  0  0  0
    0.3620    7.2450   -0.7270 H   0  0  0  0  0  0  0  0  0  0  0  0
   -1.3806   10.7928   -2.8918 H   0  0  0  0  0  0  0  0  0  0  0  0
    0.1263   10.6632   -3.8609 H   0  0  0  0  0  0  0  0  0  0  0  0
   -1.0602    9.3146   -3.8609 H   0  0  0  0  0  0  0  0  0  0  0  0
    1.6619    7.9387   -1.8069 H   0  0  0  0  0  0  0  0  0  0  0  0
    0.6109    7.7174   -3.2468 H   0  0  0  0  0  0  0  0  0  0  0  0
    1.8779    8.9907   -3.2468 H   0  0  0  0  0  0  0  0  0  0  0  0
    0.4678   12.6693    2.6697 H   0  0  0  0  0  0  0  0  0  0  0  0
    0.5312   11.0167    1.9686 H   0  0  0  0  0  0  0  0  0  0  0  0
    2.0010   12.0494    1.9686 H   0  0  0  0  0  0  0  0  0  0  0  0
   -1.5399   13.2879    0.8393 H   0  0  0  0  0  0  0  0  0  0  0  0
   -0.2006   14.2573    1.6774 H   0  0  0  0  0  0  0  0  0  0  0  0
   -1.1202   14.4813   -1.2013 H   0  0  0  0  0  0  0  0  0  0  0  0
   -1.2616   15.6989    0.1271 H   0  0  0  0  0  0  0  0  0  0  0  0
    0.8840   15.5960    1.5437 H   0  0  0  0  0  0  0  0  0  0  0  0
    2.4235   15.9129    0.6742 H   0  0  0  0  0  0  0  0  0  0  0  0
    1.1209   17.1499    0.6742 H   0  0  0  0  0  0  0  0  0  0  0  0
  1  2  1  0
  2  3  1  0
  3  4  1  0
  4  5  1  0
  5  6  1  0
  6  7  1  0
  7  8  1  0
  7  9  1  0
  2 10  1  0
 10 11  1  0
 11 12  1  0
 12 13  1  0
 13 14  1  6
 13 15  1  0
 15 16  1  0
 16 17  1  0
 17 18  2  0
 18 19  1  0
 19 20  1  0
 20 21  1  0
 21 22  1  0
 22 23  1  0
 22 24  1  0
 24 25  1  0
 24 26  1  0
 19 27  1  0
 27 28  1  1
 27 29  1  0
 29 30  1  0
 30 31  1  0
 31 32  1  1
  7  5  1  0
 31 10  1  0
 31 13  1  0
 27 15  1  0
 24 18  1  0
  1 33  1  0
  1 34  1  0
  1 35  1  0
  2 36  1  1
  3 37  1  0
  3 38  1  0
  4 39  1  0
  4 40  1  0
  5 41  1  6
  8 42  1  0
  8 43  1  0
  8 44  1  0
  9 45  1  0
  9 46  1  0
  9 47  1  0
 10 48  1  6
 11 49  1  0
 11 50  1  0
 12 51  1  0
 12 52  1  0
 14 53  1  0
 14 54  1  0
 14 55  1  0
 15 56  1  1
 16 57  1  0
 16 58  1  0
 17 59  1  0
 19 60  1  6
 20 61  1  0
 20 62  1  0
 21 63  1  0
 21 64  1  0
 22 65  1  6
 23 66  1  0
 25 67  1  0
 25 68  1  0
 25 69  1  0
 26 70  1  0
 26 71  1  0
 26 72  1  0
 28 73  1  0
 28 74  1  0
 28 75  1  0
 29 76  1  0
 29 77  1  0
 30 78  1  0
 30 79  1  0
 32 80  1  0
 32 81  1  0
 32 82  1  0
M  END
>  <meeko>  (15) 
{"is_sidechain": [false], "intermolecular_energy": 2.731, "internal_energy": -0.839}

$$$$
EPH_relaxed_0001_pdb2pqr_Repair_278_r2_0001_out
     RDKit          3D

 82 86  0  0  0  0  0  0  0  0999 V2000
   -2.4470    7.8000   -0.0300 C   0  0  0  0  0  0  0  0  0  0  0  0
   -3.0900    9.1900   -0.0570 C   0  0  2  0  0  0  0  0  0  0  0  0
   -4.5740    9.1350   -0.4720 C   0  0  0  0  0  0  0  0  0  0  0  0
   -5.1480    7.7170   -0.5220 C   0  0  0  0  0  0  0  0  0  0  0  0
   -5.8720    7.4570   -1.8080 C   0  0  2  0  0  0  0  0  0  0  0  0
   -6.8350    8.4570   -2.1650 O   0  0  0  0  0  0  0  0  0  0  0  0
   -7.3560    7.1480   -1.8840 C   0  0  0  0  0  0  0  0  0  0  0  0
   -8.2030    7.0810   -0.6530 C   0  0  0  0  0  0  0  0  0  0  0  0
   -7.8770    6.4340   -3.0930 C   0  0  0  0  0  0  0  0  0  0  0  0
   -2.3180   10.1010   -1.0030 C   0  0  1  0  0  0  0  0  0  0  0  0
   -2.9570   11.5100   -1.1300 C   0  0  0  0  0  0  0  0  0  0  0  0
   -1.7900   12.5170   -1.2970 C   0  0  0  0  0  0  0  0  0  0  0  0
   -0.5540   11.6360   -1.5930 C   0  0  1  0  0  0  0  0  0  0  0  0
   -0.6530   11.3040   -3.1150 C   0  0  0  0  0  0  0  0  0  0  0  0
    0.8360   12.2500   -1.2260 C   0  0  2  0  0  0  0  0  0  0  0  0
    1.2070   13.5320   -1.9910 C   0  0  0  0  0  0  0  0  0  0  0  0
    1.9520   13.3200   -3.2670 C   0  0  0  0  0  0  0  0  0  0  0  0
    2.5590   12.1770   -3.6380 C   0  0  0  0  0  0  0  0  0  0  0  0
    2.6140   10.9710   -2.6910 C   0  0  1  0  0  0  0  0  0  0  0  0
    4.0540   10.3960   -2.6680 C   0  0  0  0  0  0  0  0  0  0  0  0
    4.5750   10.0660   -4.0640 C   0  0  0  0  0  0  0  0  0  0  0  0
    4.5590   11.3030   -4.9580 C   0  0  2  0  0  0  0  0  0  0  0  0
    5.5140   12.2450   -4.4590 O   0  0  0  0  0  0  0  0  0  0  0  0
    3.1610   11.9750   -5.0510 C   0  0  0  0  0  0  0  0  0  0  0  0
    2.2020   11.0700   -5.8630 C   0  0  0  0  0  0  0  0  0  0  0  0
    3.3140   13.2870   -5.8660 C   0  0  0  0  0  0  0  0  0  0  0  0
    2.0280   11.2080   -1.2330 C   0  0  1  0  0  0  0  0  0  0  0  0
    3.1350   11.7910   -0.3020 C   0  0  0  0  0  0  0  0  0  0  0  0
    1.6130    9.8210   -0.6140 C   0  0  0  0  0  0  0  0  0  0  0  0
    0.1860    9.3250   -0.9160 C   0  0  0  0  0  0  0  0  0  0  0  0
   -0.8460   10.4220   -0.6380 C   0  0  2  0  0  0  0  0  0  0  0  0
   -0.7850   10.7610    0.8900 C   0  0  0  0  0  0  0  0  0  0  0  0
   -2.3008    7.4839    1.0134 H   0  0  0  0  0  0  0  0  0  0  0  0
   -3.1044    7.0819   -0.5420 H   0  0  0  0  0  0  0  0  0  0  0  0
   -1.4741    7.8361   -0.5420 H   0  0  0  0  0  0  0  0  0  0  0  0
   -3.0479    9.5943    0.9651 H   0  0  0  0  0  0  0  0  0  0  0  0
   -5.1589    9.7208    0.2524 H   0  0  0  0  0  0  0  0  0  0  0  0
   -4.6375    9.5431   -1.4915 H   0  0  0  0  0  0  0  0  0  0  0  0
   -4.3237    6.9951   -0.4248 H   0  0  0  0  0  0  0  0  0  0  0  0
   -5.8665    7.6087    0.3039 H   0  0  0  0  0  0  0  0  0  0  0  0
   -4.9905    6.9525   -2.2305 H   0  0  0  0  0  0  0  0  0  0  0  0
   -7.5598    7.1319    0.2379 H   0  0  0  0  0  0  0  0  0  0  0  0
   -8.9069    7.9263   -0.6458 H   0  0  0  0  0  0  0  0  0  0  0  0
   -8.7652    6.1356   -0.6458 H   0  0  0  0  0  0  0  0  0  0  0  0
   -8.4981    5.5829   -2.7769 H   0  0  0  0  0  0  0  0  0  0  0  0
   -8.4833    7.1268   -3.6950 H   0  0  0  0  0  0  0  0  0  0  0  0
   -7.0323    6.0679   -3.6950 H   0  0  0  0  0  0  0  0  0  0  0  0
   -2.3548    9.4909   -1.9176 H   0  0  0  0  0  0  0  0  0  0  0  0
   -3.6187   11.5481   -2.0079 H   0  0  0  0  0  0  0  0  0  0  0  0
   -3.5624   11.7505   -0.2436 H   0  0  0  0  0  0  0  0  0  0  0  0
   -1.9865   13.2040   -2.1333 H   0  0  0  0  0  0  0  0  0  0  0  0
   -1.6504   13.1455   -0.4051 H   0  0  0  0  0  0  0  0  0  0  0  0
   -0.9652   10.2570   -3.2423 H   0  0  0  0  0  0  0  0  0  0  0  0
   -1.3925   11.9672   -3.5876 H   0  0  0  0  0  0  0  0  0  0  0  0
    0.3289   11.4539   -3.5876 H   0  0  0  0  0  0  0  0  0  0  0  0
    0.6871   12.5587   -0.1808 H   0  0  0  0  0  0  0  0  0  0  0  0
    0.2762   14.0690   -2.2261 H   0  0  0  0  0  0  0  0  0  0  0  0
    1.8854   14.0939   -1.3322 H   0  0  0  0  0  0  0  0  0  0  0  0
    2.0100   14.1697   -3.9632 H   0  0  0  0  0  0  0  0  0  0  0  0
    1.9213   10.2249   -3.1076 H   0  0  0  0  0  0  0  0  0  0  0  0
    4.7229   11.1386   -2.2085 H   0  0  0  0  0  0  0  0  0  0  0  0
    4.0305    9.4600   -2.0906 H   0  0  0  0  0  0  0  0  0  0  0  0
    5.6066    9.6925   -3.9844 H   0  0  0  0  0  0  0  0  0  0  0  0
    3.9228    9.3011   -4.5107 H   0  0  0  0  0  0  0  0  0  0  0  0
    4.8174   10.9768   -5.9762 H   0  0  0  0  0  0  0  0  0  0  0  0
    6.3910   11.9700   -4.7730 H   0  0  0  0  0  0  0  0  0  0  0  0
    1.5794   10.4825   -5.1722 H   0  0  0  0  0  0  0  0  0  0  0  0
    1.5563   11.6955   -6.4968 H   0  0  0  0  0  0  0  0  0  0  0  0
    2.7891   10.3891   -6.4968 H   0  0  0  0  0  0  0  0  0  0  0  0
    3.4132   14.1379   -5.1759 H   0  0  0  0  0  0  0  0  0  0  0  0
    4.2107   13.2225   -6.4998 H   0  0  0  0  0  0  0  0  0  0  0  0
    2.4265   13.4305   -6.4998 H   0  0  0  0  0  0  0  0  0  0  0  0
    2.8475   11.6396    0.7489 H   0  0  0  0  0  0  0  0  0  0  0  0
    4.0877   11.2776   -0.4991 H   0  0  0  0  0  0  0  0  0  0  0  0
    3.2507   12.8670   -0.4991 H   0  0  0  0  0  0  0  0  0  0  0  0
    2.3156    9.0640   -0.9926 H   0  0  0  0  0  0  0  0  0  0  0  0
    1.6410    9.9718    0.4753 H   0  0  0  0  0  0  0  0  0  0  0  0
    0.1234    9.0319   -1.9744 H   0  0  0  0  0  0  0  0  0  0  0  0
   -0.0317    8.4655   -0.2649 H   0  0  0  0  0  0  0  0  0  0  0  0
   -0.9499    9.8446    1.4757 H   0  0  0  0  0  0  0  0  0  0  0  0
    0.2028   11.1792    1.1337 H   0  0  0  0  0  0  0  0  0  0  0  0
   -1.5651   11.4973    1.1337 H   0  0  0  0  0  0  0  0  0  0  0  0
  1  2  1  0
  2  3  1  0
  3  4  1  0
  4  5  1  0
  5  6  1  0
  6  7  1  0
  7  8  1  0
  7  9  1  0
  2 10  1  0
 10 11  1  0
 11 12  1  0
 12 13  1  0
 13 14  1  6
 13 15  1  0
 15 16  1  0
 16 17  1  0
 17 18  2  0
 18 19  1  0
 19 20  1  0
 20 21  1  0
 21 22  1  0
 22 23  1  0
 22 24  1  0
 24 25  1  0
 24 26  1  0
 19 27  1  0
 27 28  1  1
 27 29  1  0
 29 30  1  0
 30 31  1  0
 31 32  1  1
  7  5  1  0
 31 10  1  0
 31 13  1  0
 27 15  1  0
 24 18  1  0
  1 33  1  0
  1 34  1  0
  1 35  1  0
  2 36  1  1
  3 37  1  0
  3 38  1  0
  4 39  1  0
  4 40  1  0
  5 41  1  6
  8 42  1  0
  8 43  1  0
  8 44  1  0
  9 45  1  0
  9 46  1  0
  9 47  1  0
 10 48  1  6
 11 49  1  0
 11 50  1  0
 12 51  1  0
 12 52  1  0
 14 53  1  0
 14 54  1  0
 14 55  1  0
 15 56  1  1
 16 57  1  0
 16 58  1  0
 17 59  1  0
 19 60  1  6
 20 61  1  0
 20 62  1  0
 21 63  1  0
 21 64  1  0
 22 65  1  6
 23 66  1  0
 25 67  1  0
 25 68  1  0
 25 69  1  0
 26 70  1  0
 26 71  1  0
 26 72  1  0
 28 73  1  0
 28 74  1  0
 28 75  1  0
 29 76  1  0
 29 77  1  0
 30 78  1  0
 30 79  1  0
 32 80  1  0
 32 81  1  0
 32 82  1  0
M  END
>  <meeko>  (16) 
{"is_sidechain": [false], "intermolecular_energy": 2.731, "internal_energy": -0.839}

$$$$
EPH_relaxed_0001_pdb2pqr_Repair_278_r2_0001_out
     RDKit          3D

 82 86  0  0  0  0  0  0  0  0999 V2000
    0.9290   14.9530   -2.6620 C   0  0  0  0  0  0  0  0  0  0  0  0
    1.1840   14.2780   -4.0120 C   0  0  2  0  0  0  0  0  0  0  0  0
    0.4740   15.0080   -5.1700 C   0  0  0  0  0  0  0  0  0  0  0  0
    0.9420   14.5630   -6.5580 C   0  0  0  0  0  0  0  0  0  0  0  0
    0.7470   15.6400   -7.5810 C   0  0  2  0  0  0  0  0  0  0  0  0
    0.4720   15.1660   -8.9050 O   0  0  0  0  0  0  0  0  0  0  0  0
    1.7050   15.8840   -8.7320 C   0  0  0  0  0  0  0  0  0  0  0  0
    2.9300   15.0450   -8.9200 C   0  0  0  0  0  0  0  0  0  0  0  0
    1.7130   17.2320   -9.3830 C   0  0  0  0  0  0  0  0  0  0  0  0
    0.7330   12.8230   -3.9600 C   0  0  1  0  0  0  0  0  0  0  0  0
    1.8550   11.8340   -4.3740 C   0  0  0  0  0  0  0  0  0  0  0  0
    1.6740   10.5620   -3.5060 C   0  0  0  0  0  0  0  0  0  0  0  0
    0.2740   10.7220   -2.8670 C   0  0  1  0  0  0  0  0  0  0  0  0
   -0.7270   10.2630   -3.9740 C   0  0  0  0  0  0  0  0  0  0  0  0
    0.0370    9.9610   -1.5220 C   0  0  2  0  0  0  0  0  0  0  0  0
    0.1380    8.4280   -1.6140 C   0  0  0  0  0  0  0  0  0  0  0  0
   -1.1420    7.7220   -1.9140 C   0  0  0  0  0  0  0  0  0  0  0  0
   -2.3730    8.2590   -1.8230 C   0  0  0  0  0  0  0  0  0  0  0  0
   -2.5720    9.6830   -1.2870 C   0  0  1  0  0  0  0  0  0  0  0  0
   -3.7300    9.6900   -0.2550 C   0  0  0  0  0  0  0  0  0  0  0  0
   -5.0170    9.0910   -0.8140 C   0  0  0  0  0  0  0  0  0  0  0  0
   -4.7920    7.6560   -1.2830 C   0  0  2  0  0  0  0  0  0  0  0  0
   -4.5100    6.8370   -0.1440 O   0  0  0  0  0  0  0  0  0  0  0  0
   -3.6410    7.5230   -2.3200 C   0  0  0  0  0  0  0  0  0  0  0  0
   -4.0760    8.1570   -3.6640 C   0  0  0  0  0  0  0  0  0  0  0  0
   -3.4250    6.0120   -2.6030 C   0  0  0  0  0  0  0  0  0  0  0  0
   -1.2670   10.4090   -0.7450 C   0  0  1  0  0  0  0  0  0  0  0  0
   -1.0390   10.0450    0.7540 C   0  0  0  0  0  0  0  0  0  0  0  0
   -1.4870   11.9670   -0.7950 C   0  0  0  0  0  0  0  0  0  0  0  0
   -1.1220   12.6790   -2.1110 C   0  0  0  0  0  0  0  0  0  0  0  0
    0.2760   12.2690   -2.5870 C   0  0  2  0  0  0  0  0  0  0  0  0
    1.3060   12.7380   -1.5040 C   0  0  0  0  0  0  0  0  0  0  0  0
    1.1912   14.2591   -1.8498 H   0  0  0  0  0  0  0  0  0  0  0  0
    1.5465   15.8599   -2.5831 H   0  0  0  0  0  0  0  0  0  0  0  0
   -0.1339   15.2251   -2.5831 H   0  0  0  0  0  0  0  0  0  0  0  0
    2.2658   14.3252   -4.2055 H   0  0  0  0  0  0  0  0  0  0  0  0
   -0.6064   14.8171   -5.0902 H   0  0  0  0  0  0  0  0  0  0  0  0
    0.7200   16.0759   -5.0753 H   0  0  0  0  0  0  0  0  0  0  0  0
    2.0108   14.3076   -6.5088 H   0  0  0  0  0  0  0  0  0  0  0  0
    0.3416   13.6918   -6.8590 H   0  0  0  0  0  0  0  0  0  0  0  0
    0.3160   16.3125   -6.8246 H   0  0  0  0  0  0  0  0  0  0  0  0
    3.3376   14.7658   -7.9372 H   0  0  0  0  0  0  0  0  0  0  0  0
    2.6689   14.1352   -9.4805 H   0  0  0  0  0  0  0  0  0  0  0  0
    3.6839   15.6173   -9.4805 H   0  0  0  0  0  0  0  0  0  0  0  0
    1.7176   18.0132   -8.6086 H   0  0  0  0  0  0  0  0  0  0  0  0
    2.6118   17.3313  -10.0094 H   0  0  0  0  0  0  0  0  0  0  0  0
    0.8155   17.3420  -10.0094 H   0  0  0  0  0  0  0  0  0  0  0  0
   -0.1217   12.8705   -4.6509 H   0  0  0  0  0  0  0  0  0  0  0  0
    1.7622   11.5810   -5.4405 H   0  0  0  0  0  0  0  0  0  0  0  0
    2.8494   12.2785   -4.2202 H   0  0  0  0  0  0  0  0  0  0  0  0
    1.7150    9.6570   -4.1299 H   0  0  0  0  0  0  0  0  0  0  0  0
    2.4673   10.4553   -2.7515 H   0  0  0  0  0  0  0  0  0  0  0  0
   -1.6304    9.8488   -3.5025 H   0  0  0  0  0  0  0  0  0  0  0  0
   -1.0022   11.1249   -4.5997 H   0  0  0  0  0  0  0  0  0  0  0  0
   -0.2535    9.4920   -4.5997 H   0  0  0  0  0  0  0  0  0  0  0  0
    0.8961   10.2814   -0.9143 H   0  0  0  0  0  0  0  0  0  0  0  0
    0.8566    8.1818   -2.4096 H   0  0  0  0  0  0  0  0  0  0  0  0
    0.4495    8.0831   -0.6170 H   0  0  0  0  0  0  0  0  0  0  0  0
   -1.0737    6.6728   -2.2372 H   0  0  0  0  0  0  0  0  0  0  0  0
   -2.8426   10.3001   -2.1564 H   0  0  0  0  0  0  0  0  0  0  0  0
   -3.4220    9.1052    0.6243 H   0  0  0  0  0  0  0  0  0  0  0  0
   -3.9365   10.7381    0.0072 H   0  0  0  0  0  0  0  0  0  0  0  0
   -5.7874    9.0965   -0.0288 H   0  0  0  0  0  0  0  0  0  0  0  0
   -5.3406    9.6950   -1.6745 H   0  0  0  0  0  0  0  0  0  0  0  0
   -5.7110    7.3276   -1.7906 H   0  0  0  0  0  0  0  0  0  0  0  0
   -4.5990    7.3950    0.6480 H   0  0  0  0  0  0  0  0  0  0  0  0
   -4.6883    9.0494   -3.4673 H   0  0  0  0  0  0  0  0  0  0  0  0
   -3.1838    8.4441   -4.2398 H   0  0  0  0  0  0  0  0  0  0  0  0
   -4.6650    7.4279   -4.2398 H   0  0  0  0  0  0  0  0  0  0  0  0
   -3.3472    5.4679   -1.6501 H   0  0  0  0  0  0  0  0  0  0  0  0
   -4.2765    5.6216   -3.1797 H   0  0  0  0  0  0  0  0  0  0  0  0
   -2.4983    5.8758   -3.1797 H   0  0  0  0  0  0  0  0  0  0  0  0
   -1.5146   10.8043    1.3921 H   0  0  0  0  0  0  0  0  0  0  0  0
   -1.4819    9.0602    0.9637 H   0  0  0  0  0  0  0  0  0  0  0  0
    0.0404   10.0137    0.9637 H   0  0  0  0  0  0  0  0  0  0  0  0
   -2.5519   12.1590   -0.5973 H   0  0  0  0  0  0  0  0  0  0  0  0
   -0.7965   12.3790   -0.0443 H   0  0  0  0  0  0  0  0  0  0  0  0
   -1.8583   12.4091   -2.8824 H   0  0  0  0  0  0  0  0  0  0  0  0
   -1.1284   13.7649   -1.9358 H   0  0  0  0  0  0  0  0  0  0  0  0
    0.8945   12.5506   -0.5012 H   0  0  0  0  0  0  0  0  0  0  0  0
    2.2456   12.1790   -1.6251 H   0  0  0  0  0  0  0  0  0  0  0  0
    1.5012   13.8137   -1.6251 H   0  0  0  0  0  0  0  0  0  0  0  0
  1  2  1  0
  2  3  1  0
  3  4  1  0
  4  5  1  0
  5  6  1  0
  6  7  1  0
  7  8  1  0
  7  9  1  0
  2 10  1  0
 10 11  1  0
 11 12  1  0
 12 13  1  0
 13 14  1  6
 13 15  1  0
 15 16  1  0
 16 17  1  0
 17 18  2  0
 18 19  1  0
 19 20  1  0
 20 21  1  0
 21 22  1  0
 22 23  1  0
 22 24  1  0
 24 25  1  0
 24 26  1  0
 19 27  1  0
 27 28  1  1
 27 29  1  0
 29 30  1  0
 30 31  1  0
 31 32  1  1
  7  5  1  0
 31 10  1  0
 31 13  1  0
 27 15  1  0
 24 18  1  0
  1 33  1  0
  1 34  1  0
  1 35  1  0
  2 36  1  6
  3 37  1  0
  3 38  1  0
  4 39  1  0
  4 40  1  0
  5 41  1  1
  8 42  1  0
  8 43  1  0
  8 44  1  0
  9 45  1  0
  9 46  1  0
  9 47  1  0
 10 48  1  6
 11 49  1  0
 11 50  1  0
 12 51  1  0
 12 52  1  0
 14 53  1  0
 14 54  1  0
 14 55  1  0
 15 56  1  1
 16 57  1  0
 16 58  1  0
 17 59  1  0
 19 60  1  6
 20 61  1  0
 20 62  1  0
 21 63  1  0
 21 64  1  0
 22 65  1  6
 23 66  1  0
 25 67  1  0
 25 68  1  0
 25 69  1  0
 26 70  1  0
 26 71  1  0
 26 72  1  0
 28 73  1  0
 28 74  1  0
 28 75  1  0
 29 76  1  0
 29 77  1  0
 30 78  1  0
 30 79  1  0
 32 80  1  0
 32 81  1  0
 32 82  1  0
M  END
>  <meeko>  (17) 
{"is_sidechain": [false], "intermolecular_energy": 2.731, "internal_energy": -0.839}

$$$$
EPH_relaxed_0001_pdb2pqr_Repair_278_r2_0001_out
     RDKit          3D

 82 86  0  0  0  0  0  0  0  0999 V2000
    0.7210    8.1050   -2.4960 C   0  0  0  0  0  0  0  0  0  0  0  0
   -0.6910    8.4270   -2.0000 C   0  0  2  0  0  0  0  0  0  0  0  0
   -1.7790    7.8310   -2.9160 C   0  0  0  0  0  0  0  0  0  0  0  0
   -3.0530    7.4220   -2.1730 C   0  0  0  0  0  0  0  0  0  0  0  0
   -3.9890    6.6550   -3.0580 C   0  0  2  0  0  0  0  0  0  0  0  0
   -4.8890    7.4660   -3.8240 O   0  0  0  0  0  0  0  0  0  0  0  0
   -5.4900    6.6040   -2.8440 C   0  0  0  0  0  0  0  0  0  0  0  0
   -6.1420    7.3320   -1.7100 C   0  0  0  0  0  0  0  0  0  0  0  0
   -6.2580    5.4630   -3.4350 C   0  0  0  0  0  0  0  0  0  0  0  0
   -0.8720    9.9370   -1.8900 C   0  0  1  0  0  0  0  0  0  0  0  0
   -2.3320   10.3410   -1.5540 C   0  0  0  0  0  0  0  0  0  0  0  0
   -2.2520   11.5950   -0.6470 C   0  0  0  0  0  0  0  0  0  0  0  0
   -0.7830   12.0650   -0.7600 C   0  0  1  0  0  0  0  0  0  0  0  0
   -0.7220   12.8720   -2.0950 C   0  0  0  0  0  0  0  0  0  0  0  0
   -0.2280   12.8960    0.4420 C   0  0  2  0  0  0  0  0  0  0  0  0
   -0.9410   14.2360    0.6940 C   0  0  0  0  0  0  0  0  0  0  0  0
   -0.3610   15.4110   -0.0220 C   0  0  0  0  0  0  0  0  0  0  0  0
    0.8520   15.4510   -0.6050 C   0  0  0  0  0  0  0  0  0  0  0  0
    1.8190   14.2650   -0.4940 C   0  0  1  0  0  0  0  0  0  0  0  0
    3.2340   14.7830   -0.1250 C   0  0  0  0  0  0  0  0  0  0  0  0
    3.7340   15.8550   -1.0890 C   0  0  0  0  0  0  0  0  0  0  0  0
    2.7760   17.0430   -1.1290 C   0  0  2  0  0  0  0  0  0  0  0  0
    2.8020   17.6980    0.1430 O   0  0  0  0  0  0  0  0  0  0  0  0
    1.3160   16.6410   -1.4800 C   0  0  0  0  0  0  0  0  0  0  0  0
    1.2380   16.2120   -2.9660 C   0  0  0  0  0  0  0  0  0  0  0  0
    0.4270   17.9080   -1.3470 C   0  0  0  0  0  0  0  0  0  0  0  0
    1.3450   13.0690    0.4400 C   0  0  1  0  0  0  0  0  0  0  0  0
    1.7640   13.3480    1.9160 C   0  0  0  0  0  0  0  0  0  0  0  0
    2.0910   11.7520    0.0070 C   0  0  0  0  0  0  0  0  0  0  0  0
    1.4310   10.9120   -1.1030 C   0  0  0  0  0  0  0  0  0  0  0  0
   -0.0510   10.6740   -0.8020 C   0  0  2  0  0  0  0  0  0  0  0  0
   -0.1430    9.8450    0.5240 C   0  0  0  0  0  0  0  0  0  0  0  0
    1.3868    7.9532   -1.6337 H   0  0  0  0  0  0  0  0  0  0  0  0
    0.6957    7.1896   -3.1054 H   0  0  0  0  0  0  0  0  0  0  0  0
    1.0951    8.9409   -3.1054 H   0  0  0  0  0  0  0  0  0  0  0  0
   -0.8061    7.9656   -1.0081 H   0  0  0  0  0  0  0  0  0  0  0  0
   -2.0451    8.5828   -3.6736 H   0  0  0  0  0  0  0  0  0  0  0  0
   -1.3590    6.9169   -3.3610 H   0  0  0  0  0  0  0  0  0  0  0  0
   -2.7781    6.7922   -1.3140 H   0  0  0  0  0  0  0  0  0  0  0  0
   -3.5661    8.3372   -1.8426 H   0  0  0  0  0  0  0  0  0  0  0  0
   -3.2378    5.8654   -3.2070 H   0  0  0  0  0  0  0  0  0  0  0  0
   -5.7776    6.9251   -0.7552 H   0  0  0  0  0  0  0  0  0  0  0  0
   -5.8947    8.4021   -1.7708 H   0  0  0  0  0  0  0  0  0  0  0  0
   -7.2328    7.2037   -1.7708 H   0  0  0  0  0  0  0  0  0  0  0  0
   -6.6747    4.8439   -2.6269 H   0  0  0  0  0  0  0  0  0  0  0  0
   -7.0769    5.8549   -4.0562 H   0  0  0  0  0  0  0  0  0  0  0  0
   -5.5867    4.8518   -4.0562 H   0  0  0  0  0  0  0  0  0  0  0  0
   -0.5266   10.2375   -2.8902 H   0  0  0  0  0  0  0  0  0  0  0  0
   -2.8820   10.5758   -2.4772 H   0  0  0  0  0  0  0  0  0  0  0  0
   -2.8620    9.5208   -1.0477 H   0  0  0  0  0  0  0  0  0  0  0  0
   -2.9384   12.3769   -1.0040 H   0  0  0  0  0  0  0  0  0  0  0  0
   -2.5418   11.3778    0.3917 H   0  0  0  0  0  0  0  0  0  0  0  0
   -0.6408   13.9459   -1.8709 H   0  0  0  0  0  0  0  0  0  0  0  0
    0.1545   12.5517   -2.6774 H   0  0  0  0  0  0  0  0  0  0  0  0
   -1.6367   12.6871   -2.6774 H   0  0  0  0  0  0  0  0  0  0  0  0
   -0.4773   12.2589    1.3033 H   0  0  0  0  0  0  0  0  0  0  0  0
   -1.9890   14.1283    0.3775 H   0  0  0  0  0  0  0  0  0  0  0  0
   -0.8247   14.4457    1.7675 H   0  0  0  0  0  0  0  0  0  0  0  0
   -0.9768   16.3208   -0.0779 H   0  0  0  0  0  0  0  0  0  0  0  0
    1.8406   13.7964   -1.4890 H   0  0  0  0  0  0  0  0  0  0  0  0
    3.2006   15.2083    0.8889 H   0  0  0  0  0  0  0  0  0  0  0  0
    3.9275   13.9311   -0.1838 H   0  0  0  0  0  0  0  0  0  0  0  0
    4.7243   16.2021   -0.7591 H   0  0  0  0  0  0  0  0  0  0  0  0
    3.7952   15.4194   -2.0972 H   0  0  0  0  0  0  0  0  0  0  0  0
    3.1170   17.7157   -1.9298 H   0  0  0  0  0  0  0  0  0  0  0  0
    2.2720   18.5100    0.0670 H   0  0  0  0  0  0  0  0  0  0  0  0
    1.0415   15.1313   -3.0258 H   0  0  0  0  0  0  0  0  0  0  0  0
    0.4249   16.7606   -3.4638 H   0  0  0  0  0  0  0  0  0  0  0  0
    2.1922   16.4393   -3.4638 H   0  0  0  0  0  0  0  0  0  0  0  0
    0.2682   18.1344   -0.2823 H   0  0  0  0  0  0  0  0  0  0  0  0
    0.9269   18.7593   -1.8322 H   0  0  0  0  0  0  0  0  0  0  0  0
   -0.5435   17.7275   -1.8322 H   0  0  0  0  0  0  0  0  0  0  0  0
    1.0455   12.8696    2.5978 H   0  0  0  0  0  0  0  0  0  0  0  0
    2.7688   12.9380    2.0957 H   0  0  0  0  0  0  0  0  0  0  0  0
    1.7732   14.4332    2.0957 H   0  0  0  0  0  0  0  0  0  0  0  0
    3.0937   12.0376   -0.3437 H   0  0  0  0  0  0  0  0  0  0  0  0
    2.0802   11.1088    0.8993 H   0  0  0  0  0  0  0  0  0  0  0  0
    1.5226   11.4455   -2.0606 H   0  0  0  0  0  0  0  0  0  0  0  0
    1.9393    9.9378   -1.1549 H   0  0  0  0  0  0  0  0  0  0  0  0
   -0.0677   10.5235    1.3866 H   0  0  0  0  0  0  0  0  0  0  0  0
   -1.1056    9.3138    0.5583 H   0  0  0  0  0  0  0  0  0  0  0  0
    0.6797    9.1156    0.5583 H   0  0  0  0  0  0  0  0  0  0  0  0
  1  2  1  0
  2  3  1  0
  3  4  1  0
  4  5  1  0
  5  6  1  0
  6  7  1  0
  7  8  1  0
  7  9  1  0
  2 10  1  0
 10 11  1  0
 11 12  1  0
 12 13  1  0
 13 14  1  6
 13 15  1  0
 15 16  1  0
 16 17  1  0
 17 18  2  0
 18 19  1  0
 19 20  1  0
 20 21  1  0
 21 22  1  0
 22 23  1  0
 22 24  1  0
 24 25  1  0
 24 26  1  0
 19 27  1  0
 27 28  1  1
 27 29  1  0
 29 30  1  0
 30 31  1  0
 31 32  1  1
  7  5  1  0
 31 10  1  0
 31 13  1  0
 27 15  1  0
 24 18  1  0
  1 33  1  0
  1 34  1  0
  1 35  1  0
  2 36  1  1
  3 37  1  0
  3 38  1  0
  4 39  1  0
  4 40  1  0
  5 41  1  6
  8 42  1  0
  8 43  1  0
  8 44  1  0
  9 45  1  0
  9 46  1  0
  9 47  1  0
 10 48  1  6
 11 49  1  0
 11 50  1  0
 12 51  1  0
 12 52  1  0
 14 53  1  0
 14 54  1  0
 14 55  1  0
 15 56  1  1
 16 57  1  0
 16 58  1  0
 17 59  1  0
 19 60  1  6
 20 61  1  0
 20 62  1  0
 21 63  1  0
 21 64  1  0
 22 65  1  6
 23 66  1  0
 25 67  1  0
 25 68  1  0
 25 69  1  0
 26 70  1  0
 26 71  1  0
 26 72  1  0
 28 73  1  0
 28 74  1  0
 28 75  1  0
 29 76  1  0
 29 77  1  0
 30 78  1  0
 30 79  1  0
 32 80  1  0
 32 81  1  0
 32 82  1  0
M  END
>  <meeko>  (18) 
{"is_sidechain": [false], "intermolecular_energy": 2.731, "internal_energy": -0.839}

$$$$
